####################################################################### 
# 
# This file contains crystal structure data downloaded from the 
# Cambridge Structural Database (CSD) hosted by the Cambridge 
# Crystallographic Data Centre (CCDC).
# 
# Full information about CCDC data access policies and citation 
# guidelines are available at http://www.ccdc.cam.ac.uk/access/V1 
# 
# Audit and citation data items may have been added by the CCDC. 
# Please retain this information to preserve the provenance of 
# this file and to allow appropriate attribution of the data. 
# 
#######################################################################

data_2013ncs0814
_audit_block_doi                 10.5517/cc1jkhyj
_database_code_depnum_ccdc_archive 'CCDC 1417008'
loop_
_citation_id
_citation_doi
_citation_year
1 10.1021/ic502780b 2015
_audit_update_record             
;
2015-08-05 deposited with the CCDC.	2019-03-04 downloaded from the CCDC.
;
_audit_creation_date             2014-10-06
_audit_creation_method           
;
Olex2 1.2
(compiled 2014.09.19 svn.r3010 for OlexSys, GUI svn.r4874)
;
_shelxl_version_number           2013-4
_chemical_name_common            M12L18OH
_chemical_name_systematic        
;
 ?
;
_chemical_formula_moiety         'C540 H468 Co12 N108 O36, 24(B1 F4), 1.5(H2O)'
_chemical_formula_sum            'C540 H471 B24 Co12 F96 N108 O37.50'
_chemical_formula_weight         11863.82
_chemical_melting_point          ?
loop_
_atom_type_symbol
_atom_type_description
_atom_type_scat_dispersion_real
_atom_type_scat_dispersion_imag
_atom_type_scat_source
C C 0.0033 0.0016 'International Tables Vol C Tables 4.2.6.8 and 6.1.1.4'
H H 0.0000 0.0000 'International Tables Vol C Tables 4.2.6.8 and 6.1.1.4'
B B 0.0013 0.0007 'International Tables Vol C Tables 4.2.6.8 and 6.1.1.4'
Co Co 0.3494 0.9721 'International Tables Vol C Tables 4.2.6.8 and 6.1.1.4'
F F 0.0171 0.0103 'International Tables Vol C Tables 4.2.6.8 and 6.1.1.4'
N N 0.0061 0.0033 'International Tables Vol C Tables 4.2.6.8 and 6.1.1.4'
O O 0.0106 0.0060 'International Tables Vol C Tables 4.2.6.8 and 6.1.1.4'

_shelx_space_group_comment       
;
The symmetry employed for this shelxl refinement is uniquely defined
by the following loop, which should always be used as a source of
symmetry information in preference to the above space-group names.
They are only intended as comments.
;
_space_group_crystal_system      trigonal
_space_group_IT_number           148
_space_group_name_H-M_alt        'R -3'
_space_group_name_Hall           '-R 3'
loop_
_space_group_symop_operation_xyz
'x, y, z'
'-y, x-y, z'
'-x+y, -x, z'
'x+2/3, y+1/3, z+1/3'
'-y+2/3, x-y+1/3, z+1/3'
'-x+y+2/3, -x+1/3, z+1/3'
'x+1/3, y+2/3, z+2/3'
'-y+1/3, x-y+2/3, z+2/3'
'-x+y+1/3, -x+2/3, z+2/3'
'-x, -y, -z'
'y, -x+y, -z'
'x-y, x, -z'
'-x+2/3, -y+1/3, -z+1/3'
'y+2/3, -x+y+1/3, -z+1/3'
'x-y+2/3, x+1/3, -z+1/3'
'-x+1/3, -y+2/3, -z+2/3'
'y+1/3, -x+y+2/3, -z+2/3'
'x-y+1/3, x+2/3, -z+2/3'

_cell_length_a                   44.705(9)
_cell_length_b                   44.705(9)
_cell_length_c                   68.621(14)
_cell_angle_alpha                90
_cell_angle_beta                 90
_cell_angle_gamma                120
_cell_volume                     118768(54)
_cell_formula_units_Z            6
_cell_measurement_reflns_used    62572
_cell_measurement_temperature    100(2)
_cell_measurement_theta_max      25.1
_cell_measurement_theta_min      2.3
_shelx_estimated_absorpt_T_max   ?
_shelx_estimated_absorpt_T_min   ?
_exptl_absorpt_coefficient_mu    0.319
_exptl_absorpt_correction_T_max  1.000
_exptl_absorpt_correction_T_min  0.599
_exptl_absorpt_correction_type   multi-scan
_exptl_absorpt_process_details   sadabs
_exptl_crystal_colour            orange
_exptl_crystal_density_diffrn    0.995
_exptl_crystal_density_meas      ?
_exptl_crystal_density_method    ?
_exptl_crystal_description       block
_exptl_crystal_F_000             36450
_exptl_crystal_size_max          0.1
_exptl_crystal_size_mid          0.1
_exptl_crystal_size_min          0.1
_exptl_special_details           
;
 ?
;
_exptl_transmission_factor_max   ?
_exptl_transmission_factor_min   ?
_diffrn_reflns_av_R_equivalents  ?
_diffrn_reflns_av_unetI/netI     0.0544
_diffrn_reflns_Laue_measured_fraction_full 0.492
_diffrn_reflns_Laue_measured_fraction_max 0.506
_diffrn_reflns_limit_h_max       48
_diffrn_reflns_limit_h_min       -52
_diffrn_reflns_limit_k_max       44
_diffrn_reflns_limit_k_min       -53
_diffrn_reflns_limit_l_max       63
_diffrn_reflns_limit_l_min       -81
_diffrn_reflns_number            ?
_diffrn_reflns_point_group_measured_fraction_full 0.492
_diffrn_reflns_point_group_measured_fraction_max 0.506
_diffrn_reflns_theta_full        25.242
_diffrn_reflns_theta_max         25.008
_diffrn_reflns_theta_min         2.312
_diffrn_ambient_temperature      100(2)
_diffrn_detector_area_resol_mean ?
_diffrn_measured_fraction_theta_full 0.492
_diffrn_measured_fraction_theta_max 0.506
_diffrn_measurement_device_type  'Rigaku Saturn724+ (2x2 bin mode)'
_diffrn_measurement_method       'profile data from \w-scans'
_diffrn_radiation_type           MoK\a
_diffrn_radiation_wavelength     0.71075
_diffrn_source                   'Rotating Anode'
_reflns_Friedel_coverage         0.000
_reflns_Friedel_fraction_full    .
_reflns_Friedel_fraction_max     .
_reflns_number_gt                14043
_reflns_number_total             23528
_reflns_special_details          
;
 Data were apparently pre-merged, so _diffrn_reflns_number
 etc. will have to be added later.
 
 Reflections were merged by SHELXL according to the crystal
 class for the calculation of statistics and refinement.
 
 _reflns_Friedel_fraction is defined as the number of unique
 Friedel pairs measured divided by the number that would be
 possible theoretically, ignoring centric projections and
 systematic absences.
;
_reflns_threshold_expression     'I > 2\s(I)'
_computing_cell_refinement       ?
_computing_data_collection       'CrystalClear-SM Expert 3.1 b27 (Rigaku, 2012)'
_computing_data_reduction        ?
_computing_molecular_graphics    'Olex2 (Dolomanov et al., 2009)'
_computing_publication_material  'Olex2 (Dolomanov et al., 2009)'
_computing_structure_refinement  'SHELXL-2013 (Sheldrick, 2013)'
_computing_structure_solution    ?
_refine_diff_density_max         1.284
_refine_diff_density_min         -0.694
_refine_diff_density_rms         0.124
_refine_ls_extinction_coef       .
_refine_ls_extinction_method     none
_refine_ls_goodness_of_fit_ref   1.839
_refine_ls_hydrogen_treatment    constr
_refine_ls_matrix_type           full
_refine_ls_number_parameters     1767
_refine_ls_number_reflns         23528
_refine_ls_number_restraints     2282
_refine_ls_R_factor_all          0.2453
_refine_ls_R_factor_gt           0.1991
_refine_ls_restrained_S_all      1.806
_refine_ls_shift/su_max          0.001
_refine_ls_shift/su_mean         0.000
_refine_ls_structure_factor_coef Fsqd
_refine_ls_weighting_details     
'w=1/[\s^2^(Fo^2^)+(0.2000P)^2^] where P=(Fo^2^+2Fc^2^)/3'
_refine_ls_weighting_scheme      calc
_refine_ls_wR_factor_gt          0.4972
_refine_ls_wR_factor_ref         0.5222
_refine_special_details          
;
 Refinement of F^2^ against ALL reflections. The weighted R-factor wR and
goodness of fit S are based on F^2^, conventional R-factors R are based
on F, with F set to zero for negative F^2^. The threshold expression of
F^2^ > 2sigma(F^2^) is used only for calculating R-factors(gt) etc. and is
not relevant to the choice of reflections for refinement. R-factors based
on F^2^ are statistically about twice as large as those based on F, and R-
factors based on ALL data will be even larger.
The structure is a [Co12L18](BF4)24 truncated tetrahedral coordination cage.
The structure was solved by direct methods and all hydrogens have
been added in calculated positions. Only 8 of the 24 BF4 anions could be located
in the data.Some of the O-H hydrogens were not included due to the calculated positions not being positioned correctly. these account for the missmatch in the formular weights
All 6 and 5 membered rings aswell as naphthalene rings benefitted from geometrical
restraints (AFIX). All anions and CH2OH sections benefitted from the SADI restraint.
some CH2OH's CH2 beinfitted with the FLAT restraint with the pyridyl atoms.
All atoms benefitted from SIMU and DELU restraints.
All atoms were refined anisotropically.

The CH2-OH protons were added using HFIX 83 to that the refinement converged.
The final structure has a high r-factor and high displacement
parameters for some individual atoms but the data set has been collected at the UK national crystallography service.
the crystals were weak scattering, showing next to non high angle scattering due to the presence of large voids 
within the structure and lattice containing severely disordered solvents / anions.

The alert PLAT733_ALERT_1_A: This is caused by the large number of constraints applied to the structure.

A large solvent accessible void with solvent molecules that could not be modelled 
was present so OLEX2-solvent mask was used:

Observation type: xray.intensity
Type of data: double, size=184508
Type of sigmas: double, size=184508
Number of Miller indices: 184508
Anomalous flag: False
Unit cell: (44.705, 44.705, 68.621, 90, 90, 120)
Space group: R -3 :H (No. 148)
Systematic absences: 0
Centric reflections: 184508
Resolution range: 8.8085 0.840622

use_set_completion: False
solvent_radius: 1.20
shrink_truncation_radius: 1.20
van der Waals radii:
    B     C    Co     F     H     N     O
 2.00  1.70  2.00  1.47  1.09  1.55  1.52

Total solvent accessible volume / cell = 59389.4 Ang^3 [50.0%]
Total electron count / cell = 3943.0

gridding: (216,216,360)
Void #Grid points Vol/A^3 Vol/%  Centre of mass (frac)   Eigenvectors (frac)
   1      8398833 59389.4  50.0  (-0.659,-0.525,-0.581)  1  ( 0.995, 0.071,-0.073)
                                                         2  ( 0.102,-0.645, 0.757)
                                                         3  (-0.007, 0.761, 0.649)

Void  Vol/Ang^3  #Electrons
   1    59389.4       3943.3


;
_olex2_refinement_description    
;
1. Fixed Uiso
 At 1.2 times of:
  All C(H) groups, All C(H,H) groups
 At 1.5 times of:
  All O(H) groups
2. Shared sites
{C17B, C18B}
3. Restrained distances
 C17A-C13A \\sim C17A-C15A
 with sigma of 0.02
 C37A-C33A \\sim C37A-C35A
 with sigma of 0.02
 C17B-C13B \\sim C17B-C15B
 with sigma of 0.02
 C37B-C33B \\sim C37B-C35B
 with sigma of 0.02
 C17C-C13C \\sim C17C-C15C
 with sigma of 0.02
 C37C-C33C \\sim C37C-C35C
 with sigma of 0.02
 C17D-C13D \\sim C17D-C15D
 with sigma of 0.02
 C37D-C33D \\sim C37D-C35D
 with sigma of 0.02
 C17E-C13E \\sim C17E-C15E
 with sigma of 0.02
 C17F-C13F \\sim C17F-C15F
 with sigma of 0.02
 C17G-C13G \\sim C17G-C15G
 with sigma of 0.02
 C14A-C17A \\sim C14B-C17B \\sim C14C-C17C \\sim C14D-C17D
 with sigma of 0.02
 C14E-C17E \\sim C14F-C17F \\sim C14G-C17G
 with sigma of 0.02
 C34A-C37A \\sim C34B-C37B \\sim C34C-C37C \\sim C34D-C37D
 with sigma of 0.02
 B1-F1 \\sim B1-F2
 with sigma of 0.02
 B2-F5 \\sim B2-F6 \\sim B2-F7 \\sim B2-F8
 with sigma of 0.02
 F5-F6 \\sim F5-F7 \\sim F5-F8 \\sim F6-F7 \\sim F6-F8 \\sim F7-F8
 with sigma of 0.02
4. Restrained planarity
 C17A, C13A, C14A, C15A
 with sigma of 0.1
 C37A, C33A, C34A, C35A
 with sigma of 0.1
 C17B, C13B, C14B, C15B
 with sigma of 0.1
 C37B, C33B, C34B, C35B
 with sigma of 0.1
 C17C, C13C, C14C, C15C
 with sigma of 0.1
 C37C, C33C, C34C, C35C
 with sigma of 0.1
 C17D, C13D, C14D, C15D
 with sigma of 0.1
 C37D, C33D, C34D, C35D
 with sigma of 0.1
 C17E, C13E, C17E, C15E
 with sigma of 0.1
 C17F, C13F, C14F, C15F
 with sigma of 0.1
 C17G, C13G, C14G, C15G
 with sigma of 0.1
5. Rigid bond restraints
 C12A, C13A, C14A, C15A, C16A, C17A, C23A, C24A, C25A, C26A, C32A, C33A, C34A,
 C35A, C36A, C37A, C43A, C44A, C45A, C46A, C51A, C52A, C53A, C54A, C55A, C56A,
 C57A, C58A, C59A, C60A, C12B, C13B, C14B, C15B, C16B, C17B, C18B, C23B, C24B,
 C25B, C26B, C32B, C33B, C34B, C35B, C36B, C37B, C43B, C44B, C45B, C46B, C51B,
 C52B, C53B, C54B, C55B, C56B, C57B, C58B, C59B, C60B, C12C, C13C, C14C, C15C,
 C16C, C17C, C23C, C24C, C25C, C26C, C32C, C33C, C34C, C35C, C36C, C37C, C43C,
 C44C, C45C, C46C, C51C, C52C, C53C, C54C, C55C, C56C, C57C, C58C, C59C, C60C,
 C12D, C13D, C14D, C15D, C16D, C17D, C23D, C24D, C25D, C26D, C32D, C33D, C34D,
 C35D, C36D, C37D, C43D, C44D, C45D, C46D, C51D, C52D, C53D, C54D, C55D, C56D,
 C57D, C58D, C59D, C60D, C12E, C13E, C14E, C15E, C16E, C17E, C23E, C24E, C25E,
 C26E, C43E, C44E, C45E, C46E, C51E, C52E, C53E, C54E, C55E, C56E, C57E, C58E,
 C59E, C60E, C12F, C13F, C14F, C15F, C16F, C17F, C23F, C24F, C25F, C26F, C46F,
 C51F, C52F, C53F, C54F, C55F, C56F, C57F, C58F, C59F, C60F, C12G, C13G, C14G,
 C15G, C16G, C17G, C23G, C24G, C25G, C12H, C13H, C14H, C15H, C16H, C17H, N11A,
 N21A, N22A, N31A, N41A, N42A, N11B, N21B, N22B, N31B, N41B, N42B, N11C, N21C,
 N22C, N31C, N41C, N42C, N11D, N21D, N22D, N31D, N41D, N42D, N11E, N21E, N22E,
 N41E, N42E, N11F, N21F, N22F, N11G, N22G, N21G, N11H, B1, B2, F1, F2, F5, F6,
 F7, F8, O18A, O38A, O18B, O19B, O38B, O18C, O38C, O18D, O38D, O18E, O18F, O18G,
  O18H, O36
 with sigma for 1-2 distances of 0.003 and sigma for 1-3 distances of 0.006
6. Uiso/Uaniso restraints and constraints
C12A \\sim C13A \\sim C14A \\sim C15A \\sim C16A \\sim C17A \\sim C23A \\sim
C24A \\sim C25A \\sim C26A \\sim C32A \\sim C33A \\sim C34A \\sim C35A \\sim
C36A \\sim C37A \\sim C43A \\sim C44A \\sim C45A \\sim C46A \\sim C51A \\sim
C52A \\sim C53A \\sim C54A \\sim C55A \\sim C56A \\sim C57A \\sim C58A \\sim
C59A \\sim C60A \\sim C12B \\sim C13B \\sim C14B \\sim C15B \\sim C16B \\sim
C17B \\sim C18B \\sim C23B \\sim C24B \\sim C25B \\sim C26B \\sim C32B \\sim
C33B \\sim C34B \\sim C35B \\sim C36B \\sim C37B \\sim C43B \\sim C44B \\sim
C45B \\sim C46B \\sim C51B \\sim C52B \\sim C53B \\sim C54B \\sim C55B \\sim
C56B \\sim C57B \\sim C58B \\sim C59B \\sim C60B \\sim C12C \\sim C13C \\sim
C14C \\sim C15C \\sim C16C \\sim C17C \\sim C23C \\sim C24C \\sim C25C \\sim
C26C \\sim C32C \\sim C33C \\sim C34C \\sim C35C \\sim C36C \\sim C37C \\sim
C43C \\sim C44C \\sim C45C \\sim C46C \\sim C51C \\sim C52C \\sim C53C \\sim
C54C \\sim C55C \\sim C56C \\sim C57C \\sim C58C \\sim C59C \\sim C60C \\sim
C12D \\sim C13D \\sim C14D \\sim C15D \\sim C16D \\sim C17D \\sim C23D \\sim
C24D \\sim C25D \\sim C26D \\sim C32D \\sim C33D \\sim C34D \\sim C35D \\sim
C36D \\sim C37D \\sim C43D \\sim C44D \\sim C45D \\sim C46D \\sim C51D \\sim
C52D \\sim C53D \\sim C54D \\sim C55D \\sim C56D \\sim C57D \\sim C58D \\sim
C59D \\sim C60D \\sim C12E \\sim C13E \\sim C14E \\sim C15E \\sim C16E \\sim
C17E \\sim C23E \\sim C24E \\sim C25E \\sim C26E \\sim C43E \\sim C44E \\sim
C45E \\sim C46E \\sim C51E \\sim C52E \\sim C53E \\sim C54E \\sim C55E \\sim
C56E \\sim C57E \\sim C58E \\sim C59E \\sim C60E \\sim C12F \\sim C13F \\sim
C14F \\sim C15F \\sim C16F \\sim C17F \\sim C23F \\sim C24F \\sim C25F \\sim
C26F \\sim C46F \\sim C51F \\sim C52F \\sim C53F \\sim C54F \\sim C55F \\sim
C56F \\sim C57F \\sim C58F \\sim C59F \\sim C60F \\sim C12G \\sim C13G \\sim
C14G \\sim C15G \\sim C16G \\sim C17G \\sim C23G \\sim C24G \\sim C25G \\sim
C12H \\sim C13H \\sim C14H \\sim C15H \\sim C16H \\sim C17H \\sim N11A \\sim
N21A \\sim N22A \\sim N31A \\sim N41A \\sim N42A \\sim N11B \\sim N21B \\sim
N22B \\sim N31B \\sim N41B \\sim N42B \\sim N11C \\sim N21C \\sim N22C \\sim
N31C \\sim N41C \\sim N42C \\sim N11D \\sim N21D \\sim N22D \\sim N31D \\sim
N41D \\sim N42D \\sim N11E \\sim N21E \\sim N22E \\sim N41E \\sim N42E \\sim
N11F \\sim N21F \\sim N22F \\sim N11G \\sim N22G \\sim N21G \\sim N11H \\sim B1
\\sim B2 \\sim F1 \\sim F2 \\sim F5 \\sim F6 \\sim F7 \\sim F8 \\sim O18A \\sim
O38A \\sim O18B \\sim O19B \\sim O38B \\sim O18C \\sim O38C \\sim O18D \\sim
O38D \\sim O18E \\sim O18F \\sim O18G \\sim O18H \\sim O36: within 1.7A with
sigma of 0.003 and sigma for terminal atoms of 0.006
Uanis(C17B) = Uanis(C18B)
7. Others
 Sof(C18B)=Sof(H18C)=Sof(H18D)=Sof(O19B)=Sof(H19B)=1-FVAR(1)
 Sof(C17B)=Sof(H17C)=Sof(H17D)=Sof(O18B)=Sof(H18B)=FVAR(1)
 Fixed Sof: O36(0.5)
8.a Secondary CH2 refined with riding coordinates:
 C17A(H17A,H17B), C26A(H26A,H26B), C37A(H37A,H37B), C46A(H46A,H46B), C17B(H17C,
 H17D), C18B(H18C,H18D), C26B(H26C,H26D), C37B(H37C,H37D), C46B(H46C,H46D),
 C17C(H17E,H17F), C26C(H26E,H26F), C37C(H37E,H37F), C46C(H46E,H46F), C17D(H17G,
 H17H), C26D(H26G,H26H), C37D(H37G,H37H), C46D(H46G,H46H), C17E(H17I,H17J),
 C26E(H26I,H26J), C46E(H46I,H46J), C17F(H17K,H17L), C26F(H26K,H26L), C46F(H46K,
 H46L), C17G(H17M,H17N), C17H(H17O,H17P)
8.b Aromatic/amide H refined with riding coordinates:
 C12A(H12A), C13A(H13A), C15A(H15A), C24A(H24A), C25A(H25A), C32A(H32A),
 C33A(H33A), C35A(H35A), C44A(H44A), C45A(H45A), C52A(H52A), C53A(H53A),
 C54A(H54A), C58A(H58A), C59A(H59A), C60A(H60A), C12B(H12B), C13B(H13B),
 C15B(H15B), C24B(H24B), C25B(H25B), C32B(H32B), C33B(H33B), C35B(H35B),
 C44B(H44B), C45B(H45B), C52B(H52B), C53B(H53B), C58B(H58B), C59B(H59B),
 C60B(H60B), C12C(H12C), C13C(H13C), C15C(H15C), C24C(H24C), C25C(H25C),
 C32C(H32C), C33C(H33C), C35C(H35C), C44C(H44C), C45C(H45C), C52C(H52C),
 C54C(H54C), C58C(H58C), C59C(H59C), C60C(H60C), C12D(H12D), C13D(H13D),
 C15D(H15D), C24D(H24D), C25D(H25D), C32D(H32D), C33D(H33D), C35D(H35D),
 C44D(H44D), C45D(H45D), C52D(H52D), C53D(H53D), C54D(H54D), C58D(H58D),
 C59D(H59D), C60D(H60D), C12E(H12E), C13E(H13E), C15E(H15E), C24E(H24E),
 C25E(H25E), C44E(H44E), C45E(H45E), C52E(H52E), C53E(H53E), C54E(H54E),
 C58E(H58E), C59E(H59E), C60E(H60E), C12F(H12F), C13F(H13F), C15F(H15F),
 C24F(H24F), C25F(H25F), C52F(H52F), C53F(H53F), C54F(H54F), C58F(H58F),
 C59F(H59F), C60F(H60F), C12G(H12G), C13G(H13G), C15G(H15G), C24G(H24G),
 C25G(H25G), C12H(H12H), C13H(H13H), C15H(H15H)
8.c Fitted pentagon refined as free rotating group:
 N21A(N22A,C23A,C24A,C25A), N41A(N42A,C43A,C44A,C45A), N21B(N22B,C23B,C24B,
 C25B), N41B(N42B,C43B,C44B,C45B), N21C(N22C,C23C,C24C,C25C), N41C(N42C,C43C,
 C44C,C45C), N21D(N22D,C23D,C24D,C25D), N41D(N42D,C43D,C44D,C45D), N21E(N22E,
 C23E,C24E,C25E), N41E(N42E,C43E,C44E,C45E), N21F(N22F,C23F,C24F,C25F),
 N22G(N21G,C23G,C24G,C25G)
8.d Fitted hexagon refined as free rotating group:
 N11A(C12A,C13A,C14A,C15A,C16A), N31A(C32A,C33A,C34A,C35A,C36A), N11B(C12B,
 C13B,C14B,C15B,C16B), N31B(C32B,C33B,C34B,C35B,C36B), N11C(C12C,C13C,C14C,C15C,
 C16C), N31C(C32C,C33C,C34C,C35C,C36C), N11D(C12D,C13D,C14D,C15D,C16D),
 N31D(C32D,C33D,C34D,C35D,C36D), N11E(C12E,C13E,C14E,C15E,C16E), N11F(C12F,C13F,
 C14F,C15F,C16F), N11G(C12G,C13G,C14G,C15G,C16G), N11H(C12H,C13H,C14H,C15H,C16H)
8.e Tetrahedral OH refined with riding coordinates:
 O18A(H18A), O38A(H38A), O18B(H18B), O19B(H19B), O38B(H38B), O18C(H18E),
 O38C(H38C), O18D(H18F), O38D(H38D), O18E(H18G), O18F(H18H), O18G(H18I),
 O18H(H18J)
8.f Naphthalene refined as free rotating group:
 C51A(C52A,C53A,C54A,C55A,C56A,C57A,C58A,C59A,C60A), C51B(C52B,C53B,C54B,C55B,
 C56B,C57B,C58B,C59B,C60B), C51C(C52C,C53C,C54C,C55C,C56C,C57C,C58C,C59C,C60C),
 C51D(C52D,C53D,C54D,C55D,C56D,C57D,C58D,C59D,C60D), C51E(C52E,C53E,C54E,C55E,
 C56E,C57E,C58E,C59E,C60E), C51F(C52F,C53F,C54F,C55F,C56F,C57F,C58F,C59F,C60F)
;
_atom_sites_solution_hydrogens   geom
_atom_sites_solution_primary     ?
_atom_sites_solution_secondary   ?
loop_
_atom_site_label
_atom_site_type_symbol
_atom_site_fract_x
_atom_site_fract_y
_atom_site_fract_z
_atom_site_U_iso_or_equiv
_atom_site_adp_type
_atom_site_occupancy
_atom_site_site_symmetry_order
_atom_site_calc_flag
_atom_site_refinement_flags_posn
_atom_site_refinement_flags_adp
_atom_site_refinement_flags_occupancy
_atom_site_disorder_assembly
_atom_site_disorder_group
Co1 Co 0.10139(5) 0.63664(5) 0.03250(3) 0.1075(8) Uani 1 1 d . . . . .
Co2 Co 0.30532(5) 0.85693(5) 0.04327(4) 0.1071(8) Uani 1 1 d . . . . .
Co3 Co 0.17885(8) 0.78887(6) -0.07447(4) 0.1267(10) Uani 1 1 d . . . . .
Co4 Co 0.23669(7) 0.70534(7) -0.18665(4) 0.1277(10) Uani 1 1 d . . . . .
N11A N 0.0567(3) 0.6134(4) 0.05065(17) 0.159(3) Uani 1 1 d . U . . .
C12A C 0.0368(3) 0.5777(4) 0.05227(19) 0.162(3) Uani 1 1 d G U . . .
H12A H 0.0431 0.5636 0.0456 0.195 Uiso 1 1 calc R . . . .
C13A C 0.0074(3) 0.5630(3) 0.0639(2) 0.165(3) Uani 1 1 d G U . . .
H13A H -0.0060 0.5391 0.0650 0.197 Uiso 1 1 calc R . . . .
C14A C -0.0021(3) 0.5841(3) 0.07387(17) 0.165(3) Uani 1 1 d G U . . .
C15A C 0.0178(3) 0.6198(3) 0.07225(19) 0.161(3) Uani 1 1 d G U . . .
H15A H 0.0115 0.6338 0.0789 0.193 Uiso 1 1 calc R . . . .
C16A C 0.0472(3) 0.6344(3) 0.0606(2) 0.157(3) Uani 1 1 d G U . . .
C17A C -0.0348(5) 0.5658(5) 0.0883(3) 0.172(3) Uani 1 1 d . U . . .
H17A H -0.0557 0.5496 0.0815 0.206 Uiso 1 1 calc R . . . .
H17B H -0.0307 0.5542 0.0991 0.206 Uiso 1 1 calc R . . . .
O18A O -0.0357(4) 0.5947(4) 0.0943(2) 0.186(4) Uani 1 1 d . U . . .
H18A H -0.0390 0.6039 0.0849 0.279 Uiso 1 1 calc R . . . .
N21A N 0.1319(2) 0.7139(3) 0.05203(17) 0.137(2) Uani 1 1 d . U . . .
N22A N 0.1076(3) 0.6780(3) 0.05051(18) 0.140(2) Uani 1 1 d G U . . .
C23A C 0.0768(3) 0.6717(3) 0.0601(2) 0.146(2) Uani 1 1 d G U . . .
C24A C 0.0822(3) 0.7037(4) 0.06761(19) 0.144(2) Uani 1 1 d G U . . .
H24A H 0.0662 0.7069 0.0746 0.173 Uiso 1 1 calc R . . . .
C25A C 0.1162(3) 0.7297(3) 0.06260(19) 0.140(2) Uani 1 1 d G U . . .
H25A H 0.1264 0.7530 0.0657 0.168 Uiso 1 1 calc R . . . .
C26A C 0.1687(4) 0.7266(5) 0.0501(3) 0.132(2) Uani 1 1 d . U . . .
H26A H 0.1799 0.7511 0.0470 0.158 Uiso 1 1 calc R . . . .
H26B H 0.1721 0.7152 0.0390 0.158 Uiso 1 1 calc R . . . .
N31A N 0.3418(2) 0.8788(2) 0.02091(14) 0.118(2) Uani 1 1 d . U . . .
C32A C 0.3655(3) 0.9139(2) 0.01949(14) 0.120(2) Uani 1 1 d G U . . .
H32A H 0.3670 0.9289 0.0294 0.144 Uiso 1 1 calc R . . . .
C33A C 0.3868(2) 0.92676(18) 0.00327(16) 0.122(2) Uani 1 1 d G U . . .
H33A H 0.4027 0.9502 0.0023 0.147 Uiso 1 1 calc R . . . .
C34A C 0.3845(3) 0.9045(2) -0.01152(14) 0.126(2) Uani 1 1 d G U . . .
C35A C 0.3609(3) 0.8693(2) -0.01009(15) 0.123(2) Uani 1 1 d G U . . .
H35A H 0.3593 0.8544 -0.0200 0.147 Uiso 1 1 calc R . . . .
C36A C 0.3395(2) 0.85654(19) 0.00612(17) 0.116(2) Uani 1 1 d G U . . .
C37A C 0.4075(4) 0.9184(4) -0.0299(2) 0.132(3) Uani 1 1 d . U . . .
H37A H 0.4170 0.9036 -0.0329 0.158 Uiso 1 1 calc R . . . .
H37B H 0.3934 0.9175 -0.0409 0.158 Uiso 1 1 calc R . . . .
O38A O 0.4321(3) 0.9492(3) -0.0278(2) 0.156(4) Uani 1 1 d . U . . .
H38A H 0.4442 0.9553 -0.0376 0.235 Uiso 1 1 calc R . . . .
N41A N 0.2666(2) 0.7776(2) 0.02277(14) 0.1124(19) Uani 1 1 d . U . . .
N42A N 0.2898(3) 0.8138(2) 0.02309(14) 0.111(2) Uani 1 1 d G U . . .
C43A C 0.3142(2) 0.8219(2) 0.00786(17) 0.111(2) Uani 1 1 d G U . . .
C44A C 0.3061(3) 0.7907(3) -0.00187(14) 0.112(2) Uani 1 1 d G U . . .
H44A H 0.3179 0.7885 -0.0124 0.134 Uiso 1 1 calc R . . . .
C45A C 0.2767(3) 0.7633(2) 0.00735(16) 0.112(2) Uani 1 1 d G U . . .
H45A H 0.2659 0.7401 0.0039 0.134 Uiso 1 1 calc R . . . .
C46A C 0.2368(4) 0.7578(4) 0.0358(3) 0.116(2) Uani 1 1 d . U . . .
H46A H 0.2194 0.7381 0.0286 0.140 Uiso 1 1 calc R . . . .
H46B H 0.2271 0.7723 0.0390 0.140 Uiso 1 1 calc R . . . .
C51A C 0.1871(2) 0.7219(3) 0.06790(14) 0.129(2) Uani 1 1 d . U . . .
C52A C 0.16394(18) 0.7060(3) 0.08310(17) 0.129(2) Uani 1 1 d G U . . .
H52A H 0.1412 0.7012 0.0819 0.155 Uiso 1 1 calc R . . . .
C53A C 0.1747(2) 0.6973(3) 0.10010(15) 0.131(2) Uani 1 1 d G U . . .
H53A H 0.1592 0.6866 0.1103 0.157 Uiso 1 1 calc R . . . .
C54A C 0.2086(2) 0.7044(3) 0.10189(12) 0.131(2) Uani 1 1 d G U . . .
H54A H 0.2158 0.6986 0.1133 0.157 Uiso 1 1 calc R . . . .
C55A C 0.23178(18) 0.72034(18) 0.08669(11) 0.129(2) Uani 1 1 d G U . . .
C56A C 0.22105(18) 0.72910(18) 0.06969(11) 0.126(2) Uani 1 1 d G U . . .
C57A C 0.2442(2) 0.7450(3) 0.05449(12) 0.123(2) Uani 1 1 d G U . . .
C58A C 0.2782(2) 0.7522(3) 0.05628(15) 0.126(2) Uani 1 1 d G U . . .
H58A H 0.2937 0.7628 0.0461 0.151 Uiso 1 1 calc R . . . .
C59A C 0.28890(18) 0.7434(3) 0.07328(17) 0.128(2) Uani 1 1 d G U . . .
H59A H 0.3116 0.7482 0.0745 0.154 Uiso 1 1 calc R . . . .
C60A C 0.2657(2) 0.7275(3) 0.08848(14) 0.130(2) Uani 1 1 d G U . . .
H60A H 0.2729 0.7216 0.0999 0.156 Uiso 1 1 calc R . . . .
N11B N 0.1349(2) 0.6283(3) 0.05046(15) 0.123(2) Uani 1 1 d . U . . .
C12B C 0.1278(2) 0.6147(3) 0.06920(16) 0.126(2) Uani 1 1 d G U . . .
H12B H 0.1057 0.6057 0.0743 0.152 Uiso 1 1 calc R . . . .
C13B C 0.1538(3) 0.6146(3) 0.08030(13) 0.129(2) Uani 1 1 d G U . . .
H13B H 0.1490 0.6055 0.0928 0.155 Uiso 1 1 calc R . . . .
C14B C 0.1868(2) 0.6281(3) 0.07266(15) 0.1297(18) Uani 1 1 d G U . . .
C15B C 0.1939(2) 0.6417(3) 0.05392(16) 0.124(2) Uani 1 1 d G U . . .
H15B H 0.2161 0.6507 0.0488 0.149 Uiso 1 1 calc R . . . .
C16B C 0.1680(3) 0.6418(3) 0.04282(13) 0.1204(19) Uani 1 1 d G U . . .
C17B C 0.2166(4) 0.6275(4) 0.0851(3) 0.1326(17) Uani 0.422(15) 1 d . U . A 1
H17C H 0.2209 0.6418 0.0966 0.159 Uiso 0.422(15) 1 calc R . . A 1
H17D H 0.2085 0.6041 0.0895 0.159 Uiso 0.422(15) 1 calc R . . A 1
O18B O 0.2449(7) 0.6382(7) 0.0759(4) 0.138(3) Uani 0.422(15) 1 d . U . A 1
H18B H 0.2447 0.6219 0.0703 0.207 Uiso 0.422(15) 1 calc R . . A 1
C18B C 0.2166(4) 0.6275(4) 0.0851(3) 0.1326(17) Uani 0.578(15) 1 d . U . A 2
H18C H 0.2284 0.6188 0.0771 0.159 Uiso 0.578(15) 1 calc R . . A 2
H18D H 0.2332 0.6509 0.0891 0.159 Uiso 0.578(15) 1 calc R . . A 2
O19B O 0.2026(5) 0.6061(5) 0.1022(3) 0.138(3) Uani 0.578(15) 1 d . U . A 2
H19B H 0.1907 0.6120 0.1083 0.207 Uiso 0.578(15) 1 calc R . . A 2
N21B N 0.1605(2) 0.6761(2) -0.00263(13) 0.1108(18) Uani 1 1 d . U . . .
N22B N 0.1484(2) 0.6609(2) 0.01597(15) 0.1123(19) Uani 1 1 d G U . . .
C23B C 0.1746(3) 0.6564(3) 0.02485(13) 0.1146(18) Uani 1 1 d G U . . .
C24B C 0.2029(2) 0.6688(3) 0.01175(18) 0.113(2) Uani 1 1 d G U . . .
H24B H 0.2235 0.6690 0.0139 0.136 Uiso 1 1 calc R . . . .
C25B C 0.1942(2) 0.6810(3) -0.00524(14) 0.112(2) Uani 1 1 d G U . . .
H25B H 0.2081 0.6905 -0.0162 0.134 Uiso 1 1 calc R . . . .
C26B C 0.1436(4) 0.6886(4) -0.0147(2) 0.1095(19) Uani 1 1 d . U . . .
H26C H 0.1608 0.7093 -0.0214 0.131 Uiso 1 1 calc R . . . .
H26D H 0.1297 0.6949 -0.0067 0.131 Uiso 1 1 calc R . . . .
N31B N 0.1531(3) 0.8094(3) -0.09242(17) 0.144(2) Uani 1 1 d . U . . .
C32B C 0.1622(3) 0.8226(3) -0.11120(18) 0.149(2) Uani 1 1 d G U . . .
H32B H 0.1802 0.8220 -0.1176 0.178 Uiso 1 1 calc R . . . .
C33B C 0.1443(3) 0.8366(3) -0.12040(14) 0.151(2) Uani 1 1 d G U . . .
H33B H 0.1504 0.8454 -0.1330 0.182 Uiso 1 1 calc R . . . .
C34B C 0.1174(3) 0.8375(3) -0.11082(16) 0.151(2) Uani 1 1 d G U . . .
C35B C 0.1083(3) 0.8243(3) -0.09204(17) 0.145(2) Uani 1 1 d G U . . .
H35B H 0.0903 0.8249 -0.0856 0.173 Uiso 1 1 calc R . . . .
C36B C 0.1262(3) 0.8103(3) -0.08285(14) 0.140(2) Uani 1 1 d G U . . .
C37B C 0.0959(5) 0.8512(5) -0.1214(3) 0.156(3) Uani 1 1 d . U . . .
H37C H 0.1084 0.8763 -0.1207 0.188 Uiso 1 1 calc R . . . .
H37D H 0.0940 0.8449 -0.1350 0.188 Uiso 1 1 calc R . . . .
O38B O 0.0654(4) 0.8400(4) -0.1146(2) 0.171(3) Uani 1 1 d . U . . .
H38B H 0.0557 0.8484 -0.1208 0.256 Uiso 1 1 calc R . . . .
N41B N 0.1171(3) 0.7591(3) -0.04011(14) 0.1206(18) Uani 1 1 d . U . . .
N42B N 0.1329(3) 0.7747(3) -0.05810(15) 0.1256(19) Uani 1 1 d G U . . .
C43B C 0.1184(3) 0.7949(3) -0.06454(15) 0.129(2) Uani 1 1 d G U . . .
C44B C 0.0936(3) 0.7918(3) -0.05053(18) 0.126(2) Uani 1 1 d G U . . .
H44B H 0.0802 0.8023 -0.0511 0.152 Uiso 1 1 calc R . . . .
C45B C 0.0928(3) 0.7697(3) -0.03543(15) 0.123(2) Uani 1 1 d G U . . .
H45B H 0.0788 0.7632 -0.0244 0.147 Uiso 1 1 calc R . . . .
C46B C 0.1194(5) 0.7306(4) -0.0340(3) 0.1161(19) Uani 1 1 d . U . . .
H46C H 0.1139 0.7273 -0.0202 0.139 Uiso 1 1 calc R . . . .
H46D H 0.1434 0.7365 -0.0352 0.139 Uiso 1 1 calc R . . . .
C51B C 0.1194(2) 0.6608(2) -0.03054(12) 0.1106(18) Uani 1 1 d . U . . .
C52B C 0.1192(2) 0.6297(2) -0.02939(13) 0.112(2) Uani 1 1 d G U . . .
H52B H 0.1343 0.6275 -0.0210 0.134 Uiso 1 1 calc R . . . .
C53B C 0.0964(3) 0.6018(2) -0.04078(14) 0.113(2) Uani 1 1 d G U . . .
H53B H 0.0962 0.5810 -0.0400 0.135 Uiso 1 1 calc R . . . .
C54B C 0.0738(2) 0.60512(16) -0.05331(13) 0.113(2) Uani 1 1 d G U . . .
C55B C 0.07399(17) 0.63628(15) -0.05446(10) 0.1147(19) Uani 1 1 d G U . . .
C56B C 0.09683(17) 0.66414(15) -0.04307(10) 0.1125(18) Uani 1 1 d G U . . .
C57B C 0.0971(2) 0.69530(16) -0.04422(14) 0.1163(18) Uani 1 1 d G U . . .
C58B C 0.0745(3) 0.6986(2) -0.05675(15) 0.118(2) Uani 1 1 d G U . . .
H58B H 0.0746 0.7195 -0.0575 0.142 Uiso 1 1 calc R . . . .
C59B C 0.0516(2) 0.6707(2) -0.06814(14) 0.119(2) Uani 1 1 d G U . . .
H59B H 0.0365 0.6730 -0.0765 0.143 Uiso 1 1 calc R . . . .
C60B C 0.0514(2) 0.6396(2) -0.06699(12) 0.118(2) Uani 1 1 d G U . . .
H60B H 0.0361 0.6210 -0.0746 0.141 Uiso 1 1 calc R . . . .
N11C N 0.3196(3) 0.9031(2) 0.06179(15) 0.131(2) Uani 1 1 d . U . . .
C12C C 0.3443(3) 0.9150(3) 0.07648(18) 0.136(2) Uani 1 1 d G U . . .
H12C H 0.3606 0.9079 0.0769 0.163 Uiso 1 1 calc R . . . .
C13C C 0.3447(3) 0.9374(3) 0.09060(15) 0.141(2) Uani 1 1 d G U . . .
H13C H 0.3612 0.9454 0.1004 0.169 Uiso 1 1 calc R . . . .
C14C C 0.3203(3) 0.9481(3) 0.09003(15) 0.143(2) Uani 1 1 d G U . . .
C15C C 0.2956(3) 0.9362(3) 0.07535(18) 0.135(2) Uani 1 1 d G U . . .
H15C H 0.2793 0.9433 0.0750 0.162 Uiso 1 1 calc R . . . .
C16C C 0.2952(3) 0.9137(3) 0.06123(15) 0.129(2) Uani 1 1 d G U . . .
C17C C 0.3225(5) 0.9754(5) 0.1053(3) 0.152(3) Uani 1 1 d . U . . .
H17E H 0.3220 0.9674 0.1185 0.182 Uiso 1 1 calc R . . . .
H17F H 0.3436 0.9973 0.1035 0.182 Uiso 1 1 calc R . . . .
O18C O 0.2964(4) 0.9787(4) 0.1021(2) 0.167(3) Uani 1 1 d . U . . .
H18E H 0.2996 0.9901 0.0922 0.251 Uiso 1 1 calc R . . . .
N21C N 0.2519(3) 0.8716(2) 0.01666(13) 0.1138(19) Uani 1 1 d . U . . .
N22C N 0.2769(2) 0.8803(3) 0.03157(16) 0.117(2) Uani 1 1 d G U . . .
C23C C 0.2731(3) 0.9023(3) 0.04507(14) 0.120(2) Uani 1 1 d G U . . .
C24C C 0.2457(3) 0.9072(3) 0.03850(17) 0.118(2) Uani 1 1 d G U . . .
H24C H 0.2378 0.9204 0.0446 0.141 Uiso 1 1 calc R . . . .
C25C C 0.2326(2) 0.8882(3) 0.02094(16) 0.115(2) Uani 1 1 d G U . . .
H25C H 0.2146 0.8869 0.0135 0.138 Uiso 1 1 calc R . . . .
C26C C 0.2529(4) 0.8569(4) -0.0013(2) 0.113(2) Uani 1 1 d . U . . .
H26E H 0.2302 0.8467 -0.0072 0.136 Uiso 1 1 calc R . . . .
H26F H 0.2577 0.8384 0.0012 0.136 Uiso 1 1 calc R . . . .
N31C N 0.1566(2) 0.73787(18) -0.08639(14) 0.110(2) Uani 1 1 d . U . . .
C32C C 0.1294(3) 0.7230(2) -0.09956(14) 0.112(2) Uani 1 1 d G U . . .
H32C H 0.1209 0.7363 -0.1050 0.134 Uiso 1 1 calc R . . . .
C33C C 0.1149(2) 0.6884(2) -0.10454(14) 0.112(2) Uani 1 1 d G U . . .
H33C H 0.0967 0.6785 -0.1134 0.134 Uiso 1 1 calc R . . . .
C34C C 0.1277(2) 0.66857(18) -0.09635(14) 0.111(2) Uani 1 1 d G U . . .
C35C C 0.1549(2) 0.6834(2) -0.08317(14) 0.108(2) Uani 1 1 d G U . . .
H35C H 0.1634 0.6701 -0.0777 0.129 Uiso 1 1 calc R . . . .
C36C C 0.1694(2) 0.7180(2) -0.07819(13) 0.1069(19) Uani 1 1 d G U . . .
C37C C 0.1108(4) 0.6302(3) -0.1008(2) 0.115(2) Uani 1 1 d . U . . .
H37E H 0.1285 0.6238 -0.1021 0.138 Uiso 1 1 calc R . . . .
H37F H 0.0958 0.6171 -0.0901 0.138 Uiso 1 1 calc R . . . .
O38C O 0.0910(3) 0.6219(3) -0.11853(18) 0.133(3) Uani 1 1 d . U . . .
H38C H 0.0830 0.6014 -0.1210 0.199 Uiso 1 1 calc R . . . .
N41C N 0.2289(2) 0.77628(19) -0.04257(13) 0.1018(17) Uani 1 1 d . U . . .
N42C N 0.2026(2) 0.7667(2) -0.05679(14) 0.1018(18) Uani 1 1 d G U . . .
C43C C 0.1944(2) 0.7339(2) -0.06432(14) 0.1020(18) Uani 1 1 d G U . . .
C44C C 0.2156(3) 0.7232(2) -0.05475(16) 0.1007(19) Uani 1 1 d G U . . .
H44C H 0.2155 0.7026 -0.0569 0.121 Uiso 1 1 calc R . . . .
C45C C 0.2370(2) 0.7494(3) -0.04131(14) 0.1012(19) Uani 1 1 d G U . . .
H45C H 0.2533 0.7490 -0.0331 0.121 Uiso 1 1 calc R . . . .
C46C C 0.2425(4) 0.8060(4) -0.0316(2) 0.108(2) Uani 1 1 d . U . . .
H46E H 0.2483 0.8008 -0.0189 0.129 Uiso 1 1 calc R . . . .
H46F H 0.2242 0.8114 -0.0296 0.129 Uiso 1 1 calc R . . . .
C51C C 0.2797(2) 0.8822(2) -0.01610(12) 0.116(2) Uani 1 1 d . U . . .
C52C C 0.2958(3) 0.9164(2) -0.00993(12) 0.117(2) Uani 1 1 d G U . . .
H52C H 0.2884 0.9221 0.0014 0.141 Uiso 1 1 calc R . . . .
C53C C 0.3227(3) 0.94192(17) -0.02073(14) 0.119(2) Uani 1 1 d G U . . .
C54C C 0.3337(2) 0.93331(15) -0.03770(13) 0.124(2) Uani 1 1 d G U . . .
H54C H 0.3517 0.9504 -0.0449 0.148 Uiso 1 1 calc R . . . .
C55C C 0.31766(17) 0.89913(15) -0.04387(10) 0.125(2) Uani 1 1 d G U . . .
C56C C 0.29068(17) 0.87357(15) -0.03307(10) 0.119(2) Uani 1 1 d G U . . .
C57C C 0.2747(2) 0.83939(15) -0.03924(13) 0.118(2) Uani 1 1 d G U . . .
C58C C 0.2856(3) 0.83078(18) -0.05621(14) 0.126(2) Uani 1 1 d G U . . .
H58C H 0.2749 0.8079 -0.0603 0.151 Uiso 1 1 calc R . . . .
C59C C 0.3126(3) 0.8563(2) -0.06701(12) 0.131(3) Uani 1 1 d G U . . .
H59C H 0.3199 0.8506 -0.0784 0.157 Uiso 1 1 calc R . . . .
C60C C 0.3286(2) 0.8905(2) -0.06084(12) 0.130(2) Uani 1 1 d G U . . .
H60C H 0.3467 0.9076 -0.0681 0.156 Uiso 1 1 calc R . . . .
N11D N 0.2041(3) 0.8398(2) -0.0621(2) 0.159(3) Uani 1 1 d . U . . .
C12D C 0.1944(3) 0.8495(3) -0.04502(19) 0.158(3) Uani 1 1 d G U . . .
H12D H 0.1772 0.8329 -0.0372 0.189 Uiso 1 1 calc R . . . .
C13D C 0.2105(4) 0.8842(3) -0.03969(16) 0.159(3) Uani 1 1 d G U . . .
H13D H 0.2040 0.8907 -0.0283 0.191 Uiso 1 1 calc R . . . .
C14D C 0.2363(3) 0.9091(2) -0.05141(18) 0.161(3) Uani 1 1 d G U . . .
C15D C 0.2460(3) 0.8994(3) -0.06845(18) 0.162(3) Uani 1 1 d G U . . .
H15D H 0.2633 0.9160 -0.0763 0.195 Uiso 1 1 calc R . . . .
C16D C 0.2299(4) 0.8648(3) -0.07378(17) 0.161(2) Uani 1 1 d G U . . .
C17D C 0.2535(5) 0.9486(4) -0.0458(3) 0.165(3) Uani 1 1 d . U . . .
H17G H 0.2488 0.9615 -0.0554 0.197 Uiso 1 1 calc R . . . .
H17H H 0.2783 0.9591 -0.0440 0.197 Uiso 1 1 calc R . . . .
O18D O 0.2325(5) 0.9451(5) -0.0242(3) 0.238(8) Uani 1 1 d . U . . .
H18F H 0.2398 0.9643 -0.0195 0.356 Uiso 1 1 calc R . . . .
N21D N 0.2362(4) 0.8110(3) -0.11065(19) 0.160(2) Uani 1 1 d . U . . .
N22D N 0.2218(3) 0.8162(3) -0.09341(19) 0.160(2) Uani 1 1 d G U . . .
C23D C 0.2383(4) 0.8523(4) -0.0899(2) 0.163(2) Uani 1 1 d G U . . .
C24D C 0.2628(4) 0.8694(2) -0.1050(2) 0.165(3) Uani 1 1 d G U . . .
H24D H 0.2772 0.8931 -0.1062 0.198 Uiso 1 1 calc R . . . .
C25D C 0.2615(4) 0.8438(4) -0.11779(19) 0.164(3) Uani 1 1 d G U . . .
H25D H 0.2749 0.8479 -0.1289 0.197 Uiso 1 1 calc R . . . .
C26D C 0.2268(6) 0.7769(5) -0.1176(3) 0.156(2) Uani 1 1 d . U . . .
H26G H 0.2030 0.7617 -0.1137 0.187 Uiso 1 1 calc R . . . .
H26H H 0.2270 0.7780 -0.1317 0.187 Uiso 1 1 calc R . . . .
N31D N 0.2062(4) 0.6553(3) -0.20099(19) 0.155(3) Uani 1 1 d . U . . .
C32D C 0.2187(3) 0.6454(3) -0.2168(2) 0.157(3) Uani 1 1 d G U . . .
H32D H 0.2416 0.6590 -0.2207 0.189 Uiso 1 1 calc R . . . .
C33D C 0.1970(4) 0.6152(4) -0.22690(17) 0.162(3) Uani 1 1 d G U . . .
H33D H 0.2053 0.6086 -0.2375 0.194 Uiso 1 1 calc R . . . .
C34D C 0.1628(3) 0.5949(3) -0.22114(18) 0.166(3) Uani 1 1 d G U . . .
C35D C 0.1503(3) 0.6047(3) -0.2053(2) 0.163(3) Uani 1 1 d G U . . .
H35D H 0.1274 0.5911 -0.2014 0.195 Uiso 1 1 calc R . . . .
C36D C 0.1720(4) 0.6349(4) -0.19523(17) 0.157(2) Uani 1 1 d G U . . .
C37D C 0.1390(5) 0.5608(5) -0.2326(3) 0.177(3) Uani 1 1 d . U . . .
H37G H 0.1355 0.5658 -0.2459 0.212 Uiso 1 1 calc R . . . .
H37H H 0.1490 0.5459 -0.2329 0.212 Uiso 1 1 calc R . . . .
O38D O 0.1116(5) 0.5473(4) -0.2235(2) 0.205(5) Uani 1 1 d . U . . .
H38D H 0.0977 0.5292 -0.2288 0.308 Uiso 1 1 calc R . . . .
N41D N 0.1740(4) 0.6862(3) -0.15461(18) 0.153(2) Uani 1 1 d . U . . .
N42D N 0.1906(3) 0.6787(4) -0.1699(2) 0.152(2) Uani 1 1 d G U . . .
C43D C 0.1649(5) 0.6497(4) -0.18036(18) 0.155(2) Uani 1 1 d G U . . .
C44D C 0.1325(3) 0.6394(3) -0.1715(2) 0.155(3) Uani 1 1 d G U . . .
H44D H 0.1113 0.6211 -0.1754 0.185 Uiso 1 1 calc R . . . .
C45D C 0.1381(4) 0.6619(4) -0.1556(2) 0.154(3) Uani 1 1 d G U . . .
H45D H 0.1212 0.6609 -0.1472 0.185 Uiso 1 1 calc R . . . .
C46D C 0.1904(6) 0.7102(5) -0.1414(3) 0.152(2) Uani 1 1 d . U . . .
H46G H 0.1744 0.7173 -0.1367 0.182 Uiso 1 1 calc R . . . .
H46H H 0.2089 0.7300 -0.1480 0.182 Uiso 1 1 calc R . . . .
C51D C 0.2457(3) 0.7599(2) -0.11221(16) 0.153(2) Uani 1 1 d . U . . .
C52D C 0.2733(3) 0.7828(2) -0.10072(18) 0.153(2) Uani 1 1 d G U . . .
H52D H 0.2810 0.8064 -0.1012 0.183 Uiso 1 1 calc R . . . .
C53D C 0.2895(3) 0.7706(3) -0.08845(16) 0.151(3) Uani 1 1 d G U . . .
H53D H 0.3080 0.7859 -0.0808 0.182 Uiso 1 1 calc R . . . .
C54D C 0.2781(3) 0.7354(3) -0.08768(14) 0.148(2) Uani 1 1 d G U . . .
H54D H 0.2890 0.7272 -0.0795 0.178 Uiso 1 1 calc R . . . .
C55D C 0.2505(2) 0.7125(2) -0.09917(11) 0.147(2) Uani 1 1 d G U . . .
C56D C 0.2343(2) 0.7248(2) -0.11143(12) 0.148(2) Uani 1 1 d G U . . .
C57D C 0.2066(3) 0.7018(3) -0.12292(14) 0.147(2) Uani 1 1 d G U . . .
C58D C 0.1952(3) 0.6667(3) -0.12215(16) 0.146(2) Uani 1 1 d G U . . .
H58D H 0.1767 0.6514 -0.1298 0.175 Uiso 1 1 calc R . . . .
C59D C 0.2114(3) 0.6544(2) -0.10988(17) 0.144(2) Uani 1 1 d G U . . .
H59D H 0.2038 0.6309 -0.1094 0.173 Uiso 1 1 calc R . . . .
C60D C 0.2391(3) 0.6773(2) -0.09839(15) 0.145(2) Uani 1 1 d G U . . .
H60D H 0.2499 0.6691 -0.0902 0.174 Uiso 1 1 calc R . . . .
N11E N 0.0692(2) 0.6444(2) 0.01219(13) 0.1050(19) Uani 1 1 d . U . . .
C12E C 0.0664(2) 0.6739(2) 0.01019(14) 0.104(2) Uani 1 1 d G U . . .
H12E H 0.0805 0.6935 0.0175 0.125 Uiso 1 1 calc R . . . .
C13E C 0.0426(2) 0.67409(19) -0.00275(15) 0.103(2) Uani 1 1 d G U . . .
H13E H 0.0407 0.6938 -0.0041 0.124 Uiso 1 1 calc R . . . .
C14E C 0.0215(2) 0.6448(2) -0.01369(14) 0.1062(19) Uani 1 1 d G U . . .
C15E C 0.0242(2) 0.6153(2) -0.01169(15) 0.1067(19) Uani 1 1 d G U . . .
H15E H 0.0101 0.5957 -0.0190 0.128 Uiso 1 1 calc R . . . .
C16E C 0.0481(2) 0.61515(19) 0.00125(15) 0.1067(18) Uani 1 1 d G U . . .
C17E C -0.0052(4) 0.6448(3) -0.0275(2) 0.111(2) Uani 1 1 d . U . . .
H17I H -0.0017 0.6378 -0.0403 0.133 Uiso 1 1 calc R . . . .
H17J H -0.0279 0.6274 -0.0231 0.133 Uiso 1 1 calc R . . . .
O18E O -0.0050(3) 0.6771(3) -0.02965(19) 0.126(3) Uani 1 1 d . U . . .
H18G H -0.0062 0.6844 -0.0189 0.189 Uiso 1 1 calc R . . . .
N21E N 0.0762(2) 0.5576(2) 0.01702(16) 0.1206(18) Uani 1 1 d . U . . .
N22E N 0.0785(2) 0.59043(19) 0.01609(16) 0.1163(19) Uani 1 1 d G U . . .
C23E C 0.0520(3) 0.5876(2) 0.00352(18) 0.1122(18) Uani 1 1 d G U . . .
C24E C 0.0333(3) 0.5530(3) -0.00332(17) 0.116(2) Uani 1 1 d G U . . .
H24E H 0.0145 0.5441 -0.0118 0.139 Uiso 1 1 calc R . . . .
C25E C 0.0482(3) 0.53448(19) 0.00502(18) 0.119(2) Uani 1 1 d G U . . .
H25E H 0.0410 0.5113 0.0030 0.143 Uiso 1 1 calc R . . . .
C26E C 0.1022(4) 0.5523(4) 0.0253(3) 0.1254(19) Uani 1 1 d . U . . .
H26I H 0.0912 0.5285 0.0297 0.150 Uiso 1 1 calc R . . . .
H26J H 0.1108 0.5668 0.0368 0.150 Uiso 1 1 calc R . . . .
N41E N 0.1501(3) 0.5163(3) 0.06584(18) 0.136(2) Uani 1 1 d . U . . .
N42E N 0.1586(3) 0.4901(3) 0.06250(17) 0.136(2) Uani 1 1 d G U . . .
C43E C 0.1712(3) 0.4842(3) 0.0803(2) 0.137(3) Uani 1 1 d G U . . .
C44E C 0.1704(3) 0.5068(3) 0.09456(16) 0.140(3) Uani 1 1 d G U . . .
H44E H 0.1772 0.5083 0.1075 0.167 Uiso 1 1 calc R . . . .
C45E C 0.1573(3) 0.5266(3) 0.08565(19) 0.138(2) Uani 1 1 d G U . . .
H45E H 0.1541 0.5433 0.0917 0.166 Uiso 1 1 calc R . . . .
C46E C 0.1408(4) 0.5311(4) 0.0509(3) 0.134(2) Uani 1 1 d . U . . .
H46I H 0.1266 0.5397 0.0565 0.160 Uiso 1 1 calc R . . . .
H46J H 0.1264 0.5130 0.0418 0.160 Uiso 1 1 calc R . . . .
C51E C 0.13421(16) 0.5592(2) 0.01264(15) 0.128(2) Uani 1 1 d . U . . .
C52E C 0.1311(2) 0.5673(2) -0.00653(16) 0.128(2) Uani 1 1 d G U . . .
H52E H 0.1095 0.5611 -0.0116 0.153 Uiso 1 1 calc R . . . .
C53E C 0.1604(3) 0.5848(2) -0.01811(13) 0.128(2) Uani 1 1 d G U . . .
H53E H 0.1584 0.5903 -0.0309 0.154 Uiso 1 1 calc R . . . .
C54E C 0.1927(2) 0.5941(2) -0.01053(12) 0.129(2) Uani 1 1 d G U . . .
H54E H 0.2123 0.6058 -0.0183 0.154 Uiso 1 1 calc R . . . .
C55E C 0.19581(16) 0.58596(15) 0.00864(12) 0.127(2) Uani 1 1 d G U . . .
C56E C 0.16654(16) 0.56850(15) 0.02023(12) 0.129(2) Uani 1 1 d G U . . .
C57E C 0.1696(2) 0.5603(2) 0.03940(12) 0.131(2) Uani 1 1 d G U . . .
C58E C 0.2019(3) 0.5697(2) 0.04698(13) 0.130(2) Uani 1 1 d G U . . .
H58E H 0.2040 0.5642 0.0598 0.156 Uiso 1 1 calc R . . . .
C59E C 0.2312(2) 0.5871(2) 0.03540(16) 0.129(2) Uani 1 1 d G U . . .
H59E H 0.2528 0.5933 0.0405 0.155 Uiso 1 1 calc R . . . .
C60E C 0.22814(16) 0.5953(2) 0.01623(15) 0.126(2) Uani 1 1 d G U . . .
H60E H 0.2477 0.6069 0.0085 0.152 Uiso 1 1 calc R . . . .
N11F N 0.2636(3) 0.7505(2) -0.17023(15) 0.120(2) Uani 1 1 d . U . . .
C12F C 0.2655(3) 0.7817(3) -0.17475(14) 0.123(2) Uani 1 1 d G U . . .
H12F H 0.2518 0.7827 -0.1846 0.147 Uiso 1 1 calc R . . . .
C13F C 0.2879(3) 0.8114(2) -0.16447(16) 0.126(2) Uani 1 1 d G U . . .
H13F H 0.2891 0.8323 -0.1675 0.151 Uiso 1 1 calc R . . . .
C14F C 0.3083(3) 0.8099(2) -0.14968(16) 0.127(2) Uani 1 1 d G U . . .
C15F C 0.3064(3) 0.7787(3) -0.14516(15) 0.122(2) Uani 1 1 d G U . . .
H15F H 0.3201 0.7777 -0.1353 0.147 Uiso 1 1 calc R . . . .
C16F C 0.2841(3) 0.7490(2) -0.15544(16) 0.1180(19) Uani 1 1 d G U . . .
C17F C 0.3321(4) 0.8423(4) -0.1377(3) 0.136(3) Uani 1 1 d . U . . .
H17K H 0.3246 0.8390 -0.1242 0.163 Uiso 1 1 calc R . . . .
H17L H 0.3557 0.8468 -0.1381 0.163 Uiso 1 1 calc R . . . .
O18F O 0.3301(3) 0.8694(3) -0.1456(2) 0.153(3) Uani 1 1 d . U . . .
H18H H 0.3424 0.8870 -0.1394 0.230 Uiso 1 1 calc R . . . .
N21F N 0.2702(2) 0.6641(2) -0.16256(14) 0.1090(18) Uani 1 1 d . U . . .
N22F N 0.2684(3) 0.6938(3) -0.16792(14) 0.1115(19) Uani 1 1 d G U . . .
C23F C 0.2847(3) 0.7190(2) -0.15308(17) 0.1130(18) Uani 1 1 d G U . . .
C24F C 0.2967(3) 0.7048(3) -0.13856(14) 0.110(2) Uani 1 1 d G U . . .
H24F H 0.3083 0.7159 -0.1272 0.132 Uiso 1 1 calc R . . . .
C25F C 0.2877(3) 0.6709(3) -0.14442(14) 0.109(2) Uani 1 1 d G U . . .
H25F H 0.2925 0.6558 -0.1376 0.131 Uiso 1 1 calc R . . . .
C26F C 0.2581(4) 0.6344(4) -0.1748(3) 0.110(2) Uani 1 1 d . U . . .
H26K H 0.2743 0.6260 -0.1740 0.132 Uiso 1 1 calc R . . . .
H26L H 0.2582 0.6415 -0.1882 0.132 Uiso 1 1 calc R . . . .
C46F C 0.2553(4) 0.5842(4) -0.2028(3) 0.122(3) Uani 1 1 d . U . . .
H46K H 0.2608 0.6065 -0.2080 0.146 Uiso 1 1 calc R . . . .
H46L H 0.2699 0.5885 -0.1914 0.146 Uiso 1 1 calc R . . . .
C51F C 0.22085(18) 0.60361(18) -0.16999(13) 0.115(2) Uani 1 1 d . U . . .
C52F C 0.2052(2) 0.6116(2) -0.15496(13) 0.116(2) Uani 1 1 d G U . . .
H52F H 0.2179 0.6316 -0.1477 0.139 Uiso 1 1 calc R . . . .
C53F C 0.1704(2) 0.5896(2) -0.15079(12) 0.118(2) Uani 1 1 d G U . . .
H53F H 0.1599 0.5950 -0.1407 0.141 Uiso 1 1 calc R . . . .
C54F C 0.15138(19) 0.5597(2) -0.16165(13) 0.120(2) Uani 1 1 d G U . . .
H54F H 0.1281 0.5450 -0.1589 0.144 Uiso 1 1 calc R . . . .
C55F C 0.16706(15) 0.55172(16) -0.17668(10) 0.121(2) Uani 1 1 d G U . . .
C56F C 0.20179(16) 0.57368(16) -0.18085(10) 0.119(2) Uani 1 1 d G U . . .
C57F C 0.2175(2) 0.5657(2) -0.19588(13) 0.122(2) Uani 1 1 d G U . . .
C58F C 0.1984(3) 0.5358(2) -0.20675(12) 0.124(2) Uani 1 1 d G U . . .
H58F H 0.2089 0.5304 -0.2168 0.149 Uiso 1 1 calc R . . . .
C59F C 0.1637(3) 0.5138(2) -0.20258(13) 0.126(3) Uani 1 1 d G U . . .
H59F H 0.1509 0.4938 -0.2098 0.151 Uiso 1 1 calc R . . . .
C60F C 0.14800(19) 0.52179(19) -0.18755(14) 0.124(2) Uani 1 1 d G U . . .
H60F H 0.1248 0.5071 -0.1848 0.149 Uiso 1 1 calc R . . . .
N11G N 0.2086(3) 0.7218(4) -0.20673(16) 0.160(3) Uani 1 1 d . U . . .
C12G C 0.1797(3) 0.7247(4) -0.20241(14) 0.162(3) Uani 1 1 d G U . . .
H12G H 0.1721 0.7226 -0.1896 0.195 Uiso 1 1 calc R . . . .
C13G C 0.1622(3) 0.7307(4) -0.21724(18) 0.165(3) Uani 1 1 d G U . . .
H13G H 0.1429 0.7327 -0.2144 0.198 Uiso 1 1 calc R . . . .
C14G C 0.1736(3) 0.7339(4) -0.23639(15) 0.166(3) Uani 1 1 d G U . . .
C15G C 0.2024(3) 0.7311(4) -0.24071(14) 0.163(3) Uani 1 1 d G U . . .
H15G H 0.2100 0.7332 -0.2535 0.196 Uiso 1 1 calc R . . . .
C16G C 0.2199(3) 0.7250(4) -0.22587(18) 0.158(2) Uani 1 1 d G U . . .
C17G C 0.1546(5) 0.7417(6) -0.2526(3) 0.170(3) Uani 1 1 d . U . . .
H17M H 0.1301 0.7248 -0.2521 0.204 Uiso 1 1 calc R . . . .
H17N H 0.1573 0.7644 -0.2506 0.204 Uiso 1 1 calc R . . . .
O18G O 0.1672(4) 0.7405(4) -0.2703(2) 0.188(4) Uani 1 1 d . U . . .
H18I H 0.1577 0.7457 -0.2787 0.282 Uiso 1 1 calc R . . . .
N22G N 0.3032(3) 0.7356(3) -0.21652(16) 0.151(3) Uani 1 1 d . U . . .
N21G N 0.2702(3) 0.7291(4) -0.21044(15) 0.151(3) Uani 1 1 d G U . . .
C23G C 0.2513(3) 0.7282(4) -0.2273(2) 0.154(2) Uani 1 1 d G U . . .
C24G C 0.2727(4) 0.7340(4) -0.24380(15) 0.152(3) Uani 1 1 d G U . . .
H24G H 0.2668 0.7348 -0.2567 0.183 Uiso 1 1 calc R . . . .
C25G C 0.3048(3) 0.7386(4) -0.23714(17) 0.151(3) Uani 1 1 d G U . . .
H25G H 0.3236 0.7429 -0.2449 0.181 Uiso 1 1 calc R . . . .
N11H N 0.2673(3) 0.8301(3) 0.06539(17) 0.141(3) Uani 1 1 d . U . . .
C12H C 0.2335(3) 0.8237(3) 0.06501(17) 0.141(3) Uani 1 1 d G U . . .
H12H H 0.2252 0.8294 0.0540 0.169 Uiso 1 1 calc R . . . .
C13H C 0.2121(2) 0.8089(3) 0.0811(2) 0.143(3) Uani 1 1 d G U . . .
H13H H 0.1895 0.8047 0.0808 0.172 Uiso 1 1 calc R . . . .
C14H C 0.2245(3) 0.8004(3) 0.09749(17) 0.147(3) Uani 1 1 d G U . . .
C15H C 0.2583(4) 0.8067(3) 0.09787(17) 0.146(3) Uani 1 1 d G U . . .
H15H H 0.2666 0.8011 0.1089 0.175 Uiso 1 1 calc R . . . .
C16H C 0.2796(2) 0.8216(3) 0.0818(2) 0.143(3) Uani 1 1 d G U . . .
C17H C 0.2036(5) 0.7880(5) 0.1156(3) 0.155(3) Uani 1 1 d . U . . .
H17O H 0.2136 0.8063 0.1252 0.186 Uiso 1 1 calc R . . . .
H17P H 0.2053 0.7687 0.1207 0.186 Uiso 1 1 calc R . . . .
O18H O 0.1665(4) 0.7771(4) 0.1132(2) 0.172(4) Uani 1 1 d . U . . .
H18J H 0.1563 0.7688 0.1235 0.258 Uiso 1 1 calc R . . . .
B1 B 0.3333 0.6667 -0.2087(3) 0.119(3) Uani 1 3 d S TU P . .
F1 F 0.3333 0.6667 -0.1880(2) 0.121(3) Uani 1 3 d S TU P . .
F2 F 0.3043(2) 0.6683(2) -0.21547(13) 0.118(3) Uani 1 1 d . U . . .
B2 B 0.1748(3) 0.7760(3) 0.00727(19) 0.117(2) Uani 1 1 d . U . . .
F5 F 0.1420(2) 0.7495(2) 0.01220(13) 0.119(2) Uani 1 1 d . U . . .
F6 F 0.1904(2) 0.79714(19) 0.02319(13) 0.115(2) Uani 1 1 d . U . . .
F7 F 0.1943(2) 0.7612(2) 0.00084(13) 0.118(2) Uani 1 1 d . U . . .
F8 F 0.1716(2) 0.7953(2) -0.00767(13) 0.119(2) Uani 1 1 d . U . . .
O36 O 0.2743(8) 0.9826(8) 0.0001(5) 0.180(11) Uiso 0.5 1 d . U . . .

loop_
_atom_site_aniso_label
_atom_site_aniso_U_11
_atom_site_aniso_U_22
_atom_site_aniso_U_33
_atom_site_aniso_U_23
_atom_site_aniso_U_13
_atom_site_aniso_U_12
Co1 0.0707(13) 0.0970(15) 0.1173(17) 0.0371(13) 0.0036(12) 0.0138(11)
Co2 0.0826(14) 0.0892(14) 0.144(2) 0.0031(13) 0.0257(13) 0.0390(12)
Co3 0.191(3) 0.1087(17) 0.1150(18) 0.0353(14) 0.0414(17) 0.1006(18)
Co4 0.159(2) 0.161(2) 0.1075(17) 0.0449(16) 0.0165(16) 0.113(2)
N11A 0.118(4) 0.178(5) 0.141(5) 0.016(5) 0.011(4) 0.044(4)
C12A 0.120(5) 0.179(5) 0.143(5) 0.017(5) 0.009(4) 0.041(4)
C13A 0.121(5) 0.183(5) 0.144(5) 0.017(5) 0.009(4) 0.041(4)
C14A 0.121(4) 0.185(5) 0.145(5) 0.017(5) 0.010(4) 0.043(4)
C15A 0.117(4) 0.183(5) 0.143(5) 0.019(5) 0.011(4) 0.045(4)
C16A 0.115(4) 0.178(5) 0.140(4) 0.018(4) 0.011(3) 0.046(4)
C17A 0.128(5) 0.189(6) 0.149(5) 0.016(5) 0.013(4) 0.042(5)
O18A 0.143(6) 0.201(7) 0.164(7) 0.002(7) 0.022(6) 0.049(6)
N21A 0.107(3) 0.157(4) 0.135(4) 0.021(4) 0.019(3) 0.057(3)
N22A 0.108(4) 0.162(4) 0.135(4) 0.020(4) 0.015(3) 0.055(3)
C23A 0.109(4) 0.170(4) 0.136(4) 0.019(4) 0.015(3) 0.053(3)
C24A 0.108(4) 0.169(5) 0.136(4) 0.019(4) 0.018(4) 0.055(4)
C25A 0.108(4) 0.163(4) 0.136(4) 0.019(4) 0.021(4) 0.057(4)
C26A 0.107(3) 0.146(4) 0.134(4) 0.023(4) 0.020(3) 0.057(3)
N31A 0.104(4) 0.100(4) 0.161(5) 0.037(3) 0.039(4) 0.059(3)
C32A 0.104(4) 0.101(4) 0.163(5) 0.038(4) 0.037(4) 0.058(3)
C33A 0.105(4) 0.104(4) 0.165(5) 0.039(4) 0.039(4) 0.057(4)
C34A 0.108(4) 0.107(4) 0.165(5) 0.038(4) 0.040(4) 0.055(3)
C35A 0.107(4) 0.105(4) 0.162(5) 0.036(4) 0.040(3) 0.057(3)
C36A 0.103(4) 0.101(3) 0.159(4) 0.036(3) 0.038(3) 0.062(3)
C37A 0.110(5) 0.113(4) 0.167(5) 0.040(4) 0.041(4) 0.052(4)
O38A 0.120(6) 0.132(6) 0.175(7) 0.047(6) 0.035(5) 0.032(5)
N41A 0.103(3) 0.105(3) 0.146(4) 0.030(3) 0.033(3) 0.064(3)
N42A 0.102(4) 0.101(3) 0.150(4) 0.033(3) 0.035(3) 0.066(3)
C43A 0.101(3) 0.100(3) 0.153(4) 0.034(3) 0.037(3) 0.066(3)
C44A 0.102(4) 0.102(4) 0.150(4) 0.031(3) 0.036(3) 0.066(3)
C45A 0.102(4) 0.103(4) 0.148(4) 0.031(3) 0.033(3) 0.065(3)
C46A 0.104(3) 0.113(4) 0.141(4) 0.029(3) 0.030(3) 0.061(3)
C51A 0.108(3) 0.136(4) 0.135(4) 0.024(3) 0.021(3) 0.056(3)
C52A 0.109(4) 0.135(4) 0.134(4) 0.024(4) 0.019(3) 0.054(4)
C53A 0.111(4) 0.135(4) 0.134(4) 0.026(4) 0.019(4) 0.051(4)
C54A 0.111(4) 0.133(4) 0.134(4) 0.027(4) 0.018(3) 0.051(4)
C55A 0.111(3) 0.130(4) 0.136(4) 0.028(3) 0.018(3) 0.053(3)
C56A 0.109(3) 0.129(4) 0.136(4) 0.027(3) 0.021(3) 0.055(3)
C57A 0.108(3) 0.121(4) 0.139(4) 0.028(3) 0.024(3) 0.057(3)
C58A 0.109(4) 0.125(4) 0.139(4) 0.031(4) 0.020(3) 0.055(4)
C59A 0.110(4) 0.128(4) 0.140(4) 0.031(4) 0.019(3) 0.054(4)
C60A 0.111(4) 0.130(4) 0.138(4) 0.030(4) 0.018(3) 0.052(4)
N11B 0.117(3) 0.104(3) 0.140(4) 0.025(3) -0.005(3) 0.049(3)
C12B 0.119(3) 0.107(4) 0.140(4) 0.025(3) -0.008(3) 0.047(3)
C13B 0.121(3) 0.110(3) 0.141(4) 0.024(3) -0.011(3) 0.046(3)
C14B 0.121(3) 0.111(3) 0.142(3) 0.024(3) -0.012(3) 0.046(3)
C15B 0.117(3) 0.105(3) 0.142(3) 0.025(3) -0.009(3) 0.050(3)
C16B 0.115(3) 0.102(3) 0.140(3) 0.026(3) -0.005(3) 0.051(3)
C17B 0.122(2) 0.114(2) 0.144(3) 0.025(2) -0.015(2) 0.045(2)
O18B 0.120(4) 0.120(5) 0.147(5) 0.023(5) -0.015(4) 0.040(4)
C18B 0.122(2) 0.114(2) 0.144(3) 0.025(2) -0.015(2) 0.045(2)
O19B 0.126(5) 0.117(5) 0.146(4) 0.027(4) -0.020(4) 0.042(4)
N21B 0.114(3) 0.094(3) 0.138(4) 0.025(3) 0.008(3) 0.062(3)
N22B 0.113(3) 0.094(3) 0.138(4) 0.026(3) 0.005(3) 0.058(3)
C23B 0.113(3) 0.096(3) 0.140(3) 0.025(3) 0.001(3) 0.056(3)
C24B 0.112(4) 0.095(4) 0.141(4) 0.024(3) 0.003(3) 0.058(3)
C25B 0.113(4) 0.095(4) 0.140(4) 0.024(3) 0.007(3) 0.061(3)
C26B 0.118(4) 0.095(3) 0.134(4) 0.025(3) 0.012(3) 0.067(3)
N31B 0.185(5) 0.129(4) 0.145(5) 0.042(4) 0.026(4) 0.100(4)
C32B 0.190(5) 0.133(4) 0.147(5) 0.044(4) 0.025(4) 0.099(4)
C33B 0.192(5) 0.136(4) 0.149(5) 0.046(4) 0.023(4) 0.099(4)
C34B 0.192(5) 0.137(4) 0.150(5) 0.048(4) 0.021(4) 0.101(4)
C35B 0.186(5) 0.130(4) 0.148(5) 0.045(4) 0.022(4) 0.102(4)
C36B 0.181(5) 0.124(4) 0.144(4) 0.041(3) 0.023(4) 0.099(3)
C37B 0.194(6) 0.144(5) 0.155(5) 0.051(4) 0.017(5) 0.103(4)
O38B 0.191(6) 0.166(6) 0.174(7) 0.053(6) 0.013(6) 0.104(6)
N41B 0.155(4) 0.107(3) 0.136(4) 0.030(3) 0.019(3) 0.092(3)
N42B 0.163(4) 0.110(4) 0.138(4) 0.032(3) 0.021(3) 0.093(3)
C43B 0.169(4) 0.115(4) 0.140(4) 0.035(3) 0.021(3) 0.098(3)
C44B 0.165(4) 0.112(4) 0.139(4) 0.033(3) 0.020(4) 0.097(3)
C45B 0.160(4) 0.108(4) 0.138(4) 0.030(3) 0.020(4) 0.096(3)
C46B 0.145(4) 0.101(3) 0.132(4) 0.028(3) 0.016(3) 0.085(3)
C51B 0.124(4) 0.095(3) 0.131(4) 0.025(3) 0.013(3) 0.069(3)
C52B 0.126(4) 0.095(3) 0.131(4) 0.024(3) 0.013(3) 0.069(3)
C53B 0.128(4) 0.097(4) 0.131(4) 0.023(3) 0.012(3) 0.069(3)
C54B 0.129(4) 0.099(3) 0.130(4) 0.023(3) 0.013(3) 0.070(3)
C55B 0.131(4) 0.100(3) 0.129(4) 0.025(3) 0.013(3) 0.070(3)
C56B 0.130(4) 0.098(3) 0.129(4) 0.025(3) 0.013(3) 0.072(3)
C57B 0.138(4) 0.101(3) 0.132(4) 0.027(3) 0.014(3) 0.076(3)
C58B 0.139(4) 0.102(4) 0.133(4) 0.028(3) 0.012(3) 0.074(3)
C59B 0.138(4) 0.104(4) 0.133(4) 0.028(4) 0.011(3) 0.072(3)
C60B 0.134(4) 0.103(4) 0.131(4) 0.026(3) 0.012(3) 0.071(3)
N11C 0.123(4) 0.111(4) 0.142(5) 0.000(4) 0.013(4) 0.046(3)
C12C 0.126(5) 0.116(4) 0.144(5) 0.000(4) 0.011(4) 0.043(4)
C13C 0.130(5) 0.120(4) 0.144(5) -0.003(4) 0.011(4) 0.041(4)
C14C 0.132(5) 0.123(4) 0.146(5) -0.006(4) 0.013(4) 0.042(4)
C15C 0.127(4) 0.115(4) 0.143(4) -0.005(3) 0.016(4) 0.045(4)
C16C 0.121(4) 0.110(4) 0.141(4) -0.001(3) 0.017(3) 0.046(3)
C17C 0.140(5) 0.131(5) 0.151(5) -0.013(4) 0.014(5) 0.042(4)
O18C 0.149(6) 0.155(6) 0.169(7) -0.026(6) 0.010(6) 0.056(5)
N21C 0.110(4) 0.097(3) 0.132(4) 0.005(3) 0.027(3) 0.050(3)
N22C 0.111(4) 0.100(4) 0.133(4) 0.005(3) 0.025(3) 0.049(3)
C23C 0.114(4) 0.103(4) 0.136(4) 0.002(3) 0.023(3) 0.049(3)
C24C 0.113(4) 0.100(4) 0.135(4) 0.002(3) 0.026(3) 0.050(3)
C25C 0.111(4) 0.098(4) 0.134(4) 0.004(3) 0.026(3) 0.051(3)
C26C 0.112(4) 0.093(3) 0.130(4) 0.008(3) 0.030(3) 0.049(3)
N31C 0.118(4) 0.104(4) 0.114(4) 0.017(3) 0.032(3) 0.060(3)
C32C 0.119(4) 0.107(4) 0.115(4) 0.016(4) 0.031(3) 0.061(4)
C33C 0.119(4) 0.108(4) 0.115(4) 0.014(4) 0.031(3) 0.061(3)
C34C 0.118(4) 0.108(4) 0.114(4) 0.013(3) 0.032(3) 0.062(3)
C35C 0.116(4) 0.103(3) 0.113(4) 0.014(3) 0.034(3) 0.061(3)
C36C 0.116(4) 0.099(3) 0.113(4) 0.017(3) 0.034(3) 0.060(3)
C37C 0.119(5) 0.112(4) 0.117(5) 0.009(4) 0.033(4) 0.059(4)
O38C 0.129(6) 0.130(5) 0.128(6) 0.001(5) 0.022(4) 0.056(5)
N41C 0.114(4) 0.085(3) 0.115(4) 0.018(3) 0.039(3) 0.057(3)
N42C 0.115(4) 0.088(3) 0.113(4) 0.018(3) 0.040(3) 0.058(3)
C43C 0.115(4) 0.091(3) 0.112(4) 0.018(3) 0.037(3) 0.060(3)
C44C 0.114(4) 0.088(3) 0.113(4) 0.018(3) 0.039(3) 0.059(3)
C45C 0.114(4) 0.087(3) 0.114(4) 0.019(3) 0.038(3) 0.058(3)
C46C 0.118(4) 0.085(3) 0.122(4) 0.015(3) 0.039(3) 0.052(3)
C51C 0.117(4) 0.091(3) 0.131(4) 0.011(3) 0.030(3) 0.046(3)
C52C 0.119(4) 0.091(3) 0.131(4) 0.013(3) 0.031(3) 0.044(3)
C53C 0.121(4) 0.090(3) 0.132(4) 0.014(3) 0.031(4) 0.043(3)
C54C 0.125(4) 0.092(3) 0.132(4) 0.013(3) 0.034(3) 0.038(3)
C55C 0.126(4) 0.093(3) 0.133(4) 0.012(3) 0.036(3) 0.038(3)
C56C 0.121(4) 0.091(3) 0.131(4) 0.012(3) 0.035(3) 0.041(3)
C57C 0.122(4) 0.090(3) 0.129(4) 0.013(3) 0.037(3) 0.044(3)
C58C 0.127(4) 0.094(3) 0.132(4) 0.010(3) 0.040(3) 0.037(3)
C59C 0.130(4) 0.097(4) 0.135(4) 0.008(3) 0.041(3) 0.034(4)
C60C 0.129(4) 0.096(4) 0.135(4) 0.010(3) 0.040(3) 0.035(3)
N11D 0.207(6) 0.132(4) 0.168(5) 0.042(4) 0.038(4) 0.107(4)
C12D 0.207(6) 0.131(5) 0.170(5) 0.042(4) 0.036(5) 0.110(5)
C13D 0.207(6) 0.132(5) 0.172(6) 0.041(4) 0.033(5) 0.110(5)
C14D 0.208(6) 0.133(4) 0.174(5) 0.041(4) 0.032(5) 0.108(5)
C15D 0.208(6) 0.134(4) 0.172(5) 0.043(4) 0.034(5) 0.106(4)
C16D 0.208(5) 0.134(4) 0.168(5) 0.042(4) 0.039(4) 0.106(4)
C17D 0.209(6) 0.134(5) 0.178(6) 0.040(5) 0.027(5) 0.107(5)
O18D 0.258(19) 0.258(19) 0.210(14) -0.026(11) 0.037(13) 0.139(17)
N21D 0.206(5) 0.138(4) 0.157(4) 0.045(4) 0.046(4) 0.102(4)
N22D 0.208(5) 0.136(4) 0.160(5) 0.043(4) 0.046(4) 0.104(4)
C23D 0.209(5) 0.137(4) 0.164(5) 0.043(4) 0.043(4) 0.102(4)
C24D 0.211(5) 0.137(4) 0.163(5) 0.045(4) 0.044(4) 0.100(4)
C25D 0.209(5) 0.139(4) 0.160(5) 0.045(4) 0.045(4) 0.099(4)
C26D 0.201(5) 0.141(4) 0.151(4) 0.043(4) 0.047(4) 0.103(4)
N31D 0.186(5) 0.163(5) 0.143(5) 0.035(4) 0.015(4) 0.107(4)
C32D 0.187(6) 0.165(5) 0.143(5) 0.033(4) 0.015(4) 0.106(5)
C33D 0.190(6) 0.168(5) 0.144(5) 0.031(4) 0.014(4) 0.103(5)
C34D 0.192(6) 0.171(5) 0.147(5) 0.030(4) 0.014(4) 0.099(5)
C35D 0.190(5) 0.168(5) 0.147(5) 0.033(4) 0.014(4) 0.102(4)
C36D 0.187(5) 0.164(5) 0.144(5) 0.035(4) 0.018(4) 0.106(4)
C37D 0.197(6) 0.178(6) 0.152(6) 0.027(5) 0.015(5) 0.092(5)
O38D 0.210(7) 0.203(7) 0.163(7) 0.018(7) 0.025(6) 0.073(6)
N41D 0.187(5) 0.156(4) 0.144(4) 0.042(3) 0.030(4) 0.107(4)
N42D 0.186(5) 0.158(5) 0.142(5) 0.039(4) 0.025(4) 0.108(4)
C43D 0.187(5) 0.161(5) 0.143(5) 0.040(4) 0.022(4) 0.107(4)
C44D 0.187(5) 0.160(5) 0.144(5) 0.041(4) 0.023(4) 0.107(4)
C45D 0.187(5) 0.159(5) 0.144(5) 0.043(4) 0.026(4) 0.106(4)
C46D 0.188(5) 0.152(4) 0.143(4) 0.041(3) 0.037(4) 0.107(4)
C51D 0.195(5) 0.144(4) 0.145(4) 0.041(3) 0.047(4) 0.104(4)
C52D 0.195(5) 0.144(4) 0.143(5) 0.040(4) 0.049(4) 0.103(4)
C53D 0.192(5) 0.146(4) 0.141(5) 0.037(4) 0.049(4) 0.103(4)
C54D 0.189(5) 0.146(4) 0.140(5) 0.036(4) 0.048(4) 0.107(4)
C55D 0.187(5) 0.146(4) 0.139(4) 0.037(4) 0.047(4) 0.107(4)
C56D 0.189(5) 0.145(4) 0.141(4) 0.039(3) 0.045(3) 0.106(4)
C57D 0.187(5) 0.147(4) 0.140(4) 0.040(3) 0.042(3) 0.109(4)
C58D 0.186(5) 0.146(4) 0.139(5) 0.040(4) 0.044(4) 0.109(4)
C59D 0.185(5) 0.145(4) 0.138(5) 0.039(4) 0.045(4) 0.109(4)
C60D 0.186(5) 0.146(4) 0.139(5) 0.038(4) 0.046(4) 0.108(4)
N11E 0.083(4) 0.089(3) 0.150(5) 0.019(3) 0.013(3) 0.048(3)
C12E 0.081(4) 0.089(4) 0.149(5) 0.016(4) 0.015(3) 0.048(3)
C13E 0.082(4) 0.088(4) 0.150(5) 0.015(4) 0.014(3) 0.050(3)
C14E 0.085(4) 0.090(3) 0.153(5) 0.014(3) 0.011(3) 0.051(3)
C15E 0.085(4) 0.089(3) 0.154(5) 0.016(3) 0.011(3) 0.049(3)
C16E 0.085(3) 0.087(3) 0.156(4) 0.019(3) 0.011(3) 0.049(3)
C17E 0.090(4) 0.094(4) 0.156(5) 0.013(4) 0.007(4) 0.052(3)
O18E 0.113(5) 0.099(5) 0.174(7) 0.014(5) -0.011(5) 0.058(4)
N21E 0.099(3) 0.087(3) 0.176(4) 0.024(3) -0.002(3) 0.047(3)
N22E 0.094(3) 0.088(3) 0.170(4) 0.024(3) 0.002(3) 0.048(3)
C23E 0.091(3) 0.087(3) 0.164(4) 0.021(3) 0.005(3) 0.048(3)
C24E 0.094(4) 0.087(3) 0.168(5) 0.021(3) 0.003(3) 0.047(3)
C25E 0.098(4) 0.087(3) 0.173(5) 0.023(4) 0.001(3) 0.046(3)
C26E 0.104(3) 0.088(3) 0.186(4) 0.024(3) -0.006(3) 0.049(3)
N41E 0.116(4) 0.097(4) 0.196(5) 0.019(4) -0.016(4) 0.054(3)
N42E 0.116(4) 0.097(4) 0.196(6) 0.020(4) -0.018(4) 0.054(3)
C43E 0.118(5) 0.098(4) 0.196(6) 0.021(4) -0.018(4) 0.054(4)
C44E 0.120(5) 0.100(4) 0.196(6) 0.020(4) -0.017(5) 0.052(4)
C45E 0.119(4) 0.099(4) 0.196(5) 0.019(4) -0.016(4) 0.053(4)
C46E 0.114(4) 0.094(4) 0.195(5) 0.020(4) -0.013(4) 0.054(3)
C51E 0.106(3) 0.088(3) 0.192(4) 0.024(3) -0.006(3) 0.051(3)
C52E 0.107(4) 0.088(4) 0.194(5) 0.025(4) -0.006(4) 0.052(3)
C53E 0.109(4) 0.087(4) 0.195(5) 0.025(4) -0.006(4) 0.054(4)
C54E 0.108(4) 0.088(4) 0.197(5) 0.024(4) -0.005(4) 0.054(3)
C55E 0.108(3) 0.088(3) 0.197(5) 0.022(3) -0.007(3) 0.057(3)
C56E 0.107(3) 0.089(3) 0.196(4) 0.022(3) -0.008(3) 0.054(3)
C57E 0.110(3) 0.092(3) 0.196(5) 0.020(3) -0.010(3) 0.054(3)
C58E 0.110(4) 0.091(4) 0.198(5) 0.021(4) -0.008(4) 0.058(3)
C59E 0.109(4) 0.091(4) 0.199(5) 0.020(4) -0.008(4) 0.058(3)
C60E 0.108(4) 0.087(4) 0.199(5) 0.020(4) -0.006(4) 0.060(3)
N11F 0.128(4) 0.104(4) 0.137(5) 0.009(4) 0.018(3) 0.064(3)
C12F 0.131(4) 0.104(4) 0.139(5) 0.010(4) 0.019(4) 0.064(4)
C13F 0.133(4) 0.105(4) 0.141(5) 0.009(4) 0.021(4) 0.061(4)
C14F 0.132(4) 0.106(4) 0.142(5) 0.007(4) 0.020(4) 0.060(4)
C15F 0.127(4) 0.105(4) 0.138(5) 0.006(4) 0.020(4) 0.060(3)
C16F 0.123(4) 0.103(3) 0.135(4) 0.007(3) 0.018(3) 0.062(3)
C17F 0.139(5) 0.110(4) 0.148(5) 0.004(4) 0.021(4) 0.055(4)
O18F 0.160(6) 0.112(5) 0.164(7) 0.011(5) 0.011(6) 0.051(5)
N21F 0.108(3) 0.099(3) 0.127(4) 0.005(3) 0.011(3) 0.057(3)
N22F 0.111(4) 0.100(3) 0.129(4) 0.007(3) 0.013(3) 0.058(3)
C23F 0.114(4) 0.101(3) 0.130(4) 0.005(3) 0.016(3) 0.059(3)
C24F 0.109(4) 0.101(4) 0.127(4) 0.003(3) 0.016(3) 0.058(3)
C25F 0.107(4) 0.100(4) 0.126(4) 0.003(3) 0.014(3) 0.057(3)
C26F 0.106(3) 0.100(3) 0.127(4) 0.003(3) 0.006(3) 0.054(3)
C46F 0.110(4) 0.107(5) 0.129(5) -0.005(4) -0.001(4) 0.040(4)
C51F 0.107(3) 0.105(4) 0.128(4) 0.003(3) 0.002(3) 0.049(3)
C52F 0.106(4) 0.106(4) 0.130(4) 0.003(3) 0.002(3) 0.048(3)
C53F 0.106(4) 0.108(4) 0.131(5) 0.003(4) 0.000(4) 0.048(3)
C54F 0.107(4) 0.110(4) 0.132(5) 0.003(4) -0.002(4) 0.045(3)
C55F 0.108(4) 0.109(4) 0.131(4) 0.001(3) -0.002(3) 0.043(3)
C56F 0.108(4) 0.107(4) 0.130(4) 0.001(3) -0.002(3) 0.045(3)
C57F 0.109(4) 0.108(4) 0.129(4) -0.002(3) -0.003(3) 0.041(3)
C58F 0.110(4) 0.110(4) 0.131(5) -0.002(4) -0.003(4) 0.039(4)
C59F 0.111(4) 0.111(4) 0.131(5) -0.002(4) -0.004(4) 0.036(4)
C60F 0.109(4) 0.110(4) 0.132(5) 0.001(4) -0.003(4) 0.039(3)
N11G 0.170(5) 0.226(6) 0.150(5) 0.065(5) 0.030(4) 0.150(5)
C12G 0.170(6) 0.230(6) 0.152(5) 0.064(5) 0.031(5) 0.149(5)
C13G 0.171(6) 0.233(6) 0.154(5) 0.066(5) 0.029(5) 0.148(5)
C14G 0.172(5) 0.233(6) 0.153(5) 0.066(5) 0.028(4) 0.148(5)
C15G 0.172(5) 0.229(6) 0.151(5) 0.066(5) 0.027(4) 0.148(5)
C16G 0.171(5) 0.223(5) 0.148(5) 0.065(5) 0.030(4) 0.149(5)
C17G 0.176(6) 0.238(6) 0.155(6) 0.068(6) 0.025(5) 0.146(5)
O18G 0.193(7) 0.251(8) 0.156(6) 0.059(7) 0.026(6) 0.139(7)
N22G 0.173(6) 0.210(6) 0.142(5) 0.065(5) 0.029(5) 0.150(5)
N21G 0.173(5) 0.211(6) 0.143(5) 0.065(5) 0.030(4) 0.151(5)
C23G 0.173(5) 0.215(5) 0.144(5) 0.065(5) 0.029(4) 0.150(5)
C24G 0.173(6) 0.213(6) 0.143(5) 0.064(5) 0.029(5) 0.150(5)
C25G 0.173(6) 0.210(6) 0.142(5) 0.065(5) 0.029(5) 0.150(5)
N11H 0.136(6) 0.134(6) 0.150(6) 0.003(5) 0.026(5) 0.066(5)
C12H 0.136(6) 0.134(6) 0.151(6) 0.003(5) 0.026(5) 0.066(5)
C13H 0.137(6) 0.136(6) 0.151(6) 0.002(5) 0.027(5) 0.065(5)
C14H 0.141(6) 0.139(6) 0.152(6) 0.005(5) 0.026(5) 0.063(5)
C15H 0.140(6) 0.137(6) 0.151(6) 0.004(5) 0.025(5) 0.063(5)
C16H 0.138(6) 0.135(6) 0.151(6) 0.004(5) 0.024(5) 0.065(5)
C17H 0.144(6) 0.146(6) 0.155(6) 0.007(5) 0.028(5) 0.059(6)
O18H 0.146(6) 0.172(7) 0.167(8) 0.015(6) 0.028(6) 0.056(7)
B1 0.114(4) 0.114(4) 0.129(7) 0.000 0.000 0.057(2)
F1 0.118(5) 0.118(5) 0.129(7) 0.000 0.000 0.059(2)
F2 0.113(5) 0.111(5) 0.131(6) 0.006(4) 0.003(4) 0.056(4)
B2 0.104(4) 0.100(4) 0.142(5) 0.016(3) 0.017(4) 0.048(3)
F5 0.105(4) 0.105(5) 0.139(6) 0.017(4) 0.021(4) 0.046(3)
F6 0.103(5) 0.098(5) 0.147(5) 0.013(4) 0.013(4) 0.051(4)
F7 0.105(5) 0.100(5) 0.145(6) 0.015(4) 0.019(4) 0.047(4)
F8 0.108(5) 0.102(5) 0.141(5) 0.015(4) 0.014(4) 0.049(4)

_geom_special_details            
;
 All esds (except the esd in the dihedral angle between two l.s. planes)
 are estimated using the full covariance matrix.  The cell esds are taken
 into account individually in the estimation of esds in distances, angles
 and torsion angles; correlations between esds in cell parameters are only
 used when they are defined by crystal symmetry.  An approximate (isotropic)
 treatment of cell esds is used for estimating esds involving l.s. planes.
;
loop_
_geom_bond_atom_site_label_1
_geom_bond_atom_site_label_2
_geom_bond_distance
_geom_bond_site_symmetry_2
_geom_bond_publ_flag
Co1 N11A 2.131(9) . ?
Co1 N22A 2.125(11) . ?
Co1 N11B 2.113(8) . ?
Co1 N22B 2.144(8) . ?
Co1 N11E 2.155(7) . ?
Co1 N22E 2.114(8) . ?
Co2 N31A 2.091(7) . ?
Co2 N42A 2.187(8) . ?
Co2 N11C 2.229(9) . ?
Co2 N22C 2.162(9) . ?
Co2 N42E 2.10(7) 3_565 ?
Co2 N11H 2.144(9) . ?
Co3 N31B 2.177(8) . ?
Co3 N42B 2.140(9) . ?
Co3 N31C 2.142(7) . ?
Co3 N42C 2.153(8) . ?
Co3 N11D 2.150(10) . ?
Co3 N22D 2.128(11) . ?
Co4 N31D 2.188(11) . ?
Co4 N42D 2.128(11) . ?
Co4 N11F 2.089(8) . ?
Co4 N22F 2.159(8) . ?
Co4 N11G 2.225(8) . ?
Co4 N21G 2.108(10) . ?
N11A C12A 1.3900 . ?
N11A C16A 1.3900 . ?
C12A C13A 1.3900 . ?
C13A C14A 1.3900 . ?
C14A C15A 1.3900 . ?
C14A C17A 1.610(15) . ?
C15A C16A 1.3900 . ?
C16A C23A 1.525(13) . ?
C17A O18A 1.37(2) . ?
N21A N22A 1.4200 . ?
N21A C25A 1.4200 . ?
N21A C26A 1.452(17) . ?
N22A C23A 1.4200 . ?
C23A C24A 1.4200 . ?
C24A C25A 1.4200 . ?
C26A C51A 1.547(19) . ?
N31A C32A 1.3900 . ?
N31A C36A 1.3900 . ?
C32A C33A 1.3900 . ?
C33A C34A 1.3900 . ?
C34A C35A 1.3900 . ?
C34A C37A 1.549(14) . ?
C35A C36A 1.3900 . ?
C36A C43A 1.394(10) . ?
C37A O38A 1.271(17) . ?
N41A N42A 1.4200 . ?
N41A C45A 1.4200 . ?
N41A C46A 1.473(16) . ?
N42A C43A 1.4200 . ?
C43A C44A 1.4200 . ?
C44A C45A 1.4200 . ?
C46A C57A 1.510(17) . ?
C51A C52A 1.3900 . ?
C51A C56A 1.3900 . ?
C52A C53A 1.3900 . ?
C53A C54A 1.3900 . ?
C54A C55A 1.3900 . ?
C55A C56A 1.3900 . ?
C55A C60A 1.3900 . ?
C56A C57A 1.3900 . ?
C57A C58A 1.3900 . ?
C58A C59A 1.3900 . ?
C59A C60A 1.3900 . ?
N11B C12B 1.3900 . ?
N11B C16B 1.3900 . ?
C12B C13B 1.3900 . ?
C13B C14B 1.3900 . ?
C14B C15B 1.3900 . ?
C14B C17B 1.590(14) . ?
C15B C16B 1.3900 . ?
C16B C23B 1.356(11) . ?
C17B O18B 1.28(3) . ?
N21B N22B 1.4200 . ?
N21B C25B 1.4200 . ?
N21B C26B 1.413(15) . ?
N22B C23B 1.4200 . ?
C23B C24B 1.4200 . ?
C24B C25B 1.4200 . ?
C26B C51B 1.596(18) . ?
N31B C32B 1.3900 . ?
N31B C36B 1.3900 . ?
C32B C33B 1.3900 . ?
C33B C34B 1.3900 . ?
C34B C35B 1.3900 . ?
C34B C37B 1.552(14) . ?
C35B C36B 1.3900 . ?
C36B C43B 1.391(11) . ?
C37B O38B 1.284(19) . ?
N41B N42B 1.4200 . ?
N41B C45B 1.4200 . ?
N41B C46B 1.394(14) . ?
N42B C43B 1.4200 . ?
C43B C44B 1.4200 . ?
C44B C45B 1.4200 . ?
C46B C57B 1.551(18) . ?
C51B C52B 1.3900 . ?
C51B C56B 1.3900 . ?
C52B C53B 1.3900 . ?
C53B C54B 1.3900 . ?
C54B C55B 1.3900 . ?
C55B C56B 1.3900 . ?
C55B C60B 1.3900 . ?
C56B C57B 1.3900 . ?
C57B C58B 1.3900 . ?
C58B C59B 1.3900 . ?
C59B C60B 1.3900 . ?
N11C C12C 1.3900 . ?
N11C C16C 1.3900 . ?
C12C C13C 1.3900 . ?
C13C C14C 1.3900 . ?
C14C C15C 1.3900 . ?
C14C C17C 1.574(15) . ?
C15C C16C 1.3900 . ?
C16C C23C 1.401(12) . ?
C17C O18C 1.26(2) . ?
N21C N22C 1.4200 . ?
N21C C25C 1.4200 . ?
N21C C26C 1.407(17) . ?
N22C C23C 1.4200 . ?
C23C C24C 1.4200 . ?
C24C C25C 1.4200 . ?
C26C C51C 1.547(16) . ?
N31C C32C 1.3900 . ?
N31C C36C 1.3900 . ?
C32C C33C 1.3900 . ?
C33C C34C 1.3900 . ?
C34C C35C 1.3900 . ?
C34C C37C 1.520(13) . ?
C35C C36C 1.3900 . ?
C36C C43C 1.365(11) . ?
C37C O38C 1.441(17) . ?
N41C N42C 1.4200 . ?
N41C C45C 1.4200 . ?
N41C C46C 1.377(16) . ?
N42C C43C 1.4200 . ?
C43C C44C 1.4200 . ?
C44C C45C 1.4200 . ?
C46C C57C 1.557(15) . ?
C51C C52C 1.3900 . ?
C51C C56C 1.3900 . ?
C52C C53C 1.3900 . ?
C53C C54C 1.3900 . ?
C54C C55C 1.3900 . ?
C55C C56C 1.3900 . ?
C55C C60C 1.3900 . ?
C56C C57C 1.3900 . ?
C57C C58C 1.3900 . ?
C58C C59C 1.3900 . ?
C59C C60C 1.3900 . ?
N11D C12D 1.3900 . ?
N11D C16D 1.3900 . ?
C12D C13D 1.3900 . ?
C13D C14D 1.3900 . ?
C14D C15D 1.3900 . ?
C14D C17D 1.582(15) . ?
C15D C16D 1.3900 . ?
C16D C23D 1.371(14) . ?
C17D O18D 1.72(2) . ?
N21D N22D 1.4200 . ?
N21D C25D 1.4200 . ?
N21D C26D 1.44(2) . ?
N22D C23D 1.4200 . ?
C23D C24D 1.4200 . ?
C24D C25D 1.4200 . ?
C26D C51D 1.44(2) . ?
N31D C32D 1.3900 . ?
N31D C36D 1.3900 . ?
C32D C33D 1.3900 . ?
C33D C34D 1.3900 . ?
C34D C35D 1.3900 . ?
C34D C37D 1.566(16) . ?
C35D C36D 1.3900 . ?
C36D C43D 1.338(14) . ?
C37D O38D 1.23(2) . ?
N41D N42D 1.4200 . ?
N41D C45D 1.4200 . ?
N41D C46D 1.31(2) . ?
N42D C43D 1.4200 . ?
C43D C44D 1.4200 . ?
C44D C45D 1.4200 . ?
C46D C57D 1.60(2) . ?
C51D C52D 1.3900 . ?
C51D C56D 1.3900 . ?
C52D C53D 1.3900 . ?
C53D C54D 1.3900 . ?
C54D C55D 1.3900 . ?
C55D C56D 1.3900 . ?
C55D C60D 1.3900 . ?
C56D C57D 1.3900 . ?
C57D C58D 1.3900 . ?
C58D C59D 1.3900 . ?
C59D C60D 1.3900 . ?
N11E C12E 1.3900 . ?
N11E C16E 1.3900 . ?
C12E C13E 1.3900 . ?
C13E C14E 1.3900 . ?
C14E C15E 1.3900 . ?
C14E C17E 1.525(13) . ?
C15E C16E 1.3900 . ?
C16E C23E 1.337(9) . ?
C17E O18E 1.449(15) . ?
N21E N22E 1.4200 . ?
N21E C25E 1.4200 . ?
N21E C26E 1.419(16) . ?
N22E C23E 1.4200 . ?
C23E C24E 1.4200 . ?
C24E C25E 1.4200 . ?
C26E C51E 1.568(19) . ?
N41E N42E 1.4200 . ?
N41E C45E 1.4200 . ?
N41E C46E 1.393(18) . ?
N42E Co2 2.100(10) 2_665 ?
N42E C43E 1.4200 . ?
C43E C44E 1.4200 . ?
C43E C16H 1.36(11) 2_665 ?
C44E C45E 1.4200 . ?
C46E C57E 1.519(18) . ?
C51E C52E 1.3900 . ?
C51E C56E 1.3900 . ?
C52E C53E 1.3900 . ?
C53E C54E 1.3900 . ?
C54E C55E 1.3900 . ?
C55E C56E 1.3900 . ?
C55E C60E 1.3900 . ?
C56E C57E 1.3900 . ?
C57E C58E 1.3900 . ?
C58E C59E 1.3900 . ?
C59E C60E 1.3900 . ?
N11F C12F 1.3900 . ?
N11F C16F 1.3900 . ?
C12F C13F 1.3900 . ?
C13F C14F 1.3900 . ?
C14F C15F 1.3900 . ?
C14F C17F 1.538(14) . ?
C15F C16F 1.3900 . ?
C16F C23F 1.367(10) . ?
C17F O18F 1.371(18) . ?
N21F N22F 1.4200 . ?
N21F C25F 1.4200 . ?
N21F C26F 1.429(16) . ?
N22F C23F 1.4200 . ?
C23F C24F 1.4200 . ?
C24F C25F 1.4200 . ?
C26F C51F 1.577(16) . ?
C46F C57F 1.540(17) . ?
C46F N22G 1.380(18) 2_665 ?
C51F C52F 1.3900 . ?
C51F C56F 1.3900 . ?
C52F C53F 1.3900 . ?
C53F C54F 1.3900 . ?
C54F C55F 1.3900 . ?
C55F C56F 1.3900 . ?
C55F C60F 1.3900 . ?
C56F C57F 1.3900 . ?
C57F C58F 1.3900 . ?
C58F C59F 1.3900 . ?
C59F C60F 1.3900 . ?
N11G C12G 1.3900 . ?
N11G C16G 1.3900 . ?
C12G C13G 1.3900 . ?
C13G C14G 1.3900 . ?
C14G C15G 1.3900 . ?
C14G C17G 1.542(15) . ?
C15G C16G 1.3900 . ?
C16G C23G 1.342(12) . ?
C17G O18G 1.35(2) . ?
N22G C46F 1.380(18) 3_565 ?
N22G N21G 1.4200 . ?
N22G C25G 1.4200 . ?
N21G C23G 1.4200 . ?
C23G C24G 1.4200 . ?
C24G C25G 1.4200 . ?
N11H C12H 1.3900 . ?
N11H C16H 1.3900 . ?
C12H C13H 1.3900 . ?
C13H C14H 1.3900 . ?
C14H C15H 1.3900 . ?
C14H C17H 1.49(2) . ?
C15H C16H 1.3900 . ?
C16H C43E 1.36(6) 3_565 ?
C17H O18H 1.49(2) . ?
B1 F1 1.419(16) . ?
B1 F2 1.414(9) 3_565 ?
B1 F2 1.414(9) . ?
B1 F2 1.414(9) 2_665 ?
B2 F5 1.389(12) . ?
B2 F6 1.383(12) . ?
B2 F7 1.401(12) . ?
B2 F8 1.392(12) . ?

loop_
_geom_angle_atom_site_label_1
_geom_angle_atom_site_label_2
_geom_angle_atom_site_label_3
_geom_angle
_geom_angle_site_symmetry_1
_geom_angle_site_symmetry_3
_geom_angle_publ_flag
N11A Co1 N22B 176.2(4) . . ?
N11A Co1 N11E 85.3(4) . . ?
N22A Co1 N11A 76.5(5) . . ?
N22A Co1 N22B 101.5(4) . . ?
N22A Co1 N11E 92.4(4) . . ?
N11B Co1 N11A 98.5(5) . . ?
N11B Co1 N22A 91.1(5) . . ?
N11B Co1 N22B 78.2(4) . . ?
N11B Co1 N11E 175.4(4) . . ?
N11B Co1 N22E 100.3(4) . . ?
N22B Co1 N11E 98.1(4) . . ?
N22E Co1 N11A 87.6(5) . . ?
N22E Co1 N22A 161.7(4) . . ?
N22E Co1 N22B 94.9(4) . . ?
N22E Co1 N11E 77.1(4) . . ?
N31A Co2 N42A 77.2(4) . . ?
N31A Co2 N11C 100.9(4) . . ?
N31A Co2 N22C 90.6(4) . . ?
N31A Co2 N42E 101(2) . 3_565 ?
N31A Co2 N11H 174.9(4) . . ?
N42A Co2 N11C 174.8(4) . . ?
N22C Co2 N42A 100.8(4) . . ?
N22C Co2 N11C 74.3(4) . . ?
N42E Co2 N42A 95(2) 3_565 . ?
N42E Co2 N11C 90(2) 3_565 . ?
N42E Co2 N22C 162(2) 3_565 . ?
N42E Co2 N11H 78(3) 3_565 . ?
N11H Co2 N42A 98.1(4) . . ?
N11H Co2 N11C 83.9(4) . . ?
N11H Co2 N22C 92.3(5) . . ?
N42B Co3 N31B 77.9(4) . . ?
N42B Co3 N31C 91.2(4) . . ?
N42B Co3 N42C 100.9(4) . . ?
N42B Co3 N11D 91.3(5) . . ?
N31C Co3 N31B 99.9(4) . . ?
N31C Co3 N42C 78.3(4) . . ?
N31C Co3 N11D 176.2(5) . . ?
N42C Co3 N31B 177.9(4) . . ?
N11D Co3 N31B 83.4(5) . . ?
N11D Co3 N42C 98.4(4) . . ?
N22D Co3 N31B 85.9(5) . . ?
N22D Co3 N42B 161.4(4) . . ?
N22D Co3 N31C 100.6(5) . . ?
N22D Co3 N42C 95.6(4) . . ?
N22D Co3 N11D 77.7(5) . . ?
N31D Co4 N11G 84.0(5) . . ?
N42D Co4 N31D 74.7(6) . . ?
N42D Co4 N22F 96.5(4) . . ?
N42D Co4 N11G 88.3(5) . . ?
N11F Co4 N31D 174.1(5) . . ?
N11F Co4 N42D 100.4(5) . . ?
N11F Co4 N22F 77.3(4) . . ?
N11F Co4 N11G 99.3(5) . . ?
N11F Co4 N21G 90.5(5) . . ?
N22F Co4 N31D 99.8(4) . . ?
N22F Co4 N11G 174.6(5) . . ?
N21G Co4 N31D 95.1(6) . . ?
N21G Co4 N42D 160.8(5) . . ?
N21G Co4 N22F 101.3(4) . . ?
N21G Co4 N11G 74.3(4) . . ?
C12A N11A Co1 120.8(8) . . ?
C12A N11A C16A 120.0 . . ?
C16A N11A Co1 119.1(8) . . ?
N11A C12A C13A 120.0 . . ?
C14A C13A C12A 120.0 . . ?
C13A C14A C17A 117.9(7) . . ?
C15A C14A C13A 120.0 . . ?
C15A C14A C17A 122.0(7) . . ?
C14A C15A C16A 120.0 . . ?
N11A C16A C23A 109.7(10) . . ?
C15A C16A N11A 120.0 . . ?
C15A C16A C23A 128.9(10) . . ?
O18A C17A C14A 98.8(12) . . ?
N22A N21A C25A 108.0 . . ?
N22A N21A C26A 121.0(12) . . ?
C25A N21A C26A 126.5(12) . . ?
N21A N22A Co1 135.9(7) . . ?
C23A N22A Co1 114.0(7) . . ?
C23A N22A N21A 108.0 . . ?
N22A C23A C16A 116.9(11) . . ?
N22A C23A C24A 108.0 . . ?
C24A C23A C16A 135.1(11) . . ?
C23A C24A C25A 108.0 . . ?
C24A C25A N21A 108.0 . . ?
N21A C26A C51A 116.7(13) . . ?
C32A N31A Co2 123.7(5) . . ?
C32A N31A C36A 120.0 . . ?
C36A N31A Co2 116.0(5) . . ?
C33A C32A N31A 120.0 . . ?
C32A C33A C34A 120.0 . . ?
C33A C34A C35A 120.0 . . ?
C33A C34A C37A 120.7(6) . . ?
C35A C34A C37A 119.3(6) . . ?
C36A C35A C34A 120.0 . . ?
N31A C36A C43A 117.6(8) . . ?
C35A C36A N31A 120.0 . . ?
C35A C36A C43A 122.4(8) . . ?
O38A C37A C34A 112.4(13) . . ?
N42A N41A C46A 126.8(9) . . ?
C45A N41A N42A 108.0 . . ?
C45A N41A C46A 125.2(9) . . ?
N41A N42A Co2 138.1(6) . . ?
N41A N42A C43A 108.0 . . ?
C43A N42A Co2 112.1(6) . . ?
C36A C43A N42A 116.1(8) . . ?
C36A C43A C44A 135.9(8) . . ?
C44A C43A N42A 108.0 . . ?
C43A C44A C45A 108.0 . . ?
C44A C45A N41A 108.0 . . ?
N41A C46A C57A 116.0(11) . . ?
C52A C51A C26A 110.6(8) . . ?
C52A C51A C56A 120.0 . . ?
C56A C51A C26A 129.3(8) . . ?
C53A C52A C51A 120.0 . . ?
C52A C53A C54A 120.0 . . ?
C55A C54A C53A 120.0 . . ?
C54A C55A C56A 120.0 . . ?
C54A C55A C60A 120.0 . . ?
C60A C55A C56A 120.0 . . ?
C55A C56A C51A 120.0 . . ?
C57A C56A C51A 120.0 . . ?
C57A C56A C55A 120.0 . . ?
C56A C57A C46A 125.8(7) . . ?
C56A C57A C58A 120.0 . . ?
C58A C57A C46A 114.1(7) . . ?
C59A C58A C57A 120.0 . . ?
C58A C59A C60A 120.0 . . ?
C59A C60A C55A 120.0 . . ?
C12B N11B Co1 126.1(6) . . ?
C12B N11B C16B 120.0 . . ?
C16B N11B Co1 113.4(6) . . ?
N11B C12B C13B 120.0 . . ?
C14B C13B C12B 120.0 . . ?
C13B C14B C17B 120.4(6) . . ?
C15B C14B C13B 120.0 . . ?
C15B C14B C17B 119.6(7) . . ?
C14B C15B C16B 120.0 . . ?
C15B C16B N11B 120.0 . . ?
C23B C16B N11B 118.6(8) . . ?
C23B C16B C15B 121.3(9) . . ?
O18B C17B C14B 114.3(16) . . ?
C25B N21B N22B 108.0 . . ?
C26B N21B N22B 124.4(10) . . ?
C26B N21B C25B 126.9(10) . . ?
N21B N22B Co1 139.5(6) . . ?
N21B N22B C23B 108.0 . . ?
C23B N22B Co1 111.7(6) . . ?
C16B C23B N22B 117.6(9) . . ?
C16B C23B C24B 134.4(9) . . ?
C24B C23B N22B 108.0 . . ?
C23B C24B C25B 108.0 . . ?
N21B C25B C24B 108.0 . . ?
N21B C26B C51B 112.3(10) . . ?
C32B N31B Co3 126.8(6) . . ?
C32B N31B C36B 120.0 . . ?
C36B N31B Co3 113.1(6) . . ?
N31B C32B C33B 120.0 . . ?
C32B C33B C34B 120.0 . . ?
C33B C34B C35B 120.0 . . ?
C33B C34B C37B 120.3(7) . . ?
C35B C34B C37B 119.6(7) . . ?
C36B C35B C34B 120.0 . . ?
N31B C36B C43B 114.8(9) . . ?
C35B C36B N31B 120.0 . . ?
C35B C36B C43B 125.1(9) . . ?
O38B C37B C34B 114.8(13) . . ?
C45B N41B N42B 108.0 . . ?
C46B N41B N42B 117.7(10) . . ?
C46B N41B C45B 130.9(10) . . ?
N41B N42B Co3 140.3(6) . . ?
C43B N42B Co3 109.0(6) . . ?
C43B N42B N41B 108.0 . . ?
C36B C43B N42B 121.0(9) . . ?
C36B C43B C44B 130.6(9) . . ?
N42B C43B C44B 108.0 . . ?
C43B C44B C45B 108.0 . . ?
N41B C45B C44B 108.0 . . ?
N41B C46B C57B 119.3(13) . . ?
C52B C51B C26B 113.9(6) . . ?
C52B C51B C56B 120.0 . . ?
C56B C51B C26B 125.7(6) . . ?
C53B C52B C51B 120.0 . . ?
C54B C53B C52B 120.0 . . ?
C53B C54B C55B 120.0 . . ?
C54B C55B C60B 120.0 . . ?
C56B C55B C54B 120.0 . . ?
C56B C55B C60B 120.0 . . ?
C55B C56B C51B 120.0 . . ?
C55B C56B C57B 120.0 . . ?
C57B C56B C51B 120.0 . . ?
C56B C57B C46B 132.3(7) . . ?
C58B C57B C46B 107.7(7) . . ?
C58B C57B C56B 120.0 . . ?
C57B C58B C59B 120.0 . . ?
C58B C59B C60B 120.0 . . ?
C59B C60B C55B 120.0 . . ?
C12C N11C Co2 124.9(6) . . ?
C12C N11C C16C 120.0 . . ?
C16C N11C Co2 112.9(6) . . ?
C13C C12C N11C 120.0 . . ?
C12C C13C C14C 120.0 . . ?
C13C C14C C17C 119.5(7) . . ?
C15C C14C C13C 120.0 . . ?
C15C C14C C17C 120.4(7) . . ?
C16C C15C C14C 120.0 . . ?
N11C C16C C23C 115.3(9) . . ?
C15C C16C N11C 120.0 . . ?
C15C C16C C23C 124.6(9) . . ?
O18C C17C C14C 105.9(13) . . ?
N22C N21C C25C 108.0 . . ?
C26C N21C N22C 123.6(11) . . ?
C26C N21C C25C 126.5(11) . . ?
N21C N22C Co2 135.1(6) . . ?
C23C N22C Co2 113.2(7) . . ?
C23C N22C N21C 108.0 . . ?
C16C C23C N22C 117.6(10) . . ?
C16C C23C C24C 134.4(10) . . ?
N22C C23C C24C 108.0 . . ?
C23C C24C C25C 108.0 . . ?
N21C C25C C24C 108.0 . . ?
N21C C26C C51C 115.4(11) . . ?
C32C N31C Co3 125.8(5) . . ?
C32C N31C C36C 120.0 . . ?
C36C N31C Co3 113.9(5) . . ?
C33C C32C N31C 120.0 . . ?
C32C C33C C34C 120.0 . . ?
C33C C34C C37C 120.6(6) . . ?
C35C C34C C33C 120.0 . . ?
C35C C34C C37C 119.3(6) . . ?
C34C C35C C36C 120.0 . . ?
C35C C36C N31C 120.0 . . ?
C43C C36C N31C 116.2(8) . . ?
C43C C36C C35C 123.6(8) . . ?
O38C C37C C34C 110.7(11) . . ?
N42C N41C C45C 108.0 . . ?
C46C N41C N42C 124.4(10) . . ?
C46C N41C C45C 127.6(10) . . ?
N41C N42C Co3 140.7(6) . . ?
C43C N42C Co3 109.8(6) . . ?
C43C N42C N41C 108.0 . . ?
C36C C43C N42C 120.8(8) . . ?
C36C C43C C44C 131.2(8) . . ?
C44C C43C N42C 108.0 . . ?
C43C C44C C45C 108.0 . . ?
C44C C45C N41C 108.0 . . ?
N41C C46C C57C 119.4(11) . . ?
C52C C51C C26C 112.8(7) . . ?
C52C C51C C56C 120.0 . . ?
C56C C51C C26C 126.9(7) . . ?
C51C C52C C53C 120.0 . . ?
C54C C53C C52C 120.0 . . ?
C55C C54C C53C 120.0 . . ?
C54C C55C C56C 120.0 . . ?
C54C C55C C60C 120.0 . . ?
C56C C55C C60C 120.0 . . ?
C55C C56C C51C 120.0 . . ?
C57C C56C C51C 120.0 . . ?
C57C C56C C55C 120.0 . . ?
C56C C57C C46C 132.2(7) . . ?
C56C C57C C58C 120.0 . . ?
C58C C57C C46C 107.5(7) . . ?
C59C C58C C57C 120.0 . . ?
C60C C59C C58C 120.0 . . ?
C59C C60C C55C 120.0 . . ?
C12D N11D Co3 125.7(7) . . ?
C12D N11D C16D 120.0 . . ?
C16D N11D Co3 114.0(7) . . ?
C13D C12D N11D 120.0 . . ?
C14D C13D C12D 120.0 . . ?
C13D C14D C15D 120.0 . . ?
C13D C14D C17D 119.9(7) . . ?
C15D C14D C17D 120.0(7) . . ?
C14D C15D C16D 120.0 . . ?
C15D C16D N11D 120.0 . . ?
C23D C16D N11D 115.3(11) . . ?
C23D C16D C15D 124.7(11) . . ?
C14D C17D O18D 99.8(11) . . ?
N22D N21D C26D 122.1(13) . . ?
C25D N21D N22D 108.0 . . ?
C25D N21D C26D 129.7(13) . . ?
N21D N22D Co3 140.0(9) . . ?
C23D N22D Co3 110.8(8) . . ?
C23D N22D N21D 108.0 . . ?
C16D C23D N22D 120.4(12) . . ?
C16D C23D C24D 131.6(12) . . ?
C24D C23D N22D 108.0 . . ?
C23D C24D C25D 108.0 . . ?
C24D C25D N21D 108.0 . . ?
C51D C26D N21D 122.4(19) . . ?
C32D N31D Co4 122.2(8) . . ?
C32D N31D C36D 120.0 . . ?
C36D N31D Co4 117.4(8) . . ?
C33D C32D N31D 120.0 . . ?
C32D C33D C34D 120.0 . . ?
C33D C34D C35D 120.0 . . ?
C33D C34D C37D 118.8(7) . . ?
C35D C34D C37D 121.2(7) . . ?
C36D C35D C34D 120.0 . . ?
C35D C36D N31D 120.0 . . ?
C43D C36D N31D 110.4(13) . . ?
C43D C36D C35D 129.5(13) . . ?
O38D C37D C34D 104.2(15) . . ?
N42D N41D C45D 108.0 . . ?
C46D N41D N42D 124.1(16) . . ?
C46D N41D C45D 127.7(16) . . ?
N41D N42D Co4 137.7(9) . . ?
N41D N42D C43D 108.0 . . ?
C43D N42D Co4 110.8(10) . . ?
C36D C43D N42D 123.4(15) . . ?
C36D C43D C44D 128.5(15) . . ?
C44D C43D N42D 108.0 . . ?
C45D C44D C43D 108.0 . . ?
C44D C45D N41D 108.0 . . ?
N41D C46D C57D 119.2(14) . . ?
C52D C51D C26D 107.2(11) . . ?
C52D C51D C56D 120.0 . . ?
C56D C51D C26D 128.8(11) . . ?
C53D C52D C51D 120.0 . . ?
C52D C53D C54D 120.0 . . ?
C53D C54D C55D 120.0 . . ?
C54D C55D C56D 120.0 . . ?
C54D C55D C60D 120.0 . . ?
C56D C55D C60D 120.0 . . ?
C55D C56D C51D 120.0 . . ?
C57D C56D C51D 120.0 . . ?
C57D C56D C55D 120.0 . . ?
C56D C57D C46D 128.3(10) . . ?
C56D C57D C58D 120.0 . . ?
C58D C57D C46D 110.0(9) . . ?
C59D C58D C57D 120.0 . . ?
C58D C59D C60D 120.0 . . ?
C59D C60D C55D 120.0 . . ?
C12E N11E Co1 126.9(5) . . ?
C12E N11E C16E 120.0 . . ?
C16E N11E Co1 113.0(5) . . ?
N11E C12E C13E 120.0 . . ?
C12E C13E C14E 120.0 . . ?
C13E C14E C17E 119.9(6) . . ?
C15E C14E C13E 120.0 . . ?
C15E C14E C17E 120.1(6) . . ?
C16E C15E C14E 120.0 . . ?
C15E C16E N11E 120.0 . . ?
C23E C16E N11E 117.8(8) . . ?
C23E C16E C15E 122.2(8) . . ?
O18E C17E C14E 116.7(10) . . ?
N22E N21E C25E 108.0 . . ?
C26E N21E N22E 123.3(9) . . ?
C26E N21E C25E 127.5(10) . . ?
N21E N22E Co1 137.3(6) . . ?
C23E N22E Co1 112.7(6) . . ?
C23E N22E N21E 108.0 . . ?
C16E C23E N22E 118.4(8) . . ?
C16E C23E C24E 133.5(8) . . ?
N22E C23E C24E 108.0 . . ?
C25E C24E C23E 108.0 . . ?
C24E C25E N21E 108.0 . . ?
N21E C26E C51E 119.2(14) . . ?
C45E N41E N42E 108.0 . . ?
C46E N41E N42E 122.8(12) . . ?
C46E N41E C45E 128.7(12) . . ?
N41E N42E Co2 136.7(7) . 2_665 ?
N41E N42E C43E 108.0 . . ?
C43E N42E Co2 111.1(7) . 2_665 ?
C44E C43E N42E 108.0 . . ?
C16H C43E N42E 121(4) 2_665 . ?
C16H C43E C44E 131(5) 2_665 . ?
C43E C44E C45E 108.0 . . ?
N41E C45E C44E 108.0 . . ?
N41E C46E C57E 117.7(13) . . ?
C52E C51E C26E 112.2(8) . . ?
C52E C51E C56E 120.0 . . ?
C56E C51E C26E 124.1(8) . . ?
C51E C52E C53E 120.0 . . ?
C54E C53E C52E 120.0 . . ?
C53E C54E C55E 120.0 . . ?
C54E C55E C60E 120.0 . . ?
C56E C55E C54E 120.0 . . ?
C56E C55E C60E 120.0 . . ?
C55E C56E C51E 120.0 . . ?
C55E C56E C57E 120.0 . . ?
C57E C56E C51E 120.0 . . ?
C56E C57E C46E 124.3(9) . . ?
C58E C57E C46E 111.8(8) . . ?
C58E C57E C56E 120.0 . . ?
C57E C58E C59E 120.0 . . ?
C58E C59E C60E 120.0 . . ?
C59E C60E C55E 120.0 . . ?
C12F N11F Co4 124.5(6) . . ?
C12F N11F C16F 120.0 . . ?
C16F N11F Co4 115.0(6) . . ?
N11F C12F C13F 120.0 . . ?
C14F C13F C12F 120.0 . . ?
C13F C14F C17F 120.5(7) . . ?
C15F C14F C13F 120.0 . . ?
C15F C14F C17F 119.4(7) . . ?
C16F C15F C14F 120.0 . . ?
C15F C16F N11F 120.0 . . ?
C23F C16F N11F 118.1(9) . . ?
C23F C16F C15F 121.4(9) . . ?
O18F C17F C14F 107.4(12) . . ?
N22F N21F C26F 122.9(10) . . ?
C25F N21F N22F 108.0 . . ?
C25F N21F C26F 129.0(10) . . ?
N21F N22F Co4 136.9(6) . . ?
C23F N22F Co4 112.1(6) . . ?
C23F N22F N21F 108.0 . . ?
C16F C23F N22F 116.0(9) . . ?
C16F C23F C24F 135.9(9) . . ?
N22F C23F C24F 108.0 . . ?
C25F C24F C23F 108.0 . . ?
N21F C25F C24F 108.0 . . ?
N21F C26F C51F 115.5(12) . . ?
N22G C46F C57F 117.4(13) 2_665 . ?
C52F C51F C26F 112.4(7) . . ?
C52F C51F C56F 120.0 . . ?
C56F C51F C26F 126.8(7) . . ?
C53F C52F C51F 120.0 . . ?
C52F C53F C54F 120.0 . . ?
C55F C54F C53F 120.0 . . ?
C56F C55F C54F 120.0 . . ?
C56F C55F C60F 120.0 . . ?
C60F C55F C54F 120.0 . . ?
C55F C56F C51F 120.0 . . ?
C55F C56F C57F 120.0 . . ?
C57F C56F C51F 120.0 . . ?
C56F C57F C46F 130.5(8) . . ?
C58F C57F C46F 109.5(8) . . ?
C58F C57F C56F 120.0 . . ?
C57F C58F C59F 120.0 . . ?
C60F C59F C58F 120.0 . . ?
C59F C60F C55F 120.0 . . ?
C12G N11G Co4 127.1(6) . . ?
C12G N11G C16G 120.0 . . ?
C16G N11G Co4 112.4(6) . . ?
C13G C12G N11G 120.0 . . ?
C12G C13G C14G 120.0 . . ?
C13G C14G C17G 119.5(7) . . ?
C15G C14G C13G 120.0 . . ?
C15G C14G C17G 120.5(7) . . ?
C16G C15G C14G 120.0 . . ?
C15G C16G N11G 120.0 . . ?
C23G C16G N11G 112.9(10) . . ?
C23G C16G C15G 125.9(10) . . ?
O18G C17G C14G 110.6(12) . . ?
C46F N22G N21G 119.0(12) 3_565 . ?
C46F N22G C25G 131.3(12) 3_565 . ?
C25G N22G N21G 108.0 . . ?
N22G N21G Co4 137.3(7) . . ?
N22G N21G C23G 108.0 . . ?
C23G N21G Co4 110.8(7) . . ?
C16G C23G N21G 121.2(11) . . ?
C16G C23G C24G 130.5(11) . . ?
C24G C23G N21G 108.0 . . ?
C23G C24G C25G 108.0 . . ?
N22G C25G C24G 108.0 . . ?
C12H N11H Co2 125.3(8) . . ?
C12H N11H C16H 120.0 . . ?
C16H N11H Co2 114.5(8) . . ?
C13H C12H N11H 120.0 . . ?
C12H C13H C14H 120.0 . . ?
C13H C14H C17H 121.2(13) . . ?
C15H C14H C13H 120.0 . . ?
C15H C14H C17H 118.5(13) . . ?
C14H C15H C16H 120.0 . . ?
C43E C16H N11H 114(4) 3_565 . ?
C43E C16H C15H 126(4) 3_565 . ?
C15H C16H N11H 120.0 . . ?
C14H C17H O18H 115.0(18) . . ?
F2 B1 F1 109.2(9) 2_665 . ?
F2 B1 F1 109.2(9) . . ?
F2 B1 F1 109.2(9) 3_565 . ?
F2 B1 F2 109.7(9) . 3_565 ?
F2 B1 F2 109.7(9) . 2_665 ?
F2 B1 F2 109.7(9) 3_565 2_665 ?
F5 B2 F7 108.3(9) . . ?
F5 B2 F8 108.4(9) . . ?
F6 B2 F5 110.2(10) . . ?
F6 B2 F7 110.7(10) . . ?
F6 B2 F8 109.3(9) . . ?
F8 B2 F7 109.9(10) . . ?

loop_
_geom_torsion_atom_site_label_1
_geom_torsion_atom_site_label_2
_geom_torsion_atom_site_label_3
_geom_torsion_atom_site_label_4
_geom_torsion
_geom_torsion_site_symmetry_1
_geom_torsion_site_symmetry_2
_geom_torsion_site_symmetry_3
_geom_torsion_site_symmetry_4
_geom_torsion_publ_flag
Co1 N11A C12A C13A -178.7(8) . . . . ?
Co1 N11A C16A C15A 178.8(8) . . . . ?
Co1 N11A C16A C23A -13.6(10) . . . . ?
Co1 N22A C23A C16A 15.3(11) . . . . ?
Co1 N22A C23A C24A -165.9(9) . . . . ?
Co1 N11B C12B C13B -172.0(8) . . . . ?
Co1 N11B C16B C15B 173.0(7) . . . . ?
Co1 N11B C16B C23B -3.9(10) . . . . ?
Co1 N22B C23B C16B -7.4(10) . . . . ?
Co1 N22B C23B C24B 172.0(7) . . . . ?
Co1 N11E C12E C13E -175.6(7) . . . . ?
Co1 N11E C16E C15E 176.2(6) . . . . ?
Co1 N11E C16E C23E -4.6(9) . . . . ?
Co1 N22E C23E C16E 9.7(10) . . . . ?
Co1 N22E C23E C24E -166.9(8) . . . . ?
Co2 N31A C32A C33A -174.5(7) . . . . ?
Co2 N31A C36A C35A 174.9(6) . . . . ?
Co2 N31A C36A C43A -2.1(9) . . . . ?
Co2 N42A C43A C36A -11.6(9) . . . . ?
Co2 N42A C43A C44A 167.6(7) . . . . ?
Co2 N11C C12C C13C -161.9(7) . . . . ?
Co2 N11C C16C C15C 163.9(6) . . . . ?
Co2 N11C C16C C23C -20.4(9) . . . . ?
Co2 N22C C23C C16C 17.6(10) . . . . ?
Co2 N22C C23C C24C -161.8(7) . . . . ?
Co2 N42E C43E C44E -161.0(8) 2_665 . . . ?
Co2 N42E C43E C16H 13(2) 2_665 . . 2_665 ?
Co2 N11H C12H C13H -174.0(8) . . . . ?
Co2 N11H C16H C43E -6(4) . . . 3_565 ?
Co2 N11H C16H C15H 174.6(7) . . . . ?
Co3 N31B C32B C33B -176.4(8) . . . . ?
Co3 N31B C36B C35B 176.8(7) . . . . ?
Co3 N31B C36B C43B -6.1(11) . . . . ?
Co3 N42B C43B C36B 21.7(12) . . . . ?
Co3 N42B C43B C44B -165.4(9) . . . . ?
Co3 N31C C32C C33C -173.0(6) . . . . ?
Co3 N31C C36C C35C 173.8(6) . . . . ?
Co3 N31C C36C C43C -1.5(8) . . . . ?
Co3 N42C C43C C36C -11.9(9) . . . . ?
Co3 N42C C43C C44C 168.9(6) . . . . ?
Co3 N11D C12D C13D -172.8(9) . . . . ?
Co3 N11D C16D C15D 173.6(8) . . . . ?
Co3 N11D C16D C23D -8.5(12) . . . . ?
Co3 N22D C23D C16D 11.2(14) . . . . ?
Co3 N22D C23D C24D -170.4(10) . . . . ?
Co4 N31D C32D C33D -172.2(8) . . . . ?
Co4 N31D C36D C35D 172.6(7) . . . . ?
Co4 N31D C36D C43D -4.6(10) . . . . ?
Co4 N42D C43D C36D 20.3(12) . . . . ?
Co4 N42D C43D C44D -162.8(8) . . . . ?
Co4 N11F C12F C13F -171.2(7) . . . . ?
Co4 N11F C16F C15F 172.0(7) . . . . ?
Co4 N11F C16F C23F 0.1(9) . . . . ?
Co4 N22F C23F C16F -13.5(9) . . . . ?
Co4 N22F C23F C24F 163.9(7) . . . . ?
Co4 N11G C12G C13G -171.1(10) . . . . ?
Co4 N11G C16G C15G 172.3(8) . . . . ?
Co4 N11G C16G C23G -19.5(12) . . . . ?
Co4 N21G C23G C16G 23.3(13) . . . . ?
Co4 N21G C23G C24G -161.7(9) . . . . ?
N11A C12A C13A C14A 0.0 . . . . ?
N11A C16A C23A N22A -1.5(12) . . . . ?
N11A C16A C23A C24A -180(100) . . . . ?
C12A N11A C16A C15A 0.0 . . . . ?
C12A N11A C16A C23A 167.6(11) . . . . ?
C12A C13A C14A C15A 0.0 . . . . ?
C12A C13A C14A C17A -175.6(12) . . . . ?
C13A C14A C15A C16A 0.0 . . . . ?
C13A C14A C17A O18A -178.1(12) . . . . ?
C14A C15A C16A N11A 0.0 . . . . ?
C14A C15A C16A C23A -165.0(13) . . . . ?
C15A C14A C17A O18A 6.4(19) . . . . ?
C15A C16A C23A N22A 164.7(8) . . . . ?
C15A C16A C23A C24A -13.6(18) . . . . ?
C16A N11A C12A C13A 0.0 . . . . ?
C16A C23A C24A C25A 178.4(16) . . . . ?
C17A C14A C15A C16A 175.4(13) . . . . ?
N21A N22A C23A C16A -178.8(12) . . . . ?
N21A N22A C23A C24A 0.0 . . . . ?
N21A C26A C51A C52A -0.7(17) . . . . ?
N21A C26A C51A C56A 174.5(10) . . . . ?
N22A N21A C25A C24A 0.0 . . . . ?
N22A N21A C26A C51A -77.4(17) . . . . ?
N22A C23A C24A C25A 0.0 . . . . ?
C23A C24A C25A N21A 0.0 . . . . ?
C25A N21A N22A Co1 161.4(12) . . . . ?
C25A N21A N22A C23A 0.0 . . . . ?
C25A N21A C26A C51A 76.0(18) . . . . ?
C26A N21A N22A Co1 -40.8(16) . . . . ?
C26A N21A N22A C23A 157.8(14) . . . . ?
C26A N21A C25A C24A -156.3(15) . . . . ?
C26A C51A C52A C53A 175.8(11) . . . . ?
C26A C51A C56A C55A -174.9(13) . . . . ?
C26A C51A C56A C57A 5.1(13) . . . . ?
N31A C32A C33A C34A 0.0 . . . . ?
N31A C36A C43A N42A 9.4(11) . . . . ?
N31A C36A C43A C44A -169.5(8) . . . . ?
C32A N31A C36A C35A 0.0 . . . . ?
C32A N31A C36A C43A -177.0(10) . . . . ?
C32A C33A C34A C35A 0.0 . . . . ?
C32A C33A C34A C37A 178.5(11) . . . . ?
C33A C34A C35A C36A 0.0 . . . . ?
C33A C34A C37A O38A 13.9(18) . . . . ?
C34A C35A C36A N31A 0.0 . . . . ?
C34A C35A C36A C43A 176.9(10) . . . . ?
C35A C34A C37A O38A -167.6(11) . . . . ?
C35A C36A C43A N42A -167.5(6) . . . . ?
C35A C36A C43A C44A 13.6(15) . . . . ?
C36A N31A C32A C33A 0.0 . . . . ?
C36A C43A C44A C45A 178.9(14) . . . . ?
C37A C34A C35A C36A -178.6(11) . . . . ?
N41A N42A C43A C36A -179.2(11) . . . . ?
N41A N42A C43A C44A 0.0 . . . . ?
N41A C46A C57A C56A 173.0(8) . . . . ?
N41A C46A C57A C58A -3.4(15) . . . . ?
N42A N41A C45A C44A 0.0 . . . . ?
N42A N41A C46A C57A -88.6(14) . . . . ?
N42A C43A C44A C45A 0.0 . . . . ?
C43A C44A C45A N41A 0.0 . . . . ?
C45A N41A N42A Co2 -162.6(9) . . . . ?
C45A N41A N42A C43A 0.0 . . . . ?
C45A N41A C46A C57A 92.6(15) . . . . ?
C46A N41A N42A Co2 18.4(14) . . . . ?
C46A N41A N42A C43A -178.9(12) . . . . ?
C46A N41A C45A C44A 179.0(12) . . . . ?
C46A C57A C58A C59A 176.6(11) . . . . ?
C51A C52A C53A C54A 0.0 . . . . ?
C51A C56A C57A C46A 3.8(12) . . . . ?
C51A C56A C57A C58A 180.0 . . . . ?
C52A C51A C56A C55A 0.0 . . . . ?
C52A C51A C56A C57A 180.0 . . . . ?
C52A C53A C54A C55A 0.0 . . . . ?
C53A C54A C55A C56A 0.0 . . . . ?
C53A C54A C55A C60A 180.0 . . . . ?
C54A C55A C56A C51A 0.0 . . . . ?
C54A C55A C56A C57A 180.0 . . . . ?
C54A C55A C60A C59A 180.0 . . . . ?
C55A C56A C57A C46A -176.2(12) . . . . ?
C55A C56A C57A C58A 0.0 . . . . ?
C56A C51A C52A C53A 0.0 . . . . ?
C56A C55A C60A C59A 0.0 . . . . ?
C56A C57A C58A C59A 0.0 . . . . ?
C57A C58A C59A C60A 0.0 . . . . ?
C58A C59A C60A C55A 0.0 . . . . ?
C60A C55A C56A C51A 180.0 . . . . ?
C60A C55A C56A C57A 0.0 . . . . ?
N11B C12B C13B C14B 0.0 . . . . ?
N11B C16B C23B N22B 7.7(12) . . . . ?
N11B C16B C23B C24B -171.4(8) . . . . ?
C12B N11B C16B C15B 0.0 . . . . ?
C12B N11B C16B C23B -176.9(11) . . . . ?
C12B C13B C14B C15B 0.0 . . . . ?
C12B C13B C14B C17B -179.0(11) . . . . ?
C13B C14B C15B C16B 0.0 . . . . ?
C13B C14B C17B O18B 174.8(18) . . . . ?
C14B C15B C16B N11B 0.0 . . . . ?
C14B C15B C16B C23B 176.8(11) . . . . ?
C15B C14B C17B O18B -4(2) . . . . ?
C15B C16B C23B N22B -169.1(6) . . . . ?
C15B C16B C23B C24B 11.7(15) . . . . ?
C16B N11B C12B C13B 0.0 . . . . ?
C16B C23B C24B C25B 179.2(14) . . . . ?
C17B C14B C15B C16B 179.0(11) . . . . ?
N21B N22B C23B C16B -179.4(11) . . . . ?
N21B N22B C23B C24B 0.0 . . . . ?
N21B C26B C51B C52B 0.6(14) . . . . ?
N21B C26B C51B C56B 172.8(8) . . . . ?
N22B N21B C25B C24B 0.0 . . . . ?
N22B N21B C26B C51B -95.7(13) . . . . ?
N22B C23B C24B C25B 0.0 . . . . ?
C23B C24B C25B N21B 0.0 . . . . ?
C25B N21B N22B Co1 -168.5(10) . . . . ?
C25B N21B N22B C23B 0.0 . . . . ?
C25B N21B C26B C51B 94.7(13) . . . . ?
C26B N21B N22B Co1 20.3(15) . . . . ?
C26B N21B N22B C23B -171.3(12) . . . . ?
C26B N21B C25B C24B 171.0(12) . . . . ?
C26B C51B C52B C53B 172.7(9) . . . . ?
C26B C51B C56B C55B -171.8(10) . . . . ?
C26B C51B C56B C57B 8.2(10) . . . . ?
N31B C32B C33B C34B 0.0 . . . . ?
N31B C36B C43B N42B -10.8(14) . . . . ?
N31B C36B C43B C44B 178.1(9) . . . . ?
C32B N31B C36B C35B 0.0 . . . . ?
C32B N31B C36B C43B 177.0(12) . . . . ?
C32B C33B C34B C35B 0.0 . . . . ?
C32B C33B C34B C37B -176.6(12) . . . . ?
C33B C34B C35B C36B 0.0 . . . . ?
C33B C34B C37B O38B 156.1(15) . . . . ?
C34B C35B C36B N31B 0.0 . . . . ?
C34B C35B C36B C43B -176.7(14) . . . . ?
C35B C34B C37B O38B -20(2) . . . . ?
C35B C36B C43B N42B 166.1(8) . . . . ?
C35B C36B C43B C44B -5.1(18) . . . . ?
C36B N31B C32B C33B 0.0 . . . . ?
C36B C43B C44B C45B 172.0(16) . . . . ?
C37B C34B C35B C36B 176.6(12) . . . . ?
N41B N42B C43B C36B -173.0(14) . . . . ?
N41B N42B C43B C44B 0.0 . . . . ?
N41B C46B C57B C56B 170.9(9) . . . . ?
N41B C46B C57B C58B -7.7(15) . . . . ?
N42B N41B C45B C44B 0.0 . . . . ?
N42B N41B C46B C57B -74.1(16) . . . . ?
N42B C43B C44B C45B 0.0 . . . . ?
C43B C44B C45B N41B 0.0 . . . . ?
C45B N41B N42B Co3 158.0(12) . . . . ?
C45B N41B N42B C43B 0.0 . . . . ?
C45B N41B C46B C57B 82.0(17) . . . . ?
C46B N41B N42B Co3 -40.7(17) . . . . ?
C46B N41B N42B C43B 161.2(13) . . . . ?
C46B N41B C45B C44B -157.9(16) . . . . ?
C46B C57B C58B C59B 178.8(9) . . . . ?
C51B C52B C53B C54B 0.0 . . . . ?
C51B C56B C57B C46B 1.5(12) . . . . ?
C51B C56B C57B C58B 180.0 . . . . ?
C52B C51B C56B C55B 0.0 . . . . ?
C52B C51B C56B C57B 180.0 . . . . ?
C52B C53B C54B C55B 0.0 . . . . ?
C53B C54B C55B C56B 0.0 . . . . ?
C53B C54B C55B C60B 180.0 . . . . ?
C54B C55B C56B C51B 0.0 . . . . ?
C54B C55B C56B C57B 180.0 . . . . ?
C54B C55B C60B C59B 180.0 . . . . ?
C55B C56B C57B C46B -178.5(12) . . . . ?
C55B C56B C57B C58B 0.0 . . . . ?
C56B C51B C52B C53B 0.0 . . . . ?
C56B C55B C60B C59B 0.0 . . . . ?
C56B C57B C58B C59B 0.0 . . . . ?
C57B C58B C59B C60B 0.0 . . . . ?
C58B C59B C60B C55B 0.0 . . . . ?
C60B C55B C56B C51B 180.0 . . . . ?
C60B C55B C56B C57B 0.0 . . . . ?
N11C C12C C13C C14C 0.0 . . . . ?
N11C C16C C23C N22C 2.3(12) . . . . ?
N11C C16C C23C C24C -178.6(8) . . . . ?
C12C N11C C16C C15C 0.0 . . . . ?
C12C N11C C16C C23C 175.6(11) . . . . ?
C12C C13C C14C C15C 0.0 . . . . ?
C12C C13C C14C C17C -175.9(11) . . . . ?
C13C C14C C15C C16C 0.0 . . . . ?
C13C C14C C17C O18C -176.3(13) . . . . ?
C14C C15C C16C N11C 0.0 . . . . ?
C14C C15C C16C C23C -175.2(12) . . . . ?
C15C C14C C17C O18C 8(2) . . . . ?
C15C C16C C23C N22C 177.7(6) . . . . ?
C15C C16C C23C C24C -3.1(16) . . . . ?
C16C N11C C12C C13C 0.0 . . . . ?
C16C C23C C24C C25C -179.2(14) . . . . ?
C17C C14C C15C C16C 175.9(11) . . . . ?
N21C N22C C23C C16C 179.3(11) . . . . ?
N21C N22C C23C C24C 0.0 . . . . ?
N21C C26C C51C C52C -7.1(16) . . . . ?
N21C C26C C51C C56C 166.7(9) . . . . ?
N22C N21C C25C C24C 0.0 . . . . ?
N22C N21C C26C C51C -76.0(16) . . . . ?
N22C C23C C24C C25C 0.0 . . . . ?
C23C C24C C25C N21C 0.0 . . . . ?
C25C N21C N22C Co2 155.9(9) . . . . ?
C25C N21C N22C C23C 0.0 . . . . ?
C25C N21C C26C C51C 86.2(15) . . . . ?
C26C N21C N22C Co2 -39.0(14) . . . . ?
C26C N21C N22C C23C 165.0(12) . . . . ?
C26C N21C C25C C24C -164.5(12) . . . . ?
C26C C51C C52C C53C 174.3(10) . . . . ?
C26C C51C C56C C55C -173.4(12) . . . . ?
C26C C51C C56C C57C 6.6(12) . . . . ?
N31C C32C C33C C34C 0.0 . . . . ?
N31C C36C C43C N42C 9.3(11) . . . . ?
N31C C36C C43C C44C -171.6(7) . . . . ?
C32C N31C C36C C35C 0.0 . . . . ?
C32C N31C C36C C43C -175.2(9) . . . . ?
C32C C33C C34C C35C 0.0 . . . . ?
C32C C33C C34C C37C 176.6(10) . . . . ?
C33C C34C C35C C36C 0.0 . . . . ?
C33C C34C C37C O38C 20.7(14) . . . . ?
C34C C35C C36C N31C 0.0 . . . . ?
C34C C35C C36C C43C 174.9(10) . . . . ?
C35C C34C C37C O38C -162.7(9) . . . . ?
C35C C36C C43C N42C -165.7(6) . . . . ?
C35C C36C C43C C44C 13.3(13) . . . . ?
C36C N31C C32C C33C 0.0 . . . . ?
C36C C43C C44C C45C -179.2(12) . . . . ?
C37C C34C C35C C36C -176.7(10) . . . . ?
N41C N42C C43C C36C 179.3(10) . . . . ?
N41C N42C C43C C44C 0.0 . . . . ?
N41C C46C C57C C56C 169.4(9) . . . . ?
N41C C46C C57C C58C -5.1(15) . . . . ?
N42C N41C C45C C44C 0.0 . . . . ?
N42C N41C C46C C57C -90.8(14) . . . . ?
N42C C43C C44C C45C 0.0 . . . . ?
C43C C44C C45C N41C 0.0 . . . . ?
C45C N41C N42C Co3 -163.3(9) . . . . ?
C45C N41C N42C C43C 0.0 . . . . ?
C45C N41C C46C C57C 92.4(14) . . . . ?
C46C N41C N42C Co3 19.4(14) . . . . ?
C46C N41C N42C C43C -177.3(11) . . . . ?
C46C N41C C45C C44C 177.2(12) . . . . ?
C46C C57C C58C C59C 175.3(9) . . . . ?
C51C C52C C53C C54C 0.0 . . . . ?
C51C C56C C57C C46C 6.1(12) . . . . ?
C51C C56C C57C C58C 180.0 . . . . ?
C52C C51C C56C C55C 0.0 . . . . ?
C52C C51C C56C C57C 180.0 . . . . ?
C52C C53C C54C C55C 0.0 . . . . ?
C53C C54C C55C C56C 0.0 . . . . ?
C53C C54C C55C C60C 180.0 . . . . ?
C54C C55C C56C C51C 0.0 . . . . ?
C54C C55C C56C C57C 180.0 . . . . ?
C54C C55C C60C C59C 180.0 . . . . ?
C55C C56C C57C C46C -173.9(12) . . . . ?
C55C C56C C57C C58C 0.0 . . . . ?
C56C C51C C52C C53C 0.0 . . . . ?
C56C C55C C60C C59C 0.0 . . . . ?
C56C C57C C58C C59C 0.0 . . . . ?
C57C C58C C59C C60C 0.0 . . . . ?
C58C C59C C60C C55C 0.0 . . . . ?
C60C C55C C56C C51C 180.0 . . . . ?
C60C C55C C56C C57C 0.0 . . . . ?
N11D C12D C13D C14D 0.0 . . . . ?
N11D C16D C23D N22D -1.9(16) . . . . ?
N11D C16D C23D C24D -179.9(11) . . . . ?
C12D N11D C16D C15D 0.0 . . . . ?
C12D N11D C16D C23D 177.9(14) . . . . ?
C12D C13D C14D C15D 0.0 . . . . ?
C12D C13D C14D C17D 177.4(12) . . . . ?
C13D C14D C15D C16D 0.0 . . . . ?
C13D C14D C17D O18D 2.8(16) . . . . ?
C14D C15D C16D N11D 0.0 . . . . ?
C14D C15D C16D C23D -177.7(15) . . . . ?
C15D C14D C17D O18D -179.8(11) . . . . ?
C15D C16D C23D N22D 175.9(8) . . . . ?
C15D C16D C23D C24D -2(2) . . . . ?
C16D N11D C12D C13D 0.0 . . . . ?
C16D C23D C24D C25D 178.2(19) . . . . ?
C17D C14D C15D C16D -177.4(12) . . . . ?
N21D N22D C23D C16D -178.4(16) . . . . ?
N21D N22D C23D C24D 0.0 . . . . ?
N21D C26D C51D C52D -2.7(19) . . . . ?
N21D C26D C51D C56D 154.5(12) . . . . ?
N22D N21D C25D C24D 0.0 . . . . ?
N22D N21D C26D C51D -91.8(19) . . . . ?
N22D C23D C24D C25D 0.0 . . . . ?
C23D C24D C25D N21D 0.0 . . . . ?
C25D N21D N22D Co3 165.9(14) . . . . ?
C25D N21D N22D C23D 0.0 . . . . ?
C25D N21D C26D C51D 83(2) . . . . ?
C26D N21D N22D Co3 -19(2) . . . . ?
C26D N21D N22D C23D 175.5(16) . . . . ?
C26D N21D C25D C24D -175.1(18) . . . . ?
C26D C51D C52D C53D 159.6(11) . . . . ?
C26D C51D C56D C55D -154.7(14) . . . . ?
C26D C51D C56D C57D 25.3(14) . . . . ?
N31D C32D C33D C34D 0.0 . . . . ?
N31D C36D C43D N42D -10.6(13) . . . . ?
N31D C36D C43D C44D 173.2(8) . . . . ?
C32D N31D C36D C35D 0.0 . . . . ?
C32D N31D C36D C43D -177.2(12) . . . . ?
C32D C33D C34D C35D 0.0 . . . . ?
C32D C33D C34D C37D -179.3(12) . . . . ?
C33D C34D C35D C36D 0.0 . . . . ?
C33D C34D C37D O38D 175.0(14) . . . . ?
C34D C35D C36D N31D 0.0 . . . . ?
C34D C35D C36D C43D 176.6(14) . . . . ?
C35D C34D C37D O38D -4(2) . . . . ?
C35D C36D C43D N42D 172.5(7) . . . . ?
C35D C36D C43D C44D -3.7(18) . . . . ?
C36D N31D C32D C33D 0.0 . . . . ?
C36D C43D C44D C45D 176.7(15) . . . . ?
C37D C34D C35D C36D 179.2(13) . . . . ?
N41D N42D C43D C36D -176.9(14) . . . . ?
N41D N42D C43D C44D 0.0 . . . . ?
N41D C46D C57D C56D 154.4(14) . . . . ?
N41D C46D C57D C58D -10(2) . . . . ?
N42D N41D C45D C44D 0.0 . . . . ?
N42D N41D C46D C57D -82.7(19) . . . . ?
N42D C43D C44D C45D 0.0 . . . . ?
C43D C44D C45D N41D 0.0 . . . . ?
C45D N41D N42D Co4 155.7(11) . . . . ?
C45D N41D N42D C43D 0.0 . . . . ?
C45D N41D C46D C57D 92.6(19) . . . . ?
C46D N41D N42D Co4 -28.2(18) . . . . ?
C46D N41D N42D C43D 176.0(15) . . . . ?
C46D N41D C45D C44D -175.9(16) . . . . ?
C46D C57D C58D C59D 166.2(10) . . . . ?
C51D C52D C53D C54D 0.0 . . . . ?
C51D C56D C57D C46D 16.5(12) . . . . ?
C51D C56D C57D C58D 180.0 . . . . ?
C52D C51D C56D C55D 0.0 . . . . ?
C52D C51D C56D C57D 180.0 . . . . ?
C52D C53D C54D C55D 0.0 . . . . ?
C53D C54D C55D C56D 0.0 . . . . ?
C53D C54D C55D C60D 180.0 . . . . ?
C54D C55D C56D C51D 0.0 . . . . ?
C54D C55D C56D C57D 180.0 . . . . ?
C54D C55D C60D C59D 180.0 . . . . ?
C55D C56D C57D C46D -163.5(12) . . . . ?
C55D C56D C57D C58D 0.0 . . . . ?
C56D C51D C52D C53D 0.0 . . . . ?
C56D C55D C60D C59D 0.0 . . . . ?
C56D C57D C58D C59D 0.0 . . . . ?
C57D C58D C59D C60D 0.0 . . . . ?
C58D C59D C60D C55D 0.0 . . . . ?
C60D C55D C56D C51D 180.0 . . . . ?
C60D C55D C56D C57D 0.0 . . . . ?
N11E C12E C13E C14E 0.0 . . . . ?
N11E C16E C23E N22E -3.4(12) . . . . ?
N11E C16E C23E C24E 172.1(9) . . . . ?
C12E N11E C16E C15E 0.0 . . . . ?
C12E N11E C16E C23E 179.3(10) . . . . ?
C12E C13E C14E C15E 0.0 . . . . ?
C12E C13E C14E C17E 178.6(10) . . . . ?
C13E C14E C15E C16E 0.0 . . . . ?
C13E C14E C17E O18E 4.9(17) . . . . ?
C14E C15E C16E N11E 0.0 . . . . ?
C14E C15E C16E C23E -179.2(10) . . . . ?
C15E C14E C17E O18E -176.5(10) . . . . ?
C15E C16E C23E N22E 175.8(6) . . . . ?
C15E C16E C23E C24E -8.6(15) . . . . ?
C16E N11E C12E C13E 0.0 . . . . ?
C16E C23E C24E C25E -175.9(14) . . . . ?
C17E C14E C15E C16E -178.6(10) . . . . ?
N21E N22E C23E C16E 176.6(12) . . . . ?
N21E N22E C23E C24E 0.0 . . . . ?
N21E C26E C51E C52E -5.1(15) . . . . ?
N21E C26E C51E C56E 153.1(10) . . . . ?
N22E N21E C25E C24E 0.0 . . . . ?
N22E N21E C26E C51E -83.4(16) . . . . ?
N22E C23E C24E C25E 0.0 . . . . ?
C23E C24E C25E N21E 0.0 . . . . ?
C25E N21E N22E Co1 162.0(11) . . . . ?
C25E N21E N22E C23E 0.0 . . . . ?
C25E N21E C26E C51E 82.5(15) . . . . ?
C26E N21E N22E Co1 -29.8(16) . . . . ?
C26E N21E N22E C23E 168.3(14) . . . . ?
C26E N21E C25E C24E -167.6(14) . . . . ?
C26E C51E C52E C53E 159.2(9) . . . . ?
C26E C51E C56E C55E -156.6(9) . . . . ?
C26E C51E C56E C57E 23.4(9) . . . . ?
N41E N42E C43E C44E 0.0 . . . . ?
N41E N42E C43E C16H 174(2) . . . 2_665 ?
N41E C46E C57E C56E 153.0(12) . . . . ?
N41E C46E C57E C58E -4.8(18) . . . . ?
N42E N41E C45E C44E 0.0 . . . . ?
N42E N41E C46E C57E -83.1(16) . . . . ?
N42E C43E C44E C45E 0.0 . . . . ?
C43E C44E C45E N41E 0.0 . . . . ?
C45E N41E N42E Co2 153.8(11) . . . 2_665 ?
C45E N41E N42E C43E 0.0 . . . . ?
C45E N41E C46E C57E 87.5(18) . . . . ?
C46E N41E N42E Co2 -34.0(15) . . . 2_665 ?
C46E N41E N42E C43E 172.3(13) . . . . ?
C46E N41E C45E C44E -171.7(14) . . . . ?
C46E C57E C58E C59E 158.9(10) . . . . ?
C51E C52E C53E C54E 0.0 . . . . ?
C51E C56E C57E C46E 23.9(11) . . . . ?
C51E C56E C57E C58E 180.0 . . . . ?
C52E C51E C56E C55E 0.0 . . . . ?
C52E C51E C56E C57E 180.0 . . . . ?
C52E C53E C54E C55E 0.0 . . . . ?
C53E C54E C55E C56E 0.0 . . . . ?
C53E C54E C55E C60E 180.0 . . . . ?
C54E C55E C56E C51E 0.0 . . . . ?
C54E C55E C56E C57E 180.0 . . . . ?
C54E C55E C60E C59E 180.0 . . . . ?
C55E C56E C57E C46E -156.1(11) . . . . ?
C55E C56E C57E C58E 0.0 . . . . ?
C56E C51E C52E C53E 0.0 . . . . ?
C56E C55E C60E C59E 0.0 . . . . ?
C56E C57E C58E C59E 0.0 . . . . ?
C57E C58E C59E C60E 0.0 . . . . ?
C58E C59E C60E C55E 0.0 . . . . ?
C60E C55E C56E C51E 180.0 . . . . ?
C60E C55E C56E C57E 0.0 . . . . ?
N11F C12F C13F C14F 0.0 . . . . ?
N11F C16F C23F N22F 9.2(11) . . . . ?
N11F C16F C23F C24F -167.2(8) . . . . ?
C12F N11F C16F C15F 0.0 . . . . ?
C12F N11F C16F C23F -171.9(10) . . . . ?
C12F C13F C14F C15F 0.0 . . . . ?
C12F C13F C14F C17F -177.6(11) . . . . ?
C13F C14F C15F C16F 0.0 . . . . ?
C13F C14F C17F O18F -4.8(17) . . . . ?
C14F C15F C16F N11F 0.0 . . . . ?
C14F C15F C16F C23F 171.6(10) . . . . ?
C15F C14F C17F O18F 177.7(10) . . . . ?
C15F C16F C23F N22F -162.6(6) . . . . ?
C15F C16F C23F C24F 21.0(15) . . . . ?
C16F N11F C12F C13F 0.0 . . . . ?
C16F C23F C24F C25F 176.6(13) . . . . ?
C17F C14F C15F C16F 177.6(11) . . . . ?
N21F N22F C23F C16F -177.4(10) . . . . ?
N21F N22F C23F C24F 0.0 . . . . ?
N21F C26F C51F C52F 3.3(14) . . . . ?
N21F C26F C51F C56F 172.6(8) . . . . ?
N22F N21F C25F C24F 0.0 . . . . ?
N22F N21F C26F C51F -98.1(13) . . . . ?
N22F C23F C24F C25F 0.0 . . . . ?
C23F C24F C25F N21F 0.0 . . . . ?
C25F N21F N22F Co4 -157.9(9) . . . . ?
C25F N21F N22F C23F 0.0 . . . . ?
C25F N21F C26F C51F 86.8(14) . . . . ?
C26F N21F N22F Co4 26.1(13) . . . . ?
C26F N21F N22F C23F -176.0(12) . . . . ?
C26F N21F C25F C24F 175.7(13) . . . . ?
C26F C51F C52F C53F 170.1(9) . . . . ?
C26F C51F C56F C55F -168.6(10) . . . . ?
C26F C51F C56F C57F 11.4(10) . . . . ?
C46F C57F C58F C59F 177.1(10) . . . . ?
C46F N22G N21G Co4 -38.7(17) 3_565 . . . ?
C46F N22G N21G C23G 166.9(14) 3_565 . . . ?
C46F N22G C25G C24G -164.7(16) 3_565 . . . ?
C51F C52F C53F C54F 0.0 . . . . ?
C51F C56F C57F C46F 3.6(12) . . . . ?
C51F C56F C57F C58F 180.0 . . . . ?
C52F C51F C56F C55F 0.0 . . . . ?
C52F C51F C56F C57F 180.0 . . . . ?
C52F C53F C54F C55F 0.0 . . . . ?
C53F C54F C55F C56F 0.0 . . . . ?
C53F C54F C55F C60F 180.0 . . . . ?
C54F C55F C56F C51F 0.0 . . . . ?
C54F C55F C56F C57F 180.0 . . . . ?
C54F C55F C60F C59F 180.0 . . . . ?
C55F C56F C57F C46F -176.4(12) . . . . ?
C55F C56F C57F C58F 0.0 . . . . ?
C56F C51F C52F C53F 0.0 . . . . ?
C56F C55F C60F C59F 0.0 . . . . ?
C56F C57F C58F C59F 0.0 . . . . ?
C57F C58F C59F C60F 0.0 . . . . ?
C58F C59F C60F C55F 0.0 . . . . ?
C60F C55F C56F C51F 180.0 . . . . ?
C60F C55F C56F C57F 0.0 . . . . ?
N11G C12G C13G C14G 0.0 . . . . ?
N11G C16G C23G N21G -1.9(15) . . . . ?
N11G C16G C23G C24G -175.6(10) . . . . ?
C12G N11G C16G C15G 0.0 . . . . ?
C12G N11G C16G C23G 168.2(14) . . . . ?
C12G C13G C14G C15G 0.0 . . . . ?
C12G C13G C14G C17G -178.2(14) . . . . ?
C13G C14G C15G C16G 0.0 . . . . ?
C13G C14G C17G O18G -174.1(15) . . . . ?
C14G C15G C16G N11G 0.0 . . . . ?
C14G C15G C16G C23G -166.6(16) . . . . ?
C15G C14G C17G O18G 8(2) . . . . ?
C15G C16G C23G N21G 165.5(8) . . . . ?
C15G C16G C23G C24G -8(2) . . . . ?
C16G N11G C12G C13G 0.0 . . . . ?
C16G C23G C24G C25G 174.4(17) . . . . ?
C17G C14G C15G C16G 178.2(14) . . . . ?
N22G C46F C57F C56F 171.4(10) 2_665 . . . ?
N22G C46F C57F C58F -5.3(17) 2_665 . . . ?
N22G N21G C23G C16G -175.0(15) . . . . ?
N22G N21G C23G C24G 0.0 . . . . ?
N21G N22G C25G C24G 0.0 . . . . ?
N21G C23G C24G C25G 0.0 . . . . ?
C23G C24G C25G N22G 0.0 . . . . ?
C25G N22G N21G Co4 154.4(13) . . . . ?
C25G N22G N21G C23G 0.0 . . . . ?
N11H C12H C13H C14H 0.0 . . . . ?
C12H N11H C16H C43E 179(4) . . . 3_565 ?
C12H N11H C16H C15H 0.0 . . . . ?
C12H C13H C14H C15H 0.0 . . . . ?
C12H C13H C14H C17H 173.4(14) . . . . ?
C13H C14H C15H C16H 0.0 . . . . ?
C13H C14H C17H O18H 15(2) . . . . ?
C14H C15H C16H C43E -179(5) . . . 3_565 ?
C14H C15H C16H N11H 0.0 . . . . ?
C15H C14H C17H O18H -171.6(12) . . . . ?
C16H C43E C44E C45E -173.1(19) 2_665 . . . ?
C16H N11H C12H C13H 0.0 . . . . ?
C17H C14H C15H C16H -173.6(14) . . . . ?

_shelx_res_file                  
;
TITL Ros1
CELL 0.71075 44.705 44.705 68.621 90 90 120
ZERR 6 0.009 0.009 0.014 0 0 0
LATT 3
SYMM -Y,+X-Y,+Z
SYMM +Y-X,-X,+Z

SFAC C H B Co F N O
UNIT 3240 2826 144 72 576 648 225
SADI C17A C13A C17A C15A
SADI C37A C33A C37A C35A
SADI C17B C13B C17B C15B
SADI C37B C33B C37B C35B
SADI C17C C13C C17C C15C
SADI C37C C33C C37C C35C
SADI C17D C13D C17D C15D
SADI C37D C33D C37D C35D
SADI C17E C13E C17E C15E
SADI C17F C13F C17F C15F
SADI C17G C13G C17G C15G
SADI C14A C17A C14B C17B C14C C17C C14D C17D
SADI C14E C17E C14F C17F C14G C17G
SADI C34A C37A C34B C37B C34C C37C C34D C37D
SADI B1 F1 B1 F2
SADI B2 F5 B2 F6 B2 F7 B2 F8
SADI F5 F6 F5 F7 F5 F8 F6 F7 F6 F8 F7 F8
FLAT C17A C13A C14A C15A
FLAT C37A C33A C34A C35A
FLAT C17B C13B C14B C15B
FLAT C37B C33B C34B C35B
FLAT C17C C13C C14C C15C
FLAT C37C C33C C34C C35C
FLAT C17D C13D C14D C15D
FLAT C37D C33D C34D C35D
FLAT C17E C13E C17E C15E
FLAT C17F C13F C14F C15F
FLAT C17G C13G C14G C15G
DELU 0.003 0.006 $C $N $B $F $O
SIMU 0.003 0.006 1.7 $C $N $B $F $O
EADP C17B C18B
EXYZ C17B C18B

L.S. 8
PLAN  10
BOND
MORE -1
CONF
fmap 2
acta
MERG 2
OMIT -4 180
REM <HKL>C:\Users\Admin\Desktop\will%20crystal%20fun\X-ray\2013ncs0814\final\2
REM 013ncs0814.hkl</HKL>

WGHT    0.200000
FVAR       0.23560   0.42250
CO1   4    0.101392    0.636636    0.032496    11.00000    0.07067    0.09698 =
         0.11732    0.03708    0.00360    0.01380
CO2   4    0.305315    0.856934    0.043268    11.00000    0.08264    0.08916 =
         0.14421    0.00313    0.02568    0.03903
CO3   4    0.178846    0.788870   -0.074475    11.00000    0.19075    0.10874 =
         0.11499    0.03527    0.04138    0.10060
CO4   4    0.236687    0.705345   -0.186647    11.00000    0.15892    0.16105 =
         0.10755    0.04487    0.01648    0.11324
AFIX  66
N11A  6    0.056732    0.613418    0.050649    11.00000    0.11777    0.17752 =
         0.14108    0.01645    0.01097    0.04372
C12A  1    0.036801    0.577711    0.052273    11.00000    0.12018    0.17934 =
         0.14264    0.01711    0.00892    0.04149
AFIX  43
H12A  2    0.043148    0.563641    0.045591    11.00000   -1.20000
AFIX  65
C13A  1    0.007383    0.563033    0.063885    11.00000    0.12076    0.18276 =
         0.14410    0.01712    0.00864    0.04134
AFIX  43
H13A  2   -0.005952    0.539143    0.064972    11.00000   -1.20000
AFIX  65
C14A  1   -0.002104    0.584062    0.073873    11.00000    0.12121    0.18454 =
         0.14538    0.01740    0.00969    0.04296
C15A  1    0.017827    0.619769    0.072249    11.00000    0.11716    0.18325 =
         0.14256    0.01864    0.01108    0.04462
AFIX  43
H15A  2    0.011479    0.633838    0.078932    11.00000   -1.20000
AFIX  65
C16A  1    0.047245    0.634447    0.060637    11.00000    0.11512    0.17767 =
         0.14023    0.01846    0.01116    0.04579
AFIX   0
C17A  1   -0.034788    0.565798    0.088329    11.00000    0.12776    0.18888 =
         0.14915    0.01556    0.01261    0.04239
AFIX  23
H17A  2   -0.055734    0.549601    0.081528    11.00000   -1.20000
H17B  2   -0.030714    0.554216    0.099090    11.00000   -1.20000
AFIX   0
O18A  7   -0.035685    0.594665    0.094330    11.00000    0.14260    0.20069 =
         0.16424    0.00202    0.02206    0.04861
AFIX  83
H18A  2   -0.038975    0.603907    0.084893    11.00000   -1.50000
AFIX  56
N21A  6    0.131915    0.713853    0.052033    11.00000    0.10685    0.15708 =
         0.13480    0.02088    0.01889    0.05725
N22A  6    0.107581    0.678035    0.050506    11.00000    0.10759    0.16164 =
         0.13473    0.02041    0.01465    0.05523
C23A  1    0.076848    0.671738    0.060131    11.00000    0.10913    0.16955 =
         0.13650    0.01918    0.01548    0.05348
C24A  1    0.082188    0.703663    0.067607    11.00000    0.10777    0.16943 =
         0.13630    0.01903    0.01837    0.05512
AFIX  43
H24A  2    0.066202    0.706949    0.074560    11.00000   -1.20000
AFIX  55
C25A  1    0.116221    0.729692    0.062602    11.00000    0.10783    0.16336 =
         0.13581    0.01862    0.02065    0.05741
AFIX  43
H25A  2    0.126439    0.753016    0.065702    11.00000   -1.20000
AFIX   0
C26A  1    0.168690    0.726645    0.050077    11.00000    0.10667    0.14570 =
         0.13410    0.02257    0.02010    0.05699
AFIX  23
H26A  2    0.179948    0.751092    0.047045    11.00000   -1.20000
H26B  2    0.172116    0.715178    0.039016    11.00000   -1.20000
AFIX  66
N31A  6    0.341783    0.878840    0.020911    11.00000    0.10423    0.10023 =
         0.16084    0.03653    0.03868    0.05914
C32A  1    0.365456    0.913950    0.019485    11.00000    0.10444    0.10135 =
         0.16317    0.03816    0.03748    0.05798
AFIX  43
H32A  2    0.366993    0.928871    0.029381    11.00000   -1.20000
AFIX  65
C33A  1    0.386831    0.926759    0.003269    11.00000    0.10533    0.10389 =
         0.16476    0.03852    0.03862    0.05732
AFIX  43
H33A  2    0.402670    0.950250    0.002315    11.00000   -1.20000
AFIX  65
C34A  1    0.384533    0.904458   -0.011521    11.00000    0.10759    0.10721 =
         0.16475    0.03760    0.04010    0.05502
C35A  1    0.360860    0.869348   -0.010095    11.00000    0.10675    0.10496 =
         0.16205    0.03627    0.04032    0.05735
AFIX  43
H35A  2    0.359323    0.854428   -0.019991    11.00000   -1.20000
AFIX  65
C36A  1    0.339485    0.856539    0.006121    11.00000    0.10349    0.10114 =
         0.15872    0.03641    0.03826    0.06185
AFIX   0
C37A  1    0.407519    0.918377   -0.029922    11.00000    0.11023    0.11257 =
         0.16692    0.04043    0.04110    0.05189
AFIX  23
H37A  2    0.417048    0.903603   -0.032903    11.00000   -1.20000
H37B  2    0.393374    0.917457   -0.040879    11.00000   -1.20000
AFIX   0
O38A  7    0.432092    0.949217   -0.027775    11.00000    0.11996    0.13229 =
         0.17511    0.04739    0.03451    0.03169
AFIX  83
H38A  2    0.444226    0.955267   -0.037570    11.00000   -1.50000
AFIX  56
N41A  6    0.266622    0.777577    0.022769    11.00000    0.10254    0.10466 =
         0.14580    0.03017    0.03279    0.06369
N42A  6    0.289809    0.813777    0.023089    11.00000    0.10185    0.10128 =
         0.15000    0.03262    0.03497    0.06628
C43A  1    0.314192    0.821873    0.007863    11.00000    0.10138    0.09973 =
         0.15282    0.03392    0.03668    0.06615
C44A  1    0.306075    0.790677   -0.001868    11.00000    0.10192    0.10215 =
         0.15034    0.03118    0.03607    0.06572
AFIX  43
H44A  2    0.317932    0.788550   -0.012421    11.00000   -1.20000
AFIX  55
C45A  1    0.276676    0.763301    0.007345    11.00000    0.10183    0.10311 =
         0.14791    0.03077    0.03346    0.06474
AFIX  43
H45A  2    0.265898    0.740095    0.003885    11.00000   -1.20000
AFIX   0
C46A  1    0.236835    0.757837    0.035754    11.00000    0.10355    0.11306 =
         0.14115    0.02881    0.02973    0.06075
AFIX  23
H46A  2    0.219394    0.738063    0.028603    11.00000   -1.20000
H46B  2    0.227056    0.772289    0.039012    11.00000   -1.20000
AFIX 116
C51A  1    0.187129    0.721945    0.067896    11.00000    0.10846    0.13612 =
         0.13460    0.02394    0.02054    0.05563
C52A  1    0.163937    0.706024    0.083100    11.00000    0.10881    0.13544 =
         0.13409    0.02411    0.01900    0.05366
AFIX  43
H52A  2    0.141241    0.701234    0.081899    11.00000   -1.20000
AFIX 115
C53A  1    0.174668    0.697262    0.100099    11.00000    0.11093    0.13476 =
         0.13392    0.02556    0.01881    0.05123
AFIX  43
H53A  2    0.159151    0.686610    0.110271    11.00000   -1.20000
AFIX 115
C54A  1    0.208591    0.704422    0.101894    11.00000    0.11132    0.13317 =
         0.13438    0.02692    0.01755    0.05083
AFIX  43
H54A  2    0.215771    0.698560    0.113267    11.00000   -1.20000
AFIX 115
C55A  1    0.231784    0.720343    0.086690    11.00000    0.11073    0.13031 =
         0.13609    0.02770    0.01848    0.05251
C56A  1    0.221053    0.729104    0.069691    11.00000    0.10901    0.12862 =
         0.13605    0.02693    0.02101    0.05521
C57A  1    0.244244    0.745025    0.054487    11.00000    0.10788    0.12143 =
         0.13898    0.02826    0.02404    0.05730
C58A  1    0.278168    0.752185    0.056282    11.00000    0.10884    0.12499 =
         0.13922    0.03078    0.02028    0.05482
AFIX  43
H58A  2    0.293684    0.762837    0.046109    11.00000   -1.20000
AFIX 115
C59A  1    0.288899    0.743424    0.073280    11.00000    0.10961    0.12761 =
         0.13968    0.03065    0.01862    0.05358
AFIX  43
H59A  2    0.311596    0.748215    0.074481    11.00000   -1.20000
AFIX 115
C60A  1    0.265708    0.727503    0.088484    11.00000    0.11106    0.12953 =
         0.13782    0.02992    0.01770    0.05189
AFIX  43
H60A  2    0.272888    0.721641    0.099857    11.00000   -1.20000
AFIX  66
N11B  6    0.134931    0.628307    0.050460    11.00000    0.11654    0.10391 =
         0.13992    0.02518   -0.00491    0.04903
C12B  1    0.127817    0.614696    0.069203    11.00000    0.11937    0.10725 =
         0.14006    0.02454   -0.00776    0.04735
AFIX  43
H12B  2    0.105696    0.605668    0.074317    11.00000   -1.20000
AFIX  65
C13B  1    0.153767    0.614579    0.080303    11.00000    0.12145    0.10975 =
         0.14086    0.02431   -0.01082    0.04606
AFIX  43
H13B  2    0.149008    0.605472    0.092843    11.00000   -1.20000
AFIX  65
C14B  1    0.186830    0.628072    0.072660    11.00000    0.12068    0.11055 =
         0.14237    0.02428   -0.01207    0.04619
C15B  1    0.193944    0.641683    0.053917    11.00000    0.11717    0.10470 =
         0.14247    0.02530   -0.00935    0.05002
AFIX  43
H15B  2    0.216066    0.650711    0.048804    11.00000   -1.20000
AFIX  65
C16B  1    0.167995    0.641801    0.042817    11.00000    0.11548    0.10163 =
         0.14004    0.02602   -0.00538    0.05127
AFIX   0
PART 1
C17B  1    0.216556    0.627523    0.085098    21.00000    0.12160    0.11361 =
         0.14378    0.02474   -0.01460    0.04460
AFIX  23
H17C  2    0.220907    0.641779    0.096580    21.00000   -1.20000
H17D  2    0.208480    0.604074    0.089473    21.00000   -1.20000
AFIX   0
O18B  7    0.244898    0.638191    0.075911    21.00000    0.12045    0.11961 =
         0.14684    0.02258   -0.01479    0.04025
AFIX  83
H18B  2    0.244676    0.621927    0.070250    21.00000   -1.50000
AFIX   0
PART 0
PART 2
C18B  1    0.216556    0.627523    0.085098   -21.00000    0.12160    0.11361 =
         0.14378    0.02474   -0.01460    0.04460
AFIX  23
H18C  2    0.228428    0.618797    0.077115   -21.00000   -1.20000
H18D  2    0.233244    0.650870    0.089052   -21.00000   -1.20000
AFIX   0
O19B  7    0.202583    0.606054    0.102167   -21.00000    0.12581    0.11706 =
         0.14579    0.02736   -0.01985    0.04203
AFIX  83
H19B  2    0.190672    0.612030    0.108269   -21.00000   -1.50000
AFIX  56
PART 0
N21B  6    0.160531    0.676089   -0.002632    11.00000    0.11413    0.09397 =
         0.13769    0.02458    0.00790    0.06197
N22B  6    0.148391    0.660878    0.015965    11.00000    0.11310    0.09426 =
         0.13826    0.02554    0.00468    0.05845
C23B  1    0.174570    0.656396    0.024854    11.00000    0.11275    0.09644 =
         0.13952    0.02537    0.00139    0.05605
C24B  1    0.202889    0.668837    0.011751    11.00000    0.11247    0.09505 =
         0.14070    0.02427    0.00349    0.05846
AFIX  43
H24B  2    0.223500    0.668988    0.013915    11.00000   -1.20000
AFIX  55
C25B  1    0.194212    0.681008   -0.005236    11.00000    0.11279    0.09452 =
         0.13980    0.02447    0.00652    0.06054
AFIX  43
H25B  2    0.208142    0.690530   -0.016151    11.00000   -1.20000
AFIX   0
C26B  1    0.143623    0.688623   -0.014727    11.00000    0.11784    0.09454 =
         0.13407    0.02467    0.01170    0.06663
AFIX  23
H26C  2    0.160789    0.709296   -0.021358    11.00000   -1.20000
H26D  2    0.129726    0.694886   -0.006710    11.00000   -1.20000
AFIX  66
N31B  6    0.153121    0.809422   -0.092424    11.00000    0.18519    0.12908 =
         0.14537    0.04169    0.02582    0.09962
C32B  1    0.162198    0.822586   -0.111199    11.00000    0.18987    0.13334 =
         0.14694    0.04435    0.02453    0.09885
AFIX  43
H32B  2    0.180229    0.822000   -0.117607    11.00000   -1.20000
AFIX  65
C33B  1    0.144326    0.836624   -0.120397    11.00000    0.19168    0.13625 =
         0.14912    0.04633    0.02277    0.09933
AFIX  43
H33B  2    0.150399    0.845431   -0.132959    11.00000   -1.20000
AFIX  65
C34B  1    0.117376    0.837500   -0.110820    11.00000    0.19158    0.13674 =
         0.15009    0.04781    0.02084    0.10139
C35B  1    0.108299    0.824336   -0.092044    11.00000    0.18649    0.13003 =
         0.14761    0.04471    0.02188    0.10200
AFIX  43
H35B  2    0.090268    0.824922   -0.085637    11.00000   -1.20000
AFIX  65
C36B  1    0.126171    0.810298   -0.082846    11.00000    0.18120    0.12449 =
         0.14442    0.04121    0.02260    0.09918
AFIX   0
C37B  1    0.095945    0.851231   -0.121391    11.00000    0.19402    0.14400 =
         0.15516    0.05143    0.01702    0.10256
AFIX  23
H37C  2    0.108442    0.876252   -0.120657    11.00000   -1.20000
H37D  2    0.094048    0.844929   -0.135048    11.00000   -1.20000
AFIX   0
O38B  7    0.065440    0.840015   -0.114550    11.00000    0.19142    0.16646 =
         0.17387    0.05294    0.01283    0.10435
AFIX  83
H38B  2    0.055726    0.848382   -0.120758    11.00000   -1.50000
AFIX  56
N41B  6    0.117109    0.759125   -0.040115    11.00000    0.15520    0.10659 =
         0.13553    0.02953    0.01861    0.09205
N42B  6    0.132917    0.774730   -0.058101    11.00000    0.16310    0.10961 =
         0.13770    0.03180    0.02066    0.09342
C43B  1    0.118387    0.794906   -0.064536    11.00000    0.16899    0.11459 =
         0.14033    0.03485    0.02147    0.09770
C44B  1    0.093599    0.791770   -0.050527    11.00000    0.16528    0.11180 =
         0.13936    0.03268    0.01958    0.09700
AFIX  43
H44B  2    0.080229    0.802343   -0.051132    11.00000   -1.20000
AFIX  55
C45B  1    0.092809    0.769656   -0.035434    11.00000    0.16011    0.10789 =
         0.13764    0.02998    0.01978    0.09560
AFIX  43
H45B  2    0.078830    0.763202   -0.024418    11.00000   -1.20000
AFIX   0
C46B  1    0.119432    0.730612   -0.034007    11.00000    0.14537    0.10146 =
         0.13248    0.02752    0.01604    0.08491
AFIX  23
H46C  2    0.113856    0.727329   -0.020229    11.00000   -1.20000
H46D  2    0.143393    0.736548   -0.035248    11.00000   -1.20000
AFIX 116
C51B  1    0.119442    0.660834   -0.030540    11.00000    0.12433    0.09549 =
         0.13089    0.02455    0.01328    0.06922
C52B  1    0.119207    0.629675   -0.029391    11.00000    0.12642    0.09550 =
         0.13111    0.02414    0.01265    0.06910
AFIX  43
H52B  2    0.134332    0.627464   -0.021006    11.00000   -1.20000
AFIX 115
C53B  1    0.096366    0.601820   -0.040775    11.00000    0.12828    0.09665 =
         0.13082    0.02318    0.01201    0.06915
AFIX  43
H53B  2    0.096209    0.580972   -0.040007    11.00000   -1.20000
AFIX 115
C54B  1    0.073759    0.605123   -0.053308    11.00000    0.12875    0.09902 =
         0.12979    0.02289    0.01272    0.06985
C55B  1    0.073993    0.636283   -0.054457    11.00000    0.13107    0.09989 =
         0.12936    0.02482    0.01309    0.06989
C56B  1    0.096835    0.664138   -0.043073    11.00000    0.12990    0.09843 =
         0.12949    0.02538    0.01347    0.07234
C57B  1    0.097070    0.695298   -0.044220    11.00000    0.13789    0.10138 =
         0.13178    0.02734    0.01360    0.07649
C58B  1    0.074464    0.698602   -0.056753    11.00000    0.13901    0.10206 =
         0.13291    0.02804    0.01196    0.07422
AFIX  43
H58B  2    0.074621    0.719450   -0.057521    11.00000   -1.20000
AFIX 115
C59B  1    0.051622    0.670748   -0.068137    11.00000    0.13771    0.10373 =
         0.13290    0.02773    0.01064    0.07227
AFIX  43
H59B  2    0.036497    0.672959   -0.076523    11.00000   -1.20000
AFIX 115
C60B  1    0.051387    0.639588   -0.066989    11.00000    0.13443    0.10271 =
         0.13096    0.02570    0.01198    0.07066
AFIX  43
H60B  2    0.036104    0.620952   -0.074607    11.00000   -1.20000
AFIX  66
N11C  6    0.319612    0.903130    0.061795    11.00000    0.12254    0.11127 =
         0.14192   -0.00031    0.01311    0.04643
C12C  1    0.344328    0.914973    0.076483    11.00000    0.12565    0.11601 =
         0.14399   -0.00006    0.01100    0.04322
AFIX  43
H12C  2    0.360640    0.907869    0.076863    11.00000   -1.20000
AFIX  65
C13C  1    0.344664    0.937433    0.090602    11.00000    0.12986    0.12019 =
         0.14436   -0.00300    0.01111    0.04054
AFIX  43
H13C  2    0.361201    0.945357    0.100429    11.00000   -1.20000
AFIX  65
C14C  1    0.320284    0.948050    0.090034    11.00000    0.13230    0.12283 =
         0.14601   -0.00629    0.01320    0.04194
C15C  1    0.295567    0.936208    0.075346    11.00000    0.12712    0.11511 =
         0.14293   -0.00498    0.01591    0.04489
AFIX  43
H15C  2    0.279255    0.943311    0.074965    11.00000   -1.20000
AFIX  65
C16C  1    0.295231    0.913748    0.061226    11.00000    0.12139    0.11039 =
         0.14072   -0.00129    0.01703    0.04621
AFIX   0
C17C  1    0.322463    0.975414    0.105260    11.00000    0.13968    0.13106 =
         0.15110   -0.01270    0.01437    0.04193
AFIX  23
H17E  2    0.321991    0.967403    0.118454    11.00000   -1.20000
H17F  2    0.343595    0.997311    0.103477    11.00000   -1.20000
AFIX   0
O18C  7    0.296443    0.978670    0.102120    11.00000    0.14945    0.15548 =
         0.16933   -0.02571    0.00973    0.05571
AFIX  83
H18E  2    0.299606    0.990144    0.092216    11.00000   -1.50000
AFIX  56
N21C  6    0.251852    0.871609    0.016661    11.00000    0.11019    0.09674 =
         0.13187    0.00517    0.02714    0.04974
N22C  6    0.276890    0.880290    0.031574    11.00000    0.11133    0.09993 =
         0.13328    0.00541    0.02506    0.04872
C23C  1    0.273118    0.902260    0.045069    11.00000    0.11423    0.10317 =
         0.13627    0.00172    0.02319    0.04898
C24C  1    0.245748    0.907159    0.038497    11.00000    0.11297    0.10047 =
         0.13533    0.00184    0.02590    0.04976
AFIX  43
H24C  2    0.237823    0.920441    0.044617    11.00000   -1.20000
AFIX  55
C25C  1    0.232605    0.888215    0.020939    11.00000    0.11090    0.09819 =
         0.13414    0.00388    0.02617    0.05055
AFIX  43
H25C  2    0.214560    0.886913    0.013541    11.00000   -1.20000
AFIX   0
C26C  1    0.252871    0.856928   -0.001295    11.00000    0.11250    0.09298 =
         0.13019    0.00795    0.02961    0.04863
AFIX  23
H26E  2    0.230164    0.846722   -0.007222    11.00000   -1.20000
H26F  2    0.257707    0.838405    0.001208    11.00000   -1.20000
AFIX  66
N31C  6    0.156635    0.737868   -0.086388    11.00000    0.11772    0.10418 =
         0.11351    0.01717    0.03225    0.06033
C32C  1    0.129397    0.723049   -0.099561    11.00000    0.11893    0.10726 =
         0.11462    0.01628    0.03085    0.06057
AFIX  43
H32C  2    0.120866    0.736315   -0.105044    11.00000   -1.20000
AFIX  65
C33C  1    0.114910    0.688402   -0.104541    11.00000    0.11873    0.10844 =
         0.11486    0.01416    0.03108    0.06138
AFIX  43
H33C  2    0.096686    0.678488   -0.113354    11.00000   -1.20000
AFIX  65
C34C  1    0.127661    0.668575   -0.096346    11.00000    0.11781    0.10777 =
         0.11437    0.01283    0.03247    0.06187
C35C  1    0.154899    0.683393   -0.083173    11.00000    0.11629    0.10251 =
         0.11280    0.01379    0.03353    0.06124
AFIX  43
H35C  2    0.163430    0.670127   -0.077691    11.00000   -1.20000
AFIX  65
C36C  1    0.169386    0.718040   -0.078194    11.00000    0.11618    0.09944 =
         0.11266    0.01667    0.03431    0.05957
AFIX   0
C37C  1    0.110822    0.630205   -0.100796    11.00000    0.11945    0.11150 =
         0.11706    0.00923    0.03255    0.05942
AFIX  23
H37E  2    0.128518    0.623825   -0.102103    11.00000   -1.20000
H37F  2    0.095824    0.617058   -0.090087    11.00000   -1.20000
AFIX   0
O38C  7    0.090976    0.621904   -0.118533    11.00000    0.12877    0.12955 =
         0.12825    0.00145    0.02190    0.05598
AFIX  83
H38C  2    0.082990    0.601367   -0.121047    11.00000   -1.50000
AFIX  56
N41C  6    0.228927    0.776282   -0.042572    11.00000    0.11439    0.08493 =
         0.11544    0.01798    0.03923    0.05690
N42C  6    0.202598    0.766702   -0.056788    11.00000    0.11502    0.08786 =
         0.11268    0.01828    0.03953    0.05842
C43C  1    0.194367    0.733871   -0.064317    11.00000    0.11466    0.09069 =
         0.11158    0.01783    0.03741    0.05964
C44C  1    0.215608    0.723160   -0.054753    11.00000    0.11358    0.08794 =
         0.11253    0.01776    0.03880    0.05938
AFIX  43
H44C  2    0.215542    0.702590   -0.056913    11.00000   -1.20000
AFIX  55
C45C  1    0.236967    0.749371   -0.041314    11.00000    0.11354    0.08653 =
         0.11395    0.01884    0.03827    0.05779
AFIX  43
H45C  2    0.253346    0.748981   -0.033126    11.00000   -1.20000
AFIX   0
C46C  1    0.242459    0.806015   -0.031599    11.00000    0.11809    0.08506 =
         0.12162    0.01468    0.03893    0.05187
AFIX  23
H46E  2    0.248328    0.800820   -0.018918    11.00000   -1.20000
H46F  2    0.224191    0.811396   -0.029560    11.00000   -1.20000
AFIX 116
C51C  1    0.279737    0.882175   -0.016099    11.00000    0.11676    0.09076 =
         0.13090    0.01124    0.03038    0.04575
C52C  1    0.295768    0.916351   -0.009931    11.00000    0.11859    0.09065 =
         0.13139    0.01289    0.03052    0.04397
AFIX  43
H52C  2    0.288444    0.922110    0.001424    11.00000   -1.20000
AFIX 115
C53C  1    0.322746    0.941919   -0.020734    11.00000    0.12111    0.09026 =
         0.13195    0.01412    0.03129    0.04255
C54C  1    0.333693    0.933311   -0.037705    11.00000    0.12480    0.09184 =
         0.13226    0.01343    0.03362    0.03787
AFIX  43
H54C  2    0.351744    0.950418   -0.044933    11.00000   -1.20000
AFIX 115
C55C  1    0.317662    0.899135   -0.043873    11.00000    0.12569    0.09282 =
         0.13279    0.01179    0.03625    0.03761
C56C  1    0.290684    0.873567   -0.033070    11.00000    0.12146    0.09054 =
         0.13054    0.01201    0.03454    0.04149
C57C  1    0.274651    0.839390   -0.039237    11.00000    0.12212    0.08983 =
         0.12867    0.01332    0.03706    0.04367
C58C  1    0.285598    0.830781   -0.056208    11.00000    0.12724    0.09438 =
         0.13213    0.00982    0.04014    0.03736
AFIX  43
H58C  2    0.274871    0.807915   -0.060334    11.00000   -1.20000
AFIX 115
C59C  1    0.312576    0.856349   -0.067011    11.00000    0.13001    0.09747 =
         0.13526    0.00849    0.04099    0.03380
AFIX  43
H59C  2    0.319900    0.850589   -0.078365    11.00000   -1.20000
AFIX 115
C60C  1    0.328608    0.890525   -0.060844    11.00000    0.12888    0.09623 =
         0.13528    0.00972    0.03950    0.03473
AFIX  43
H60C  2    0.346658    0.907631   -0.068072    11.00000   -1.20000
AFIX  66
N11D  6    0.204140    0.839844   -0.062060    11.00000    0.20678    0.13216 =
         0.16807    0.04214    0.03821    0.10712
C12D  1    0.194439    0.849548   -0.045018    11.00000    0.20662    0.13125 =
         0.16973    0.04154    0.03575    0.11002
AFIX  43
H12D  2    0.177178    0.832884   -0.037179    11.00000   -1.20000
AFIX  65
C13D  1    0.210537    0.884159   -0.039691    11.00000    0.20729    0.13216 =
         0.17203    0.04087    0.03253    0.10975
AFIX  43
H13D  2    0.204047    0.890651   -0.028288    11.00000   -1.20000
AFIX  65
C14D  1    0.236336    0.909066   -0.051406    11.00000    0.20752    0.13315 =
         0.17390    0.04096    0.03150    0.10819
C15D  1    0.246037    0.899362   -0.068449    11.00000    0.20828    0.13362 =
         0.17196    0.04251    0.03443    0.10588
AFIX  43
H15D  2    0.263298    0.916027   -0.076287    11.00000   -1.20000
AFIX  65
C16D  1    0.229939    0.864752   -0.073776    11.00000    0.20786    0.13384 =
         0.16822    0.04178    0.03945    0.10592
AFIX   0
C17D  1    0.253512    0.948577   -0.045788    11.00000    0.20916    0.13424 =
         0.17812    0.04015    0.02669    0.10673
AFIX  23
H17G  2    0.248802    0.961541   -0.055440    11.00000   -1.20000
H17H  2    0.278264    0.959086   -0.043966    11.00000   -1.20000
AFIX   0
O18D  7    0.232541    0.945073   -0.024210    11.00000    0.25755    0.25817 =
         0.20971   -0.02564    0.03716    0.13851
AFIX  83
H18F  2    0.239752    0.964344   -0.019511    11.00000   -1.50000
AFIX  56
N21D  6    0.236177    0.810986   -0.110651    11.00000    0.20642    0.13825 =
         0.15743    0.04450    0.04611    0.10193
N22D  6    0.221834    0.816228   -0.093408    11.00000    0.20774    0.13626 =
         0.15987    0.04333    0.04566    0.10433
C23D  1    0.238300    0.852325   -0.089888    11.00000    0.20917    0.13653 =
         0.16389    0.04331    0.04299    0.10222
C24D  1    0.262820    0.869392   -0.104956    11.00000    0.21054    0.13727 =
         0.16315    0.04462    0.04389    0.09968
AFIX  43
H24D  2    0.277211    0.893134   -0.106201    11.00000   -1.20000
AFIX  55
C25D  1    0.261507    0.843843   -0.117788    11.00000    0.20947    0.13876 =
         0.16010    0.04504    0.04519    0.09880
AFIX  43
H25D  2    0.274888    0.847914   -0.128913    11.00000   -1.20000
AFIX   0
C26D  1    0.226795    0.776929   -0.117569    11.00000    0.20063    0.14079 =
         0.15129    0.04284    0.04670    0.10343
AFIX  23
H26G  2    0.202997    0.761729   -0.113708    11.00000   -1.20000
H26H  2    0.226964    0.777951   -0.131691    11.00000   -1.20000
AFIX  66
N31D  6    0.206223    0.655262   -0.200987    11.00000    0.18598    0.16318 =
         0.14287    0.03454    0.01538    0.10723
C32D  1    0.218707    0.645410   -0.216822    11.00000    0.18718    0.16501 =
         0.14279    0.03321    0.01462    0.10581
AFIX  43
H32D  2    0.241601    0.659016   -0.220676    11.00000   -1.20000
AFIX  65
C33D  1    0.196972    0.615223   -0.226898    11.00000    0.18983    0.16797 =
         0.14445    0.03149    0.01372    0.10273
AFIX  43
H33D  2    0.205325    0.608631   -0.237493    11.00000   -1.20000
AFIX  65
C34D  1    0.162753    0.594888   -0.221139    11.00000    0.19181    0.17120 =
         0.14695    0.02998    0.01402    0.09940
C35D  1    0.150269    0.604740   -0.205303    11.00000    0.18952    0.16832 =
         0.14668    0.03323    0.01419    0.10214
AFIX  43
H35D  2    0.127375    0.591134   -0.201449    11.00000   -1.20000
AFIX  65
C36D  1    0.172003    0.634927   -0.195227    11.00000    0.18717    0.16353 =
         0.14425    0.03486    0.01767    0.10608
AFIX   0
C37D  1    0.139017    0.560798   -0.232611    11.00000    0.19746    0.17793 =
         0.15195    0.02703    0.01462    0.09176
AFIX  23
H37G  2    0.135512    0.565807   -0.245896    11.00000   -1.20000
H37H  2    0.149002    0.545894   -0.232865    11.00000   -1.20000
AFIX   0
O38D  7    0.111647    0.547263   -0.223462    11.00000    0.21041    0.20261 =
         0.16313    0.01769    0.02490    0.07329
AFIX  83
H38D  2    0.097749    0.529163   -0.228804    11.00000   -1.50000
AFIX  56
N41D  6    0.174001    0.686170   -0.154611    11.00000    0.18723    0.15627 =
         0.14371    0.04154    0.02970    0.10657
N42D  6    0.190562    0.678650   -0.169940    11.00000    0.18593    0.15790 =
         0.14220    0.03943    0.02546    0.10820
C43D  1    0.164892    0.649729   -0.180362    11.00000    0.18685    0.16084 =
         0.14322    0.03952    0.02175    0.10662
C44D  1    0.132467    0.639374   -0.171475    11.00000    0.18698    0.15979 =
         0.14379    0.04141    0.02304    0.10694
AFIX  43
H44D  2    0.111266    0.621058   -0.175391    11.00000   -1.20000
AFIX  55
C45D  1    0.138097    0.661896   -0.155560    11.00000    0.18737    0.15867 =
         0.14390    0.04264    0.02633    0.10647
AFIX  43
H45D  2    0.121230    0.660920   -0.147223    11.00000   -1.20000
AFIX   0
C46D  1    0.190361    0.710212   -0.141444    11.00000    0.18789    0.15215 =
         0.14333    0.04135    0.03698    0.10663
AFIX  23
H46G  2    0.174420    0.717281   -0.136656    11.00000   -1.20000
H46H  2    0.208932    0.730027   -0.147999    11.00000   -1.20000
AFIX 116
C51D  1    0.245671    0.759921   -0.112207    11.00000    0.19523    0.14376 =
         0.14498    0.04118    0.04744    0.10355
C52D  1    0.273315    0.782831   -0.100718    11.00000    0.19484    0.14362 =
         0.14330    0.03976    0.04909    0.10282
AFIX  43
H52D  2    0.280951    0.806357   -0.101236    11.00000   -1.20000
AFIX 115
C53D  1    0.289544    0.770578   -0.088454    11.00000    0.19223    0.14567 =
         0.14137    0.03746    0.04906    0.10310
AFIX  43
H53D  2    0.308039    0.785906   -0.080766    11.00000   -1.20000
AFIX 115
C54D  1    0.278130    0.735415   -0.087679    11.00000    0.18864    0.14619 =
         0.13982    0.03583    0.04787    0.10652
AFIX  43
H54D  2    0.288989    0.727217   -0.079474    11.00000   -1.20000
AFIX 115
C55D  1    0.250486    0.712505   -0.099169    11.00000    0.18701    0.14571 =
         0.13919    0.03734    0.04700    0.10725
C56D  1    0.234257    0.724758   -0.111433    11.00000    0.18922    0.14509 =
         0.14096    0.03936    0.04550    0.10596
C57D  1    0.206613    0.701849   -0.122923    11.00000    0.18743    0.14698 =
         0.14037    0.04037    0.04216    0.10851
C58D  1    0.195198    0.666686   -0.122148    11.00000    0.18581    0.14630 =
         0.13931    0.03971    0.04424    0.10895
AFIX  43
H58D  2    0.176703    0.651358   -0.129836    11.00000   -1.20000
AFIX 115
C59D  1    0.211427    0.654433   -0.109885    11.00000    0.18511    0.14509 =
         0.13837    0.03902    0.04531    0.10937
AFIX  43
H59D  2    0.203790    0.630907   -0.109367    11.00000   -1.20000
AFIX 115
C60D  1    0.239071    0.677342   -0.098395    11.00000    0.18553    0.14567 =
         0.13866    0.03821    0.04617    0.10814
AFIX  43
H60D  2    0.249929    0.669143   -0.090190    11.00000   -1.20000
AFIX  66
N11E  6    0.069154    0.644434    0.012188    11.00000    0.08274    0.08896 =
         0.15045    0.01878    0.01310    0.04824
C12E  1    0.066399    0.673906    0.010189    11.00000    0.08144    0.08877 =
         0.14933    0.01627    0.01466    0.04840
AFIX  43
H12E  2    0.080499    0.693502    0.017509    11.00000   -1.20000
AFIX  65
C13E  1    0.042569    0.674089   -0.002751    11.00000    0.08175    0.08820 =
         0.15002    0.01461    0.01433    0.05042
AFIX  43
H13E  2    0.040726    0.693807   -0.004088    11.00000   -1.20000
AFIX  65
C14E  1    0.021494    0.644801   -0.013692    11.00000    0.08524    0.09015 =
         0.15277    0.01378    0.01147    0.05098
C15E  1    0.024249    0.615329   -0.011693    11.00000    0.08520    0.08918 =
         0.15354    0.01588    0.01143    0.04941
AFIX  43
H15E  2    0.010148    0.595734   -0.019014    11.00000   -1.20000
AFIX  65
C16E  1    0.048078    0.615146    0.001246    11.00000    0.08512    0.08728 =
         0.15561    0.01874    0.01107    0.04907
AFIX   0
C17E  1   -0.005180    0.644825   -0.027542    11.00000    0.09018    0.09381 =
         0.15612    0.01279    0.00705    0.05237
AFIX  23
H17I  2   -0.001691    0.637807   -0.040323    11.00000   -1.20000
H17J  2   -0.027933    0.627420   -0.023114    11.00000   -1.20000
AFIX   0
O18E  7   -0.005050    0.677138   -0.029654    11.00000    0.11306    0.09855 =
         0.17382    0.01400   -0.01052    0.05805
AFIX  83
H18G  2   -0.006190    0.684382   -0.018862    11.00000   -1.50000
AFIX  56
N21E  6    0.076191    0.557608    0.017017    11.00000    0.09930    0.08674 =
         0.17596    0.02425   -0.00217    0.04677
N22E  6    0.078497    0.590430    0.016085    11.00000    0.09446    0.08780 =
         0.16987    0.02355    0.00179    0.04790
C23E  1    0.051961    0.587585    0.003518    11.00000    0.09078    0.08672 =
         0.16449    0.02145    0.00504    0.04836
C24E  1    0.033254    0.553005   -0.003318    11.00000    0.09390    0.08725 =
         0.16844    0.02057    0.00339    0.04689
AFIX  43
H24E  2    0.014489    0.544062   -0.011774    11.00000   -1.20000
AFIX  55
C25E  1    0.048229    0.534479    0.005025    11.00000    0.09765    0.08712 =
         0.17258    0.02282    0.00074    0.04627
AFIX  43
H25E  2    0.040994    0.511271    0.002992    11.00000   -1.20000
AFIX   0
C26E  1    0.102212    0.552290    0.025337    11.00000    0.10363    0.08791 =
         0.18552    0.02426   -0.00628    0.04856
AFIX  23
H26I  2    0.091230    0.528511    0.029749    11.00000   -1.20000
H26J  2    0.110845    0.566781    0.036833    11.00000   -1.20000
AFIX  56
N41E  6    0.150051    0.516283    0.065839    11.00000    0.11642    0.09687 =
         0.19561    0.01943   -0.01619    0.05374
N42E  6    0.158621    0.490112    0.062500    11.00000    0.11609    0.09669 =
         0.19562    0.02041   -0.01812    0.05382
C43E  1    0.171183    0.484222    0.080252    11.00000    0.11783    0.09789 =
         0.19577    0.02084   -0.01843    0.05370
C44E  1    0.170376    0.506752    0.094562    11.00000    0.11988    0.09984 =
         0.19578    0.02031   -0.01734    0.05249
AFIX  43
H44E  2    0.177202    0.508265    0.107496    11.00000   -1.20000
AFIX  55
C45E  1    0.157315    0.526567    0.085654    11.00000    0.11901    0.09893 =
         0.19591    0.01926   -0.01599    0.05337
AFIX  43
H45E  2    0.154087    0.543336    0.091731    11.00000   -1.20000
AFIX   0
C46E  1    0.140752    0.531126    0.050887    11.00000    0.11379    0.09443 =
         0.19518    0.02036   -0.01265    0.05404
AFIX  23
H46I  2    0.126561    0.539716    0.056479    11.00000   -1.20000
H46J  2    0.126383    0.512979    0.041771    11.00000   -1.20000
AFIX 116
C51E  1    0.134206    0.559195    0.012643    11.00000    0.10566    0.08842 =
         0.19205    0.02356   -0.00613    0.05119
C52E  1    0.131141    0.567348   -0.006528    11.00000    0.10706    0.08753 =
         0.19354    0.02485   -0.00631    0.05234
AFIX  43
H52E  2    0.109507    0.561122   -0.011602    11.00000   -1.20000
AFIX 115
C53E  1    0.160410    0.584808   -0.018113    11.00000    0.10855    0.08742 =
         0.19503    0.02498   -0.00553    0.05352
AFIX  43
H53E  2    0.158359    0.590264   -0.030939    11.00000   -1.20000
AFIX 115
C54E  1    0.192744    0.594115   -0.010528    11.00000    0.10840    0.08808 =
         0.19665    0.02367   -0.00530    0.05434
AFIX  43
H54E  2    0.212327    0.605796   -0.018280    11.00000   -1.20000
AFIX 115
C55E  1    0.195810    0.585961    0.008642    11.00000    0.10777    0.08762 =
         0.19746    0.02232   -0.00653    0.05688
C56E  1    0.166541    0.568501    0.020228    11.00000    0.10748    0.08938 =
         0.19573    0.02219   -0.00783    0.05433
C57E  1    0.169604    0.560347    0.039398    11.00000    0.11036    0.09240 =
         0.19633    0.02044   -0.01017    0.05449
C58E  1    0.201938    0.569654    0.046983    11.00000    0.11001    0.09093 =
         0.19845    0.02084   -0.00834    0.05796
AFIX  43
H58E  2    0.203989    0.564198    0.059809    11.00000   -1.20000
AFIX 115
C59E  1    0.231208    0.587113    0.035398    11.00000    0.10920    0.09057 =
         0.19943    0.02026   -0.00780    0.05818
AFIX  43
H59E  2    0.252842    0.593340    0.040473    11.00000   -1.20000
AFIX 115
C60E  1    0.228144    0.595267    0.016228    11.00000    0.10786    0.08702 =
         0.19906    0.02042   -0.00600    0.05966
AFIX  43
H60E  2    0.247727    0.606949    0.008476    11.00000   -1.20000
AFIX  66
N11F  6    0.263634    0.750503   -0.170235    11.00000    0.12770    0.10359 =
         0.13687    0.00908    0.01826    0.06433
C12F  1    0.265520    0.781712   -0.174751    11.00000    0.13149    0.10385 =
         0.13940    0.00999    0.01937    0.06400
AFIX  43
H12F  2    0.251838    0.782716   -0.184648    11.00000   -1.20000
AFIX  65
C13F  1    0.287856    0.811420   -0.164474    11.00000    0.13347    0.10514 =
         0.14145    0.00943    0.02072    0.06089
AFIX  43
H13F  2    0.289117    0.832301   -0.167495    11.00000   -1.20000
AFIX  65
C14F  1    0.308306    0.809920   -0.149681    11.00000    0.13210    0.10612 =
         0.14216    0.00717    0.02015    0.06002
C15F  1    0.306420    0.778711   -0.145164    11.00000    0.12694    0.10492 =
         0.13839    0.00551    0.01973    0.06035
AFIX  43
H15F  2    0.320102    0.777707   -0.135267    11.00000   -1.20000
AFIX  65
C16F  1    0.284085    0.749003   -0.155441    11.00000    0.12286    0.10313 =
         0.13505    0.00658    0.01813    0.06183
AFIX   0
C17F  1    0.332054    0.842285   -0.137659    11.00000    0.13904    0.11019 =
         0.14821    0.00381    0.02126    0.05488
AFIX  23
H17K  2    0.324630    0.838960   -0.124160    11.00000   -1.20000
H17L  2    0.355651    0.846828   -0.138138    11.00000   -1.20000
AFIX   0
O18F  7    0.330068    0.869393   -0.145583    11.00000    0.16007    0.11201 =
         0.16397    0.01106    0.01118    0.05076
AFIX  83
H18H  2    0.342411    0.887020   -0.139369    11.00000   -1.50000
AFIX  56
N21F  6    0.270228    0.664054   -0.162561    11.00000    0.10754    0.09886 =
         0.12713    0.00495    0.01130    0.05652
N22F  6    0.268376    0.693768   -0.167917    11.00000    0.11136    0.10049 =
         0.12895    0.00676    0.01253    0.05779
C23F  1    0.284723    0.718968   -0.153080    11.00000    0.11447    0.10130 =
         0.12979    0.00485    0.01599    0.05889
C24F  1    0.296678    0.704829   -0.138556    11.00000    0.10942    0.10078 =
         0.12678    0.00261    0.01584    0.05794
AFIX  43
H24F  2    0.308329    0.715859   -0.127199    11.00000   -1.20000
AFIX  55
C25F  1    0.287720    0.670890   -0.144415    11.00000    0.10741    0.10019 =
         0.12557    0.00309    0.01380    0.05660
AFIX  43
H25F  2    0.292474    0.655791   -0.137570    11.00000   -1.20000
AFIX   0
C26F  1    0.258122    0.634405   -0.174831    11.00000    0.10615    0.10000 =
         0.12718    0.00350    0.00649    0.05389
AFIX  23
H26K  2    0.274293    0.625967   -0.173997    11.00000   -1.20000
H26L  2    0.258247    0.641519   -0.188200    11.00000   -1.20000
AFIX   0
C46F  1    0.255341    0.584215   -0.202752    11.00000    0.11027    0.10651 =
         0.12925   -0.00508   -0.00086    0.04012
AFIX  23
H46K  2    0.260758    0.606526   -0.207986    11.00000   -1.20000
H46L  2    0.269870    0.588502   -0.191400    11.00000   -1.20000
AFIX 116
C51F  1    0.220845    0.603612   -0.169989    11.00000    0.10660    0.10458 =
         0.12837    0.00323    0.00177    0.04865
C52F  1    0.205169    0.611588   -0.154958    11.00000    0.10607    0.10586 =
         0.12953    0.00286    0.00204    0.04794
AFIX  43
H52F  2    0.217918    0.631616   -0.147690    11.00000   -1.20000
AFIX 115
C53F  1    0.170437    0.589630   -0.150789    11.00000    0.10617    0.10802 =
         0.13124    0.00326    0.00032    0.04756
AFIX  43
H53F  2    0.159948    0.594966   -0.140732    11.00000   -1.20000
AFIX 115
C54F  1    0.151382    0.559696   -0.161652    11.00000    0.10698    0.10970 =
         0.13219    0.00258   -0.00193    0.04515
AFIX  43
H54F  2    0.128144    0.545005   -0.158863    11.00000   -1.20000
AFIX 115
C55F  1    0.167058    0.551720   -0.176683    11.00000    0.10786    0.10907 =
         0.13115    0.00139   -0.00233    0.04281
C56F  1    0.201790    0.573678   -0.180852    11.00000    0.10769    0.10717 =
         0.12977    0.00144   -0.00178    0.04458
C57F  1    0.217467    0.565703   -0.195883    11.00000    0.10917    0.10796 =
         0.12946   -0.00214   -0.00271    0.04071
C58F  1    0.198413    0.535770   -0.206746    11.00000    0.10975    0.10955 =
         0.13055   -0.00225   -0.00338    0.03855
AFIX  43
H58F  2    0.208902    0.530434   -0.216803    11.00000   -1.20000
AFIX 115
C59F  1    0.163681    0.513811   -0.202578    11.00000    0.11068    0.11069 =
         0.13138   -0.00204   -0.00431    0.03624
AFIX  43
H59F  2    0.150932    0.493784   -0.209846    11.00000   -1.20000
AFIX 115
C60F  1    0.148004    0.521786   -0.187547    11.00000    0.10859    0.10992 =
         0.13226    0.00059   -0.00341    0.03885
AFIX  43
H60F  2    0.124766    0.507095   -0.184758    11.00000   -1.20000
AFIX  66
N11G  6    0.208570    0.721847   -0.206726    11.00000    0.17020    0.22610 =
         0.14964    0.06460    0.03020    0.14954
C12G  1    0.179721    0.724704   -0.202411    11.00000    0.17020    0.23031 =
         0.15205    0.06448    0.03076    0.14913
AFIX  43
H12G  2    0.172125    0.722573   -0.189599    11.00000   -1.20000
AFIX  65
C13G  1    0.162224    0.730745   -0.217244    11.00000    0.17132    0.23280 =
         0.15356    0.06573    0.02896    0.14803
AFIX  43
H13G  2    0.142922    0.732657   -0.214357    11.00000   -1.20000
AFIX  65
C14G  1    0.173576    0.733930   -0.236392    11.00000    0.17250    0.23335 =
         0.15334    0.06635    0.02756    0.14803
C15G  1    0.202426    0.731073   -0.240707    11.00000    0.17247    0.22876 =
         0.15090    0.06604    0.02717    0.14779
AFIX  43
H15G  2    0.210021    0.733204   -0.253519    11.00000   -1.20000
AFIX  65
C16G  1    0.219923    0.725032   -0.225874    11.00000    0.17130    0.22313 =
         0.14815    0.06492    0.02965    0.14923
AFIX   0
C17G  1    0.154571    0.741673   -0.252637    11.00000    0.17569    0.23767 =
         0.15454    0.06764    0.02454    0.14634
AFIX  23
H17M  2    0.130099    0.724848   -0.252132    11.00000   -1.20000
H17N  2    0.157335    0.764391   -0.250593    11.00000   -1.20000
AFIX   0
O18G  7    0.167217    0.740496   -0.270262    11.00000    0.19332    0.25127 =
         0.15628    0.05922    0.02650    0.13914
AFIX  83
H18I  2    0.157657    0.745736   -0.278692    11.00000   -1.50000
AFIX  56
N22G  6    0.303249    0.735562   -0.216520    11.00000    0.17349    0.20960 =
         0.14249    0.06538    0.02934    0.15032
N21G  6    0.270179    0.729102   -0.210435    11.00000    0.17329    0.21112 =
         0.14313    0.06460    0.03006    0.15098
C23G  1    0.251315    0.728165   -0.227297    11.00000    0.17285    0.21484 =
         0.14432    0.06491    0.02941    0.15041
C24G  1    0.272725    0.734047   -0.243802    11.00000    0.17265    0.21269 =
         0.14315    0.06432    0.02905    0.14998
AFIX  43
H24G  2    0.266772    0.734776   -0.256707    11.00000   -1.20000
AFIX  55
C25G  1    0.304823    0.738618   -0.237141    11.00000    0.17305    0.21027 =
         0.14215    0.06466    0.02938    0.15020
AFIX  43
H25G  2    0.323581    0.742867   -0.244919    11.00000   -1.20000
AFIX  66
N11H  6    0.267260    0.830082    0.065393    11.00000    0.13636    0.13356 =
         0.14988    0.00350    0.02559    0.06561
C12H  1    0.233490    0.823738    0.065011    11.00000    0.13646    0.13397 =
         0.15066    0.00292    0.02631    0.06616
AFIX  43
H12H  2    0.225202    0.829421    0.054019    11.00000   -1.20000
AFIX  65
C13H  1    0.212108    0.808899    0.081057    11.00000    0.13734    0.13585 =
         0.15148    0.00223    0.02741    0.06519
AFIX  43
H13H  2    0.189514    0.804654    0.080801    11.00000   -1.20000
AFIX  65
C14H  1    0.224496    0.800405    0.097486    11.00000    0.14057    0.13923 =
         0.15226    0.00461    0.02637    0.06293
C15H  1    0.258266    0.806749    0.097868    11.00000    0.14034    0.13680 =
         0.15130    0.00424    0.02503    0.06313
AFIX  43
H15H  2    0.266554    0.801066    0.108860    11.00000   -1.20000
AFIX  65
C16H  1    0.279648    0.821588    0.081822    11.00000    0.13791    0.13532 =
         0.15060    0.00371    0.02432    0.06473
AFIX   0
C17H  1    0.203600    0.788023    0.115596    11.00000    0.14447    0.14643 =
         0.15455    0.00702    0.02809    0.05856
AFIX  23
H17O  2    0.213560    0.806342    0.125225    11.00000   -1.20000
H17P  2    0.205291    0.768669    0.120668    11.00000   -1.20000
AFIX   0
O18H  7    0.166475    0.777079    0.113244    11.00000    0.14601    0.17191 =
         0.16733    0.01504    0.02766    0.05612
AFIX  83
H18J  2    0.156261    0.768781    0.123503    11.00000   -1.50000
AFIX   0

B1    3    0.333333    0.666667   -0.208681    10.33333    0.11410    0.11410 =
         0.12914    0.00000    0.00000    0.05705
F1    5    0.333333    0.666667   -0.188007    10.33333    0.11775    0.11775 =
         0.12897    0.00000    0.00000    0.05888
F2    5    0.304316    0.668278   -0.215468    11.00000    0.11251    0.11103 =
         0.13051    0.00576    0.00271    0.05589
B2    3    0.174824    0.775975    0.007275    11.00000    0.10419    0.10019 =
         0.14197    0.01593    0.01714    0.04813
F5    5    0.142023    0.749518    0.012203    11.00000    0.10479    0.10543 =
         0.13863    0.01732    0.02099    0.04571
F6    5    0.190366    0.797141    0.023194    11.00000    0.10287    0.09756 =
         0.14690    0.01329    0.01257    0.05094
F7    5    0.194259    0.761175    0.000837    11.00000    0.10465    0.09976 =
         0.14525    0.01497    0.01901    0.04737
F8    5    0.171623    0.795252   -0.007666    11.00000    0.10821    0.10197 =
         0.14110    0.01542    0.01358    0.04933
O36   7    0.274349    0.982565    0.000054    10.50000    0.17987
HKLF 4

REM  Ros1
REM R1 =  0.1991 for   14043 Fo > 4sig(Fo)  and  0.2453 for all   23528 data
REM   1767 parameters refined using   2282 restraints

END

WGHT      0.2000      0.0000

REM Highest difference peak  1.284,  deepest hole -0.694,  1-sigma level  0.124
Q1    1   0.0676  0.6610  0.0128  11.00000  0.05    0.81
Q2    1   0.2179  0.7640 -0.0494  11.00000  0.05    0.71
Q3    1   0.0320  0.5956  0.0567  11.00000  0.05    0.60
Q4    1   0.0730  0.5762  0.0152  11.00000  0.05    0.57
Q5    1   0.0493  0.6694  0.0019  11.00000  0.05    0.57
Q6    1   0.0235  0.6474  0.0752  11.00000  0.05    0.56
Q7    1   0.3947  0.8976 -0.0431  11.00000  0.05    0.56
Q8    1   0.2385  0.8284 -0.0955  11.00000  0.05    0.55
Q9    1   0.2778  0.9645 -0.0589  11.00000  0.05    0.55
Q10   1   0.1990  0.8491 -0.0555  11.00000  0.05    0.54
;
_shelx_res_checksum              90141
_shelx_hkl_file                  
;
   0   0  1284709.21  680.49
   0   0  1522981.18   60.24
   0   0  2114503.74  503.37
   0   0  24   39.55  119.35
   0   0  2720395.46  310.69
   0   0  30 2050.22  164.58
   0   0  33 3637.84  138.87
   0   0  36 1883.44  196.62
   0   0  39 2596.58  331.46
   0   0  42  535.19  227.04
   0   0  45  835.09  184.03
   0   0  63    2.76   82.28
   0   0  66  168.19  146.56
   0   0  69 1277.83  150.87
   0   0  75  148.00   86.55
   0   0  81  102.36  133.69
   0   1 -79   46.53   41.04
   0   1 -76   48.59   59.51
   0   1 -64  190.59   40.83
   0   1 -55  860.37  124.90
   0   1 -43  330.91   76.31
   0   1 -40   16.74   38.71
   0   1 -34 2896.35  144.74
   0   1 -28  114.87   84.94
   0   1 -25  257.55   65.46
   0   1 -22 2371.97  179.78
   0   1 -1910780.87  231.97
   0   1 -16 3645.69  250.99
   0   1 -1335327.35   77.49
   0   1 -1026037.77  340.92
   0   1  11 6543.57  160.71
   0   1  14 5245.12  214.32
   0   1  1751649.20  925.63
   0   1  20 2438.94  192.61
   0   1  23 1987.10  100.24
   0   1  26 4060.64  153.95
   0   1  29 2253.58  178.84
   0   1  32  360.69   46.19
   0   1  35  712.42   42.60
   0   1  38 1031.92   65.46
   0   1  44  158.58   77.16
   0   1  47  313.09  115.30
   0   1  56  177.34   68.36
   0   1  59  488.82   84.79
   0   1  62  565.46   73.67
   0   1  80    0.66   66.55
   0   2 -80   79.72   50.97
   0   2 -77    0.97   63.86
   0   2 -74   83.54   68.00
   0   2 -68    6.19   63.91
   0   2 -65  124.74   46.35
   0   2 -62   80.42   48.00
   0   2 -59   48.85   59.49
   0   2 -56  436.01   77.02
   0   2 -50  550.56   80.70
   0   2 -35 2557.59  136.57
   0   2 -32 2727.63  344.90
   0   2 -29 1385.04  205.38
   0   2 -26  353.04   70.47
   0   2 -23 7717.13  204.95
   0   2 -20 2763.77  195.33
   0   2 -17  504.23  200.66
   0   2 -14   59.49   61.54
   0   2 -1129604.98  687.34
   0   2  -8 1883.06  129.47
   0   2  10 2561.02  157.20
   0   2  13  583.84   28.56
   0   2  16 8672.42 1092.63
   0   2  22 1251.87  127.81
   0   2  25  119.63  107.11
   0   2  28 9702.73  240.26
   0   2  31    2.03   65.37
   0   2  37  208.52  110.34
   0   2  40  273.87   55.91
   0   2  43  333.76   79.30
   0   2  46  494.95   50.58
   0   2  61  115.66   51.05
   0   2  67   42.17   74.02
   0   2  70  223.88   56.34
   0   2  79   24.42   45.66
   0   3 -81    0.74   54.17
   0   3 -75   14.21   56.22
   0   3 -72   42.36   49.14
   0   3 -63  135.06   76.12
   0   3 -51  460.13   50.36
   0   3 -48   66.75   70.30
   0   3 -45  614.48   95.73
   0   3 -39 2332.29  133.52
   0   3 -30 2439.97  226.45
   0   3 -27  590.58   67.37
   0   3 -24  784.42  120.04
   0   3 -18  872.77   57.86
   0   3 -12 1386.08   63.94
   0   3  -9 5096.65   37.91
   0   3  -6  833.90  128.77
   0   3   615052.33  356.61
   0   3   910083.71  112.46
   0   3  12 9290.07  283.31
   0   3  15  126.01   36.56
   0   3  18 1149.01  145.07
   0   3  24 3536.69  171.29
   0   3  27 2166.40   67.86
   0   3  30 8708.12  223.25
   0   3  33  271.39   74.33
   0   3  39    5.71   37.69
   0   3  42   61.68   50.87
   0   3  48  462.83   87.96
   0   3  51  762.40   81.80
   0   3  57  251.05   56.86
   0   3  63  255.80   93.82
   0   3  66   33.00   71.91
   0   3  75   29.30   66.31
   0   3  81    0.29   43.32
   0   4 -67  470.39   66.45
   0   4 -64   67.88   56.17
   0   4 -58  179.71   41.89
   0   4 -52  438.94   78.46
   0   4 -49  955.05   92.36
   0   4 -46  441.61   45.26
   0   4 -43 1443.46  134.12
   0   4 -40  436.49   53.40
   0   4 -37 1005.75   56.36
   0   4 -34 1013.13   63.64
   0   4 -31   23.47   54.49
   0   4 -25 1692.41   89.81
   0   4 -22 9832.31  147.84
   0   4 -19 1258.90  141.04
   0   4 -16 5001.57   49.58
   0   4 -13 2089.19  163.98
   0   4 -1088584.46  716.65
   0   4  -712548.19  228.26
   0   4  -457488.70 1113.17
   0   4   5 5515.52  319.66
   0   4   8  120.31  134.33
   0   4  11 9810.34  196.25
   0   4  14 7012.83  203.25
   0   4  17 7078.49  108.55
   0   4  2014354.73  676.87
   0   4  23   19.46   46.08
   0   4  26  433.52   43.28
   0   4  32 6097.86  410.54
   0   4  35 2796.40  216.67
   0   4  38 2365.08  238.86
   0   4  41 2174.56  155.18
   0   4  44  219.42   63.46
   0   4  47  863.57   89.75
   0   4  56   45.42   58.11
   0   4  62  447.60   76.40
   0   4  65   87.06   62.84
   0   4  71  460.98   63.43
   0   4  74   81.56   48.50
   0   4  77    9.80   72.55
   0   5 -77  166.17   60.88
   0   5 -65  157.59   55.29
   0   5 -62  123.27   47.48
   0   5 -59  444.75   77.41
   0   5 -50  364.83   37.22
   0   5 -47 1597.94  167.82
   0   5 -44  219.53   67.61
   0   5 -41  124.00   52.51
   0   5 -38   96.63   59.65
   0   5 -32 1555.00  135.70
   0   5 -29  445.23  110.02
   0   5 -26 3284.46   80.48
   0   5 -23 1962.42   85.41
   0   5 -2089752.26 1011.64
   0   5 -17  200.42   80.10
   0   5 -1420381.15  227.95
   0   5 -1140911.42  421.87
   0   5  -811570.50   92.81
   0   5  -512485.17   94.72
   0   5  -2 3017.86  380.49
   0   5   110589.42  403.80
   0   5   415823.99  304.08
   0   5   7131645.2 1095.99
   0   5  1050026.53  155.54
   0   5  1363284.74 1305.06
   0   5  1687058.57  736.10
   0   5  19  547.54  236.45
   0   5  2213139.36  212.78
   0   5  25 3048.63  194.26
   0   5  28 1025.92   66.88
   0   5  31  823.46  203.40
   0   5  34 2365.48  158.28
   0   5  40 2576.29  244.68
   0   5  43  148.44   46.93
   0   5  46    5.66   69.06
   0   5  49 1880.99  165.68
   0   5  52 1319.79   99.68
   0   5  61  204.60   57.15
   0   5  70    6.46   52.34
   0   5  73  158.54   73.07
   0   5  79   83.94   45.82
   0   6 -69   30.18   49.80
   0   6 -66  213.02   60.71
   0   6 -60  267.18   57.47
   0   6 -54  252.37   51.95
   0   6 -51    0.27   33.06
   0   6 -48  267.98   39.63
   0   6 -39  326.76   40.92
   0   6 -36  522.99   89.56
   0   6 -33 6360.25  504.84
   0   6 -27  747.25  241.40
   0   6 -18 1555.02  148.07
   0   6 -12 1759.88  122.24
   0   6  -9 7982.52  113.47
   0   6  -637231.28   86.04
   0   6  -3 4970.21  207.19
   0   6   0 1329.20   40.65
   0   6   358850.84  143.30
   0   6   6 4476.75  116.01
   0   6   9 3847.63  106.68
   0   6  1254665.20 1079.42
   0   6  1567360.54 1058.33
   0   6  1829555.54  351.90
   0   6  24    4.69   39.07
   0   6  30   32.53   71.63
   0   6  33 4620.83  189.40
   0   6  36  410.52  154.87
   0   6  39 7371.12  329.97
   0   6  42  317.14   68.71
   0   6  45  326.57   89.94
   0   6  48    3.95   51.93
   0   6  54   95.09   63.06
   0   6  60   20.69   55.34
   0   6  63   91.24   88.10
   0   6  66  105.04   50.89
   0   6  69    2.92   43.93
   0   6  78   34.23   50.54
   0   7 -73   37.89   58.83
   0   7 -55  318.56   45.75
   0   7 -52 1567.62  149.79
   0   7 -49  135.47   51.69
   0   7 -46 1962.92  115.94
   0   7 -43 2451.01  205.54
   0   7 -28  261.87   51.38
   0   7 -25 2471.94   67.76
   0   7 -22  816.24   24.99
   0   7 -19 2449.28   57.76
   0   7 -1618879.70  364.96
   0   7 -1315309.86  434.20
   0   7 -1015214.41  158.70
   0   7  -7 3941.11  101.88
   0   7  -413617.25  139.36
   0   7  -115649.18  211.87
   0   7   247741.60  234.78
   0   7   510933.39  154.73
   0   7   8 5132.46  102.02
   0   7  1138518.91  651.53
   0   7  14 1235.79  811.94
   0   7  1774353.48 1161.85
   0   7  2030699.07  350.21
   0   7  2318176.99  223.19
   0   7  26 2657.44  228.03
   0   7  29 3421.80  150.81
   0   7  32 3232.42  131.23
   0   7  35 2879.92  191.01
   0   7  41  457.45   88.24
   0   7  44  498.11   63.27
   0   7  47  730.61   79.14
   0   7  50  588.14  119.92
   0   7  68   50.49   69.62
   0   7  74   65.92   66.54
   0   7  77   13.21   39.88
   0   7  80  117.91   99.86
   0   8 -80   15.68   57.19
   0   8 -77   95.99   75.20
   0   8 -62   98.27   64.85
   0   8 -59   44.84   31.93
   0   8 -50 1193.37  136.93
   0   8 -47  347.32   64.20
   0   8 -44  615.06   95.46
   0   8 -38  486.04   41.91
   0   8 -35 1080.01  382.52
   0   8 -32 6745.04  721.70
   0   8 -29  806.88  151.42
   0   8 -26  557.98  191.92
   0   8 -20   21.26   31.82
   0   8 -17 6152.28  253.74
   0   8 -14 2783.07  251.17
   0   8 -11  845.00   91.07
   0   8  -8 4093.76   96.53
   0   8  -5   13.21   25.97
   0   8  -221096.05   34.49
   0   8   1 2141.20  122.07
   0   8   437655.21  175.88
   0   8   726134.74  457.78
   0   8  10 9052.54  481.25
   0   8  1349388.45 1144.87
   0   8  1623546.18  699.61
   0   8  1954959.31  335.37
   0   8  22 6116.39  105.99
   0   8  25 6875.30  296.15
   0   8  2810734.27  415.22
   0   8  31 7930.42  352.62
   0   8  37 8699.75  337.95
   0   8  40  955.37  124.32
   0   8  46   97.09  118.57
   0   8  58  437.34   62.67
   0   8  61  220.27   49.61
   0   8  70  212.87   68.16
   0   8  76  193.46   70.65
   0   9 -78  107.27   56.87
   0   9 -75    0.78   68.39
   0   9 -66   11.01   65.37
   0   9 -63    9.78   84.24
   0   9 -57   68.70   55.23
   0   9 -51  321.85   72.66
   0   9 -48  251.96   85.17
   0   9 -45  209.93   81.58
   0   9 -30  527.66   42.54
   0   9 -27  612.84  102.29
   0   9 -24 4534.60   72.71
   0   9 -21 2144.78   32.16
   0   9 -18 6905.55   63.35
   0   9 -1566372.15 1940.94
   0   9 -12 1419.04  103.14
   0   9  -934093.69  571.03
   0   9  -6 3578.97  284.09
   0   9  -3 9851.87  118.36
   0   9   027670.87  197.83
   0   9   350888.36  363.26
   0   9   6 7415.62   66.96
   0   9   914916.98  899.75
   0   9  12745260.0 2955.14
   0   9  2114583.47  268.80
   0   9  2713640.93  404.55
   0   9  30 2976.39  237.66
   0   9  36  403.24   36.47
   0   9  39  165.55   53.06
   0   9  42  202.11   50.53
   0   9  45   65.10   89.31
   0   9  54  158.21   77.00
   0   9  60  183.50   67.18
   0   9  66   88.48   87.90
   0   9  69   11.90   65.73
   0   9  72   96.47   49.85
   0  10 -79  100.00   47.69
   0  10 -70   37.69   52.77
   0  10 -67   47.40   58.01
   0  10 -55   46.43   53.81
   0  10 -49   42.83   73.32
   0  10 -43  190.76   52.46
   0  10 -40 1608.88  183.28
   0  10 -34  594.55  119.03
   0  10 -31 2258.84  179.48
   0  10 -25 4320.33  154.48
   0  10 -22   96.93   63.83
   0  10 -19  280.12   61.57
   0  10 -13 6305.20  280.79
   0  10 -10 8538.85  172.23
   0  10  -727805.98  258.03
   0  10  -4 7289.37  117.09
   0  10  -1 2364.09   62.50
   0  10   2   49.01  161.49
   0  10   554545.39  416.58
   0  10   814221.65  143.92
   0  10  1111592.43  290.41
   0  10  14    1.25  136.30
   0  10  20 5406.06   67.81
   0  10  23 5651.77  248.75
   0  10  29 1611.17   58.97
   0  10  32 3951.74  161.01
   0  10  38   20.96   35.74
   0  10  41  596.54   87.62
   0  10  44  619.25   68.40
   0  10  47  690.04  140.13
   0  10  50   48.84   86.89
   0  10  56  238.81   80.97
   0  10  65   52.10   53.14
   0  10  68   76.81   43.13
   0  10  71   49.13   51.67
   0  10  74   68.44  129.24
   0  10  77   26.61   44.63
   0  11 -74   16.22   54.20
   0  11 -71   38.14   58.77
   0  11 -53  263.61   59.16
   0  11 -47 2644.72  614.47
   0  11 -41  935.30  154.85
   0  11 -38 1396.10  210.63
   0  11 -35 4535.87  235.48
   0  11 -32 1338.10  141.33
   0  11 -29 2553.31  125.13
   0  11 -23 5463.01   86.55
   0  11 -20 9311.96   74.49
   0  11 -17 1971.05   53.14
   0  11 -14  352.71  109.41
   0  11 -11 5966.74  117.10
   0  11  -8 5390.95  164.89
   0  11  -5  559.47  105.61
   0  11  -226727.19  260.52
   0  11   1 4040.63  168.32
   0  11   4 7379.89  133.60
   0  11   7118592.1  654.13
   0  11  10 4027.23  122.99
   0  11  13 3184.62  119.72
   0  11  1617842.09  195.84
   0  11  1946132.53  677.25
   0  11  2233335.62  646.96
   0  11  28   84.75  108.04
   0  11  31  724.85  195.18
   0  11  34  261.44  131.72
   0  11  37  117.20  119.34
   0  11  46  239.53   86.68
   0  11  49  241.73   86.26
   0  11  67    4.49   48.75
   0  11  70   22.90   51.83
   0  11  73   15.14   44.30
   0  11  76  150.18   65.94
   0  12 -78   58.38   51.67
   0  12 -66  106.08   66.44
   0  12 -60  432.53  113.34
   0  12 -57   70.64   77.58
   0  12 -48  264.15  104.77
   0  12 -45  468.65  107.17
   0  12 -42 1064.39  120.09
   0  12 -39 6522.37  562.12
   0  12 -36  178.02   46.25
   0  12 -3013162.71  207.97
   0  12 -27 2216.09  156.45
   0  12 -24 6758.73  216.82
   0  12 -21 2771.73  154.34
   0  12 -15  141.01   41.84
   0  12 -1211453.15  209.75
   0  12  -9 2087.44   44.79
   0  12  -6  370.18   29.42
   0  12  -3 7913.05  192.68
   0  12   0 5276.71  130.46
   0  12   3 3026.39   94.11
   0  12   6 1187.28   64.11
   0  12   9 7609.71  173.78
   0  12  12 7488.23   44.98
   0  12  15 4190.26  112.00
   0  12  1820055.61 1185.09
   0  12  2115001.31  546.36
   0  12  24 3761.24  258.87
   0  12  2714421.73  343.21
   0  12  3012321.04  539.79
   0  12  33  749.91  116.83
   0  12  36  150.06   55.91
   0  12  39  670.29  110.29
   0  12  42  647.78   99.91
   0  12  45 1058.92  143.62
   0  12  51   39.44   50.18
   0  12  57  315.38   92.31
   0  12  60  199.40   53.98
   0  12  75   53.39   63.89
   0  12  78   20.38   53.87
   0  13 -76   61.89   52.24
   0  13 -70  296.89   73.92
   0  13 -64   58.37  101.07
   0  13 -61   53.99   80.36
   0  13 -49  681.17  200.12
   0  13 -46  445.93   89.40
   0  13 -40  842.33  130.77
   0  13 -34 2925.26  183.17
   0  13 -31 2223.72  173.51
   0  13 -28 2427.79  190.70
   0  13 -25 5726.54   79.34
   0  13 -22 3342.67  181.77
   0  13 -19 3431.13  247.48
   0  13 -1616734.40  269.75
   0  13 -10  104.54   59.02
   0  13  -7   80.41   41.53
   0  13  -4  866.42   26.38
   0  13  -1 5294.21  129.91
   0  13   217021.30  200.75
   0  13   821151.52  199.55
   0  13  11  724.79   46.49
   0  13  17  603.62   67.44
   0  13  20  227.14  106.41
   0  13  23 5161.99   92.41
   0  13  26 5116.64  338.73
   0  13  29 9823.57  398.74
   0  13  32  311.41   69.63
   0  13  35 1540.46  213.56
   0  13  38   27.59   70.65
   0  13  50   89.47   57.35
   0  13  56  525.93   96.89
   0  13  77   39.20   32.98
   0  14 -77   99.66   38.94
   0  14 -74   65.19   42.71
   0  14 -71   25.07   70.84
   0  14 -65    7.13   68.97
   0  14 -62   22.36   61.21
   0  14 -56   12.91   88.71
   0  14 -41  273.12   67.23
   0  14 -35  265.27   42.47
   0  14 -32 2559.35  185.59
   0  14 -29    1.30   33.75
   0  14 -26   68.67   65.61
   0  14 -2315193.94  289.37
   0  14 -20  542.27   68.45
   0  14 -17  842.37  263.95
   0  14 -14  976.84   72.25
   0  14 -11  624.93   67.61
   0  14  -8 1017.44  139.18
   0  14  -5 9983.56  153.74
   0  14  -2 8464.79  135.83
   0  14   4 2295.32  127.86
   0  14   7 1200.42   44.84
   0  14  10 2189.57  110.07
   0  14  16 7058.43  414.64
   0  14  19 6108.91  273.52
   0  14  22 6885.84  181.87
   0  14  2519994.29  504.20
   0  14  2817643.32  463.77
   0  14  31    0.41   29.06
   0  14  37   24.42   69.95
   0  14  40  581.11  111.89
   0  14  43  153.14   42.16
   0  14  49  197.95   80.87
   0  14  55   36.02   58.91
   0  14  61   96.83   59.61
   0  14  73  222.25   54.06
   0  14  76   28.00  102.18
   0  15 -75   67.00   39.55
   0  15 -69    0.95   59.80
   0  15 -48  688.41  128.41
   0  15 -45  159.69  106.38
   0  15 -42 1183.62  192.86
   0  15 -39  485.08  111.13
   0  15 -36 1609.59  151.22
   0  15 -33  507.32   90.58
   0  15 -27 3977.74  112.72
   0  15 -21  537.59   63.42
   0  15 -18 1803.23  146.03
   0  15 -15 2357.50  172.72
   0  15 -12 4214.62  139.03
   0  15  -9 1112.75   97.32
   0  15  -3 7739.01  138.66
   0  15   3  515.26   39.29
   0  15   6   43.47   36.23
   0  15   914924.87  329.24
   0  15  1256675.20  542.80
   0  15  15 1115.47  267.11
   0  15  1820225.03  428.68
   0  15  21 3953.75  243.77
   0  15  24  856.59  227.14
   0  15  2712017.44  311.19
   0  15  30 2012.61  127.91
   0  15  33   29.24   68.44
   0  15  42  484.88  197.94
   0  15  45  378.02   67.25
   0  15  48  365.47  106.42
   0  15  54  169.82   95.46
   0  16 -76   44.00   76.89
   0  16 -64  276.04   87.10
   0  16 -58   34.69   73.96
   0  16 -55  125.24   65.09
   0  16 -46  730.16  160.41
   0  16 -43  162.74   71.58
   0  16 -40 3516.69  315.90
   0  16 -37  773.94  122.36
   0  16 -34    0.80   47.83
   0  16 -31 1189.22  137.89
   0  16 -28  699.40  119.76
   0  16 -22 1195.37  187.38
   0  16 -19  155.99   38.78
   0  16 -13 3861.37  230.49
   0  16 -10  161.85  131.00
   0  16  -7 4193.08  150.79
   0  16  -414565.41  126.23
   0  16  -1 1484.42   62.34
   0  16   2 2651.96  156.83
   0  16  14  751.89   57.45
   0  16  1750346.37  754.81
   0  16  20  128.91   99.38
   0  16  2310174.67  256.72
   0  16  26 5264.17  392.74
   0  16  29 6408.43  285.44
   0  16  32  950.76   97.27
   0  16  35 2141.78  248.30
   0  16  38  474.70  114.95
   0  16  41  280.21   56.93
   0  16  56  382.29  116.74
   0  16  65  253.68   84.49
   0  17 -74   55.44   51.68
   0  17 -68  113.88   99.38
   0  17 -59  148.07  106.40
   0  17 -56   20.25  103.07
   0  17 -53   90.57  101.11
   0  17 -50  114.07  166.78
   0  17 -47   30.47   47.25
   0  17 -41  338.96   94.21
   0  17 -38  644.44   99.55
   0  17 -32 2554.68  149.84
   0  17 -29 2164.18  142.18
   0  17 -26  412.89   80.83
   0  17 -23 1055.65  141.90
   0  17 -20  699.13  101.48
   0  17 -17 1952.43  104.24
   0  17 -14  423.91   41.17
   0  17 -11  865.00   65.75
   0  17  -810264.52  279.46
   0  17  -5 9271.65  256.81
   0  17  -212171.38  325.12
   0  17   1 1678.75   77.33
   0  17   4  456.64   64.30
   0  17   718511.12  330.30
   0  17  10 7888.99  137.73
   0  17  1333450.71  755.82
   0  17  1929693.12  407.31
   0  17  25  249.11   55.55
   0  17  28 2544.62   82.39
   0  17  31 3189.95  320.53
   0  17  34  545.98  118.35
   0  17  37  397.81   62.97
   0  17  40  869.17  377.64
   0  17  46  457.70   55.89
   0  17  55  101.94   54.28
   0  17  58   86.01   74.07
   0  17  64    2.14   49.25
   0  17  70   81.50   53.36
   0  17  73  117.35   40.80
   0  18 -69  115.93   59.71
   0  18 -66   63.43  118.55
   0  18 -63  221.51  166.67
   0  18 -54    4.28   70.01
   0  18 -45  187.63   89.26
   0  18 -39 3778.26  326.77
   0  18 -36    4.25   72.35
   0  18 -33    2.23   51.43
   0  18 -24  112.60   40.46
   0  18 -21 6252.24  288.46
   0  18 -18 6857.28  223.97
   0  18 -15 2353.84  134.10
   0  18  -9  536.25   33.38
   0  18  -6 1345.90   37.64
   0  18  -3  772.33   28.40
   0  18   0 4424.31  258.09
   0  18   3 1628.27   93.34
   0  18   612285.30  343.51
   0  18   9 1475.86   90.40
   0  18  15  901.46  235.35
   0  18  18 3065.07  133.54
   0  18  21  533.06   74.48
   0  18  24 2417.57  189.68
   0  18  30  763.16   75.11
   0  18  33 1074.30  128.69
   0  18  36   72.47   79.80
   0  18  39 1325.09  176.75
   0  18  42   70.36   71.78
   0  18  45   23.55   69.12
   0  18  51  351.60   94.14
   0  18  54   42.49   59.64
   0  18  72   67.63   42.95
   0  19 -70   97.18   72.76
   0  19 -52   33.40  122.64
   0  19 -49  660.62   81.89
   0  19 -37  233.44   75.09
   0  19 -34 1992.18  252.78
   0  19 -31 2195.07  185.52
   0  19 -28  488.47   59.36
   0  19 -25  842.86  127.13
   0  19 -19  311.42   44.98
   0  19 -16 3690.56  373.99
   0  19 -10  167.09   98.38
   0  19  -7  583.34   72.43
   0  19  -4 1057.39  177.01
   0  19   2 3408.96  256.38
   0  19   5  298.48   90.29
   0  19   8 4015.49  299.94
   0  19  11  926.53  143.26
   0  19  17 4287.07  278.68
   0  19  20  325.73   58.41
   0  19  23 1204.16   84.79
   0  19  32  866.20  117.64
   0  19  35 1386.13  134.85
   0  19  38  716.55  120.38
   0  19  44  146.43   63.29
   0  19  47  621.02  149.55
   0  19  53  483.54   88.31
   0  19  59  481.98  143.42
   0  19  71    3.65   57.91
   0  19  74    0.11   50.93
   0  20 -71   45.65   70.62
   0  20 -59   84.27   62.15
   0  20 -50   12.03   70.53
   0  20 -38  600.49  109.41
   0  20 -35 2254.03  208.70
   0  20 -29  471.40  144.39
   0  20 -26  212.73   78.95
   0  20 -20 1458.78   95.03
   0  20 -11 9356.71  235.93
   0  20  -8 2429.59   88.64
   0  20  -5 4015.52  119.22
   0  20   1  931.90  166.43
   0  20   4  273.07  139.31
   0  20   7   77.84   34.23
   0  20  10 3131.50  101.70
   0  20  13 1305.73   46.76
   0  20  16 2965.15  374.94
   0  20  19   88.64  100.74
   0  20  22 2122.22   68.50
   0  20  25 3888.47  335.57
   0  20  28  200.44   76.07
   0  20  31  101.73   72.28
   0  20  34  192.34   40.17
   0  20  52   18.89   68.91
   0  20  55   76.04   52.45
   0  20  58  191.22   90.49
   0  20  61  184.00   56.91
   0  20  64   42.27   55.45
   0  20  67  114.61   58.30
   0  21 -72   41.30   59.35
   0  21 -54   11.89   67.53
   0  21 -48  563.99  160.21
   0  21 -42  234.91   63.79
   0  21 -36  512.67   44.84
   0  21 -33  949.77  269.88
   0  21 -27 2476.61  278.40
   0  21 -24    0.78  112.07
   0  21 -21 2689.62  225.29
   0  21 -18 2125.30  112.89
   0  21 -12    0.82   53.70
   0  21  -6 5087.47  202.05
   0  21   0 4411.11  201.40
   0  21   3 1676.74  123.70
   0  21   6 5575.17  475.73
   0  21   9  166.20   35.77
   0  21  12 1106.61  151.30
   0  21  15  291.24   74.37
   0  21  18  706.94   44.02
   0  21  24 1860.21  203.51
   0  21  27  814.49  113.79
   0  21  30   69.71   44.69
   0  21  33 2099.04  247.00
   0  21  39  153.99   62.34
   0  21  42 1425.63  121.53
   0  21  45   52.90   80.48
   0  21  54  571.60  118.15
   0  22 -67   41.56   86.19
   0  22 -61   61.74   86.40
   0  22 -55   69.23   58.95
   0  22 -52  129.20  123.20
   0  22 -49   66.74   71.42
   0  22 -40  345.36   71.94
   0  22 -37 1690.82  171.38
   0  22 -34  923.18  193.40
   0  22 -28   71.53  131.73
   0  22 -25  203.93   49.16
   0  22 -22  526.24   44.22
   0  22 -19  320.22  138.26
   0  22 -16 2178.54  138.22
   0  22 -13  505.10   26.82
   0  22 -10 2385.04  170.64
   0  22  -7  511.81   43.00
   0  22  -4  162.98   51.73
   0  22  -1 1777.93   73.74
   0  22   2 1104.09   59.15
   0  22   8 2914.15  194.98
   0  22  11 2902.57  137.17
   0  22  14   15.69   68.34
   0  22  17 1185.64   63.39
   0  22  20 2372.69  127.98
   0  22  26 1273.97  166.90
   0  22  29  280.59   46.49
   0  22  32  185.66   74.14
   0  22  35  199.22   67.93
   0  22  41  617.21  109.09
   0  22  50  288.54   66.27
   0  22  53   58.26   45.67
   0  22  59   90.12   54.46
   0  22  68   14.40   57.39
   0  22  71  222.94   65.62
   0  23 -59  225.40   94.46
   0  23 -44  574.44   80.46
   0  23 -41  275.45   54.88
   0  23 -35 2053.03  355.25
   0  23 -32 1365.83  146.05
   0  23 -26 2170.47  162.59
   0  23 -23    9.97   44.10
   0  23 -20  895.24  103.43
   0  23 -14 1378.36  118.57
   0  23 -11  245.58   55.65
   0  23  -8 2838.96  114.09
   0  23  -5  793.00   91.29
   0  23  -2 4812.46  394.21
   0  23   1 1965.92  103.85
   0  23   4  211.83   90.49
   0  23   7 5654.96  455.74
   0  23  10 1101.87  157.33
   0  23  13 1349.14  140.85
   0  23  16  297.47   45.78
   0  23  19 1440.86  153.31
   0  23  25  273.20  122.48
   0  23  31  924.31  134.41
   0  23  37  171.95   47.44
   0  23  40 2854.32  188.24
   0  23  43  234.20   63.42
   0  23  46  176.51   51.24
   0  23  58  271.28   70.88
   0  23  61   14.50   51.96
   0  23  67   36.79   59.95
   0  23  70   44.66   64.53
   0  24 -69  190.20   85.10
   0  24 -60   31.01  124.24
   0  24 -39  645.36  114.97
   0  24 -33  244.35  103.43
   0  24 -30  615.84   96.49
   0  24 -24 1283.08  186.81
   0  24 -18  377.77   55.19
   0  24 -15 4616.21  302.13
   0  24 -12 1406.88  145.11
   0  24  -9  403.60   99.04
   0  24  -6    8.34   36.27
   0  24  -3 5815.20  249.57
   0  24   0  264.15  110.41
   0  24   3  549.30   51.74
   0  24   6  478.41  126.75
   0  24  15  916.91  145.13
   0  24  18 1146.70  181.72
   0  24  24   83.01   62.44
   0  24  30   96.73   69.67
   0  24  33  359.59   86.95
   0  24  36   41.73   64.59
   0  24  42  436.10  111.93
   0  24  48   73.84   94.35
   0  24  54   51.04   72.22
   0  24  60   22.22   54.29
   0  24  63   58.63   71.00
   0  25 -64    8.44   71.64
   0  25 -52  212.20   53.14
   0  25 -49  247.64   64.78
   0  25 -46   95.72  117.24
   0  25 -43  159.77   63.57
   0  25 -31 1833.13  273.14
   0  25 -28  524.00   96.43
   0  25 -22  391.80   72.44
   0  25 -16   57.51   22.30
   0  25 -10  121.61   26.97
   0  25  -7  686.10   80.47
   0  25  -4 2739.03  150.09
   0  25  -1  778.19   97.51
   0  25   2  645.16  105.63
   0  25   5  116.38   59.28
   0  25   8  319.31   88.68
   0  25  11  631.73  115.25
   0  25  14  545.15  113.34
   0  25  17  299.30  118.70
   0  25  26  313.28   57.11
   0  25  29  559.56   96.86
   0  25  35  436.22   74.18
   0  25  38 1290.68  169.60
   0  25  47   13.25   44.65
   0  25  56   30.10   65.88
   0  25  68   24.16   53.88
   0  26 -65   72.78   77.39
   0  26 -59  149.51   81.05
   0  26 -56   31.18   68.60
   0  26 -44  480.81  102.54
   0  26 -29  126.07   60.54
   0  26 -23   10.19   43.85
   0  26 -17  469.41   66.05
   0  26 -14  324.57   49.97
   0  26 -11 1811.79  151.53
   0  26  -8  851.97   90.66
   0  26  -2 1333.43  160.75
   0  26   1  585.54   68.43
   0  26   7  633.14  101.63
   0  26  13 1671.57  105.94
   0  26  22  175.02   26.74
   0  26  25  148.15   61.67
   0  26  28  121.56  105.09
   0  26  34  472.28  116.78
   0  26  40  337.34   82.47
   0  26  43  135.69   41.54
   0  26  55  118.22   68.90
   0  26  64   49.07   60.14
   0  26  67   67.86   70.02
   0  27 -66   48.33  102.89
   0  27 -54  313.59  125.92
   0  27 -48   34.19   50.99
   0  27 -45  248.73   79.80
   0  27 -42   39.42   73.39
   0  27 -30  119.60   92.54
   0  27 -24   24.79   94.46
   0  27 -21   37.47   56.79
   0  27 -18  421.82   63.49
   0  27 -15 1022.15  133.54
   0  27 -12   38.54   32.06
   0  27  -9 1383.29  161.02
   0  27  -6 2015.90  181.11
   0  27   0  124.77   56.48
   0  27   3  830.75  158.96
   0  27   6  302.33   44.00
   0  27   9  845.47   73.32
   0  27  12    7.92   75.28
   0  27  21  137.90  118.93
   0  27  51  251.54   64.84
   0  27  54  117.85   56.26
   0  27  60    4.14   68.04
   0  28 -64   29.14  122.94
   0  28 -55  229.28   71.43
   0  28 -52  106.58   76.91
   0  28 -31   51.52   82.26
   0  28 -28  338.16   55.53
   0  28 -25   52.83   95.90
   0  28 -22  273.58   83.64
   0  28 -19 1355.46  151.33
   0  28 -16  226.10   62.29
   0  28 -13   93.61   36.49
   0  28 -10   75.18   53.21
   0  28  -7  112.38   32.81
   0  28  -4  250.51  111.45
   0  28  -1  340.56   60.76
   0  28   2   87.33   80.62
   0  28   8   54.43   82.72
   0  28  11    0.04   62.13
   0  28  14  618.27  249.89
   0  28  20  746.10  177.11
   0  28  38   60.57   66.16
   0  28  41  143.15   78.45
   0  28  44 1208.11  137.56
   0  28  47  665.29  184.90
   0  28  56  189.21   53.53
   0  28  59    9.30   67.04
   0  29 -62   24.48  112.22
   0  29 -56    4.02   87.99
   0  29 -41   91.46  162.93
   0  29 -35  136.04   65.32
   0  29 -32  730.10  111.17
   0  29 -26  207.02   76.30
   0  29 -23  259.99   45.63
   0  29 -20  747.97   99.73
   0  29 -14  327.83   58.89
   0  29 -11  113.87   43.41
   0  29  -2  383.76   48.43
   0  29   1 1180.33  111.68
   0  29   7  456.84   67.56
   0  29  16  258.78   99.10
   0  29  43  114.38   64.35
   0  29  46    0.34   75.15
   0  29  55   71.13   95.48
   0  29  58  154.78   61.25
   0  30 -54   24.16   62.18
   0  30 -51  584.05   69.09
   0  30 -48  232.21  115.08
   0  30 -39  343.42   78.98
   0  30 -36   18.02   57.80
   0  30 -33  598.38   69.87
   0  30 -24  677.74  107.88
   0  30 -21   54.15   51.05
   0  30 -18    0.50   32.88
   0  30 -15  420.82   83.25
   0  30 -12 2945.63  327.52
   0  30  -9 2884.31  284.53
   0  30  -3   19.11   66.59
   0  30   0 1391.48  202.85
   0  30   9  405.88   83.70
   0  30  12  230.46  149.58
   0  30  15  304.59  140.31
   0  30  21  602.60  182.39
   0  30  24  945.42  174.95
   0  30  27  798.41  231.03
   0  30  30  186.51  102.32
   0  30  39  357.65   72.43
   0  30  54   50.25   88.47
   0  31 -58   53.07   62.21
   0  31 -43   22.00   42.89
   0  31 -34   52.18   88.84
   0  31 -31  200.22  136.24
   0  31 -19  292.34   84.04
   0  31 -13   25.89   24.28
   0  31 -10  273.36  119.40
   0  31  -7   52.27   60.11
   0  31  -4  638.50  105.54
   0  31  11  248.79   88.37
   0  31  14   76.90   60.24
   0  31  17 1096.35  133.08
   0  31  20 1189.70  172.97
   0  31  26  342.88  117.43
   0  31  29  138.04  123.54
   0  31  35  634.39  129.34
   0  31  38  301.98   90.39
   0  31  41   12.35   87.62
   0  31  47  112.37  119.63
   0  31  53    0.04   83.83
   0  32 -56   49.05   80.64
   0  32 -50   74.98   67.48
   0  32 -44  125.22   67.75
   0  32 -38    4.26   85.72
   0  32 -35  534.36  122.68
   0  32 -32    5.97   71.16
   0  32 -29  275.32   94.68
   0  32 -17  541.58  156.22
   0  32 -14  396.40  149.21
   0  32  -8  201.92   93.96
   0  32  -2  518.15   88.93
   0  32   1  368.47  117.44
   0  32   7   32.97   66.72
   0  32  10  211.72  222.60
   0  32  37  329.34  191.70
   0  32  52  259.53   59.39
   0  32  55  107.83   75.42
   0  33 -42   59.54   74.80
   0  33 -33   66.84   82.68
   0  33 -30  553.27  226.72
   0  33 -21  290.18  134.74
   0  33 -18  210.05  176.31
   0  33 -12  255.08  137.91
   0  33  -9  124.98  104.01
   0  33  -6  131.39   59.22
   0  33  -3   93.85   59.06
   0  33   0  306.54   67.43
   0  33   6  140.24  121.47
   0  33  24  760.11   88.30
   0  33  33  518.07   96.86
   0  33  42   30.22  123.61
   0  33  51  181.51  138.55
   0  34 -55   31.42  146.67
   0  34 -52    4.43   86.04
   0  34 -43  116.43  143.55
   0  34 -40  552.01  101.19
   0  34 -34  279.38  119.17
   0  34 -22  146.93   89.20
   0  34 -19  387.09  133.07
   0  34 -16  302.08  109.63
   0  34  -7  103.34   82.33
   0  34  -4   78.70   53.74
   0  34   5  109.91   78.23
   0  34  20   45.16   89.41
   0  34  23  836.86  114.35
   0  34  38    5.42   99.36
   0  34  44    5.35   60.84
   0  34  47    2.36   64.96
   0  35 -47   28.96   91.62
   0  35 -26  371.33  132.98
   0  35 -11  211.27   75.05
   0  35  -5   10.25   93.84
   0  35  -2   78.81  178.96
   0  35   1    4.26   45.68
   0  35  13   42.91  114.37
   0  35  16  335.54  137.17
   0  35  22   12.58   96.00
   0  35  28  402.39   82.08
   0  35  37   88.80   68.55
   0  35  40   39.37  115.02
   0  35  43    4.60   70.51
   0  35  49   26.60   87.14
   0  35  52  123.13   91.54
   0  36 -45  167.54  165.45
   0  36  -9   55.19   73.08
   0  36   3   51.26   93.28
   0  36   6  494.12  121.74
   0  36   9  794.64   80.34
   0  36  18  853.16  164.50
   0  36  21  238.26  101.32
   0  36  36  386.32  173.73
   0  36  39   77.84  181.26
   0  37 -40   60.44  142.11
   0  37 -37  362.95   97.73
   0  37 -34   69.86  114.68
   0  37 -31   37.22  102.49
   0  37 -16  396.30   81.95
   0  37 -13  277.47  145.37
   0  37 -10  253.18  103.92
   0  37   2  164.56  106.48
   0  37   5  581.75  113.18
   0  37   8  191.69  184.31
   0  37  14  217.80  138.67
   0  37  20  227.46  111.00
   0  37  23  106.45   85.24
   0  37  32  330.94  103.26
   0  38 -41  188.02   89.59
   0  38 -35  224.70  112.26
   0  38 -29   59.98  148.08
   0  38 -20  298.39   65.50
   0  38 -17   67.56   83.07
   0  38  -8  102.14  119.65
   0  38   7  167.54  141.29
   0  38  13  424.26   89.92
   0  38  31  238.00  123.62
   0  38  43  119.08   86.94
   0  38  46  201.97  117.72
   0  39 -27  383.94  206.97
   0  39 -18  117.28  114.39
   0  39 -15   45.23   76.71
   0  39 -12  449.62  104.44
   0  39  -9   78.22  217.07
   0  39  -6  184.59  120.69
   0  39  -3  258.86   50.66
   0  39   0  524.02  156.80
   0  39   6  160.23   80.78
   0  39   9  123.25  144.72
   0  39  18   71.83  127.05
   0  39  24  130.69  143.39
   0  39  30  697.04  156.30
   0  39  33   93.78  133.28
   0  39  36    5.99  102.09
   0  40 -34    7.88  130.14
   0  40 -28   58.28   67.85
   0  40 -19   63.09   86.44
   0  40   5   87.93  111.14
   0  40   8  413.40  138.78
   0  40  14 1029.59  109.12
   0  40  20   69.57  272.47
   0  40  26  364.91  123.15
   0  40  32   10.25  137.36
   0  40  35    1.36  116.25
   0  40  38  168.55  120.48
   0  41 -32  651.03  142.18
   0  41 -29  181.10  112.70
   0  41 -26    5.06  139.33
   0  41 -17  121.86   79.49
   0  41 -14  104.77   60.79
   0  41 -11   85.55   72.32
   0  41  -8  150.53   99.70
   0  41  -5  329.73   92.54
   0  41  -2  476.00  204.86
   0  41  10   34.37  135.65
   0  41  13   56.04   99.93
   0  41  19    7.42  105.00
   0  41  22  107.62  108.06
   0  41  31   78.12  121.29
   0  41  34  171.67  174.29
   0  41  37  126.31  104.19
   0  42 -24  238.26  180.89
   0  42 -15   73.84   88.46
   0  42  -9  429.29   91.05
   0  42  -6  256.17  127.56
   0  42   6  193.72  138.54
   0  42   9    0.12   86.61
   0  42  18   20.39   85.12
   0  42  21   63.06   80.28
   0  42  24  221.56  109.31
   0  42  33    8.34  167.71
   0  43 -28   88.70  216.36
   0  43 -19  178.74   86.49
   0  43 -13   24.67  131.40
   0  43  -4    0.18   72.84
   0  43   5   58.33   86.24
   0  43  14   72.98   62.37
   0  43  17  219.26  134.06
   0  43  20  104.10   64.28
   0  43  26   75.75  177.25
   0  44  10  153.28  117.49
   0  44  13  218.22  127.06
   0  44  16   98.89  121.28
   0  45 -12   78.64  106.38
   0  45  -6  351.78  114.15
   0  45   3  185.81  107.63
   0  45   6   25.59   97.18
   0  45  12  324.08   80.95
   0  45  15  144.14   96.68
   1   1 -78    9.85   49.49
   1   1 -75   77.21   75.48
   1   1 -66  159.98   81.12
   1   1 -63  165.35   48.25
   1   1 -57   91.99   56.18
   1   1 -54  633.70  113.40
   1   1 -51  252.81   62.30
   1   1 -48  418.00   53.23
   1   1 -45  282.23   50.08
   1   1 -39  761.40   68.26
   1   1 -30 3508.36  248.44
   1   1 -24   52.75   67.67
   1   1 -21   59.00   25.64
   1   1 -1811896.06  200.18
   1   1 -15 8681.44  273.71
   1   1 -1226734.12   73.78
   1   1  -9  168.70   55.14
   1   1   911916.65   82.68
   1   1  12 1447.51   70.51
   1   1  15  317.01  116.56
   1   1  18 2884.41  162.72
   1   1  2110414.65  306.72
   1   1  24 1301.13   57.18
   1   1  27  361.03   42.84
   1   1  30 4025.11  214.17
   1   1  36  636.23   85.57
   1   1  39  182.67   37.07
   1   1  42 1271.64  125.40
   1   1  48  105.75   56.37
   1   1  51  997.93  106.45
   1   1  54  580.35   69.19
   1   1  78   23.40   61.72
   1   2 -79   21.32   56.77
   1   2 -76   94.08   63.05
   1   2 -70   91.85   47.30
   1   2 -58  853.40  161.62
   1   2 -55  420.89   68.67
   1   2 -52  153.54   55.14
   1   2 -49  433.16   71.01
   1   2 -46 1819.29  120.86
   1   2 -43 4555.19  344.24
   1   2 -37 1542.36  135.79
   1   2 -34    2.12   54.88
   1   2 -31 1877.86  139.74
   1   2 -28  872.51   69.92
   1   2 -25 4294.10  124.15
   1   2 -19  661.51  205.99
   1   2 -13  631.85  111.58
   1   2 -10  603.97  104.12
   1   2  -7  189.27  179.07
   1   2   852303.52  950.72
   1   2  11  460.19  182.61
   1   2  14 1630.68   46.82
   1   2  17 9935.16  171.31
   1   2  20  349.17  162.76
   1   2  26 4541.57  278.68
   1   2  29  367.32   62.93
   1   2  32  690.74   36.49
   1   2  35 1048.78   33.26
   1   2  3813251.19  388.11
   1   2  44  964.32  125.64
   1   2  47 1064.74  114.68
   1   2  50 1508.80  167.05
   1   2  53 1353.31  116.63
   1   2  56   36.74   49.17
   1   2  62  206.83   58.45
   1   2  68   68.42   47.60
   1   2  74   28.49   88.74
   1   2  77   40.55   52.96
   1   2  80   26.03   61.51
   1   3 -80   45.65   47.72
   1   3 -77   36.77   52.63
   1   3 -71  158.42   51.68
   1   3 -68  130.43   62.29
   1   3 -62   43.39   54.78
   1   3 -59   71.15   41.59
   1   3 -53  857.52  141.84
   1   3 -50    0.04   52.04
   1   3 -47  212.93   51.03
   1   3 -44   95.73   30.70
   1   3 -38  644.23   91.13
   1   3 -32 6476.86  201.67
   1   3 -29 2952.93  134.83
   1   3 -26 3523.74  394.75
   1   3 -23  407.12   42.27
   1   3 -20  208.55  124.47
   1   3 -17 9541.41  313.44
   1   3 -1462957.38  518.07
   1   3 -11 5120.07  192.46
   1   3  -8   20.06   52.31
   1   3  -524672.56  196.05
   1   3   722881.99  194.94
   1   3  10 1896.94   25.95
   1   3  16 6180.63  125.56
   1   3  1932003.34  538.67
   1   3  2219404.36  241.90
   1   3  28 2517.66  267.92
   1   3  31 1269.38  294.19
   1   3  40 1024.09   93.70
   1   3  52  340.58   90.48
   1   3  55    2.86   50.70
   1   3  58  285.61   82.05
   1   3  61    8.64   40.93
   1   3  64    8.06   52.61
   1   3  76    6.70   63.37
   1   3  79    0.55   68.27
   1   4 -78   14.88   58.48
   1   4 -69   83.27   51.34
   1   4 -66    6.54   55.79
   1   4 -63   86.08   95.63
   1   4 -60  136.73   75.79
   1   4 -54 1447.95  117.66
   1   4 -42 1112.99  104.50
   1   4 -36  946.86  116.60
   1   4 -33 1233.23  234.91
   1   4 -30   45.58  103.70
   1   4 -27 3945.60  165.56
   1   4 -24  264.00   70.74
   1   4 -21 6266.16  212.04
   1   4 -18 3094.00   98.50
   1   4 -1550246.38  476.24
   1   4  -9 8756.61  175.63
   1   4  -6  587.03   41.51
   1   4  -359410.81  419.50
   1   4   0 6780.51   91.39
   1   4   324979.68  276.31
   1   4   613145.92  329.46
   1   4   9 2773.99  129.33
   1   4  15 1458.20  136.33
   1   4  1827185.88  194.67
   1   4  21 1300.37  236.95
   1   4  24  311.23  209.47
   1   4  27  375.07   49.80
   1   4  30  605.73  156.53
   1   4  33 1177.74   79.76
   1   4  42 2608.17  223.43
   1   4  45 1251.33  142.44
   1   4  51  443.58   44.80
   1   4  60   17.82   38.29
   1   4  72   61.27   64.90
   1   5 -79   11.70   41.93
   1   5 -76   19.50   68.30
   1   5 -73  122.89   60.88
   1   5 -70    7.36   58.37
   1   5 -64   40.05   56.81
   1   5 -61  340.15   42.07
   1   5 -55  111.94   97.56
   1   5 -52  655.57   52.28
   1   5 -49  294.58   60.49
   1   5 -46 1617.52  123.37
   1   5 -34  857.63  126.95
   1   5 -28   80.43  122.62
   1   5 -22 1450.72   82.42
   1   5 -1921822.64  647.84
   1   5 -1614205.70  176.25
   1   5  -7 8723.54  126.08
   1   5  -4 4375.64   29.68
   1   5  -1 3365.49   46.16
   1   5   2    3.91   88.91
   1   5   5 1710.94  124.59
   1   5   8 4640.30   23.47
   1   5  1111484.53  100.15
   1   5  1779724.35  944.45
   1   5  20 3830.26   36.08
   1   5  26 1571.42  163.43
   1   5  29 1940.43   78.74
   1   5  32  669.63   58.95
   1   5  38  357.17   56.86
   1   5  41  989.43   95.18
   1   5  44  327.17   62.92
   1   5  50  474.72   54.47
   1   5  53  119.56   58.09
   1   5  56   23.85   56.76
   1   5  62   35.60   43.89
   1   5  65    0.61   66.81
   1   5  77   12.86   56.24
   1   5  80  167.32   72.74
   1   6 -80  123.57   63.80
   1   6 -77   31.60   57.17
   1   6 -71    9.82   48.71
   1   6 -68    1.92   65.97
   1   6 -65  119.12   88.35
   1   6 -62  436.68   45.56
   1   6 -59   37.62   42.73
   1   6 -50  721.62   63.77
   1   6 -47  545.34  120.27
   1   6 -44 1971.75  198.65
   1   6 -35 6580.65  257.86
   1   6 -32 2383.48  142.15
   1   6 -29   48.67  119.19
   1   6 -26 2517.39  150.86
   1   6 -23 3331.33   28.11
   1   6 -20  205.93   33.58
   1   6 -17 8732.99  171.28
   1   6 -1422554.57   41.92
   1   6 -1116299.77  193.54
   1   6  -8  740.89  105.55
   1   6  -5 6574.78  102.98
   1   6  -236741.63  217.95
   1   6   139259.23  231.12
   1   6   413046.92   77.81
   1   6   744697.08   64.36
   1   6  1040021.08  394.09
   1   6  13188120.5 1499.65
   1   6  16106561.2 1154.56
   1   6  19 9930.80  264.57
   1   6  22  151.52   78.71
   1   6  25    8.28   38.83
   1   6  28 4874.52  220.92
   1   6  31 2848.15  371.94
   1   6  34 2688.59  174.38
   1   6  43 1511.36  216.97
   1   6  49  147.22   69.14
   1   6  58  241.93   88.14
   1   6  64  140.59   41.87
   1   6  67   69.09   37.22
   1   7 -69   40.37   56.23
   1   7 -60  155.80   63.70
   1   7 -54 1348.25  190.26
   1   7 -48 1921.08  167.12
   1   7 -42  518.19  133.50
   1   7 -39 3229.19  141.18
   1   7 -36 1026.85  120.02
   1   7 -33 8443.04  385.43
   1   7 -30 2723.95  220.84
   1   7 -27  402.97  138.83
   1   7 -24  151.07   52.20
   1   7 -21 8300.84  174.93
   1   7 -18    1.93   37.60
   1   7 -15 2043.00  126.52
   1   7 -1233955.76  245.22
   1   7  -9 8700.09  185.75
   1   7  -311545.48   52.41
   1   7   0 1031.89   98.75
   1   7   3218538.3 1074.96
   1   7   6    9.70   61.48
   1   7   9137896.1  788.32
   1   7  1229905.61  310.81
   1   7  1594070.26 1077.45
   1   7  18  142.07  136.91
   1   7  21 6564.93  245.50
   1   7  2412187.88  333.88
   1   7  27 4959.38  315.36
   1   7  30 9697.31  472.43
   1   7  39  725.18   94.30
   1   7  42  410.98  103.73
   1   7  51  528.93   93.41
   1   7  57  149.13   47.74
   1   7  60   24.93   54.80
   1   7  66   88.01   51.22
   1   7  72   66.48   45.38
   1   7  75  171.19   58.26
   1   8 -70   10.51   78.83
   1   8 -61   26.43   33.02
   1   8 -49  723.38  100.65
   1   8 -43  353.77  125.31
   1   8 -34 2504.89  163.13
   1   8 -31 4090.82  168.32
   1   8 -28  199.37   91.06
   1   8 -19 5197.28   96.62
   1   8 -1636588.73  376.67
   1   8 -13 5662.28  276.09
   1   8 -10 5437.69  155.27
   1   8  -7 4116.74  166.71
   1   8  -410737.63  208.01
   1   8  -1 7872.77  110.55
   1   8   2 7073.02  107.08
   1   8   535127.59  233.75
   1   8  11483859.7 4025.08
   1   8  14191580.4 1305.63
   1   8  20 5731.74  182.61
   1   8  23 8906.41  739.14
   1   8  32  885.63  264.63
   1   8  35 2820.70  244.32
   1   8  38 1285.01  129.44
   1   8  47  180.80  115.18
   1   8  56   35.50   46.32
   1   8  59  429.64   62.68
   1   8  62   12.46   47.88
   1   8  68   57.92   53.23
   1   8  74    0.15   43.63
   1   8  77  120.41   47.99
   1   9 -71  177.61   66.83
   1   9 -68    4.88   77.86
   1   9 -62  138.41   82.33
   1   9 -56  400.22   78.39
   1   9 -53   63.16   55.20
   1   9 -38 2383.95  292.48
   1   9 -3210034.89  499.60
   1   9 -29   16.46   68.14
   1   9 -26 9241.50   98.19
   1   9 -2317142.70  248.98
   1   9 -20  879.35   77.16
   1   9 -14  102.17   47.90
   1   9 -1112193.77  157.22
   1   9  -824739.30  213.14
   1   9  -5 4019.41  114.49
   1   9  -2  430.72   34.86
   1   9   1 6090.17  213.96
   1   9   423056.33  163.11
   1   9   718442.27  438.43
   1   9  10115223.1 1507.60
   1   9  1323301.31  330.35
   1   9  1650870.06  847.43
   1   9  1912986.52  236.90
   1   9  22 9711.20  527.10
   1   9  28  978.01  241.90
   1   9  31 1391.34  111.99
   1   9  37  251.30   89.11
   1   9  40  730.08  109.62
   1   9  46  502.34   64.07
   1   9  58  431.57   78.54
   1   9  64   12.32   67.69
   1   9  70  170.92   65.04
   1  10 -66    6.87   65.51
   1  10 -63   79.33  107.56
   1  10 -51  483.60  127.50
   1  10 -45  433.00  102.92
   1  10 -42 1404.99  187.46
   1  10 -39 2145.08  194.53
   1  10 -36   32.05   51.37
   1  10 -33 4735.44  333.02
   1  10 -30 1175.54  153.97
   1  10 -27 9776.09  315.34
   1  10 -24 3739.35   49.36
   1  10 -21  167.13   80.93
   1  10 -15  585.28   29.48
   1  10 -1230905.80  297.35
   1  10  -921702.65  159.16
   1  10  -651632.37  497.42
   1  10  -3   88.79   65.57
   1  10   0 6244.64  108.79
   1  10   341153.47  400.71
   1  10   634526.59  277.28
   1  10   9109768.5  301.60
   1  10  1234003.14  521.56
   1  10  1522662.44  207.17
   1  10  24 1053.25  206.13
   1  10  27 3960.77  446.58
   1  10  30  389.02   83.93
   1  10  33 1229.66  158.28
   1  10  36  800.98  138.72
   1  10  42  158.50   51.20
   1  10  48  107.33   58.20
   1  10  54  507.98  127.97
   1  10  57   57.91   60.29
   1  10  72   22.78   50.16
   1  11 -73   43.96   61.77
   1  11 -70  171.42   64.08
   1  11 -67  349.16   57.88
   1  11 -52  689.75   98.17
   1  11 -43 3251.06  379.15
   1  11 -40   24.26   48.66
   1  11 -37    0.21   45.76
   1  11 -34 1603.19  182.28
   1  11 -31   24.76   88.78
   1  11 -28  195.68   74.71
   1  11 -25 8532.40  247.90
   1  11 -22 2238.90   65.72
   1  11 -19 1045.14   86.28
   1  11 -16  113.93   41.19
   1  11 -1311787.03  341.39
   1  11 -10   85.21   82.37
   1  11  -716048.39  481.60
   1  11  -4 3549.92  104.36
   1  11  -1  717.18   90.14
   1  11   219996.23  234.93
   1  11   541939.38  250.76
   1  11   817835.17  360.67
   1  11  11 7936.39  125.25
   1  11  14 1575.69  100.87
   1  11  1710646.47  226.46
   1  11  2020397.05  659.74
   1  11  2320108.98  499.75
   1  11  26  210.16  116.53
   1  11  2910653.70  361.86
   1  11  32  433.03   70.46
   1  11  35  437.77  101.55
   1  11  38  369.31   86.86
   1  11  44   18.57   47.48
   1  11  47  734.04   82.88
   1  11  59  123.24   45.74
   1  11  74  133.41   64.75
   1  11  77    0.07   40.75
   1  12 -77   17.59   64.14
   1  12 -74  209.41   74.16
   1  12 -62  140.35   72.05
   1  12 -56  171.43  117.93
   1  12 -53  666.19  102.44
   1  12 -47  956.74  131.55
   1  12 -44 1554.63  218.65
   1  12 -2637308.98  664.26
   1  12 -23   58.01   66.27
   1  12 -20 1017.93   72.21
   1  12 -1715467.42  153.37
   1  12 -14 1580.09   69.47
   1  12 -11 4820.52  157.52
   1  12  -8  311.55  111.84
   1  12  -5 3463.64  100.24
   1  12  -2    8.70   65.86
   1  12   1 1113.39   63.49
   1  12   4 5370.76  166.68
   1  12   7   14.85   51.11
   1  12  1032356.30  318.48
   1  12  13 1470.49   74.49
   1  12  1642133.82  621.45
   1  12  2220521.72  392.39
   1  12  31 6614.52  165.16
   1  12  34 1788.30  223.28
   1  12  37  190.36   86.84
   1  12  43 6330.90  536.87
   1  12  46   65.05   67.31
   1  12  49  354.50   38.46
   1  12  52  150.82   67.13
   1  12  64   88.45   57.23
   1  12  67   78.27   71.73
   1  12  70   32.88   66.27
   1  12  73  186.19   56.28
   1  13 -60  109.47   54.16
   1  13 -48 1507.54  189.90
   1  13 -39 1569.79  191.04
   1  13 -36 8863.63  384.65
   1  13 -2729358.27  613.41
   1  13 -24  696.77   96.89
   1  13 -21   65.74   69.61
   1  13 -1516134.78  187.43
   1  13 -12 7737.47  130.13
   1  13  -924611.65  194.74
   1  13  -6 9138.40  169.23
   1  13   019208.47  255.39
   1  13   3 1047.70   56.23
   1  13   6  244.17   46.49
   1  13   9 3326.17  171.39
   1  13  18172122.6 3235.99
   1  13  21 7914.90  223.24
   1  13  24 2934.70  204.34
   1  13  3013320.72  338.99
   1  13  33 1740.50  175.63
   1  13  36 2046.59  146.01
   1  13  39   94.73   58.59
   1  13  42  237.52   73.38
   1  13  45  819.32   74.86
   1  13  48   15.08   73.71
   1  13  51   58.43   60.79
   1  13  54  176.86   59.68
   1  13  60  223.15   88.71
   1  13  63  319.07   62.14
   1  13  66   56.42   52.45
   1  14 -61    3.49   66.02
   1  14 -58   43.53   92.65
   1  14 -55   45.16   55.36
   1  14 -46 1323.69  164.98
   1  14 -43 1277.72  187.37
   1  14 -40 1458.81  168.35
   1  14 -37  193.38   61.35
   1  14 -34 1375.63  121.46
   1  14 -31 5726.08  286.40
   1  14 -28 1997.11  172.48
   1  14 -1920624.78  441.23
   1  14 -16 6438.85  179.22
   1  14 -1319722.65  328.50
   1  14 -10  740.54  124.45
   1  14  -7  520.26   73.67
   1  14  -4 3232.17   81.73
   1  14  -1    1.81   86.54
   1  14   2 1045.32   38.48
   1  14   514609.11   67.79
   1  14   830052.91  316.94
   1  14  11  245.12   55.15
   1  14  14 6594.12  208.28
   1  14  1717064.28  393.46
   1  14  20  604.77  128.36
   1  14  23  174.76  182.18
   1  14  26    0.45   40.15
   1  14  2931529.20  498.18
   1  14  32 1799.62   68.37
   1  14  35  193.73   70.95
   1  14  38 2531.95  285.42
   1  14  41  741.34  132.12
   1  14  44   56.94   47.08
   1  14  47  293.32   57.18
   1  14  62  266.50   61.29
   1  14  65   46.33   41.12
   1  14  71   81.42   80.72
   1  14  77   92.55   88.47
   1  15 -74   41.09   53.21
   1  15 -71   32.78   71.12
   1  15 -44   35.12   63.55
   1  15 -41 1133.18  121.48
   1  15 -35 3817.38  289.84
   1  15 -32  629.65  109.71
   1  15 -29    4.55   88.40
   1  15 -26  983.59   46.97
   1  15 -23 8816.60  326.18
   1  15 -17  732.85   75.27
   1  15 -11   70.11   47.24
   1  15  -8 4145.22  120.10
   1  15  -5    2.00   79.55
   1  15  -2 6334.08  129.67
   1  15   125390.08  235.46
   1  15   4  863.16   78.35
   1  15   7 9534.45  325.93
   1  15  10  458.98   95.53
   1  15  13  162.03   34.73
   1  15  16  826.94  135.58
   1  15  1924056.89  647.75
   1  15  22 9686.42  243.44
   1  15  25 9762.46  273.79
   1  15  2815047.50  334.89
   1  15  34 1244.10  156.32
   1  15  37    0.60   45.31
   1  15  43  256.32   82.28
   1  15  46  479.97  109.70
   1  15  52  354.25   80.02
   1  15  67  114.23   76.11
   1  15  73   20.70   67.03
   1  16 -75   57.12   71.10
   1  16 -72  175.29   77.85
   1  16 -60   70.42   93.97
   1  16 -54  284.54   92.35
   1  16 -45 1121.86  174.73
   1  16 -36 1532.02  105.98
   1  16 -33 2017.93  187.30
   1  16 -27   38.27   48.89
   1  16 -24 5169.48  265.24
   1  16 -18  782.59  167.75
   1  16 -15   20.49   54.50
   1  16 -12 1673.79  116.55
   1  16  -9 1126.68   81.58
   1  16  -6 3073.02   89.01
   1  16  -3 1514.77  191.10
   1  16   0 7341.24  200.26
   1  16   3 8911.96  251.56
   1  16   6 1310.94   44.82
   1  16   919307.09  381.00
   1  16  15 2142.69  107.60
   1  16  24 7899.13  252.08
   1  16  27  504.70   72.91
   1  16  36 4069.33  329.63
   1  16  45  928.41  214.91
   1  16  60    9.11   95.04
   1  16  63  141.26   85.03
   1  16  66    6.84   54.61
   1  16  72   11.37   79.40
   1  17 -70   50.20   91.35
   1  17 -49  367.36  130.06
   1  17 -43  194.47   98.96
   1  17 -31 1318.92  106.24
   1  17 -25  226.02   31.78
   1  17 -22  142.80   50.30
   1  17 -19 2328.19  157.71
   1  17 -16 1600.17   32.67
   1  17 -13  591.03   63.45
   1  17 -10   34.82   38.49
   1  17  -4 2289.78  290.05
   1  17  -1  681.70  115.76
   1  17   2  645.34   60.94
   1  17   5   15.67   56.52
   1  17   815585.17  367.68
   1  17  11 5574.56  319.09
   1  17  1425588.87  545.53
   1  17  17  400.28   90.81
   1  17  20 4488.06  161.46
   1  17  2318097.24  396.09
   1  17  26 6574.46  264.96
   1  17  32 1300.92  101.50
   1  17  38  528.95   79.40
   1  17  41  124.40  163.39
   1  17  47  140.49   77.65
   1  17  53    0.74   49.06
   1  17  56   18.05   71.80
   1  17  59   18.87   75.69
   1  17  62   67.60  100.18
   1  17  65   54.01   59.56
   1  17  71    5.18   75.34
   1  18 -59   47.15   72.76
   1  18 -56   94.67   96.55
   1  18 -50  704.69  230.86
   1  18 -47  341.60  196.13
   1  18 -44  158.05   89.51
   1  18 -41 3356.18  316.06
   1  18 -35  805.30   79.36
   1  18 -32  741.95   86.43
   1  18 -29 1080.08  149.85
   1  18 -26  535.39   31.36
   1  18 -23  311.02   93.00
   1  18 -20 5593.26  328.26
   1  18 -17 4765.13  307.75
   1  18 -14  696.04   60.71
   1  18 -11  511.94   51.06
   1  18  -812868.19  221.22
   1  18  -5 2990.64  173.94
   1  18  -2 1290.36   47.34
   1  18   1   57.77   61.21
   1  18   411056.06  366.30
   1  18   711722.73  460.00
   1  18  13 3407.26  147.70
   1  18  16  570.65   88.74
   1  18  22  147.89   52.15
   1  18  25 4111.47  166.28
   1  18  34  168.62   45.66
   1  18  37  584.85  131.75
   1  18  40   51.54   78.45
   1  18  43 1122.78  140.38
   1  18  46   75.40   79.50
   1  18  58  111.54   66.04
   1  18  70   76.96   85.64
   1  19 -72   35.39   67.01
   1  19 -63    1.87   73.58
   1  19 -57   67.27   76.03
   1  19 -42   20.05   46.26
   1  19 -39  616.93  106.73
   1  19 -36  719.32  108.14
   1  19 -30  943.90  138.22
   1  19 -27 1800.79  163.43
   1  19 -24 3756.49  145.66
   1  19 -21 2083.29   98.24
   1  19 -18 2344.60  166.99
   1  19  -9 1067.88   61.68
   1  19  -610449.18  214.44
   1  19  -3 1067.62   55.37
   1  19   0 4440.38   57.63
   1  19   3   81.17  153.05
   1  19   6 5373.97  371.59
   1  19  12 2928.06  153.54
   1  19  21  754.51   78.97
   1  19  30 2218.92  165.72
   1  19  36  325.54  146.14
   1  19  39   36.40   50.46
   1  19  45  598.24   93.68
   1  19  63   34.05   71.82
   1  20 -73   32.90   82.92
   1  20 -55   48.22   79.11
   1  20 -52  555.68   68.73
   1  20 -46  384.37  123.35
   1  20 -43  206.48   83.27
   1  20 -40   65.64   88.95
   1  20 -34  785.76  111.68
   1  20 -31  206.74   64.39
   1  20 -28  768.22   94.90
   1  20 -25  189.01   61.17
   1  20 -19 2271.00  167.86
   1  20 -13 7551.40  265.79
   1  20 -10  285.03   71.32
   1  20  -7 2593.91  157.50
   1  20  -4 1877.16   57.43
   1  20  -1 4126.54  201.81
   1  20   2 1200.86   47.73
   1  20   5 4147.00  147.57
   1  20  11  588.66   77.20
   1  20  14  151.62   79.02
   1  20  17    1.86   27.99
   1  20  20 1380.97   66.65
   1  20  23 5684.19  282.81
   1  20  26  406.03   78.03
   1  20  29 1157.53  113.43
   1  20  32  297.74   65.54
   1  20  35  586.02  126.46
   1  20  41  804.00   89.05
   1  20  59   92.42   54.40
   1  20  68   14.32   41.66
   1  20  71  175.04   72.76
   1  21 -68   16.66   72.07
   1  21 -62  172.38  126.82
   1  21 -56   21.37   97.65
   1  21 -47  313.81  161.38
   1  21 -35  119.65   76.16
   1  21 -23  946.54  122.90
   1  21 -17  228.89   51.80
   1  21 -14 1750.24  166.81
   1  21 -11    0.09   85.54
   1  21  -8 2781.80  131.96
   1  21  -5   72.87   35.17
   1  21  -2 4046.63  120.28
   1  21   1 3475.84  154.47
   1  21   4 7552.86  333.22
   1  21   7 7868.57  413.70
   1  21  13 2202.30  125.16
   1  21  16  498.15   87.28
   1  21  19 1672.69  140.67
   1  21  25  383.21   57.90
   1  21  28  734.80   87.81
   1  21  31 1532.41   85.16
   1  21  37   87.01   70.82
   1  21  40  499.53   70.41
   1  21  43  233.69   91.66
   1  21  55  104.11   97.67
   1  21  64   43.62   65.74
   1  21  70   94.78   53.40
   1  22 -69  197.10  142.92
   1  22 -63   55.33   87.52
   1  22 -60   36.71   58.36
   1  22 -54   40.53  135.24
   1  22 -51   85.83   82.90
   1  22 -42  189.80   78.02
   1  22 -39  457.01  134.18
   1  22 -33  516.53  141.27
   1  22 -30   24.40   53.19
   1  22 -27  788.91   85.81
   1  22 -24  156.51   41.54
   1  22 -21  584.01   97.35
   1  22 -18  178.30   51.81
   1  22 -15  305.72   79.65
   1  22 -12 1951.65  192.86
   1  22  -6  317.33   89.15
   1  22   0 3597.37  247.58
   1  22   3    6.59   30.31
   1  22  12  192.36   77.52
   1  22  15  281.72   35.32
   1  22  2111425.48  949.62
   1  22  24  981.82  114.98
   1  22  27  227.53   38.09
   1  22  30 3009.89  260.07
   1  22  42  321.18  103.25
   1  22  45  272.82   66.26
   1  22  48  370.49   55.47
   1  22  54   23.01   40.63
   1  22  57  410.37   76.56
   1  22  60   89.08   47.60
   1  22  63   77.42   55.18
   1  22  66   15.88   45.85
   1  23 -70   82.30  122.63
   1  23 -64   16.27  100.04
   1  23 -61  161.19   95.41
   1  23 -52   68.82   64.41
   1  23 -49   19.08  177.15
   1  23 -37  357.71   91.76
   1  23 -34  534.93  134.15
   1  23 -28  982.51  139.35
   1  23 -22  173.86   58.30
   1  23 -19   95.97   37.86
   1  23 -16   26.96   69.86
   1  23 -13  408.46   34.12
   1  23 -10 2256.97   79.39
   1  23   5 3453.25  152.25
   1  23   8 1529.98  107.62
   1  23  11 2544.76  370.37
   1  23  17  335.87   55.81
   1  23  23  531.78   42.67
   1  23  29  501.43   81.48
   1  23  32  435.71   68.97
   1  23  41 2372.77  178.11
   1  23  44  221.36   98.88
   1  23  56  277.92   82.93
   1  23  59    1.25   79.00
   1  23  68   87.40   70.63
   1  24 -56  267.28  101.73
   1  24 -53  700.08  115.22
   1  24 -50  356.88  100.19
   1  24 -44  125.71   81.20
   1  24 -41  285.52   99.26
   1  24 -35 1256.39  190.32
   1  24 -32  379.60  115.70
   1  24 -29 2234.83  318.67
   1  24 -23   65.26   39.06
   1  24 -17  462.16   78.16
   1  24 -14  183.26   40.07
   1  24 -11  399.89   83.26
   1  24  -8   54.32   19.17
   1  24  -5 3085.15  127.22
   1  24  -2    5.07   44.30
   1  24   1   65.77   59.50
   1  24  10 1417.41  122.41
   1  24  13 1207.06  183.45
   1  24  16  926.14  206.55
   1  24  19   85.27  164.48
   1  24  22  499.32  138.89
   1  24  28  108.65   47.07
   1  24  34 1380.94  101.21
   1  24  37  441.75   69.78
   1  24  40 1043.81  139.45
   1  24  43  245.02   64.98
   1  24  46  240.43   71.93
   1  24  55  131.69   66.33
   1  25 -66  112.68  145.74
   1  25 -48  444.65  108.16
   1  25 -45  482.82  104.11
   1  25 -42  117.62   35.04
   1  25 -33   23.87  110.96
   1  25 -30  179.00   63.60
   1  25 -27  258.63  130.02
   1  25 -21 1738.69  165.71
   1  25 -18  508.71   75.28
   1  25 -15  146.79   40.94
   1  25 -12   20.17   55.63
   1  25  -9 1979.03  190.28
   1  25  -3  911.06   55.73
   1  25   0 1160.66  130.29
   1  25   3  951.24  118.07
   1  25   6   30.87   61.00
   1  25   9  131.10   37.17
   1  25  12  327.33   78.51
   1  25  18 1744.30  227.44
   1  25  21  632.85   61.59
   1  25  27  315.81   88.48
   1  25  30 1304.58  128.85
   1  25  48 1033.94  177.14
   1  25  51   66.36  111.87
   1  25  54   33.69   80.70
   1  25  57  225.56   74.17
   1  25  60    9.95   92.97
   1  25  63    1.13   56.18
   1  25  66  249.25   67.52
   1  26 -58  150.36   86.93
   1  26 -55   10.50   89.49
   1  26 -46  149.93   86.78
   1  26 -43  227.88   64.93
   1  26 -37  149.17  129.95
   1  26 -28  620.88  118.76
   1  26 -25  106.99   55.48
   1  26 -22   59.47   41.38
   1  26 -19 1572.95  225.60
   1  26 -16  319.72   61.67
   1  26 -10  538.24   56.53
   1  26  -7  479.35   78.52
   1  26  -4 2578.92  321.98
   1  26  -1 1350.68  123.77
   1  26   2  262.68  126.20
   1  26   5 1882.74  248.91
   1  26   8 1182.00   98.30
   1  26  11  602.76   54.32
   1  26  14   58.50   47.49
   1  26  23 1115.70   90.50
   1  26  26   39.45   41.87
   1  26  29  302.19  116.48
   1  26  32   56.43   89.03
   1  26  41  666.89   86.37
   1  26  47  494.20   92.66
   1  26  53  112.59   82.29
   1  26  56   29.45   85.94
   1  26  59    7.25   61.35
   1  27 -59   87.22   89.59
   1  27 -56   67.19  115.30
   1  27 -47   57.91   54.89
   1  27 -44  679.99  195.36
   1  27 -35  262.30  128.12
   1  27 -32  517.49  183.71
   1  27 -17  274.87  108.09
   1  27 -14  936.02  102.98
   1  27 -11   35.26   47.62
   1  27  -8 1033.77  187.73
   1  27  -5 2162.71  132.58
   1  27  -2  147.67   59.48
   1  27   4  448.70   75.00
   1  27   7   38.19   42.79
   1  27  10   42.51   45.77
   1  27  13  162.60   84.21
   1  27  16  147.49  126.89
   1  27  25  721.77  192.22
   1  27  28  557.73  149.95
   1  27  34  336.88   74.72
   1  27  37  676.60   86.31
   1  27  46  281.18   95.06
   1  27  61   26.70   67.81
   1  27  64  140.06   60.27
   1  28 -63   24.78   76.88
   1  28 -54    4.30   70.33
   1  28 -45  115.54   60.99
   1  28 -39  417.07   85.86
   1  28 -30  198.60  135.99
   1  28 -24  208.94   60.29
   1  28 -21   70.52   99.96
   1  28 -18  143.59   98.33
   1  28 -15  313.10   44.11
   1  28  -9   31.66   60.00
   1  28  -3 1116.07  122.75
   1  28   0 2186.53  223.24
   1  28   6  814.31  131.12
   1  28  12   38.60   74.48
   1  28  15  385.51   92.95
   1  28  24  415.01   74.48
   1  28  30  187.28   94.28
   1  28  39   31.15   62.41
   1  28  51   65.64   59.71
   1  29 -61  133.57  106.51
   1  29 -58  266.50   94.96
   1  29 -37   36.63   62.06
   1  29 -31  650.19  119.52
   1  29 -22   50.51   69.71
   1  29 -19  252.80   60.37
   1  29 -16  250.05   67.23
   1  29 -13  340.56  141.69
   1  29 -10   95.70   76.89
   1  29  -7  341.98   81.76
   1  29  -4 2443.02  247.40
   1  29  -1  463.51   68.81
   1  29   2 1168.57  159.83
   1  29   5   13.28   55.15
   1  29   8  399.50  134.01
   1  29  14  450.93  122.62
   1  29  29   53.63  147.36
   1  29  38  216.95  102.27
   1  29  41  863.26  144.20
   1  29  44  174.85   42.78
   1  29  53  194.62  162.45
   1  30 -41  298.72  107.74
   1  30 -32  168.83   81.77
   1  30 -29  868.33   92.96
   1  30 -26  525.82  174.57
   1  30 -23 1144.55  139.63
   1  30 -20  652.08  102.89
   1  30 -17   85.75   64.09
   1  30 -14 1626.12  221.63
   1  30 -11  584.33  104.66
   1  30  -8  213.59   92.95
   1  30  -2   98.56   54.54
   1  30   1   27.68   40.24
   1  30   4  847.30  285.33
   1  30  10  134.40   83.25
   1  30  37  326.42  122.60
   1  30  49   96.79   70.80
   1  31 -51   98.93   55.87
   1  31 -45   93.88  124.23
   1  31 -30  111.78   56.89
   1  31 -27   99.14   57.63
   1  31 -24  239.17   71.58
   1  31 -21  813.51  260.52
   1  31 -18  325.38  108.98
   1  31 -15   77.00   51.63
   1  31  -9   33.49   73.79
   1  31  -6   55.08   65.71
   1  31  -3  197.28  113.94
   1  31   3    0.50   60.70
   1  31  15  551.80  178.71
   1  31  27  198.79   91.43
   1  31  39  167.18  158.12
   1  31  42  349.93   70.80
   1  31  48   46.26   61.86
   1  31  54  137.94  132.33
   1  32 -55  118.27   86.97
   1  32 -46    4.83   87.82
   1  32 -31  406.39   78.74
   1  32 -28  660.65   72.35
   1  32 -25  764.31  196.25
   1  32 -19  299.37  106.69
   1  32 -16  395.93  104.20
   1  32  -7  375.78   84.95
   1  32   8  173.74   97.10
   1  32  14   81.82  108.26
   1  32  17   76.67  100.67
   1  32  20   89.92   82.90
   1  32  26  292.31  128.17
   1  32  47   60.60   63.74
   1  32  50  245.39   78.53
   1  32  56  205.86   92.09
   1  33 -41  362.12  117.93
   1  33 -38  292.22   94.95
   1  33 -29   27.70  104.39
   1  33 -20  267.90   59.23
   1  33 -17  228.50   77.21
   1  33 -14  156.27   96.14
   1  33  -2   93.38  111.68
   1  33   1   35.54   98.16
   1  33   7  150.36   99.68
   1  33  10  334.52   90.84
   1  33  13  216.82  173.88
   1  33  19   31.51  121.04
   1  33  31   62.95   96.82
   1  33  37   51.27   76.67
   1  33  49  106.58   58.94
   1  33  52    4.68   71.08
   1  34 -51    0.01  120.03
   1  34 -45  101.02  169.46
   1  34 -36  458.59  149.65
   1  34 -27   19.59  169.52
   1  34 -21  118.98   91.50
   1  34 -18   99.48   89.06
   1  34 -12  309.07  110.34
   1  34  -9  601.78  115.99
   1  34  -6  530.88  143.21
   1  34  -3 1090.53  146.61
   1  34   0  555.43   91.82
   1  34   3  172.26   90.62
   1  34   9    9.51   69.72
   1  34  18 1098.02  498.34
   1  34  36   15.98   90.45
   1  34  45   13.34   63.88
   1  35 -49   89.60  125.49
   1  35 -31   31.85  133.93
   1  35 -28  263.62  115.74
   1  35 -16   77.11   53.78
   1  35 -13  264.55  139.43
   1  35 -10   13.53   93.02
   1  35  -4  139.41   80.09
   1  35   8  100.52   74.28
   1  35  14  202.76   88.31
   1  35  23  111.40  107.18
   1  35  26  861.40  170.62
   1  35  29  168.32  149.02
   1  35  32   21.68  202.57
   1  35  47  138.41  111.78
   1  35  50   23.56   81.45
   1  36 -41  214.07  144.07
   1  36 -38    0.07   66.25
   1  36 -32  307.35   96.88
   1  36 -26    5.02   69.41
   1  36 -23  168.22   97.70
   1  36 -14   65.67   84.53
   1  36  -5  142.26   54.10
   1  36   1  377.70  121.22
   1  36  10  414.55  136.87
   1  36  16  365.66   77.75
   1  36  19  198.45  103.79
   1  36  25  343.72  187.09
   1  36  28   38.65  124.40
   1  36  40  161.66  140.46
   1  36  43  115.88  180.08
   1  37 -36  373.02  104.02
   1  37 -30  178.26  102.38
   1  37 -21   87.27  107.12
   1  37 -15  161.10  129.11
   1  37 -12  182.83   74.02
   1  37  -3  274.25  101.25
   1  37   6  429.87  285.44
   1  37   9  774.04  143.61
   1  37  12  166.02  104.80
   1  37  21   70.05  198.01
   1  37  24  167.54  119.76
   1  37  27  125.67  164.84
   1  37  30  217.28  150.08
   1  37  45   43.13   89.87
   1  38 -31  201.02   96.53
   1  38 -28  109.34   98.06
   1  38 -19  283.47  132.05
   1  38 -16  342.17  153.52
   1  38 -13   83.52  122.61
   1  38  -1    8.47   81.12
   1  38  17  230.67  211.98
   1  38  23    3.11  116.33
   1  38  29    6.65  117.76
   1  39 -41   26.53  139.27
   1  39 -35  119.56  201.26
   1  39 -23  176.69  123.50
   1  39 -20  131.40  167.63
   1  39   4  259.03  247.28
   1  39   7  454.38   94.03
   1  39  10  524.42  130.40
   1  39  19  197.01   94.79
   1  39  25   94.76  124.35
   1  39  28  168.53  104.84
   1  39  31   28.42  135.49
   1  39  37  166.42  149.05
   1  39  40   53.09  178.87
   1  40 -36   22.78  131.20
   1  40 -18   13.53   82.09
   1  40 -12   57.83   94.52
   1  40  12  296.70  142.55
   1  40  27  187.45  106.73
   1  41 -28  231.91  119.29
   1  41 -19   38.76   66.39
   1  41   8  321.45  195.94
   1  41  29  154.93   97.39
   1  41  32   44.55   79.50
   1  42  -8   17.31   54.73
   1  42  -5   38.74  106.09
   1  42   1  326.44  103.51
   1  42  10   48.82  157.08
   1  42  16   88.63   90.37
   1  42  19   41.69   73.62
   1  43 -21  135.55   98.44
   1  43 -18    0.11  107.50
   1  43  -9  240.34  203.39
   1  43  -6  136.54   70.76
   1  43   3  214.25  137.06
   1  43   6  520.98  161.78
   1  43   9  397.24  131.27
   1  43  18   68.47   77.06
   1  43  24   98.00   66.55
   1  44  -1  399.91  120.64
   1  44   2  153.88  151.55
   1  44   8  309.63  155.67
   1  44  14  139.18  106.50
   1  44  20  118.55   75.86
   1  45   7  178.85   69.23
   1  45  10  147.44   91.53
   2   1 -71   25.02   59.69
   2   1 -62   89.65   79.78
   2   1 -59  630.54   79.61
   2   1 -50  338.69   58.21
   2   1 -47 2348.58  102.60
   2   1 -44 1199.94  151.22
   2   1 -41 1164.17  142.17
   2   1 -38  463.61   61.95
   2   1 -35 2265.90  164.20
   2   1 -26 2110.91  101.87
   2   1 -23 4525.23  218.65
   2   1 -20  181.26   32.55
   2   1 -1724069.26  704.55
   2   1 -11 7896.40   68.06
   2   1  -831437.01  455.31
   2   1   741140.63  223.04
   2   1  10 1389.14   68.36
   2   1  1920102.50  230.97
   2   1  22  890.25  176.11
   2   1  25 8744.29  283.96
   2   1  28 3261.96  117.06
   2   1  34  348.56   73.85
   2   1  37   63.17   37.45
   2   1  40  247.18   32.50
   2   1  43  596.66  116.67
   2   1  46 4424.09  225.91
   2   1  49   55.59   38.19
   2   1  52  303.61   56.16
   2   1  55   64.49   48.94
   2   1  58  112.08   49.09
   2   1  67   68.13   51.16
   2   1  73    4.47   54.75
   2   1  76    1.29   51.56
   2   1  79    8.83   73.45
   2   2 -81  105.01   94.66
   2   2 -78   66.87   65.75
   2   2 -75    7.94   44.10
   2   2 -66  279.70   56.74
   2   2 -63  167.48  112.00
   2   2 -60   31.82   44.28
   2   2 -54 1924.91  168.78
   2   2 -51 1644.31  172.61
   2   2 -48  354.90   53.33
   2   2 -39 2786.35  177.39
   2   2 -30 1475.64   94.05
   2   2 -2718573.92  420.52
   2   2 -24 7667.41  377.96
   2   2 -2128340.29  420.06
   2   2 -18 6957.61  420.66
   2   2 -15 1123.57   74.49
   2   2 -12  748.99  110.90
   2   2  -9 4182.07  167.14
   2   2  -630826.66  370.77
   2   2   654691.09  670.80
   2   2   942537.65  148.19
   2   2  12  395.30   50.79
   2   2  1520120.18  129.02
   2   2  18 7212.34  296.25
   2   2  21 8851.74  171.12
   2   2  24  126.64   76.68
   2   2  27 2186.21   77.95
   2   2  30   15.73   70.42
   2   2  33 1013.33  110.72
   2   2  36 2032.86  159.79
   2   2  42 3479.06  184.09
   2   2  45   68.58   37.97
   2   2  51   75.12   35.20
   2   2  54  592.77   46.33
   2   3 -73  263.15   47.42
   2   3 -67   29.74   66.35
   2   3 -58  380.98   98.25
   2   3 -49 1001.36  102.68
   2   3 -46    5.24   35.21
   2   3 -40  484.02  101.33
   2   3 -37  373.30   73.97
   2   3 -34 3660.89   90.77
   2   3 -31 3711.60  272.63
   2   3 -28 1397.40  106.79
   2   3 -2212379.55  223.55
   2   3 -19 4220.94  169.36
   2   3 -1624355.77  656.11
   2   3 -1311621.57  148.32
   2   3 -1042986.85  314.59
   2   3  -7 1181.38   44.70
   2   3  -4278916.4  311.78
   2   3  -1 2251.80  136.62
   2   3   2 5950.16  243.78
   2   3   5100866.5  327.08
   2   3   8 1906.04  125.86
   2   3  1115132.68  150.30
   2   3  14  179.39  161.03
   2   3  17 2035.85  117.27
   2   3  2084848.41  640.74
   2   3  2316805.78  299.76
   2   3  29 1435.49  398.96
   2   3  32   75.36   92.29
   2   3  35 1878.92  255.73
   2   3  44  398.01   66.50
   2   3  47  112.02   30.72
   2   3  53  333.69   69.66
   2   3  56  191.54   50.74
   2   3  62  321.97   63.94
   2   3  65  225.00   68.95
   2   3  77   24.18   59.47
   2   4 -62   46.92   45.24
   2   4 -59   61.34   44.99
   2   4 -56    7.56   57.29
   2   4 -53   99.79   53.45
   2   4 -50  411.07   54.90
   2   4 -47 3785.76  358.87
   2   4 -41 1920.23  138.07
   2   4 -3810741.94  550.08
   2   4 -35  645.23   81.40
   2   4 -29    3.98   78.11
   2   4 -26  830.48  237.68
   2   4 -23   61.24   49.97
   2   4 -20  353.53   37.99
   2   4 -17 2331.52  155.16
   2   4 -1136599.56  533.01
   2   4  -8124407.8  466.15
   2   4  -237053.26   82.34
   2   4   1 1951.24   59.67
   2   4   425192.19  179.17
   2   4   7 8388.36  101.99
   2   4  1011925.51   42.42
   2   4  1318837.17  261.65
   2   4  1628321.99  340.66
   2   4  1940578.91  405.63
   2   4  22  451.85   47.75
   2   4  25 2655.87  128.42
   2   4  31  377.56  177.17
   2   4  34 8719.75  422.81
   2   4  37  274.95   38.10
   2   4  40  408.35   84.47
   2   4  46  564.93   82.90
   2   4  49  352.43   61.56
   2   4  55  400.76   71.96
   2   4  58  557.93   91.31
   2   4  61   75.29   58.36
   2   4  79   65.02   69.35
   2   5 -78  105.19   56.52
   2   5 -75  136.91   43.48
   2   5 -72   74.86   50.82
   2   5 -63  141.91   73.80
   2   5 -60  132.40   96.55
   2   5 -57   95.33   43.76
   2   5 -54    0.51   47.98
   2   5 -48  910.62  105.75
   2   5 -45  308.04   37.27
   2   5 -42  416.87   57.24
   2   5 -36  115.44   70.58
   2   5 -30 7377.94  387.97
   2   5 -24 2381.00   95.38
   2   5 -21 5881.01   50.69
   2   5 -18 1053.56  193.93
   2   5 -12  294.95  181.60
   2   5  -9  525.24   81.27
   2   5  -623892.23  330.19
   2   5  -335518.03  270.08
   2   5   027451.25  164.87
   2   5   3 5276.63  108.65
   2   5   647452.60  214.98
   2   5   940304.80   77.66
   2   5  1215069.25  226.69
   2   5  1576982.08  770.04
   2   5  1821340.65  280.05
   2   5  2110496.05  244.27
   2   5  24 1164.54  199.29
   2   5  27  101.85  133.74
   2   5  33 2790.62  232.77
   2   5  36  624.71  107.56
   2   5  48  373.81   76.62
   2   5  51  114.29   56.08
   2   5  54  251.19   58.80
   2   5  57  209.38  140.29
   2   5  60  164.77   47.31
   2   5  66  219.56   43.45
   2   5  69  107.36   51.83
   2   5  72   31.52   50.87
   2   5  75   54.71   45.04
   2   6 -79   64.74   56.56
   2   6 -76    4.58   59.93
   2   6 -67  179.49  122.17
   2   6 -64   91.36   60.12
   2   6 -61    0.21   36.58
   2   6 -58  232.16   83.81
   2   6 -43  279.18   75.42
   2   6 -40 2201.07  125.77
   2   6 -37  769.84  133.85
   2   6 -3131114.73 1009.99
   2   6 -28 2031.35  207.42
   2   6 -25 1906.27  156.61
   2   6 -22 5384.72   90.75
   2   6 -19 2926.74  252.97
   2   6 -1649894.48  609.69
   2   6 -1316782.57  148.42
   2   6 -1033759.00  251.88
   2   6  -7 3470.37   52.59
   2   6  -117913.23  153.18
   2   6   2  330.61  181.26
   2   6   5 2684.13  205.38
   2   6   818421.93  349.58
   2   6  1154998.13  633.84
   2   6  14325174.3 1167.38
   2   6  17 3215.05  100.24
   2   6  20 6828.41   95.71
   2   6  26 9599.39  340.02
   2   6  29    0.20  103.17
   2   6  32  662.52   51.63
   2   6  35  272.33  247.61
   2   6  38 1124.64  128.76
   2   6  41 1099.38  112.76
   2   6  47  158.00   59.56
   2   6  59  656.75  102.50
   2   6  65   15.27   63.99
   2   6  77    0.69   71.20
   2   6  80    5.70   69.81
   2   7 -80   86.35   64.61
   2   7 -74  115.08   77.11
   2   7 -71   92.29   68.66
   2   7 -68  185.90   45.64
   2   7 -59  342.56  110.16
   2   7 -56   83.45   74.75
   2   7 -53  279.74   67.42
   2   7 -44 1674.50  158.87
   2   7 -41 2554.23  249.36
   2   7 -35  905.27   88.60
   2   7 -29 2105.43  245.02
   2   7 -26  338.78   69.28
   2   7 -23    3.98   53.25
   2   7 -1418051.51  204.00
   2   7 -11 7016.73  237.88
   2   7  -8 1929.28  212.10
   2   7  -5  246.47   42.40
   2   7  -2 7664.93   52.82
   2   7   1  479.07   94.43
   2   7   780227.57  216.86
   2   7  13455610.5 3125.36
   2   7  1638391.64  432.37
   2   7  19 4433.74  114.94
   2   7  2224512.54  301.98
   2   7  28 8455.73  417.19
   2   7  31 2888.43  210.29
   2   7  34 3131.41  275.06
   2   7  40 3258.20  316.62
   2   7  43   34.50   30.81
   2   7  46  271.93   63.25
   2   7  55  238.11   62.27
   2   7  61   50.98   62.45
   2   7  64  180.79   63.57
   2   7  76   12.07   45.17
   2   8 -78   83.48   71.33
   2   8 -69  173.16   54.84
   2   8 -60   91.58   73.86
   2   8 -57  369.79   67.03
   2   8 -54  508.42   78.66
   2   8 -51 2410.41  249.09
   2   8 -48  549.28   99.42
   2   8 -42 2867.36  214.37
   2   8 -39   61.18   50.97
   2   8 -36    0.91   50.87
   2   8 -33  344.15   54.22
   2   8 -30 2605.05  542.64
   2   8 -27  776.05  124.06
   2   8 -2411065.64  265.31
   2   8 -21 5979.79   66.53
   2   8 -18 3309.74   32.42
   2   8 -1524206.54  207.10
   2   8 -12 2249.80  161.35
   2   8  -915219.34  152.58
   2   8  -619234.08  286.92
   2   8  -327033.76  142.34
   2   8   044685.26  253.57
   2   8   323798.82   85.53
   2   8   6   55.13   83.53
   2   8   983063.35  764.65
   2   8  12 1453.74  140.13
   2   8  15 4037.03  178.12
   2   8  1811710.08   84.80
   2   8  2119830.41  206.26
   2   8  24    2.60   34.33
   2   8  27  655.44   90.48
   2   8  30 7928.64  506.12
   2   8  33 7706.68  341.09
   2   8  36 1584.84  244.82
   2   8  39 1412.27  145.05
   2   8  42 1200.41  107.30
   2   8  45 1281.61  151.67
   2   8  48  311.45   48.50
   2   8  51  135.32   81.46
   2   8  66  278.78   74.95
   2   8  69   63.51   43.79
   2   8  75   99.95   76.99
   2   8  78   91.08   68.12
   2   9 -79    4.01   62.02
   2   9 -76   12.07   50.48
   2   9 -70   44.44   67.34
   2   9 -67   82.60   59.71
   2   9 -55  112.59  147.01
   2   9 -52  439.70  118.48
   2   9 -46 1200.41  151.06
   2   9 -43  660.28   81.52
   2   9 -40 1061.98  120.67
   2   9 -37 1102.87  175.48
   2   9 -34 4573.10  320.09
   2   9 -3125369.39  507.57
   2   9 -2828783.67  595.39
   2   9 -25  875.71  124.92
   2   9 -22 1787.18  161.45
   2   9 -19   55.10   49.79
   2   9 -16  261.69   82.75
   2   9 -1311881.46  146.21
   2   9 -10 3919.41  185.31
   2   9  -7 2739.02   76.38
   2   9  -410575.97   29.15
   2   9  -1  276.34   74.55
   2   9   2 8247.77  144.55
   2   9   526347.91  262.24
   2   9   843057.25  546.42
   2   9  1188541.50 1611.46
   2   9  14  139.97  122.30
   2   9  1731271.64  288.20
   2   9  20 7161.84  232.39
   2   9  2323333.38  392.04
   2   9  26 1026.84   59.42
   2   9  29 1005.14   65.10
   2   9  35 8990.88  366.24
   2   9  38  223.78   96.08
   2   9  44  936.15   46.24
   2   9  50  215.32   89.08
   2   9  59  568.21   77.52
   2   9  65  191.67   77.39
   2  10 -65   84.20   73.11
   2  10 -62    1.34   54.31
   2  10 -59  641.92  124.74
   2  10 -56    8.10   57.82
   2  10 -50 3259.32  408.87
   2  10 -47  703.41  121.93
   2  10 -44   19.26   38.35
   2  10 -38   39.59   67.59
   2  10 -32 3215.49  261.33
   2  10 -29  761.87   66.62
   2  10 -2619710.59  409.35
   2  10 -23 1008.05  334.51
   2  10 -17  322.25   44.57
   2  10 -14  159.49   45.63
   2  10 -11 2345.99   83.93
   2  10  -8 3342.98  132.46
   2  10  -2 9768.78  168.51
   2  10   1 4013.37  116.30
   2  10   436366.47  531.03
   2  10   711676.86  277.42
   2  10  10152430.1  661.71
   2  10  13 3644.19  119.77
   2  10  1614513.11  249.47
   2  10  19 2313.13  207.68
   2  10  2213259.71  437.28
   2  10  2540490.33  572.34
   2  10  28  190.41   41.48
   2  10  31    9.96   91.00
   2  10  37 4390.96  353.68
   2  10  40 1692.50  124.91
   2  10  46 1918.66  221.94
   2  10  49  292.03   59.58
   2  10  58  127.62   58.04
   2  10  61  185.80   95.57
   2  10  64  149.21   58.20
   2  10  67   77.47   59.72
   2  10  73    9.19   49.25
   2  10  76   55.11   56.16
   2  11 -66    0.92   87.91
   2  11 -63  169.62   52.46
   2  11 -60  159.36   65.81
   2  11 -51  174.04   63.14
   2  11 -48   40.06   68.23
   2  11 -45 1013.68  105.23
   2  11 -42  306.30   88.13
   2  11 -39  828.54  115.98
   2  11 -33 1760.16  169.34
   2  11 -30 7690.80  402.44
   2  11 -27 4866.98  131.77
   2  11 -24 8013.54  306.27
   2  11 -21 2209.59  208.88
   2  11 -1816559.89  236.24
   2  11 -15 1467.98  102.14
   2  11 -12 9182.55  110.44
   2  11  -9 3751.64  120.53
   2  11  -6 4470.91  144.40
   2  11  -310569.93  158.52
   2  11   0  865.09  199.32
   2  11   3 2901.42  177.61
   2  11   9 6968.91   94.13
   2  11  12 2282.41  129.22
   2  11  15 4283.02  150.13
   2  11  18 4161.71  173.02
   2  11  2139202.39  654.93
   2  11  24  199.18   67.10
   2  11  27    0.37   87.45
   2  11  30 5803.29  353.28
   2  11  33  625.29   47.04
   2  11  36  299.58   63.64
   2  11  39 2710.66  158.79
   2  11  45  130.19   57.22
   2  11  48   69.07   66.22
   2  11  51  101.16   68.78
   2  11  63   20.14   51.34
   2  11  66  203.72   80.35
   2  11  72    9.13   51.98
   2  11  75    8.20   43.91
   2  11  78   23.61   61.22
   2  12 -76   35.88   57.74
   2  12 -64  207.76  147.48
   2  12 -61   19.44   57.57
   2  12 -58   33.92   53.79
   2  12 -46 2133.65  306.78
   2  12 -43  846.51  113.41
   2  12 -37  989.73  166.92
   2  12 -34 1949.67  116.05
   2  12 -25  785.14  145.90
   2  12 -22 3752.05  173.54
   2  12 -1915572.34  309.79
   2  12 -16  318.41   57.16
   2  12 -10  878.31   84.32
   2  12  -4  602.01   57.65
   2  12  -1  600.59   94.95
   2  12   2 3401.11  102.96
   2  12   5 3834.13  123.49
   2  12   817126.62  181.63
   2  12  11 8056.17  194.26
   2  12  1415387.84  167.11
   2  12  1734087.43  856.49
   2  12  2081871.36 2024.31
   2  12  2312102.85  294.18
   2  12  29  654.86   54.49
   2  12  32 6354.72  350.81
   2  12  35 2477.60  192.87
   2  12  38  743.20  145.56
   2  12  47  143.09   83.17
   2  12  50  114.32   82.11
   2  12  65   82.66   44.97
   2  12  74   13.04   88.63
   2  13 -74    0.03   52.02
   2  13 -71  178.17   61.05
   2  13 -68   75.00   53.10
   2  13 -62    0.52   50.09
   2  13 -44  696.91  176.84
   2  13 -38 2314.37  265.33
   2  13 -35 1032.22  168.14
   2  13 -26 1315.98   46.79
   2  13 -2312698.93  272.71
   2  13 -17 2181.11   37.76
   2  13 -14 1477.46   56.78
   2  13 -11 3031.63   38.18
   2  13  -8    4.48   47.30
   2  13  -5 4170.65  125.63
   2  13  -2  573.23   74.44
   2  13   413376.07   97.50
   2  13   7 6398.48   43.76
   2  13  1012488.19  250.77
   2  13  1613666.51  288.07
   2  13  1924694.44  847.54
   2  13  22  764.56  140.44
   2  13  25 5834.73  307.43
   2  13  28    2.06   96.01
   2  13  3113505.48  445.44
   2  13  34  376.15  113.30
   2  13  37  489.22   69.87
   2  13  40   31.77   56.32
   2  13  46 2881.58  232.15
   2  13  52   75.81   57.80
   2  13  58  130.78   64.23
   2  13  61  108.93   70.52
   2  13  67   28.51   78.03
   2  13  76   31.14   67.97
   2  14 -69   39.11   46.69
   2  14 -63   14.68   53.93
   2  14 -51  109.30   87.26
   2  14 -45  350.96   94.72
   2  14 -33  510.17   91.51
   2  14 -30 1363.70   96.86
   2  14 -27 2536.31  119.50
   2  14 -24 1703.78  187.39
   2  14 -21 6254.31  255.04
   2  14 -18  443.44  122.24
   2  14 -15 1865.43  140.76
   2  14 -12 2235.70  101.59
   2  14  -9   46.38   77.63
   2  14  -6   19.13   79.48
   2  14  -3 1577.79   83.35
   2  14   0  754.60   40.92
   2  14   3 1611.78   78.69
   2  14  1211916.59  328.50
   2  14  1527135.85  329.12
   2  14  1819795.13  406.16
   2  14  21 5262.26  198.67
   2  14  24 1839.76   75.87
   2  14  27 6167.42  314.65
   2  14  30 7685.77  266.58
   2  14  33 1952.16  145.01
   2  14  36  221.31   49.92
   2  14  39 2066.78  228.53
   2  14  42 2205.85  324.53
   2  14  45  371.30   85.78
   2  14  51  439.57   71.68
   2  14  54   68.70   46.83
   2  14  57   33.75   55.62
   2  14  63   98.58   88.79
   2  14  66   75.54   63.46
   2  14  72   83.48  104.94
   2  15 -67  145.37   76.78
   2  15 -61  141.32   85.63
   2  15 -58   94.59   65.96
   2  15 -55  135.30   89.86
   2  15 -49  287.18  151.52
   2  15 -46   43.92   43.35
   2  15 -43 2624.77  282.06
   2  15 -37  171.25   46.32
   2  15 -31 4025.75  194.58
   2  15 -28 2087.78  128.82
   2  15 -25   63.35   38.69
   2  15 -22 2519.16  109.67
   2  15 -19 9427.45  229.08
   2  15 -16 4821.05  266.39
   2  15 -13   29.37   46.31
   2  15 -10   52.71   77.53
   2  15  -7  577.79   42.58
   2  15  -4 9722.89  206.53
   2  15  -114627.59  179.42
   2  15   5 2928.17  192.78
   2  15   8 1817.27  183.21
   2  15  11  216.36   50.82
   2  15  14 7513.56  325.40
   2  15  1729197.80  377.71
   2  15  20  187.60   65.79
   2  15  2653930.86 1274.58
   2  15  35  806.27  123.27
   2  15  38  131.84  101.26
   2  15  41 1084.86  160.59
   2  15  44   60.45   78.98
   2  15  56  239.72   89.84
   2  15  65    0.01   53.23
   2  15  68  147.50   61.98
   2  15  71   23.51   89.70
   2  15  74   54.11   29.40
   2  16 -71   31.28  130.94
   2  16 -65   87.38   52.30
   2  16 -50   71.15   59.99
   2  16 -44  288.20  133.35
   2  16 -38 1197.44  133.12
   2  16 -32 1800.43  173.31
   2  16 -26 4084.12  267.03
   2  16 -23 3030.29  198.54
   2  16 -20 4929.68  215.34
   2  16 -17   25.72  153.75
   2  16 -14  493.65   32.87
   2  16 -11 1613.17  171.80
   2  16  -8 9323.58  331.50
   2  16  -5 3283.60  127.22
   2  16  -2 4642.95  217.48
   2  16   1 2391.99  264.28
   2  16   427185.63  443.25
   2  16   720811.86  415.07
   2  16  10 1610.80  146.33
   2  16  13 2937.98   93.43
   2  16  1625601.21  367.01
   2  16  22 9456.69  311.20
   2  16  2517219.65  410.29
   2  16  31 2562.24  153.47
   2  16  37  679.45   76.21
   2  16  43  718.88   90.09
   2  16  46  113.48   80.53
   2  16  52   55.53   52.61
   2  16  55  133.86   58.35
   2  16  58    9.14   77.45
   2  16  67   36.28   60.41
   2  17 -75   71.42   69.44
   2  17 -69   34.57   68.48
   2  17 -66  118.80  164.74
   2  17 -60   18.34   53.48
   2  17 -54  136.68   52.74
   2  17 -45  478.93   86.34
   2  17 -42  628.55  128.54
   2  17 -39  803.01   92.26
   2  17 -36  360.51   81.04
   2  17 -33  579.09   92.21
   2  17 -27  861.32  131.52
   2  17 -24 2073.66  141.58
   2  17 -21 1164.72   81.29
   2  17 -18   39.77   36.49
   2  17 -15   31.38  108.53
   2  17  -9 1883.21   84.37
   2  17  -6 3061.82  123.07
   2  17  -3 6198.33  265.43
   2  17   0 3573.88  121.72
   2  17   6   11.90   99.38
   2  17   9 2456.93   90.22
   2  17  12 4065.31  130.33
   2  17  15   99.97   70.45
   2  17  21    0.29   44.24
   2  17  24 1093.63  133.91
   2  17  30 1576.05  131.82
   2  17  33 2586.21  161.67
   2  17  36  248.96   67.28
   2  17  57   47.65   82.68
   2  17  66   39.02   69.64
   2  17  69   22.98   57.24
   2  17  75  146.58  138.97
   2  18 -70   51.35   87.92
   2  18 -40 1016.08  211.04
   2  18 -28  118.51   48.45
   2  18 -22 1529.43   62.07
   2  18 -19   36.58   65.84
   2  18 -16  487.89  102.75
   2  18  -7  389.97   33.36
   2  18  -4  819.34   97.76
   2  18  -1 3329.87  278.08
   2  18   2 3211.72   96.38
   2  18   5  119.28   66.51
   2  18   812594.84  303.44
   2  18  11   20.84   87.12
   2  18  14 1622.78  194.72
   2  18  20  398.37  136.52
   2  18  23 1228.08  238.51
   2  18  26 1558.87  107.81
   2  18  29  744.95   58.76
   2  18  32  167.16   43.27
   2  18  41  751.57  111.82
   2  18  44   73.36   60.12
   2  18  59   73.13   86.15
   2  18  65   20.70   47.22
   2  18  71    1.47   53.42
   2  19 -71   88.67   67.35
   2  19 -65  200.56   80.43
   2  19 -44  181.84   74.41
   2  19 -38 1568.05  199.82
   2  19 -35  109.01   88.52
   2  19 -32  275.39   73.06
   2  19 -29   35.21   58.27
   2  19 -23  722.24   60.24
   2  19 -14  163.75   27.73
   2  19  -5 5463.65  305.32
   2  19  -2 3343.79  185.91
   2  19   1    3.44  128.08
   2  19   7 4545.55  202.72
   2  19  13  904.08  135.50
   2  19  16  146.49   43.13
   2  19  19 1793.54  131.87
   2  19  22  833.57   68.47
   2  19  25 2252.55  112.89
   2  19  28  216.26   75.87
   2  19  31    3.35   35.85
   2  19  34  589.29   57.22
   2  19  37  162.45   66.03
   2  19  40    5.54   66.42
   2  19  43  220.02   62.44
   2  19  46  330.16   99.88
   2  19  49  118.98   80.30
   2  19  52  766.54   85.02
   2  19  55  150.53   66.28
   2  19  73   89.09   62.19
   2  20 -69   91.28   90.13
   2  20 -54   44.38   88.76
   2  20 -48  102.39   79.27
   2  20 -36  116.15  113.79
   2  20 -33  210.98   98.72
   2  20 -27  387.09  113.89
   2  20 -18   95.96   39.62
   2  20 -15 1139.36   76.98
   2  20 -12 2952.56  275.70
   2  20  -9 7264.18  316.83
   2  20  -3 4076.77  117.93
   2  20   0 3849.79  186.81
   2  20   3 2727.09  248.11
   2  20   9 1148.32   96.66
   2  20  12 3146.89  294.08
   2  20  15 4747.47  363.35
   2  20  21  977.54  129.35
   2  20  24   46.98   82.56
   2  20  27 3066.24  203.82
   2  20  30  353.06   36.51
   2  20  33 1472.80  146.08
   2  20  42  358.36  104.03
   2  20  51  117.40   90.27
   2  20  60  267.71   71.61
   2  20  63   15.04   58.05
   2  21 -67   55.76   81.05
   2  21 -61   15.49  144.64
   2  21 -55   48.29   93.58
   2  21 -49  215.74  239.89
   2  21 -37  486.30  118.03
   2  21 -34  729.12  115.42
   2  21 -31 1163.90  244.92
   2  21 -28  377.63  107.49
   2  21 -25  281.52   60.90
   2  21 -22  125.46   32.36
   2  21 -16 4544.02  236.03
   2  21 -10  571.65  123.97
   2  21  -7 1911.52  163.32
   2  21  -4  365.61   55.93
   2  21  -1 4188.75  193.91
   2  21   2 1632.79  175.28
   2  21   5 1546.25  274.83
   2  21   810992.35  418.24
   2  21  11 8666.54  464.34
   2  21  23 2005.02  117.05
   2  21  26  402.35   56.88
   2  21  29   78.19   83.90
   2  21  32 1093.60  133.66
   2  21  38  543.33   64.38
   2  21  41 1343.64  132.53
   2  21  47  457.02  266.80
   2  21  50  100.48   60.71
   2  21  56   62.23   87.23
   2  21  59   26.18   69.87
   2  21  62  203.02   50.57
   2  21  65    1.50   40.93
   2  21  68   87.52   54.72
   2  22 -65   96.63   81.43
   2  22 -50  105.28   63.24
   2  22 -44  275.43   61.06
   2  22 -32 3047.88  322.67
   2  22 -29 2213.89  280.59
   2  22 -26 1141.64  183.44
   2  22 -23  376.58  123.67
   2  22 -20 1470.31  178.73
   2  22 -14    7.29   27.14
   2  22 -11  284.13   88.45
   2  22  -8  592.01   78.75
   2  22  -5 3075.80  222.08
   2  22   1 4234.97  251.90
   2  22   7  523.23  121.35
   2  22  13  397.57   81.06
   2  22  19  436.29  153.97
   2  22  22  923.45  124.09
   2  22  25  969.15   75.72
   2  22  28  139.87   51.24
   2  22  34   23.15   54.94
   2  22  37   17.94   43.35
   2  22  40  436.22  114.95
   2  22  43  596.74  131.46
   2  22  46   98.68   81.11
   2  22  49  670.53   95.31
   2  22  52   32.38   41.96
   2  22  55  290.72   74.48
   2  22  70   98.96   77.46
   2  23 -69   47.19   73.28
   2  23 -60  350.77  151.59
   2  23 -57   39.03   53.54
   2  23 -42  345.22  119.11
   2  23 -36  540.55  117.66
   2  23 -33  666.17  130.85
   2  23 -27  101.88   48.96
   2  23 -24  228.17  155.08
   2  23 -21  210.99   86.90
   2  23 -15 3000.67  242.54
   2  23 -12  922.67  115.79
   2  23  -9   24.81   65.78
   2  23  -3 1369.48  197.67
   2  23   0  971.19  132.28
   2  23   3  366.94   54.80
   2  23   6  404.86   56.02
   2  23   9  412.23  133.42
   2  23  15  914.28   76.06
   2  23  18  229.86   65.60
   2  23  21  100.41   39.99
   2  23  24  320.74   53.56
   2  23  27  395.50   51.33
   2  23  33  504.42   69.70
   2  23  42  729.79   80.88
   2  23  54  154.62  148.27
   2  23  57    6.87   32.47
   2  23  63    7.26   52.83
   2  23  69   68.82   58.43
   2  24 -67    9.20   70.18
   2  24 -64  227.69  109.42
   2  24 -49  142.27  120.25
   2  24 -46  158.06   96.67
   2  24 -34  642.90  126.81
   2  24 -28    9.26   71.53
   2  24 -25 2176.71  405.60
   2  24 -22  462.54   62.30
   2  24 -19 3690.83  269.61
   2  24 -16  378.85   59.33
   2  24  -7 1176.65  133.57
   2  24  -4  721.94   78.01
   2  24   2  621.40   84.60
   2  24   5 1220.04   93.03
   2  24   8  206.37   59.23
   2  24  14   17.96   84.54
   2  24  17   21.66   43.98
   2  24  20  246.22   73.27
   2  24  26   16.51   41.31
   2  24  38 1344.03  135.53
   2  24  44  435.04   86.17
   2  24  62    0.47   74.40
   2  24  65    1.55   53.02
   2  25 -53   39.78   92.99
   2  25 -50   78.90   62.09
   2  25 -38  281.70  153.02
   2  25 -29   59.31   68.74
   2  25 -23  591.37   59.38
   2  25 -20 1582.89  158.06
   2  25 -17   89.97   71.01
   2  25 -11 3505.32  234.33
   2  25  -5  143.02   61.15
   2  25  -2  523.12  103.83
   2  25   4  143.69   78.26
   2  25  10  711.91  140.08
   2  25  13  436.58  124.75
   2  25  16 2444.30  507.83
   2  25  19   83.45   29.01
   2  25  22  381.95   43.27
   2  25  28  564.91  180.18
   2  25  31  210.58  124.92
   2  25  34 1148.05  131.72
   2  25  37  175.29   90.03
   2  25  40  565.22   92.59
   2  25  43  178.20   74.07
   2  25  46  192.15   56.04
   2  25  49  297.58   82.38
   2  25  52  228.88   98.62
   2  25  55   24.43   74.48
   2  26 -63  164.64  132.77
   2  26 -60  161.28  123.89
   2  26 -57   27.99   66.43
   2  26 -48  258.19   56.91
   2  26 -42   48.04   80.63
   2  26 -33  422.19  153.25
   2  26 -21  187.13   47.10
   2  26 -18 2679.68  206.15
   2  26 -15  105.64   87.60
   2  26 -12  215.48   63.97
   2  26  -9 4173.67  256.45
   2  26  -6   71.73   37.09
   2  26  -3  412.53   85.68
   2  26   0  469.20   53.79
   2  26   9   38.48   64.60
   2  26  12  204.35   54.43
   2  26  21 1796.88  185.74
   2  26  24 2621.94  200.13
   2  26  27 1283.23  140.18
   2  26  30  615.50   95.08
   2  26  33  161.97   56.22
   2  26  36  262.59   95.38
   2  26  42  148.41   65.61
   2  26  45  303.46   94.99
   2  26  60    8.67   69.92
   2  27 -64   11.92   82.00
   2  27 -58  220.31   90.89
   2  27 -31  491.64  116.31
   2  27 -25  361.39  246.19
   2  27 -22  492.13   89.12
   2  27 -19  100.23   65.54
   2  27 -16  761.89  152.07
   2  27 -13 1841.57  156.44
   2  27   5 1195.46  126.38
   2  27   8  128.94   64.40
   2  27  11  168.73   94.40
   2  27  14  253.70   87.55
   2  27  17 1165.10  160.21
   2  27  23  607.18  165.29
   2  27  44   11.11   93.63
   2  27  50  395.50   80.10
   2  27  53   69.42  111.97
   2  28 -59  107.73   93.33
   2  28 -56   40.17   77.47
   2  28 -53  621.18   90.45
   2  28 -38    4.34   80.76
   2  28 -35  165.99  133.26
   2  28 -32   81.62   68.04
   2  28 -29  832.76  174.79
   2  28 -26  471.48  159.93
   2  28 -20  251.81   79.47
   2  28 -17  286.25   67.37
   2  28 -14  136.60   79.00
   2  28  -8  969.03  104.87
   2  28  -5   95.00   43.45
   2  28  -2  427.07   45.03
   2  28   1  114.95   94.04
   2  28   4  246.55   66.38
   2  28  10  906.45  159.29
   2  28  19  250.74  121.82
   2  28  25  219.57   81.78
   2  28  28   33.31   61.44
   2  28  31  560.43   79.98
   2  28  34  542.10  322.19
   2  28  37  783.00   94.56
   2  28  46  205.93   74.86
   2  28  49   15.87   76.04
   2  28  58   33.82   67.64
   2  29 -51  141.18   67.71
   2  29 -42  259.87  129.40
   2  29 -36   85.80   96.48
   2  29 -30  208.97   58.61
   2  29 -27    3.02   54.98
   2  29 -24  425.05   74.47
   2  29 -21   27.30   50.47
   2  29 -18  308.25   80.73
   2  29 -15  167.79   63.88
   2  29 -12   79.81   45.93
   2  29  -9  509.84   70.23
   2  29  -6 3173.69  271.49
   2  29  -3   16.30   55.72
   2  29   3 1827.54  192.59
   2  29  21  389.63  123.23
   2  29  24   60.14  110.69
   2  29  36  178.90   80.32
   2  29  42   33.53   76.35
   2  29  45  278.67  102.93
   2  30 -49   20.97  104.21
   2  30 -40  243.43  151.30
   2  30 -37  105.70   80.96
   2  30 -34   21.73   84.98
   2  30 -31  793.44  133.43
   2  30 -19  525.41   68.96
   2  30 -16  291.93  118.68
   2  30  -7   39.55   85.70
   2  30  -4  620.38  123.08
   2  30  -1 1817.52  186.34
   2  30   2  588.72  145.88
   2  30  26   14.82  135.17
   2  30  29   37.27  124.92
   2  30  35  189.68   96.85
   2  31 -56   79.83  130.57
   2  31 -53  151.65   92.91
   2  31 -41  133.60   67.12
   2  31 -38  515.25   65.55
   2  31 -35  264.20   73.10
   2  31 -32  531.72  179.65
   2  31 -29  229.23   66.14
   2  31 -26   21.82   66.98
   2  31 -14  130.32  136.51
   2  31 -11  241.69  130.01
   2  31  -5   35.81   39.25
   2  31  -2  265.49   89.96
   2  31   4   77.17   76.74
   2  31   7  295.27   97.53
   2  31  10   50.55   83.92
   2  31  16   60.30  110.54
   2  31  22  347.52  271.60
   2  31  25  152.18   70.09
   2  31  31  103.35   99.92
   2  31  34  194.38   71.58
   2  31  55   51.02  108.33
   2  32 -54   40.81   84.19
   2  32 -48  291.26   92.41
   2  32 -30   43.54  212.67
   2  32 -27  480.40  107.35
   2  32 -24  228.05  135.49
   2  32 -18 1479.31  178.25
   2  32 -15  437.29   84.74
   2  32  -9  106.41  100.38
   2  32  -6  254.06   75.13
   2  32   0  254.41   79.04
   2  32   9  309.06   72.39
   2  32  12  441.70  133.48
   2  32  15  447.16  150.49
   2  32  18  137.11   79.91
   2  32  21  307.66   81.24
   2  32  24  145.54  118.59
   2  32  27  517.55  101.71
   2  32  30   13.47   94.60
   2  32  36  598.76   71.74
   2  32  42   60.97   95.37
   2  32  45   61.55   65.06
   2  33 -49  200.78  125.93
   2  33 -37   84.04  100.67
   2  33 -22  687.96   74.03
   2  33 -13 1228.10  157.82
   2  33 -10   47.95  121.29
   2  33  -7  516.15  143.20
   2  33  -4   84.41   64.51
   2  33  -1  162.02   48.79
   2  33   2  372.02  114.46
   2  33  11 1246.75  230.28
   2  33  14 1117.45  454.29
   2  33  17  116.55  110.52
   2  33  32    0.39   67.12
   2  33  44    1.82   36.03
   2  33  53   95.70   71.92
   2  34 -41  135.07  239.92
   2  34 -32  167.27  100.11
   2  34 -29  219.75  107.81
   2  34 -23  293.95   96.89
   2  34 -20  381.59  138.41
   2  34 -17  449.39  114.98
   2  34 -14   98.47  103.53
   2  34  -8  393.70   61.10
   2  34  -5  422.26   89.67
   2  34  -2  625.69  133.13
   2  34   4  294.72   84.15
   2  34   7  719.26  164.78
   2  34  16  246.86  106.11
   2  34  19  388.26  133.17
   2  34  31   28.19   84.96
   2  34  34   92.44  152.35
   2  34  37    4.05   86.10
   2  34  49   67.50   85.50
   2  34  52  303.58  120.88
   2  35 -45   21.23   66.63
   2  35 -42  552.43  116.53
   2  35 -39   83.07  102.50
   2  35 -36  133.60  134.86
   2  35 -33  985.14  230.42
   2  35 -30  532.96   84.48
   2  35 -27   31.53  172.59
   2  35  -3  177.12   78.03
   2  35   0   12.33   90.39
   2  35   3  254.70  112.19
   2  35   6  417.13  155.08
   2  35   9   70.99  102.63
   2  35  12  124.98  154.86
   2  35  24  422.21  182.48
   2  35  30  115.59  131.24
   2  35  36  294.75  101.53
   2  35  39   26.57   67.78
   2  35  45   78.06  109.36
   2  36 -46   56.82  102.27
   2  36 -34  342.83  135.43
   2  36 -31  334.87  118.28
   2  36 -28  475.02  109.91
   2  36 -19   38.74   83.12
   2  36 -13   96.11  119.89
   2  36 -10  396.25   94.22
   2  36  -7  417.57  141.77
   2  36  -4  171.22   94.06
   2  36  -1   11.85  116.39
   2  36   5   73.73   97.22
   2  36   8   91.22  108.02
   2  36  14  584.63  167.83
   2  36  20  806.34  232.06
   2  36  23  554.69   92.91
   2  36  26   40.86  154.62
   2  36  41   22.31   75.52
   2  36  47  361.83  101.37
   2  37 -44    6.99   71.54
   2  37 -20  164.15   78.39
   2  37 -17  390.30   92.46
   2  37 -11   20.83  105.36
   2  37  -5  584.09  173.71
   2  37  -2   74.16   84.02
   2  37   4  382.69  139.60
   2  37   7  508.47  114.07
   2  37  16   56.34  126.50
   2  37  22   24.33  134.63
   2  37  31  192.77  130.67
   2  37  34   52.96  116.01
   2  37  37  165.63  102.44
   2  37  43  101.68  106.19
   2  38 -33   38.44   86.01
   2  38 -12   41.07   86.29
   2  38   3  211.92  140.02
   2  38   9  474.79  186.49
   2  38  18   87.88  121.41
   2  38  21  149.52  114.96
   2  38  33   51.88   96.28
   2  39 -40   97.20   75.44
   2  39 -37  379.89  289.02
   2  39 -25   44.91   87.97
   2  39 -22   25.16  103.14
   2  39 -16   87.02   59.73
   2  39  14  631.91  120.64
   2  39  23  211.77  125.01
   2  40 -20  182.94  112.52
   2  40 -17   30.45   79.17
   2  40 -14   18.56   61.58
   2  40  -5   17.51   86.98
   2  40   1  138.52  110.62
   2  40  10    3.24  128.82
   2  40  16   96.80  131.87
   2  40  19   78.97  103.77
   2  40  25  164.43  100.21
   2  40  34  122.69  247.97
   2  40  37  185.71  322.29
   2  41 -27  377.88  225.41
   2  41 -18   63.38   94.70
   2  41  -9  161.81   67.46
   2  41  -3   93.75   76.97
   2  41   0  207.62   52.35
   2  41   3  217.11   62.73
   2  41   6  229.08  138.83
   2  41   9  126.78  123.78
   2  41  12    7.40  155.82
   2  41  15  161.55  109.31
   2  41  21   24.72   92.70
   2  41  27  121.40  138.43
   2  41  30  299.46  157.43
   2  42 -28  133.12  168.74
   2  42 -22  151.90  194.08
   2  42 -16  109.74  104.12
   2  42 -13  347.38  127.69
   2  42 -10  108.44   71.64
   2  42  11  220.06   85.33
   2  42  14  198.23   92.89
   2  42  20    3.60   98.84
   2  42  29  136.85  104.67
   2  43 -14   13.73  118.21
   2  43   1  149.34   94.01
   2  43   4   88.51  120.39
   2  44 -15  314.02  146.96
   2  44  -3  301.85  375.69
   2  44   0  100.98   76.21
   2  44   6  133.08  108.65
   2  44   9   35.10  117.02
   2  44  15  139.21   96.90
   2  45  -1  136.26  203.08
   3   1 -76   25.93   45.13
   3   1 -70  235.43   62.51
   3   1 -61   40.70   51.70
   3   1 -58  134.15   48.54
   3   1 -55  798.26  117.99
   3   1 -52   97.19   62.64
   3   1 -46 1384.41  117.06
   3   1 -37 2303.73  241.73
   3   1 -31    0.82   45.30
   3   1 -28 3884.28  289.16
   3   1 -22 2785.48  216.77
   3   1 -19 6687.18  217.39
   3   1 -16 2667.28  242.48
   3   1 -13  260.54   44.12
   3   1 -10    0.70   68.27
   3   1  -7 1843.70   47.06
   3   1   521187.87  468.16
   3   1   8  186.75   88.30
   3   1  1112532.53  219.31
   3   1  14 6965.47  185.09
   3   1  20 2244.78  150.47
   3   1  23  335.20   73.98
   3   1  26  235.31  105.80
   3   1  32 1665.33  221.13
   3   1  35 1177.51  107.30
   3   1  38 1191.15  145.02
   3   1  41   15.85   34.56
   3   1  47  416.93   81.39
   3   1  50  291.13  121.32
   3   1  53  125.78   41.76
   3   1  59  235.27   58.37
   3   1  62  163.68   57.48
   3   1  68    0.19   46.06
   3   2 -80    8.57   50.89
   3   2 -71   11.92   37.24
   3   2 -65  177.03   56.69
   3   2 -56  179.66  108.14
   3   2 -53  375.42   97.67
   3   2 -44  207.88   57.22
   3   2 -35   36.86   50.04
   3   2 -32   70.33   53.56
   3   2 -2921083.03  615.20
   3   2 -23  487.53   75.29
   3   2 -20 8457.08  566.64
   3   2 -17 1518.07   84.43
   3   2 -14 3329.04   51.75
   3   2 -1167723.91  389.34
   3   2  -814208.85  123.46
   3   2  -558955.48   83.60
   3   2  -2147711.3 1921.93
   3   2   1 1841.45  646.43
   3   2   4 3475.67   73.22
   3   2   753296.22  231.76
   3   2  1047612.80  140.43
   3   2  1314041.35  190.31
   3   2  16 6539.67   35.82
   3   2  19  245.79  106.46
   3   2  22  275.05  108.28
   3   2  28 1669.42  311.82
   3   2  31  298.22   52.20
   3   2  37 1601.42  239.54
   3   2  40  395.02   44.34
   3   2  43 1868.38  121.09
   3   2  46   20.79   53.68
   3   2  49   10.30   32.88
   3   2  52  769.97   88.30
   3   2  58  844.01  116.74
   3   2  61  208.04   75.99
   3   2  64   48.95   34.88
   3   2  67  416.60   69.54
   3   2  70  168.14   87.63
   3   3 -81  116.52   92.89
   3   3 -78   64.78   62.32
   3   3 -75    2.03   65.20
   3   3 -69   23.85   65.10
   3   3 -57  110.72   43.56
   3   3 -54  206.12   49.47
   3   3 -51  282.75   42.81
   3   3 -48 1868.32  163.74
   3   3 -45  248.14   76.20
   3   3 -42 1939.11  149.83
   3   3 -39 4990.33  256.62
   3   3 -36 2664.07  232.65
   3   3 -33 1287.19   67.04
   3   3 -27 1803.32   49.13
   3   3 -2139202.23  633.98
   3   3 -18 8682.95  160.49
   3   3 -1516398.15  496.41
   3   3 -1213637.62  385.31
   3   3  -9207574.5 1057.22
   3   3  -6  517.91  122.87
   3   3  -3 9668.31   96.56
   3   3   0 4818.28   32.68
   3   3   3  151.29   75.67
   3   3   639412.85  323.27
   3   3   924870.17  249.76
   3   3  12 6047.55   55.46
   3   3  15  473.39  189.70
   3   3  18  173.59   29.07
   3   3  21 8648.24  152.76
   3   3  30 3374.17  294.44
   3   3  33 2349.72  189.42
   3   3  39 1747.61  143.53
   3   3  42  190.84   39.54
   3   3  45   79.86   38.18
   3   3  48  341.57   73.28
   3   3  51 2017.41  172.70
   3   3  54  236.30   56.23
   3   3  60  161.59   75.67
   3   3  66  288.83   62.81
   3   3  69    0.35   59.05
   3   3  78  164.00   83.03
   3   4 -79    8.78   44.92
   3   4 -76   95.92   53.91
   3   4 -73   14.21   56.90
   3   4 -70  183.65  115.87
   3   4 -64  533.24   62.87
   3   4 -58   73.60   44.94
   3   4 -55  188.60   70.76
   3   4 -52  129.39   50.46
   3   4 -49  214.99   47.51
   3   4 -43 3437.10  238.54
   3   4 -40  194.52   57.51
   3   4 -34 5270.49  287.14
   3   4 -31 2176.65  149.97
   3   4 -2820720.35  476.50
   3   4 -2522148.39  376.91
   3   4 -22  525.68   23.75
   3   4 -1662686.00  511.42
   3   4 -13  763.39   68.75
   3   4 -1078781.78  302.33
   3   4  -724460.21   66.35
   3   4  -4 6455.13   58.58
   3   4  -1  597.69   28.26
   3   4   2  317.01   64.29
   3   4   511342.55  108.42
   3   4   8 1376.07  163.23
   3   4  1118921.92  283.74
   3   4  14 3127.53  275.61
   3   4  1778563.29  509.23
   3   4  2026707.95  206.18
   3   4  23 7271.84  211.76
   3   4  26 8308.41  258.57
   3   4  29   60.70  227.41
   3   4  32 8602.34  237.81
   3   4  35 1128.54   95.91
   3   4  38 2887.97  174.07
   3   4  41 4811.64  281.44
   3   4  47 1980.47  128.80
   3   4  50  685.71   65.09
   3   4  56  282.62   41.67
   3   4  59  110.89   48.73
   3   4  62  170.84   49.56
   3   4  71  155.76   60.19
   3   5 -77   95.05   59.28
   3   5 -68  194.34   63.32
   3   5 -59  153.80   76.28
   3   5 -56   65.26   57.99
   3   5 -53  522.18  115.89
   3   5 -50  335.10   65.59
   3   5 -47 4116.28  242.98
   3   5 -41 1731.85  158.11
   3   5 -35  462.22   77.44
   3   5 -32 2248.60   72.92
   3   5 -29 4937.56  382.40
   3   5 -26    6.72   76.63
   3   5 -20   83.84   50.16
   3   5 -1749597.12  914.16
   3   5 -14 1760.37  208.66
   3   5 -1116427.16  264.46
   3   5  -845966.06  763.38
   3   5  -5 3730.46   85.04
   3   5  -267030.52  254.43
   3   5   1 5007.71  305.62
   3   5   436716.19  471.06
   3   5   7  144.50   79.53
   3   5  10 8931.58  221.03
   3   5  1338588.39  526.51
   3   5  1662952.11  456.29
   3   5  1912901.37  306.59
   3   5  2210655.94  302.17
   3   5  25 4939.54  169.19
   3   5  28  648.68  138.74
   3   5  3110646.42  725.32
   3   5  34 3284.92  181.30
   3   5  37 1293.05  154.02
   3   5  49  518.13   72.70
   3   5  52  121.93   55.29
   3   5  55  531.35   54.84
   3   5  58   29.51   41.95
   3   5  61  153.78   68.96
   3   5  70   80.22   77.01
   3   5  73   51.41   53.52
   3   5  79   69.40   48.56
   3   6 -75   50.93   49.02
   3   6 -66  217.83   62.86
   3   6 -60   69.80   47.84
   3   6 -54  132.16   75.41
   3   6 -51 1310.21  135.63
   3   6 -45 3181.86  293.34
   3   6 -42  235.00   79.55
   3   6 -39  246.51   55.38
   3   6 -33 8827.96  299.16
   3   6 -30   51.49  141.08
   3   6 -2728915.45  559.81
   3   6 -24   89.08   61.68
   3   6 -1819533.03  495.19
   3   6 -1541129.01 1128.26
   3   6 -12114930.9  492.66
   3   6  -9 1689.51   74.68
   3   6  -621366.16   48.70
   3   6  -3 7453.20  261.34
   3   6   0131065.6  949.47
   3   6   3  748.74   25.18
   3   6   611041.93  174.68
   3   6   923045.49  549.93
   3   6  1235342.77  386.25
   3   6  15191729.7  782.35
   3   6  18 2275.01  149.08
   3   6  21   20.95   51.22
   3   6  24 3374.93  167.16
   3   6  2724937.10  594.54
   3   6  45 3308.35  257.04
   3   6  48  123.21   68.95
   3   6  51  287.00   65.22
   3   6  60  192.69   63.00
   3   7 -73  109.97   60.96
   3   7 -70  275.06   61.30
   3   7 -61  414.83   49.08
   3   7 -55  570.15   77.76
   3   7 -46  178.92   38.90
   3   7 -43  362.29   68.20
   3   7 -37 4255.24  226.68
   3   7 -34 1095.87   79.72
   3   7 -28  418.17  106.61
   3   7 -25 3768.50  214.12
   3   7 -19 4200.22   73.93
   3   7 -16 1137.04   56.14
   3   7 -13  470.06   55.92
   3   7 -10  546.76  167.47
   3   7  -7 2827.71   97.78
   3   7  -410994.50  107.88
   3   7   2 1310.49  196.98
   3   7   514394.88  203.49
   3   7   8 9910.98  117.21
   3   7  11114664.1 1029.79
   3   7  1411380.27  138.15
   3   7  1713693.67  136.98
   3   7  20 5640.05  202.85
   3   7  2310316.77  284.49
   3   7  26 7616.64  364.87
   3   7  29 3287.91  253.59
   3   7  32  618.63  184.32
   3   7  35 2808.04  347.93
   3   7  38 2059.78  197.70
   3   7  44  318.56   46.44
   3   7  50    2.69   51.14
   3   7  59   46.55   58.37
   3   8 -65   49.68   72.10
   3   8 -56  120.32   64.66
   3   8 -53   13.13   52.73
   3   8 -50   30.08   71.40
   3   8 -47  799.15  129.03
   3   8 -41 3961.50  270.26
   3   8 -38 1627.05  156.19
   3   8 -26 4667.22  204.30
   3   8 -23   14.19   76.46
   3   8 -20  997.51   70.29
   3   8 -17 1862.76   55.51
   3   8 -14 3809.57  146.45
   3   8 -1140795.70  398.54
   3   8  -8  188.75  132.53
   3   8  -510886.97  140.81
   3   8  -211889.83  244.93
   3   8   126734.08  247.25
   3   8   7151167.2  765.09
   3   8  1060865.63  625.06
   3   8  1322696.62  491.13
   3   8  16 3287.25   82.05
   3   8  19 4072.92   90.88
   3   8  22 1613.63   95.62
   3   8  25 1405.08  264.78
   3   8  28 6395.91  230.19
   3   8  31 3960.25  234.87
   3   8  34 6625.98  443.18
   3   8  40  482.76   54.65
   3   8  43  522.74  117.28
   3   8  46  103.34   51.90
   3   8  49  365.56  117.96
   3   8  58  336.64  114.38
   3   8  67    5.77   71.76
   3   8  79   29.46   40.36
   3   9 -75    1.02   49.74
   3   9 -63  151.46   62.99
   3   9 -45 1193.49  135.62
   3   9 -36 1881.69  163.18
   3   9 -33   42.32   86.19
   3   9 -30  619.26   72.60
   3   9 -24 1954.37  255.63
   3   9 -21  669.48   42.42
   3   9 -18 3556.99   90.45
   3   9 -15 1345.16   90.66
   3   9 -12  126.21   54.47
   3   9  -917752.39  234.92
   3   9  -618094.50  172.21
   3   9  -313153.90  143.42
   3   9   0 2158.45   88.05
   3   9   329867.50  322.50
   3   9   6 8170.20  178.31
   3   9   920990.26  125.39
   3   9  12 1429.82  293.51
   3   9  15  161.55   63.91
   3   9  1824183.24  312.74
   3   9  21 3103.78   84.85
   3   9  24  271.39  121.85
   3   9  27   63.20  147.60
   3   9  30 4117.51  220.92
   3   9  39  676.24   46.42
   3   9  45  248.30   62.23
   3   9  54  521.91   70.16
   3  10 -73    3.79   60.03
   3  10 -70   15.07   84.67
   3  10 -64  116.54   90.60
   3  10 -55   12.39   38.94
   3  10 -49  244.25   92.08
   3  10 -40  580.16  120.00
   3  10 -34  718.47  114.34
   3  10 -31 1484.63  122.87
   3  10 -28 9676.98  280.46
   3  10 -25 1701.77  269.05
   3  10 -2214507.45  242.88
   3  10 -19 5822.01  154.74
   3  10 -16 4316.68  124.48
   3  10 -1015833.25  251.86
   3  10  -712704.90  271.10
   3  10  -126941.19  627.40
   3  10   2 5672.47   71.01
   3  10   572471.59  814.14
   3  10   826906.77  226.47
   3  10  11 9493.45  204.08
   3  10  14 9060.62   91.95
   3  10  17 4413.76  156.40
   3  10  23 1183.19  195.75
   3  10  26 7465.58  155.75
   3  10  29 1283.77  118.49
   3  10  38 1029.90  167.50
   3  10  41  184.87   60.22
   3  10  44   89.12   69.06
   3  10  47  203.89   56.91
   3  10  56    0.06   48.22
   3  10  65   92.86   69.76
   3  10  68    6.25   44.08
   3  10  71   59.15   59.42
   3  10  77    0.58   54.12
   3  11 -77  123.98   75.09
   3  11 -74   26.54   56.49
   3  11 -71    4.06   50.35
   3  11 -68   12.95   68.08
   3  11 -62   82.85   82.17
   3  11 -59  420.18   76.36
   3  11 -47  559.62   85.87
   3  11 -44  132.86   55.21
   3  11 -38  926.86  126.84
   3  11 -35  577.28   85.45
   3  11 -29 4431.21  337.97
   3  11 -26 3363.78  259.51
   3  11 -23 1012.62  109.28
   3  11 -20 6775.07  233.97
   3  11 -17 1833.31  109.30
   3  11 -1420942.74  128.45
   3  11 -11 1958.90   85.18
   3  11  -8 9429.91   86.42
   3  11  -510774.85   80.44
   3  11  -2 4044.09  103.59
   3  11   1 7792.23  118.20
   3  11   4 6846.61   79.05
   3  11   737350.81  445.84
   3  11  10 2553.62  165.59
   3  11  1339276.14  547.22
   3  11  1667577.81  481.13
   3  11  1913893.84  333.84
   3  11  22 4282.13  118.62
   3  11  25 6799.59  205.22
   3  11  28 1508.17  189.80
   3  11  3111206.16  386.31
   3  11  34 2786.22  259.27
   3  11  52   96.99   50.85
   3  11  64    5.30   68.63
   3  11  67   97.18   65.29
   3  12 -75  152.35   85.67
   3  12 -66   21.39   57.11
   3  12 -51  113.39   67.12
   3  12 -45  883.36  170.57
   3  12 -36    0.24   54.48
   3  12 -33 8685.83  330.99
   3  12 -24 4929.82  339.02
   3  12 -21 3265.26  186.13
   3  12 -18 1663.97  202.72
   3  12 -15 2902.95  104.46
   3  12 -12 1692.31   99.75
   3  12  -9  384.88   89.81
   3  12  -6  132.87   63.24
   3  12  -3 2798.13  116.79
   3  12   0  338.76   68.83
   3  12   3 2229.62   66.96
   3  12   9 8660.47  113.94
   3  12  12 5481.83  117.43
   3  12  1511792.88  285.23
   3  12  1821795.66  614.93
   3  12  24 3677.07  278.79
   3  12  27 3377.49  264.45
   3  12  33 2403.27  148.02
   3  12  36  144.34  175.05
   3  12  39  222.00   60.85
   3  12  45  496.78   63.59
   3  12  48   47.32  101.20
   3  12  51   80.39   54.06
   3  12  60  216.16   90.09
   3  12  66  109.43   44.78
   3  12  72   97.13   53.78
   3  13 -73   91.18   44.80
   3  13 -70  106.91   69.86
   3  13 -61  199.38   78.87
   3  13 -52  264.84   87.53
   3  13 -43 2232.31  178.88
   3  13 -37 3252.12  203.14
   3  13 -31  579.87   61.78
   3  13 -25  239.13   72.49
   3  13 -22 7862.93  264.21
   3  13 -1913672.90  463.28
   3  13 -16    2.29   39.47
   3  13 -10  297.93   42.89
   3  13  -7 5099.44  130.73
   3  13   2   32.06   34.60
   3  13   5 3405.89   60.67
   3  13  1125201.96  334.65
   3  13  1417288.03  406.82
   3  13  1723757.45  574.21
   3  13  20 5780.33  135.30
   3  13  23  257.16   99.77
   3  13  2616492.01  328.38
   3  13  29 1024.82  128.55
   3  13  44 1431.15  198.52
   3  13  53  239.19   52.58
   3  13  59  214.34   88.51
   3  13  62   66.33   54.59
   3  13  68  114.89   47.71
   3  13  71   35.32   66.64
   3  13  77   27.51   89.55
   3  14 -74   23.35   82.93
   3  14 -71   30.81   72.26
   3  14 -68   21.47   91.08
   3  14 -65  120.02   52.65
   3  14 -59  186.98  114.60
   3  14 -50  228.54   89.76
   3  14 -47  111.74   64.76
   3  14 -41 3164.49  274.03
   3  14 -38  695.60  132.00
   3  14 -35 4532.61  235.07
   3  14 -26  136.49   37.10
   3  14 -23  119.21   78.61
   3  14 -17 1579.99   48.60
   3  14 -14   76.89  115.28
   3  14 -11 2202.13   80.65
   3  14  -8  238.67   19.51
   3  14  -5 1821.05  112.84
   3  14  -2 1583.63  111.30
   3  14   1 3505.18  192.49
   3  14   4  383.80   33.65
   3  14   7 9642.67  116.49
   3  14  10 1628.22  187.77
   3  14  22 5285.29  270.09
   3  14  2511272.76  238.26
   3  14  28 8579.52  333.43
   3  14  31  305.01   56.30
   3  14  34 1415.97  181.79
   3  14  37  134.80   87.65
   3  14  40  146.57   56.58
   3  14  43  159.57   71.92
   3  14  55  258.55   55.42
   3  14  58   68.64   55.76
   3  14  61  287.25   76.53
   3  14  64    9.38   74.14
   3  14  67   13.90   73.95
   3  14  73   20.20   67.73
   3  14  76   77.26   76.53
   3  15 -72   22.80   48.86
   3  15 -63  217.19   86.68
   3  15 -60   90.96   67.79
   3  15 -51    0.02   71.65
   3  15 -45  288.01  130.72
   3  15 -42  476.71  116.66
   3  15 -33 1738.94  188.88
   3  15 -27  159.04   27.80
   3  15 -24 2566.70  219.93
   3  15 -21 3390.81  212.63
   3  15 -18 5724.91  143.63
   3  15 -1518269.29  474.49
   3  15 -12 4690.81  195.89
   3  15  -9 1031.90  131.91
   3  15  -6  520.30   55.03
   3  15  -3 1331.36   98.64
   3  15   0 1231.84  124.69
   3  15   3 2039.34  149.69
   3  15   620592.99  287.70
   3  15   920838.04  295.64
   3  15  1238128.70  569.85
   3  15  15 3828.98  256.74
   3  15  18 1732.18  113.24
   3  15  21 5753.87  114.03
   3  15  24 3356.34  133.74
   3  15  2722122.56  526.75
   3  15  30 3066.73  161.28
   3  15  33  863.42  220.57
   3  15  36    5.85   45.42
   3  15  39  204.21  110.46
   3  15  54   60.19   44.08
   3  15  60  283.24   62.75
   3  15  66   81.05   65.05
   3  15  69    7.62   51.35
   3  15  72  200.88   48.86
   3  16 -73  345.16   91.72
   3  16 -64  174.67   81.28
   3  16 -46   77.10   79.71
   3  16 -40 1737.38  169.21
   3  16 -31 3583.27  240.33
   3  16 -28   47.39   59.87
   3  16 -25 1154.05  184.17
   3  16 -22  775.34   75.50
   3  16 -16 5871.58  216.37
   3  16 -13 2456.98   49.14
   3  16 -10  293.18   77.97
   3  16  -7 1007.06  126.06
   3  16  -4 3002.98  228.67
   3  16   2 5624.92  218.84
   3  16   5 6201.53  227.68
   3  16   8 1930.46   49.43
   3  16  17    0.08  131.76
   3  16  20 6040.73  327.74
   3  16  23  959.90  116.25
   3  16  26 2184.20  163.71
   3  16  29 4405.19  173.55
   3  16  35 1384.96  211.95
   3  16  38  142.09  102.02
   3  16  47  224.59   65.84
   3  16  56  101.03   62.72
   3  16  59  140.56   43.76
   3  16  68   52.84   68.56
   3  16  71   11.78   55.81
   3  17 -71  147.94  105.67
   3  17 -68  183.60   71.57
   3  17 -47 1233.16  226.97
   3  17 -44  187.42   97.93
   3  17 -41  352.52   75.19
   3  17 -32  299.68   53.88
   3  17 -29  505.37   65.70
   3  17 -26  531.37   66.63
   3  17 -20 5476.96  245.53
   3  17 -17 4619.94  300.45
   3  17 -11  253.04   89.64
   3  17  -8  145.33  108.70
   3  17  -5  994.31   99.10
   3  17  -2 7014.78  202.29
   3  17   1 2804.85   75.23
   3  17   4 7236.76  146.12
   3  17   7    1.63   56.67
   3  17  10    3.88   68.36
   3  17  19 3462.81  236.32
   3  17  22 4133.19  194.02
   3  17  25  486.47   73.17
   3  17  28  831.13   90.90
   3  17  34  423.63   59.15
   3  17  37  526.67  126.63
   3  17  40  399.24   82.59
   3  17  55    2.20   43.48
   3  17  58  223.95   59.86
   3  17  61   71.83   77.81
   3  17  73  124.75   42.24
   3  18 -72   76.66   60.48
   3  18 -66  100.67   96.07
   3  18 -63   31.13  145.09
   3  18 -51  428.05  155.47
   3  18 -39 3185.11  264.96
   3  18 -30  253.70   45.25
   3  18 -24  571.83   34.39
   3  18 -21 1090.44   95.11
   3  18 -15   89.94   85.49
   3  18 -12 9045.62  309.97
   3  18  -3  507.89   54.04
   3  18   034698.99  413.69
   3  18   3 4809.13  168.76
   3  18   6  185.42   37.22
   3  18  1216247.65  336.54
   3  18  15  154.99   49.74
   3  18  18    5.89   51.32
   3  18  21  307.56   61.35
   3  18  24 1360.03  123.23
   3  18  27 3075.23  181.97
   3  18  30  925.31  115.17
   3  18  33   60.06   44.31
   3  18  36  997.78  145.42
   3  18  39  393.10   63.79
   3  18  42  102.61   69.77
   3  18  45  572.38  117.14
   3  18  48  371.85   91.23
   3  18  51   96.72   51.50
   3  18  57  305.40  116.39
   3  18  72    0.83   84.93
   3  19 -70   94.97   85.09
   3  19 -58   62.03   71.26
   3  19 -49  587.90  172.56
   3  19 -46  208.56   85.13
   3  19 -43  443.12   66.98
   3  19 -37  423.85  122.08
   3  19 -31  792.61   85.51
   3  19 -28 1134.34  183.24
   3  19 -25 1411.67  125.97
   3  19 -22 4829.33  318.16
   3  19 -19  670.49   94.37
   3  19 -16 3314.99  268.86
   3  19 -13 3611.05  268.62
   3  19 -10  652.06  160.49
   3  19  -7  818.01   88.78
   3  19   5  888.50  102.22
   3  19   8 1396.97   62.67
   3  19  1412581.06  564.16
   3  19  17  547.84  115.60
   3  19  29 1236.67   80.29
   3  19  35  616.95   86.55
   3  19  38  250.77   75.60
   3  19  41  348.76   75.52
   3  19  44 3063.61  234.73
   3  19  50  488.68   84.33
   3  19  53  351.42   69.03
   3  19  59  112.82   62.47
   3  19  62  111.29   56.00
   3  19  68   71.19   32.20
   3  19  71   40.85   69.84
   3  20 -50  498.11  102.17
   3  20 -44  170.68  106.68
   3  20 -41 1234.42  365.43
   3  20 -35  608.37   98.00
   3  20 -29  281.08   36.38
   3  20 -26  630.16   92.85
   3  20 -23  675.37  153.94
   3  20 -20  338.98   68.23
   3  20 -14 4335.10  222.51
   3  20 -11   69.75   28.75
   3  20  -8  578.14   62.22
   3  20  -5 1222.64  103.72
   3  20  -2 1534.69   99.73
   3  20   1 1111.41   65.14
   3  20   7 2199.83  144.22
   3  20  10  159.46   48.09
   3  20  16 1199.75   89.38
   3  20  19 5057.99  309.54
   3  20  22   33.57   92.61
   3  20  31 1404.32  133.38
   3  20  34  160.81   69.23
   3  20  46  284.19  108.34
   3  20  55   18.57   49.29
   3  20  61    0.14   47.46
   3  20  64  154.22   69.11
   3  20  70  100.70   47.70
   3  21 -69    0.73  117.66
   3  21 -66   11.99   58.80
   3  21 -57   18.73   94.17
   3  21 -54   60.99   92.36
   3  21 -48   49.36   62.70
   3  21 -42  150.98   70.68
   3  21 -36 2604.29  258.61
   3  21 -33 2255.91  304.35
   3  21 -30  430.72   61.66
   3  21 -21 1727.28  158.08
   3  21 -18  855.18  114.87
   3  21 -15 1193.45  134.89
   3  21  -9 1348.08  153.99
   3  21  -6 7402.39  281.30
   3  21   0 1869.62  118.84
   3  21   9  958.47  169.35
   3  21  12   66.29   61.68
   3  21  21  611.10   95.26
   3  21  24  683.93   74.42
   3  21  27   90.65   49.40
   3  21  30  996.31  164.90
   3  21  33  193.22   92.37
   3  21  36  459.50  121.81
   3  21  39  713.23   91.72
   3  21  42  581.97  148.14
   3  21  48    3.40   67.26
   3  21  63   13.81   65.54
   3  21  66    9.01   62.47
   3  22 -61  180.92   99.89
   3  22 -58  165.99   84.88
   3  22 -55   96.52   66.54
   3  22 -40  737.75  202.12
   3  22 -34  507.74  177.80
   3  22 -31  213.35   84.60
   3  22 -28  321.79   49.98
   3  22 -25   81.49   60.78
   3  22 -22  933.37  181.66
   3  22 -19  433.50   83.11
   3  22 -13   72.69   34.04
   3  22 -10 4299.21  192.60
   3  22  -1  311.98   45.88
   3  22   5 2566.69  168.91
   3  22  11   84.75  131.40
   3  22  14  903.75   91.39
   3  22  23  813.99   89.20
   3  22  26  497.53   56.97
   3  22  32   34.47   36.40
   3  22  38   64.17   46.97
   3  22  56   63.97   84.89
   3  23 -68   57.44  117.42
   3  23 -65  127.66  107.45
   3  23 -59  492.29  159.09
   3  23 -47  219.06   67.28
   3  23 -41  230.81   67.90
   3  23 -35   38.30   79.72
   3  23 -32 1792.26  304.75
   3  23 -29  384.13   84.83
   3  23 -26 1352.08  175.85
   3  23 -23 2125.30  274.25
   3  23 -17 1376.60  146.72
   3  23 -11  767.20   79.42
   3  23  -8 2239.93  147.92
   3  23  -2  879.55  129.51
   3  23   4  592.51   76.42
   3  23   7 5773.73  326.32
   3  23  10  632.87  264.85
   3  23  13  224.49   82.32
   3  23  16   95.99   80.08
   3  23  19 1104.29   99.55
   3  23  22  170.36   68.91
   3  23  25  458.51   50.90
   3  23  28   41.22   69.47
   3  23  31   94.61   74.01
   3  23  34  157.17   64.86
   3  23  37 2399.57  193.41
   3  23  40  463.28   82.89
   3  23  43  120.06   56.96
   3  23  46 1009.58  131.72
   3  23  49  516.70   87.22
   3  23  58    9.83   55.24
   3  23  67  251.89   67.63
   3  24 -54  143.49   70.15
   3  24 -51  597.67  137.01
   3  24 -45  108.99  102.80
   3  24 -39   30.84   59.63
   3  24 -33 1513.59  204.07
   3  24 -30  352.14   80.40
   3  24 -24 1248.69  134.22
   3  24 -21  180.00   56.71
   3  24 -12 3239.38  268.82
   3  24  -9  804.49  116.16
   3  24  -6 1910.47  111.13
   3  24  -3  330.52   40.55
   3  24   0  274.70   77.58
   3  24   6 2007.96  192.84
   3  24  12  453.64  117.39
   3  24  15  841.14  135.90
   3  24  24  141.27   40.45
   3  24  27  228.62   48.21
   3  24  33  588.05   93.72
   3  24  36 1240.79  162.10
   3  24  39 1260.61  132.41
   3  24  42  360.42   65.93
   3  24  45  325.29   64.08
   3  24  48   77.37   72.61
   3  24  57  106.14  100.81
   3  25 -58   17.19   68.66
   3  25 -52   59.19   85.51
   3  25 -49  146.15   67.74
   3  25 -46   10.28   55.83
   3  25 -31   32.88   87.92
   3  25 -28  687.10  237.63
   3  25 -22  199.81   87.55
   3  25 -19  274.11   59.17
   3  25 -16 3579.33  180.67
   3  25 -13  745.46   91.46
   3  25 -10 1224.49  125.61
   3  25  -7 1355.44   97.88
   3  25  -1 1746.69  137.32
   3  25   8  750.63  109.33
   3  25  11 4024.48  379.42
   3  25  14  820.63  254.57
   3  25  23  622.33  106.47
   3  25  26  106.25   56.04
   3  25  50   96.86   77.41
   3  25  53  192.18  106.68
   3  25  56   85.63  167.24
   3  25  65    1.38   64.07
   3  26 -65  101.99   68.13
   3  26 -62   18.64  124.64
   3  26 -41  102.81  107.96
   3  26 -35  187.96   92.79
   3  26 -29  318.05   86.15
   3  26 -26  608.91  155.06
   3  26 -20  277.45   68.00
   3  26 -17  228.05   73.14
   3  26 -14  831.16  189.79
   3  26 -11  647.75  120.79
   3  26  -8  234.36   91.29
   3  26  -5  946.03  105.53
   3  26  -2 1356.02  145.67
   3  26   1 2040.69  154.98
   3  26   4  338.22   98.59
   3  26   7  264.96   66.61
   3  26  13   39.35   63.50
   3  26  16  218.86  180.00
   3  26  19  304.47   68.75
   3  26  22  494.41   56.82
   3  26  28  148.69   55.51
   3  26  31  384.96   86.05
   3  26  34  446.79   54.07
   3  26  37  112.19   76.61
   3  26  40  445.40   82.99
   3  26  46   31.71   62.84
   3  26  55  181.45  107.34
   3  27 -60    0.08   68.31
   3  27 -57   53.76   73.14
   3  27 -45   93.51   74.42
   3  27 -27  645.09  154.24
   3  27 -24  287.38   73.01
   3  27 -21   33.86   97.06
   3  27 -15  297.11   85.21
   3  27 -12   98.89   93.89
   3  27  -6 1851.65  152.30
   3  27  -3 3407.45  430.09
   3  27   3  597.46  108.84
   3  27   6 1028.94  246.14
   3  27   9   90.25  106.47
   3  27  12  986.38  165.80
   3  27  15  781.84  214.44
   3  27  21   20.38  107.54
   3  27  30  903.88  260.08
   3  27  39 1233.80  156.58
   3  27  54   71.43   77.14
   3  27  60   57.56   78.41
   3  28 -58   38.08   78.83
   3  28 -55  149.16  111.56
   3  28 -52  164.96   65.11
   3  28 -46   45.18  100.00
   3  28 -43    5.28   90.65
   3  28 -31  278.43   75.29
   3  28 -28  333.55  103.19
   3  28 -19  175.39   67.00
   3  28 -13  937.14   97.71
   3  28 -10 1799.47  182.09
   3  28  -4  628.46   72.32
   3  28  -1 4123.58  305.58
   3  28   5  425.01  144.14
   3  28   8  158.26   72.75
   3  28  11   47.17   97.64
   3  28  14 1042.86  212.32
   3  28  17  175.91  130.41
   3  28  20  319.08   74.53
   3  28  23  934.83  129.42
   3  28  26 1174.29  211.02
   3  28  32  142.75   73.69
   3  28  35  137.99   80.27
   3  28  41  170.16   91.01
   3  28  44   91.53  101.64
   3  28  59   60.76   66.12
   3  29 -59   62.79   69.36
   3  29 -53   78.67  175.82
   3  29 -50   80.15   77.58
   3  29 -47   49.53   89.49
   3  29 -44   14.02   98.28
   3  29 -38   56.68   54.75
   3  29 -26  126.39   57.10
   3  29 -23  171.06  101.17
   3  29 -20 1390.85  138.73
   3  29 -17  461.08   67.21
   3  29 -11  332.20  103.06
   3  29  -8  969.78  139.48
   3  29  -5 2043.53  177.98
   3  29  -2  411.19  115.20
   3  29   4  128.26   69.38
   3  29  10  355.58  196.45
   3  29  13  644.42  157.70
   3  29  19  499.09  157.67
   3  29  28   40.35   89.90
   3  29  34  380.55  140.70
   3  29  55  112.80  165.44
   3  29  58  313.18   67.26
   3  30 -48   73.76   77.28
   3  30 -42  182.83   77.17
   3  30 -39  372.68   88.45
   3  30 -36   80.43   65.90
   3  30 -30 1752.12  133.07
   3  30 -15   17.95   81.08
   3  30  -9  201.68   99.41
   3  30  -6  160.46   84.55
   3  30  -3 3068.31  272.77
   3  30   0  503.63   90.98
   3  30   6  216.27   77.71
   3  30   9  480.93   96.40
   3  30  12  269.96  109.14
   3  30  21  237.55  111.06
   3  30  30   61.28   89.81
   3  30  33  135.10   99.87
   3  31 -52   62.62  101.14
   3  31 -37  461.48  166.95
   3  31 -28   49.08  114.20
   3  31 -22 1165.92  224.66
   3  31 -19  366.32   79.98
   3  31 -16  499.74  128.15
   3  31 -13  169.24   95.36
   3  31 -10   84.92   97.35
   3  31  -7 1231.32  137.89
   3  31  -4 2616.60  215.92
   3  31   5  892.20  176.23
   3  31  23   94.91  119.71
   3  31  26  431.14  189.44
   3  31  29  111.68   54.84
   3  31  35   13.11   58.89
   3  31  53  243.45  164.77
   3  32 -50    5.53   89.85
   3  32 -44  202.49   85.87
   3  32 -38   41.00   84.87
   3  32 -23  227.56   99.32
   3  32 -20  404.07  116.41
   3  32 -14   81.44   98.59
   3  32  -8   59.75   87.39
   3  32   1   34.99   98.32
   3  32  25  309.15  110.99
   3  32  28  240.60   55.77
   3  32  37   21.85   58.50
   3  32  40  137.32   66.47
   3  32  43  163.00  114.20
   3  32  46   11.36   75.99
   3  32  52  178.38  110.07
   3  33 -45  187.72  183.23
   3  33 -42   68.26  144.10
   3  33 -30   84.67   81.41
   3  33 -21  341.54  150.26
   3  33 -12  203.31   86.06
   3  33  -9  532.37  119.77
   3  33  -3  292.44  103.16
   3  33   0  457.53   73.99
   3  33   6    3.56   76.90
   3  33   9  146.18   75.08
   3  33  15  206.77  107.41
   3  33  18  153.34  138.18
   3  33  33  258.86   91.24
   3  34 -46  113.62  149.63
   3  34 -43   80.23  144.24
   3  34 -31   94.44   79.85
   3  34 -25   76.14   58.30
   3  34 -19  128.57  125.94
   3  34  -4  315.71  109.77
   3  34  -1  955.47  106.94
   3  34   2  921.02  129.01
   3  34   5  438.73   72.75
   3  34  17  123.81  146.34
   3  34  29    1.97  137.52
   3  34  35   28.22  119.68
   3  34  41   98.02   79.31
   3  34  44   85.59  180.05
   3  35 -47  154.28  518.51
   3  35 -38   29.35   96.83
   3  35 -32  139.20  164.87
   3  35 -17  412.39  112.46
   3  35  -8   74.81   52.44
   3  35  -5  111.57   83.12
   3  35   1  311.80   83.10
   3  35   4   43.82   70.27
   3  35   7    1.07  114.54
   3  35  10  724.10  134.86
   3  35  13  185.19   99.45
   3  35  19  535.70  141.78
   3  35  22  298.07  116.30
   3  35  25   14.63  140.30
   3  35  46   26.83   75.79
   3  36 -39   31.04  150.35
   3  36 -33  330.43  133.11
   3  36 -24  116.95   69.27
   3  36 -18    3.88   72.95
   3  36 -12   70.95  104.59
   3  36  -6  222.59   91.65
   3  36  -3  284.41   96.19
   3  36  15  296.31  111.76
   3  36  18 1750.53  216.32
   3  36  24  284.84  127.10
   3  36  27   82.76  139.62
   3  36  45  265.28   88.26
   3  37 -40   63.69  127.58
   3  37 -28  136.08   68.98
   3  37 -22   70.54  109.03
   3  37 -19    3.15  100.77
   3  37 -16  411.76  103.98
   3  37 -13  211.51  107.45
   3  37  -1  416.92  123.50
   3  37   2  153.95  223.40
   3  37  23  487.50  113.28
   3  37  29  146.64   96.62
   3  37  32   69.44   92.07
   3  37  44   93.10  108.99
   3  38 -35   36.63  220.96
   3  38 -29  259.14   80.24
   3  38  -8  113.78  166.93
   3  38  -2 1185.79  153.80
   3  38   1  467.50  136.60
   3  38   4  120.06  122.40
   3  38  10  239.46  133.58
   3  38  13   23.50  105.61
   3  38  19  184.14  140.65
   3  38  22   43.28   67.98
   3  38  25  364.84  143.05
   3  38  34  138.30  107.50
   3  39  -9   36.55   63.88
   3  39  -3   57.70   73.98
   3  39   6  151.65   88.60
   3  39  21  260.81   87.25
   3  39  36  102.86  150.41
   3  40 -34  603.72  513.04
   3  40 -31  106.03  378.03
   3  40 -16   44.14   77.36
   3  40  -4   13.62  126.56
   3  40   5  130.34  138.84
   3  40   8  385.71  180.39
   3  40  17  252.48  132.78
   3  40  23  385.00   91.81
   3  41  -2   77.12   83.63
   3  41   4   10.75   65.44
   3  41  10   10.79   94.70
   3  41  25  255.70  109.44
   3  41  31   23.67   83.45
   3  42 -21  210.58  401.88
   3  42 -18   18.56  121.34
   3  42 -15  341.78  155.15
   3  42  -6    2.87  134.45
   3  42   0   72.37  106.70
   3  42   6  107.74  124.83
   3  42  15   82.52   91.68
   3  42  18   61.95   86.22
   3  42  24   58.82   62.90
   3  43 -19  425.14  151.19
   3  43 -16  168.35  163.13
   3  43 -10   68.49  125.71
   3  43   5  328.62   81.25
   3  43  11   98.38   76.81
   3  43  14   11.40   92.26
   3  43  17  227.40   77.51
   3  44   4  173.85  129.58
   4   1 -75    0.18   45.33
   4   1 -69  132.74   58.03
   4   1 -66  451.09   70.55
   4   1 -63  136.30   53.66
   4   1 -60  146.46   70.50
   4   1 -57  243.54  115.38
   4   1 -54  250.42   44.11
   4   1 -42  926.40  117.54
   4   1 -39    8.02   45.21
   4   1 -36  674.22   90.52
   4   1 -30  240.17  187.73
   4   1 -27  463.77  100.51
   4   1 -24 9857.47  171.15
   4   1 -21   19.61   67.42
   4   1 -18 2590.81  201.91
   4   1 -1579065.95  751.96
   4   1 -1236894.53  210.83
   4   1  -9 8909.61  217.03
   4   1  -6 7314.48  152.29
   4   1  -3272477.3 1319.14
   4   1   052404.92  501.34
   4   1   3135549.3 2935.41
   4   1   6  190.65  146.48
   4   1   958776.01  249.38
   4   1  12244453.2 2344.84
   4   1  15 2335.78   35.77
   4   1  18  344.13  110.65
   4   1  21 1577.67  115.21
   4   1  24 2347.68  131.71
   4   1  3010151.57  514.83
   4   1  33  354.45   63.84
   4   1  36  300.36  163.57
   4   1  39 4165.61  256.71
   4   1  42 1324.01   99.72
   4   1  45  105.57   49.65
   4   1  48  375.31   67.31
   4   1  54  738.94  100.00
   4   1  57 1049.31  124.25
   4   1  63  487.43   54.60
   4   1  66   78.38   50.34
   4   1  81  174.39   69.24
   4   2 -79  265.13   66.82
   4   2 -76   41.78   48.83
   4   2 -70   12.21   63.83
   4   2 -61  143.97   48.60
   4   2 -58  537.78   75.23
   4   2 -49  386.85   55.24
   4   2 -43 1811.71  142.93
   4   2 -40  687.44   93.96
   4   2 -34  731.92   87.13
   4   2 -31 1899.76  351.27
   4   2 -28 7509.01  389.05
   4   2 -25 7802.27  165.84
   4   2 -19 1507.38  172.51
   4   2 -1614537.68  397.77
   4   2 -13 4367.30  316.09
   4   2 -10 5089.23  258.12
   4   2  -7 9722.08  355.16
   4   2  -4 7450.29  128.00
   4   2  -135626.96  438.46
   4   2   237356.08  300.85
   4   2   5   20.97   58.49
   4   2   8  288.21  104.29
   4   2  11 3352.30  184.65
   4   2  14 1253.93  113.68
   4   2  17 6040.93   92.05
   4   2  20   22.26   76.41
   4   2  23 1358.70   80.89
   4   2  29  618.30  213.43
   4   2  32 1175.42  209.92
   4   2  41 2210.82  139.85
   4   2  47  422.98   80.56
   4   2  50  941.51  103.65
   4   2  53  454.92   46.23
   4   2  68   26.27   57.82
   4   2  71   75.38   65.24
   4   2  80   62.20   70.71
   4   3 -80   24.91   63.29
   4   3 -71  186.56   69.32
   4   3 -65  205.95   69.13
   4   3 -62  297.69   55.17
   4   3 -59   97.35   53.51
   4   3 -56   32.05   48.13
   4   3 -53  193.76   51.59
   4   3 -50  233.59   46.88
   4   3 -47  328.40   70.79
   4   3 -41 2106.99  237.23
   4   3 -38  707.44   82.60
   4   3 -35   17.75   59.58
   4   3 -32 1269.17  287.77
   4   3 -29 4104.53  315.27
   4   3 -2610866.04  364.21
   4   3 -23  703.40   52.13
   4   3 -20 9827.18  137.38
   4   3 -17131833.1  741.34
   4   3 -1442864.55  263.14
   4   3 -11 7631.68  416.34
   4   3  -819444.58  128.71
   4   3  -5 2620.05   70.74
   4   3  -235995.94  137.13
   4   3   149247.56  289.38
   4   3   411386.64   51.11
   4   3   710690.04  174.40
   4   3  1035129.37  190.73
   4   3  13 2374.27   60.76
   4   3  16 1386.99   62.78
   4   3  19  631.39   86.42
   4   3  22  542.28   34.10
   4   3  25  746.53   88.44
   4   3  28 6712.07  266.75
   4   3  34 2221.41  149.07
   4   3  37  941.84  121.09
   4   3  46 3680.68  263.95
   4   3  52   32.29   36.14
   4   3  55   41.79   44.11
   4   3  61  390.16   61.28
   4   3  67   31.56   62.33
   4   3  79   22.70   66.81
   4   4 -72   98.81   61.54
   4   4 -66  157.67   76.00
   4   4 -63  123.02   74.52
   4   4 -60  168.19   57.23
   4   4 -54  188.76   53.87
   4   4 -48  225.96   69.85
   4   4 -39 1332.12  109.72
   4   4 -36 3160.75  188.16
   4   4 -33  759.86   51.79
   4   4 -30 3943.75  406.40
   4   4 -27 1768.00  186.18
   4   4 -24 6641.97  102.23
   4   4 -21 6577.59  168.97
   4   4 -1813136.99  282.84
   4   4 -1510483.79  143.01
   4   4 -1228057.65  543.65
   4   4  -947416.18  175.04
   4   4  -617727.10  250.40
   4   4  -312267.45  111.53
   4   4   045815.51  363.37
   4   4   3 4501.19   48.29
   4   4   612960.72  106.29
   4   4   9 3218.27   79.03
   4   4  12 4865.54  197.46
   4   4  15 4830.86  114.67
   4   4  1830274.42  237.69
   4   4  21 3988.66  155.61
   4   4  24 2955.39  206.13
   4   4  27 5114.91  352.22
   4   4  30 2959.76  174.03
   4   4  36  954.43   83.96
   4   4  42  587.80   67.95
   4   4  48   65.03   49.19
   4   4  51  100.95   86.60
   4   4  54  288.48   54.76
   4   4  57   48.70   54.49
   4   4  66  115.41   54.18
   4   4  75   35.43   59.90
   4   5 -79  106.89   47.31
   4   5 -76   71.03   64.17
   4   5 -73   79.60   53.25
   4   5 -70   46.95   61.48
   4   5 -64  239.73   50.47
   4   5 -61   15.01   48.91
   4   5 -55  733.30  103.04
   4   5 -52   92.01   66.61
   4   5 -46 1666.17  185.55
   4   5 -43  121.90   85.52
   4   5 -37 6310.47  363.42
   4   5 -34  305.71   72.32
   4   5 -31  682.11  134.20
   4   5 -28  487.69  151.93
   4   5 -25 7887.40  127.04
   4   5 -22  245.16   48.48
   4   5 -1942475.88  463.05
   4   5 -16 5030.78  182.19
   4   5 -13 9495.55  568.74
   4   5 -10  645.82   68.59
   4   5  -7   54.85   74.36
   4   5  -433337.57  307.99
   4   5  -116268.86  211.59
   4   5   232892.95  289.08
   4   5   5 9864.58   66.71
   4   5   8 8234.77  255.52
   4   5  11  322.14   34.60
   4   5  1426747.23  392.31
   4   5  17  581.14  144.63
   4   5  20    0.03   82.82
   4   5  23 3271.29  117.67
   4   5  26 1921.56  259.12
   4   5  29 3220.87  183.58
   4   5  32   24.89   60.38
   4   5  35 3252.53  219.46
   4   5  38  969.71  102.88
   4   5  44  863.54   91.27
   4   5  47  360.73   49.87
   4   5  50  261.86   67.64
   4   5  53  144.05   57.24
   4   5  56   61.80   56.70
   4   5  59   97.09   56.42
   4   5  62  112.65   80.51
   4   5  71    0.98   47.95
   4   5  74  132.11   51.27
   4   5  77   40.21   42.48
   4   5  80   75.47   58.29
   4   6 -80   94.74   58.05
   4   6 -77  119.80   76.65
   4   6 -71    6.96   43.27
   4   6 -68   99.46   67.40
   4   6 -65  116.73   50.96
   4   6 -59   14.97   74.31
   4   6 -53   73.41   53.17
   4   6 -50  684.78  137.61
   4   6 -47 1393.22  175.52
   4   6 -44 4621.73  454.68
   4   6 -41  340.27   49.96
   4   6 -35 4601.06  371.43
   4   6 -32 4241.14  167.70
   4   6 -29 6697.67  104.50
   4   6 -26  419.83  236.27
   4   6 -2314211.84  142.91
   4   6 -20  630.03   30.59
   4   6 -17 8313.84  264.43
   4   6 -1482058.04  788.94
   4   6 -11180600.9  990.54
   4   6  -861636.88  377.81
   4   6  -5 1902.48   71.04
   4   6  -236548.48  579.50
   4   6   1 2662.17   72.70
   4   6   4 5554.33   46.68
   4   6   7 1301.63   93.15
   4   6  10110858.6  492.15
   4   6  13101355.6  437.11
   4   6  1613101.83  330.35
   4   6  1947152.02  640.80
   4   6  22   23.06   47.51
   4   6  25 3735.30  210.38
   4   6  28  318.92  152.43
   4   6  31 4259.90   84.78
   4   6  34 7745.72  273.98
   4   6  37 2538.68  330.35
   4   6  43 1085.95  176.55
   4   6  52 1407.34  131.11
   4   6  55  264.25   71.91
   4   6  58   96.73   76.06
   4   6  61  457.19   61.54
   4   6  70   32.01   43.83
   4   6  76   77.04   62.14
   4   7 -72   10.17   56.12
   4   7 -69  111.48   52.56
   4   7 -60  163.26   73.03
   4   7 -54   26.16   48.47
   4   7 -48 1625.93  166.04
   4   7 -45  147.58   45.86
   4   7 -42  269.59   65.21
   4   7 -3010771.36  375.76
   4   7 -24  727.06  102.57
   4   7 -2110340.99   79.39
   4   7 -18 3965.11  160.14
   4   7  -3  867.84   43.65
   4   7   039620.69  250.96
   4   7   3 3063.14   88.29
   4   7   6 3933.79  200.29
   4   7   9141428.6  789.52
   4   7  12110325.4  673.28
   4   7  15 4568.16   26.11
   4   7  1812774.66  122.33
   4   7  2117131.16  160.89
   4   7  24   18.81  120.31
   4   7  30 1132.22  150.25
   4   7  3311999.02  604.69
   4   7  39  281.13  118.15
   4   7  42 1519.77  272.44
   4   7  48  984.69  132.92
   4   7  57  122.11   78.34
   4   7  63  158.18   44.22
   4   7  66   27.52   47.93
   4   7  69   20.93   56.68
   4   8 -76   10.99   50.39
   4   8 -67   47.19   53.88
   4   8 -64  146.61   74.66
   4   8 -61  270.16   93.36
   4   8 -55  412.94   65.76
   4   8 -40 1220.16  154.16
   4   8 -31  674.10  130.82
   4   8 -28 1903.45  306.10
   4   8 -25  189.18  110.12
   4   8 -1910415.16  112.86
   4   8 -16 8930.55  179.19
   4   8 -13    0.68   40.84
   4   8 -10 3508.73   23.24
   4   8  -7  520.78  143.86
   4   8  -4  283.60  137.36
   4   8  -1  592.69   39.65
   4   8   238611.02   79.24
   4   8   515907.37  251.50
   4   8   8  310.45   41.24
   4   8  1110036.34   73.49
   4   8  1426966.80  283.32
   4   8  20  681.23   32.01
   4   8  23 1530.48  164.82
   4   8  2621601.11  422.16
   4   8  29 3680.71  273.00
   4   8  3215803.71  473.48
   4   8  41   54.85   64.25
   4   8  44  481.41  219.18
   4   8  56    1.72   64.95
   4   8  65   18.64   51.91
   4   8  71   24.34   55.59
   4   8  74  145.07   54.52
   4   8  77   68.79   77.93
   4   9 -77    4.68   47.22
   4   9 -68   75.52   68.14
   4   9 -53  224.88   94.55
   4   9 -50 1071.98  151.16
   4   9 -47  567.28  109.87
   4   9 -44  845.72  113.85
   4   9 -35 1229.87  165.52
   4   9 -32 2392.91  314.67
   4   9 -29 2214.58   67.53
   4   9 -26 2944.17  150.72
   4   9 -23 7334.06  264.42
   4   9 -20  999.10   46.32
   4   9 -17   49.71   72.90
   4   9 -14  826.18   60.23
   4   9 -1110308.19   71.13
   4   9  -872963.43  626.20
   4   9  -534081.49  233.36
   4   9  -2 1098.67   85.75
   4   9   460248.29  696.09
   4   9   7 2687.93   62.67
   4   9  10 4096.00  748.41
   4   9  13  390.18   47.36
   4   9  16 9250.46   59.88
   4   9  1919702.07  508.10
   4   9  22 2345.40   54.24
   4   9  34   21.80   58.84
   4   9  40  938.34  154.92
   4   9  52  127.66   67.12
   4   9  55   96.74   68.61
   4   9  64   39.45   51.23
   4   9  76   48.61   81.25
   4  10 -75   46.84   96.37
   4  10 -69    5.70   95.39
   4  10 -63   92.25   59.80
   4  10 -60  150.05   70.64
   4  10 -42  193.65   56.35
   4  10 -39 1183.18  157.68
   4  10 -36 2007.31  119.20
   4  10 -3010928.63  508.91
   4  10 -27    0.82   90.47
   4  10 -24 2724.64  274.37
   4  10 -21 2682.33  181.18
   4  10 -18 4204.05  153.21
   4  10 -15 5515.69   80.10
   4  10 -1212532.02  185.64
   4  10  -9 6414.97   85.67
   4  10  -6 1102.20  117.82
   4  10  -3  731.27   37.79
   4  10   016202.31  304.01
   4  10   3  448.02  148.17
   4  10   6 6454.02  210.79
   4  10   9  219.48   45.56
   4  10  1214017.47  194.92
   4  10  1540595.21  232.41
   4  10  18 4694.90   76.44
   4  10  21 9574.50  416.28
   4  10  2418287.40  304.31
   4  10  27  337.92  141.85
   4  10  30  269.46   49.56
   4  10  33 1400.19  221.97
   4  10  36 1020.70  160.25
   4  10  39  117.99   86.45
   4  10  42  537.23  311.25
   4  10  48   95.39   65.67
   4  10  51  135.20   61.99
   4  10  54   37.80   49.56
   4  10  63  262.22   61.51
   4  10  72   32.60   69.75
   4  10  75   36.33   51.36
   4  10  78   13.69   64.97
   4  11 -73   39.91   70.06
   4  11 -58   16.07   34.22
   4  11 -55  282.02   83.44
   4  11 -52  225.27   80.06
   4  11 -49  409.18  105.08
   4  11 -46   43.37   97.69
   4  11 -40  130.19  120.15
   4  11 -37 3237.75  159.62
   4  11 -34  224.74   88.90
   4  11 -2813102.82  423.38
   4  11 -2510595.92  304.78
   4  11 -22 1371.79  106.48
   4  11 -19 1682.39   97.98
   4  11 -16 5624.14  138.74
   4  11 -13 3175.03  106.28
   4  11 -10  577.56   29.97
   4  11  -7 5567.03   98.08
   4  11  -4 1726.08   76.86
   4  11  -1 6735.87  123.54
   4  11   2 8979.21  174.97
   4  11   510268.60   98.77
   4  11   8  402.80   26.56
   4  11  11 3120.01  156.02
   4  11  14 5241.51  207.21
   4  11  17 6218.65  195.00
   4  11  20   29.34   54.82
   4  11  29 1496.86  185.94
   4  11  32 1718.66  149.14
   4  11  35  440.72  138.97
   4  11  38  503.53  208.57
   4  11  50  102.65   91.38
   4  11  59  122.94   84.15
   4  11  62  270.84   58.59
   4  11  71   46.25   65.64
   4  11  74  107.56   61.57
   4  12 -62  564.65   93.34
   4  12 -44 2304.85  183.36
   4  12 -35 2083.55  171.59
   4  12 -32  999.21   52.17
   4  12 -26 2634.36  204.51
   4  12 -23  236.34   60.09
   4  12 -20 4600.18  134.09
   4  12 -17 4675.84  240.02
   4  12 -14 3494.04  137.75
   4  12 -11 4168.62   66.16
   4  12  -8  210.33   49.69
   4  12  -5    0.08   33.06
   4  12  -2  641.34   84.23
   4  12   1  312.00   42.28
   4  12  10 3641.86  200.32
   4  12  13 1886.95   91.30
   4  12  16 5503.60  235.64
   4  12  1913578.18  440.59
   4  12  22 7592.00  336.53
   4  12  25 3008.64  220.45
   4  12  2813758.92  376.68
   4  12  31 9023.81  633.16
   4  12  34 3908.28  464.86
   4  12  43 2822.06  338.56
   4  12  55  365.68   74.04
   4  12  58  197.51   86.02
   4  12  61  506.87   86.97
   4  12  76   74.10   61.28
   4  13 -66   67.63   42.54
   4  13 -63  250.78  104.61
   4  13 -57  192.92   55.77
   4  13 -54  329.67   93.07
   4  13 -51  302.69   52.44
   4  13 -48  280.90   98.43
   4  13 -45  725.81   98.87
   4  13 -39 1078.39  260.27
   4  13 -36 2175.89  171.69
   4  13 -30  316.93   50.39
   4  13 -27 4227.77  237.04
   4  13 -24 1100.04  144.52
   4  13 -18    9.26   43.91
   4  13 -15 7706.53  252.15
   4  13 -12  567.48   56.51
   4  13  -9 5874.02  116.23
   4  13  -3  248.14   39.92
   4  13   0 1724.43  132.26
   4  13   3 1677.60   59.74
   4  13   6  501.61   98.53
   4  13   9 4978.57   57.76
   4  13  1250522.68  566.42
   4  13  1518675.51  344.93
   4  13  18 4732.64  207.56
   4  13  24  705.15  167.42
   4  13  27 9794.48  356.83
   4  13  30 6635.05  381.19
   4  13  33 2939.76  276.49
   4  13  39 2942.27  415.42
   4  13  42 1807.74  174.28
   4  13  45  280.36  164.30
   4  13  51  793.04  125.27
   4  13  57   65.55   62.46
   4  13  60  111.22   65.02
   4  13  69   63.84   48.95
   4  14 -61  187.36   69.78
   4  14 -55  155.60   77.04
   4  14 -40  507.50  139.58
   4  14 -37 4428.75  241.45
   4  14 -34  906.13   68.39
   4  14 -31 4366.88  196.09
   4  14 -28  507.67   79.02
   4  14 -22  181.60   26.25
   4  14 -19  733.45   51.89
   4  14 -16 3100.02  162.75
   4  14 -10 1013.46  138.18
   4  14  -7  109.03   26.29
   4  14  -1 4222.45  130.74
   4  14   5 1787.27   57.60
   4  14   8 2650.22  184.03
   4  14  11  802.34   30.94
   4  14  1717421.73  265.47
   4  14  20 4843.37  114.94
   4  14  26 3130.34  124.65
   4  14  29 1935.44  130.05
   4  14  32  564.63  167.86
   4  14  38  696.97  116.63
   4  14  44   15.20   70.08
   4  14  47  238.62   80.22
   4  14  59  137.06   63.25
   4  14  74   46.23   58.60
   4  15 -71   60.04   61.23
   4  15 -65   12.55   42.60
   4  15 -62   79.62   78.96
   4  15 -56  280.24   85.84
   4  15 -53  118.15  102.50
   4  15 -47  482.80   81.91
   4  15 -38 5688.59  379.25
   4  15 -35  246.61   48.73
   4  15 -29 1941.80  173.27
   4  15 -23 5792.24  270.91
   4  15 -17  273.52   35.00
   4  15 -14  516.89  146.76
   4  15 -11  120.13   53.10
   4  15  -8   53.11   74.15
   4  15  -5 3972.11  210.08
   4  15  -2   33.67   47.81
   4  15   1 8986.67  430.71
   4  15   428408.45  438.01
   4  15   716865.06  251.11
   4  15  1011425.80  185.85
   4  15  13 4384.32  275.30
   4  15  16  239.37   53.37
   4  15  19 5457.46  167.20
   4  15  2211126.29  290.63
   4  15  25 4990.78  321.82
   4  15  31 8618.08  404.04
   4  15  40  161.65   84.59
   4  15  49   57.73   65.31
   4  15  58  425.36   86.34
   4  16 -72   78.32   67.48
   4  16 -69    2.97   80.81
   4  16 -66  160.87   75.80
   4  16 -63   66.96   84.58
   4  16 -51  551.20  102.19
   4  16 -42  613.36  107.68
   4  16 -36  393.09   79.71
   4  16 -33   56.37   60.03
   4  16 -30  460.75  138.48
   4  16 -27 1781.77  169.96
   4  16 -24  242.27   39.78
   4  16 -21 1292.77  125.03
   4  16 -18 2373.98   86.31
   4  16 -15 3243.96  103.44
   4  16 -12 2065.95  171.34
   4  16  -9  283.34   17.48
   4  16  -3 8495.69  249.49
   4  16   0  243.31   48.54
   4  16   3  119.93   81.02
   4  16   6  665.72  142.12
   4  16   9 2585.73  110.95
   4  16  12 3400.39  101.83
   4  16  18 3178.81  126.72
   4  16  21 4110.31  187.90
   4  16  2417380.84  279.00
   4  16  30  663.37   71.14
   4  16  39  111.63   60.23
   4  16  42  122.08  115.20
   4  16  57    4.54   56.77
   4  16  60   16.98   43.35
   4  16  63   48.66   52.83
   4  16  66   94.48   46.50
   4  17 -73   38.10   48.35
   4  17 -64  139.10  105.71
   4  17 -55  314.53  100.27
   4  17 -43  354.76   96.84
   4  17 -37  260.57   83.77
   4  17 -34  153.69   83.46
   4  17 -31  366.03   90.41
   4  17 -28  496.57  142.56
   4  17 -25 2578.68  120.28
   4  17 -22 1484.20  157.99
   4  17 -19  544.44  100.12
   4  17 -10 6690.06  170.51
   4  17  -714669.58  392.98
   4  17  -4  184.76   69.56
   4  17  -1  169.12   35.80
   4  17   2 3239.50  234.48
   4  17   5 3745.39  219.39
   4  17   824933.90  538.59
   4  17  11 3342.74  181.10
   4  17  1412616.65  403.73
   4  17  17  100.38   60.92
   4  17  20 2266.92  157.33
   4  17  26  183.55   42.38
   4  17  32  527.89   79.49
   4  17  35 1427.43  148.98
   4  17  38  636.44  103.56
   4  17  41  130.35   73.43
   4  17  56  183.55   43.41
   4  17  68  104.20   55.10
   4  17  71   49.22   59.12
   4  18 -71   33.51   77.97
   4  18 -62   62.16   62.98
   4  18 -59   78.78  110.73
   4  18 -53   92.90   87.87
   4  18 -47  979.61  131.36
   4  18 -44  149.10   90.03
   4  18 -41  247.43   80.64
   4  18 -38  737.65  128.19
   4  18 -35  412.09  121.74
   4  18 -26  748.87   44.03
   4  18 -17  873.26   95.62
   4  18 -1410048.50  272.23
   4  18  -5 5707.51  241.78
   4  18  -211977.83  234.98
   4  18   416356.13  242.59
   4  18   7 2328.37  119.02
   4  18  1018206.96  503.05
   4  18  16 2143.81  202.73
   4  18  19 4387.98  266.13
   4  18  22 4295.60  282.60
   4  18  28  232.04   53.23
   4  18  31 1943.77  161.94
   4  18  34  139.26   60.43
   4  18  46  441.24   84.81
   4  18  49  643.07  126.96
   4  18  70   17.98   54.11
   4  18  73   27.32   70.77
   4  19 -69    0.04   54.57
   4  19 -60  115.06   94.54
   4  19 -45   16.44   56.29
   4  19 -42  166.20   72.46
   4  19 -36  389.73  148.15
   4  19 -33   46.20   48.01
   4  19 -30  225.72   59.76
   4  19 -27   13.71   65.77
   4  19 -21  169.63   37.98
   4  19 -1810462.85  353.49
   4  19 -15  721.21  101.49
   4  19 -12   68.78   37.37
   4  19  -913458.22  282.59
   4  19  -6  910.56  179.14
   4  19  -3 2744.22  158.56
   4  19   3  641.29   87.32
   4  19   6 5780.11  182.73
   4  19   9  496.00   69.08
   4  19  12 5702.22  208.72
   4  19  18 2699.23  240.42
   4  19  21   86.33   94.94
   4  19  30  338.35   89.40
   4  19  36  578.98   89.97
   4  19  39  156.34   60.75
   4  19  57   62.98   95.97
   4  19  60  242.30   60.84
   4  19  63  104.56   60.35
   4  19  66   24.34   48.48
   4  19  72   14.90   42.65
   4  20 -70  241.81   69.83
   4  20 -67  138.84   62.27
   4  20 -58  473.44   90.35
   4  20 -55   40.86   73.52
   4  20 -52   69.85   68.52
   4  20 -37  939.28   99.69
   4  20 -34 1689.05  235.30
   4  20 -31 1044.11  107.71
   4  20 -25   80.73   58.80
   4  20 -22    0.18   36.48
   4  20 -19 1413.73  143.37
   4  20 -13 5629.87  255.23
   4  20 -10 1285.09  108.40
   4  20  -7   92.66   43.60
   4  20  -4 1271.74  113.10
   4  20  20 2720.17  187.36
   4  20  23  125.23   60.28
   4  20  29 1483.30  159.09
   4  20  35  439.49   92.74
   4  20  38  618.75   95.57
   4  20  41   87.58   77.81
   4  20  44  383.71  159.83
   4  20  59   84.36   79.78
   4  20  71  108.03   76.86
   4  21 -65    4.61   65.30
   4  21 -62   16.27   88.04
   4  21 -56  189.07  111.63
   4  21 -47  216.01  144.33
   4  21 -44   95.32   70.72
   4  21 -38  226.29  103.13
   4  21 -29  141.43  103.47
   4  21 -26 1661.54  224.90
   4  21 -23 1270.02  172.51
   4  21  -8  984.40  101.18
   4  21  -5  569.92   66.67
   4  21  -2  454.18   71.07
   4  21   1 4091.49  191.79
   4  21   4  642.27   88.10
   4  21  10 1490.92  169.74
   4  21  13  922.58  136.90
   4  21  16  826.34   82.69
   4  21  22  131.27   52.92
   4  21  25  960.69   67.80
   4  21  28  783.67   81.02
   4  21  34  182.42   52.02
   4  21  37   83.91   61.74
   4  21  40  618.01  115.52
   4  21  52  259.66   76.21
   4  21  64   41.58   54.96
   4  21  70   32.96   74.95
   4  22 -66  190.69   95.49
   4  22 -63   84.37   67.59
   4  22 -57   41.55   46.94
   4  22 -54   84.88   65.22
   4  22 -48   81.77   51.45
   4  22 -45  119.65   92.44
   4  22 -36  420.98  105.58
   4  22 -24  159.14   54.31
   4  22  -9 1039.31  120.30
   4  22  -6  994.56  103.16
   4  22  -3    2.22   27.68
   4  22   3  539.95   90.82
   4  22   6   40.86   46.48
   4  22   9   30.50   42.61
   4  22  12  207.88   34.11
   4  22  15  807.94  196.70
   4  22  21  639.81  114.25
   4  22  24  108.74   65.41
   4  22  30   64.99   58.07
   4  22  39 2715.60  177.28
   4  22  45  205.53   76.69
   4  22  51  294.50  106.86
   4  23 -67  185.80   59.41
   4  23 -58   29.71   69.17
   4  23 -46  298.76   68.34
   4  23 -40   48.88   96.38
   4  23 -37  418.99  131.62
   4  23 -31  189.37   63.95
   4  23 -28   36.63   62.57
   4  23 -22  396.72   60.87
   4  23 -19  101.37   37.03
   4  23 -16   60.95   93.83
   4  23 -13 1043.49  124.75
   4  23 -10 4020.00  282.96
   4  23  -7  758.50   71.99
   4  23  -4 3960.70  302.04
   4  23  -1 3006.99  206.17
   4  23   2 4919.16  227.86
   4  23  11 2733.19  308.46
   4  23  14  426.13   57.75
   4  23  17  653.90  191.43
   4  23  20  332.57  105.91
   4  23  23  217.50   74.03
   4  23  26  307.03   51.33
   4  23  29  492.50   78.18
   4  23  32  550.72   76.40
   4  23  38  864.20   85.60
   4  23  44  137.42   94.44
   4  23  50  150.72   54.36
   4  23  59   38.27   70.82
   4  24 -62  217.00  111.54
   4  24 -50  264.37   74.92
   4  24 -47  140.86   92.15
   4  24 -44  262.95   90.18
   4  24 -41  312.99  103.71
   4  24 -35  783.32  132.89
   4  24 -26  363.93  121.09
   4  24 -23  870.63   92.93
   4  24 -20 1192.31   97.44
   4  24 -17  530.14   79.90
   4  24  -8 1389.78  176.94
   4  24  -5  758.30   88.98
   4  24  -2  813.79   71.61
   4  24   4  414.02   78.64
   4  24   7  469.54   77.68
   4  24  10  988.00   90.30
   4  24  13  163.36   95.61
   4  24  16  240.50   91.34
   4  24  19  137.41   74.85
   4  24  22   55.25   44.76
   4  24  28 1159.56  153.39
   4  24  31  239.84   71.00
   4  24  34  374.40   64.16
   4  24  37  152.44   49.94
   4  24  40   77.45   62.02
   4  24  43 2768.57  174.15
   4  24  55   80.64  186.31
   4  24  67   82.27   73.69
   4  25 -54  487.27  165.57
   4  25 -48  162.38  101.15
   4  25 -36  160.77   79.24
   4  25 -33   59.04   70.17
   4  25 -30  473.38  133.34
   4  25 -27 1784.91  308.14
   4  25 -24  452.27   91.69
   4  25 -21   87.59   43.77
   4  25 -18 1191.96  172.22
   4  25 -15  251.25   74.84
   4  25  -6  275.38   81.50
   4  25  -3  367.98   69.95
   4  25   3   93.09   51.42
   4  25   6 1549.51  159.98
   4  25   9 2001.23  346.65
   4  25  18  170.37   44.41
   4  25  24  333.31   87.68
   4  25  27  235.33   38.37
   4  25  30  257.35  102.73
   4  25  33   66.60   71.19
   4  25  36   40.62   71.89
   4  25  39  129.43   87.66
   4  25  42  215.94  159.55
   4  25  45   80.94   80.13
   4  25  51  400.64   96.69
   4  25  60   16.75   58.58
   4  25  63    8.72   80.93
   4  26 -55  147.75   81.24
   4  26 -43  499.20  160.66
   4  26 -37   39.97   95.43
   4  26 -31   70.14   81.49
   4  26 -28   57.68   89.96
   4  26 -25   65.95   54.02
   4  26 -22   70.41   55.36
   4  26 -19  529.84  153.30
   4  26 -13  344.96   96.00
   4  26 -10 3163.79  308.26
   4  26  -7  479.66  110.04
   4  26  -4  233.15   67.75
   4  26  -1  369.82  109.73
   4  26   2 1267.60  208.44
   4  26   5 1045.25  139.11
   4  26   8  696.48   95.09
   4  26  11  157.22   69.72
   4  26  14 1556.79  226.44
   4  26  29  355.21   71.62
   4  26  38 1214.10  160.24
   4  26  41  325.66   69.29
   4  26  47  147.07   98.82
   4  26  62   56.63   68.39
   4  27 -56   50.50   84.17
   4  27 -53    3.25  125.10
   4  27 -47  253.84   82.81
   4  27 -32 1151.55  192.23
   4  27 -29  662.56  104.43
   4  27 -26  282.68   47.87
   4  27 -17   70.26   51.07
   4  27 -14   50.52   54.62
   4  27 -11  694.80  112.97
   4  27  -8 1699.42  193.14
   4  27  -5  479.46  145.96
   4  27  -2  864.43  129.09
   4  27   1  239.75   95.06
   4  27   4  272.98   97.66
   4  27   7  135.32   61.58
   4  27  10  107.84   61.08
   4  27  16  175.58   70.50
   4  27  19  177.63   52.92
   4  27  25  703.79  171.42
   4  27  28  661.28   65.61
   4  27  37  164.28   86.05
   4  27  40  379.28   89.27
   4  27  46  219.46   84.75
   4  27  49   93.56   81.17
   4  27  52   46.15   62.10
   4  28 -57   35.52   89.28
   4  28 -54   42.21   65.40
   4  28 -42   48.85  149.08
   4  28 -33  231.22  112.37
   4  28 -30 1040.75  122.33
   4  28 -27   71.32   60.12
   4  28 -24 1770.97  200.42
   4  28 -21 1643.33  262.23
   4  28 -15  750.42  121.26
   4  28  -6 1336.17  112.89
   4  28  -3  905.16  163.41
   4  28   0  450.14  110.54
   4  28   3 1425.21  136.39
   4  28   6   88.82  116.42
   4  28   9  424.84  130.24
   4  28  12    0.49   68.05
   4  28  15  690.08  146.59
   4  28  18  153.75   68.50
   4  28  24 1962.93  293.42
   4  28  36   84.04   61.61
   4  28  39   25.39   84.54
   4  28  42   67.73  128.76
   4  28  51   23.61   72.63
   4  28  54    0.20   83.77
   4  28  60   21.95   74.26
   4  29 -40   15.69   56.27
   4  29 -34  371.92   69.20
   4  29 -31   36.48   75.04
   4  29 -19   77.41   78.49
   4  29 -13  307.86   68.57
   4  29  -1  158.55  106.11
   4  29   5  106.05  119.93
   4  29  23    6.66   68.33
   4  29  26  146.82   75.90
   4  29  29    5.28  103.85
   4  29  44  120.88   84.02
   4  29  53   13.03  155.56
   4  29  56  244.77  173.88
   4  30 -41  213.38   85.82
   4  30 -23  163.53   74.95
   4  30 -20  271.28   90.21
   4  30 -14  491.83  151.96
   4  30 -11  296.96  100.84
   4  30  -5   24.63   98.77
   4  30   4   60.57   63.74
   4  30   7  272.79   99.27
   4  30  10  351.12   88.55
   4  30  13  223.09  105.71
   4  30  22  114.14  108.42
   4  30  28   18.99   44.22
   4  30  31  625.44  104.98
   4  30  37  213.56   82.55
   4  30  40  215.66   92.34
   4  30  43  140.51   76.30
   4  30  49  387.44   73.34
   4  30  55   71.55   80.38
   4  31 -48  111.14   70.90
   4  31 -45  179.78   78.40
   4  31 -36   31.33   74.57
   4  31 -15  247.52   61.56
   4  31  -9 1187.54  241.42
   4  31  -6  589.80  143.72
   4  31  -3  207.85  100.18
   4  31   0  200.16   91.16
   4  31   3  987.75   96.79
   4  31  18  571.57  154.59
   4  31  24  525.24   96.22
   4  31  27  738.73   95.45
   4  31  30  536.27  105.11
   4  31  45   75.17   81.27
   4  31  54   47.22   74.54
   4  32 -34   76.64  100.41
   4  32 -31  173.61   72.68
   4  32 -28   62.26   86.85
   4  32 -25  330.82  116.50
   4  32 -22  263.64   74.53
   4  32  -7  215.50   82.60
   4  32  -1   53.24  104.08
   4  32  11  413.02  116.09
   4  32  14   69.76   92.69
   4  32  17  295.66  124.88
   4  32  26  162.75  104.94
   4  32  29   64.65   89.98
   4  32  35  180.89   89.53
   4  32  47  148.80  130.37
   4  33 -47  105.24  172.88
   4  33 -41  250.63  326.06
   4  33 -38  279.56   76.22
   4  33 -29   13.14  184.15
   4  33 -23  312.99  118.62
   4  33 -20  300.31   92.13
   4  33  -8   82.94   98.90
   4  33  -5   32.69  145.66
   4  33   4  127.34  118.62
   4  33  19   60.73   81.39
   4  33  22  317.61  106.69
   4  33  31   24.14  116.40
   4  33  37  205.01   80.51
   4  34 -48    8.99  260.21
   4  34 -36  325.05  148.67
   4  34 -33  129.56  179.63
   4  34 -27   11.10  118.63
   4  34 -24   38.95   72.36
   4  34 -21  154.14   83.13
   4  34 -18    1.27  103.75
   4  34 -15  229.78  140.30
   4  34  -9   99.91   93.36
   4  34  -6  139.63   74.36
   4  34  -3   88.20   53.31
   4  34   0   22.34   63.24
   4  34   6  407.07  124.16
   4  34   9  396.98  155.24
   4  34  18  170.11  136.98
   4  34  21  496.18  125.57
   4  34  24 1126.37  224.51
   4  34  36   56.06   64.79
   4  34  48   47.15  160.24
   4  35 -43  160.18  179.85
   4  35 -40  310.05  118.07
   4  35 -34    5.18   94.58
   4  35 -25  128.86  119.99
   4  35 -22  288.80   99.57
   4  35 -13  145.25  145.28
   4  35 -10  177.00  119.57
   4  35  -7   83.02  125.07
   4  35  -4  128.66   82.57
   4  35  -1  190.71   82.29
   4  35   5   66.54   96.69
   4  35  11   14.11  111.40
   4  35  17  119.30  181.53
   4  35  23   44.68   97.11
   4  35  41  390.49  159.29
   4  35  47  157.02  242.67
   4  36 -44   98.06   68.26
   4  36 -32  182.96   84.51
   4  36 -26   84.98   67.05
   4  36 -11   93.54   66.54
   4  36  -5   82.71   63.57
   4  36   1   46.84   99.81
   4  36   7  262.57  106.93
   4  36  10  460.81  101.20
   4  36  16  960.66  177.48
   4  36  19   10.58  106.73
   4  36  22  199.79  115.64
   4  36  28  309.39  151.43
   4  36  31  242.85  113.94
   4  37 -33    2.89  152.68
   4  37 -27  365.80  170.14
   4  37 -15  106.34  131.30
   4  37 -12  157.19  114.43
   4  37  -9  373.72  100.07
   4  37  -3  392.40   90.29
   4  37   9  202.72  119.04
   4  37  12  570.15  113.10
   4  37  33  119.13   58.66
   4  38 -28  731.16  262.00
   4  38 -13  329.75   98.65
   4  38 -10    1.87   64.02
   4  38  -1  250.18  143.37
   4  38  11  223.09  123.03
   4  38  14  240.22  117.36
   4  38  26  171.71  212.56
   4  38  29  305.04  138.66
   4  39 -20  314.01  209.81
   4  39 -17   33.28  103.26
   4  39  -8   96.27   77.54
   4  39   1  563.68  118.97
   4  39  10  330.24  126.55
   4  39  28  296.53  113.29
   4  39  31   69.14  123.99
   4  40 -15  109.24  212.83
   4  40   6    1.54   83.13
   4  40   9  157.92  114.75
   4  40  24  654.50  167.31
   4  41 -16   87.31  134.63
   4  41 -13   17.39   60.88
   4  41  -7  235.20  134.60
   4  41   5    6.24   65.81
   4  41   8    0.87  153.37
   4  41  26   25.43  135.96
   4  42 -17  137.50  279.28
   4  42 -14    7.16   72.79
   4  42   4   74.05  210.05
   4  42  13  133.79   92.50
   4  42  16    6.99   52.47
   4  43 -15   52.92   60.47
   4  43 -12  861.84  179.19
   4  43   0  123.80   75.73
   4  43   3   24.49   74.98
   4  43   6  128.12  296.50
   4  43  12  110.29  188.33
   5   1 -71   28.55  102.46
   5   1 -62  385.94   95.68
   5   1 -56   77.25   45.85
   5   1 -53  291.00   51.13
   5   1 -50  568.57   58.78
   5   1 -44   21.34   38.03
   5   1 -41  623.84  142.68
   5   1 -38  436.91   56.04
   5   1 -35 3135.17  239.35
   5   1 -3211829.60  565.65
   5   1 -29  234.72  277.77
   5   1 -2319157.83  313.85
   5   1 -20 4910.21  214.98
   5   1 -1747819.01  567.03
   5   1 -11 4522.60  294.02
   5   1  -8 3058.35  158.06
   5   1  -5115694.2  726.15
   5   1  -242165.60   79.43
   5   1   1 4767.35  227.07
   5   1   4 9233.66  128.56
   5   1   7 7775.37  300.38
   5   1  10 2340.36  173.01
   5   1  16 2695.76  117.10
   5   1  19 1490.68  179.27
   5   1  22 2723.11   26.02
   5   1  25 2308.73   35.55
   5   1  28 1800.79  287.17
   5   1  31  561.41  274.22
   5   1  34 2711.53   51.40
   5   1  37 2689.84  161.58
   5   1  40 2919.87  150.91
   5   1  43 1315.20   75.93
   5   1  46  100.33  117.82
   5   1  49  402.46   86.30
   5   1  52  150.37   50.55
   5   1  55  224.06   52.20
   5   1  58  321.96   86.33
   5   1  67  160.16   76.20
   5   2 -78   32.70   55.61
   5   2 -72   36.09   68.79
   5   2 -66  164.35   85.09
   5   2 -63  394.57   38.20
   5   2 -60  222.81   55.14
   5   2 -57   12.91   44.36
   5   2 -54  124.69   46.64
   5   2 -45 2664.98  231.34
   5   2 -42  635.31  119.40
   5   2 -39  927.99  124.28
   5   2 -36 8951.54  348.86
   5   2 -33 2495.72   65.06
   5   2 -30  504.79   61.20
   5   2 -27    0.78   59.42
   5   2 -18   87.64  279.69
   5   2 -1515465.75   94.05
   5   2 -1211719.15  332.71
   5   2  -967776.02  664.91
   5   2  -6 2515.10  102.83
   5   2  -3 3029.37  140.64
   5   2   039047.10  213.56
   5   2   3 4070.79  196.00
   5   2   6 2221.27   21.36
   5   2   9 3472.81  116.32
   5   2  12 1833.04  131.29
   5   2  15  443.05   71.72
   5   2  24  167.51   42.96
   5   2  27 1434.07   62.02
   5   2  30  723.72   45.47
   5   2  3315318.45  437.34
   5   2  36 6458.89  367.38
   5   2  39  863.48   76.21
   5   2  42  224.14   70.81
   5   2  51  251.12   50.38
   5   2  54  455.58   89.01
   5   2  60  287.71   51.47
   5   2  63  114.33   47.93
   5   2  69   88.55   61.55
   5   2  72   13.53   51.95
   5   2  75    5.05   81.19
   5   2  78  111.53   66.71
   5   3 -76   92.22   68.67
   5   3 -73  362.48   56.27
   5   3 -64  193.17   63.01
   5   3 -55  993.87  106.32
   5   3 -52  202.94   40.82
   5   3 -49 1667.56  210.54
   5   3 -46  895.64  122.74
   5   3 -43 1944.50  203.66
   5   3 -34  588.27  257.63
   5   3 -22 5693.44  121.60
   5   3 -1923297.14  417.32
   5   3 -13 2560.18  277.76
   5   3 -1010385.57  136.72
   5   3  -416724.25  114.49
   5   3  -1 9683.55   31.14
   5   3   2  448.92   93.55
   5   3   5 3787.54   80.90
   5   3   8  716.66  131.57
   5   3  1122397.67  176.16
   5   3  14 2187.45  156.06
   5   3  1756875.28  759.58
   5   3  20 3666.26   45.18
   5   3  23  820.87   64.03
   5   3  26 8195.14  356.78
   5   3  29  195.01  224.13
   5   3  32 2449.20  234.25
   5   3  35 5199.42  366.01
   5   3  38 2333.41  181.65
   5   3  41  492.11  111.91
   5   3  44 1967.56  301.93
   5   3  50  195.25   73.83
   5   3  59  132.35   50.61
   5   3  62   23.76   33.28
   5   3  68  259.93   96.41
   5   3  71   41.83   69.54
   5   3  74    5.94   50.91
   5   3  77   11.24   73.58
   5   4 -62  297.42   74.68
   5   4 -56  250.97   57.04
   5   4 -53  175.02   60.03
   5   4 -47  415.67   78.54
   5   4 -44  241.62   87.41
   5   4 -35  716.04  141.59
   5   4 -32  507.43   85.72
   5   4 -29  108.40  165.68
   5   4 -26 5971.10  251.35
   5   4 -2310771.26  110.34
   5   4 -20 2426.94   84.55
   5   4 -17 4327.10  136.03
   5   4 -14 2612.25  529.94
   5   4 -1117677.21  574.58
   5   4  -8 2489.35  179.37
   5   4  -216339.33  122.46
   5   4   1 8734.42   73.73
   5   4   4 7546.42   21.62
   5   4   7 8869.68  157.09
   5   4  10 7262.53  342.78
   5   4  13  965.58   84.30
   5   4  16 8063.48  165.10
   5   4  19 1420.27   45.33
   5   4  22   76.84   36.68
   5   4  28 1833.25  306.10
   5   4  31 1324.31  102.67
   5   4  3411571.48  432.69
   5   4  40 1076.80  190.52
   5   4  49  159.80   46.78
   5   4  52  172.37   79.56
   5   4  79   29.21   75.48
   5   5 -78   66.71   47.51
   5   5 -69   84.61   64.68
   5   5 -66  118.87   57.93
   5   5 -60  357.64   57.19
   5   5 -54   62.44   53.33
   5   5 -42  324.61   74.79
   5   5 -39 1543.34   97.01
   5   5 -33 5111.68  321.12
   5   5 -30 4985.77  222.52
   5   5 -2710729.59  387.92
   5   5 -18 5405.04  226.82
   5   5 -15 6470.41  117.89
   5   5 -1216865.19  337.27
   5   5  -9 2441.63  189.77
   5   5  -6 1907.66  197.34
   5   5   059677.22  490.46
   5   5   3 7644.37  185.05
   5   5   6 1822.92   55.47
   5   5   9  159.33  105.01
   5   5  12119616.8  607.51
   5   5  1555812.97  741.04
   5   5  18 9593.04  218.99
   5   5  2119652.13  253.64
   5   5  24 3554.74   80.01
   5   5  2712678.39  427.11
   5   5  30 5752.66  415.89
   5   5  33  670.06   58.13
   5   5  36 4082.32  331.00
   5   5  42 1143.10  183.27
   5   5  45  425.95  111.22
   5   5  48   24.38   51.40
   5   5  54  369.13   48.22
   5   5  57   41.33   67.34
   5   5  60   11.50   52.10
   5   5  63  156.29   71.62
   5   5  69   24.07   60.50
   5   5  72   81.64   66.70
   5   5  75   53.58   40.08
   5   6 -79    0.39   61.43
   5   6 -76   27.38   45.94
   5   6 -64  181.65   89.80
   5   6 -58  104.49   77.67
   5   6 -55   46.20   68.10
   5   6 -52 1004.26  100.34
   5   6 -43   80.99   90.83
   5   6 -40 1464.99  153.78
   5   6 -37  394.06  107.89
   5   6 -34  382.19   58.84
   5   6 -31 2867.87  155.03
   5   6 -28 3976.50  119.71
   5   6 -2512702.45  534.86
   5   6 -22  338.55   34.22
   5   6 -19 1095.10   93.01
   5   6 -16  289.89   60.62
   5   6 -13 8838.74  153.37
   5   6 -10118181.0  638.86
   5   6  -742207.66  454.15
   5   6  -4 1564.93  172.57
   5   6   2  948.38   83.64
   5   6   531819.74  272.53
   5   6  1114868.84  116.58
   5   6  1449315.67  435.03
   5   6  17  113.19   76.18
   5   6  23 1666.71   42.46
   5   6  26  402.87  183.27
   5   6  29    1.87   94.27
   5   6  32 2440.27  268.75
   5   6  38  196.10   87.46
   5   6  44  137.81   44.18
   5   6  50  156.72   53.54
   5   6  56  303.44   72.80
   5   6  74   14.78   38.33
   5   7 -74    8.56   54.13
   5   7 -68  125.43   51.49
   5   7 -65   72.73   46.44
   5   7 -53  539.29   91.71
   5   7 -50  881.41  113.44
   5   7 -47  467.74   75.79
   5   7 -44  889.63   78.60
   5   7 -38 1515.20  196.42
   5   7 -3210710.36  318.64
   5   7 -29 2766.07  324.90
   5   7 -23 2320.07   90.69
   5   7 -17 1808.39   72.37
   5   7 -1417305.24  258.02
   5   7 -11 1189.47   44.15
   5   7  -8 4859.00  190.43
   5   7  -516932.75  244.67
   5   7  -213053.53  330.59
   5   7   1 2794.82   40.79
   5   7   4 8248.46  151.32
   5   7   713288.62  133.59
   5   7  10  568.29  153.61
   5   7  1648290.45  378.11
   5   7  19 7150.43  193.48
   5   7  25  819.70  102.03
   5   7  28 5106.66  405.16
   5   7  31    0.78   74.49
   5   7  37  156.88  108.82
   5   7  40 1176.02  129.03
   5   7  43 1259.50  220.03
   5   7  46 5506.38  486.73
   5   7  55  239.70   49.74
   5   7  58   23.24   51.95
   5   7  61  246.75   60.67
   5   7  73   28.36   56.28
   5   7  76   21.67   50.63
   5   7  79   66.25   39.95
   5   8 -75   43.15   59.72
   5   8 -69   29.38   66.87
   5   8 -57   28.66   63.88
   5   8 -51 1270.37  139.14
   5   8 -48  223.05   70.43
   5   8 -45  105.35  118.26
   5   8 -42  932.65  140.51
   5   8 -36  429.52   82.81
   5   8 -30 1556.02   69.23
   5   8 -27 3816.33  148.16
   5   8 -2414462.61  171.95
   5   8 -21  625.03   74.01
   5   8 -15  315.38   31.09
   5   8 -1212305.03  198.55
   5   8  -9 4420.04  167.14
   5   8  -616753.06  254.86
   5   8  -3 7725.31  151.99
   5   8   021553.52  275.12
   5   8   3 2724.90  107.27
   5   8   9 6305.04   99.93
   5   8  12  240.79   66.93
   5   8  1515835.14  198.42
   5   8  18 7461.12   45.95
   5   8  21 1260.55   86.42
   5   8  2415705.06  493.29
   5   8  2728322.86  380.35
   5   8  33 2142.07  228.55
   5   8  36  585.66   62.33
   5   8  39  482.19  125.59
   5   8  42 3878.70  533.15
   5   8  45  295.86   99.58
   5   8  48  250.31  107.06
   5   8  51  391.19   60.10
   5   8  57   38.45   54.91
   5   8  60  505.49   53.80
   5   8  63    2.81   63.74
   5   8  66   56.94   52.45
   5   8  69    3.46   60.74
   5   8  78   91.27   46.50
   5   9 -76  200.45   70.00
   5   9 -58  204.33   90.50
   5   9 -55    4.18   81.12
   5   9 -49  140.94   82.56
   5   9 -46  415.00   99.25
   5   9 -40  306.53   54.14
   5   9 -37 1270.12  176.23
   5   9 -28 2559.11  195.34
   5   9 -2520160.27  433.47
   5   9 -22 5247.74  161.89
   5   9 -19  452.40  274.77
   5   9 -16   35.46   49.28
   5   9 -13  812.40   42.14
   5   9 -10 4150.33  135.55
   5   9  -7  574.93   93.21
   5   9  -4 1931.86   97.44
   5   9  -1  262.90   58.31
   5   9   2 1336.32   19.77
   5   9   5 3143.16  153.67
   5   9  14 1751.07  148.44
   5   9  17 7155.08  202.55
   5   9  20 3567.96  240.90
   5   9  2315548.89  458.59
   5   9  32 3572.31  323.30
   5   9  35  814.54  197.48
   5   9  41 1009.78  133.71
   5   9  47  227.58   96.36
   5   9  65  101.56   50.95
   5   9  68   60.75   62.67
   5  10 -74    2.02   54.83
   5  10 -71  241.61   65.32
   5  10 -53  112.79  146.96
   5  10 -41   97.65   66.42
   5  10 -38 1476.52  135.90
   5  10 -35 4463.46  209.73
   5  10 -29  957.60   93.86
   5  10 -2614714.32  374.49
   5  10 -23  956.52   82.32
   5  10 -17 2061.99  175.32
   5  10 -14  648.75   20.02
   5  10  -812391.73  116.08
   5  10  -5 1838.46   71.06
   5  10  -2  228.53   62.18
   5  10   1 3186.53   62.29
   5  10   4 2433.85  159.33
   5  10  10 9211.68   86.71
   5  10  13  868.36  115.22
   5  10  16 3513.88  117.32
   5  10  1931485.91  343.13
   5  10  22 9716.66  230.94
   5  10  25 1800.62  118.57
   5  10  31 7839.39  482.64
   5  10  3413512.75  593.12
   5  10  40  620.91   97.45
   5  10  49  238.57   71.75
   5  10  58   65.73   74.88
   5  10  61  436.36   73.05
   5  10  67  185.83   54.61
   5  11 -69    3.91   70.31
   5  11 -63   36.49   48.60
   5  11 -54  204.00   69.63
   5  11 -48  338.15   91.82
   5  11 -45  256.52   98.54
   5  11 -42  442.01  102.70
   5  11 -39  286.09   91.34
   5  11 -36  435.31   46.67
   5  11 -33  159.51   63.72
   5  11 -30 1218.82   95.92
   5  11 -24  187.36   70.18
   5  11 -21  345.67   54.91
   5  11 -18    8.54   52.72
   5  11 -12  478.30   51.35
   5  11  -9 1955.49   37.11
   5  11  -3 8836.15  125.99
   5  11   0 3817.48   44.23
   5  11   3   63.15   22.44
   5  11   6  992.99   64.72
   5  11   9  236.54   28.39
   5  11  15  328.79   48.21
   5  11  18 7819.36  233.26
   5  11  21 1478.05  138.50
   5  11  27  717.95  144.36
   5  11  30  979.58  159.96
   5  11  48    7.43   65.03
   5  11  57  153.40   46.49
   5  11  63  135.41   60.80
   5  11  72   30.73   51.03
   5  11  75    6.65   51.67
   5  12 -76   96.29   44.75
   5  12 -61  417.46   70.92
   5  12 -58   23.59   91.23
   5  12 -52  232.30   92.15
   5  12 -46  703.74  256.82
   5  12 -43  166.83   90.17
   5  12 -40 1050.55   93.07
   5  12 -37 1632.37  139.81
   5  12 -31  102.23   40.97
   5  12 -28 2318.71  155.02
   5  12 -25 2673.07  249.58
   5  12 -22 1551.15  105.11
   5  12 -16 5196.72  152.01
   5  12 -13 2745.89   98.83
   5  12 -10  126.77   28.88
   5  12  -7   16.17   24.76
   5  12  -4  836.82   81.16
   5  12   2 1420.85   54.35
   5  12   5  312.19   35.46
   5  12   8 6705.23   57.55
   5  12  11 6899.09  199.43
   5  12  1415672.31  321.48
   5  12  17 1591.93  289.53
   5  12  20 7700.72  213.83
   5  12  23   10.94   53.76
   5  12  26 2941.89  189.90
   5  12  29 6515.98  510.79
   5  12  32 1228.97  115.28
   5  12  35 1181.06  261.25
   5  12  38 3050.69  345.32
   5  12  47 1126.13  183.08
   5  12  50  228.01   73.64
   5  12  65   72.62   45.89
   5  12  71    8.44   64.16
   5  12  74   23.59   49.53
   5  13 -62   85.33   62.42
   5  13 -53   73.93   89.16
   5  13 -50   15.95   75.74
   5  13 -44 3866.77  403.65
   5  13 -41 3416.28  450.59
   5  13 -35 1093.58   87.93
   5  13 -32 2176.15  164.79
   5  13 -26 1432.38  102.55
   5  13 -23 1465.28  135.23
   5  13 -2015695.19  360.70
   5  13 -1415196.24  529.18
   5  13 -11  246.70   48.28
   5  13  -8 2315.08  197.29
   5  13  -5 1777.69  120.87
   5  13  -211648.18  285.93
   5  13   4 1474.51   60.45
   5  13   711806.16  146.41
   5  13  10 8281.34  264.87
   5  13  1320953.70  446.50
   5  13  16 3802.74  204.97
   5  13  19 1551.17  129.15
   5  13  22 1769.94  169.57
   5  13  25 4142.93  207.67
   5  13  28    5.78   73.74
   5  13  31 2170.07  233.85
   5  13  34 3536.05  285.77
   5  13  49  137.30   45.99
   5  13  58   83.10   61.55
   5  13  61  122.85   68.06
   5  13  70    5.32   52.82
   5  14 -66   16.49  132.96
   5  14 -63   76.53   99.12
   5  14 -51  334.88   76.94
   5  14 -42 2311.91  224.78
   5  14 -39   73.52   66.43
   5  14 -36  353.61   62.81
   5  14 -33 2013.23  167.12
   5  14 -30 2279.50  131.55
   5  14 -27 1251.53  110.88
   5  14 -24 7488.15  332.53
   5  14 -21  550.71  186.23
   5  14 -15 3177.64   56.49
   5  14 -12  251.54   46.88
   5  14  -9  295.06  170.54
   5  14  -6 6852.80  249.39
   5  14  -3 8452.36  183.69
   5  14   0  860.89  175.96
   5  14   3 9036.89  242.99
   5  14   6  573.87   62.72
   5  14   9 1304.58   61.42
   5  14  18 1976.03   67.33
   5  14  2128116.85  674.00
   5  14  2410696.39  276.40
   5  14  27 6566.21  196.27
   5  14  30 4321.26  269.62
   5  14  33  498.12   81.95
   5  14  36  138.75   83.86
   5  14  39 1901.98  309.24
   5  14  45  104.54   95.71
   5  14  51  280.54   70.41
   5  14  54  502.10   74.98
   5  14  57   11.78   66.75
   5  14  72  210.26   72.63
   5  15 -70  114.45   80.22
   5  15 -49  184.70  115.01
   5  15 -46  711.65  163.08
   5  15 -43  403.77   99.13
   5  15 -37  312.11   79.70
   5  15 -34 2609.94  223.35
   5  15 -28 4436.96  180.07
   5  15 -19   37.82   36.71
   5  15 -13 1696.74   68.81
   5  15 -10 2040.11   70.59
   5  15  -713386.76  282.10
   5  15  -4 2366.05   63.69
   5  15  -1 2550.24  124.03
   5  15   2  657.19  109.63
   5  15   5 2831.99  115.73
   5  15  11 1799.90  142.81
   5  15  14  797.02  129.54
   5  15  17  300.32   56.33
   5  15  20 1842.40  122.14
   5  15  2323437.38  403.58
   5  15  26  731.57   75.22
   5  15  35 1438.82  104.88
   5  15  38  218.85   78.74
   5  15  47   63.08   55.41
   5  15  50  123.39   84.44
   5  15  62  223.57   48.43
   5  15  68   46.04   46.99
   5  16 -62  186.96   68.03
   5  16 -59   39.37   73.15
   5  16 -41    9.01   47.90
   5  16 -23 9194.92  390.17
   5  16 -20 8187.08  404.27
   5  16 -17 2598.13  174.63
   5  16 -14 4721.45  224.37
   5  16 -11 6930.43  198.34
   5  16  -8 1978.25  107.30
   5  16  -2  494.68   61.23
   5  16   1  147.73   46.49
   5  16   4 5122.53  132.76
   5  16   7 3582.80  276.51
   5  16  13 9461.68  162.58
   5  16  19 1842.30   91.46
   5  16  22 1651.66  142.30
   5  16  28 3829.52  239.81
   5  16  31  768.09   92.83
   5  16  34  219.69  113.04
   5  16  43  473.28  112.22
   5  16  46  348.80  150.94
   5  16  64  111.39   43.69
   5  16  73   54.93   51.45
   5  17 -72    0.06   60.06
   5  17 -69   37.68  118.14
   5  17 -63   64.29  109.59
   5  17 -60   17.41  100.46
   5  17 -51   71.38   54.93
   5  17 -48  140.20   73.86
   5  17 -39  409.43  199.82
   5  17 -36  282.20   87.81
   5  17 -33    4.95   50.46
   5  17 -30   24.16   78.76
   5  17 -24 1122.33  122.88
   5  17 -21  973.57   75.93
   5  17 -18  679.53   64.28
   5  17 -15 3202.37  173.06
   5  17 -12  620.76   27.44
   5  17  -9 3808.99  275.40
   5  17  -6 3096.92  262.38
   5  17  -3   81.01   32.53
   5  17   0   12.29   76.44
   5  17   3  381.01   69.50
   5  17  15 2587.27  105.80
   5  17  18 2974.94  147.52
   5  17  21  165.31   47.10
   5  17  24  543.02   68.32
   5  17  30  186.49   73.29
   5  17  39  168.31   98.18
   5  17  45  799.14  123.11
   5  17  51  384.12   95.16
   5  17  54   98.10  104.46
   5  17  57   97.81   92.66
   5  17  63   27.63   49.77
   5  17  66  146.28   51.43
   5  18 -67  228.49   67.68
   5  18 -64  201.78   54.50
   5  18 -46  190.22  108.21
   5  18 -43  232.87   56.78
   5  18 -34 1303.75  148.34
   5  18 -25  601.31   94.12
   5  18 -22  187.78   47.32
   5  18 -19 2429.17  128.36
   5  18 -16    3.70   57.13
   5  18 -10  273.59   95.60
   5  18  -7 9639.62  321.92
   5  18  -4 2010.97  114.95
   5  18  -1 6454.61  244.64
   5  18   2 1053.84  144.79
   5  18   5  727.03  139.40
   5  18   8 7783.39  292.74
   5  18  11   25.14   37.08
   5  18  14  444.28   53.86
   5  18  20 1800.84  124.48
   5  18  26 2657.77  186.13
   5  18  29  974.42   92.38
   5  18  35  357.37  120.16
   5  18  38  654.95  114.39
   5  18  41   82.73   59.50
   5  18  50  303.09   58.81
   5  18  53  157.95   79.33
   5  18  56  175.81   80.61
   5  18  65   58.07   48.98
   5  18  71   25.47   64.29
   5  19 -71   22.75   56.40
   5  19 -62  180.87   98.54
   5  19 -59   48.71   99.25
   5  19 -44  260.51   78.89
   5  19 -38 1209.43  207.80
   5  19 -35 3113.57  372.87
   5  19 -32  798.65   73.18
   5  19 -29  406.12   68.77
   5  19 -26  693.33  110.02
   5  19 -23  720.54  116.39
   5  19 -20  593.10   62.63
   5  19 -17 2549.68  216.97
   5  19 -11 1464.42  104.88
   5  19  -8  673.81   69.67
   5  19   1 1625.86  110.70
   5  19   4  462.36   59.61
   5  19   7  688.74  156.89
   5  19  10  392.49   86.38
   5  19  16 1887.18  183.55
   5  19  19  126.42   39.90
   5  19  28 2570.95  234.91
   5  19  34  200.10  139.84
   5  19  40  202.78   97.99
   5  19  46 2251.07  361.81
   5  19  49  125.61   59.21
   5  19  55  244.96   78.35
   5  19  61  220.30   82.57
   5  19  64    4.93   72.30
   5  19  70    2.06   44.67
   5  20 -66   37.74   68.66
   5  20 -63   59.18   71.36
   5  20 -60   37.47  104.63
   5  20 -57   19.01   82.33
   5  20 -42  483.23  100.01
   5  20 -33  514.19  133.48
   5  20 -27  902.76  110.85
   5  20 -24 5162.11  521.04
   5  20 -21  177.45   82.92
   5  20 -15 5725.63  330.12
   5  20 -12  119.42   24.01
   5  20  -9   11.86   28.37
   5  20  -6  965.55  151.68
   5  20  -3 2250.74  158.29
   5  20   6 3452.55  121.88
   5  20   9  475.38   45.47
   5  20  15 5760.36  326.46
   5  20  18 3217.96  210.38
   5  20  21  610.13  106.39
   5  20  27  492.83   78.17
   5  20  33  455.13   71.68
   5  20  36  190.60   46.59
   5  20  45  490.47  107.26
   5  20  54  305.77   83.67
   5  20  66   35.38   67.42
   5  21 -67   68.89   76.28
   5  21 -61   28.84  102.23
   5  21 -58   19.90   75.19
   5  21 -55  107.65   58.45
   5  21 -52   81.66   67.56
   5  21 -43  168.47   86.14
   5  21 -37   88.88   71.69
   5  21 -34  272.07   81.45
   5  21 -31  205.33  105.09
   5  21 -28  195.34   97.31
   5  21 -25  676.50  143.81
   5  21 -22 1092.14  116.55
   5  21 -19  367.48   92.93
   5  21 -16 1271.79  118.59
   5  21 -13  681.31   87.97
   5  21 -10  638.78   61.82
   5  21  -7  584.26   56.33
   5  21  -4 1309.03  135.56
   5  21  -1 5967.57  282.70
   5  21   5  415.74   48.42
   5  21   8 1896.50  164.32
   5  21  11  653.78  101.24
   5  21  14 7246.66  304.96
   5  21  17 2625.12  151.65
   5  21  20  320.60   41.96
   5  21  23 1437.87   95.64
   5  21  26  944.17  124.45
   5  21  29  309.58   52.76
   5  21  32  244.51  119.43
   5  21  38   79.21   53.49
   5  21  41 1857.85  174.89
   5  21  44  158.19   68.16
   5  21  56  150.98  123.21
   5  21  59   18.33   69.98
   5  21  68  131.50   76.75
   5  22 -53   21.15   61.02
   5  22 -47   98.64   78.31
   5  22 -38   68.76   94.37
   5  22 -35   52.70   92.61
   5  22 -29  247.53   66.74
   5  22 -23  421.51  104.53
   5  22 -17   52.79   54.03
   5  22 -14  191.31   76.57
   5  22 -11  399.21   46.40
   5  22  -5  176.68   85.36
   5  22  -2 2334.85  119.96
   5  22   1  286.79   34.77
   5  22   4 4694.40  198.71
   5  22   7 1314.96  148.86
   5  22  10  859.06   83.56
   5  22  19  487.09   72.26
   5  22  31  214.54   93.67
   5  22  37  226.92   89.61
   5  22  43  316.21   68.67
   5  22  55  198.31   94.69
   5  22  58    3.87   79.73
   5  23 -63  137.21   86.52
   5  23 -57  204.11   64.60
   5  23 -54  123.31  123.83
   5  23 -36   32.52   80.43
   5  23 -24   19.89   67.67
   5  23 -18  259.42   60.77
   5  23 -12 2767.24  247.43
   5  23  -9  304.77   55.11
   5  23   0  224.53   29.51
   5  23   6 2352.39  136.08
   5  23  12   41.83   47.09
   5  23  15  888.05   78.85
   5  23  18  110.30   32.20
   5  23  21  206.19   52.11
   5  23  24  364.49  100.06
   5  23  27  377.06   63.64
   5  23  30  103.89   57.92
   5  23  33  258.78   72.54
   5  23  36  596.82   82.77
   5  23  42  762.22  203.15
   5  23  45   83.02   56.44
   5  23  48   40.72   74.64
   5  23  57  203.18   88.32
   5  24 -64   84.91   78.83
   5  24 -34  430.79   64.57
   5  24 -31  452.42   74.46
   5  24 -22  138.74   33.80
   5  24 -19   98.20   56.83
   5  24 -16  507.00   93.76
   5  24 -13 1514.76  281.25
   5  24  -7  136.00   47.19
   5  24  -1  583.57   82.51
   5  24   2  948.46  102.85
   5  24   8  526.83   68.91
   5  24  26  260.13   96.26
   5  24  29  102.36   42.38
   5  24  32  159.37   52.91
   5  24  38  123.45   48.84
   5  24  44   86.18   40.66
   5  24  47  137.70  120.68
   5  24  50    7.00   93.21
   5  24  62  115.78   78.64
   5  25 -59   88.27   72.74
   5  25 -53   84.36   72.26
   5  25 -50  187.98  123.50
   5  25 -44 1149.51  216.32
   5  25 -32  271.15  123.86
   5  25 -29  351.67   78.29
   5  25 -26  214.00   77.24
   5  25 -17 1813.19  181.29
   5  25 -14  372.52  114.54
   5  25 -11  226.57   70.69
   5  25  -8  783.11  117.17
   5  25  -5  333.94   93.94
   5  25  -2 6403.75  358.60
   5  25   1  393.06   59.98
   5  25   4  135.25   57.72
   5  25   7  341.21   50.56
   5  25  16  463.70  140.59
   5  25  19  383.02  123.28
   5  25  25  389.75   71.52
   5  25  34  591.88  103.72
   5  25  40  215.40  106.90
   5  25  43   45.07  120.20
   5  25  46  361.35   72.23
   5  25  58   10.47  124.09
   5  26 -63  178.21  116.88
   5  26 -48  201.36  132.78
   5  26 -42   25.74   92.78
   5  26 -39  205.39  133.49
   5  26 -36  331.12   73.95
   5  26 -24  308.33  107.64
   5  26 -21  154.01   71.52
   5  26 -18  277.43  173.17
   5  26 -15 1012.63  217.71
   5  26 -12 2815.59  234.61
   5  26  -6 1678.64  200.94
   5  26   0  154.17   48.32
   5  26   6  104.08   49.17
   5  26   9 1209.23  279.29
   5  26  12 1402.19  238.83
   5  26  15 2218.48  236.91
   5  26  18  123.24   65.73
   5  26  21    6.17   49.98
   5  26  24  157.35   86.87
   5  26  30  366.66   67.39
   5  26  33  411.79   69.41
   5  26  36  306.46  134.00
   5  26  42  588.39  167.35
   5  26  48  134.99   78.96
   5  26  51    2.23   81.17
   5  26  60  169.17  123.56
   5  26  63   69.21   77.44
   5  27 -61   42.86   65.62
   5  27 -52    9.15  119.47
   5  27 -49   32.65   53.36
   5  27 -46  308.39  103.79
   5  27 -43  227.80   73.06
   5  27 -22  581.42  122.66
   5  27 -19  136.29   76.05
   5  27 -16  639.78   88.04
   5  27 -13  460.21  150.07
   5  27  -4 1214.91  143.69
   5  27   2   77.98   83.62
   5  27   5  997.50  218.88
   5  27   8  904.68  138.83
   5  27  11  863.46  179.26
   5  27  14  405.83   77.07
   5  27  17   46.81   75.27
   5  27  20   91.70   55.36
   5  27  32  637.80  186.50
   5  27  41  284.14  124.54
   5  27  44   66.40  105.59
   5  27  62   72.52   69.59
   5  28 -50  191.64  129.78
   5  28 -41  230.10   63.69
   5  28 -38   51.70   61.40
   5  28 -35  226.50   95.51
   5  28 -26  144.30   82.22
   5  28 -23  321.33   93.08
   5  28 -20  735.70  128.55
   5  28 -14    3.02   65.46
   5  28  -2  334.57  133.63
   5  28   1  223.19   82.90
   5  28   7  497.74   94.09
   5  28  13  665.11   89.33
   5  28  22  121.59   66.80
   5  28  34  132.88   80.87
   5  28  37    0.55   63.42
   5  28  40  582.95   86.24
   5  28  46  102.63   91.05
   5  28  52   52.41   79.66
   5  29 -57  175.08   55.05
   5  29 -51   59.08   80.53
   5  29 -42  160.41   96.21
   5  29 -39  112.55   71.35
   5  29 -33  286.84   74.94
   5  29 -30   85.36   69.16
   5  29 -24   48.03   77.71
   5  29 -21    2.07   49.80
   5  29 -18   35.45   64.07
   5  29 -15  530.26   85.85
   5  29 -12  827.42   81.39
   5  29  -9 1090.73  188.49
   5  29  -6  428.47   95.63
   5  29   3   98.82   95.57
   5  29   6   90.76   71.85
   5  29   9   82.87   84.24
   5  29  12  484.12   89.52
   5  29  21   81.39   50.66
   5  29  27  269.39  101.75
   5  29  36   35.28   96.91
   5  29  45   98.65  127.07
   5  29  48   88.22  114.40
   5  29  54   18.13   74.26
   5  30 -52   48.94   58.93
   5  30 -49   48.39   64.65
   5  30 -46  296.16  111.66
   5  30 -34   22.10   62.61
   5  30 -31   47.12   73.30
   5  30 -25  119.34   52.19
   5  30 -22  251.71   86.70
   5  30 -16  691.07  153.78
   5  30 -13  178.41   99.10
   5  30 -10   42.93  118.50
   5  30  -1  841.55  107.81
   5  30   2   94.67   48.62
   5  30   8 1247.32  182.46
   5  30  11  981.50  181.13
   5  30  14  650.20  114.04
   5  30  20   99.72  131.86
   5  30  26  840.34  105.22
   5  30  29  271.56   85.96
   5  30  32  140.21   72.69
   5  30  35  500.45   89.10
   5  30  53  238.67   79.90
   5  31 -50    2.89   82.44
   5  31 -44    1.76   75.66
   5  31 -41   68.26   65.10
   5  31 -38   23.65   69.24
   5  31 -29  836.48  206.82
   5  31 -26  138.33  177.64
   5  31 -20  159.36  136.88
   5  31 -17   34.40  109.18
   5  31 -11 1103.84  220.07
   5  31  -5  202.02   95.83
   5  31  13  169.15  164.37
   5  31  46  199.43  155.29
   5  31  52   62.41   98.40
   5  31  55  323.56  444.30
   5  32 -42    6.59  108.41
   5  32 -27  114.07   96.19
   5  32  -9  106.69  126.84
   5  32  -3  460.94  140.12
   5  32   0  161.19   63.44
   5  32   6   15.46  129.90
   5  32  18  215.61   87.63
   5  32  21  306.08  104.86
   5  32  24  416.10  139.94
   5  32  36   67.22  115.39
   5  32  39   57.55   87.97
   5  32  51  200.68  164.67
   5  33 -37    9.03   99.41
   5  33 -31   98.61   99.58
   5  33 -28  209.28  197.24
   5  33 -25  284.38  144.59
   5  33 -19   92.81  111.16
   5  33 -16  278.99   82.38
   5  33 -13   33.76   71.13
   5  33  -7  643.14  207.06
   5  33  -4  429.73   95.19
   5  33  -1  167.40   97.80
   5  33   5  303.54  125.90
   5  33  17   30.77   85.70
   5  33  26  121.40  107.73
   5  33  35  461.27   98.09
   5  33  38  180.97  110.73
   5  33  41  345.34  154.61
   5  33  50  176.52  130.33
   5  34 -23  578.13  115.62
   5  34 -17  166.84   96.13
   5  34 -11  203.53  161.17
   5  34  -5   51.24   87.14
   5  34   7   99.67  149.03
   5  34  10  175.58   84.67
   5  34  13  104.32  107.45
   5  34  16  121.11  146.81
   5  34  19  189.40  134.39
   5  34  22  438.94  234.68
   5  35 -33  249.56  303.71
   5  35 -18  323.43   97.09
   5  35 -12   81.92  122.83
   5  35  -9   50.70   63.82
   5  35  -6  257.17   87.50
   5  35  -3    5.85   73.47
   5  35   0   60.51   81.37
   5  35   9   99.08  183.46
   5  35  18  408.12   91.23
   5  35  30  288.92   88.95
   5  35  36   91.75   77.73
   5  36 -40  279.55  110.04
   5  36 -37  108.45  148.76
   5  36 -31   68.14  102.55
   5  36 -25   36.50  122.86
   5  36 -16   69.07   89.43
   5  36 -13   63.96   97.46
   5  36 -10  285.19   53.78
   5  36  -7  301.88   64.29
   5  36  -4  308.15  124.22
   5  36  11  112.03   76.39
   5  36  26  118.92  163.65
   5  36  32   90.49   85.71
   5  36  35  103.97   92.48
   5  36  38   67.62   82.14
   5  36  41   75.80   61.30
   5  37 -35   91.98   78.27
   5  37 -32  598.85  158.22
   5  37 -29   41.20  112.98
   5  37 -20  500.04   72.19
   5  37 -17  102.38   67.97
   5  37 -11   34.82   88.94
   5  37  -8   73.41  109.51
   5  37   4  285.68  121.67
   5  37  28  137.11  141.39
   5  38 -33    0.04  127.69
   5  38  -9  256.13   81.45
   5  38  -3   56.33  113.09
   5  38   0  167.99   56.84
   5  38   3   43.13   89.50
   5  38   9  209.79  119.07
   5  38  12   83.06  118.11
   5  38  15  346.02  132.19
   5  38  18  130.66  119.30
   5  38  21   52.59   96.74
   5  39 -25  309.88  293.49
   5  39 -16  642.21  136.02
   5  39 -10   24.22  253.80
   5  39   8  174.85  154.31
   5  39  17   37.86   88.06
   5  39  20    4.48  103.56
   5  39  29   92.41  123.00
   5  40 -26  343.93  165.40
   5  40 -14  234.77  129.06
   5  40  10   35.77  105.06
   5  40  19  188.67   93.11
   5  41 -18  176.27  192.67
   5  41 -12   50.63  120.73
   5  41   0   91.25  106.56
   5  42 -16   15.49  149.14
   5  42 -10  205.94  138.74
   5  42  -4   78.93  165.53
   5  42  -1   33.43   85.86
   5  42   8  168.95  140.18
   5  42  17   56.97   70.91
   5  43  -2  113.87  151.10
   5  43   4   29.89   78.02
   6   1 -70   12.04   64.97
   6   1 -58  264.50   70.52
   6   1 -55   74.65   54.20
   6   1 -46   95.34   36.52
   6   1 -37  203.71  114.99
   6   1 -28 1632.13  109.17
   6   1 -25 3935.45  329.46
   6   1 -22   97.61   35.98
   6   1 -19  123.34  125.64
   6   1 -1653814.52  835.37
   6   1 -13104828.4  821.97
   6   1 -1048155.08  288.50
   6   1  -780571.72  302.96
   6   1  -415424.82   25.05
   6   1  -161874.29  464.38
   6   1   225395.27   49.03
   6   1   512008.67  297.16
   6   1   824584.83  105.43
   6   1  11 6282.71   74.78
   6   1  14 3558.99  147.43
   6   1  17 1416.19   81.63
   6   1  20   45.19   85.31
   6   1  23 7672.26  132.61
   6   1  29 2675.29  347.30
   6   1  41  723.47  169.96
   6   1  50 1378.33   82.40
   6   1  56  155.66   48.11
   6   1  59  259.75   70.64
   6   1  65   60.03   54.00
   6   1  71  168.97   65.25
   6   2 -77   30.21   51.32
   6   2 -65  276.01   64.74
   6   2 -62   94.31   59.05
   6   2 -59  437.24   86.29
   6   2 -56  305.89   58.77
   6   2 -47 2023.74  173.52
   6   2 -38 1516.66  204.23
   6   2 -32 4649.48  376.43
   6   2 -29 1617.20  218.49
   6   2 -26  324.30   52.51
   6   2 -23 4114.90  269.40
   6   2 -20  730.13   77.36
   6   2 -1710928.70  455.94
   6   2 -14300356.6 1670.55
   6   2  -8  316.42   58.88
   6   2  -513028.82   79.11
   6   2  -2  350.10   27.44
   6   2   1  115.68  102.49
   6   2   437758.65  273.51
   6   2   716282.15  119.28
   6   2  10 5612.74  128.06
   6   2  13 2269.33  200.55
   6   2  1666515.97 1479.42
   6   2  1947224.92  320.97
   6   2  22 4404.25  145.44
   6   2  25  975.90  105.38
   6   2  28 1565.78  133.39
   6   2  3112344.88  337.10
   6   2  34 4814.27  177.84
   6   2  40 2419.26  219.40
   6   2  46 1714.94  183.65
   6   2  49  161.65   61.04
   6   2  58   61.16   54.37
   6   2  61  152.53   48.26
   6   2  64  142.50   63.90
   6   2  67  146.74   78.36
   6   2  70    7.92   51.22
   6   2  73    1.60   48.07
   6   2  76   51.10   76.59
   6   3 -78    5.20   47.15
   6   3 -75   25.47   68.63
   6   3 -72    0.07   73.18
   6   3 -69   40.80   88.82
   6   3 -66  144.25   67.03
   6   3 -63   80.45   52.80
   6   3 -57  209.95   49.08
   6   3 -51  753.19  128.06
   6   3 -42 1289.52  115.95
   6   3 -30  829.79  180.95
   6   3 -27 1343.45   67.42
   6   3 -21 7299.72  144.62
   6   3 -1818004.60  378.17
   6   3 -15  114.99  108.05
   6   3 -12242007.7 3046.13
   6   3  -9352863.8 1497.22
   6   3  -6  203.19   72.67
   6   3  -3 6739.50  117.86
   6   3   0 8864.52   97.37
   6   3   3 2735.84   64.00
   6   3   6 8365.30   77.75
   6   3   9 4247.94  151.94
   6   3  1210968.21  244.23
   6   3  15  469.49   91.98
   6   3  1825122.20  187.76
   6   3  24 3692.39  113.31
   6   3  27 6618.48  370.59
   6   3  3013562.39  294.42
   6   3  33 1170.93  142.84
   6   3  36 4380.58  335.53
   6   3  39 1301.41  127.18
   6   3  45 3018.40  262.52
   6   3  51 1048.08  106.93
   6   3  57  291.99   71.70
   6   3  60  332.80  104.49
   6   3  63   26.23   42.43
   6   3  69   82.92   84.40
   6   3  72   13.29   57.07
   6   3  75    2.49   49.70
   6   4 -79   51.58   46.17
   6   4 -70   49.12   69.25
   6   4 -61  128.89   88.72
   6   4 -58   74.35   87.80
   6   4 -46 2690.76  277.37
   6   4 -43   38.54   57.22
   6   4 -40  146.50   54.60
   6   4 -37  465.86   98.80
   6   4 -34 4404.12  320.57
   6   4 -31  663.10  158.24
   6   4 -28 1173.45  128.04
   6   4 -25   31.78   94.51
   6   4 -22  513.98   51.72
   6   4 -19 8678.34  109.06
   6   4 -16 4372.46   72.57
   6   4 -1360925.31 1162.90
   6   4 -10 7050.13  524.14
   6   4  -7 5334.00  161.74
   6   4  -4   97.74   72.81
   6   4  -114319.98  193.38
   6   4   2 8495.68   19.87
   6   4   5 3931.95   18.29
   6   4   810505.40  199.57
   6   4  1142722.18  322.52
   6   4  1439263.10  287.38
   6   4  20 2478.58   34.23
   6   4  23  705.39   67.84
   6   4  26 5622.34  263.34
   6   4  29 3440.01  175.90
   6   4  35 1368.01  122.02
   6   4  41  250.06   57.01
   6   4  44  380.93   65.81
   6   4  47 1050.66  114.49
   6   4  50   23.12   52.04
   6   4  68   21.31   60.17
   6   4  71   22.34   62.05
   6   4  74   73.61   76.84
   6   4  77   67.32   56.47
   6   5 -68    6.90   69.51
   6   5 -65   83.69   64.55
   6   5 -59  256.87  106.78
   6   5 -50  814.35  117.21
   6   5 -47  226.05   59.63
   6   5 -44  628.12  113.09
   6   5 -38  953.01  123.50
   6   5 -32 3924.56  308.17
   6   5 -29  664.76  102.47
   6   5 -2614549.84  312.90
   6   5 -2316315.18  764.33
   6   5 -20 5210.59  111.99
   6   5 -17 1076.67   36.23
   6   5 -1462695.53  518.57
   6   5 -11236245.0 2910.14
   6   5  -8178499.1 1270.28
   6   5  -5 5994.54  257.90
   6   5  -218877.30  141.16
   6   5   117902.13  208.41
   6   5   419228.76  227.11
   6   5   7 3431.71  113.40
   6   5  1010756.41  220.61
   6   5  1315624.73  195.41
   6   5  1613380.01  175.27
   6   5  19 1928.97  165.83
   6   5  25 2973.11   95.64
   6   5  2810061.16  586.00
   6   5  31 4345.59  247.01
   6   5  34  947.83  103.69
   6   5  40  963.20   95.98
   6   5  46  284.99  101.11
   6   5  52  655.02  203.13
   6   5  55   39.42   44.90
   6   5  58  199.24   77.36
   6   5  61  140.75   46.37
   6   5  64  216.14   62.26
   6   5  67  237.38   60.63
   6   5  73   38.34   62.60
   6   5  76    8.37   54.19
   6   5  79   86.38   44.75
   6   6 -78   45.97   42.48
   6   6 -69    9.81   68.49
   6   6 -60  146.34   80.84
   6   6 -57  307.06   51.98
   6   6 -48  197.38   64.29
   6   6 -45  411.07  174.30
   6   6 -39  256.96  101.68
   6   6 -33 6113.47  218.55
   6   6 -30   36.34   54.18
   6   6 -27  339.59  131.84
   6   6 -24  417.46  156.17
   6   6 -2116201.45  164.04
   6   6 -1827147.81  344.39
   6   6 -15  234.93   92.70
   6   6  -969612.77  797.65
   6   6  -6117974.1  671.17
   6   6  -3 1631.59  163.65
   6   6   0  676.39   48.50
   6   6   3 3123.31  112.36
   6   6   6 1235.54  158.62
   6   6   9 3552.41   41.58
   6   6  1212522.27  249.45
   6   6  1523660.31  180.33
   6   6  24  187.51   72.97
   6   6  2713433.04  570.07
   6   6  30  369.21   68.19
   6   6  33 3668.94  387.63
   6   6  36 2238.91  227.66
   6   6  45  802.27  134.05
   6   6  48  133.39   83.29
   6   6  51   29.07   91.92
   6   6  54  610.45   57.48
   6   6  57   91.00   48.63
   6   6  60  318.81   79.04
   6   6  66  136.06   53.40
   6   6  69   26.50   46.53
   6   6  78   58.83   56.18
   6   7 -76   22.73   47.90
   6   7 -73   61.25   63.28
   6   7 -67    8.52   50.77
   6   7 -55  259.56   77.20
   6   7 -52    2.36   58.24
   6   7 -46 1189.63  184.88
   6   7 -37 1232.51  197.39
   6   7 -25  218.81   54.92
   6   7 -22 1060.90  102.01
   6   7 -19 8138.92  221.43
   6   7 -16 9131.17   92.92
   6   7 -13 1142.01   35.94
   6   7 -10 8942.72  104.10
   6   7  -763859.93  622.08
   6   7  -4 4157.42   53.78
   6   7  -1 8868.43  259.10
   6   7   2 2910.77   56.70
   6   7   5 9314.56  273.00
   6   7   8 6239.71   97.88
   6   7  11 2574.24   83.23
   6   7  17  394.77   25.76
   6   7  2312468.17  357.22
   6   7  26 4616.10  186.86
   6   7  29  299.55  179.49
   6   7  32 2592.96   94.58
   6   7  35 3015.23  220.10
   6   7  38 1024.58  142.46
   6   7  44 1072.01  179.49
   6   7  50 1146.33  157.24
   6   7  53  167.50   40.95
   6   8 -65   21.08   57.72
   6   8 -62   83.97   72.09
   6   8 -59  374.91   98.57
   6   8 -56  162.67   46.01
   6   8 -47  724.29  148.67
   6   8 -38 2620.55  204.09
   6   8 -2919718.01  557.69
   6   8 -26 4624.28  114.31
   6   8 -23 1375.45   52.04
   6   8 -20  537.99   82.16
   6   8 -17 4105.35   72.07
   6   8 -14 3564.62   90.60
   6   8 -11  730.80   53.34
   6   8  -820340.83  382.52
   6   8  -2147339.5  994.04
   6   8   417112.84  388.40
   6   8   7 2698.39  130.16
   6   8  16 1200.41  140.13
   6   8  22 1831.54  215.21
   6   8  2510156.91  669.18
   6   8  28  266.08  100.80
   6   8  3125466.33  887.44
   6   8  34 2020.59  217.16
   6   8  37 1697.17  138.36
   6   8  40 1015.59  207.50
   6   8  43 1290.51  201.84
   6   8  49  200.29   89.13
   6   8  61   15.73   84.05
   6   8  67  306.86   93.20
   6   8  70  182.46   68.77
   6   8  76    1.93   54.23
   6   9 -75   24.58   57.52
   6   9 -69  172.71   84.88
   6   9 -66  260.00   58.88
   6   9 -60  260.61   73.98
   6   9 -51  233.18   40.78
   6   9 -48  802.37  161.70
   6   9 -45  205.41   89.92
   6   9 -42   88.17   48.98
   6   9 -39 1653.27  225.72
   6   9 -36  181.08  152.07
   6   9 -27 4727.08  310.90
   6   9 -24 4452.01  166.03
   6   9 -2119817.16  509.71
   6   9 -1812035.13  220.57
   6   9 -1515282.98  306.87
   6   9 -12 2973.63  124.55
   6   9  -910708.26  147.10
   6   9  -614152.49  265.14
   6   9   317009.11  270.47
   6   9   617631.51  217.66
   6   9  12  426.61  114.99
   6   9  1513018.69  217.50
   6   9  18 1764.95   98.83
   6   9  21 1347.50  146.53
   6   9  33 3044.65  377.15
   6   9  39 4072.09  294.54
   6   9  48  261.40  136.01
   6   9  51  813.57  146.73
   6   9  54  234.82   58.72
   6   9  57  356.40   58.39
   6   9  75  118.66   57.48
   6   9  78   33.89   47.15
   6  10 -76    7.58   42.24
   6  10 -73    5.88   38.09
   6  10 -70   16.08   73.75
   6  10 -61  102.11   49.31
   6  10 -49  208.59   53.27
   6  10 -46  482.54  135.59
   6  10 -43 2763.17  205.38
   6  10 -37  648.00   63.77
   6  10 -34   10.32   63.35
   6  10 -31  491.56   49.64
   6  10 -28 5053.21  308.57
   6  10 -2527260.41  466.79
   6  10 -22 5109.47  115.02
   6  10 -19 7873.93  414.76
   6  10 -16 1432.10  116.77
   6  10 -13  376.99   91.27
   6  10 -10    8.21   25.92
   6  10  -4 7282.66  109.71
   6  10  -1 1974.69   42.97
   6  10   5 3087.89   48.41
   6  10   8 7983.21  116.10
   6  10  14  208.06   31.52
   6  10  2013326.93  338.19
   6  10  23  584.50   42.08
   6  10  26   92.77  106.75
   6  10  32 3617.50  402.12
   6  10  35 1502.43  377.57
   6  10  38 2484.89  229.66
   6  10  41 1605.07  165.37
   6  10  50  419.03   80.16
   6  10  53  229.25   63.99
   6  10  65  253.35   54.37
   6  10  74   42.37   60.34
   6  10  77    0.09   48.09
   6  11 -77   73.54   57.93
   6  11 -50  134.09   45.30
   6  11 -47  413.45   57.26
   6  11 -41    6.75   51.98
   6  11 -38 2091.80  306.57
   6  11 -32  280.65  132.32
   6  11 -29 1016.05   71.66
   6  11 -26  108.07   95.88
   6  11 -23 5588.10  273.87
   6  11 -20 1345.17   70.37
   6  11 -14 1282.69  117.25
   6  11 -11 7719.29  156.39
   6  11  -8  735.79   38.56
   6  11  -5 9405.70  201.54
   6  11  -2 2976.67  145.10
   6  11   1 1316.63   70.76
   6  11   4    9.19   34.95
   6  11   7  850.39   35.11
   6  11  10 2239.62   30.44
   6  11  13 8644.39  187.34
   6  11  1623786.31  484.49
   6  11  19 9290.32  309.02
   6  11  2211599.52  254.51
   6  11  28  914.90   62.29
   6  11  34  569.03  111.40
   6  11  37  251.43  177.15
   6  11  43  386.01  113.20
   6  11  49  316.25   83.41
   6  11  52  160.80   83.33
   6  11  58  316.01   50.43
   6  11  67  125.74   75.22
   6  11  70   39.90   63.67
   6  12 -75  138.94   64.25
   6  12 -69   69.42   86.59
   6  12 -60  527.10   86.46
   6  12 -48  219.87  107.00
   6  12 -45  159.50   44.60
   6  12 -33 1074.60  117.15
   6  12 -27 1478.84  133.00
   6  12 -2414097.94  324.70
   6  12 -21 2212.64  106.36
   6  12 -18 8007.71  279.57
   6  12 -15 1582.94  132.28
   6  12 -12 3271.51  135.14
   6  12  -9  778.05   38.64
   6  12  -6  701.08   92.23
   6  12  -3  336.15   83.33
   6  12   0  394.83   60.02
   6  12   313110.76  126.90
   6  12   9   59.38   24.50
   6  12  12 7104.14  277.32
   6  12  15 1101.86   50.83
   6  12  21  773.49  129.51
   6  12  2414067.59  338.68
   6  12  30 1176.13  121.41
   6  12  45  121.40   93.39
   6  12  51   78.08   84.34
   6  12  60   82.47   68.76
   6  12  66    0.98   67.46
   6  12  72    2.75   59.52
   6  12  75  193.84   63.59
   6  13 -67  107.91  113.29
   6  13 -64  201.13   78.07
   6  13 -61 1294.47  119.87
   6  13 -43 2538.62  233.09
   6  13 -40  832.74   90.86
   6  13 -34 4301.28  284.74
   6  13 -2210660.34  268.98
   6  13 -19   42.34   84.80
   6  13 -1624811.17  513.87
   6  13 -10 1101.91   84.27
   6  13  -7 4155.93  281.46
   6  13  -4  231.44  110.23
   6  13  -1  946.22   99.72
   6  13   214670.38  152.37
   6  13   5 3927.73  271.20
   6  13   811342.24  247.43
   6  13  1113947.19  175.17
   6  13  14 5882.12  107.78
   6  13  2012628.60  313.12
   6  13  23 4554.29  376.16
   6  13  2624967.34  340.82
   6  13  32 2846.87  232.44
   6  13  35  873.06  217.66
   6  13  38  929.40  224.72
   6  13  44  160.48  127.97
   6  13  47   55.15   57.24
   6  13  50  361.56  110.90
   6  13  53   28.05   80.08
   6  13  59  362.90   71.41
   6  13  62  258.95   66.82
   6  13  68   83.18   67.70
   6  14 -71   74.94   74.75
   6  14 -65    2.25   88.83
   6  14 -59  150.25  102.26
   6  14 -56   65.41   62.58
   6  14 -50  104.49   64.51
   6  14 -47 1268.67  147.33
   6  14 -41  582.94  144.82
   6  14 -38 3377.17  256.81
   6  14 -35  763.21  128.79
   6  14 -32  730.05  137.98
   6  14 -29   86.54   34.08
   6  14 -26  499.62   37.88
   6  14 -20 1474.10   98.35
   6  14 -17 2241.06   54.37
   6  14 -14    0.02   41.70
   6  14 -1117104.52  590.94
   6  14  -8 7137.74  151.87
   6  14  -510648.26  203.29
   6  14  -2  326.11   65.95
   6  14   126541.08  291.77
   6  14   4  631.52   59.68
   6  14   7  641.25  161.51
   6  14  10 2266.99  154.26
   6  14  13  798.33   99.86
   6  14  16  385.69   60.85
   6  14  22 2669.09  150.10
   6  14  25 1094.10  159.99
   6  14  31 2307.50  183.10
   6  14  40  624.18  168.14
   6  14  43 2350.08  306.40
   6  14  58  447.56  118.32
   6  14  61   36.52   49.26
   6  14  64   30.50   47.94
   6  14  67   41.08   73.06
   6  14  70   62.68   77.90
   6  15 -69  131.98   92.93
   6  15 -60   71.05   97.42
   6  15 -48  172.16   90.72
   6  15 -45  608.91  199.92
   6  15 -42 1587.78  170.38
   6  15 -39  817.38  112.32
   6  15 -30 1280.53  120.31
   6  15 -27  420.47   46.60
   6  15 -21 5906.39  307.74
   6  15 -18 2502.92  141.58
   6  15 -15 2057.54  108.40
   6  15 -12  977.49   64.46
   6  15  -9 3125.95   84.08
   6  15  -3 2865.89  118.37
   6  15   0 3320.70  228.40
   6  15   3 2452.92  244.24
   6  15   6  526.17   86.14
   6  15   9  352.37   93.76
   6  15  12 1872.46  152.41
   6  15  15  125.36   42.78
   6  15  18 7042.83  235.89
   6  15  24   75.09   58.26
   6  15  27 3147.76  161.70
   6  15  30  349.10   79.01
   6  15  36    0.86   62.78
   6  15  54  153.38  117.85
   6  15  60   43.24   56.43
   6  15  63  150.08   46.85
   6  15  72   61.64   43.70
   6  16 -58  167.23  104.47
   6  16 -55  222.96   78.33
   6  16 -40  786.45  140.18
   6  16 -37  844.00  124.13
   6  16 -34  102.42   84.03
   6  16 -31  593.08   67.85
   6  16 -28  127.65   51.75
   6  16 -16  378.32   59.06
   6  16 -10 5503.15  240.90
   6  16  -4  686.90  148.60
   6  16   2 6386.74  232.11
   6  16   5 7253.84  163.39
   6  16   813267.90  316.00
   6  16  1123834.66  309.85
   6  16  14  678.57   47.94
   6  16  20    0.22   32.61
   6  16  29  414.91   76.03
   6  16  32  196.56   66.61
   6  16  38  214.13  102.12
   6  16  41  214.21   66.24
   6  16  56  328.34   73.59
   6  16  62   15.66   46.65
   6  16  65   92.39   64.60
   6  17 -71  131.76   82.22
   6  17 -53    0.32  109.89
   6  17 -50  120.49   88.16
   6  17 -38  552.90  153.39
   6  17 -35  789.50   86.73
   6  17 -32 1911.54  245.37
   6  17 -26  107.63   41.90
   6  17 -23 1101.10  178.20
   6  17 -17   54.00   28.82
   6  17 -14  419.37   69.99
   6  17  -8 6384.12  276.71
   6  17  -2  436.04  172.47
   6  17   124075.70  353.16
   6  17   4 7199.44  212.88
   6  17   716990.22  293.51
   6  17  13 3773.40  211.25
   6  17  19  659.52   54.50
   6  17  25  447.80  110.70
   6  17  28 3720.94  515.24
   6  17  31  133.87   70.90
   6  17  34  419.57  118.15
   6  17  37  252.09  112.42
   6  17  40  176.11   73.73
   6  17  46  267.07   59.74
   6  17  49  518.78   89.68
   6  17  55   48.31   96.05
   6  17  58    6.04   41.17
   6  17  61    3.71  135.87
   6  17  67   16.66   51.27
   6  17  70   46.58   45.02
   6  18 -69  241.49   75.55
   6  18 -57  152.95   93.55
   6  18 -51   98.81  133.63
   6  18 -48  169.76   60.44
   6  18 -36  298.23   72.28
   6  18 -30   69.55   42.52
   6  18 -27  663.92  134.29
   6  18 -21 3168.27  221.31
   6  18 -15 1375.99   80.75
   6  18 -12 2861.54  237.93
   6  18  -9 4564.65  229.03
   6  18  -6  127.05   43.47
   6  18   3  670.36   39.06
   6  18   6  156.10   20.99
   6  18  12  547.36  104.87
   6  18  15 1211.88  176.77
   6  18  18 1136.79  106.90
   6  18  30 1205.25  153.33
   6  18  33  193.68   63.36
   6  18  45  778.13  101.39
   6  18  57    4.53   49.31
   6  18  60   17.52   66.50
   6  18  69   58.93   54.26
   6  19 -70   77.63   62.81
   6  19 -61   80.94   73.08
   6  19 -52   48.86   57.15
   6  19 -31   89.87   45.80
   6  19 -25  202.16  126.62
   6  19 -22  189.09   48.70
   6  19 -19  323.66   50.30
   6  19 -16  855.23  151.98
   6  19 -10  286.50   92.07
   6  19  -7 1179.90   99.32
   6  19  -4 1084.44   80.38
   6  19   2  423.69  101.38
   6  19   5  560.40  122.38
   6  19   8 1188.65   69.59
   6  19  14 3133.63  158.39
   6  19  17  441.84   53.24
   6  19  23  517.06   80.88
   6  19  29  810.47   37.33
   6  19  32  606.68  103.46
   6  19  35   15.74  109.90
   6  19  44  295.89   70.72
   6  19  59  246.14   82.34
   6  19  68   92.42   60.05
   6  20 -68   79.37  100.84
   6  20 -62  108.93   79.40
   6  20 -59  269.62   70.93
   6  20 -50  104.64  104.04
   6  20 -44  345.08   89.29
   6  20 -41  417.77   57.43
   6  20 -35  200.78   61.72
   6  20 -29  373.65   69.60
   6  20 -23  489.05  134.50
   6  20 -20  149.00   70.03
   6  20 -17  707.46  113.04
   6  20 -14  934.23  160.51
   6  20 -11  210.35   40.94
   6  20  -5  852.69   67.54
   6  20  -2  667.09  128.17
   6  20   1  441.72   77.45
   6  20   4 4854.80  240.89
   6  20   7 1273.49  134.68
   6  20  10 2859.18  133.10
   6  20  13 1407.21  117.97
   6  20  16   44.51   70.24
   6  20  22  186.02   71.30
   6  20  25  268.94   48.60
   6  20  31  818.30   95.59
   6  20  37  587.36   90.14
   6  20  58  177.84  107.28
   6  20  64  165.96   87.97
   6  20  70   26.99   59.14
   6  21 -54   35.72  107.98
   6  21 -48  186.66  127.38
   6  21 -42   73.91   67.68
   6  21 -39  196.37   87.15
   6  21 -33 1028.28  147.36
   6  21 -21  495.07  140.27
   6  21 -18  847.87  107.92
   6  21 -15 1530.32  145.21
   6  21 -12 3110.26  203.96
   6  21  -9 3331.49  192.96
   6  21  -6  670.48   48.22
   6  21  -3  455.12  137.48
   6  21   0 2940.95  262.07
   6  21   3  557.40   67.36
   6  21   6 1598.74   87.35
   6  21  12 2818.06  205.88
   6  21  15 1529.86  139.38
   6  21  18  612.91   83.33
   6  21  21  381.44   64.61
   6  21  24  315.57   72.20
   6  21  30  289.91   65.88
   6  21  39  312.77   81.32
   6  21  45  605.02   92.11
   6  21  51  309.85  119.75
   6  21  60  133.53  162.48
   6  21  63   91.53   90.95
   6  21  69  108.87  118.37
   6  22 -67   52.97   61.62
   6  22 -55   82.11   78.12
   6  22 -40    6.23   75.51
   6  22 -34   77.01   92.26
   6  22 -31  247.36   81.71
   6  22 -19  382.32  132.84
   6  22 -16 2626.72  261.11
   6  22 -13 1871.62  169.40
   6  22 -10 1199.46  117.52
   6  22  -7  185.80   99.25
   6  22  -4  658.64   85.34
   6  22  -1  754.47   53.35
   6  22   5  720.11  144.67
   6  22   8 7472.58  377.61
   6  22  11  562.12   57.80
   6  22  14 1054.69  174.96
   6  22  17 1188.56  121.13
   6  22  20  554.11   97.16
   6  22  23   17.90   36.42
   6  22  26  609.95   81.85
   6  22  35 4715.66  510.58
   6  22  44 1277.71  252.64
   6  22  50  258.61   91.61
   6  22  53  120.27   66.79
   6  23 -47  605.06  100.63
   6  23 -44  344.19   86.42
   6  23 -41  173.59  142.86
   6  23 -35   46.30   46.00
   6  23 -32   57.20  156.33
   6  23 -26  402.93  137.63
   6  23 -23  257.93   76.44
   6  23 -17 1029.38   75.57
   6  23 -11  635.75   93.92
   6  23  -8 3212.09  273.02
   6  23  -5 1111.60  161.94
   6  23   1  165.27   61.62
   6  23   4   60.32   19.33
   6  23  10  770.29   88.51
   6  23  19  686.73   96.34
   6  23  22 1060.43  110.10
   6  23  46  203.98   67.80
   6  23  64  107.63   68.91
   6  24 -60   66.70   61.50
   6  24 -57  329.35   73.85
   6  24 -27   85.49   55.47
   6  24 -21  307.41   65.79
   6  24 -18  417.27   41.94
   6  24 -12  899.45  166.88
   6  24  -9  109.69   57.30
   6  24  -6  502.11  120.21
   6  24   0  342.64   53.94
   6  24   3    8.76   27.29
   6  24   6  773.54   56.29
   6  24   9  551.40   57.36
   6  24  12   15.91   39.48
   6  24  15  491.88   51.83
   6  24  18  156.22   81.02
   6  24  21  585.79  105.46
   6  24  24   16.22   65.69
   6  24  27  557.42   73.44
   6  24  30  505.74  140.04
   6  24  39  240.55   87.83
   6  24  42   31.28  135.83
   6  24  60  235.20  112.93
   6  24  63  100.01   58.02
   6  25 -58   44.56  121.78
   6  25 -52   88.50   60.83
   6  25 -49  385.47   99.80
   6  25 -40   25.89  129.46
   6  25 -34  962.30  137.23
   6  25 -28  918.36  140.72
   6  25 -25  803.91  119.07
   6  25 -22   18.37  103.34
   6  25 -16 3248.05  284.31
   6  25 -13  470.10  156.96
   6  25 -10  924.20  128.86
   6  25  -7  410.70  123.52
   6  25  -4  513.45  113.56
   6  25   5   52.26   30.75
   6  25   8  281.11   92.99
   6  25  14  221.55   66.62
   6  25  20  283.84   71.34
   6  25  23   73.67   57.64
   6  25  26  101.66   81.08
   6  25  29  944.12   99.63
   6  25  35  132.23   77.13
   6  25  38 1217.08  100.26
   6  25  50   46.67   87.42
   6  25  56  359.57  123.61
   6  25  62  157.75   95.63
   6  26 -62   76.57   65.28
   6  26 -56   90.00   63.86
   6  26 -35  580.45   67.59
   6  26 -32  171.71   49.10
   6  26 -26  719.87  126.93
   6  26 -14  346.98  119.02
   6  26 -11   59.83   59.31
   6  26  -8 2745.54  173.50
   6  26  -2  412.61  133.41
   6  26   1  371.15   58.64
   6  26   7  277.11   60.58
   6  26  16    3.07   54.63
   6  26  22   91.06   79.11
   6  26  40  143.17   61.00
   6  26  49   98.36   82.67
   6  26  61  170.52  123.61
   6  27 -57    0.18   73.59
   6  27 -45  241.04   47.85
   6  27 -36   55.16   88.91
   6  27 -30  269.47  137.91
   6  27 -27  457.99   83.02
   6  27 -24  770.22   98.46
   6  27 -21  775.87  134.85
   6  27 -18  563.89  102.70
   6  27 -15  812.10  123.64
   6  27 -12 1637.83  144.84
   6  27  -9 1961.20  167.35
   6  27  -6  855.12   97.94
   6  27   0  585.07  130.16
   6  27   3  391.90   67.75
   6  27   6  203.31   65.39
   6  27   9   59.11   48.47
   6  27  12  884.90  126.46
   6  27  15  106.28  117.88
   6  27  18  638.62  177.13
   6  27  30  876.56  191.57
   6  27  33  144.84   48.96
   6  27  39  273.75   84.19
   6  27  45  313.47   94.59
   6  27  60  117.53   99.10
   6  28 -55  203.76   78.95
   6  28 -52  105.39   74.61
   6  28 -49  230.10  109.48
   6  28 -34  780.02  156.86
   6  28 -31  640.06   98.86
   6  28 -28  890.06  156.59
   6  28  -4  787.30  183.31
   6  28  -1  512.21  188.37
   6  28  14  476.05   65.00
   6  28  17   23.43   69.13
   6  28  26   82.70  120.04
   6  28  29  703.78  104.13
   6  28  44   44.90   80.13
   6  29 -47   67.32  126.24
   6  29 -41   48.44   73.47
   6  29 -38  561.17   78.99
   6  29 -32  205.67   77.66
   6  29 -26   32.72   61.08
   6  29 -23  184.01   71.53
   6  29 -20   82.75   79.44
   6  29 -11  353.67  117.34
   6  29  -5  856.29  156.42
   6  29  -2  188.55   86.45
   6  29   1  135.54   74.72
   6  29  10  769.23   93.68
   6  29  13  190.81   76.38
   6  29  16  122.51  101.05
   6  29  19  127.16   75.15
   6  29  22  351.56  115.25
   6  29  25  168.42   83.24
   6  29  34   70.42   73.05
   6  29  37    6.49   65.79
   6  29  43   45.06   88.59
   6  29  46   29.99   72.10
   6  29  52   87.59   80.16
   6  30 -42    1.53   83.88
   6  30 -33  328.61   83.37
   6  30 -27   81.68   77.44
   6  30 -24   19.18  100.95
   6  30 -21  549.21  111.37
   6  30  -9  167.13  128.72
   6  30   6  729.05  146.38
   6  30  12  265.47  108.30
   6  30  15    7.27   84.76
   6  30  27  411.22  126.48
   6  30  48   93.95   85.23
   6  31 -52  158.23  197.89
   6  31 -37  515.24  152.76
   6  31 -34  135.65   96.44
   6  31 -31  115.69   93.59
   6  31 -25   62.48   96.33
   6  31 -19   20.01   77.86
   6  31 -13    0.00  105.62
   6  31  -7   40.85  110.03
   6  31  -4    2.45  128.59
   6  31  -1  226.34   79.76
   6  31  41  421.47  113.24
   6  31  47  207.56  135.11
   6  32 -47   29.63  111.65
   6  32 -41   47.82  118.31
   6  32 -38  512.38  114.09
   6  32 -32  467.10   92.22
   6  32 -26  442.79  139.48
   6  32 -23  470.72  175.64
   6  32  -8  455.06  126.69
   6  32  -5  124.09  121.52
   6  32  -2 1210.68  126.12
   6  32   1  128.08   94.98
   6  32   4   74.29  100.83
   6  32  19   89.24   62.71
   6  32  22  119.16   85.26
   6  32  31   37.73  139.19
   6  32  34  201.36  144.77
   6  32  37  137.80   58.16
   6  32  43   70.64  131.06
   6  33 -45  285.31  328.52
   6  33 -39  182.83  145.02
   6  33 -36  275.89  156.71
   6  33 -18   83.83   70.97
   6  33  -6 1016.61  140.99
   6  33   3   82.48  174.10
   6  33  15  200.58  123.26
   6  33  18  421.59   99.00
   6  33  24  211.57  118.50
   6  33  33  109.65   74.79
   6  33  48   11.28  121.23
   6  34 -46  449.76  196.05
   6  34 -40  431.37  379.36
   6  34 -25  436.56   86.36
   6  34 -19  359.06  147.24
   6  34 -13  110.79  204.54
   6  34 -10  225.62  139.72
   6  34  -1  768.95   85.23
   6  34   2  674.63   95.78
   6  34   5    2.78   82.26
   6  34  14  432.51  102.79
   6  34  17  305.84  100.60
   6  34  20  476.97  169.51
   6  34  23  162.93  128.37
   6  34  29  567.75  153.56
   6  34  35   79.74   59.80
   6  35 -26   18.57  130.15
   6  35 -23    2.50   45.68
   6  35 -17  166.62   65.34
   6  35  -8  120.98   96.25
   6  35  13  121.54  101.41
   6  35  25  456.32  291.43
   6  35  28   54.95   67.51
   6  35  40   37.98   96.99
   6  36 -30  450.29  205.40
   6  36 -18  201.88  204.79
   6  36  -6   27.01   55.69
   6  36  -3  635.45   92.26
   6  36   0  119.65   97.72
   6  36   9  189.10  155.62
   6  36  21  200.80   81.22
   6  36  36   47.01   85.19
   6  36  42  305.77   85.81
   6  37 -28  135.43  225.13
   6  37 -13  127.95  168.95
   6  37   5  452.21  145.66
   6  37  11  271.63  116.32
   6  37  17  101.67   89.19
   6  37  23  158.94  114.74
   6  37  29    8.69   84.67
   6  37  38  152.78  118.51
   6  38 -23   89.79  174.19
   6  38 -17  218.04  217.25
   6  38   4   26.59   77.44
   6  38   7   64.96   86.20
   6  38  16    8.40   65.03
   6  38  19  203.84  131.95
   6  38  22  142.37   68.67
   6  38  25   16.73  157.07
   6  38  28  212.11  140.95
   6  38  34   61.56  170.69
   6  39 -18  742.63  317.88
   6  39 -15   38.85  129.46
   6  39  -6  577.09  133.50
   6  39  -3  169.38  109.87
   6  39   0  189.66  138.86
   6  39   6   95.54  225.85
   6  39   9   93.46   87.47
   6  39  12  307.70   91.87
   6  39  18   93.97   69.17
   6  39  30   97.71  126.16
   6  40 -16  146.09  237.52
   6  40  26  268.95  109.60
   6  41 -20  151.68  138.10
   6  41  16  163.47   66.19
   6  41  22    5.03   68.79
   6  42 -12  179.69  164.75
   6  42   0   48.51  108.50
   6  42  12  110.04   89.49
   7   1 -69  158.86   53.27
   7   1 -66   76.73   86.35
   7   1 -60  310.46   84.36
   7   1 -48  547.50   44.34
   7   1 -45  562.90  128.16
   7   1 -39 1922.78   42.23
   7   1 -36    7.01   52.19
   7   1 -33  174.93   74.38
   7   1 -30 3374.03  153.97
   7   1 -21 2325.04  146.92
   7   1 -18  711.24  180.34
   7   1 -15451634.2 3976.69
   7   1 -1234648.41  784.42
   7   1  -935087.37  218.78
   7   1  -6 2469.59  193.05
   7   1  -356001.95  290.99
   7   1   018518.05  205.22
   7   1   3 2226.48  104.10
   7   1   6   51.26  118.19
   7   1   9   60.22   61.21
   7   1  12  112.19   40.91
   7   1  15 1259.03  146.56
   7   1  18  166.88  132.48
   7   1  21 7713.82   98.12
   7   1  24 4436.08  169.69
   7   1  27 3235.53  188.18
   7   1  30  555.60  145.20
   7   1  33 1418.78  241.79
   7   1  36 1825.36  201.48
   7   1  45 1503.33  128.26
   7   1  48 1494.35  145.97
   7   1  54  294.01   91.61
   7   1  60  194.05  104.08
   7   1  66  107.79   51.33
   7   1  69   13.80   64.03
   7   2 -79   37.76   55.94
   7   2 -76   84.37   38.37
   7   2 -67  168.93   45.89
   7   2 -64   53.63   46.61
   7   2 -61  231.07   65.36
   7   2 -55   69.40   62.08
   7   2 -43 1521.58  164.41
   7   2 -40   29.08   41.01
   7   2 -37  695.75  102.71
   7   2 -34 4240.71  321.93
   7   2 -28   11.98  153.49
   7   2 -25 9181.52  250.34
   7   2 -22 1542.63  107.12
   7   2 -19 6782.57  264.26
   7   2 -16137976.4 1685.35
   7   2 -10 4500.18  132.40
   7   2  -7333773.1 1366.08
   7   2  -419439.52  341.22
   7   2  -112818.41   83.98
   7   2   2  155.99   83.86
   7   2   526849.54  178.07
   7   2   822748.64  367.50
   7   2  11 6156.61  100.45
   7   2  14 1668.00   61.39
   7   2  17  993.50  151.07
   7   2  20  113.67   34.93
   7   2  23 3078.35  102.42
   7   2  26   95.33   56.63
   7   2  29  169.46   82.90
   7   2  32  338.87   76.21
   7   2  35 1974.46  276.14
   7   2  44 2156.38  177.59
   7   2  50  101.78   63.68
   7   2  53  168.75   81.38
   7   2  56  479.47   72.79
   7   2  62  409.09   64.21
   7   2  71   20.30   68.88
   7   2  74   54.22   97.67
   7   2  77   50.88   60.83
   7   2  80  109.05   48.76
   7   3 -77   55.17   45.74
   7   3 -74    4.88   60.49
   7   3 -68   25.50   71.33
   7   3 -65  206.04   55.93
   7   3 -56   51.43   38.65
   7   3 -53  920.79  127.15
   7   3 -50  693.69  134.45
   7   3 -44 4066.90  347.88
   7   3 -41  167.61   26.62
   7   3 -38 7441.30  336.50
   7   3 -35 2894.41   87.65
   7   3 -32 2376.02  353.28
   7   3 -2626547.13  566.28
   7   3 -23 2221.44  158.22
   7   3 -1731592.31  363.46
   7   3 -1493266.77  524.56
   7   3 -11125579.6  764.06
   7   3  -831250.91  666.41
   7   3  -5 5029.02  122.95
   7   3  -2 2780.17  159.23
   7   3   1    2.30   60.59
   7   3   4 2971.07  164.11
   7   3   722994.55  209.10
   7   3  10 2038.55  267.79
   7   3  1320891.39  276.02
   7   3  16   38.65   48.18
   7   3  22 2271.43   46.77
   7   3  31 1133.31  227.23
   7   3  37  515.26   70.17
   7   3  43 1868.91  207.06
   7   3  52 1110.78  123.79
   7   3  61   44.93   55.99
   7   3  64  147.42   73.80
   7   3  67  190.38   62.54
   7   3  76   75.44   57.93
   7   3  79   18.89   64.17
   7   4 -75  178.12   56.30
   7   4 -66   99.16   53.43
   7   4 -60  260.43  109.22
   7   4 -54  723.54  113.27
   7   4 -45  325.82   42.68
   7   4 -42   16.96   48.97
   7   4 -39  937.15  115.13
   7   4 -33  451.92   79.16
   7   4 -30   20.65   54.96
   7   4 -2739651.86  555.25
   7   4 -2410952.57  604.08
   7   4 -21 3473.48   55.39
   7   4 -18   74.95  125.68
   7   4 -1560741.92  317.00
   7   4 -1298727.58 1115.85
   7   4  -958871.44  553.88
   7   4  -658393.08  492.15
   7   4  -321816.10  166.52
   7   4   0 3966.64   91.02
   7   4   314968.26   59.41
   7   4   675134.82  453.16
   7   4   9 4467.56  174.85
   7   4  12 2591.84   80.84
   7   4  15  312.66   33.11
   7   4  18  185.39   19.24
   7   4  21  245.59   37.00
   7   4  24 2610.02  262.62
   7   4  27 1587.25  118.81
   7   4  30 1136.89  159.26
   7   4  33 1987.34  284.46
   7   4  3614157.60  401.49
   7   4  39 4331.63  379.80
   7   4  42 1990.47  207.19
   7   4  45  508.63  153.03
   7   4  51  151.54   68.40
   7   4  54  113.44   52.09
   7   4  60  149.01   39.77
   7   4  63  388.70   50.98
   7   4  66  186.61   56.84
   7   4  72    3.37   68.79
   7   5 -76   31.84   64.92
   7   5 -73    0.27   34.52
   7   5 -70   18.93   38.69
   7   5 -67  109.19   62.51
   7   5 -64  282.43   87.37
   7   5 -61  383.42  121.77
   7   5 -55  159.90   66.09
   7   5 -49  833.88  110.09
   7   5 -40  225.70   73.54
   7   5 -34 1862.90  191.27
   7   5 -28 3231.90   89.09
   7   5 -25  134.38   70.44
   7   5 -2229228.09  572.12
   7   5 -1937206.01  686.84
   7   5 -16 9144.70   75.01
   7   5 -10106941.4  804.48
   7   5  -7147780.1  822.37
   7   5  -4 1012.33   89.16
   7   5  -1  909.43   97.38
   7   5   2 1669.87   70.57
   7   5   5 2856.19   87.89
   7   5   8 9715.23  152.56
   7   5  1119656.56  280.50
   7   5  1741810.92  349.33
   7   5  20 4940.13  142.74
   7   5  23  736.14   83.97
   7   5  2628419.27  766.68
   7   5  29  469.62  110.37
   7   5  3223841.73  601.04
   7   5  35 6117.66  484.46
   7   5  38 1630.91  197.34
   7   5  41  660.68  144.77
   7   5  50  145.63   86.77
   7   5  53  641.15  113.93
   7   5  56  142.07   54.03
   7   5  65    2.36   51.54
   7   5  74   31.45   64.04
   7   5  77   28.72   59.09
   7   6 -77    6.23   45.97
   7   6 -74   19.40   60.59
   7   6 -71   61.82   43.32
   7   6 -62  356.01   89.73
   7   6 -59  301.77   76.59
   7   6 -56  123.65   76.77
   7   6 -53  149.53   59.07
   7   6 -47  434.12  100.05
   7   6 -38  843.60   96.56
   7   6 -32  848.26   97.05
   7   6 -2913039.61  442.39
   7   6 -23 7544.74  259.27
   7   6 -2055617.18  897.20
   7   6 -17 6288.02   98.92
   7   6 -1422715.90  421.81
   7   6 -1132207.23  214.54
   7   6  -828667.40  526.62
   7   6  -526074.18  208.38
   7   6  -2 2593.18  128.83
   7   6   113612.29  359.57
   7   6   4 3499.92   60.07
   7   6   7 4565.12   36.67
   7   6  10 2711.33   39.11
   7   6  1311700.81  174.79
   7   6  16 1868.07   29.44
   7   6  19  113.56   29.66
   7   6  22  623.90  117.95
   7   6  25 6077.21  377.21
   7   6  28 2790.70  382.84
   7   6  31 1848.97  255.04
   7   6  34 9102.05  577.16
   7   6  40   72.29   76.11
   7   6  43  888.30  171.60
   7   6  49  999.06  170.89
   7   6  52  223.26  111.28
   7   6  58  120.09   47.47
   7   6  64  135.88   49.30
   7   6  67    0.46   61.09
   7   6  73   32.65   70.08
   7   6  76   55.48   46.89
   7   6  79   61.80   67.23
   7   7 -75    0.00   71.95
   7   7 -72   29.67   58.59
   7   7 -69   42.52   48.86
   7   7 -66  113.63   51.83
   7   7 -63  111.13   73.32
   7   7 -54   19.10   84.23
   7   7 -48  339.96  101.08
   7   7 -45  117.81   69.06
   7   7 -36 1842.91  192.66
   7   7 -33 2495.07  192.13
   7   7 -2711420.80  301.08
   7   7 -2413184.64  315.71
   7   7 -2112718.72  461.29
   7   7 -1529344.99  311.04
   7   7 -12 5144.87   40.99
   7   7  -628631.10  185.19
   7   7  -337979.48  318.93
   7   7   029433.99  305.36
   7   7   333308.27  837.35
   7   7   6   60.36   69.35
   7   7   9 6355.84  185.53
   7   7  12 6846.17   98.07
   7   7  18 5880.86  148.63
   7   7  2114457.52  308.04
   7   7  2410752.40  436.84
   7   7  30 7367.52  526.21
   7   7  33 6417.14  528.38
   7   7  39 1676.31  120.07
   7   7  42   12.24   60.89
   7   7  45  471.45  100.90
   7   7  48  258.39  105.78
   7   7  51   30.77   41.55
   7   7  69   75.62   56.67
   7   7  75  138.38   78.28
   7   7  78   32.96   50.01
   7   8 -67  106.79   74.25
   7   8 -64    5.61   60.93
   7   8 -61  145.41   59.36
   7   8 -58  402.80  101.82
   7   8 -52  216.36   59.45
   7   8 -49  624.77  101.95
   7   8 -43 1284.62  263.11
   7   8 -40 1288.00  141.38
   7   8 -37  786.20  178.36
   7   8 -34 1066.21   92.03
   7   8 -3111622.74  361.26
   7   8 -2223348.47  304.86
   7   8 -19 3001.40  146.32
   7   8 -16 1865.91   61.84
   7   8 -1312238.13  248.06
   7   8 -10 1152.61   86.61
   7   8  -7  277.91   24.52
   7   8  -411975.00   83.83
   7   8  -1 5562.32  118.57
   7   8   2 3984.38   69.00
   7   8   5 8693.75  134.97
   7   8   8 9229.71  124.42
   7   8  11  220.10   38.90
   7   8  14 1723.03   71.88
   7   8  17 5991.33  266.67
   7   8  20  933.31  102.69
   7   8  2330787.90  520.78
   7   8  26 4578.13  241.50
   7   8  32  236.81   74.00
   7   8  35 2107.31  143.27
   7   8  38 1047.68  106.65
   7   8  41  677.29  229.73
   7   8  47 1655.18  208.58
   7   8  62  153.31   81.47
   7   8  65   86.66   43.05
   7   8  68  119.69   78.21
   7   8  71  108.82  136.37
   7   8  74  250.39   74.19
   7   9 -74   93.33   65.36
   7   9 -71  182.15   68.80
   7   9 -56  477.58   60.25
   7   9 -47  596.75  279.00
   7   9 -38   85.15   75.31
   7   9 -35 2580.20  154.30
   7   9 -32 1183.14   79.10
   7   9 -29 1687.59   77.82
   7   9 -26  763.12   58.72
   7   9 -23  464.57   59.56
   7   9 -2014564.60  431.81
   7   9 -17 2070.34  126.25
   7   9 -1410751.57  263.00
   7   9 -11  893.53   69.58
   7   9  -811739.56  137.95
   7   9  -5  232.56   31.23
   7   9  -2 5299.82   43.61
   7   9   1   66.92   41.61
   7   9   4  440.14   42.17
   7   9  13 4147.38   77.25
   7   9  16  305.77  101.78
   7   9  19 1282.95  116.88
   7   9  22 3311.79   82.14
   7   9  25 1032.64   82.93
   7   9  28  789.03  152.84
   7   9  34 7770.81  483.46
   7   9  40   71.56   50.96
   7   9  43 2678.69  433.03
   7   9  49   11.57   77.70
   7   9  52  679.02  130.98
   7   9  55  231.64   49.84
   7   9  61  269.57   61.01
   7   9  64  151.77   63.57
   7   9  70   78.58   70.22
   7   9  73   74.80   60.23
   7  10 -69    6.23  105.82
   7  10 -60  841.65  111.58
   7  10 -51   68.74   63.30
   7  10 -39 1951.84  142.30
   7  10 -36 4607.96  301.20
   7  10 -27 4793.89  272.39
   7  10 -24  231.87  158.82
   7  10 -21 9687.71  272.36
   7  10 -18 5554.58  462.81
   7  10 -15 1563.34  133.58
   7  10 -12 4315.43  159.29
   7  10  -9 4737.44  205.98
   7  10  -618668.43  233.17
   7  10   0 2793.96   42.80
   7  10   6  226.53   66.79
   7  10   9 4420.25  184.10
   7  10  12 3778.31  107.56
   7  10  15 3382.45   84.06
   7  10  18  819.87  117.62
   7  10  21  464.93   88.85
   7  10  24  816.88   76.69
   7  10  27 5187.54  381.07
   7  10  30 9289.33  451.93
   7  10  33 5618.42  315.92
   7  10  39 1114.00  234.47
   7  10  42  688.98  145.53
   7  10  51   31.45   68.48
   7  10  54  261.98   67.82
   7  10  57  267.09   56.08
   7  10  60   85.29   56.24
   7  10  72   76.64   74.78
   7  10  75   20.80   53.76
   7  11 -76   45.26   67.45
   7  11 -73  198.28   91.17
   7  11 -67   50.53   97.87
   7  11 -64  242.89   95.74
   7  11 -61   54.49   81.08
   7  11 -55  284.94   55.08
   7  11 -52    6.80   72.56
   7  11 -46  240.97   90.63
   7  11 -43    0.08   48.26
   7  11 -37 1760.40  131.17
   7  11 -34 1686.77  178.22
   7  11 -25  275.47   48.26
   7  11 -1910612.72  313.33
   7  11 -16 4541.83  200.69
   7  11 -13 2219.28  120.54
   7  11 -1020335.64  321.56
   7  11  -7 7529.22  293.03
   7  11  -4 9278.60  212.47
   7  11   2 2489.62  111.05
   7  11   5 8660.47  117.70
   7  11   8 4800.93  231.92
   7  11  11 3063.17   89.14
   7  11  14 3120.57  230.47
   7  11  17 8756.19  159.94
   7  11  20 3322.89  188.71
   7  11  23 1853.39  239.56
   7  11  26 5493.00  255.87
   7  11  29 2222.76  196.93
   7  11  32  764.18  109.90
   7  11  35  163.02   45.86
   7  11  38  428.94  270.41
   7  11  47    3.57   84.22
   7  11  53   65.47   68.06
   7  11  62   47.44   66.59
   7  12 -74   41.68   44.02
   7  12 -71   11.82   72.60
   7  12 -65  485.02   80.80
   7  12 -62  507.09   89.73
   7  12 -59  263.45   95.27
   7  12 -53   72.63  111.25
   7  12 -50   29.06   59.36
   7  12 -47  284.42  175.69
   7  12 -44  149.06   75.20
   7  12 -41 1439.22  122.44
   7  12 -32 1765.38  130.60
   7  12 -29 1117.36  227.26
   7  12 -26 2858.51  226.02
   7  12 -23   68.91   64.93
   7  12 -17 3006.11  187.42
   7  12 -1419688.50  268.22
   7  12 -11  372.32   67.07
   7  12  -815549.49  311.43
   7  12  -5 1638.16  162.08
   7  12  -2 3581.33  181.03
   7  12   1  713.95   65.18
   7  12   4 8747.55  206.45
   7  12   711091.69  222.65
   7  12  1023080.23  280.54
   7  12  13 4646.31   75.54
   7  12  16  759.62   32.34
   7  12  19 6077.35  115.43
   7  12  22 1584.39   64.29
   7  12  25  126.04   68.83
   7  12  28 3888.77  276.52
   7  12  37  267.30  100.14
   7  12  40 2661.66  363.51
   7  12  43  407.67  110.76
   7  12  70   20.17   46.52
   7  12  73    6.64   47.84
   7  13 -75    2.42   56.65
   7  13 -48  352.45   47.52
   7  13 -42  182.55   75.34
   7  13 -39  277.35  127.46
   7  13 -36  160.34   78.26
   7  13 -33  250.96   54.49
   7  13 -30  113.31   39.34
   7  13 -27  135.03   56.56
   7  13 -24 4100.68  230.77
   7  13 -21 1083.47   45.09
   7  13 -15 2121.97  158.58
   7  13 -12  230.84   26.52
   7  13  -9 1535.25  141.82
   7  13  -3 1778.55   98.35
   7  13   0  879.46  108.05
   7  13   3   57.54   51.88
   7  13   6 4117.15  192.07
   7  13   912836.97  220.98
   7  13  15   93.33   57.31
   7  13  21  684.95   91.39
   7  13  30 1760.42  114.23
   7  13  36   26.04   66.25
   7  13  48  487.36  124.27
   7  13  51    3.15   60.05
   7  13  57  464.95   55.98
   7  13  63   20.89   64.59
   7  13  66   37.33   64.04
   7  13  69   98.99   91.23
   7  13  75  118.95   48.57
   7  14 -70  112.46  108.09
   7  14 -67   76.55   49.31
   7  14 -64   79.01   60.22
   7  14 -46   58.21   82.23
   7  14 -34   91.24   53.84
   7  14 -28  740.17   65.83
   7  14 -19 5674.57  250.83
   7  14 -16  574.34   57.06
   7  14 -13 3835.48  221.28
   7  14  -715970.67  278.82
   7  14  -4  309.36   81.47
   7  14  -1 1391.40   99.86
   7  14   2 7015.98  151.48
   7  14   551383.23  946.58
   7  14   8 1555.17   50.93
   7  14  11 4350.77  218.27
   7  14  14 3550.09  174.85
   7  14  20 2701.63  142.56
   7  14  23 1225.76  109.01
   7  14  35  232.49   87.83
   7  14  38  222.74   66.55
   7  14  41  133.75   85.56
   7  14  44  299.74   81.48
   7  14  53   26.03   65.16
   7  14  68    0.89   77.54
   7  14  71   82.32   74.54
   7  14  74    7.98   48.15
   7  15 -68  261.90   76.60
   7  15 -62   30.91  120.00
   7  15 -53  204.27   49.37
   7  15 -47  232.28   75.42
   7  15 -41  383.40   78.17
   7  15 -38  328.89   76.63
   7  15 -35   96.64   46.72
   7  15 -26  428.17   39.60
   7  15 -20   92.63   31.47
   7  15 -14 3645.17  177.91
   7  15 -11 5472.05  240.92
   7  15  -8 8199.49  287.33
   7  15  -2  811.32   79.56
   7  15   1 1361.88   41.11
   7  15   4  370.41   62.08
   7  15   734666.16  515.85
   7  15  10 1589.61  212.27
   7  15  13 1734.95   66.54
   7  15  16 1099.76  108.18
   7  15  19  546.80   48.90
   7  15  25  196.22   81.12
   7  15  28  235.55  102.30
   7  15  34  342.74  149.17
   7  15  37  176.07   94.19
   7  15  40  911.29  264.45
   7  15  55   55.34   84.81
   7  15  73  174.65   47.41
   7  16 -69  129.40   50.83
   7  16 -60  125.55   96.07
   7  16 -54    9.80   55.28
   7  16 -36 1958.66  169.08
   7  16 -30 2358.98  152.34
   7  16 -27  474.85   69.47
   7  16 -24 1131.36  126.22
   7  16 -21 2211.14  184.42
   7  16 -18  167.41   39.12
   7  16 -12 1930.80  145.33
   7  16  -9 1366.79  129.10
   7  16  -6 7567.37  262.70
   7  16  -316307.11  367.68
   7  16   0 8566.72  254.67
   7  16   3 8732.84  213.57
   7  16   6   92.29   71.88
   7  16   9 1556.78  111.15
   7  16  12 9596.59  223.92
   7  16  15 8913.71  280.60
   7  16  30  959.89  151.82
   7  16  36  112.40   56.19
   7  16  42    5.14   60.77
   7  16  45  107.65  133.45
   7  16  48   96.98   58.97
   7  16  54  138.11   53.15
   7  16  63  133.37   70.27
   7  16  72   60.67  100.00
   7  17 -67  247.95  124.15
   7  17 -64    4.27   79.02
   7  17 -58  101.76   91.42
   7  17 -52    8.83   73.64
   7  17 -43  212.54   67.28
   7  17 -40 1307.87  148.04
   7  17 -37  127.90   58.14
   7  17 -34  226.43  102.13
   7  17 -28 1795.86  156.27
   7  17 -25  147.12   53.99
   7  17 -22  395.03   83.90
   7  17 -19  104.80   48.06
   7  17 -16 1913.68  122.03
   7  17 -13 2640.24  188.04
   7  17  -7 1179.32   84.87
   7  17  -4 3111.77  175.65
   7  17  -1  878.98  130.04
   7  17   5   24.45   28.12
   7  17   8  362.32   19.93
   7  17  11 8179.43  221.73
   7  17  20 2013.22  133.98
   7  17  23  524.88   51.16
   7  17  26  336.60   83.18
   7  17  38  148.55   76.18
   7  17  41  237.89   99.88
   7  17  47  266.37   62.30
   7  17  56   72.55   92.46
   7  17  62  336.66   57.53
   7  17  65  215.40   75.03
   7  17  71  102.11   46.06
   7  18 -56   45.78   61.53
   7  18 -53   78.44   68.95
   7  18 -44  547.23   89.02
   7  18 -35  763.29  132.80
   7  18 -32  936.64  157.04
   7  18 -20 2670.38  302.21
   7  18 -17 3802.69  190.46
   7  18 -14  936.00   79.02
   7  18  -8 1449.39   87.87
   7  18  -2   49.01   41.03
   7  18   1 1782.71  105.30
   7  18   4 2361.61  133.51
   7  18   7 1203.13   61.63
   7  18  10 1050.39   99.10
   7  18  13  388.80   93.56
   7  18  16   33.64   60.93
   7  18  19  924.84   91.30
   7  18  22   42.44   59.12
   7  18  25   43.87   48.78
   7  18  28  450.32   87.69
   7  18  31  272.19  131.64
   7  18  52  141.46   63.90
   7  18  61  251.97  109.41
   7  19 -60   11.15   79.98
   7  19 -54  561.63   81.68
   7  19 -48   84.28  106.83
   7  19 -42  114.16   55.52
   7  19 -30  190.94   82.03
   7  19 -27 1049.50  129.89
   7  19 -21   54.67   57.44
   7  19 -18  334.40  115.96
   7  19  -9 1338.01   79.75
   7  19  -6 1009.82   82.93
   7  19   0 3625.75  176.33
   7  19   3   36.68   33.41
   7  19   6   12.96   22.45
   7  19  15  270.37   55.01
   7  19  18  667.46   76.21
   7  19  21  198.40   95.71
   7  19  24   78.92   34.79
   7  19  30  543.69   72.81
   7  19  33  135.82   78.23
   7  19  39  294.12  131.43
   7  19  45   59.10   52.22
   7  19  60  164.24   76.27
   7  19  69   35.32   46.64
   7  20 -61   83.98   68.40
   7  20 -40  373.16  116.12
   7  20 -37  190.28   48.61
   7  20 -34  334.71  107.17
   7  20 -31  731.45  203.67
   7  20 -28  470.08  103.47
   7  20 -25  345.29  135.88
   7  20 -22  614.33   82.00
   7  20 -19  486.51   79.34
   7  20 -16  751.74  116.45
   7  20 -13 2156.17  238.55
   7  20 -10  587.82   92.32
   7  20  -7  129.39   33.49
   7  20  -4 1310.57   79.15
   7  20  -1   74.92   74.79
   7  20   2  749.70   66.97
   7  20   5  357.46   47.12
   7  20   8 2016.81  109.13
   7  20  11  960.93   95.47
   7  20  14  355.49   84.30
   7  20  17  912.19   61.63
   7  20  20  160.16   56.25
   7  20  26  228.79   72.58
   7  20  35   90.86   61.75
   7  20  38 2215.93  443.09
   7  20  44  404.00  152.03
   7  20  59  185.15  138.44
   7  20  62    1.18  106.79
   7  20  68  138.10   53.34
   7  21 -62   66.09   84.97
   7  21 -59  119.89   91.31
   7  21 -29   23.36   75.68
   7  21 -23 2232.86  215.29
   7  21 -17 1183.15  162.34
   7  21 -11  625.64   86.44
   7  21  -8  830.23  120.87
   7  21  -5 2209.55  136.62
   7  21   4 4163.77  310.85
   7  21   7  304.00   70.76
   7  21  10   74.31   32.63
   7  21  13  551.40   95.89
   7  21  16  333.14   38.65
   7  21  19   70.11   48.58
   7  21  25  367.16   70.27
   7  21  34 1683.14  162.45
   7  21  37   15.70  102.62
   7  21  43  414.67  111.23
   7  21  49  631.86  151.57
   7  21  58  147.65   80.51
   7  21  64   16.49   67.51
   7  22 -42  240.20  149.54
   7  22 -36   43.92   48.39
   7  22 -33  100.21   69.17
   7  22 -27  344.94   74.92
   7  22 -24  810.96  124.39
   7  22 -21 1171.49  190.10
   7  22 -15  677.21   79.10
   7  22 -12  377.05   57.94
   7  22  -9 3143.30  347.55
   7  22  -6  234.35   62.81
   7  22  -3  285.61   31.96
   7  22   0 1196.85   84.92
   7  22   6    1.06   33.72
   7  22   9  400.37   39.01
   7  22  12  364.03   41.10
   7  22  18  247.90   53.40
   7  22  21  128.07   37.06
   7  22  24  234.98   59.86
   7  22  27  262.49   58.80
   7  22  33  633.59  128.41
   7  22  36 1060.84  192.82
   7  22  42 1369.36  101.95
   7  22  48  263.82   86.15
   7  22  57   83.78  115.86
   7  23 -64   85.61  108.26
   7  23 -61   59.39   83.14
   7  23 -58  132.50   93.45
   7  23 -49  137.81  111.19
   7  23 -46  195.13   85.68
   7  23 -40   58.90   81.36
   7  23 -37  189.02   73.83
   7  23 -31  315.78   98.52
   7  23 -28  232.21  187.71
   7  23 -22   78.28   49.38
   7  23 -10  631.82  127.12
   7  23  -7  914.26  132.90
   7  23  -4  136.19   83.23
   7  23  -1   87.02   47.29
   7  23   2   80.86   62.09
   7  23  11  917.59   54.03
   7  23  20 1110.45  141.01
   7  23  23  660.65  136.59
   7  23  26  372.71   62.14
   7  23  32  131.08   81.40
   7  23  38  457.00   73.53
   7  23  41  388.33  101.78
   7  23  47  179.74   74.25
   7  23  56   87.04   99.00
   7  23  62   74.04  135.74
   7  23  65   59.02   52.95
   7  24 -44    5.28  110.75
   7  24 -41  121.19   79.50
   7  24 -38  555.72   74.89
   7  24 -35  311.03   54.14
   7  24 -29   95.41   50.52
   7  24 -26  436.09   65.85
   7  24 -20  866.30  120.37
   7  24 -17  111.90   68.22
   7  24 -14   80.95  117.58
   7  24  -8  646.04   85.61
   7  24  -5 3425.58  279.16
   7  24  -2   23.97   78.80
   7  24   4  187.55   39.46
   7  24  10  401.94   55.96
   7  24  13  463.61   83.76
   7  24  16  397.99  120.27
   7  24  25  367.60   62.15
   7  24  31    9.20   59.47
   7  24  37  982.17  106.63
   7  24  40   60.37   81.35
   7  24  43  126.26  110.19
   7  24  46  218.66   80.32
   7  24  49    0.54   66.49
   7  24  61    1.71  128.06
   7  25 -63   11.04   75.98
   7  25 -60  133.62   82.13
   7  25 -54  120.81   88.95
   7  25 -39  218.66   79.66
   7  25 -33  235.49   79.61
   7  25 -21   74.41   87.07
   7  25 -18  339.50  133.80
   7  25 -12   53.09   44.16
   7  25  -9 3952.83  413.32
   7  25  -6  128.23   51.20
   7  25  -3  998.84  140.97
   7  25   0  401.52   43.25
   7  25   3 1519.22   88.43
   7  25   6  828.56  169.24
   7  25   9  511.07   82.40
   7  25  12  357.91   97.39
   7  25  15  182.56   81.53
   7  25  18  867.37  128.53
   7  25  21  199.29  114.94
   7  25  24  778.02  121.99
   7  25  27  910.33  163.12
   7  25  33  253.25  100.59
   7  25  36  198.96  102.75
   7  25  45  120.57   74.75
   7  25  48   45.12   63.00
   7  25  60  297.97  129.39
   7  26 -58  222.20  146.68
   7  26 -55  135.25  104.57
   7  26 -49   10.30   82.44
   7  26 -43  285.26   64.89
   7  26 -40   87.42   86.25
   7  26 -31  282.21   58.66
   7  26 -28   77.77   85.39
   7  26 -25 1643.09  192.70
   7  26 -22  688.85  182.61
   7  26 -16  664.77  105.07
   7  26 -10  370.43   65.11
   7  26  -7  457.98  173.40
   7  26  -1  219.02   72.80
   7  26   2  177.99   59.38
   7  26   8  257.86   78.92
   7  26  14  257.93   79.84
   7  26  17  276.25  103.62
   7  26  26   69.81   55.45
   7  26  29   57.89   67.73
   7  26  32  103.51   44.51
   7  26  35  239.44  112.38
   7  26  47  143.07   77.52
   7  26  50    1.16   89.15
   7  26  59   43.97   87.28
   7  27 -53   39.99   66.59
   7  27 -47  190.52  106.12
   7  27 -32   78.67   39.10
   7  27 -29  365.74   87.12
   7  27 -26  177.43   97.89
   7  27 -20  689.71   98.13
   7  27 -17  283.71   86.90
   7  27 -14  277.74   52.57
   7  27 -11  136.13   78.85
   7  27  -5    7.70   44.16
   7  27   4  153.59  134.39
   7  27   7  221.15   82.25
   7  27  10  687.11   67.53
   7  27  13 1034.24  147.89
   7  27  16 1249.02  114.63
   7  27  25   77.49  168.42
   7  27  28  119.81   89.19
   7  27  31   29.73   47.13
   7  27  34  654.84  111.26
   7  27  55  296.46  180.08
   7  28 -42  192.89  106.13
   7  28 -36   28.06   51.49
   7  28 -27   51.91  105.75
   7  28 -24  780.96   75.44
   7  28 -21  405.89  125.81
   7  28 -18  312.86   65.50
   7  28  -9  446.93  136.97
   7  28  -6   25.74   80.18
   7  28  -3 1038.88  173.72
   7  28   6   86.44  106.19
   7  28   9   37.58   78.12
   7  28  12  118.59   64.39
   7  28  24  649.76  124.67
   7  28  27  231.12   81.96
   7  28  30  227.23  105.75
   7  28  36    0.47   66.10
   7  28  39   40.31   58.08
   7  28  42  345.16   79.10
   7  28  48   10.05   48.33
   7  29 -49   41.57  107.01
   7  29 -43    0.67  110.41
   7  29 -37    7.69  110.92
   7  29 -28  155.13   95.29
   7  29 -25  574.90  129.54
   7  29 -22  208.04   83.62
   7  29 -10 1209.76  181.70
   7  29  -1  538.16  128.31
   7  29   2 2097.26  185.47
   7  29   5   20.25   72.00
   7  29   8  412.24  191.88
   7  29  11 1696.77  155.96
   7  29  14  284.17  110.48
   7  29  17  157.72  110.69
   7  29  23  648.07  172.70
   7  29  26  796.65  135.55
   7  29  29   61.54   98.84
   7  29  41   22.37   58.96
   7  29  47  203.01   74.26
   7  29  50   86.09   71.96
   7  29  56   58.17  146.32
   7  30 -50  195.79  106.73
   7  30 -35  519.72  162.16
   7  30 -29   15.60   70.32
   7  30 -26  193.96  131.72
   7  30 -23  408.18  116.60
   7  30 -20  110.36   84.58
   7  30 -17  427.71  221.01
   7  30 -14  280.38  113.27
   7  30  -5  154.84  131.05
   7  30   4  156.19   85.44
   7  30  19  972.20   94.28
   7  30  22  425.56  133.16
   7  30  25  478.08  231.95
   7  30  34   88.52  110.36
   7  30  37  193.27   87.56
   7  30  43   61.53  188.00
   7  31 -39   58.05  121.16
   7  31 -24   98.80  105.87
   7  31 -18  160.57   85.48
   7  31 -15  190.61  134.36
   7  31  -9  146.09   85.23
   7  31  -6  215.47   97.21
   7  31   6   42.04   94.97
   7  31   9  408.70  130.71
   7  31  21  583.90  130.78
   7  31  30   69.51   92.52
   7  31  33  273.10  108.08
   7  31  39   48.21  149.92
   7  31  48    8.82   73.60
   7  32 -34  107.28  241.92
   7  32 -28   76.91  130.17
   7  32 -25  173.54  114.05
   7  32 -19  144.61   98.84
   7  32 -10   31.07  106.02
   7  32   8   33.81   67.07
   7  32  11    0.79  130.20
   7  32  17  108.25   89.77
   7  32  20    6.29   80.96
   7  32  23  289.38   81.30
   7  32  29   42.23  119.99
   7  32  44  229.01  127.97
   7  33 -32  382.47  197.65
   7  33 -29  104.67  161.02
   7  33 -26  153.99  103.19
   7  33 -20  189.10  110.75
   7  33 -11    0.66  131.65
   7  33  -5  561.61  131.12
   7  33   1  569.36   72.58
   7  33   7  939.98  115.84
   7  33  10  249.99   87.09
   7  33  13  119.00  145.81
   7  33  16  212.52   88.95
   7  33  28   72.79   85.06
   7  33  37  409.87   89.62
   7  34 -45  256.45  276.10
   7  34 -39   88.09  151.51
   7  34 -30   27.14   89.00
   7  34 -21  119.89   86.45
   7  34   0  255.10   81.11
   7  34   9  255.67  110.25
   7  34  12  179.50  126.86
   7  34  15  379.36  106.81
   7  34  18  244.94   90.47
   7  34  27  237.40   98.91
   7  34  36   64.68  111.41
   7  34  45  205.00  162.49
   7  35 -31   11.14  193.70
   7  35 -22   49.17  215.41
   7  35  -4  393.20   57.22
   7  35   2  365.02   80.17
   7  35   8  178.63  129.30
   7  35  17  163.17  126.44
   7  35  35   16.48  136.62
   7  35  41  365.67  109.28
   7  36 -38  322.37  215.72
   7  36 -32  223.33  136.13
   7  36 -29   32.32  171.07
   7  36 -23  316.08  153.50
   7  36 -20    4.81  122.67
   7  36 -17  237.86  155.03
   7  36   7  520.64  176.12
   7  36  10    0.04   87.44
   7  36  13  616.98  178.07
   7  36  25  492.54  175.96
   7  36  31   50.61  134.35
   7  36  37   77.60  111.52
   7  36  40  266.31  118.47
   7  37 -27  128.03  170.77
   7  37 -15  209.55  170.66
   7  37   9  505.57   90.41
   7  37  12    2.53  103.76
   7  37  18  131.57   84.11
   7  37  24   35.48  129.61
   7  37  27    6.65   73.45
   7  37  33   88.14   64.21
   7  38 -28  105.27  360.00
   7  38 -22  155.22  145.03
   7  38   2  866.35  225.15
   7  38   5  480.66  310.80
   7  38  14   45.13  160.56
   7  38  20    3.42   72.77
   7  38  23    0.41  192.98
   7  38  29    0.21  106.21
   7  38  32   83.06   73.51
   7  39 -29    6.54  108.09
   7  39 -11  184.81  278.80
   7  39  -8  333.30  164.18
   7  39  -5  378.38  197.65
   7  39  -2   90.32  124.14
   7  39  16   16.91   78.35
   7  39  19   58.23   64.52
   7  39  22   68.30  106.65
   7  40 -21   53.97  225.64
   7  40 -12   71.20  149.58
   7  40  21   81.02  105.62
   7  40  24   81.22  125.58
   7  41 -16  114.80  129.67
   7  41 -13  235.92  122.37
   7  41  -7  332.94  151.33
   7  41  -4   17.85   88.42
   8   1 -80   51.33   62.47
   8   1 -77  108.10   49.33
   8   1 -71  170.07   56.31
   8   1 -62   24.95   55.40
   8   1 -50 1004.60  118.85
   8   1 -41  361.16   67.75
   8   1 -38  171.82   32.31
   8   1 -32  603.10  157.66
   8   1 -26 7339.10  388.32
   8   1 -23   27.32  104.26
   8   1 -2018040.68  279.69
   8   1 -14114217.3 1273.84
   8   1 -11145836.3 1231.55
   8   1  -8153219.4 1284.95
   8   1  -5  563.51  124.76
   8   1  -2 7556.61   97.27
   8   1   1 5640.37  175.84
   8   1   437836.41  398.40
   8   1   763051.88  780.02
   8   1  1017069.36  286.58
   8   1  1312076.94  190.67
   8   1  16 4216.28  120.53
   8   1  1910576.57  127.77
   8   1  22  141.01   72.43
   8   1  34 3990.91  286.07
   8   1  37  501.15   57.62
   8   1  46  550.78   81.99
   8   1  52  882.48  121.08
   8   1  70   70.75   57.69
   8   1  76    6.75   51.38
   8   1  79   59.82   59.22
   8   2 -78  125.75   91.10
   8   2 -75    6.76   42.25
   8   2 -72  112.68   58.52
   8   2 -69  225.78   83.32
   8   2 -63  384.77   81.57
   8   2 -60  111.52   52.09
   8   2 -57  413.81   79.43
   8   2 -54  835.38  100.51
   8   2 -48    0.09   49.61
   8   2 -42  530.41   74.33
   8   2 -36 4397.31  321.54
   8   2 -33 1579.56   64.62
   8   2 -30 4518.79  300.21
   8   2 -27 4326.41  202.88
   8   2 -24 9884.22  540.29
   8   2 -21    4.36   75.35
   8   2 -18   29.58  159.25
   8   2 -1511676.84  402.41
   8   2 -12605829.9 6585.49
   8   2  -9102389.8  450.71
   8   2  -6313613.4 3245.92
   8   2  -316178.05  190.48
   8   2   0 3359.53  202.84
   8   2   331590.70  333.38
   8   2   6  684.77  199.39
   8   2   949039.54  731.34
   8   2  18 2207.45   65.51
   8   2  21 7431.05  290.01
   8   2  2411615.60  233.29
   8   2  27  506.90   71.10
   8   2  33 5576.33  365.39
   8   2  36  901.56  183.45
   8   2  42 1236.18  191.73
   8   2  45  345.98  120.06
   8   2  48 1531.32  166.14
   8   2  51   40.07   80.21
   8   2  60  254.90   67.60
   8   2  66   66.03   81.58
   8   2  72    5.15   66.50
   8   3 -76   18.57   54.71
   8   3 -70  102.18   75.65
   8   3 -67  122.58   56.53
   8   3 -64   72.82   51.11
   8   3 -61    1.49   37.96
   8   3 -58   67.48   60.76
   8   3 -49   32.89   49.13
   8   3 -46 3258.19  227.81
   8   3 -43  480.68   86.09
   8   3 -31 2294.70  201.23
   8   3 -28 7651.46  260.34
   8   3 -25 3754.49  330.92
   8   3 -2213089.25  434.70
   8   3 -19 3498.41  200.42
   8   3 -13 8577.52   94.70
   8   3 -10412523.9 2899.20
   8   3  -7198329.1 1235.05
   8   3  -4 8342.54  188.42
   8   3  -1   18.04   51.77
   8   3   8 8842.61  172.69
   8   3  11 4741.84   76.33
   8   3  14 7159.31  118.54
   8   3  17   47.42   72.24
   8   3  20 3028.75  114.91
   8   3  23 1570.65  240.91
   8   3  26  373.75   54.99
   8   3  29 2162.27  329.04
   8   3  32 9323.31  479.88
   8   3  35   15.31   38.26
   8   3  38 1093.38  147.44
   8   3  41  244.03   78.84
   8   3  44  125.71  106.98
   8   3  53  580.96   83.42
   8   3  56 1152.67  138.42
   8   3  68   11.52   80.22
   8   3  71   88.62   61.41
   8   3  74   58.56   48.40
   8   3  77   47.60   45.13
   8   4 -74  132.20   52.81
   8   4 -71    6.90   52.79
   8   4 -62   97.57  110.14
   8   4 -59  631.40  100.24
   8   4 -56   54.88   77.39
   8   4 -53   67.26   62.12
   8   4 -50  394.76   85.21
   8   4 -47  950.60  146.94
   8   4 -44  280.34   51.23
   8   4 -35 1989.97  134.63
   8   4 -32 2684.88  215.12
   8   4 -29 6911.20  487.70
   8   4 -23103290.7 1114.83
   8   4 -20 4184.38  273.86
   8   4 -14 2714.49   90.30
   8   4 -1114155.91  876.75
   8   4  -842509.37  431.46
   8   4  -5 4349.73  163.99
   8   4  -247077.13  304.41
   8   4   1   73.57   46.23
   8   4   427369.67  188.16
   8   4   7   16.36   65.59
   8   4  10 2838.39  112.42
   8   4  1351572.24  361.13
   8   4  16 2693.73   72.90
   8   4  19  480.75   54.88
   8   4  22 1488.72   73.59
   8   4  25  825.96   62.24
   8   4  28  279.40   58.90
   8   4  40  853.86  194.54
   8   4  43  498.54   65.58
   8   4  46  618.79  141.85
   8   4  49  308.57  124.65
   8   4  52  152.61  113.32
   8   4  55  200.72   55.57
   8   4  67  106.60   64.77
   8   4  70   10.05   59.63
   8   4  79   29.08   68.38
   8   5 -75  203.40   60.38
   8   5 -69    4.48  115.05
   8   5 -66    0.41   54.21
   8   5 -63   79.38   69.45
   8   5 -54  682.87  123.38
   8   5 -51  165.48  104.81
   8   5 -42  539.38  133.53
   8   5 -33 2938.05  182.30
   8   5 -21  404.45  111.96
   8   5 -15 4359.59   94.11
   8   5 -12 7373.09  255.40
   8   5  -9  421.32   62.64
   8   5  -620765.94  343.97
   8   5  -397592.40  629.18
   8   5   0 7547.83  115.54
   8   5   3 9210.27  107.32
   8   5   6  414.04   79.82
   8   5   9 4506.34  230.25
   8   5  1214508.18  157.90
   8   5  15  108.77   28.22
   8   5  18 4640.64  104.36
   8   5  21 3297.68  225.65
   8   5  24 9811.67  188.75
   8   5  27 1085.27  144.81
   8   5  30 2077.94  276.01
   8   5  33   11.75   64.08
   8   5  45  919.67  172.12
   8   5  57   63.81   71.06
   8   5  60  107.67   64.80
   8   5  66  101.52   62.38
   8   5  72    3.10   71.34
   8   5  78   24.51   86.11
   8   6 -76   18.14   60.11
   8   6 -67    8.12   56.76
   8   6 -58  275.68   71.16
   8   6 -52  210.14   53.78
   8   6 -43  318.67   67.51
   8   6 -40  724.44  171.82
   8   6 -34 1077.24  144.31
   8   6 -31 3022.20  228.84
   8   6 -28 2125.15  136.73
   8   6 -25 3916.20  154.67
   8   6 -22  744.71  128.11
   8   6 -1959888.49  966.76
   8   6 -1658330.69  444.46
   8   6 -1323267.12  276.28
   8   6 -10 3454.30   73.78
   8   6  -723714.51  307.35
   8   6  -1 1552.70  150.77
   8   6   2 1929.37   74.92
   8   6   5 1596.13   63.97
   8   6   819449.83  227.65
   8   6  11 4818.44  109.45
   8   6  14 9358.42   74.60
   8   6  17 1847.34   84.23
   8   6  20 9519.53  164.50
   8   6  23 6447.84  324.54
   8   6  2610623.89  444.29
   8   6  29 2432.37  158.27
   8   6  35  581.40  234.11
   8   6  41  519.07   67.88
   8   6  44  646.70  134.60
   8   6  47  685.42  170.59
   8   6  65   61.69   66.07
   8   6  74   76.50   79.10
   8   6  77   42.39   68.25
   8   7 -71   76.90   54.56
   8   7 -68    0.29   64.15
   8   7 -56  139.69   50.65
   8   7 -44  154.58  106.06
   8   7 -41    0.02   39.60
   8   7 -38 1898.01  192.92
   8   7 -35  398.26   74.79
   8   7 -32 4261.49  174.64
   8   7 -29  814.44   76.06
   8   7 -2610317.51  273.51
   8   7 -17  152.67   81.93
   8   7 -1126215.18  277.82
   8   7  -820258.03  263.19
   8   7  -538744.41  376.11
   8   7   1 1039.42   19.85
   8   7   420242.98  145.03
   8   7   7  218.65   35.11
   8   7  10 1505.20   49.10
   8   7  13 3163.20  165.13
   8   7  16 3915.43  235.32
   8   7  1921023.28  319.95
   8   7  22 7826.81  257.10
   8   7  25 1588.73  226.35
   8   7  28 2715.59  280.89
   8   7  31 1996.34  141.97
   8   7  34 2905.17  316.53
   8   7  37 4185.46  255.78
   8   7  43 1583.24  159.99
   8   7  46   87.72   61.36
   8   7  52   43.21   78.46
   8   7  55  515.77  118.56
   8   7  58   34.57   60.64
   8   7  61  412.27  131.43
   8   7  64  154.06   57.09
   8   7  73   74.84   61.57
   8   8 -63   51.00   74.07
   8   8 -48  360.38   52.55
   8   8 -45  245.59  103.46
   8   8 -42   40.63   49.26
   8   8 -33  829.70  101.22
   8   8 -30  571.49   89.82
   8   8 -27   15.61   45.65
   8   8 -24 2136.71  199.78
   8   8 -18 5573.59  225.92
   8   8 -15  309.80   94.11
   8   8 -12 5122.76  162.16
   8   8  -936321.75  273.46
   8   8  -3 6018.01   25.71
   8   8   0 1525.66   37.59
   8   8   3 6756.11   78.99
   8   8   6 1102.41   48.28
   8   8   9 7571.26   69.78
   8   8  12 6032.36   99.14
   8   8  18  228.22   61.80
   8   8  21 6566.81  359.83
   8   8  24 1036.21   67.64
   8   8  27 4107.53  242.62
   8   8  3010681.09  513.14
   8   8  3318170.64  499.79
   8   8  36 1031.61  338.26
   8   8  42  267.45   56.25
   8   8  45   27.93   81.28
   8   8  54  354.04   79.32
   8   8  57  217.65   69.33
   8   8  66   55.37   64.57
   8   8  72   90.13   57.54
   8   8  75   47.00   54.81
   8   9 -76   44.53   46.36
   8   9 -64  128.22   66.39
   8   9 -55  325.15   83.32
   8   9 -52  179.70   90.84
   8   9 -49  314.69   89.93
   8   9 -46  559.05  255.63
   8   9 -37 1282.30  112.93
   8   9 -34  995.76   65.74
   8   9 -28 6652.89  209.26
   8   9 -22  874.26   42.66
   8   9 -19 7382.86  153.92
   8   9 -1623627.99  421.95
   8   9 -10 2629.08   74.32
   8   9  -7 1418.50   68.20
   8   9  -4  621.77   49.68
   8   9  -1 4766.79   95.84
   8   9   2  223.34   57.88
   8   9   5 5429.41  135.40
   8   9   823902.46  376.91
   8   9  1118388.58  177.15
   8   9  14 1795.07   54.04
   8   9  1711159.22  360.79
   8   9  20 1863.18   86.01
   8   9  35 1277.25  183.11
   8   9  44 1437.62  219.98
   8   9  53  191.43   74.21
   8   9  59   63.56   56.20
   8   9  65    3.60   49.24
   8   9  71  208.09   54.01
   8   9  74   23.89   53.73
   8  10 -74   91.35   83.39
   8  10 -71  154.96   78.89
   8  10 -68   43.72   66.32
   8  10 -65   49.73   69.34
   8  10 -62  222.04   90.05
   8  10 -44  387.40   80.96
   8  10 -38  332.96   75.26
   8  10 -35  945.27  134.07
   8  10 -26 2644.53  120.12
   8  10 -23  413.68   40.81
   8  10 -20 2487.58  132.03
   8  10 -1713550.12  340.29
   8  10 -14 1973.53  191.09
   8  10 -11 1052.82  164.26
   8  10  -8   48.01  103.11
   8  10  -2 4161.62  147.07
   8  10   1 1783.45   77.89
   8  10   4 1825.46  125.31
   8  10  13  629.23   51.60
   8  10  16 2539.85   93.86
   8  10  19 1037.91  121.43
   8  10  22    0.04   34.82
   8  10  25 1002.52  164.69
   8  10  31  550.99  153.82
   8  10  43  153.39   77.73
   8  10  64   70.25   67.57
   8  10  70   27.36   73.53
   8  10  73   31.21   58.47
   8  11 -72   38.45   56.24
   8  11 -69   15.31   63.34
   8  11 -66  253.49   61.44
   8  11 -63   81.28   63.43
   8  11 -45  392.99  122.56
   8  11 -42   91.96   86.52
   8  11 -39  121.30   64.33
   8  11 -33 2115.70  199.30
   8  11 -27 4021.77  271.88
   8  11 -24 7992.75  279.45
   8  11 -21 3500.15  242.15
   8  11 -18 6099.34  302.29
   8  11 -15    2.47   66.37
   8  11 -12  144.05  110.68
   8  11  -9 2772.77  295.18
   8  11  -6   99.30  129.88
   8  11  -3 1163.83  161.64
   8  11   0 9860.34  246.82
   8  11   6 1054.52  108.63
   8  11   9 2880.89  180.65
   8  11  12   82.33   55.79
   8  11  15 7504.77  238.36
   8  11  18  831.16   70.85
   8  11  21  519.49   32.06
   8  11  27 2357.91  157.95
   8  11  30  534.12   74.07
   8  11  33  624.49   85.45
   8  11  36 2057.28  226.02
   8  11  39 1829.64  301.59
   8  11  54    0.51   32.55
   8  11  63  119.03   70.18
   8  11  69  101.27   47.24
   8  11  72   55.82   79.94
   8  11  75  156.35   47.78
   8  12 -73   81.03   79.88
   8  12 -70   32.87   47.12
   8  12 -64  117.96   58.73
   8  12 -61   71.78   75.28
   8  12 -58   37.21   67.57
   8  12 -43  278.34  133.30
   8  12 -40  693.68   93.86
   8  12 -37   72.98   46.44
   8  12 -28 3938.59  242.31
   8  12 -25  406.15   60.46
   8  12 -22  302.99  103.59
   8  12 -19 2709.78  152.42
   8  12 -13 7454.53  158.29
   8  12 -10 1005.85  141.64
   8  12  -7 6378.55  171.82
   8  12  -4  300.38  218.41
   8  12  -1    0.11   56.30
   8  12   2 1697.75  110.18
   8  12   5  457.01   96.30
   8  12   8 4675.66  143.76
   8  12  17  953.43  172.73
   8  12  23  231.71   76.52
   8  12  26  886.55  156.21
   8  12  32  187.68   70.64
   8  12  38  438.42  126.60
   8  12  41  353.75   99.85
   8  12  44  137.52   70.25
   8  12  47  710.94  196.12
   8  12  50  298.51  183.35
   8  12  56  368.88  204.62
   8  12  62  142.84  103.63
   8  12  71   23.65   42.10
   8  13 -62   49.34   67.51
   8  13 -59  332.30   81.91
   8  13 -50  360.69  131.62
   8  13 -38  306.67   85.67
   8  13 -32 1977.18  190.48
   8  13 -29  290.20   36.80
   8  13 -26  152.90   72.80
   8  13 -23 9986.26  421.99
   8  13 -20 1865.44  169.86
   8  13 -14 2465.58  181.50
   8  13 -11 3130.92  182.96
   8  13  -5  135.81   62.28
   8  13   1  965.04  101.41
   8  13   4 2003.96  134.13
   8  13   7  231.63   97.71
   8  13  1011991.70  196.52
   8  13  13  421.76   89.73
   8  13  1610522.73  230.97
   8  13  22 2248.90  166.49
   8  13  28  168.90   85.82
   8  13  34 1283.96  189.42
   8  13  40 1121.55  184.10
   8  13  43 1170.92  241.41
   8  13  46  251.46   93.94
   8  13  49  113.19  105.82
   8  13  58    6.19   70.17
   8  13  61  366.61   73.26
   8  13  73   57.77   41.40
   8  14 -72   53.21   94.88
   8  14 -69  311.81   60.15
   8  14 -66  104.20   61.91
   8  14 -54  276.43   94.80
   8  14 -51  310.69   53.29
   8  14 -45  260.72   81.90
   8  14 -42  157.99   84.41
   8  14 -39   93.67   80.58
   8  14 -33  232.39   39.68
   8  14 -30  107.19   67.23
   8  14 -27   93.19   65.17
   8  14 -24 7950.94  306.74
   8  14 -21 5998.84  260.78
   8  14 -18 1716.78  258.83
   8  14 -15 1138.31   78.73
   8  14 -12 6415.00  298.22
   8  14  -9 1684.83  103.15
   8  14  -6 9703.36  286.24
   8  14   0 1627.00   84.29
   8  14   314893.01  295.50
   8  14   9 1617.43   85.65
   8  14  12    4.75   50.43
   8  14  1515588.12  271.10
   8  14  18 6121.89  233.99
   8  14  21  655.47   71.62
   8  14  24  553.31   67.08
   8  14  27  667.99  166.96
   8  14  30  141.74   44.42
   8  14  36  865.75  128.78
   8  14  39  171.28   81.80
   8  14  42  958.00  314.34
   8  14  48   79.93   99.43
   8  14  51  918.05  195.05
   8  14  60   84.82   71.44
   8  14  63   28.35   48.18
   8  14  66   85.62   52.97
   8  14  72   46.96   45.30
   8  15 -73   41.67   56.38
   8  15 -70   26.13   76.20
   8  15 -64    0.23  117.51
   8  15 -61  203.72   93.04
   8  15 -52  230.99   61.02
   8  15 -46  252.91   58.85
   8  15 -43  363.42   67.65
   8  15 -28 5095.49  274.47
   8  15 -25 2896.79  205.95
   8  15 -19  346.11   65.56
   8  15 -16 6998.80  386.00
   8  15 -13 8168.89  300.67
   8  15 -10 5435.15  129.11
   8  15  -7 5925.25  265.92
   8  15  -421633.57  382.62
   8  15  -113453.03  283.12
   8  15   2 3063.35   65.21
   8  15   5 4846.05  191.67
   8  15   8 2936.67  171.27
   8  15  11 3031.86  206.02
   8  15  14 8284.68  250.68
   8  15  20  302.24   26.63
   8  15  26  683.95   64.92
   8  15  29  491.61   75.78
   8  15  44  418.32  131.97
   8  15  47  388.26  133.52
   8  15  50  389.82  148.80
   8  15  56   37.46   64.94
   8  16 -71    4.09   55.42
   8  16 -59   32.99   70.54
   8  16 -56   38.79   66.40
   8  16 -32  438.76  120.94
   8  16 -23  193.51   90.23
   8  16 -20 2925.72  229.58
   8  16 -14  587.66   76.58
   8  16 -11 6322.62  144.46
   8  16  -8  204.46   73.04
   8  16  -5  193.37   82.83
   8  16   4 1545.04  111.25
   8  16   7 2595.36  187.79
   8  16  10 3331.98  201.02
   8  16  13 3301.81  107.07
   8  16  16 4392.16  174.50
   8  16  22  102.26   62.85
   8  16  25  253.72   48.42
   8  16  28  299.01   94.34
   8  16  31  487.40   95.11
   8  16  34  727.15  336.98
   8  16  37  613.58  153.43
   8  16  46  111.15  170.08
   8  16  49   47.46  100.51
   8  16  52  402.20  108.03
   8  17 -54   47.61   68.09
   8  17 -48  328.35   89.11
   8  17 -45   84.53   53.55
   8  17 -36 1142.86  105.39
   8  17 -33  352.91   72.78
   8  17 -27  324.27  102.59
   8  17 -18 1280.62  153.59
   8  17 -12  968.59  100.87
   8  17  -9 6914.02  249.69
   8  17  -6 1841.69  109.93
   8  17  -3 1513.97  100.96
   8  17   0  542.32   81.74
   8  17   3  201.24   76.06
   8  17   9  308.16   43.80
   8  17  15  762.04   89.75
   8  17  18  144.12   65.76
   8  17  21   63.36   31.85
   8  17  45  997.74  292.26
   8  17  48  177.96   98.66
   8  17  51  258.65   80.73
   8  17  54  323.72   87.76
   8  17  57  480.93   80.44
   8  17  60  307.42  120.28
   8  17  63   19.81   64.96
   8  17  66  110.86   53.60
   8  18 -55  278.74   74.70
   8  18 -46  337.44   69.05
   8  18 -43   99.80   49.05
   8  18 -40   24.24   44.84
   8  18 -34  121.67   84.20
   8  18 -31  234.00   77.61
   8  18 -25 2751.96  374.55
   8  18 -19  636.32  131.46
   8  18 -16  836.51  121.55
   8  18 -10 1226.10  140.53
   8  18  -7  378.22   52.60
   8  18  -4  286.19   61.59
   8  18   2 1561.97  144.60
   8  18   5 3294.41  239.20
   8  18  11 1610.84  135.30
   8  18  14  627.25   53.63
   8  18  17  986.54  110.36
   8  18  20 2149.01  182.29
   8  18  23 2078.29  157.85
   8  18  26  184.67   70.71
   8  18  32  410.62  125.92
   8  18  38   91.70  157.56
   8  18  44   74.93  124.69
   8  18  47  121.16   60.46
   8  18  50  493.82  168.06
   8  18  53   98.59   54.63
   8  18  56   18.92   69.74
   8  18  65   12.32   51.89
   8  19 -59   53.70   61.50
   8  19 -41  960.43  119.09
   8  19 -38  104.48   54.71
   8  19 -35  142.17   77.51
   8  19 -32  249.73  155.48
   8  19 -29   15.53   79.70
   8  19 -23  530.47  147.75
   8  19 -20  775.54   74.91
   8  19 -14 1434.95   93.66
   8  19  -5 1660.13  100.47
   8  19  -2 5217.10  280.19
   8  19   7 4633.43  130.15
   8  19  13 1953.75  137.67
   8  19  16  424.26   70.76
   8  19  22  829.86   86.31
   8  19  25  482.95  115.71
   8  19  28  554.08   60.02
   8  19  31  442.73  115.15
   8  19  34  739.47  126.19
   8  19  43  465.01  120.44
   8  19  46   73.92   71.45
   8  19  49  130.38  107.54
   8  19  52   24.66   75.32
   8  19  55  117.83  120.66
   8  19  58    0.37   65.24
   8  19  67    5.87   42.83
   8  20 -63   40.08   80.62
   8  20 -51  136.23   53.20
   8  20 -48   49.73   68.03
   8  20 -45  107.03   75.58
   8  20 -36    9.62   75.66
   8  20 -33   96.89   97.95
   8  20 -30 1380.43  140.90
   8  20 -27  222.98   48.37
   8  20 -21 1424.12  180.55
   8  20 -18  652.40  101.42
   8  20 -12  730.50   89.06
   8  20  -9  231.66   61.71
   8  20  -6 5045.23  239.53
   8  20  -3 2292.93  208.33
   8  20   3 2827.38  206.08
   8  20   9 1517.23  123.09
   8  20  15 1314.15  104.26
   8  20  18 1272.78  144.34
   8  20  21 2584.55  196.11
   8  20  27  327.38   84.34
   8  20  30   65.73   69.72
   8  20  36  232.99  104.44
   8  20  45  226.61   60.66
   8  20  48  324.00   93.30
   8  20  54  116.52   67.94
   8  20  63  131.68   89.58
   8  21 -49  226.09   81.46
   8  21 -43   99.27   63.74
   8  21 -37   41.82   86.35
   8  21 -34   38.48   49.15
   8  21 -31  727.21  181.40
   8  21 -28   78.38   24.00
   8  21 -25  434.95   65.46
   8  21 -22 2086.90  197.15
   8  21 -19 1656.24  186.71
   8  21 -16   44.88   28.23
   8  21 -13 2759.83  237.58
   8  21  -7  976.06  100.71
   8  21  -1  388.76  116.93
   8  21   5 3466.64  327.29
   8  21  11    4.78   52.18
   8  21  14  538.98   34.90
   8  21  17  903.54   78.92
   8  21  29  111.46  123.25
   8  21  32  192.89   70.19
   8  21  35  401.96  146.95
   8  21  38   29.14   64.10
   8  21  47  106.91   65.29
   8  21  56    9.36   86.06
   8  21  59  367.97   83.13
   8  21  62   37.87  105.41
   8  21  65  157.35   68.69
   8  22 -65    0.41   92.15
   8  22 -50  150.18   54.47
   8  22 -38  100.45   90.69
   8  22 -29  165.15   59.49
   8  22 -26  202.05   80.28
   8  22 -11  730.94   80.39
   8  22  -8   88.35   46.32
   8  22  -5  159.04   30.73
   8  22  -2  113.95   71.93
   8  22   1  918.14   67.01
   8  22  10 1733.00  127.87
   8  22  13  453.13   50.04
   8  22  16  595.40   95.45
   8  22  22  313.73   95.32
   8  22  25  498.97   88.09
   8  22  28  715.92   82.73
   8  22  34   80.26   59.37
   8  22  43  127.25   59.38
   8  22  55    0.03   77.96
   8  23 -63   59.70  118.80
   8  23 -57   85.34  118.48
   8  23 -54    1.73   69.62
   8  23 -39  244.62  195.94
   8  23 -30  121.29   57.01
   8  23 -27  120.65   53.46
   8  23 -21    0.24   96.13
   8  23 -18  636.43  128.26
   8  23 -15  318.38  102.93
   8  23 -12  613.32   73.99
   8  23  -9   13.72   31.03
   8  23  -6  384.94   71.54
   8  23  -3  203.79   79.39
   8  23   0 1075.92   90.60
   8  23   3 3074.51  263.79
   8  23   6  208.07   65.63
   8  23   9 1973.25  113.75
   8  23  12 1378.23  126.32
   8  23  18 1029.37  115.07
   8  23  24  189.00   49.90
   8  23  27  143.37   52.25
   8  23  33  275.98   69.02
   8  23  36  286.11   72.17
   8  23  39  287.30   91.79
   8  23  48   14.73   99.27
   8  23  54  283.54  120.09
   8  24 -58   47.40   73.61
   8  24 -52  175.02   88.31
   8  24 -40   27.14  110.21
   8  24 -34  123.31  128.62
   8  24 -25  689.70   76.35
   8  24 -22  419.40   78.94
   8  24 -19   72.15   62.35
   8  24 -16  128.60   65.14
   8  24 -13  736.15   74.76
   8  24 -10 1264.25   86.44
   8  24  -7  756.48  181.06
   8  24  -4  955.04  104.28
   8  24  -1 3366.30  244.28
   8  24   2 2392.65  217.09
   8  24   5  449.57   77.43
   8  24   8  919.66  106.14
   8  24  11  469.22   84.76
   8  24  14 1729.22  166.35
   8  24  20  425.51   85.95
   8  24  23   54.22   99.75
   8  24  29   53.58   70.82
   8  24  32  278.71   74.01
   8  24  35  412.17  116.57
   8  24  38   36.97   72.21
   8  24  44   53.95  106.06
   8  24  59  307.21  132.12
   8  25 -62   22.50   93.96
   8  25 -59   30.85   84.81
   8  25 -50  365.65  177.90
   8  25 -44   99.14  115.35
   8  25 -41  186.61   94.88
   8  25 -26  288.10  107.41
   8  25 -23 1544.92  184.50
   8  25 -20 1614.76  106.02
   8  25 -14  549.08   89.12
   8  25 -11 1623.06  267.72
   8  25  -5 3367.85  422.46
   8  25  -2 1191.77  155.55
   8  25   4 1622.15  143.47
   8  25   7 1292.49  145.19
   8  25  10  298.36   62.45
   8  25  13  290.99   52.77
   8  25  19  394.49   95.70
   8  25  22  114.87  134.77
   8  25  31  452.99   71.18
   8  25  34  447.53   77.70
   8  25  40   84.90   59.82
   8  25  46  110.57   98.75
   8  25  49   70.93   67.06
   8  25  52   94.57   84.25
   8  26 -57    1.45  152.91
   8  26 -33  171.63  100.15
   8  26 -21   59.63   52.50
   8  26 -15 1445.66  147.26
   8  26  -9  158.21   98.29
   8  26  -6  487.53   96.24
   8  26   3  696.69   72.96
   8  26   6  431.95  129.73
   8  26   9  209.03  100.12
   8  26  12 1119.06  114.80
   8  26  15  150.61   71.73
   8  26  18  870.16  117.24
   8  26  21  131.94   75.41
   8  26  30   90.81   46.30
   8  26  36    0.73   67.87
   8  26  39   45.34   61.57
   8  26  42  103.75   74.72
   8  26  54  139.50   69.44
   8  26  57  116.94   67.15
   8  26  60   90.43   74.33
   8  27 -58   43.47  126.50
   8  27 -49  125.29  110.96
   8  27 -46   91.43   79.84
   8  27 -34   38.95   95.89
   8  27 -16  819.35  114.65
   8  27 -10  307.11   69.23
   8  27  -7  681.72   74.58
   8  27  -1   23.67   69.71
   8  27  14  143.90   51.06
   8  27  29   40.02   54.63
   8  27  35  216.76   79.14
   8  27  38   20.44   97.70
   8  28 -47    7.93   62.21
   8  28 -44    0.12  100.23
   8  28 -41   19.34   93.42
   8  28 -26  141.34  111.92
   8  28 -20   43.55   96.35
   8  28 -14  907.02  158.54
   8  28 -11  163.81  185.07
   8  28  -8  175.70  121.05
   8  28  -5  244.43  101.59
   8  28  -2  240.61   89.54
   8  28   7  566.72  153.12
   8  28  10  508.75  184.00
   8  28  13  111.57   74.37
   8  28  16  421.68  136.03
   8  28  19  472.65  161.98
   8  28  22 1595.49  199.25
   8  28  43   35.60  139.58
   8  28  52  221.17   75.85
   8  28  55    1.73   80.55
   8  29 -18  264.41   96.93
   8  29 -15  106.72  125.91
   8  29 -12  157.67  121.10
   8  29  -9  482.49   84.64
   8  29  -3   58.25   87.30
   8  29   0   71.45   84.48
   8  29   3  163.23  101.92
   8  29   9   13.58   63.26
   8  29  15  412.34  190.91
   8  29  21  100.87  127.76
   8  29  24  151.62  143.94
   8  29  27  148.95  129.53
   8  29  33  615.83  163.26
   8  29  39   80.04  118.93
   8  29  48   33.51   77.88
   8  29  54    2.38  118.03
   8  30 -31   75.31  154.57
   8  30 -25  246.34  122.63
   8  30 -19    0.10   89.46
   8  30 -10   93.55  104.13
   8  30  -7  646.52   88.88
   8  30  -1  119.48   75.70
   8  30   5   83.87  102.77
   8  30  17  283.12  134.92
   8  30  23  371.76  124.44
   8  30  29   79.74   89.09
   8  30  32  265.90  121.77
   8  30  38  401.88  163.94
   8  30  41  194.76  117.59
   8  30  47  130.86  174.77
   8  31 -38  138.79  110.82
   8  31 -29  200.86  217.15
   8  31 -26    4.66   67.67
   8  31 -17  135.28  135.40
   8  31 -14  326.08   80.26
   8  31 -11  211.52  126.09
   8  31  -8  103.65   84.31
   8  31  -5  227.34  101.31
   8  31  -2  344.80  123.74
   8  31   7  250.59   93.30
   8  31  13  542.53  105.05
   8  31  31  143.08  113.41
   8  31  34  705.37   98.72
   8  31  37  207.72  113.94
   8  31  40  353.13  104.75
   8  32 -39  160.76  170.06
   8  32 -33    3.59  247.54
   8  32 -27   84.07  119.84
   8  32 -24    0.52  125.79
   8  32 -18 1022.55  184.66
   8  32 -15  807.36  209.13
   8  32  -9   76.13   82.93
   8  32   6   40.46   76.39
   8  32   9   52.31   58.75
   8  32  15   15.82  100.67
   8  32  21  430.99  116.82
   8  32  42  311.55  182.46
   8  33 -43   18.43   83.58
   8  33 -37  282.66  169.65
   8  33 -28  321.07  159.58
   8  33 -19   81.47  185.23
   8  33 -16  454.58  105.39
   8  33  -4    3.76   80.20
   8  33  -1  131.07  104.24
   8  33   2   98.33   73.63
   8  33   8   88.46   60.19
   8  33  11  316.74   81.35
   8  33  17   36.28  106.27
   8  33  23  446.82  240.17
   8  33  29  132.00  154.00
   8  33  38  116.40  111.86
   8  34 -26  175.64   99.01
   8  34  -5  113.16  166.19
   8  34   4   51.12  126.86
   8  34  10  281.78  130.34
   8  34  22  177.38  109.18
   8  34  28    7.96  106.23
   8  34  31   41.59  142.04
   8  34  34  163.22  112.64
   8  34  37  209.38  107.73
   8  34  43  157.01  139.28
   8  35 -36   53.94  208.02
   8  35 -33  389.50  146.83
   8  35 -30  279.39  167.18
   8  35 -27  114.70  100.50
   8  35 -18  280.91  157.52
   8  35  -6  134.15  104.49
   8  35  -3  540.80  107.86
   8  35   0    6.96   74.32
   8  35   3  113.69  117.61
   8  35   6   61.54  108.03
   8  35  33  326.56  114.56
   8  36 -34   74.67  208.14
   8  36 -28  381.22  219.71
   8  36 -25   59.38  139.13
   8  36 -22  475.55  181.42
   8  36 -19  159.54  166.20
   8  36 -13  146.19  124.42
   8  36  -7   10.91   87.25
   8  36   5  134.46  104.04
   8  36  11  450.02  129.05
   8  36  14  880.65  137.20
   8  36  17  315.77   91.48
   8  36  20  130.82  103.34
   8  36  26  404.47  133.15
   8  36  29  616.07   84.08
   8  37 -29  225.97  166.27
   8  37 -26   18.63  178.89
   8  37  -8   80.41  117.48
   8  37   7  481.18  152.80
   8  37  13  390.16  274.60
   8  37  19   87.55  119.78
   8  37  25   22.57   86.80
   8  37  28    9.97   98.18
   8  38   9    0.69   86.63
   8  38  15   16.27   49.04
   8  39 -22    4.27  211.91
   8  39 -13  383.38  188.05
   8  39 -10  140.69  110.65
   8  39  -4  177.59   79.89
   8  39   2  104.53  139.58
   8  39  14   10.64  100.98
   8  39  26  103.21   99.00
   8  40 -20   14.41  143.60
   8  40 -17   91.87  291.26
   8  40 -14  102.24  114.56
   8  40   4   77.56   84.90
   8  40  19  233.45   57.98
   8  41   0   84.26  159.49
   8  41   6  113.22   61.48
   9   1 -79    0.16   50.13
   9   1 -73   80.52   53.21
   9   1 -67  654.25  117.26
   9   1 -61   70.70   45.37
   9   1 -52  427.78   77.20
   9   1 -46  142.00   60.15
   9   1 -43   36.58   89.39
   9   1 -40 1332.59  135.04
   9   1 -37 1815.27  125.34
   9   1 -34 1110.75  168.00
   9   1 -31 8631.34  399.98
   9   1 -2822880.76  838.34
   9   1 -25 2629.60  362.10
   9   1 -2292526.10 1352.88
   9   1 -19 1371.76  137.73
   9   1 -16 6698.82  113.03
   9   1 -10198579.6  851.64
   9   1  -7270661.6 2819.62
   9   1  -440093.65  174.87
   9   1  -1 6228.03  183.49
   9   1   244358.14  344.53
   9   1   5129111.6 1274.42
   9   1   821166.20  340.15
   9   1  1124811.04  289.81
   9   1  14  240.78   43.51
   9   1  20 2236.53   93.55
   9   1  23  342.57   99.38
   9   1  26 3165.10  327.79
   9   1  29  188.74   88.49
   9   1  3219862.75 1029.30
   9   1  35 1681.56  119.07
   9   1  38   18.11   61.80
   9   1  44 3095.43  301.89
   9   1  50  884.99  272.12
   9   1  56   15.98   48.57
   9   1  59  683.08  147.01
   9   1  71   21.31   48.32
   9   1  74  116.19   59.98
   9   2 -74  142.66   53.60
   9   2 -71   52.63   42.44
   9   2 -62   11.15   40.04
   9   2 -56  221.72   72.36
   9   2 -53   68.74   57.47
   9   2 -50  273.39   83.33
   9   2 -47   84.40   90.50
   9   2 -44   23.80   43.71
   9   2 -38  563.52  121.32
   9   2 -35 1161.99  180.42
   9   2 -32  734.94  143.18
   9   2 -29 1867.66  322.40
   9   2 -2616327.85  394.12
   9   2 -23 4802.89  235.66
   9   2 -2035682.86  765.93
   9   2 -17 4922.51  292.09
   9   2 -1425356.18  487.43
   9   2 -1173547.70  900.80
   9   2  -8448891.6 5285.52
   9   2  -598013.62  848.76
   9   2  -215595.81  506.24
   9   2   1   30.44  133.04
   9   2   4 2456.49   40.77
   9   2   752023.36  306.33
   9   2  10 2979.04  288.60
   9   2  13 2542.02   77.31
   9   2  16   84.29   76.38
   9   2  19  767.92   46.76
   9   2  22  243.58   75.81
   9   2  25  423.00   63.28
   9   2  2815723.84  223.05
   9   2  31 2415.10  340.47
   9   2  34  485.73   48.72
   9   2  40  461.43  101.17
   9   2  49  496.35  105.68
   9   2  52  413.36   62.29
   9   2  64   29.09   54.52
   9   2  67   84.17   62.48
   9   2  73  103.71   51.05
   9   2  76   98.06   66.46
   9   3 -75  263.46   70.04
   9   3 -72    4.01   44.49
   9   3 -69   16.64   54.62
   9   3 -66  253.92   51.45
   9   3 -60  232.74  113.50
   9   3 -57  453.98   67.10
   9   3 -51  398.78   68.30
   9   3 -48  176.44   50.70
   9   3 -42 2193.25  193.72
   9   3 -39  717.10   93.77
   9   3 -3316265.26  404.60
   9   3 -27 2710.90  415.76
   9   3 -24 1317.96  197.78
   9   3 -2118147.99  553.12
   9   3 -15  901.92  147.08
   9   3 -12 8289.94  239.52
   9   3  -961287.64  941.96
   9   3  -6372567.0 1293.46
   9   3  -353316.28  890.95
   9   3   0 7833.58  212.52
   9   3   3 8775.45  153.48
   9   3   6 3416.89  258.07
   9   3   9  143.94  127.29
   9   3  12  104.93   94.59
   9   3  18 3150.39  126.41
   9   3  2116347.36  231.04
   9   3  24 1335.67   36.89
   9   3  27  476.78   74.52
   9   3  30  479.34  104.85
   9   3  36  872.06   91.18
   9   3  39 7517.74 1070.11
   9   3  42  699.13  123.00
   9   3  45  592.21  108.79
   9   3  48  341.86  150.44
   9   3  57  255.07   37.82
   9   3  69   62.52   48.67
   9   3  78  104.91   43.80
   9   4 -76   21.90   39.41
   9   4 -55   19.86   66.54
   9   4 -52   28.09   62.57
   9   4 -49  165.08   53.38
   9   4 -43 1805.16  174.00
   9   4 -37 2435.89  183.81
   9   4 -31  107.68  163.48
   9   4 -19 7032.25  152.72
   9   4 -16  826.04   42.15
   9   4 -13 6884.92  203.63
   9   4 -1021789.47  339.42
   9   4  -781773.53  623.53
   9   4  -422303.86  221.03
   9   4  -116563.21  116.93
   9   4   2 4621.28   69.02
   9   4   5 1404.95   54.65
   9   4   8 4403.96  118.40
   9   4  11  986.84   27.09
   9   4  14 5065.06   96.14
   9   4  17 2888.25  131.88
   9   4  20 7425.24  157.40
   9   4  23 3201.21  139.16
   9   4  26 1021.21  212.03
   9   4  29 2523.90  168.93
   9   4  35 7306.28  456.77
   9   4  38 2778.45  250.68
   9   4  41 1558.80  130.69
   9   4  47  255.82   55.80
   9   4  53  201.49   98.39
   9   4  56  191.52   88.75
   9   4  62  187.75   44.16
   9   4  71  199.29   62.26
   9   5 -77   39.64  104.87
   9   5 -68   35.20   85.12
   9   5 -62  448.25   69.62
   9   5 -53  212.49   94.06
   9   5 -50  148.37   64.62
   9   5 -44   49.08   47.03
   9   5 -41  478.45   54.97
   9   5 -38  699.18  148.98
   9   5 -32 3711.18  190.57
   9   5 -29 1543.10  147.52
   9   5 -26 2270.94   78.67
   9   5 -2310887.49  265.78
   9   5 -20 2962.29   54.70
   9   5 -17   45.78   99.18
   9   5 -14  186.14   37.19
   9   5 -1122690.38  294.59
   9   5  -8  906.63   38.78
   9   5  -5 4281.09  134.30
   9   5  -2  957.53   66.81
   9   5   125524.24  229.84
   9   5   4 7073.77   83.27
   9   5   7 3230.23  120.99
   9   5  10  163.43  106.18
   9   5  13  798.23   23.09
   9   5  16  366.10   45.71
   9   5  19 1991.82  159.39
   9   5  22  728.20   57.58
   9   5  2810256.58  409.66
   9   5  31 9434.31  340.35
   9   5  37   60.27  100.67
   9   5  40 1708.36  190.81
   9   5  43  375.28  104.50
   9   5  46  438.93  146.88
   9   5  49  303.84   92.02
   9   5  55  223.72   65.42
   9   5  58  570.67   61.15
   9   5  61  112.88   65.55
   9   5  64   12.90   68.73
   9   6 -72   11.40   49.01
   9   6 -69   35.81   55.75
   9   6 -66  331.99   65.94
   9   6 -63  676.89   62.05
   9   6 -60   43.98   65.27
   9   6 -51  383.82   94.76
   9   6 -48  366.32  177.95
   9   6 -42  265.62   74.71
   9   6 -39   10.83   32.78
   9   6 -36  898.22  101.48
   9   6 -30    1.01   35.35
   9   6 -27 2335.73   62.95
   9   6 -24    9.01   92.17
   9   6 -21 7761.76  223.50
   9   6 -1811440.59  260.15
   9   6 -1520299.50  248.50
   9   6 -12 4652.56  110.51
   9   6  -9  230.54   37.97
   9   6  -6 2732.19   79.96
   9   6  -3 4412.56  101.89
   9   6   0  160.04   23.57
   9   6   3  496.33   91.38
   9   6   6  569.22   24.68
   9   6   912828.10  138.90
   9   6  1217200.88  201.61
   9   6  15 2411.78   70.47
   9   6  18 2374.61   65.25
   9   6  21  436.67  130.81
   9   6  24 1334.98  333.65
   9   6  27  535.07  140.97
   9   6  30 7165.39  448.57
   9   6  33 2417.54  104.13
   9   6  36   20.31   74.06
   9   6  39 1827.41  198.99
   9   6  42 1098.81  151.37
   9   6  45   90.83   78.41
   9   6  48   10.88   86.03
   9   6  51  150.45   72.83
   9   6  60   57.24   46.42
   9   6  66   85.79   92.02
   9   6  69   26.87   65.67
   9   6  75    1.30   62.48
   9   6  78   31.39   79.01
   9   7 -76    3.91   68.35
   9   7 -58  333.07   86.17
   9   7 -55  117.03   58.75
   9   7 -34  340.63   65.19
   9   7 -31  477.91   97.01
   9   7 -2820650.57  403.58
   9   7 -25 4106.19  165.00
   9   7 -22 5790.83  276.05
   9   7 -19    8.60  120.71
   9   7 -1610275.14  181.16
   9   7 -1349094.10 1067.74
   9   7 -10 8704.56  116.24
   9   7  -7  622.81  183.87
   9   7  -416120.86  173.04
   9   7  -113596.22  107.01
   9   7   2 2724.65   56.02
   9   7   5 1682.19  100.28
   9   7   8  442.60   62.25
   9   7  11   73.92   38.74
   9   7  14  634.69  128.26
   9   7  17 1787.29  102.90
   9   7  26  290.21   63.67
   9   7  29 2808.99  233.48
   9   7  38 1980.20  175.67
   9   7  41  217.91   85.46
   9   7  44  769.39   61.40
   9   7  59   41.38   45.76
   9   7  62  162.26   49.94
   9   7  68   76.07   82.38
   9   7  71  217.85   74.09
   9   7  77  114.61   50.24
   9   8 -77  106.91   70.47
   9   8 -71   52.59   82.09
   9   8 -65  225.89   63.27
   9   8 -62   46.73   59.11
   9   8 -53  218.81   49.31
   9   8 -47  361.45  111.53
   9   8 -41  653.82   97.98
   9   8 -38  871.73  141.20
   9   8 -35  211.31   65.54
   9   8 -32  600.60  103.16
   9   8 -29 2098.77   84.27
   9   8 -26 7914.79  240.89
   9   8 -2010430.53  312.01
   9   8 -17 1427.64  100.19
   9   8 -1414275.64  237.77
   9   8 -11 2410.74  182.29
   9   8  -5 3417.12  187.22
   9   8   1 2986.39  168.82
   9   8   4 1073.53   39.22
   9   8  10 1687.77  166.73
   9   8  13   37.96   52.56
   9   8  16 6457.31  319.92
   9   8  1919692.85  492.33
   9   8  22 3962.88  301.26
   9   8  25  339.36  116.47
   9   8  2811281.19  450.22
   9   8  31 5076.24  261.49
   9   8  43  349.95   53.49
   9   8  46 1321.39  183.14
   9   8  58    9.17   50.40
   9   8  61  159.60   44.50
   9   8  64   25.36   45.82
   9   8  73  203.29   78.36
   9   8  76  105.18   57.71
   9   9 -66   97.43   69.97
   9   9 -63  270.48   90.05
   9   9 -60  215.68   68.55
   9   9 -57   31.14   53.74
   9   9 -51   90.22   68.90
   9   9 -42   86.95   47.39
   9   9 -39 3353.99  454.36
   9   9 -36  743.86  102.17
   9   9 -30 4927.39  224.37
   9   9 -27  750.39   53.36
   9   9 -21 1078.17  120.96
   9   9 -15 8132.75  264.91
   9   9  -9  826.20   42.49
   9   9  -6 1497.40   35.90
   9   9  -3 1827.61   88.16
   9   9   0 1309.02   66.57
   9   9   3 2590.00   46.24
   9   9   6  169.50   23.06
   9   9   9 4162.43  158.79
   9   9  12 2755.89  201.83
   9   9  15  796.66   90.27
   9   9  18 4214.84  263.04
   9   9  21 1310.99  133.73
   9   9  24 3628.68  350.49
   9   9  30 1601.57   78.52
   9   9  36 1024.10  158.70
   9   9  39 3985.80  440.99
   9   9  48   65.46   55.03
   9   9  69  196.15   55.07
   9   9  75    3.75   62.18
   9  10 -76   37.56   43.62
   9  10 -70   70.72   89.23
   9  10 -64    4.06   64.09
   9  10 -61  111.36   72.58
   9  10 -46   38.62   51.55
   9  10 -43  583.06   67.24
   9  10 -40  484.88  198.66
   9  10 -31 2735.63  180.67
   9  10 -28 4608.19  345.14
   9  10 -19  689.53   97.05
   9  10 -16 5762.80  215.79
   9  10 -13 9403.65  255.41
   9  10 -1017916.17  514.88
   9  10  -7 3086.78  188.62
   9  10   2 9552.25  228.80
   9  10   8  450.01   57.28
   9  10  1115931.93  297.80
   9  10  14  640.30   55.11
   9  10  17  920.67  101.82
   9  10  23 2592.16  150.45
   9  10  29 2994.91  193.82
   9  10  32  930.93  164.38
   9  10  35  483.16  147.72
   9  10  38 2060.13  179.49
   9  10  41  569.92  178.78
   9  10  47   83.74   66.87
   9  10  50    9.03   69.72
   9  10  62   99.20   72.83
   9  10  71    9.61   53.62
   9  11 -71   17.83  109.08
   9  11 -62  100.34   54.00
   9  11 -59   99.70   67.25
   9  11 -56   16.45   56.70
   9  11 -50  577.43  137.53
   9  11 -44  233.14   90.08
   9  11 -41  346.69   64.40
   9  11 -38   82.31   33.35
   9  11 -35 1289.68  132.19
   9  11 -20   34.06  101.80
   9  11 -17 5530.93  204.46
   9  11 -14 1060.13   93.96
   9  11 -11 5253.93  257.87
   9  11  -5 9511.73  253.60
   9  11  -2  148.60   43.51
   9  11   1  357.11   29.27
   9  11   4  942.25   99.79
   9  11   7  385.40   73.39
   9  11  10 1186.59   62.60
   9  11  13 5131.66  171.92
   9  11  16 4845.55  225.95
   9  11  19 8075.32  230.52
   9  11  22  350.97   30.07
   9  11  28 1389.94  196.56
   9  11  31  834.80  136.32
   9  11  34  565.75  142.53
   9  11  37  349.20  143.36
   9  11  46  173.14  143.77
   9  11  49  128.81   95.22
   9  11  55   16.44   66.87
   9  11  61  108.81   48.20
   9  11  70    1.00   62.35
   9  11  73  179.05   97.53
   9  12 -72   94.11   44.51
   9  12 -69  239.90   64.80
   9  12 -66   38.56   44.16
   9  12 -60  261.83   91.13
   9  12 -39  514.53   75.47
   9  12 -36  229.71   55.08
   9  12 -33  233.47   83.41
   9  12 -30  471.11  102.19
   9  12 -27  491.53  139.27
   9  12 -21  860.63   82.69
   9  12 -15   25.73   36.00
   9  12 -12 1071.23   45.47
   9  12  -9   94.78  144.18
   9  12  -610046.07  212.13
   9  12  -3 8020.28  260.70
   9  12   0 3900.95  176.61
   9  12   3 2762.57  217.31
   9  12   6   16.48   78.18
   9  12   9 1934.91   76.45
   9  12  12   69.21   54.21
   9  12  15  757.92   96.77
   9  12  21  295.09   71.27
   9  12  24 1782.69  144.43
   9  12  30   88.11   91.34
   9  12  42   69.79   78.20
   9  12  57  159.69   74.55
   9  12  69   20.88   45.50
   9  13 -73  153.23   62.98
   9  13 -70  208.51   87.30
   9  13 -64   76.39   54.85
   9  13 -61  379.50   87.85
   9  13 -58  153.43  109.97
   9  13 -43 1078.49  172.92
   9  13 -40  323.38   83.11
   9  13 -37  107.84   73.54
   9  13 -34 2327.33  188.67
   9  13 -25 1857.29  145.26
   9  13 -22 1297.22  190.27
   9  13 -19  960.01  123.77
   9  13 -16 4323.34  206.33
   9  13 -13 1815.75   54.53
   9  13 -1013267.08  519.86
   9  13  -7  473.96  180.40
   9  13  -4 8457.65  163.28
   9  13  -1 3647.59  182.48
   9  13   2 1046.61  172.32
   9  13   510459.12  316.60
   9  13   8 9118.98  241.71
   9  13  1111928.69  228.87
   9  13  14 2593.30  103.46
   9  13  17 2217.94   69.14
   9  13  23 3713.84  194.89
   9  13  29  553.98   84.27
   9  13  32 2822.66  308.19
   9  13  35 3661.61  313.66
   9  13  41  272.62   86.71
   9  13  44  168.53   74.27
   9  13  47  218.48   76.95
   9  13  65  119.77   46.49
   9  13  74   28.96   80.72
   9  14 -68  113.78   77.76
   9  14 -56  102.13  106.94
   9  14 -41  164.16   63.89
   9  14 -38  167.53   97.32
   9  14 -35  123.85   57.99
   9  14 -32  844.55  132.53
   9  14 -26   30.77   80.89
   9  14 -23  316.75   45.46
   9  14 -20  841.27  173.35
   9  14 -17 7007.37  365.08
   9  14 -14 1258.05  167.35
   9  14  -816565.89  411.37
   9  14  -5 1279.99  157.84
   9  14  -2 9159.87  259.64
   9  14   1 2025.67  144.37
   9  14   410251.41  214.32
   9  14   714349.03  214.83
   9  14  1013028.89  220.79
   9  14  13  116.98   45.55
   9  14  16   61.25   54.82
   9  14  19 8362.66  234.52
   9  14  22  708.78   99.64
   9  14  25   98.09   37.88
   9  14  37  985.03  209.99
   9  14  40  618.03  245.49
   9  14  58    0.90   63.75
   9  14  61  278.67   69.09
   9  14  67  127.92   71.47
   9  14  70  209.38   46.23
   9  14  73   46.18   51.88
   9  15 -66   86.01   85.46
   9  15 -57   46.76   93.37
   9  15 -54   27.08   75.02
   9  15 -51   79.54   85.34
   9  15 -45  490.60  111.16
   9  15 -42   93.86   57.26
   9  15 -39  218.90   92.82
   9  15 -36  210.02   74.28
   9  15 -30   42.44   32.26
   9  15 -21  651.20  119.47
   9  15 -15  665.96   73.68
   9  15 -12 1217.03   96.66
   9  15  -6 7115.13  262.56
   9  15   0 5743.29  195.12
   9  15   3 8311.49  245.03
   9  15   618096.91  266.02
   9  15   9  874.75   65.25
   9  15  15 1367.21   90.77
   9  15  21  850.74   62.05
   9  15  39  605.33  171.70
   9  15  42    0.01   68.75
   9  15  45   15.84   66.22
   9  15  51 1200.34  206.51
   9  15  57  109.73   85.24
   9  15  72   50.61   56.81
   9  16 -70   78.94   56.07
   9  16 -64   96.76   79.93
   9  16 -61  239.93  115.30
   9  16 -55   87.99   72.30
   9  16 -49  173.84   61.78
   9  16 -43  158.85  115.00
   9  16 -40  635.32  118.48
   9  16 -22 2163.74  181.65
   9  16 -13  158.40   84.15
   9  16 -1011239.57  372.59
   9  16  -7 6038.78  242.34
   9  16  -4 3172.33  134.13
   9  16  -1  835.75   69.71
   9  16   2 9857.25  270.50
   9  16   5 2800.10  142.94
   9  16   8  600.52   73.33
   9  16  20  204.66   49.58
   9  16  23  176.00   42.41
   9  16  26   65.72   39.73
   9  16  29 1087.64  192.59
   9  16  32   98.56   73.79
   9  16  38  351.77   72.65
   9  16  44  352.94   96.77
   9  16  47  568.93  168.63
   9  16  53    3.23   56.99
   9  16  59   44.23   85.85
   9  17 -65   94.57   56.21
   9  17 -62   24.11   68.73
   9  17 -56  173.69   79.20
   9  17 -53  112.97   82.23
   9  17 -38  219.55   64.19
   9  17 -35  174.79   72.07
   9  17 -29   82.67   58.06
   9  17 -23 2116.09  176.81
   9  17 -20  302.94  113.33
   9  17 -14  673.87  130.95
   9  17 -11  188.12   53.24
   9  17  -5 5076.78  232.44
   9  17   1 1038.86   93.52
   9  17   4 1033.34   88.73
   9  17   7 3241.65  176.93
   9  17  10  102.50   47.55
   9  17  16 1419.52   38.48
   9  17  19  881.76   88.28
   9  17  22  349.03   58.50
   9  17  28  792.42  126.36
   9  17  43  224.28   90.88
   9  17  49  103.51   64.54
   9  17  55  157.47  116.41
   9  17  58  122.44   86.67
   9  17  64   65.16   81.42
   9  18 -69   81.61   89.82
   9  18 -66    9.08  104.30
   9  18 -63  121.61   76.23
   9  18 -54  177.79   75.32
   9  18 -51   24.81   61.21
   9  18 -48  198.64  102.48
   9  18 -42  122.18  117.95
   9  18 -39   83.29   98.15
   9  18 -36    0.02   66.05
   9  18 -33  135.11  107.57
   9  18 -30   26.44   59.65
   9  18 -24 1825.60  191.43
   9  18 -21 1562.60  121.11
   9  18 -18  197.14   42.15
   9  18 -12  452.78   66.28
   9  18  -6 4496.87  208.82
   9  18  -3 1673.64  119.83
   9  18   0  259.07   85.00
   9  18   3 8487.75  351.33
   9  18   6 2022.27  115.25
   9  18  12 5314.83  214.24
   9  18  15 1932.36  171.73
   9  18  18    0.31   37.99
   9  18  21    6.60   35.10
   9  18  24  772.83  165.05
   9  18  27 1669.71  210.44
   9  18  33  186.76   96.50
   9  18  39  372.68  102.72
   9  18  45    0.68   82.15
   9  18  48  110.19   98.22
   9  18  51  486.43   85.39
   9  18  54  101.23   84.72
   9  18  60    4.62   63.08
   9  19 -67   50.06  117.22
   9  19 -61  313.87   99.20
   9  19 -58    1.76   59.19
   9  19 -55  107.81   53.23
   9  19 -49   30.18   62.59
   9  19 -46   75.92   72.82
   9  19 -40   84.30   89.20
   9  19 -28  152.93   67.08
   9  19 -25  669.49   76.71
   9  19 -22  209.32   44.49
   9  19 -19  839.92  134.68
   9  19 -16 3991.85  341.74
   9  19 -13  352.51   67.46
   9  19 -10 2657.32   78.57
   9  19  -7  318.14   38.69
   9  19  -1 5715.52  284.37
   9  19   2 3357.19  154.96
   9  19   5 1214.45  158.64
   9  19   8  276.20   52.75
   9  19  1111833.47  534.39
   9  19  14 1188.75  103.55
   9  19  17  719.00   80.33
   9  19  20  542.11   50.17
   9  19  23  235.50   37.66
   9  19  29  354.13   61.55
   9  19  32  312.03   63.41
   9  19  38  571.86  161.08
   9  19  44   62.88   46.54
   9  19  50  392.81   74.94
   9  19  65    0.58   55.07
   9  20 -65   59.63  130.23
   9  20 -47  137.74   72.24
   9  20 -35  105.00   90.50
   9  20 -26  278.95  129.79
   9  20 -23  136.27   44.28
   9  20 -20 1728.85  165.40
   9  20 -17  323.79   90.18
   9  20 -14  161.95   44.44
   9  20 -11 5206.93  308.78
   9  20  -8 3252.10  276.44
   9  20  -5  509.42   67.83
   9  20  -2 1142.41   91.03
   9  20   1 1560.02  107.48
   9  20   4  673.77   82.87
   9  20   712912.23  764.94
   9  20  10 1924.21  121.94
   9  20  13 3187.63  185.12
   9  20  16  112.53   53.04
   9  20  19  320.04   55.38
   9  20  28  282.22   99.28
   9  20  31  841.28  125.14
   9  20  40  370.65   85.17
   9  20  46  137.44   84.65
   9  20  49  667.60   83.97
   9  20  55   95.67   97.19
   9  20  61   30.86   80.03
   9  20  67   79.65   70.60
   9  21 -54   39.09  101.89
   9  21 -42   42.71   70.86
   9  21 -27   94.50   50.72
   9  21 -21  307.17   66.76
   9  21 -15 2830.32  175.48
   9  21 -12 4057.46  240.54
   9  21  -9  228.01   42.65
   9  21  -3 2079.17  179.87
   9  21   0  675.53  144.09
   9  21   3   43.18  103.62
   9  21   6  382.80   30.81
   9  21  12  354.32   56.92
   9  21  18  222.12   47.95
   9  21  21  381.18   49.46
   9  21  27 1096.75  231.34
   9  21  36   54.43  106.43
   9  21  60   36.69   88.78
   9  22 -49   54.19   67.65
   9  22 -37   57.07   83.00
   9  22 -28  164.03   66.53
   9  22 -22  101.46   61.20
   9  22 -19  239.02   89.52
   9  22 -16  666.32   80.67
   9  22 -13  574.94  127.55
   9  22   8  192.37   46.50
   9  22  17  533.75   62.95
   9  22  20  273.46   96.46
   9  22  23   56.72   41.44
   9  22  26  204.73   92.65
   9  22  32  828.04  164.34
   9  22  41  193.95   54.86
   9  22  62   90.71  181.53
   9  22  65    5.34  161.64
   9  23 -50  142.77   70.02
   9  23 -23  335.91   97.52
   9  23 -17 1195.92  172.12
   9  23 -14 3905.31  439.63
   9  23 -11 2929.59  228.30
   9  23  -8  334.78  111.41
   9  23  -5  189.32   58.95
   9  23  -2  485.25  115.95
   9  23   1  152.85  127.48
   9  23   4  202.72  113.04
   9  23  10 1852.91  140.53
   9  23  13  342.68   53.80
   9  23  16  169.49   44.01
   9  23  28  614.23  116.09
   9  23  31  553.49   93.88
   9  23  34  158.39   86.50
   9  23  37  124.32   92.13
   9  23  43  229.73   83.05
   9  23  61  130.60  121.96
   9  24 -57   71.94   81.00
   9  24 -48  143.13   81.62
   9  24 -42   26.92   71.37
   9  24 -36   20.97   47.42
   9  24 -33  611.42  146.39
   9  24 -18   30.97   68.13
   9  24 -15   81.73   67.48
   9  24  -9 2683.97  207.10
   9  24  -6  181.78  111.99
   9  24   0 2044.04  193.77
   9  24   6  474.30  101.92
   9  24   9 1741.60  156.69
   9  24  12  818.88   79.25
   9  24  15   73.37   38.15
   9  24  18  212.31   51.98
   9  24  39   71.75   85.64
   9  24  45  156.70   58.07
   9  24  54   20.41  131.38
   9  24  57   55.52   77.43
   9  25 -58    6.62   88.79
   9  25 -55   18.35   99.45
   9  25 -52   11.28   98.02
   9  25 -49   97.57   51.28
   9  25 -46   29.30   93.05
   9  25 -34  595.19  116.98
   9  25 -31  137.73  105.39
   9  25 -28  193.27  129.22
   9  25 -25  161.41   55.57
   9  25 -22   54.27   75.30
   9  25 -19    1.66   61.35
   9  25 -16   31.44  101.53
   9  25 -13  385.62  131.57
   9  25 -10  713.57  192.01
   9  25  -7  127.72   60.61
   9  25  -4  393.08   73.73
   9  25   2    8.61   67.31
   9  25   8   11.03   45.66
   9  25  11 1009.27  118.36
   9  25  23  212.10   86.49
   9  25  35  165.02   79.24
   9  25  38   47.99   74.35
   9  25  41  236.18  101.46
   9  25  47   51.33   67.58
   9  25  50   87.56  125.57
   9  25  53   27.88  100.28
   9  25  56  362.93  106.09
   9  26 -59  181.42  163.73
   9  26 -56  333.86  122.42
   9  26 -53  195.56   95.71
   9  26 -41   99.44  106.73
   9  26 -32  590.21  105.68
   9  26 -29    3.30   67.50
   9  26 -26   91.03   68.89
   9  26 -20   92.48   93.87
   9  26 -17  569.82   67.79
   9  26 -14  413.14   60.69
   9  26 -11  677.44   86.72
   9  26  -8  502.57  261.38
   9  26  -5 1686.57  150.82
   9  26  -2  115.53   72.02
   9  26   4  509.46   94.68
   9  26   7 1095.86  135.94
   9  26  10 1672.13  227.76
   9  26  28  897.68  107.22
   9  26  31  691.82  152.10
   9  26  34  728.64  110.16
   9  26  37  644.27  130.39
   9  26  40  208.17   77.47
   9  26  43  106.22   87.09
   9  27 -45  150.08  132.23
   9  27 -39  347.98  101.53
   9  27 -30   73.33   67.94
   9  27 -21  114.85   81.94
   9  27 -12  213.57  162.13
   9  27  -9  175.06   99.28
   9  27  -6  237.50   63.45
   9  27  -3  396.63  104.06
   9  27   0  779.89  149.57
   9  27  21  318.27   76.44
   9  27  27  437.96  113.29
   9  27  33  935.95  134.92
   9  27  39    0.66   65.10
   9  27  42  176.88   73.35
   9  27  51  128.04  108.37
   9  28 -46   90.06  104.40
   9  28 -43  186.20  109.45
   9  28 -37  185.51  121.87
   9  28 -31   53.81   67.84
   9  28 -13   47.50   95.63
   9  28 -10  949.24  168.06
   9  28  -4  606.93  154.11
   9  28  11   89.06   76.18
   9  28  14  180.57   70.39
   9  28  17  935.27  260.79
   9  28  20  317.53   82.51
   9  28  41   62.93  125.86
   9  28  44  184.00   95.55
   9  28  53   37.93   72.46
   9  29 -47  244.42   93.71
   9  29 -38   15.92  324.64
   9  29 -29  175.20  133.06
   9  29 -26   63.88  104.20
   9  29 -11  166.62  100.03
   9  29  -5   31.23  101.55
   9  29  -2  127.96   70.76
   9  29   7    4.24   97.91
   9  29  13   69.81   93.97
   9  29  16  289.34  131.78
   9  29  19  569.39  153.46
   9  29  22  133.81  106.67
   9  29  25 1119.28  197.46
   9  30 -51  334.62  172.77
   9  30 -45  799.43  180.79
   9  30 -21    0.55  113.25
   9  30 -15  658.79  120.24
   9  30 -12  162.96  146.03
   9  30  -9  145.50   79.01
   9  30  -6    1.04  130.13
   9  30  -3   92.49  128.29
   9  30  21  213.13   73.11
   9  30  24  272.37  150.17
   9  30  33   46.93  103.70
   9  30  39  136.28  108.74
   9  30  48    7.78   64.71
   9  31 -34  331.96  237.56
   9  31 -28  706.57  164.13
   9  31 -16  114.66   96.82
   9  31 -10    3.81  109.33
   9  31  -4  706.36  136.16
   9  31  -1   78.52   97.12
   9  31   8  111.28  120.24
   9  31  11  424.06  133.76
   9  31  14  300.68  129.02
   9  31  20  483.84  173.66
   9  31  23  494.73  136.12
   9  31  26   72.09   90.15
   9  31  41  263.27  136.44
   9  31  47  163.30  124.70
   9  32 -17  441.14  171.04
   9  32 -14  189.03   81.46
   9  32 -11  136.27   90.56
   9  32  -8    4.72   62.23
   9  32  -5  264.17   96.64
   9  32  -2   88.87  103.34
   9  32   7   87.03   94.33
   9  32  31  112.24  146.68
   9  32  37   37.80   79.64
   9  33 -33   74.44  179.57
   9  33 -18   28.97  111.63
   9  33 -15  866.21  160.60
   9  33  -3  118.63   91.69
   9  33   0  824.09  194.77
   9  33   6  172.88   82.21
   9  33  12  169.91   82.47
   9  33  15  858.91  113.60
   9  33  21  135.27  132.09
   9  33  30  296.02   93.11
   9  33  36  176.64   89.88
   9  33  42  105.05  149.88
   9  34 -40   43.34   99.66
   9  34 -31  154.95  158.65
   9  34 -22  582.54  213.51
   9  34 -19  387.70  110.56
   9  34 -10   34.54  376.13
   9  34  -4  979.75  135.77
   9  34   2   97.07  108.99
   9  34  11  100.28   67.46
   9  34  17  171.04   97.28
   9  34  35  152.81   79.44
   9  35 -35  176.19  163.26
   9  35 -29  316.20  135.31
   9  35 -26  114.45  134.13
   9  35  -2  154.20  146.89
   9  35   7   13.88  114.22
   9  35  13  304.31   82.53
   9  35  16   46.08   83.65
   9  35  19  373.91  136.96
   9  36 -33  155.22  143.08
   9  36 -30   15.94  114.05
   9  36 -21  344.20  194.41
   9  36  -6  228.58  131.02
   9  36  12   43.94  111.80
   9  36  24  223.46  120.16
   9  36  33   42.74   56.83
   9  37 -19  102.41  110.11
   9  37 -16  329.55  195.33
   9  37   2   78.47  169.74
   9  37  14    7.78  102.36
   9  37  20  218.66  106.70
   9  37  26    0.54   87.03
   9  38 -26  188.75  238.62
   9  38  -2  233.68  108.01
   9  38  10  357.88   88.08
   9  38  16  130.17   94.31
   9  38  19   61.69  109.66
   9  38  22    0.69   66.68
   9  39  -3   26.28   89.60
   9  39   9  223.00  236.52
   9  39  21    9.96   67.31
   9  40  -1   37.92  186.70
   9  40  11  177.28  292.92
  10   1 -78   48.70   69.93
  10   1 -75    7.79   48.09
  10   1 -66    0.74   82.82
  10   1 -54  447.63   85.68
  10   1 -48    6.46   47.03
  10   1 -39 3097.88  187.88
  10   1 -36   28.71   40.55
  10   1 -24  139.53  100.68
  10   1 -21 4228.72   77.96
  10   1 -18    5.80  107.34
  10   1 -15 2111.81   55.80
  10   1 -12  273.66  135.13
  10   1  -9 4443.26  119.03
  10   1  -6 5637.25  268.13
  10   1  -3116393.3  866.66
  10   1   0 8449.22  260.83
  10   1   314599.33  227.72
  10   1   610625.61  293.32
  10   1   9 1142.17  135.32
  10   1  15 4038.20  124.22
  10   1  18 4570.12   96.60
  10   1  21 6536.79  183.44
  10   1  24 1480.18  221.68
  10   1  27  637.46   87.44
  10   1  30  446.29  116.38
  10   1  33 1124.33   73.33
  10   1  36  647.61   71.90
  10   1  39   25.24   75.71
  10   1  42  929.93  135.38
  10   1  45 1243.99  121.66
  10   1  57  327.95   83.21
  10   1  63   54.11   49.73
  10   1  75   39.95   78.32
  10   2 -79   12.52   47.35
  10   2 -76   14.10   88.37
  10   2 -73   10.60   50.11
  10   2 -55  205.39   53.09
  10   2 -49  204.70   85.27
  10   2 -43  149.64   69.70
  10   2 -40   66.52   73.77
  10   2 -34  225.78   69.39
  10   2 -31   69.08   54.99
  10   2 -28  366.96   45.80
  10   2 -25 9474.96  384.55
  10   2 -22  867.28   80.12
  10   2 -16  855.98  162.18
  10   2 -13   26.79   46.26
  10   2 -10 2701.52  225.10
  10   2  -725276.79 2082.23
  10   2  -475695.71  219.02
  10   2  -114402.68   36.39
  10   2   2 1495.54  124.94
  10   2   514384.67  533.12
  10   2   8 2371.47   84.26
  10   2  11 6956.36  170.84
  10   2  17 1198.15   27.48
  10   2  20  140.11   83.46
  10   2  23 1131.45   54.92
  10   2  2610197.56  198.81
  10   2  29  155.03  106.20
  10   2  32 3557.28  243.97
  10   2  3510397.90  331.54
  10   2  38   84.33   32.88
  10   2  41  783.32  120.01
  10   2  50  433.45  107.98
  10   2  53 1025.67  128.37
  10   2  56  173.49   81.65
  10   2  62   94.74   74.23
  10   2  71   13.62   74.56
  10   3 -77   45.98   67.63
  10   3 -68   19.51   67.37
  10   3 -65  283.00  132.24
  10   3 -62  228.69   89.56
  10   3 -56   18.16   61.67
  10   3 -53  140.61   70.81
  10   3 -47  109.50   60.02
  10   3 -38  155.10   76.04
  10   3 -35 3134.80  231.09
  10   3 -29 5941.03  215.81
  10   3 -26 1405.05  102.56
  10   3 -23 4563.50  248.35
  10   3 -2012585.44  375.06
  10   3 -1418390.46  299.18
  10   3 -11 2731.51   91.66
  10   3  -5 6635.00  171.59
  10   3  -244503.14  429.30
  10   3   156911.60  496.40
  10   3   4   11.80   91.49
  10   3   7 3379.48  126.03
  10   3  10  911.44   29.90
  10   3  13 2277.75   60.03
  10   3  16 2396.18  145.87
  10   3  19 4677.73  153.30
  10   3  22  546.46  151.28
  10   3  25   84.88  182.59
  10   3  28 1212.25   93.44
  10   3  3143594.26 1034.38
  10   3  3417111.75  517.45
  10   3  40  497.55  169.11
  10   3  43 1472.60  223.32
  10   3  46 1289.63  147.23
  10   3  49 1684.21  238.81
  10   3  52  524.50   86.76
  10   3  55  183.74   93.41
  10   3  58  267.03   51.80
  10   3  61   17.10   58.72
  10   3  64   28.87   60.55
  10   4 -78   25.45   82.87
  10   4 -75   52.65   51.86
  10   4 -69   53.60   75.77
  10   4 -57  377.22   56.99
  10   4 -54  275.01   67.81
  10   4 -48  297.69  100.75
  10   4 -42  168.78   69.63
  10   4 -39    4.20   54.74
  10   4 -33    9.14  101.12
  10   4 -30  263.44  123.52
  10   4 -24 9769.64  429.87
  10   4 -21 1412.99  130.27
  10   4 -1812340.87  277.67
  10   4 -1212296.95  143.72
  10   4  -953367.32  253.56
  10   4  -614015.11   43.18
  10   4  -321884.66  279.85
  10   4   016275.12  167.67
  10   4   3 3399.90   58.75
  10   4   6  229.57   94.31
  10   4   9  292.32   39.83
  10   4  12  716.63   37.81
  10   4  15 1618.61  103.05
  10   4  18 5859.40  222.42
  10   4  21 4755.70  269.77
  10   4  24 1713.46  269.30
  10   4  27 1966.35  190.36
  10   4  3024245.70  690.29
  10   4  33 2355.42  164.57
  10   4  36 3308.88  265.41
  10   4  39 1741.03  191.07
  10   4  42 1776.87  220.41
  10   4  45  340.56   79.60
  10   4  48  897.36  123.60
  10   4  51  122.36   77.37
  10   4  54  276.99  109.12
  10   4  57    0.57   63.57
  10   4  60  240.09   77.48
  10   4  63   93.00   86.58
  10   4  66   39.77   92.25
  10   4  72    1.94   54.88
  10   4  78    2.08   55.97
  10   5 -76    1.09   52.71
  10   5 -73   24.42   79.64
  10   5 -70  147.31   79.98
  10   5 -67   38.88   64.03
  10   5 -52  178.57   74.45
  10   5 -49   39.48   44.03
  10   5 -43  117.87   53.12
  10   5 -40 1178.36  137.62
  10   5 -37   83.56   59.37
  10   5 -34  884.20  140.89
  10   5 -28 1178.50  134.56
  10   5 -25 2908.43  125.90
  10   5 -22  273.60  118.68
  10   5 -1913313.98  280.54
  10   5 -1619994.80  520.86
  10   5 -1023821.98  196.20
  10   5  -7   23.12   45.82
  10   5  -4 2922.27  112.06
  10   5  -114600.49  144.90
  10   5   2 9982.13  146.81
  10   5   5 1429.00  118.31
  10   5   8  513.69   26.16
  10   5  11 8744.74   90.30
  10   5  14   74.50   27.56
  10   5  17   15.66   34.85
  10   5  20 6878.87  198.70
  10   5  2316325.58  344.16
  10   5  26  870.43  130.76
  10   5  29 2519.94  177.52
  10   5  41  205.33   73.54
  10   5  44 1005.56  196.36
  10   5  47  300.23  101.48
  10   5  53  317.60  107.04
  10   5  56   74.92  158.72
  10   5  59   45.40   70.07
  10   5  74   13.05   71.11
  10   6 -41  619.36   95.98
  10   6 -38 1895.89  154.49
  10   6 -35 1404.19  151.75
  10   6 -29  166.26   63.32
  10   6 -26 2430.35  284.80
  10   6 -2312843.71  301.29
  10   6 -2022222.81  270.01
  10   6 -1769182.16 1366.27
  10   6 -1416990.81   96.32
  10   6 -1118091.09  187.85
  10   6  -8 1127.91   81.42
  10   6  -217042.79  139.29
  10   6   1  102.96   38.87
  10   6   4   53.27   37.64
  10   6   7  108.58   29.82
  10   6  10 8125.31  181.14
  10   6  16 3231.58  123.24
  10   6  19   24.22   44.56
  10   6  22   14.08   70.26
  10   6  25 1734.76  145.96
  10   6  31  754.14  170.01
  10   6  34  842.13  194.28
  10   6  46   78.49   96.89
  10   6  58  203.65   57.67
  10   6  67   11.67   53.78
  10   6  70  132.14   38.97
  10   6  73   13.42   62.43
  10   6  76   42.23   51.84
  10   7 -75   30.63   70.31
  10   7 -69   94.55   64.99
  10   7 -57  245.76   53.41
  10   7 -54  126.91   52.57
  10   7 -51   60.34  139.31
  10   7 -48  104.74   56.46
  10   7 -45  102.84  155.64
  10   7 -33  984.34   92.46
  10   7 -30  626.24   94.22
  10   7 -27  117.68   38.03
  10   7 -24   23.37  114.41
  10   7 -21 1877.12  179.71
  10   7 -1518515.38  513.04
  10   7 -12 5261.30  438.09
  10   7  -9 9497.15  216.35
  10   7  -6  178.69   57.50
  10   7  -3 7984.53  128.03
  10   7   0 1426.77   90.20
  10   7   3 2408.30  104.35
  10   7   6  544.53   52.37
  10   7   9  483.38   57.89
  10   7  1214971.07  239.97
  10   7  15  333.58  143.51
  10   7  18  107.76   57.81
  10   7  21 1911.34   47.10
  10   7  2410212.57  399.37
  10   7  30 3501.21  316.40
  10   7  33 2933.71  220.77
  10   7  36 2300.26  268.60
  10   7  39 1816.14  218.63
  10   7  45  242.60  111.11
  10   7  48  549.30  230.49
  10   7  54  259.47   85.15
  10   7  57   15.71   43.97
  10   7  63  193.80   57.11
  10   7  66  209.59   56.83
  10   7  72  132.66   47.29
  10   8 -70   62.15  120.77
  10   8 -49  147.94   55.81
  10   8 -37  550.69  119.24
  10   8 -34 2199.96  238.77
  10   8 -31 1830.10   84.47
  10   8 -28 2104.96  135.56
  10   8 -25  704.25   83.22
  10   8 -22 7030.17  260.67
  10   8 -13  410.34   35.89
  10   8 -10   11.17   46.17
  10   8  -1 7603.68  168.25
  10   8   2 2537.13  147.53
  10   8   5 1323.12   35.15
  10   8   8 8785.84  163.69
  10   8  11 2259.81  164.77
  10   8  14 4168.71  172.45
  10   8  20 7218.30  302.27
  10   8  23 1723.22  203.34
  10   8  26 8908.20  366.61
  10   8  29 1140.77   65.27
  10   8  35 5487.57  453.17
  10   8  44  832.17  166.11
  10   8  47  868.89  142.47
  10   8  53   85.94   70.49
  10   8  56  608.22   54.04
  10   8  62  276.82   75.91
  10   8  71  146.70   52.92
  10   9 -68   51.67   70.25
  10   9 -59   15.42   57.38
  10   9 -56  266.02   72.04
  10   9 -47  149.38   62.80
  10   9 -26 1510.85  152.35
  10   9 -23 7707.27  256.62
  10   9 -2010884.83  361.66
  10   9 -17 7252.87  327.02
  10   9 -14 9758.76  269.19
  10   9 -11 5839.87  317.93
  10   9  -8 2138.52  171.28
  10   9  -5 6124.19  183.85
  10   9  -2  318.27   38.21
  10   9   1 1352.79   60.07
  10   9   4 6398.42  204.19
  10   9   7 4842.86  145.82
  10   9  1016138.84  263.41
  10   9  13  553.14   57.14
  10   9  1610027.34  396.29
  10   9  19 4399.99  268.84
  10   9  22 1208.23   52.93
  10   9  28  420.34  111.84
  10   9  34 1018.58  174.31
  10   9  37  718.87  225.64
  10   9  40  625.77   66.65
  10   9  43 1266.63  234.73
  10   9  46  568.57   99.43
  10   9  52  262.42  210.47
  10   9  70  284.24   51.85
  10   9  76   35.15   53.13
  10  10 -75  122.15   78.96
  10  10 -72   83.68   50.06
  10  10 -66   28.69   71.53
  10  10 -63   42.68   70.72
  10  10 -54  498.37  128.00
  10  10 -45  710.37   80.28
  10  10 -42 2560.94  244.98
  10  10 -36  637.42  141.99
  10  10 -33 2222.97  209.71
  10  10 -30  549.35  114.39
  10  10 -27 5216.22  209.88
  10  10 -24 1658.18  170.25
  10  10 -21 1287.87  119.19
  10  10 -1523272.81  463.89
  10  10 -12 9168.67  267.31
  10  10  -946756.42  871.16
  10  10  -3  199.06   76.27
  10  10   0  992.40   64.58
  10  10   3 2435.60  186.22
  10  10   6 3545.99  108.17
  10  10   917181.34  289.45
  10  10  12   15.47   91.44
  10  10  15 4876.09  328.53
  10  10  18  376.93   66.68
  10  10  21 5023.81  253.73
  10  10  24 2408.45  260.68
  10  10  36 7490.83  694.63
  10  10  42 1187.68  220.52
  10  10  51 1044.30  185.46
  10  10  60   99.40  103.21
  10  11 -64   77.46   86.48
  10  11 -61   36.22   81.32
  10  11 -58   88.18   86.63
  10  11 -49  623.71   92.92
  10  11 -46  228.06   72.14
  10  11 -43  158.09   72.58
  10  11 -40 1130.37  123.80
  10  11 -37  513.45   93.75
  10  11 -34  872.92  137.51
  10  11 -31 1758.61  149.98
  10  11 -28  526.25   74.20
  10  11 -25  328.81  121.45
  10  11 -19 3523.63  324.74
  10  11 -16  181.23  111.39
  10  11 -13 1381.42   98.73
  10  11 -10 6842.00  408.33
  10  11  -722676.89  438.99
  10  11  -4 9635.17  149.97
  10  11  -1 1309.18  151.65
  10  11   2 7045.14  294.28
  10  11   5  601.16   74.91
  10  11   8 1717.58   37.94
  10  11  14  672.04   44.41
  10  11  17  130.19  130.59
  10  11  20  382.70   86.84
  10  11  23 2005.45  163.15
  10  11  26 1508.38  165.95
  10  11  32 2195.51  143.56
  10  11  41  283.41  257.00
  10  11  68  132.37   65.01
  10  12 -71   87.79   82.57
  10  12 -68  157.98   40.16
  10  12 -65  138.01   61.81
  10  12 -62   47.77   66.56
  10  12 -50  140.22   71.45
  10  12 -44  109.66   52.17
  10  12 -38  782.29  103.85
  10  12 -32    2.53   34.81
  10  12 -23   43.35   53.50
  10  12 -20  921.57   75.11
  10  12 -17  508.81   74.48
  10  12 -14  597.57   56.48
  10  12 -11  324.30  122.55
  10  12  -8  504.17  101.12
  10  12  -5  130.13   35.12
  10  12  -2 9508.29  245.33
  10  12   1 1808.61   50.70
  10  12   4  933.83  200.90
  10  12  10 2960.28  104.94
  10  12  13   10.49   58.18
  10  12  16  213.66   51.57
  10  12  19    6.65   52.96
  10  12  25   22.15   62.75
  10  12  28  342.73   56.62
  10  12  31  205.97   99.84
  10  12  37  155.04  104.56
  10  12  40   70.70  143.00
  10  12  52  783.75   96.68
  10  12  64   11.43   85.17
  10  12  70   47.05   71.50
  10  12  73   73.86   52.98
  10  13 -72  219.54   66.86
  10  13 -69   56.78   72.11
  10  13 -66  120.76   59.04
  10  13 -63  127.01   80.83
  10  13 -54  123.26   70.32
  10  13 -48    6.13   59.29
  10  13 -39  653.32   81.85
  10  13 -33  290.34   96.07
  10  13 -27  129.85   41.75
  10  13 -21 1939.68  136.52
  10  13 -18  864.05   94.39
  10  13 -15  341.96   37.29
  10  13 -1211935.13  413.06
  10  13  -9 3602.36  141.23
  10  13  -6 3154.65  202.14
  10  13   0   49.24   34.00
  10  13   3  984.24   95.23
  10  13   621419.73  238.83
  10  13   9 2264.28   90.66
  10  13  12  540.81   58.85
  10  13  1518717.01  341.71
  10  13  27  431.89  168.70
  10  13  30  404.95  105.41
  10  13  33 1215.11  202.78
  10  13  42  162.76  104.87
  10  13  45  461.40  128.87
  10  13  51   75.68  116.55
  10  13  54   38.05  131.50
  10  13  63   24.25   45.54
  10  13  66  308.46   60.51
  10  13  72  112.19   46.82
  10  14 -67   38.83   51.35
  10  14 -61   36.79   66.01
  10  14 -58  223.00   90.97
  10  14 -49  195.85   69.84
  10  14 -43  139.68   75.19
  10  14 -31 1687.86  148.75
  10  14 -28  491.19   64.48
  10  14 -22 1119.17   95.54
  10  14 -19 1545.44  176.80
  10  14 -16  398.18   50.68
  10  14 -13 1906.10  182.12
  10  14 -10 1668.67  141.61
  10  14  -7  976.66  156.44
  10  14  -414306.78  264.37
  10  14  -1   33.50   59.98
  10  14   8 4258.57  128.51
  10  14  11 1706.68   61.78
  10  14  14   92.40   34.03
  10  14  17  251.39   37.41
  10  14  20 3600.13  221.70
  10  14  23 3703.90  227.86
  10  14  29  179.44   63.46
  10  14  32 1015.89  156.57
  10  14  35  349.19   80.36
  10  14  38  108.11  105.56
  10  14  44  370.64  113.92
  10  14  47  317.59  150.14
  10  14  50   57.13   89.36
  10  14  53  537.72  157.15
  10  14  68   71.16   72.05
  10  15 -68   29.54   53.03
  10  15 -62  269.20  123.52
  10  15 -53  288.69  121.18
  10  15 -50  378.98  119.19
  10  15 -47  707.62   68.81
  10  15 -35 1488.31  140.05
  10  15 -32   70.87   55.35
  10  15 -29  147.18   72.37
  10  15 -26  959.43  119.92
  10  15 -23 1011.47  107.69
  10  15 -17 7123.15  324.16
  10  15 -11 1317.47  106.36
  10  15  -8 8039.25  286.91
  10  15  -5 3651.88  129.91
  10  15  -2  190.92   54.19
  10  15   1 5279.22  180.99
  10  15   7 1959.16  119.57
  10  15  10 1566.78   89.70
  10  15  13 3305.03  151.34
  10  15  16  578.74   48.49
  10  15  19 3219.35  161.15
  10  15  22  274.90   28.67
  10  15  25 2694.25  270.56
  10  15  28  984.12  225.86
  10  15  31 2406.67  273.37
  10  15  34 2347.98  236.34
  10  15  37  196.09   67.30
  10  15  43  647.68  118.82
  10  15  55  350.69  100.02
  10  15  61  528.32  101.98
  10  15  64   55.30   55.03
  10  15  70  301.47   49.48
  10  16 -69  142.20   62.47
  10  16 -57  227.95   57.23
  10  16 -54  170.18   70.82
  10  16 -51  104.69   92.93
  10  16 -45  196.37   52.87
  10  16 -39  751.16  121.58
  10  16 -36  625.38   53.99
  10  16 -33  351.06   84.34
  10  16 -30  178.73   87.80
  10  16 -24  147.61   49.63
  10  16 -21  392.59   92.65
  10  16 -18   24.92   30.66
  10  16  -9  109.99   63.94
  10  16  -6 1262.34   63.65
  10  16  -318476.67  344.55
  10  16   0 4679.54  239.97
  10  16   3 7870.00  254.60
  10  16   6 5297.69  230.91
  10  16   9  740.77   92.46
  10  16  12   18.18   50.96
  10  16  15  388.81  106.54
  10  16  18  263.42   62.98
  10  16  24  359.21   65.11
  10  16  27   91.90   85.95
  10  16  30 2389.47  256.54
  10  16  33  544.54  131.32
  10  16  36  201.21  100.90
  10  16  42 1131.01  166.38
  10  16  45  471.10  120.91
  10  16  57  626.38  106.12
  10  16  60   90.01  102.30
  10  17 -70   59.01  107.06
  10  17 -55  105.02  126.17
  10  17 -52   77.76   69.00
  10  17 -49    4.32   50.28
  10  17 -46   48.65   62.10
  10  17 -37  340.67   79.84
  10  17 -31  674.05  115.92
  10  17 -25  275.77   94.13
  10  17 -22 2901.92  253.14
  10  17 -13    0.02   34.58
  10  17  -7 4540.63  275.26
  10  17  -4 2959.46  158.08
  10  17  -1  189.60   62.95
  10  17   2  120.43   52.22
  10  17   8  994.19   76.49
  10  17  11  586.34   40.95
  10  17  14 3345.69  154.87
  10  17  17  253.90   56.04
  10  17  20   72.68   40.70
  10  17  23   60.70   46.31
  10  17  26  477.71   81.52
  10  17  32 1528.15  189.84
  10  17  35  412.27   93.88
  10  18 -68   24.41   95.21
  10  18 -65   73.10   74.25
  10  18 -62   66.88   76.99
  10  18 -59   67.53   80.09
  10  18 -44  260.61   83.14
  10  18 -41   57.72   82.15
  10  18 -38  282.44   66.96
  10  18 -35   97.23   57.09
  10  18 -23  685.25  117.77
  10  18 -20 1718.05  207.22
  10  18 -17  696.20   97.14
  10  18 -14 2730.49  251.10
  10  18 -11  773.60   42.90
  10  18  -5 2901.69  163.98
  10  18  -2  669.52   73.82
  10  18   4  736.53   58.81
  10  18  10 1078.18   76.39
  10  18  13  692.81  110.70
  10  18  16  640.15   72.02
  10  18  25  211.67   92.96
  10  18  28  395.03   62.03
  10  18  31  480.37   61.82
  10  18  37 1937.27  196.14
  10  18  46  149.75   98.01
  10  18  49   79.48  105.46
  10  18  67   67.34   61.25
  10  19 -60    4.75   89.44
  10  19 -51   58.10   87.27
  10  19 -45  107.69   46.54
  10  19 -42   93.13  131.15
  10  19 -33  152.12   51.53
  10  19 -27  241.28   59.78
  10  19 -24  357.41   68.00
  10  19 -21  569.41   86.17
  10  19 -18  452.39   46.45
  10  19 -12  181.59   28.62
  10  19  -6 1095.45   69.06
  10  19   3 1512.36   74.10
  10  19   6  535.34   78.30
  10  19   9  143.12   40.52
  10  19  15  133.53   35.69
  10  19  18   91.06   42.50
  10  19  21  889.22   75.82
  10  19  24  199.31   94.63
  10  19  30   85.69   64.39
  10  19  33  484.22  149.25
  10  19  39  327.40   87.05
  10  19  45  195.63   54.32
  10  19  48  847.18  244.07
  10  19  66  158.07   90.00
  10  20 -58   36.76  169.73
  10  20 -55  258.29   88.94
  10  20 -46  598.93  122.03
  10  20 -43   53.37   71.47
  10  20 -37    0.39   58.46
  10  20 -34  233.50   90.36
  10  20 -28  136.99   54.02
  10  20 -25  127.78   55.07
  10  20 -22   44.84   44.16
  10  20 -19  163.60   95.96
  10  20 -16  466.79   70.10
  10  20 -13  335.88  144.87
  10  20  -7 2222.73  213.31
  10  20  -4   10.36   22.91
  10  20  -1  484.11  179.88
  10  20   2 1520.19  163.66
  10  20   5 2215.21  207.08
  10  20   8   26.36   55.86
  10  20  11  266.93   42.40
  10  20  14  595.71   58.10
  10  20  20    9.80   31.22
  10  20  23  499.55   83.26
  10  20  26   47.47   59.38
  10  20  35  245.26  138.90
  10  20  38  506.92   91.66
  10  20  59   34.30  113.48
  10  21 -59  191.73   95.32
  10  21 -53  188.77   59.67
  10  21 -44   26.40   68.36
  10  21 -32   59.02   49.48
  10  21 -26   47.31   59.85
  10  21 -20   86.12   75.27
  10  21 -11  279.06   67.73
  10  21  -8  657.42  124.50
  10  21  -5 2757.52  217.85
  10  21  -2  893.47  263.23
  10  21   1   82.75   57.37
  10  21   7 2437.53  207.43
  10  21  10 7093.80  440.35
  10  21  13 1118.80  120.18
  10  21  16   58.42   39.78
  10  21  19  800.66  126.30
  10  21  22  445.79   65.64
  10  21  25  138.38   83.59
  10  21  28   17.63   68.76
  10  21  31  246.15   76.67
  10  21  37  467.88   86.00
  10  21  40 1428.23  168.06
  10  21  43  287.85   97.73
  10  21  58   26.08   88.28
  10  21  61   67.47   78.40
  10  22 -60   37.37   80.19
  10  22 -57   67.16   60.21
  10  22 -51   28.48  156.75
  10  22 -48  190.76   71.57
  10  22 -45  294.51   86.29
  10  22 -36   17.58   45.79
  10  22 -33  215.80   40.59
  10  22 -24   60.20  112.06
  10  22 -21  361.97  134.89
  10  22 -15 1685.34  179.34
  10  22 -12 1354.06  164.19
  10  22  -9 3523.92  258.55
  10  22  -6   34.72   52.61
  10  22  -3 1858.46  128.82
  10  22   0 1848.13  229.10
  10  22   3 3816.25  224.76
  10  22   6    5.06   65.91
  10  22  12  854.11   93.16
  10  22  15  425.30   76.14
  10  22  18  116.24   49.70
  10  22  21   77.01   76.28
  10  22  24  249.49  120.93
  10  22  27   54.00  155.64
  10  22  36   39.67   52.81
  10  22  39  168.30   99.09
  10  22  48  239.81   96.43
  10  22  51   23.67   82.99
  10  22  57   31.14  101.18
  10  23 -61    6.25   92.38
  10  23 -55  179.64   77.51
  10  23 -31  224.44   99.53
  10  23 -22  333.69   86.85
  10  23 -19  239.73   67.44
  10  23 -13  507.17   56.83
  10  23  -7 3439.69  328.14
  10  23  -4 1115.95  104.77
  10  23  -1  924.31  150.71
  10  23   2  135.56   56.29
  10  23   5  671.13  107.74
  10  23   8  283.10   63.76
  10  23  11  202.00   58.55
  10  23  14   60.47   67.93
  10  23  20 2037.37  296.90
  10  23  32   52.41   58.15
  10  23  35   98.87   82.61
  10  23  38   99.22   74.01
  10  23  41   41.37   47.23
  10  23  47  343.52  108.56
  10  23  50  176.14   59.81
  10  23  62   15.39  123.07
  10  24 -50   62.67   70.89
  10  24 -38  168.56   85.60
  10  24 -29    7.04   76.40
  10  24 -23   28.64   72.32
  10  24 -20  393.81   56.26
  10  24 -17  237.64   76.88
  10  24 -11  126.41  102.42
  10  24  -8 1369.96  156.10
  10  24  -5 1418.15  133.54
  10  24  -2 2246.67  211.13
  10  24  10  219.51   49.97
  10  24  16  624.24   97.75
  10  24  31    0.62   43.04
  10  24  49   40.00   87.23
  10  24  61   86.45   92.09
  10  25 -51  469.25  136.26
  10  25 -42  101.22   90.72
  10  25 -36  110.63   58.98
  10  25 -33  675.10   98.28
  10  25 -27    0.36   44.19
  10  25 -24  348.84  106.97
  10  25 -21  297.83   73.17
  10  25 -18   98.47   67.79
  10  25 -15  295.45  166.56
  10  25   3  115.63   76.85
  10  25   6  509.32  107.93
  10  25  15  316.46   79.63
  10  25  18  365.17   93.22
  10  25  21    0.31   81.98
  10  25  27    4.19   76.26
  10  25  33  320.65   76.16
  10  25  36  125.48  104.64
  10  25  39   99.14   84.07
  10  25  54  209.56   85.99
  10  25  57   80.19   65.60
  10  25  60  153.01  232.28
  10  26 -55  217.76   74.89
  10  26 -49  448.79  155.70
  10  26 -46   60.05  119.03
  10  26 -43  206.94   68.33
  10  26 -37  535.81  137.38
  10  26 -34   28.79   52.40
  10  26 -31   99.44  133.36
  10  26 -22   18.87   59.33
  10  26 -19   55.11   76.42
  10  26 -13  153.27   82.38
  10  26  -7  524.10  125.24
  10  26  -4 2290.49  203.12
  10  26  -1  829.27  118.09
  10  26   2  379.34   75.84
  10  26   8  315.88  145.03
  10  26  17   12.69  112.42
  10  26  26  612.37  117.57
  10  26  29  147.93   55.54
  10  26  44  259.45   61.41
  10  26  47   88.92   83.40
  10  26  53    4.87   67.97
  10  27 -56   69.15  166.62
  10  27 -41    3.81  113.62
  10  27 -32  348.79   83.28
  10  27 -26    8.60   70.02
  10  27 -20   16.49   50.46
  10  27 -17  315.47   80.58
  10  27 -11  280.07  115.61
  10  27  -8  707.03  175.86
  10  27  -5  162.29   82.05
  10  27   1  287.00  178.68
  10  27   4  683.78   92.28
  10  27  10  586.09  105.98
  10  27  16   54.37   93.22
  10  27  19  399.23  164.85
  10  27  22  132.53   65.69
  10  27  25   49.12  104.96
  10  27  31  322.82  115.29
  10  27  52   85.58   76.20
  10  28 -48  224.60   88.27
  10  28 -39   13.89   74.99
  10  28 -33  438.44  130.01
  10  28 -30  278.92   94.54
  10  28 -12  305.26   72.01
  10  28  -6  266.69  164.56
  10  28  -3  256.00  127.55
  10  28   0  902.51  151.80
  10  28  18  363.82  155.63
  10  28  21  264.58  121.00
  10  28  24  113.20  132.18
  10  28  30  538.44  208.91
  10  28  33  250.85  121.14
  10  28  39   49.58  132.85
  10  29 -40   55.67   95.45
  10  29 -34   13.68  269.52
  10  29 -10  210.99  102.50
  10  29  -1  279.71   74.35
  10  29   5  133.79   62.53
  10  29   8  192.43   69.73
  10  29  11   35.82   50.93
  10  29  14  141.25  106.88
  10  29  20   74.37   90.59
  10  29  23  436.32  138.72
  10  29  29  329.03  111.87
  10  29  44  328.98   87.17
  10  29  47   46.88  102.15
  10  30 -50   61.81  120.66
  10  30 -35   52.85  333.70
  10  30 -32   61.89  134.11
  10  30 -20   60.19  106.07
  10  30 -17   49.29  152.09
  10  30 -14 1061.22  123.99
  10  30 -11  112.90  150.53
  10  30  -8   39.99   84.13
  10  30  10  265.12   62.47
  10  31 -33  470.09  164.57
  10  31 -24   33.49   97.28
  10  31 -21 1169.81  252.73
  10  31 -12   54.06   70.84
  10  31  -9   39.51   81.72
  10  31  -3  119.74   52.11
  10  31   0  443.06  100.70
  10  31  12  171.72   78.52
  10  31  27  268.79  151.82
  10  31  48   68.03   93.68
  10  32 -46   44.44  136.18
  10  32 -43   53.53  117.93
  10  32 -28  308.55  173.95
  10  32  -1   22.08   97.93
  10  32   8   15.63   76.15
  10  32  20   56.51   60.16
  10  32  38   48.16   97.97
  10  32  41  329.13  133.18
  10  33 -35  228.52  216.80
  10  33 -23  102.22  154.26
  10  33  -2  873.93  164.38
  10  33   1   36.34  151.01
  10  33   4  170.15   83.49
  10  33  19   26.47  134.23
  10  33  37   54.03  206.46
  10  33  40  494.46  273.57
  10  34 -36   75.32  364.05
  10  34 -21  110.34  160.56
  10  34 -12  375.45  204.69
  10  34  -9  108.29  246.59
  10  34  -6    2.96   93.44
  10  34  21   36.90  118.49
  10  34  36   35.67  160.05
  10  35 -28    4.65  167.04
  10  35 -22   46.91  179.90
  10  35 -16  274.60  102.11
  10  35 -10   41.04  195.05
  10  35   2   71.15  247.10
  10  35   5  108.84  101.38
  10  35   8   26.62  118.24
  10  35  23   80.54   69.22
  10  35  32  224.69  235.41
  10  36 -32   90.79  193.86
  10  36 -26   16.36  161.66
  10  36 -23   85.30  175.46
  10  36 -17  135.72  143.09
  10  36 -14  182.69  109.22
  10  36  -8    7.92  107.51
  10  36  -5   23.25  126.54
  10  36  -2  252.33  149.08
  10  36   7   38.48  135.28
  10  36  10  151.97  105.36
  10  36  22  112.30  115.05
  10  36  25  110.75  109.58
  10  36  31  107.03  148.58
  10  37 -27   30.28   99.42
  10  37 -24  586.58  340.28
  10  37 -21   13.74   89.90
  10  37 -15  382.15  225.19
  10  37  -9   64.58   81.22
  10  37   6    2.94   57.44
  10  37  18  221.33  195.10
  10  38  11  113.61  133.24
  10  38  17    9.07   52.54
  10  38  23   47.35  127.52
  10  39 -17  114.00  272.38
  10  39  -8   71.21   76.64
  10  39  -5   46.36   95.86
  10  40  -6  104.86  182.27
  11   1 -77   10.38   43.81
  11   1 -68   98.93   44.20
  11   1 -62  501.91   54.49
  11   1 -59  289.01   46.89
  11   1 -56  174.05   73.40
  11   1 -50   68.20   55.25
  11   1 -44  338.67  151.04
  11   1 -38  479.55   40.12
  11   1 -32 1495.10  105.65
  11   1 -29 3557.18  353.23
  11   1 -2615225.65  346.26
  11   1 -2350042.68 1123.27
  11   1 -2060740.05 1266.52
  11   1 -1765624.99  624.49
  11   1 -1110685.05  232.03
  11   1  -5 2708.11  345.48
  11   1   1 6517.87  276.39
  11   1   4 8461.84   24.70
  11   1  10 2243.44  212.23
  11   1  13  229.10   33.01
  11   1  16  131.55   52.40
  11   1  19  896.14   86.60
  11   1  22 3347.84  132.65
  11   1  25   59.13   78.29
  11   1  28 2022.65  144.19
  11   1  46  424.51   80.27
  11   1  49  891.18  136.52
  11   1  52  130.95   73.39
  11   1  58   61.76   59.16
  11   1  64  343.49   75.67
  11   1  73    0.31   49.92
  11   1  76  157.42   46.12
  11   2 -78   18.02   56.61
  11   2 -72   94.09   59.63
  11   2 -66   40.69   44.19
  11   2 -60   94.19   69.70
  11   2 -42  560.42   66.38
  11   2 -30 4383.18  350.35
  11   2 -24   25.64  107.50
  11   2 -15 9145.64  150.64
  11   2 -12 2204.03   83.28
  11   2  -9    0.75   57.06
  11   2  -6  449.85  154.35
  11   2  -3  787.85  126.17
  11   2   0  368.21   29.52
  11   2   3 2285.79   93.38
  11   2   6  234.24   51.04
  11   2   9   38.29   51.24
  11   2  1210432.34  136.15
  11   2  15   70.96   35.97
  11   2  18 3060.20   29.40
  11   2  21  893.69   70.34
  11   2  24 4746.91   74.14
  11   2  27 2687.74  142.45
  11   2  30 1548.25   93.65
  11   2  36  383.53   84.03
  11   2  39  251.88  141.78
  11   2  48  223.76  167.32
  11   2  51  303.70   58.97
  11   2  54  109.21   71.37
  11   2  57    5.99   60.21
  11   2  60  102.82   73.32
  11   2  75  103.18   91.05
  11   2  78   11.91   72.36
  11   3 -76    8.63   57.02
  11   3 -73    2.12   46.06
  11   3 -61  117.98   65.65
  11   3 -46  108.28   59.15
  11   3 -43  474.56   83.34
  11   3 -37  510.69   75.18
  11   3 -31 8688.21  355.81
  11   3 -28  331.44   89.82
  11   3 -25 6210.68  212.13
  11   3 -2281856.76 1136.93
  11   3 -1946951.03  647.44
  11   3 -1619769.02  609.23
  11   3 -1020193.06  210.67
  11   3  -719229.32  175.60
  11   3  -4  768.96   48.54
  11   3  -140872.27  769.69
  11   3   2 2714.11   46.42
  11   3   5 4434.33   68.57
  11   3   8  785.53   32.29
  11   3  11 2454.97  119.71
  11   3  14 6878.25  129.39
  11   3  20 2136.59  169.08
  11   3  23 1640.21   96.10
  11   3  26 3270.98  103.13
  11   3  38  995.95  103.33
  11   3  41  377.50  155.34
  11   3  47 2799.28  521.54
  11   3  56  100.66   50.18
  11   3  59  131.37   76.61
  11   3  68   58.27   76.98
  11   3  71   18.62   53.61
  11   3  74   29.76   67.91
  11   4 -77  113.73   49.91
  11   4 -74   19.85   78.41
  11   4 -68  168.92   56.33
  11   4 -62   48.68   64.98
  11   4 -59  236.16   60.76
  11   4 -56  218.42   84.20
  11   4 -53  459.42   78.04
  11   4 -47   74.41   71.98
  11   4 -41 1802.76  234.77
  11   4 -35   80.37   33.61
  11   4 -32 1724.24  163.13
  11   4 -29  392.83  163.64
  11   4 -26  291.92  214.68
  11   4 -2037456.21  436.34
  11   4 -14101453.8  923.89
  11   4 -11 2750.54   71.26
  11   4  -8  150.16  134.09
  11   4  -529305.46  321.95
  11   4  -217534.93  253.55
  11   4   115946.22  263.35
  11   4   4  249.79   64.55
  11   4   7 4159.89  125.26
  11   4  10 1306.91   94.03
  11   4  13 2194.61   69.47
  11   4  16 8658.24   97.89
  11   4  19 2677.77  172.83
  11   4  2213596.68  242.66
  11   4  25 3165.82  145.30
  11   4  28 6752.29  305.32
  11   4  3110017.26  323.34
  11   4  34  434.67   53.10
  11   4  37  652.81  151.64
  11   4  40 2621.00  242.40
  11   4  43  158.76  134.15
  11   4  46   58.22   63.57
  11   4  52  158.55   60.61
  11   4  55  101.96   78.11
  11   4  67  174.03   52.89
  11   4  70   82.40   98.57
  11   4  73    3.99   57.74
  11   5 -72  154.63   64.51
  11   5 -60  222.51   66.63
  11   5 -42  430.58   61.23
  11   5 -39 1054.91  125.51
  11   5 -27 3146.09  181.34
  11   5 -2432306.66  516.09
  11   5 -18 1110.23  169.78
  11   5 -15183705.4 3089.15
  11   5 -1212738.55  245.92
  11   5  -6 7053.98  177.27
  11   5  -3 1903.46  139.42
  11   5   0   19.97   91.55
  11   5   3  395.06   41.50
  11   5   610322.72  182.73
  11   5   9   85.89   23.98
  11   5  12 5700.29  259.26
  11   5  15 1949.33  167.53
  11   5  18 1564.06  148.87
  11   5  21 4481.18   65.03
  11   5  24  789.82  135.16
  11   5  2718848.87  609.18
  11   5  30  379.28   89.95
  11   5  33  195.15  157.30
  11   5  36 1275.48  116.22
  11   5  39 2830.83  270.83
  11   5  48  597.84  236.31
  11   5  51  275.04   77.19
  11   5  57   20.76   60.71
  11   5  60   50.79   85.30
  11   5  66  351.58   69.96
  11   5  69    0.97   57.30
  11   6 -70  403.84   87.55
  11   6 -64   34.15   72.98
  11   6 -61  131.80   60.75
  11   6 -37  738.42   52.25
  11   6 -34 1992.57  170.02
  11   6 -31 4888.43  303.45
  11   6 -25 2004.72  137.20
  11   6 -22 2904.59  200.69
  11   6 -19 3341.23  328.54
  11   6 -16 2130.86  128.48
  11   6 -13  589.27  113.46
  11   6 -10 8932.29  180.40
  11   6  -733014.74  368.38
  11   6  -4 4187.38  131.90
  11   6  -110074.37  180.38
  11   6   2   59.89   59.42
  11   6   5   53.80   20.75
  11   6   8 5577.62  122.36
  11   6  1115078.59  275.99
  11   6  14  810.91  107.48
  11   6  17  557.13   28.96
  11   6  2012266.24  231.99
  11   6  23    3.26   99.43
  11   6  29 7224.15  363.10
  11   6  32 6260.52  365.55
  11   6  35 9492.68  439.51
  11   6  44  750.77  170.22
  11   6  50  157.03   80.63
  11   6  53  444.21   96.02
  11   6  59   94.36   61.84
  11   6  65   52.63   52.78
  11   7 -74  121.95   68.44
  11   7 -68  123.57   56.89
  11   7 -65   25.42   65.74
  11   7 -50  189.63  101.44
  11   7 -47   57.88   54.84
  11   7 -41  100.29   61.99
  11   7 -35  618.75  106.24
  11   7 -26   81.18   45.64
  11   7 -1715321.78  402.45
  11   7 -14 5444.21  148.99
  11   7 -11   60.93   54.05
  11   7  -5  407.99   66.88
  11   7  -2  106.42   82.01
  11   7   1   13.84   50.76
  11   7   4  336.28   26.95
  11   7   7 6950.26  198.80
  11   7  13  153.62   36.84
  11   7  16  191.18   89.62
  11   7  19 5911.65  264.47
  11   7  22 2204.16   51.05
  11   7  31  681.58   78.41
  11   7  34  857.55  121.54
  11   7  40  858.12  134.47
  11   7  43  172.21   49.57
  11   7  46  907.09  166.22
  11   7  52  248.96  105.19
  11   7  58    4.22   72.88
  11   7  67   23.26   89.99
  11   7  73   13.34   70.14
  11   8 -75   12.74   84.74
  11   8 -66   52.34   43.99
  11   8 -60  183.22   80.48
  11   8 -51  291.24  104.44
  11   8 -48  233.41   73.86
  11   8 -45  142.18   46.35
  11   8 -42  877.03  170.09
  11   8 -39  717.45  219.40
  11   8 -36 1983.29  138.56
  11   8 -30  449.83   36.22
  11   8 -27 2702.53  192.36
  11   8 -21  887.82  243.73
  11   8 -1817001.77  317.85
  11   8 -1515400.56  257.69
  11   8 -1210598.34  306.62
  11   8  -912409.94  364.11
  11   8  -6 1266.25  108.09
  11   8  -3 3851.07  159.45
  11   8   0 9132.40  268.33
  11   8   3  535.53   69.65
  11   8   6  209.20   41.92
  11   8   9 7140.87  233.29
  11   8  15 6503.75  434.89
  11   8  18 2370.98  115.97
  11   8  21 1339.45   86.84
  11   8  33 1765.59  149.86
  11   8  36  550.29  105.39
  11   8  42  261.93   76.10
  11   8  48  563.52  149.67
  11   8  60  127.97   97.73
  11   8  63    4.25   67.06
  11   8  69   20.16   49.48
  11   8  75    3.75   55.66
  11   9 -58   30.06   48.41
  11   9 -49  470.35   81.36
  11   9 -46  740.94  107.87
  11   9 -40  507.38  202.87
  11   9 -37  381.96   95.61
  11   9 -34  222.50   67.53
  11   9 -31 1896.74  168.55
  11   9 -28 3092.62  171.15
  11   9 -1925801.10  517.21
  11   9 -16 6257.83  343.48
  11   9 -13  989.24   75.22
  11   9  -7 5029.09  351.89
  11   9  -4 6327.86  275.29
  11   9  -116680.06  399.64
  11   9   2  699.88   55.62
  11   9   5  371.42   40.76
  11   9   8 1610.00  164.48
  11   9  11 3107.07  126.17
  11   9  14 3451.30   25.79
  11   9  20 2102.53   85.74
  11   9  2317020.66  478.37
  11   9  29  715.64  100.94
  11   9  32 3411.84  303.64
  11   9  38 6068.42  538.05
  11   9  47  292.15   85.87
  11   9  65  115.02   80.53
  11   9  68   38.74   65.26
  11   9  71   58.32   64.96
  11  10 -74   21.11   87.70
  11  10 -68  110.73   84.94
  11  10 -62  430.04   96.84
  11  10 -59  213.13   81.35
  11  10 -53  295.04  116.12
  11  10 -47  189.46   59.14
  11  10 -44  895.22  144.50
  11  10 -41  115.40   51.41
  11  10 -35 1416.23  179.99
  11  10 -32 1587.54  161.04
  11  10 -29   13.37   99.87
  11  10 -2310993.96  347.63
  11  10 -17  680.87   78.21
  11  10 -11 6213.37  113.28
  11  10  -8 8538.40  240.36
  11  10  -526813.63  564.33
  11  10  -2  505.03   91.17
  11  10   1  109.80   40.97
  11  10   4   68.00   76.25
  11  10   7 3799.17  138.03
  11  10  10 8355.24  238.33
  11  10  13 4763.13  210.34
  11  10  16 2071.19   53.93
  11  10  19 2485.48  231.35
  11  10  22   61.91  188.25
  11  10  25 1764.47  119.68
  11  10  28  153.69   77.76
  11  10  31 2155.90  234.87
  11  10  34 2387.24  314.80
  11  10  37  391.93   80.55
  11  10  40 1645.33  273.12
  11  10  46  235.13   61.52
  11  10  49   56.21   65.07
  11  10  55  167.56  101.50
  11  10  64  172.39  172.60
  11  10  67  260.45   62.46
  11  11 -69  103.09   72.18
  11  11 -63  137.84   71.44
  11  11 -57  626.56  160.61
  11  11 -51  143.03   63.23
  11  11 -42   65.12   27.39
  11  11 -39  223.40   78.36
  11  11 -36   90.45   56.23
  11  11 -33  239.21   51.02
  11  11 -30  757.51   54.74
  11  11 -27 1775.02  188.15
  11  11 -24   72.07   83.67
  11  11 -21  468.12  145.68
  11  11 -18 1152.41  194.11
  11  11 -15 1626.27  145.88
  11  11 -12 2467.48   76.10
  11  11  -6  489.55  135.66
  11  11  -3 6188.55  204.26
  11  11   6 4800.81  160.18
  11  11   927683.23  275.21
  11  11  12 1412.81   77.34
  11  11  15 3421.66  171.05
  11  11  18 7202.64  291.05
  11  11  24  390.24   37.17
  11  11  27  643.86   69.14
  11  11  30  600.37   86.81
  11  11  33 2411.77  289.25
  11  11  39  343.31  106.37
  11  11  42 1065.93  150.27
  11  11  48  146.77   48.16
  11  11  54  105.18  100.29
  11  11  60  313.88   92.76
  11  11  63   27.91   89.78
  11  11  69   14.83   54.27
  11  12 -70   54.97   93.90
  11  12 -67  126.50   56.59
  11  12 -58   52.37   77.55
  11  12 -49  479.86  106.92
  11  12 -46    0.22   35.45
  11  12 -40  323.91   90.07
  11  12 -37  132.54   59.91
  11  12 -34  651.60   93.36
  11  12 -31   72.33   41.52
  11  12 -25 2553.11  180.50
  11  12 -22  959.78   99.79
  11  12 -16 1927.22   70.34
  11  12 -13 2020.48  107.43
  11  12 -10 1232.53   50.56
  11  12  -713537.74  295.96
  11  12  -412159.37  270.78
  11  12  -1 4135.62  260.38
  11  12   2 2066.06  146.80
  11  12   5 3369.78   95.99
  11  12  11  390.68  103.03
  11  12  14 9351.58  239.39
  11  12  20  277.33   98.65
  11  12  26 5884.74  462.06
  11  12  29 1110.31  292.12
  11  12  35  803.81  148.88
  11  12  38  121.58  118.71
  11  12  50   14.00   56.15
  11  12  53  439.47  108.85
  11  12  65   64.22   44.02
  11  12  68  214.93   75.52
  11  13 -71  251.71   86.30
  11  13 -65   50.12   56.37
  11  13 -53   67.25   58.92
  11  13 -44  392.64   77.93
  11  13 -41  672.38   89.67
  11  13 -29 1935.54  173.33
  11  13 -26  614.89  114.66
  11  13 -23  406.83   32.37
  11  13 -1110168.38  370.98
  11  13  -8 5733.89  239.24
  11  13  -5 3599.15  187.19
  11  13  -220091.76  336.04
  11  13   1 6255.73  218.49
  11  13   4  159.91   53.87
  11  13  10  369.91   38.68
  11  13  13 1136.25   48.50
  11  13  16  270.55   70.33
  11  13  22 3331.79  210.71
  11  13  28 1202.55  162.61
  11  13  31  415.41  106.01
  11  13  34    1.04  102.26
  11  13  37  199.16   72.14
  11  13  40   83.65   88.42
  11  13  46  113.23   93.38
  11  13  52  242.05  142.30
  11  13  58   16.98  117.61
  11  13  61   83.32   74.78
  11  13  67  219.25   44.85
  11  14 -51  239.30  103.40
  11  14 -36  169.48  119.54
  11  14 -33  339.61   70.98
  11  14 -30  179.77  107.37
  11  14 -27   97.96   88.56
  11  14 -24   54.09   33.92
  11  14 -21   82.06   49.41
  11  14 -15  311.77   61.60
  11  14  -9 4188.94  221.82
  11  14  -6  272.80  103.97
  11  14   3 1079.65  170.32
  11  14   9 4467.35  214.43
  11  14  12  224.20   34.75
  11  14  15  761.47   37.56
  11  14  18 1723.17  208.54
  11  14  21  160.95   48.37
  11  14  24 1305.08  251.42
  11  14  27    9.63   68.16
  11  14  30   36.15   60.41
  11  14  36   22.31   97.19
  11  14  42  158.07   57.07
  11  14  45  338.71  142.63
  11  14  48  176.77  114.86
  11  14  54  233.22   83.90
  11  14  60  435.53   75.32
  11  14  63   62.02   90.31
  11  14  69  113.66   67.45
  11  15 -67   32.05   55.16
  11  15 -64   31.85   53.03
  11  15 -58    1.67   71.85
  11  15 -55   23.30   64.41
  11  15 -49  193.81   93.48
  11  15 -46   83.49   61.11
  11  15 -37   91.09   96.93
  11  15 -31   81.87   40.36
  11  15 -19 1885.60  114.22
  11  15 -10 1556.89  116.83
  11  15  -7 1598.43   95.00
  11  15  -4  374.21   44.98
  11  15  -1 2408.32  142.05
  11  15   5 5309.48  233.88
  11  15   8  522.40   84.35
  11  15  11  810.15   42.25
  11  15  14 3127.72  133.21
  11  15  17 1518.27  137.77
  11  15  20  753.67   70.21
  11  15  26   77.19   62.18
  11  15  29  224.00   85.19
  11  15  41  516.91  177.81
  11  15  44  371.88   76.05
  11  15  56  378.06  104.34
  11  15  62   45.78   79.69
  11  15  68   77.88   52.68
  11  15  71  198.10   67.60
  11  16 -65    5.67   64.01
  11  16 -53  375.08   94.28
  11  16 -44  171.55   54.25
  11  16 -41   40.11   69.74
  11  16 -38   39.13   64.36
  11  16 -35  298.77   80.77
  11  16 -32  485.83   84.76
  11  16 -29  251.40   77.85
  11  16 -26 2160.20  185.44
  11  16 -17 2503.29  269.52
  11  16 -14  186.47   61.04
  11  16 -11  339.73   77.87
  11  16  -8 1015.24  104.14
  11  16  -5 4942.69  303.95
  11  16  -2   85.51   36.71
  11  16   1 5777.10  228.24
  11  16   4 3687.50  202.02
  11  16   7 2371.73  121.30
  11  16  10 2346.88  130.98
  11  16  13  819.84   91.42
  11  16  16  849.61   84.47
  11  16  19 3897.53  233.97
  11  16  22 2012.82  138.13
  11  16  25  308.92   73.97
  11  16  28   96.61   79.19
  11  16  34  463.22  138.86
  11  16  37    0.04   69.53
  11  16  40  117.01  105.56
  11  16  52  235.52  133.95
  11  16  55    0.02   89.73
  11  16  58   11.12   99.90
  11  16  64  132.55   98.46
  11  16  67  104.86   51.78
  11  16  70   60.60   75.82
  11  17 -60   65.12   69.70
  11  17 -51   61.43   76.06
  11  17 -48   51.23   89.24
  11  17 -45   80.76   56.96
  11  17 -42  282.71  106.33
  11  17 -39   92.24   61.26
  11  17 -36   46.83   48.92
  11  17 -33   18.75   81.44
  11  17 -30  884.67  116.73
  11  17 -27 1139.18  171.41
  11  17 -24 1142.76  190.25
  11  17 -18  122.85   43.06
  11  17 -15  702.82  142.12
  11  17 -12 2332.42  126.53
  11  17  -9  339.00  124.92
  11  17  -6 1222.57   98.21
  11  17  -3 5179.78  352.50
  11  17   0 6235.01  272.22
  11  17   3 1947.80  174.58
  11  17   9  168.38   36.09
  11  17  12 1002.65   96.62
  11  17  18  698.12   75.17
  11  17  24 1466.35  101.49
  11  17  27 1303.93   95.07
  11  17  30 1396.15  200.07
  11  17  42  285.74   97.34
  11  17  45  104.32   89.96
  11  17  66  248.40   80.66
  11  18 -61    0.65   93.38
  11  18 -58   54.24  110.31
  11  18 -52  344.53   82.34
  11  18 -49  103.75   56.87
  11  18 -46  100.67   83.38
  11  18 -43  106.93   52.46
  11  18 -40   62.32   45.08
  11  18 -37  715.99  114.23
  11  18 -31  213.15   81.36
  11  18 -25  399.39   83.54
  11  18 -22 1510.30  204.62
  11  18 -19  190.90   41.91
  11  18 -16  514.23  161.45
  11  18 -13  445.40   46.01
  11  18 -10  703.01  113.76
  11  18  -7  894.36   71.65
  11  18  -4  975.40   96.18
  11  18  -1  723.28   61.99
  11  18   2  332.10   40.03
  11  18   5  572.87   89.36
  11  18   8  137.80   36.75
  11  18  11  998.49  102.57
  11  18  14  423.80   33.86
  11  18  20 1077.24   62.07
  11  18  23  849.45  134.50
  11  18  32  168.99   78.83
  11  18  35 1427.87  176.86
  11  18  47  428.08  182.05
  11  18  53  247.11  133.63
  11  18  68   64.84   61.29
  11  19 -65  104.86   55.25
  11  19 -56    7.97   64.93
  11  19 -41   81.94   94.34
  11  19 -32  114.77   46.94
  11  19 -29  160.56   73.25
  11  19 -26   56.96  106.66
  11  19 -23  342.46   90.08
  11  19 -17  470.70   37.90
  11  19 -11 1105.15  184.06
  11  19  -5 2007.37  320.34
  11  19  -2  399.01   52.98
  11  19  10  136.94   30.60
  11  19  13   17.82   28.20
  11  19  16  780.43   84.01
  11  19  19   41.33   28.57
  11  19  22   77.03   47.46
  11  19  25  591.98   57.66
  11  19  31  783.41  114.47
  11  19  34  139.67   90.78
  11  19  40  107.16   79.41
  11  19  43    7.46  119.81
  11  19  49   63.81   96.61
  11  19  58   38.28   74.03
  11  19  67  204.04  235.67
  11  20 -60  252.86   80.80
  11  20 -57  259.95   68.79
  11  20 -48   75.02   65.76
  11  20 -45  218.69  100.95
  11  20 -36   25.83  139.29
  11  20 -27  121.44   77.27
  11  20 -24  584.97   95.65
  11  20 -21  542.82  171.96
  11  20 -18  191.33  103.39
  11  20 -15  210.17   79.39
  11  20 -12  998.98   73.41
  11  20  -9  891.80   86.80
  11  20  -6   10.00   27.48
  11  20  -3  180.13   52.29
  11  20   3  528.42   71.02
  11  20   6  936.15  271.52
  11  20  18  278.14   60.92
  11  20  21  979.80   97.42
  11  20  24  246.49   55.72
  11  20  27  457.06  152.48
  11  20  45  266.09  154.78
  11  20  48   85.65   99.73
  11  20  54   60.07   90.19
  11  20  57   67.20   99.55
  11  20  60  159.38  125.68
  11  21 -61  210.86  138.40
  11  21 -52   52.58   70.92
  11  21 -49  360.14   95.54
  11  21 -46  263.53  129.66
  11  21 -43   67.16   76.65
  11  21 -37  907.90   93.56
  11  21 -34  226.86   73.12
  11  21 -25  868.87  253.26
  11  21 -22  338.86   97.03
  11  21 -19 2173.87  228.56
  11  21 -16  274.13  105.74
  11  21 -13  172.68  116.11
  11  21 -10  160.89   70.68
  11  21  -1 3757.56  289.47
  11  21   5  670.61   89.36
  11  21   8 7308.00  405.39
  11  21  14  378.66   44.67
  11  21  17  523.97   79.57
  11  21  26   48.43   71.49
  11  21  29  399.74   96.79
  11  21  38  274.22  118.08
  11  21  44   88.47  114.75
  11  21  50  116.15  130.42
  11  21  53  136.77   96.20
  11  21  59  238.70  114.48
  11  21  62   12.14   88.01
  11  22 -62    2.55  116.33
  11  22 -53   29.96   75.38
  11  22 -35    0.71   37.64
  11  22 -29  443.23  107.89
  11  22 -26  207.11   54.14
  11  22 -20  236.25   61.30
  11  22 -14    4.83   65.70
  11  22 -11 1907.51  182.07
  11  22  -8  287.26   62.39
  11  22  -5 1078.04  112.13
  11  22  -2    0.08   26.72
  11  22   4  632.82  101.72
  11  22   7  759.35   64.90
  11  22  10 3171.47  235.27
  11  22  13  498.71   71.85
  11  22  16  327.22   99.89
  11  22  19  162.68   83.07
  11  22  25    9.07   99.48
  11  22  52   48.27  107.33
  11  23 -57   53.86  126.54
  11  23 -51  119.69   74.46
  11  23 -42   87.89  136.81
  11  23 -39   47.92   67.37
  11  23 -24  506.16   87.58
  11  23 -18  147.38   89.93
  11  23 -15  593.62  127.40
  11  23 -12  891.54  148.06
  11  23  -9   46.37   41.00
  11  23  -6  713.85  209.13
  11  23   0  144.55   82.65
  11  23   3 4152.42  904.46
  11  23   6  333.92  121.61
  11  23  15  283.24   79.70
  11  23  18  666.08  110.07
  11  23  30   83.86   79.46
  11  23  39   66.17   97.30
  11  23  45  728.43  165.02
  11  23  54  203.49   62.57
  11  23  60  140.29  119.82
  11  24 -58  130.80   65.98
  11  24 -43  387.30   63.76
  11  24 -40  447.13  138.52
  11  24 -31  141.80   84.21
  11  24 -19  193.17  115.62
  11  24 -16  617.05  130.22
  11  24 -13  134.69   53.09
  11  24 -10   80.81   76.95
  11  24  -7  153.73   69.68
  11  24   2  259.20   65.86
  11  24   5  311.84  100.09
  11  24  14  656.79  114.94
  11  24  23  133.61   97.35
  11  24  35   37.75   91.92
  11  24  50    0.71   61.29
  11  24  56  163.19   90.89
  11  25 -44  211.28  170.31
  11  25 -41  393.36  184.32
  11  25 -38  490.09  135.60
  11  25 -32  101.25   94.96
  11  25 -29   17.70   98.47
  11  25 -14  166.12   58.45
  11  25  -8  102.52   43.92
  11  25  -5  955.31  154.15
  11  25  -2  325.76   67.44
  11  25   1  103.51  114.79
  11  25   4  138.42   63.48
  11  25  10  185.82   75.13
  11  25  19  453.73  164.39
  11  25  22   41.54   66.74
  11  25  31  172.37  111.18
  11  25  40  115.56   82.73
  11  25  52   47.67   91.51
  11  26 -54   97.71  195.56
  11  26 -33  295.32  137.38
  11  26 -30  196.43   94.12
  11  26 -27  175.01  131.26
  11  26 -24   63.58   57.55
  11  26 -21  412.41  106.61
  11  26 -18  402.00   77.46
  11  26 -15  193.20  157.19
  11  26 -12  246.70   82.50
  11  26  -9   71.42   80.96
  11  26   0  163.25  129.17
  11  26   3   55.83   91.11
  11  26   6   25.66   73.04
  11  26   9  322.35  104.78
  11  26  12  320.20   63.76
  11  26  21 1602.88  162.35
  11  26  30  129.82   96.10
  11  26  33 1027.73  151.99
  11  27 -55    7.14   94.62
  11  27 -52  117.81  129.85
  11  27 -46  125.98  105.58
  11  27 -43  177.36  141.81
  11  27 -40  175.92  107.32
  11  27 -25  516.31  119.28
  11  27 -22  515.14  188.77
  11  27 -13  118.55  165.00
  11  27 -10    3.19  125.53
  11  27  -4  143.44  121.15
  11  27  -1  582.76   97.05
  11  27   2   88.45  125.93
  11  27   5    0.05   86.19
  11  27   8  484.79  118.37
  11  27  26  113.07   66.95
  11  28 -50   35.29  126.41
  11  28 -47   87.10   87.21
  11  28 -41    1.83   81.15
  11  28 -26  577.43  172.68
  11  28 -23  119.39  117.80
  11  28 -11  140.88  154.42
  11  28  -8  684.95  103.76
  11  28  -2  295.20  150.45
  11  28   1   35.82  112.45
  11  28   4  512.95  151.50
  11  28  10  210.11   93.23
  11  28  13  297.35  147.78
  11  28  31  254.64   93.13
  11  28  34  371.74   80.11
  11  28  37  147.35  116.49
  11  28  40  190.67  156.12
  11  28  43  157.30  112.44
  11  28  46  113.56   81.73
  11  29 -48   88.32  292.31
  11  29 -42   21.53  333.27
  11  29  -9  368.41   75.51
  11  29   0   94.20  236.82
  11  29   3   38.35   75.55
  11  29  15   25.29   85.32
  11  29  27  984.07  216.93
  11  29  48   68.13  156.07
  11  30 -43  159.31  108.79
  11  30 -25  422.82  165.38
  11  30 -13  404.53  168.59
  11  30 -10   87.92  179.32
  11  30  -4  175.90  117.98
  11  30  -1  132.70  193.41
  11  30   5  108.25   72.41
  11  30   8  425.53   90.74
  11  30  11  113.98  100.02
  11  30  14  703.79   87.08
  11  30  20  275.30   82.42
  11  31 -23  508.89  169.93
  11  31 -20  102.18  220.81
  11  31 -17    1.35  148.00
  11  31  10  240.74   78.42
  11  31  16   86.61  117.03
  11  31  22  491.29  140.25
  11  31  25  242.23  177.80
  11  32 -42   62.87  135.10
  11  32 -33  816.09  216.76
  11  32 -30   37.41  112.38
  11  32 -27  214.59  126.45
  11  32 -21  122.79  146.16
  11  32 -12   23.76   82.24
  11  32  -9  189.63  163.47
  11  32  -6  341.72  132.09
  11  32   3  208.03  104.38
  11  32   9  183.84   65.96
  11  32  18   13.50  121.75
  11  32  30  152.24   90.73
  11  32  33   67.31  149.16
  11  32  39   61.27  141.55
  11  33 -40  120.79   72.85
  11  33 -37  546.75  209.77
  11  33  -4  312.50  220.53
  11  33  14  672.55  252.64
  11  33  20    7.08   88.07
  11  33  32    1.17   71.09
  11  34 -38  133.86  209.02
  11  34  10   71.76   61.38
  11  34  22    0.86   96.38
  11  34  34  549.60  192.95
  11  34  37   91.71  107.47
  11  35 -15  170.82  297.18
  11  35   6 1061.58  166.65
  11  35  12    1.20   81.41
  11  35  24   10.38  152.97
  11  35  33  258.36  263.07
  11  36 -22   47.32  144.20
  11  36 -13  339.77  279.98
  11  36  -4   78.80  107.66
  11  36   2  161.21   96.89
  11  36  23    0.06   45.32
  11  37 -17   72.31  210.31
  11  37  -5  269.91  118.39
  11  37  -2   29.43   85.27
  11  37   4  281.39   92.06
  11  37  22   62.92   77.63
  11  37  25    0.44   96.22
  11  38 -12  137.40  100.31
  11  38  12   52.41  109.91
  11  38  15   19.12  127.55
  11  39 -10  347.93  168.54
  11  39  -1  140.59   81.71
  11  39   2   34.91   88.08
  11  39  11  127.27  137.77
  12   1 -58  129.02   86.69
  12   1 -52  234.46   75.91
  12   1 -40 3614.39  226.43
  12   1 -37   12.73   46.00
  12   1 -34  353.05   65.53
  12   1 -31 3328.95  327.05
  12   1 -2821752.42  345.38
  12   1 -25 2980.52  138.81
  12   1 -2224738.19  634.91
  12   1 -19  697.72  193.93
  12   1 -16 8454.74  158.17
  12   1 -13 2076.28   65.90
  12   1 -10 1917.48   49.34
  12   1  -7 1684.25  133.39
  12   1  -114259.43  285.72
  12   1   2 7325.96  157.13
  12   1   5 3534.62  144.78
  12   1   8 8483.78  276.53
  12   1  11  132.38   48.60
  12   1  14 1377.72  137.52
  12   1  17  238.63   38.39
  12   1  20 3748.75  225.01
  12   1  23 1900.00  239.42
  12   1  26 2413.94  182.74
  12   1  32 1181.07  174.84
  12   1  35  654.99   94.89
  12   1  38 3359.42  217.03
  12   1  41 2392.87  184.89
  12   1  47 1478.45  237.39
  12   1  56   80.59   64.07
  12   1  59  105.81   73.29
  12   1  65  211.65   85.71
  12   1  74  423.66   78.14
  12   2 -77   28.15   44.07
  12   2 -71    6.38   46.43
  12   2 -68  149.45   73.10
  12   2 -62   47.06  102.37
  12   2 -56  305.38   88.89
  12   2 -50   88.82   53.53
  12   2 -47   95.86   38.86
  12   2 -44  786.08  151.43
  12   2 -38  420.49   90.96
  12   2 -35  166.42   64.77
  12   2 -32  728.70  167.71
  12   2 -29  453.50  133.53
  12   2 -26 8797.75  254.03
  12   2 -2358421.67 1279.29
  12   2 -2020241.15  553.41
  12   2 -1719002.96  386.40
  12   2 -1456023.81  421.50
  12   2 -11  276.82   74.27
  12   2  -8 1051.25   54.48
  12   2  -5  584.47   58.50
  12   2  -2  621.37  131.66
  12   2   1 2011.07   82.02
  12   2   4    2.46   66.66
  12   2   7 1653.90  105.71
  12   2  10  156.31   79.55
  12   2  1310164.16  119.42
  12   2  16   25.17   22.60
  12   2  19  552.77  186.58
  12   2  22   10.49   31.83
  12   2  25  960.94  101.52
  12   2  31 1950.98  180.42
  12   2  34  482.93   42.90
  12   2  37 2480.76  219.44
  12   2  46  156.93  119.17
  12   2  58   36.62   61.76
  12   2  67   48.21   51.27
  12   2  70   14.23   63.81
  12   2  73   55.47   65.04
  12   3 -75   88.90   59.01
  12   3 -72   20.79   45.43
  12   3 -60  127.57   80.73
  12   3 -45  115.56   48.08
  12   3 -42  189.92   59.05
  12   3 -36  297.40   48.77
  12   3 -33 3367.82  212.90
  12   3 -27 3351.13  216.76
  12   3 -24 1057.95  223.62
  12   3 -21 3005.04  147.30
  12   3 -1839881.83 1033.50
  12   3 -15 3842.41  264.01
  12   3 -1263188.09  672.43
  12   3  -9 2781.45   57.53
  12   3  -642154.19  195.16
  12   3  -3 5371.64   41.71
  12   3   3 2665.60   48.98
  12   3   6 8696.29  156.70
  12   3   9 4725.15  177.93
  12   3  12 3091.42   75.78
  12   3  15   54.31   70.10
  12   3  18 2217.68  109.60
  12   3  21 2800.60  305.71
  12   3  24 3884.37  122.95
  12   3  2735619.62 1105.50
  12   3  30 4144.25  276.12
  12   3  39  809.88  160.38
  12   3  42 1320.42  231.34
  12   3  45 1203.42  211.86
  12   3  48  319.55   77.42
  12   3  57  305.18   53.27
  12   3  63   30.53   97.30
  12   3  66   36.56   68.76
  12   3  69   88.95   80.91
  12   3  72   71.09   67.49
  12   4 -76   35.00   41.89
  12   4 -73    8.33  102.62
  12   4 -70  293.48   76.66
  12   4 -61  458.62   71.78
  12   4 -58  229.54   54.76
  12   4 -52   20.85   57.20
  12   4 -46  167.40  117.73
  12   4 -43 1724.81  173.92
  12   4 -37  805.94  113.38
  12   4 -34 1786.87  147.19
  12   4 -28 3560.36  283.14
  12   4 -25  121.35   71.80
  12   4 -1918737.64  512.15
  12   4 -1634111.19 1504.13
  12   4 -13 3776.12  251.64
  12   4 -10 1625.67   71.20
  12   4  -732454.70  402.98
  12   4  -4 5338.41  169.09
  12   4   2  308.88   26.83
  12   4   5 1873.70   34.39
  12   4   8 7218.55  154.28
  12   4  11 6925.54  145.02
  12   4  14   59.92   39.97
  12   4  17 3728.69  118.09
  12   4  20 3850.03  205.01
  12   4  23 1464.01   73.59
  12   4  29 1701.14   74.92
  12   4  35 4878.29  266.52
  12   4  41  927.20  118.66
  12   4  44 1635.47  233.41
  12   4  50  671.49  232.85
  12   4  53  360.62   93.48
  12   4  65   21.82   54.51
  12   4  74    0.17   50.59
  12   4  77   21.61   78.30
  12   5 -77   48.78  122.20
  12   5 -71   27.78   83.83
  12   5 -68  157.57   57.54
  12   5 -65    1.70   59.85
  12   5 -62  102.52   50.40
  12   5 -59   93.52   44.67
  12   5 -53  112.92   60.22
  12   5 -47  719.57  131.91
  12   5 -41  605.05  116.38
  12   5 -38  556.26   85.14
  12   5 -32  597.36   44.46
  12   5 -2050514.07  572.05
  12   5 -17 1720.63  467.55
  12   5 -14 1287.88  435.62
  12   5 -1136416.18  436.23
  12   5  -810439.86  205.72
  12   5  -5  231.68   57.66
  12   5  -2 3969.10  109.93
  12   5   1 1976.50   46.33
  12   5   4 1555.36   37.31
  12   5   7   11.89   33.97
  12   5  10  886.22   63.90
  12   5  13  419.13   53.57
  12   5  16 3411.55  187.83
  12   5  22 3798.65  227.39
  12   5  25  381.20   71.95
  12   5  28 1761.79  147.70
  12   5  31 9488.44  352.22
  12   5  34 2667.36  216.26
  12   5  37  579.64  100.83
  12   5  40  154.57   58.72
  12   5  43  318.48   67.36
  12   5  46  894.59  170.81
  12   5  61   28.95  120.12
  12   5  70  160.97   58.06
  12   5  76    3.85   68.02
  12   6 -75  175.97   87.29
  12   6 -66    2.49   47.49
  12   6 -63  113.11   58.40
  12   6 -60   44.46   42.58
  12   6 -54   28.25  109.52
  12   6 -51  498.91   77.96
  12   6 -48  453.59   94.74
  12   6 -42  651.84  118.42
  12   6 -39  431.79   76.19
  12   6 -36   19.24   46.11
  12   6 -30  814.80  109.07
  12   6 -27 2129.70  171.82
  12   6 -24  429.58   25.77
  12   6 -18 2525.84  180.09
  12   6 -1511089.45  410.95
  12   6 -12 9344.42  286.09
  12   6  -9 6643.34  242.02
  12   6  -6   34.48   58.19
  12   6  -3 1016.43  191.62
  12   6   0 5733.12  108.64
  12   6   3  703.95  154.66
  12   6   6 2225.32  170.79
  12   6   9 8256.96  132.34
  12   6  12   44.70   80.60
  12   6  15 2094.69  168.16
  12   6  18 1838.19   67.16
  12   6  24 3044.16  154.11
  12   6  27 4279.90  214.95
  12   6  30 3656.85  203.84
  12   6  36  186.48   44.94
  12   6  39  449.63   74.06
  12   6  45  742.26  107.79
  12   6  48  696.63  151.14
  12   6  54  584.82   75.99
  12   6  66    0.28   68.94
  12   6  69   95.16   69.34
  12   6  75   60.26   43.52
  12   7 -67  460.01   50.87
  12   7 -64   28.08   82.09
  12   7 -52  590.56  106.16
  12   7 -46  323.63   86.57
  12   7 -43  187.01  113.95
  12   7 -34 1711.68  195.99
  12   7 -28  243.71   41.57
  12   7 -25  974.47  121.26
  12   7 -19 2530.06  420.76
  12   7 -16 5768.41  112.09
  12   7 -13 7126.13  213.80
  12   7 -10 4784.85  145.90
  12   7  -712877.69  287.23
  12   7  -425575.41  317.99
  12   7  -110573.53  167.23
  12   7   2  378.72   42.84
  12   7   5 7195.58  213.97
  12   7   8  297.22   75.76
  12   7  11 1927.50   98.20
  12   7  17  458.72   54.32
  12   7  20 1015.63   52.76
  12   7  23 9616.81  294.91
  12   7  26 3469.77  212.85
  12   7  35   26.37   31.61
  12   7  38  868.36  127.87
  12   7  41  222.65   72.20
  12   7  44  669.71  110.70
  12   7  47  144.19  157.59
  12   7  50   62.96   82.37
  12   7  53    9.13   79.25
  12   7  56   85.58   80.60
  12   7  65   26.42   65.14
  12   7  74   36.50   74.95
  12   8 -74   77.12  108.50
  12   8 -68   46.18   75.24
  12   8 -56  535.95   91.80
  12   8 -50  273.00  109.00
  12   8 -41  507.47   57.76
  12   8 -35   37.56   56.80
  12   8 -29  466.87  125.06
  12   8 -26 2444.45  123.47
  12   8 -23 2487.42  278.44
  12   8 -20 1534.54  202.23
  12   8 -17  871.80   54.80
  12   8 -14 2069.27  134.19
  12   8 -11  569.58   64.38
  12   8  -8 3330.83  267.70
  12   8  -5 9120.37  252.73
  12   8  -2 1924.36   79.08
  12   8   118125.34  246.16
  12   8   4 6422.59  188.81
  12   8   7    1.70   45.18
  12   8  10 3186.79  129.53
  12   8  13 9790.09  272.69
  12   8  16 7905.84  248.02
  12   8  19 9789.95  355.50
  12   8  22   65.67   63.60
  12   8  25 2609.60  334.69
  12   8  28 3184.79  210.98
  12   8  31 1302.64  220.04
  12   8  34  205.15  136.40
  12   8  37  438.51  123.11
  12   8  40    8.82   55.13
  12   8  46    5.35   49.86
  12   8  49  182.11   70.48
  12   8  55  181.75   62.44
  12   8  64  356.71   64.79
  12   8  70  378.68   68.66
  12   8  73   71.29   49.00
  12   9 -66   61.67   78.05
  12   9 -51  305.98  150.42
  12   9 -36  541.56   87.33
  12   9 -33  913.46   85.22
  12   9 -30 1196.12   98.75
  12   9 -27  164.18   34.35
  12   9 -24 2780.98  228.65
  12   9 -21 4947.27  243.75
  12   9 -18 2817.23  146.74
  12   9 -15 1938.31  175.15
  12   9  -9  309.33  170.24
  12   9  -629787.16  304.71
  12   9  -3 4355.83  123.75
  12   9   014596.14  245.08
  12   9   3 6836.39   50.57
  12   9   6 1182.76  137.77
  12   9   9  476.73  107.15
  12   9  12 8740.82  283.72
  12   9  18  236.73   68.52
  12   9  21   43.60   51.36
  12   9  24  197.07  131.87
  12   9  36 1800.36  163.65
  12   9  39 1445.91  208.51
  12   9  42  601.03  124.40
  12   9  51  392.68  102.58
  12  10 -67  120.69   62.80
  12  10 -64   86.10   80.58
  12  10 -61  465.39   99.48
  12  10 -49  411.90   86.73
  12  10 -40  103.25   45.28
  12  10 -37   63.58   53.04
  12  10 -22  663.77   88.23
  12  10 -19 2763.30  169.46
  12  10 -13 1339.75  125.94
  12  10 -10 2671.13  202.92
  12  10  -7 6126.60  134.32
  12  10  -4 1862.29  200.71
  12  10  -1 4704.77  140.41
  12  10   5 5580.22  214.28
  12  10   8  502.27   36.51
  12  10  11  205.11   79.92
  12  10  14  717.06   42.86
  12  10  17  190.35   69.47
  12  10  20 3711.86  464.50
  12  10  23   76.49   43.02
  12  10  29  866.67  126.28
  12  10  38  123.41   64.80
  12  10  41  329.25   99.15
  12  10  44   68.04   77.19
  12  10  53   33.94   68.47
  12  10  59  337.96   97.94
  12  10  65  191.87   95.36
  12  10  68    4.20   68.48
  12  11 -71   93.78   55.82
  12  11 -59  110.42   70.47
  12  11 -53  178.56   61.63
  12  11 -47   70.11  101.98
  12  11 -44  692.42  138.78
  12  11 -41  277.03   95.24
  12  11 -35  660.39  117.71
  12  11 -29  132.94   41.70
  12  11 -26  357.88   45.62
  12  11 -20 3663.05  131.35
  12  11 -1714191.14  434.19
  12  11 -14 4562.99  211.79
  12  11  -8 3341.64  207.39
  12  11  -511390.11  332.43
  12  11  -2  908.16   87.75
  12  11   111689.25  348.89
  12  11   4 8890.00  215.07
  12  11   7 5211.14  132.77
  12  11  10    4.17   48.57
  12  11  16   90.24   76.93
  12  11  22 1145.82  187.05
  12  11  28  199.76   77.89
  12  11  31 1973.40  278.36
  12  11  34  460.70   88.65
  12  11  55   60.41   83.27
  12  11  58  323.41   96.27
  12  11  70    3.87   72.07
  12  11  73   27.03   56.16
  12  12 -72    8.66   60.24
  12  12 -57  204.61  109.42
  12  12 -51   10.55   85.97
  12  12 -42  153.06   70.78
  12  12 -39  200.84   49.30
  12  12 -27  106.88   79.34
  12  12 -24 1548.54  156.83
  12  12 -18 1185.34  148.51
  12  12 -12 3772.01  293.20
  12  12  -929940.05  496.32
  12  12  -3    3.64   47.82
  12  12   0 5638.60  163.03
  12  12   313618.74  247.57
  12  12   6   20.04   50.66
  12  12   9 5323.90  142.44
  12  12  1212742.32  299.06
  12  12  15 1211.66   89.66
  12  12  1814211.35  445.25
  12  12  24  923.93   70.50
  12  12  27 1476.68  180.12
  12  12  30  521.92   99.48
  12  12  54  243.61  177.74
  12  12  66    7.37   65.60
  12  12  72    0.52   71.33
  12  13 -67  116.07   73.79
  12  13 -64   27.36   68.42
  12  13 -52  165.56  114.90
  12  13 -43   63.03   75.71
  12  13 -37  280.06   65.93
  12  13 -34 1465.68  172.01
  12  13 -31  897.03  103.04
  12  13 -28 1314.11  140.97
  12  13 -25  255.38  127.97
  12  13 -22  175.12   44.13
  12  13 -19 2719.28  148.83
  12  13 -16 4469.63  243.93
  12  13 -13 6499.39  312.24
  12  13  -7 1934.51  145.69
  12  13  -4 1015.07   91.00
  12  13  -1 8749.83  259.01
  12  13   2 2211.54  144.88
  12  13   5 2055.75  180.63
  12  13   8 3513.20  154.70
  12  13  11   82.18   30.60
  12  13  17  959.36  121.57
  12  13  29   33.55   49.47
  12  13  38  674.84  146.19
  12  13  44   61.56   95.06
  12  13  50   62.05   88.08
  12  13  56  465.20  105.06
  12  13  59  302.41  108.28
  12  13  68   79.28   59.41
  12  14 -71    7.56   41.64
  12  14 -68  119.33   58.45
  12  14 -65  211.04   64.97
  12  14 -62    1.49   75.49
  12  14 -59   37.89   91.41
  12  14 -56   60.69   86.25
  12  14 -41  137.19   49.85
  12  14 -35    5.58   56.62
  12  14 -29  366.89   81.53
  12  14 -26 1013.45   99.38
  12  14 -23  454.42  112.40
  12  14 -20  599.87   34.58
  12  14 -17 1878.17  127.16
  12  14  -8  386.97   38.37
  12  14  -5  691.14  109.61
  12  14  -2 5231.74  259.87
  12  14   122055.71  282.11
  12  14   4  396.37   69.55
  12  14  10 2268.55  104.49
  12  14  13 1294.11   73.92
  12  14  19  232.13   62.79
  12  14  25  101.34   84.42
  12  14  28 2206.95  206.40
  12  14  31  563.91   89.59
  12  14  46  639.10  101.46
  12  14  58   47.07   88.71
  12  14  70   91.63   45.75
  12  15 -66    6.54   77.60
  12  15 -54   25.69  100.70
  12  15 -51   85.94   60.03
  12  15 -48    1.98   64.14
  12  15 -45  755.78  171.83
  12  15 -33  451.99   93.03
  12  15 -30  509.90   85.93
  12  15 -27  762.71  109.58
  12  15 -21   92.72   54.80
  12  15 -15 1703.81  140.86
  12  15  -9 1685.99  179.69
  12  15  -6 3171.51   94.21
  12  15   3 1270.02   88.25
  12  15  12  109.40   77.38
  12  15  15 1284.32   81.64
  12  15  21  433.78   49.42
  12  15  24   81.78   45.59
  12  15  27  239.58  115.36
  12  15  33   83.24  197.19
  12  15  36  432.30   83.25
  12  15  39  587.85  179.28
  12  15  42  731.58   98.45
  12  15  48  130.79   86.81
  12  15  57   32.15   80.74
  12  15  60   60.27   58.10
  12  15  69   74.30   55.57
  12  16 -67  181.01   95.62
  12  16 -64   72.99   78.80
  12  16 -61   78.98   53.66
  12  16 -55  192.33   68.26
  12  16 -37  140.44   57.32
  12  16 -34   41.98   51.20
  12  16 -25  209.11   62.70
  12  16 -22  146.84   44.20
  12  16 -19  524.05   64.01
  12  16 -16 2561.28  168.70
  12  16 -13 1590.51  146.22
  12  16 -10 1149.60  139.75
  12  16  -7  863.77   93.32
  12  16  -1  445.20   49.09
  12  16   2 1378.44  162.25
  12  16   5 2079.55  110.56
  12  16   8 1846.05  144.21
  12  16  11 1348.87  126.69
  12  16  14    6.15   35.17
  12  16  17  328.11  109.73
  12  16  26  288.12  114.39
  12  16  29  129.62   71.96
  12  16  32  957.32  143.47
  12  16  35   83.48   88.32
  12  16  38   66.37  133.95
  12  16  47  567.28  148.18
  12  16  50   37.14  129.77
  12  16  56  237.90   96.19
  12  17 -62  195.93   92.08
  12  17 -56    9.77   61.16
  12  17 -50   80.05  102.42
  12  17 -47   40.96   49.11
  12  17 -29  154.46   52.72
  12  17 -26  543.44  139.03
  12  17 -20 1339.69  241.04
  12  17 -17  377.92   54.99
  12  17 -14 1313.02  118.40
  12  17 -11   26.89   37.35
  12  17  -8  862.05  170.41
  12  17  -5  372.04   56.13
  12  17   1 1309.37  114.42
  12  17   7  929.17   82.96
  12  17  10  301.20   72.67
  12  17  13  317.68   36.43
  12  17  16    2.82   46.37
  12  17  22 1862.36  163.39
  12  17  25  418.78   89.42
  12  17  28   52.67   46.40
  12  17  31   48.73   47.71
  12  17  37   53.09  175.75
  12  17  40  326.22  172.91
  12  17  49 1077.54  244.24
  12  17  61   59.11   52.92
  12  17  64   60.47   74.77
  12  17  67    9.00   52.76
  12  18 -63    4.30  125.76
  12  18 -60   57.96  116.24
  12  18 -57    0.02  114.23
  12  18 -51  884.99  108.71
  12  18 -48  631.33  102.16
  12  18 -45   38.39   85.87
  12  18 -39  828.89  132.55
  12  18 -36  128.86   85.53
  12  18 -30  109.51   70.49
  12  18 -27  314.82   77.95
  12  18 -21 1687.23  184.51
  12  18 -18  822.53  200.62
  12  18 -12  374.54   59.88
  12  18  -9  179.17   36.05
  12  18  -6 1982.02  163.88
  12  18  -3 2729.76  188.16
  12  18   0  457.99   59.32
  12  18   3 2433.61  220.82
  12  18   6 3665.88  250.00
  12  18   9  252.38   64.89
  12  18  12  221.67   73.79
  12  18  15  236.14   38.22
  12  18  18 1596.97   96.16
  12  18  21  258.48   54.94
  12  18  27  212.45   57.73
  12  18  30  609.49  143.18
  12  18  33   91.70  120.66
  12  18  39  125.98   81.21
  12  18  45  286.40  105.16
  12  18  60   42.96   70.92
  12  19 -58  131.43  102.98
  12  19 -40  342.76   89.48
  12  19 -28  203.33   93.81
  12  19 -22  669.03   75.32
  12  19 -19  165.61   60.12
  12  19 -13  238.55   76.55
  12  19  -1 1447.62  100.76
  12  19   2 1781.23  138.36
  12  19   5  338.91   58.01
  12  19   8   58.54   32.26
  12  19  14  334.80   48.84
  12  19  26 1458.79  126.41
  12  19  41  131.49   86.73
  12  19  47   29.70  148.06
  12  19  59   31.16   59.64
  12  20 -59  101.82  117.30
  12  20 -47  255.12   80.04
  12  20 -44  232.52  140.44
  12  20 -32   13.76   60.47
  12  20 -29   17.48   48.32
  12  20 -26   58.37   99.03
  12  20 -17   53.55   62.81
  12  20 -11  158.30   86.14
  12  20  -8  685.83  157.54
  12  20  -5  150.45   61.44
  12  20  -2 1525.21  131.96
  12  20   4  823.56  128.39
  12  20  10  103.25   34.53
  12  20  28    0.71   63.47
  12  20  31 1080.18  135.85
  12  20  37  108.98   71.97
  12  20  40  171.88   43.22
  12  20  43  228.71   90.51
  12  20  52  129.15  143.99
  12  20  64  109.53   67.40
  12  21 -51   21.50   53.74
  12  21 -48  177.89  100.99
  12  21 -45  412.01  181.58
  12  21 -42  361.39   82.70
  12  21 -39  159.76   56.38
  12  21 -36  234.77  102.49
  12  21 -24  564.99  106.79
  12  21 -21  279.62   82.69
  12  21 -18 1616.04  143.62
  12  21  -9  410.69  156.19
  12  21  -6  261.87   97.53
  12  21  -3  813.17   95.28
  12  21   0  505.25  175.86
  12  21   3  470.11  191.66
  12  21   6 6390.78  568.24
  12  21  12 2288.07  131.52
  12  21  15  139.18   48.47
  12  21  21    3.71   64.84
  12  21  30  151.94   64.65
  12  21  33  329.85   95.57
  12  21  36  152.38   64.79
  12  21  45   90.04  106.85
  12  21  51  109.39   66.35
  12  22 -58  144.08  170.05
  12  22 -55   62.70   87.46
  12  22 -46   27.88   97.92
  12  22 -40  888.23   83.84
  12  22 -34  399.03   79.68
  12  22 -28   61.24  118.05
  12  22 -25   19.65   53.82
  12  22 -22 1060.86  177.14
  12  22 -16   38.06  119.12
  12  22 -13  203.33   81.04
  12  22 -10 3125.98  235.08
  12  22  -7  379.01   69.06
  12  22  -4  474.62   69.89
  12  22  -1  643.61  103.87
  12  22   8  367.03  153.17
  12  22  11  335.00   39.24
  12  22  32  219.88   67.17
  12  22  56  214.64   69.01
  12  23 -56   50.45  139.77
  12  23 -53    0.02  189.27
  12  23 -44  245.54   87.86
  12  23 -41  339.89  130.23
  12  23 -38  146.20   71.97
  12  23 -32   19.17   51.96
  12  23 -26  196.34   86.54
  12  23 -23  204.30   65.05
  12  23 -20   78.10   68.05
  12  23 -11  279.04   70.47
  12  23  -8    4.72   54.73
  12  23   4  431.14  152.57
  12  23   7  119.98   57.03
  12  23  13 1471.88  135.63
  12  23  16  243.07   60.52
  12  23  19  250.99   80.15
  12  23  25   39.98   84.52
  12  23  34  570.75   85.35
  12  23  46   22.07  111.05
  12  23  52   31.37   46.48
  12  24 -48   92.45  153.17
  12  24 -42   24.35  146.46
  12  24 -36  387.79   84.36
  12  24 -30    2.37   96.32
  12  24 -21  597.70  156.21
  12  24  -9  605.65  110.32
  12  24  -3  562.35  166.93
  12  24   3  636.27  101.46
  12  24   6  383.86   76.18
  12  24  12 1814.87  166.56
  12  24  15 1497.34  120.05
  12  24  39  278.67   99.43
  12  24  48   55.61  105.69
  12  24  51    4.79   72.69
  12  25 -49    3.53  104.54
  12  25 -43   54.07   86.32
  12  25 -37   27.08   76.93
  12  25 -31  268.91   55.49
  12  25 -19  114.74  102.26
  12  25 -16 1132.41  280.50
  12  25 -13 1054.03  192.10
  12  25 -10  849.13  129.37
  12  25  -7  655.54  123.33
  12  25  -4    0.09   81.84
  12  25  -1 2281.89  194.76
  12  25   2  413.70   86.67
  12  25   5  270.86  176.09
  12  25   8  154.97   86.53
  12  25  11  910.57  188.69
  12  25  17  166.46   80.70
  12  25  23  283.82   92.30
  12  25  26  572.55  160.96
  12  25  35   76.93   80.52
  12  25  47   16.91   74.48
  12  25  50  401.02  191.99
  12  25  56    0.07   80.88
  12  26 -50  207.56  119.34
  12  26 -32   21.61   85.92
  12  26 -26  206.38  118.50
  12  26 -23   51.56   66.22
  12  26 -20  380.47   98.96
  12  26 -14  530.19   90.41
  12  26 -11  388.73   67.52
  12  26  -5  837.84   99.47
  12  26   7 1405.95  253.79
  12  26  13  247.89   98.20
  12  26  16   13.89   94.48
  12  26  19   84.09   95.16
  12  26  22  221.68  157.01
  12  26  25  106.38  147.50
  12  26  40  137.03  111.34
  12  26  43  132.82   74.80
  12  26  49  112.63   95.02
  12  27 -48   69.46   81.86
  12  27 -45  105.34  107.35
  12  27 -42  200.08  115.15
  12  27 -39    3.35   58.39
  12  27 -36   31.37   87.30
  12  27 -33  131.47  113.36
  12  27 -15  226.12   73.01
  12  27  -3  602.36  190.16
  12  27   6  122.84  102.45
  12  27   9   99.91  113.42
  12  27  18  236.74   82.07
  12  27  24  412.02   99.19
  12  27  27  102.12   97.57
  12  27  30   30.47   86.89
  12  27  36   34.02  100.81
  12  27  45   17.06  193.03
  12  27  51   74.67   93.11
  12  28 -34  385.69  187.81
  12  28 -16  668.80  176.38
  12  28 -13  138.25  120.46
  12  28  -7  276.03   74.43
  12  28  -4  305.56  127.12
  12  28   2  103.42   76.97
  12  28   8  123.47   60.61
  12  28  20   25.97   62.48
  12  28  44   56.89  103.47
  12  28  50   84.20  122.88
  12  29 -35  255.68  263.40
  12  29 -26  422.17  184.70
  12  29 -23  499.51  309.10
  12  29 -20  339.64  107.38
  12  29  -8  470.94  128.89
  12  29  -5  619.16  235.19
  12  29  -2  505.95  145.12
  12  29  10  395.29   79.08
  12  29  19 1016.26  130.14
  12  29  22  528.75   88.38
  12  29  25   72.35   81.51
  12  29  31   75.16   75.87
  12  29  34  149.34  183.99
  12  29  37   30.40  109.40
  12  29  40   67.98  173.28
  12  30 -42  109.64  210.80
  12  30 -30   84.37  134.14
  12  30 -15   17.95   99.45
  12  30   6  207.91  104.87
  12  30   9    4.30  101.68
  12  30  12   80.11   73.41
  12  30  15  694.80   68.59
  12  30  18  917.68  257.18
  12  30  24   78.41  117.14
  12  30  27  131.82  129.32
  12  30  33   53.86  105.16
  12  31 -43  226.55  163.50
  12  31 -34   88.93   94.70
  12  31 -25  196.53  264.86
  12  31 -13  138.52  140.27
  12  31 -10   56.13  178.48
  12  31  -7  124.35  133.98
  12  31  -4  162.93   86.89
  12  31  -1  123.83  103.99
  12  31  14  465.37  141.42
  12  31  20  196.23   89.30
  12  31  23    3.14  148.58
  12  31  32  121.77  173.84
  12  31  38   33.58  114.14
  12  31  41  244.06  116.59
  12  32 -14   11.66   92.16
  12  32  -5   57.76  134.75
  12  32   1   16.29  107.53
  12  32   7   39.50   91.20
  12  32  28   21.34   95.82
  12  33 -39   21.57   76.24
  12  33 -18   72.51  160.15
  12  33  -9  183.47  203.76
  12  33   3    0.19   80.30
  12  33  12   29.55   64.75
  12  33  33  468.57  170.45
  12  33  39  103.67  184.02
  12  34 -34  125.99  119.28
  12  34 -28  148.87  172.91
  12  34 -22  110.81  115.77
  12  34  -7  459.00  335.34
  12  34  -1  477.85  327.97
  12  34  11  516.48  177.23
  12  34  20  197.70  145.24
  12  34  35  231.87  120.79
  12  35 -17   78.59  170.65
  12  35   1  332.02   94.07
  12  35  13   84.31  176.29
  12  35  16  174.29  162.50
  12  36 -27  326.85  133.42
  12  36 -12   55.65   68.41
  12  36   0    2.47  122.98
  12  36   3   10.26  199.08
  12  36   9  500.15  106.56
  12  37  14  186.94   87.04
  12  37  20  108.18   81.95
  12  38 -14  300.93  215.85
  12  38 -11  261.62  368.80
  12  38  10  402.21  133.20
  13   1 -72  264.29  113.80
  13   1 -63   78.42   65.84
  13   1 -57  253.81   76.01
  13   1 -54  119.10   74.32
  13   1 -51  198.79   45.77
  13   1 -48   36.17   58.12
  13   1 -45  161.58   65.87
  13   1 -39  395.19   55.26
  13   1 -2710560.48  296.49
  13   1 -24 5060.03  274.91
  13   1 -1814280.70  331.65
  13   1 -15 4256.46  278.47
  13   1 -12   86.89   86.31
  13   1  -9 8490.97  171.31
  13   1  -6 2347.04   98.88
  13   1   0 6288.45   69.63
  13   1   3 6024.32  116.15
  13   1   6 1698.52  100.57
  13   1   9  457.05   31.62
  13   1  12 3790.11   26.56
  13   1  15  105.57   41.21
  13   1  18  607.77   53.20
  13   1  21  834.89  188.69
  13   1  27  260.50   98.15
  13   1  30 4374.29  176.09
  13   1  36  297.58  123.09
  13   1  42  181.99   76.60
  13   1  45  939.86  185.56
  13   1  48  584.54  197.03
  13   1  63   30.81   85.55
  13   1  69   12.73   59.98
  13   1  72   44.84   40.75
  13   1  78   30.77   66.48
  13   2 -76   25.36   45.68
  13   2 -70   84.46   61.34
  13   2 -67    5.50   55.21
  13   2 -64  211.48   68.83
  13   2 -55  175.89   70.85
  13   2 -46  572.91  102.55
  13   2 -43  184.92   58.73
  13   2 -40  689.12   97.92
  13   2 -37  423.14  105.92
  13   2 -31  878.22  149.85
  13   2 -25 8324.92  251.73
  13   2 -22 4985.42  182.55
  13   2 -19128780.6 1333.57
  13   2 -1697782.20 1191.52
  13   2 -1319490.17  328.27
  13   2 -10 6262.37  158.27
  13   2  -7 2300.36   88.79
  13   2  -423445.30  355.21
  13   2  -1 2453.85   40.03
  13   2   2   70.44   32.31
  13   2   5 3576.33  139.31
  13   2   8 9946.35   80.37
  13   2  11 1963.87  147.93
  13   2  14  319.72   30.36
  13   2  17 8753.44  275.77
  13   2  20 1196.02  210.78
  13   2  26 1200.04  186.16
  13   2  32  429.84  103.99
  13   2  35 5355.08  447.90
  13   2  38  116.03   40.63
  13   2  47 2037.41  258.68
  13   2  71    2.14   81.27
  13   2  74   69.06   44.09
  13   2  77   16.76   49.60
  13   3 -77   31.60   69.07
  13   3 -71    6.36   60.03
  13   3 -65  421.39   78.37
  13   3 -53   58.14   50.06
  13   3 -50  187.19   69.15
  13   3 -47  481.11   89.60
  13   3 -41  633.22  200.48
  13   3 -38  152.54   75.04
  13   3 -29 1199.19  195.25
  13   3 -2317193.93  409.41
  13   3 -20  124.75  211.61
  13   3 -1742629.16  908.99
  13   3 -14 1099.32  162.77
  13   3 -1125758.18  350.82
  13   3  -820224.96  478.67
  13   3  -5 1714.71  157.60
  13   3  -2  760.68  146.65
  13   3   1   47.08   25.77
  13   3   4 5668.49   74.39
  13   3   7 4031.69  125.42
  13   3  10 5378.63  140.15
  13   3  13 3024.42   95.04
  13   3  16 1784.80   83.82
  13   3  19 1332.27   93.37
  13   3  22  596.87   55.62
  13   3  25 7696.22  332.31
  13   3  3111907.34  344.52
  13   3  34 2059.74  197.00
  13   3  40  711.12   55.08
  13   3  52  254.61   63.73
  13   3  55  910.70  137.81
  13   3  58   46.71   98.04
  13   3  64   65.61   67.29
  13   3  67   87.68   61.50
  13   3  70    4.62   64.68
  13   3  73    6.60   94.30
  13   4 -75  225.52   51.19
  13   4 -72    2.43   49.56
  13   4 -66  201.39   87.89
  13   4 -54   55.93   54.20
  13   4 -48  409.10   77.03
  13   4 -45   79.99   59.74
  13   4 -42   76.09   48.81
  13   4 -33  667.14   77.35
  13   4 -30 3629.96  314.95
  13   4 -27 1931.03  212.90
  13   4 -2410697.02  287.46
  13   4 -2158262.67  776.76
  13   4 -18 2612.98  309.05
  13   4 -15   79.84  322.89
  13   4  -912122.91  279.31
  13   4  -6 6942.18  159.18
  13   4  -314953.07  302.04
  13   4   0 4539.69  114.36
  13   4   3   61.90   32.18
  13   4   9   31.54   23.83
  13   4  12 5008.37  149.78
  13   4  15   62.32  126.95
  13   4  18  678.44  106.61
  13   4  21  959.81  105.50
  13   4  2433252.62  862.49
  13   4  33  460.35   56.85
  13   4  36   14.80   36.63
  13   4  42  814.86  106.74
  13   4  45  187.95  157.00
  13   4  48  424.20  111.52
  13   4  66  116.45   70.52
  13   4  69  225.36  105.30
  13   4  75   58.65   99.12
  13   5 -73   63.83   50.13
  13   5 -64  142.65   88.61
  13   5 -61  148.52   60.96
  13   5 -58   67.23   43.72
  13   5 -55  187.90  118.81
  13   5 -49  259.60  111.23
  13   5 -43  419.47  256.32
  13   5 -40  111.84   63.52
  13   5 -37  243.10   44.61
  13   5 -34  850.97  155.07
  13   5 -31 1381.97  136.73
  13   5 -22  546.10  141.81
  13   5 -16 3384.11  248.76
  13   5 -13 4743.74  343.39
  13   5 -10 4027.63  239.33
  13   5  -716783.92  297.13
  13   5  -4 5973.73  234.62
  13   5  -1 6877.55   97.18
  13   5   2 7514.31   82.61
  13   5   5  964.31  116.59
  13   5   8 6103.13  176.83
  13   5  11  442.57   91.42
  13   5  14  458.68   92.39
  13   5  17 2691.60   34.63
  13   5  20 7128.71  208.99
  13   5  29 1319.54  181.44
  13   5  32 7070.21  310.78
  13   5  35  636.41   75.12
  13   5  38  844.73  119.27
  13   5  41  297.17   76.48
  13   5  56  232.92   58.85
  13   5  59  102.30   79.41
  13   5  62  251.73  147.52
  13   5  65    5.82   57.83
  13   5  68    3.46   57.03
  13   6 -56  137.14   83.84
  13   6 -47  119.98   71.55
  13   6 -44 1181.39  200.84
  13   6 -38  647.96   63.55
  13   6 -23 4428.01  237.62
  13   6 -20 9861.61  419.23
  13   6 -1714769.66  623.87
  13   6 -14 5889.09  403.06
  13   6 -1138193.77  435.31
  13   6  -8 4453.27  199.13
  13   6  -511765.84  362.19
  13   6  -222837.63  530.61
  13   6   1 3019.19  213.91
  13   6   4  946.93   62.08
  13   6   7  489.20   93.31
  13   6  10  447.32   68.91
  13   6  13   87.16   56.44
  13   6  16  195.12   62.03
  13   6  19  682.97   74.63
  13   6  28 1074.91   77.20
  13   6  31  455.37   83.03
  13   6  34  557.64  204.65
  13   6  37  264.45   61.37
  13   6  40  512.58  107.30
  13   6  52  277.27   53.52
  13   6  61  175.16   87.72
  13   6  70   88.93   59.00
  13   7 -72  154.78  101.61
  13   7 -66    1.80   60.80
  13   7 -63   28.57   64.38
  13   7 -57   11.28   45.29
  13   7 -48  364.45   85.00
  13   7 -36  633.88   51.44
  13   7 -27  198.38   59.89
  13   7 -24  867.92  160.34
  13   7 -21  157.02  201.12
  13   7 -18 1622.71  305.85
  13   7 -15 4050.49  247.74
  13   7 -1211019.76  194.47
  13   7  -9 4890.42  231.54
  13   7  -6 6290.42  398.45
  13   7  -3 4902.29  197.36
  13   7   0  519.36   82.62
  13   7   3 1899.80  168.34
  13   7   6  123.42   61.39
  13   7   9   75.70   73.50
  13   7  12 1071.89  165.90
  13   7  15 3765.37  178.54
  13   7  18 1562.35  193.69
  13   7  24 7838.11  316.21
  13   7  30  534.85  109.73
  13   7  33  571.74   44.04
  13   7  36   26.75   46.89
  13   7  45  428.53   92.68
  13   7  48  102.33   97.85
  13   7  51    2.00   62.40
  13   7  54  428.52   98.87
  13   7  57  156.78   90.10
  13   7  60   38.30  156.60
  13   7  69   11.07   66.52
  13   7  72  149.73   66.02
  13   7  75   84.56   57.02
  13   8 -70   18.98   54.03
  13   8 -61  120.23   57.42
  13   8 -52  600.30  119.16
  13   8 -46  141.38   74.54
  13   8 -43  627.95   83.56
  13   8 -40  628.22  117.93
  13   8 -37  625.95  109.61
  13   8 -28 4284.93  361.77
  13   8 -22 4587.89  349.51
  13   8 -1910456.05  353.83
  13   8 -16 1963.37  115.68
  13   8 -13  480.09   84.01
  13   8 -10  631.13  102.26
  13   8  -7 1955.61  167.25
  13   8  -4  770.00  136.66
  13   8  -1  548.73   50.13
  13   8   2 7736.30  140.98
  13   8   5 2378.41   93.91
  13   8   8  453.51   32.10
  13   8  14 1763.51   36.63
  13   8  17 2597.97   97.21
  13   8  23  130.29  118.27
  13   8  35 1002.77  129.99
  13   8  41 1992.59  258.17
  13   8  44   62.31   80.83
  13   8  47  487.89  105.23
  13   8  50  494.40  119.71
  13   8  62  159.05   82.80
  13   8  74   41.54   51.75
  13   9 -65  215.05   74.07
  13   9 -62  404.10   65.96
  13   9 -53  200.84   55.08
  13   9 -50  148.69   60.68
  13   9 -44  206.71   75.66
  13   9 -41   96.94   81.54
  13   9 -35  306.89   69.83
  13   9 -32  233.68   46.34
  13   9 -29  157.64  110.31
  13   9 -26 3005.66  248.08
  13   9 -23  837.25   68.14
  13   9 -2012012.12  367.59
  13   9 -17 6167.51  255.63
  13   9 -14  727.63   37.52
  13   9 -11 1454.80   83.41
  13   9  -8 1695.45   85.22
  13   9  -5  417.32   68.27
  13   9  -211778.62  164.51
  13   9   424920.30  300.05
  13   9   7 5798.92  183.44
  13   9  10 4550.80  148.56
  13   9  13 1902.23   68.09
  13   9  16 3846.78  123.56
  13   9  19 1143.10  106.36
  13   9  22 1879.12  165.68
  13   9  28 2604.88  182.93
  13   9  31 2618.25  347.39
  13   9  34  482.83  162.47
  13   9  43   43.57   53.17
  13   9  46  218.35   67.25
  13   9  61    3.08   72.44
  13   9  70   12.76   52.57
  13  10 -69   35.33   45.78
  13  10 -66   36.07   56.43
  13  10 -54  276.18  128.07
  13  10 -51  120.27   92.54
  13  10 -45  178.21   68.55
  13  10 -42  323.66   62.57
  13  10 -36  366.89   81.39
  13  10 -33 2100.23  131.23
  13  10 -30  606.41   49.99
  13  10 -27    3.32   43.96
  13  10 -24  195.58   92.03
  13  10 -18  100.92   32.15
  13  10 -15 1559.91  108.84
  13  10  -6  867.35   40.51
  13  10  -3 1813.55  242.98
  13  10   0  462.39   80.70
  13  10   3 2150.40   57.98
  13  10   6 2608.28  102.36
  13  10   9  425.39  114.75
  13  10  15  151.17   53.11
  13  10  21 2542.75  285.76
  13  10  24 4863.51  331.17
  13  10  30  432.95  152.20
  13  10  51  370.29   63.59
  13  10  54  159.76   78.81
  13  10  57    1.53   81.18
  13  10  60  147.69   76.23
  13  10  69    2.86   50.77
  13  10  72   29.15   76.58
  13  11 -64  110.24   84.84
  13  11 -61   31.71   74.75
  13  11 -58  269.90  121.32
  13  11 -55  513.27   93.19
  13  11 -46  110.68   53.21
  13  11 -31  351.81   99.02
  13  11 -28  356.85  104.32
  13  11 -25  197.13   75.49
  13  11 -22  340.22   60.27
  13  11 -19   47.08   22.64
  13  11 -16 5148.36  275.67
  13  11 -1314964.54  361.25
  13  11  -4 1046.30  144.59
  13  11  -113563.57  450.66
  13  11   213256.65  277.82
  13  11   5  309.34   28.74
  13  11   8 1331.80  191.50
  13  11  14 5336.17  282.04
  13  11  17  960.28   82.25
  13  11  23  182.79   84.73
  13  11  26  366.89   62.12
  13  11  32  230.88  101.77
  13  11  35  281.39   79.52
  13  11  50   78.09   84.15
  13  11  59  239.32  167.15
  13  11  71   29.66   55.59
  13  12 -71   49.14   53.88
  13  12 -65   76.92  129.47
  13  12 -50  193.20  104.78
  13  12 -44  120.81   95.05
  13  12 -41  208.22   62.77
  13  12 -38  301.12   61.51
  13  12 -35  119.05   65.55
  13  12 -29  682.39   81.96
  13  12 -26    2.53   44.86
  13  12 -23 1488.99  143.38
  13  12 -20  307.50  102.20
  13  12 -17 5422.26  297.11
  13  12 -14  887.91   92.07
  13  12 -11 4313.05  256.44
  13  12  -8  208.72  114.34
  13  12  -5 5304.36  261.26
  13  12   1 1030.27   64.43
  13  12   7 1006.91  136.51
  13  12  10  105.35   74.57
  13  12  13 3438.99  130.73
  13  12  16 2904.84  113.03
  13  12  19  141.88   82.91
  13  12  22 1578.68  116.26
  13  12  34  218.70   95.57
  13  12  37   97.49   61.22
  13  12  40  108.54   81.35
  13  12  46  309.54  138.70
  13  12  55  461.69  125.95
  13  12  61  599.67   92.41
  13  12  64    0.98   72.50
  13  12  70   62.71   52.28
  13  13 -66  274.97   63.67
  13  13 -60    8.56   67.05
  13  13 -51  211.82   57.58
  13  13 -48  584.34   93.81
  13  13 -36  507.78   88.12
  13  13 -33   87.89   67.19
  13  13 -30  146.46   68.48
  13  13 -24 1449.98  123.06
  13  13 -21 1925.70   99.13
  13  13 -12 6093.28  243.15
  13  13  -917378.07  446.26
  13  13  -3 8839.54  279.45
  13  13   0 3420.43  170.18
  13  13   3 2982.50  112.51
  13  13   9 2575.77  117.90
  13  13  15  280.00   52.20
  13  13  18  180.53   83.74
  13  13  21  724.02  100.66
  13  13  24 1714.09  220.93
  13  13  27 2701.15  267.34
  13  13  30 2849.51  362.78
  13  13  36 1189.19  153.50
  13  13  42  156.22   72.03
  13  13  54  328.89   88.29
  13  13  57  726.34  134.59
  13  14 -70  139.43   98.40
  13  14 -64    0.84   59.82
  13  14 -52  142.27   64.42
  13  14 -49  816.02  157.40
  13  14 -46   63.46   65.20
  13  14 -43  120.32   52.45
  13  14 -37  542.65  120.67
  13  14 -34   94.96  100.52
  13  14 -31   55.09   48.19
  13  14 -28   36.26   35.12
  13  14 -22  486.79   74.18
  13  14 -13   19.72   27.73
  13  14  -7 6357.65  327.04
  13  14   2 1366.21  114.95
  13  14   8 9619.86  342.09
  13  14  11 2489.35  144.08
  13  14  14  982.16   95.07
  13  14  17  266.74   30.56
  13  14  20  514.34  129.19
  13  14  23  613.06   88.33
  13  14  26  504.12   96.27
  13  14  32  908.42  172.73
  13  14  35  553.84   82.43
  13  14  38  704.47  107.98
  13  14  50   45.46   63.15
  13  14  53  230.14  120.40
  13  15 -68   46.59   83.83
  13  15 -41   74.92  124.23
  13  15 -38  150.88   43.49
  13  15 -35   74.88   74.39
  13  15 -26  572.19   73.48
  13  15 -23 1343.97  124.99
  13  15 -20   77.16   68.11
  13  15 -17   14.62   49.42
  13  15 -14  732.96  105.11
  13  15  -5 8376.87  360.22
  13  15  -2 3949.93  257.44
  13  15   1 3670.76  223.03
  13  15   4 9705.64  329.84
  13  15   7 1829.41  159.09
  13  15  10   90.78   28.48
  13  15  13   52.15   33.92
  13  15  16  688.90   61.06
  13  15  19  213.30   83.79
  13  15  22  344.36   50.01
  13  15  25  694.63  130.71
  13  15  31  285.99   63.23
  13  15  43  433.54  107.62
  13  15  46  110.38   72.88
  13  15  49  457.38  122.81
  13  15  55  339.85   85.06
  13  15  64   33.91   91.54
  13  16 -66    0.41  159.22
  13  16 -63    0.41  170.30
  13  16 -60  540.52  107.17
  13  16 -57  173.68   70.34
  13  16 -54  152.20   74.30
  13  16 -48  127.36   61.20
  13  16 -42  534.49   78.72
  13  16 -39   49.19   56.38
  13  16 -30  922.76   94.95
  13  16 -27   94.39   60.41
  13  16 -21  224.68   44.45
  13  16 -18  191.88   23.51
  13  16 -15 4844.32  405.17
  13  16 -12  378.82  120.50
  13  16  -9 1859.50  151.04
  13  16  -6 2117.14  179.68
  13  16  -3  853.39   83.94
  13  16   6  947.52   90.39
  13  16   9 1259.56  134.00
  13  16  12  108.20   40.83
  13  16  15  114.97   37.45
  13  16  18  126.96   43.85
  13  16  21 1456.02  139.89
  13  16  24   96.96   51.62
  13  16  27  236.61   66.03
  13  16  30  269.74   75.91
  13  16  33   56.05   65.95
  13  16  36 1059.93  152.27
  13  16  39  218.19  112.71
  13  16  45  357.89  141.37
  13  16  48   35.87  117.91
  13  16  54  165.50   80.79
  13  16  63   55.30   60.27
  13  16  66  222.60   65.58
  13  17 -67  170.31  163.90
  13  17 -58  181.74  125.79
  13  17 -52   92.76  190.39
  13  17 -49  252.23   73.70
  13  17 -46  480.23   64.87
  13  17 -37  260.42   70.19
  13  17 -28   43.30   55.15
  13  17 -25 2092.43  276.35
  13  17 -22 1105.54  116.63
  13  17 -19 1103.85  156.62
  13  17 -13  618.92   98.05
  13  17 -10 1457.81  141.34
  13  17  -7 1013.56  127.33
  13  17  -1  112.27   36.03
  13  17   2 1592.23  191.47
  13  17   5  408.28   56.22
  13  17   8 1876.98  115.45
  13  17  14  166.46   26.72
  13  17  17  347.71   40.14
  13  17  20  500.20   84.37
  13  17  26   78.44  103.19
  13  17  29   49.24   50.63
  13  17  32  386.34  141.46
  13  17  35  247.79  122.16
  13  17  53  147.30  134.96
  13  17  59   72.98  100.20
  13  17  62  127.41   62.40
  13  18 -50    3.56   86.81
  13  18 -47   81.03   93.82
  13  18 -41   87.82   55.42
  13  18 -35   87.31   65.09
  13  18 -32   19.94   69.75
  13  18 -29   56.92   53.22
  13  18 -23 1136.73  197.13
  13  18 -17  124.28   44.14
  13  18 -14   72.08   61.39
  13  18 -11  934.12  127.88
  13  18  -5  601.27  101.42
  13  18  -2  839.56  121.51
  13  18   4   19.93   38.62
  13  18   7  116.09   25.41
  13  18  10   63.89   31.21
  13  18  13  517.36   91.29
  13  18  16 2048.12  207.60
  13  18  19  189.61  102.71
  13  18  22  245.71   53.60
  13  18  25  293.72  121.28
  13  18  28  151.03   77.57
  13  18  37    2.13   77.83
  13  18  52  239.86  160.88
  13  19 -63  138.20  166.89
  13  19 -51  124.47   68.81
  13  19 -39    0.47   74.11
  13  19 -36  675.88  228.72
  13  19 -30  170.38   69.40
  13  19 -27 1637.32  225.47
  13  19 -21  692.58  142.54
  13  19 -18 1135.73  122.91
  13  19 -15  650.18   77.41
  13  19 -12 1572.73  214.99
  13  19  -9 2085.69  278.74
  13  19  -6 1866.68  191.63
  13  19  -3  330.93   74.00
  13  19   0 2158.96  362.27
  13  19   3 1499.68  141.09
  13  19   6 3600.01  208.07
  13  19   9  248.71   58.95
  13  19  15  749.79   69.58
  13  19  18   97.94   42.87
  13  19  24  582.70  114.58
  13  19  30   34.66   53.53
  13  19  36  257.07  120.64
  13  19  45  138.00  147.49
  13  19  51   59.01  122.80
  13  19  54  109.17  144.80
  13  19  57   37.08   90.02
  13  20 -58   32.84  132.35
  13  20 -40  352.72   79.27
  13  20 -37  296.02  131.16
  13  20 -34  372.52   97.99
  13  20 -31   18.09   81.45
  13  20 -28  234.67   69.53
  13  20 -16 1539.14  146.23
  13  20 -13  875.66  131.28
  13  20 -10 1024.76  140.55
  13  20  -4 2194.86  260.78
  13  20  -1 1996.72  329.65
  13  20   2 5555.33  391.18
  13  20   5  603.78  112.57
  13  20   8  266.91  101.29
  13  20  11 3200.67  269.51
  13  20  14  827.68   80.30
  13  20  20   68.68   52.06
  13  20  23  167.36   46.84
  13  20  29   63.27   59.43
  13  20  32  286.29   84.97
  13  20  35  438.70   47.92
  13  20  38  503.24  110.73
  13  20  41  230.42   87.92
  13  20  47   35.45  155.26
  13  20  59  129.60   76.33
  13  21 -53  915.76  171.58
  13  21 -38  249.56   67.29
  13  21 -14  229.59   73.42
  13  21 -11  158.95   55.81
  13  21  -8 3964.61  277.86
  13  21  -5 1910.06  215.66
  13  21   1 1015.60  197.57
  13  21   4  372.11  120.72
  13  21  10  777.35  138.81
  13  21  16  321.98   60.72
  13  21  19    2.79   46.62
  13  21  25  140.00   79.22
  13  21  31   97.06   66.10
  13  21  34  105.61   69.61
  13  21  52   37.67   99.05
  13  22 -60  100.65  125.77
  13  22 -57  302.45  122.23
  13  22 -39  212.41   94.19
  13  22 -21   70.01   70.97
  13  22 -12  446.55  116.22
  13  22  -9  183.69   76.64
  13  22  -3   43.77   69.86
  13  22   6  438.95   67.34
  13  22   9  307.90   99.13
  13  22  12    3.83   81.47
  13  22  18  115.95   58.08
  13  22  21 1528.89  147.42
  13  22  24   13.76   71.06
  13  22  48  186.40   65.49
  13  22  57  203.90  156.34
  13  22  60  104.09  105.10
  13  23 -55   33.75   74.20
  13  23 -46   77.40  165.98
  13  23 -40   53.00  102.05
  13  23 -34  341.66  110.37
  13  23 -28  589.75   85.66
  13  23 -25  318.32   97.60
  13  23 -22  744.30  122.17
  13  23 -19 1212.56  175.28
  13  23 -16  864.75  150.08
  13  23  -1  671.13  131.52
  13  23   2  271.22  100.65
  13  23   5  309.90   74.52
  13  23  11  544.39   77.06
  13  23  14   37.71   81.98
  13  23  17  286.70  171.05
  13  23  20  978.00  117.56
  13  23  23 1010.35  156.12
  13  23  29  382.78   71.87
  13  23  35  167.90  101.08
  13  23  38   13.88   83.85
  13  23  41   34.84   77.33
  13  23  44   86.00   58.53
  13  23  50  171.39   66.52
  13  24 -53  225.06  205.87
  13  24 -50   67.68  104.34
  13  24 -38   56.79  248.26
  13  24 -32  314.36  104.38
  13  24 -14  598.88  106.28
  13  24 -11  160.06   76.95
  13  24  -5  902.28  130.66
  13  24  -2  422.32   75.11
  13  24   7  225.12   65.97
  13  24  13   47.19   72.10
  13  24  28  140.24  101.71
  13  24  40  188.70  108.71
  13  24  43   38.70  101.49
  13  24  49   13.33   70.15
  13  25 -54    6.13  130.64
  13  25 -36   81.35   84.01
  13  25 -27  194.29  105.15
  13  25 -18   73.88   48.37
  13  25 -12  279.12   90.43
  13  25  -9  312.36   89.45
  13  25  -6  316.29   62.81
  13  25   3  737.99  177.56
  13  25  24    0.06  106.67
  13  25  30    9.37  108.39
  13  25  33  457.65   77.19
  13  25  51  183.50   85.03
  13  26 -52   22.09  141.32
  13  26 -46   22.75  108.91
  13  26 -43   66.60   65.73
  13  26 -37  135.09   95.91
  13  26 -31  449.60   98.51
  13  26 -28  375.51   84.36
  13  26 -13  174.49   68.16
  13  26 -10  148.04   87.91
  13  26   2   51.93   93.40
  13  26   5  449.66  235.58
  13  26  20  146.55   76.16
  13  26  26  113.66   96.93
  13  26  29  164.11  131.21
  13  26  44   38.44   66.74
  13  27 -32  262.91   97.68
  13  27 -29  380.88  159.79
  13  27 -23   13.56  180.65
  13  27 -20  376.50  157.17
  13  27 -11  267.52  180.03
  13  27  -2   85.41   72.69
  13  27   1  610.58  171.88
  13  27   4  137.60  148.05
  13  27   7  273.51   79.03
  13  27  10  346.49   70.10
  13  27  16   15.47  105.67
  13  27  22  664.44   86.60
  13  27  25  602.00   95.24
  13  27  28  470.50  205.21
  13  27  37  425.57  214.52
  13  28 -36  403.52  130.63
  13  28 -24  198.48  190.54
  13  28 -21  125.68  125.69
  13  28 -18  155.13  124.52
  13  28 -12   65.65  104.00
  13  28  -6   44.05  125.26
  13  28  -3    4.12  140.99
  13  28   3  227.63   80.65
  13  28   9  224.31   82.36
  13  28  12  164.68   57.23
  13  28  15  175.45  130.08
  13  28  30  147.47  120.93
  13  28  48  127.55  117.30
  13  29 -46  318.46  151.22
  13  29 -43   80.23  133.06
  13  29 -25   49.11  105.39
  13  29  -7  234.43  132.70
  13  29   2  341.94  212.18
  13  29   5  124.40   56.41
  13  29   8   11.03   80.89
  13  29  23  331.82   82.53
  13  29  29  149.13   68.83
  13  29  32   13.53  138.83
  13  29  38  103.37  134.17
  13  29  41   14.07  134.32
  13  29  44  207.14  149.44
  13  30 -35  172.44  197.69
  13  30 -29  196.36  136.30
  13  30 -23   44.80  171.94
  13  30  -2  112.93  243.82
  13  30  10  291.77   79.28
  13  30  13  263.36   75.04
  13  30  16   91.36   88.44
  13  30  22   56.21  118.83
  13  30  28  107.01  108.19
  13  30  31   51.32  251.85
  13  30  37   10.71  155.59
  13  30  40    0.00   91.16
  13  31 -39  133.91  170.68
  13  31  -9   95.93  156.81
  13  31   0  311.32  198.83
  13  31   3   93.02  111.28
  13  31  15  204.08   87.41
  13  31  18  224.64  265.10
  13  31  21  138.80  100.37
  13  31  27  205.73  190.05
  13  31  30  229.40  183.69
  13  32 -28   61.98  209.53
  13  32 -22   17.81  105.97
  13  32 -19   26.69  145.30
  13  32 -13  228.01  197.76
  13  32  20   33.42  313.83
  13  32  23  477.62  163.30
  13  32  32  229.39  167.62
  13  33 -32  332.54  180.72
  13  33 -29   25.28  113.52
  13  33 -26   79.48  212.14
  13  33 -14   16.91  202.50
  13  33  -5  211.31  102.56
  13  33   7  270.17  153.16
  13  33  13  183.40  108.52
  13  33  25   83.30  237.79
  13  33  28  222.42  140.55
  13  34 -30  164.00  148.77
  13  34 -15  145.33  134.74
  13  34 -12   28.53  103.52
  13  34  12  153.54   66.74
  13  35 -28  306.59  122.48
  13  35 -25   79.15  175.17
  13  35 -22  178.13  180.88
  13  35  -1  249.37   86.80
  13  35   8  235.03   63.54
  13  35  11   67.92  305.76
  13  35  17  186.51   83.16
  13  35  20   73.86  157.50
  13  35  23   46.66   98.91
  13  35  29  202.46  237.77
  13  36 -23   37.50  125.71
  13  36 -20  443.07  301.21
  13  36 -17   64.07  140.20
  13  36 -11   83.73  125.44
  13  36  -2   41.70  103.38
  13  36   1   50.56   85.34
  13  36   7   86.22   85.75
  13  36  22  146.37   91.46
  13  37   9   38.30   84.73
  13  37  15  167.19  143.83
  13  38   2  156.46   47.44
  13  38   5   18.64  109.88
  14   1 -77  103.76   68.90
  14   1 -74  350.38   68.54
  14   1 -71    0.33   57.10
  14   1 -62  230.39   55.79
  14   1 -59   65.45   66.32
  14   1 -50  221.13   62.17
  14   1 -47  185.88   45.28
  14   1 -44  462.45   94.01
  14   1 -38  686.33   77.93
  14   1 -35   92.05   67.71
  14   1 -32 2385.87  188.25
  14   1 -29 5370.95  208.55
  14   1 -26 1455.99   81.75
  14   1 -2310356.66  283.91
  14   1 -1768227.38 1136.78
  14   1 -1420584.46  310.34
  14   1 -1120953.12  233.62
  14   1  -843899.64  437.12
  14   1  -5  676.23   65.30
  14   1  -213240.50  151.13
  14   1   1 4752.72   74.51
  14   1   7  547.90   87.73
  14   1  10 8850.15  195.56
  14   1  16   19.19  102.18
  14   1  19  391.28   88.34
  14   1  22 1549.01  151.54
  14   1  25 6780.33  138.46
  14   1  31 1158.88  143.30
  14   1  34  642.35   93.14
  14   1  46  728.28  167.57
  14   1  52   34.24   98.17
  14   1  67   42.69   71.25
  14   1  73   25.65   86.53
  14   2 -72    1.39   71.96
  14   2 -69  121.13   65.70
  14   2 -60  280.96  140.59
  14   2 -54   87.10   53.76
  14   2 -45  349.87   66.49
  14   2 -39  685.57  142.05
  14   2 -33  561.85  123.21
  14   2 -30 2077.01  170.44
  14   2 -27 6673.36  244.81
  14   2 -24 4137.10  115.02
  14   2 -2118944.68  387.82
  14   2 -15 9409.77  268.28
  14   2 -12 3396.21  203.37
  14   2  -9 1534.53   80.23
  14   2  -6 1891.07  113.27
  14   2  -3 1566.25   71.10
  14   2   018253.67  218.64
  14   2   3  435.87   21.31
  14   2   6    5.93   45.31
  14   2   9 1428.89   27.49
  14   2  12  722.06   71.23
  14   2  15 2470.28  110.28
  14   2  18  933.69   49.99
  14   2  2110743.74  313.65
  14   2  24  500.62   40.86
  14   2  27 3434.57  155.43
  14   2  33  223.06   96.48
  14   2  36  818.95   73.17
  14   2  42  328.35  244.87
  14   2  45  252.64   89.43
  14   2  60   64.32   53.09
  14   2  69  279.66  101.28
  14   2  72   58.04   46.20
  14   2  75   23.67   74.33
  14   3 -76    1.70   60.95
  14   3 -73   27.79   76.82
  14   3 -64   90.83   51.25
  14   3 -55  279.19   92.96
  14   3 -52  137.40   58.60
  14   3 -49  104.82   59.08
  14   3 -46   24.00   35.13
  14   3 -40 1908.00  163.60
  14   3 -34  107.99   37.66
  14   3 -28 2229.10  165.32
  14   3 -25 4100.14  246.51
  14   3 -22 5762.52  184.92
  14   3 -1921768.06  476.19
  14   3 -16  503.24  115.44
  14   3 -1386349.17 1265.33
  14   3 -10  806.61  180.23
  14   3  -7 1436.99   70.99
  14   3  -4 4688.39  158.28
  14   3  -1 7588.93  154.68
  14   3   2 1867.38   91.83
  14   3   5 6059.11  147.82
  14   3   8  211.50   65.93
  14   3  11    5.11   53.03
  14   3  14 2868.38   55.80
  14   3  17 2591.05  200.57
  14   3  20  157.76   86.79
  14   3  23 1337.15  137.06
  14   3  26 1991.79  185.86
  14   3  29  431.11   74.50
  14   3  32 3016.99  217.21
  14   3  35  781.31  114.13
  14   3  38 2954.41  157.04
  14   3  41  340.45   56.49
  14   3  44  574.88  178.26
  14   3  59  324.21   71.45
  14   3  62  226.30  115.23
  14   3  68  207.11   62.75
  14   3  71  136.14   49.15
  14   4 -71   66.28   60.53
  14   4 -65  143.51   79.73
  14   4 -53  469.19   87.23
  14   4 -41  133.44   67.97
  14   4 -38   56.98   73.54
  14   4 -35  389.64   77.47
  14   4 -32 4970.24  369.26
  14   4 -23 7827.89  312.09
  14   4 -20  458.34  245.46
  14   4 -17 2718.12  118.56
  14   4 -14 2309.05  229.57
  14   4 -1125287.56  533.83
  14   4  -8    1.90   68.60
  14   4  -5 4678.57  110.97
  14   4  -2  519.80   63.74
  14   4   1  895.65  148.61
  14   4   4  266.60   38.73
  14   4   7  682.33   67.43
  14   4  1012116.31  238.06
  14   4  13 2196.57  217.31
  14   4  16   83.25   41.35
  14   4  22  275.29   46.20
  14   4  28 8996.83  298.10
  14   4  34 3898.85  222.19
  14   4  40  325.22   42.46
  14   4  43 1237.06  196.85
  14   4  49  482.29   67.74
  14   4  61  723.99  159.73
  14   4  73   37.78   52.53
  14   5 -69  152.35   75.25
  14   5 -45   81.36   51.41
  14   5 -33 3464.57  246.35
  14   5 -30 1079.62  138.21
  14   5 -24 1910.93  182.62
  14   5 -21 4705.26  355.45
  14   5 -15 4631.79  275.51
  14   5 -12 1581.74  144.25
  14   5  -922932.72  328.81
  14   5  -6 1049.52  175.88
  14   5  -3   75.28   65.02
  14   5   0 1242.95  101.92
  14   5   3 1788.09  156.54
  14   5   6  695.98  116.99
  14   5   9  104.40   57.39
  14   5  12  682.07   30.61
  14   5  15  360.34   98.00
  14   5  18    0.15   68.15
  14   5  24  559.05   44.50
  14   5  27 3596.86  236.21
  14   5  30  209.25   42.14
  14   5  33 1827.33  221.44
  14   5  36 1075.33  134.83
  14   5  45   62.11   87.54
  14   5  48   62.43   62.93
  14   5  51  236.67   87.04
  14   5  54   70.35   91.78
  14   5  63  187.45  122.20
  14   5  66  283.52   69.69
  14   5  69    3.96   58.54
  14   5  75   35.48   50.66
  14   6 -67  161.11   58.05
  14   6 -58   98.83  102.22
  14   6 -55   36.43   33.01
  14   6 -46   40.66   69.35
  14   6 -40   74.41   85.11
  14   6 -31  860.09  103.08
  14   6 -25  889.86  117.00
  14   6 -22 1604.63  136.50
  14   6 -19 5271.24  243.35
  14   6 -13 4079.76  192.18
  14   6 -10   89.56   64.82
  14   6  -7 3346.82  198.63
  14   6  -4 2973.27  231.25
  14   6  -1 4344.97   86.75
  14   6   2   24.89   41.84
  14   6   511135.33  235.59
  14   6   810416.55  166.30
  14   6  11    3.11   35.52
  14   6  14  308.61  106.41
  14   6  17 1596.82  149.87
  14   6  20  231.06   86.52
  14   6  23  519.78   74.72
  14   6  26 1812.41   95.47
  14   6  29 8144.39  307.98
  14   6  32  437.73   58.69
  14   6  35  237.49  108.01
  14   6  38   62.02  102.73
  14   6  41 1753.83  230.03
  14   6  47  525.53  123.03
  14   6  53   56.74   74.06
  14   6  56  124.26   56.26
  14   6  59   34.70   97.25
  14   6  68   12.98   72.29
  14   6  74   17.46   71.98
  14   7 -74  170.97   85.42
  14   7 -68   49.59   67.58
  14   7 -53  215.95  111.02
  14   7 -50  212.93   95.32
  14   7 -41  662.03   92.43
  14   7 -38   88.75   67.58
  14   7 -35  470.40   62.65
  14   7 -32  943.32  139.39
  14   7 -29 1483.02  155.48
  14   7 -26 4063.94  209.10
  14   7 -23  893.65  169.89
  14   7 -17 6165.86  524.86
  14   7 -14 5013.83  201.96
  14   7 -11 3587.07  179.59
  14   7  -8  134.20   44.45
  14   7  -515997.92  317.24
  14   7  -2  435.89  104.04
  14   7   1 3234.12  168.79
  14   7   4  233.06   59.49
  14   7   7 1340.94   41.38
  14   7  1011794.37  144.43
  14   7  16  112.20   38.63
  14   7  19    7.54   45.26
  14   7  25  322.54   42.47
  14   7  28  295.99   81.22
  14   7  34  366.75   75.46
  14   7  37  810.02  112.54
  14   7  40  128.41   72.35
  14   7  46   69.72   77.73
  14   7  49   65.54   79.10
  14   7  58    0.01  108.41
  14   8 -72    2.38   57.42
  14   8 -69    6.20   89.94
  14   8 -60  137.71   48.36
  14   8 -57  122.92   53.25
  14   8 -54  382.18   77.54
  14   8 -36  689.05   77.39
  14   8 -33  361.17   40.91
  14   8 -27  205.79   88.31
  14   8 -24 1572.65  118.54
  14   8 -21 7053.10  445.25
  14   8 -1814789.65  628.27
  14   8 -15 8878.81  278.04
  14   8  -6 6627.50  271.78
  14   8  -3  795.26   67.68
  14   8   0  699.66   45.19
  14   8   3  191.08  126.27
  14   8   6 4754.83  197.94
  14   8  12  304.21   65.86
  14   8  15  358.63   43.78
  14   8  18 1102.64   73.89
  14   8  21 1347.18  134.99
  14   8  24 2693.66  185.85
  14   8  33   66.67  101.73
  14   8  36  691.96  123.72
  14   8  39 1881.92  240.81
  14   8  42  347.78   99.35
  14   8  48  114.37  101.43
  14   8  57  310.42  100.91
  14   8  60  241.02  109.21
  14   8  66  295.90  106.61
  14   8  69  109.59   59.81
  14   8  72   31.10   65.75
  14   9 -70  125.45   74.66
  14   9 -67  119.70   62.59
  14   9 -55   47.87   55.25
  14   9 -52  230.53   65.42
  14   9 -49  128.21   67.25
  14   9 -46  373.57   80.45
  14   9 -37 1022.56  124.01
  14   9 -34  435.47   54.02
  14   9 -31 1526.01  115.51
  14   9 -28  354.98  135.40
  14   9 -22  964.28  109.08
  14   9 -19 1885.94  131.11
  14   9 -16 1110.56   99.06
  14   9 -10  783.26  107.13
  14   9  -7 2512.41  232.67
  14   9  -4 1567.58  104.57
  14   9  -1 3940.17  213.89
  14   9   2  536.97   86.30
  14   9   5  384.67   85.51
  14   9   8  651.90   55.19
  14   9  17 1982.26  170.58
  14   9  20 5665.24  321.63
  14   9  23 2670.66  192.36
  14   9  26 2410.59  243.27
  14   9  32  472.77  124.82
  14   9  35 1704.15  189.70
  14   9  38 1416.13  142.29
  14   9  50   53.77   97.86
  14   9  56   83.86   83.87
  14  10 -65  106.89   85.90
  14  10 -62  220.06   82.90
  14  10 -56   62.93   74.26
  14  10 -47  247.70   50.28
  14  10 -41  186.50   48.06
  14  10 -32   54.48   54.09
  14  10 -29   33.92   48.72
  14  10 -23 2301.26  203.86
  14  10 -20 4217.66  311.24
  14  10 -14 1517.18  112.14
  14  10 -11 4816.86  270.41
  14  10  -8 4772.93  299.28
  14  10  -5 6662.69  273.52
  14  10  -2 6475.72  175.59
  14  10   4 3301.21  157.98
  14  10  10 2232.15   85.11
  14  10  16 5248.72  324.06
  14  10  19 1254.06  117.43
  14  10  25 2105.56  135.94
  14  10  28   55.95   77.95
  14  10  31  323.62   67.34
  14  10  34 2517.44  231.01
  14  10  37  365.11  101.25
  14  10  55  190.08   78.83
  14  10  58  428.04   88.94
  14  10  67   16.46   78.94
  14  11 -72  100.53  114.54
  14  11 -66    0.55   70.91
  14  11 -63   17.62   49.04
  14  11 -57  530.37  138.96
  14  11 -54  180.83   75.87
  14  11 -51  161.23   54.76
  14  11 -45  173.49   81.50
  14  11 -42  212.73   99.32
  14  11 -30 4442.19  246.60
  14  11 -27  787.79   90.54
  14  11 -24  221.51   39.56
  14  11 -21  776.79   55.88
  14  11 -18   64.36   93.12
  14  11 -15 3019.88  156.95
  14  11  -9  256.23   41.47
  14  11  -6 7130.52  287.75
  14  11  -311490.50  333.15
  14  11   6  418.79  106.45
  14  11   9 3952.43  167.47
  14  11  12  136.45   44.38
  14  11  15  455.84   33.91
  14  11  18   54.32   51.90
  14  11  21 9002.21  459.37
  14  11  27 1847.08  132.60
  14  11  33  148.49   90.41
  14  11  36  267.76  134.05
  14  11  39  248.32  151.85
  14  11  42   84.63   54.15
  14  11  45  313.71   85.09
  14  11  48  299.14   98.98
  14  11  63    0.62  147.33
  14  12 -70   30.14   60.89
  14  12 -67   87.04   50.99
  14  12 -61  106.30   67.76
  14  12 -55  155.11   62.91
  14  12 -52  243.79   93.47
  14  12 -49  146.98  111.14
  14  12 -43   22.69   61.87
  14  12 -34  778.91  241.57
  14  12 -25 1787.98  133.95
  14  12 -22  149.91   41.45
  14  12 -19  315.45   48.65
  14  12 -16  425.68   98.53
  14  12 -13 6174.90  299.42
  14  12  -733084.01  911.14
  14  12  -4   82.32   73.57
  14  12  -1  375.03   51.08
  14  12   2 7703.06  253.12
  14  12   5 2161.22  151.12
  14  12   8 1678.37  111.66
  14  12  17  863.51  150.99
  14  12  20  114.94   67.06
  14  12  23 1022.32  136.47
  14  12  29  126.78   89.68
  14  12  32  434.85   80.34
  14  12  44  264.37   95.35
  14  12  59  144.73   73.36
  14  12  65    3.93   67.38
  14  13 -65   66.28  121.70
  14  13 -56  214.00   63.64
  14  13 -38   45.52   42.64
  14  13 -35  224.54   53.24
  14  13 -32  106.87   53.43
  14  13 -26 1089.16  127.04
  14  13 -23  414.00   60.81
  14  13 -20  143.60   24.48
  14  13 -17  463.04   38.00
  14  13 -14 1889.65  140.85
  14  13 -11 2547.90  209.58
  14  13  -8  239.97   48.93
  14  13  -5 2408.70  195.72
  14  13  -2 1653.47  111.09
  14  13   1 2485.16  143.48
  14  13   7  408.02   76.50
  14  13  19  266.79   76.97
  14  13  22  608.29   85.21
  14  13  28 2418.16  218.23
  14  13  31  286.10   95.72
  14  13  40  560.84  114.47
  14  13  70   95.62   53.78
  14  14 -63  153.35   66.85
  14  14 -60    6.79   55.22
  14  14 -57   28.95   57.06
  14  14 -54   66.24   68.06
  14  14 -48    9.91   66.60
  14  14 -45  169.50  100.23
  14  14 -33  217.84   94.50
  14  14 -30  505.37   68.39
  14  14 -27  132.98   63.31
  14  14 -24  483.78   89.33
  14  14 -21 1341.82  151.22
  14  14 -18  805.79  225.63
  14  14 -15    5.91   28.13
  14  14 -12  251.92  134.78
  14  14  -9 8237.21  360.05
  14  14  -6 4148.71  208.22
  14  14  -3  135.70   38.03
  14  14   0 2886.35  187.41
  14  14   3  448.28  136.48
  14  14   6  954.22   89.73
  14  14   9  513.36   30.88
  14  14  12  338.94   53.35
  14  14  18 1807.73  159.12
  14  14  30   47.69   81.14
  14  14  33  220.78   49.50
  14  14  36  203.35  143.76
  14  14  39  533.80   84.43
  14  14  60   15.00   78.72
  14  14  69   95.01   72.49
  14  15 -67    6.96  147.92
  14  15 -64  155.85  109.12
  14  15 -61    0.24  125.83
  14  15 -58  230.76   80.42
  14  15 -55   76.45   88.02
  14  15 -49    0.02   56.66
  14  15 -31  110.34  108.89
  14  15 -28 1667.29  129.18
  14  15 -25  931.06  148.47
  14  15 -22 1194.16  211.63
  14  15 -19  278.65  123.39
  14  15 -13 4778.90  295.33
  14  15 -10  577.01   65.53
  14  15  -7  149.23   70.68
  14  15  -4 2470.78  182.07
  14  15  -1 4957.33  303.37
  14  15   8  287.35   62.32
  14  15  11 1561.51  104.64
  14  15  17  357.27   56.80
  14  15  23 1045.59  101.74
  14  15  26  332.88  111.10
  14  15  29  499.27  183.88
  14  15  32  276.92  128.65
  14  15  38   22.91   81.91
  14  15  44   24.28   76.34
  14  15  47  221.44   82.96
  14  15  53  126.82  101.05
  14  15  56   64.64  144.49
  14  15  59   36.68   92.13
  14  15  62    1.17   70.16
  14  15  65  229.15   47.03
  14  15  68   55.05   60.26
  14  16 -59  207.99   79.17
  14  16 -50  568.55  110.08
  14  16 -38    6.70   76.41
  14  16 -35  672.45   93.72
  14  16 -32  596.22   64.32
  14  16 -23 2494.15  330.27
  14  16 -20   75.32   39.14
  14  16 -14  101.65   45.98
  14  16 -11  483.89   86.11
  14  16  -5 2170.16  108.92
  14  16  -2  709.09  105.84
  14  16   1 1573.07  156.74
  14  16   4 3062.69  190.26
  14  16  13  361.50   29.24
  14  16  16 1016.61   88.64
  14  16  19  214.58   79.71
  14  16  31  536.34  219.60
  14  16  34  181.35   87.29
  14  16  52  363.22   97.41
  14  16  55   83.02   86.09
  14  16  61  157.05   75.77
  14  16  64    4.97   65.03
  14  17 -66    2.12  103.64
  14  17 -63  117.44  218.77
  14  17 -60   95.46   84.95
  14  17 -48  446.94  141.38
  14  17 -36   66.59   92.59
  14  17 -30  775.88   79.15
  14  17 -18  545.38   81.92
  14  17 -15  421.69  145.22
  14  17 -12   42.18   37.42
  14  17  -6   92.17   34.47
  14  17   0  370.58   54.74
  14  17   6  871.86  140.25
  14  17   9  210.82   37.85
  14  17  12  336.12   58.14
  14  17  15 1276.72  100.98
  14  17  24  287.50   54.37
  14  17  30  235.15   61.81
  14  17  33  212.63   93.58
  14  17  45   53.38   79.20
  14  18 -61   22.38  101.98
  14  18 -55   45.88  107.42
  14  18 -46   97.23   67.02
  14  18 -43   42.32  108.48
  14  18 -31  752.86  102.84
  14  18 -22  780.15  224.36
  14  18 -19  664.36  130.32
  14  18 -16    0.01   74.60
  14  18 -10 1704.66  172.11
  14  18  -7  323.04  103.91
  14  18  -4  480.90   89.90
  14  18  -1  577.49   63.48
  14  18   2  105.14  122.95
  14  18   5  306.28   57.21
  14  18   8   70.03   71.60
  14  18  11   82.22   57.94
  14  18  14   36.67   54.41
  14  18  17 1079.91   87.35
  14  18  23  489.76   62.43
  14  18  26   68.94   73.46
  14  18  29  295.41   66.23
  14  18  41  772.42  110.01
  14  18  44   73.92  114.47
  14  18  50  132.27  124.18
  14  18  62   21.07   88.57
  14  19 -62   23.86  101.56
  14  19 -53   63.39  112.83
  14  19 -47  349.71   94.51
  14  19 -26  276.38   77.98
  14  19 -17  343.65  102.01
  14  19 -14  267.59   67.35
  14  19 -11  375.78   55.21
  14  19  -8  388.83   61.87
  14  19  -2 2772.51  177.20
  14  19   1  281.02  111.17
  14  19   4  321.45   58.20
  14  19   7 1455.06  134.73
  14  19  10  367.05   68.18
  14  19  13  941.40  244.55
  14  19  16  803.05  152.32
  14  19  19   13.06   86.67
  14  19  25  308.46   82.42
  14  19  28   44.96   57.97
  14  19  34  172.37   60.41
  14  19  37  585.31   77.69
  14  19  43  247.57  107.77
  14  19  52  543.80  112.53
  14  20 -60  114.42   80.92
  14  20 -48   79.53  138.63
  14  20 -42  315.05  105.09
  14  20 -39  317.54  145.11
  14  20 -36 1192.16  105.09
  14  20 -27  191.65  143.06
  14  20 -24  706.66  124.51
  14  20 -21   25.93   70.39
  14  20 -18  150.40   90.13
  14  20 -15  429.43  104.16
  14  20 -12 1822.45  188.85
  14  20  -9  330.97   78.93
  14  20   0  498.79   81.34
  14  20   3 3061.53  190.92
  14  20   6  991.20  125.35
  14  20   9  702.54   85.74
  14  20  18   37.97   58.32
  14  20  21  276.68   68.11
  14  20  27  213.43   67.91
  14  20  33  211.76   80.55
  14  20  36  568.37  259.02
  14  20  39  147.72   81.94
  14  20  60    1.81   65.28
  14  21 -52  238.42  164.15
  14  21 -46    7.19  140.48
  14  21 -43  597.41  129.95
  14  21 -31   84.91   73.33
  14  21 -25   71.67   77.28
  14  21 -22  150.72   73.01
  14  21 -19  544.81  120.26
  14  21 -16  291.58   61.57
  14  21 -13    6.10   53.85
  14  21 -10 1030.09  131.55
  14  21  -7   52.64   47.39
  14  21   8  176.93   98.00
  14  21  14  489.02  148.28
  14  21  17  171.54   56.86
  14  21  20  270.20   75.29
  14  21  23   23.17   49.36
  14  21  26  116.53   67.41
  14  21  29  101.30   91.13
  14  21  32  200.52   68.47
  14  21  35   88.30   56.75
  14  21  38   72.43   70.89
  14  21  44  268.61   75.72
  14  21  56   86.05  105.80
  14  22 -50   18.23   77.49
  14  22 -47  409.68  140.34
  14  22 -44  776.36  156.61
  14  22 -41  422.92  117.08
  14  22 -38  152.61   69.77
  14  22 -35    1.62  101.55
  14  22 -29  105.47   82.76
  14  22 -26  973.66  103.60
  14  22 -20   50.29   66.64
  14  22  -8    6.03  103.94
  14  22  10  110.95   42.34
  14  22  13  885.43  134.09
  14  22  22  202.40   58.71
  14  22  34    7.14   47.39
  14  22  40  436.65  103.77
  14  22  46  430.61  112.54
  14  22  52   61.54   91.47
  14  22  58   67.73   63.51
  14  23 -57   25.86  148.62
  14  23 -48  249.97  120.42
  14  23 -33  313.84  134.68
  14  23 -21  234.14   97.69
  14  23 -15   67.72   81.18
  14  23 -12  517.51  141.42
  14  23  -9  102.11   77.19
  14  23  -6   95.22  122.32
  14  23  -3  173.41  104.58
  14  23   0 1025.19  157.87
  14  23   9  279.65   66.69
  14  23  15  210.43   74.70
  14  23  21  145.59   95.12
  14  23  33  306.62  161.56
  14  23  39  308.50  162.80
  14  23  45  269.40  155.31
  14  24 -43    0.46   86.64
  14  24 -31  436.14  122.75
  14  24 -22  160.48   53.15
  14  24 -13   82.35   70.79
  14  24 -10  147.64   77.05
  14  24   2  217.51   88.41
  14  24   5  837.53   87.74
  14  24  11   23.33   68.55
  14  24  23  506.05  101.03
  14  24  26  123.36   79.73
  14  24  32 1131.15  245.24
  14  24  47   40.54  146.81
  14  24  50  215.82   81.03
  14  24  53   41.84  122.15
  14  25 -35  349.80  129.99
  14  25 -32   86.14  107.62
  14  25 -17   23.54   65.53
  14  25 -14   79.17   78.95
  14  25  -8   82.30  139.58
  14  25  -5   82.96   78.54
  14  25   4  161.51   58.68
  14  25   7  102.93  158.78
  14  25  10   49.39   56.90
  14  25  19  586.25  176.31
  14  25  22  257.18   95.35
  14  25  25  306.82  104.30
  14  25  28   23.08   73.99
  14  25  37   78.70   89.31
  14  25  43   41.74   91.52
  14  26 -51  135.29  138.52
  14  26 -36  185.08  212.29
  14  26 -33  242.10  166.43
  14  26 -30  211.29   81.02
  14  26 -18  612.85  136.84
  14  26 -15    0.89   67.82
  14  26 -12  144.55  130.86
  14  26  -3  462.77  138.08
  14  26   0  109.78   98.49
  14  26   9   55.93   62.92
  14  26  21   46.17  143.31
  14  26  30  139.82   69.59
  14  26  45   61.73   49.46
  14  26  51   17.94   62.04
  14  27 -43    3.19   89.39
  14  27 -40  262.70   92.84
  14  27 -25  323.55  206.22
  14  27 -16   43.25   90.52
  14  27  -1  468.36  228.28
  14  27   2  214.65  219.06
  14  27   5  360.06   72.07
  14  27   8  206.92   89.99
  14  27  11    2.03   50.88
  14  27  14   85.89   51.74
  14  27  20  605.49   91.87
  14  27  29  455.60  140.26
  14  27  35  707.25  122.35
  14  27  38  210.10  148.29
  14  27  50   33.40  140.17
  14  28 -47   71.79  104.63
  14  28 -41    0.07  179.74
  14  28 -38    7.53  208.45
  14  28 -32  398.99  117.43
  14  28 -29  240.42  135.88
  14  28 -26   76.92  109.05
  14  28 -23  933.82  150.09
  14  28 -20  133.91  245.17
  14  28 -11    1.22  117.09
  14  28  10    1.75   63.14
  14  28  13   38.81   81.35
  14  28  22    2.90   95.00
  14  28  37    6.71   96.71
  14  28  40   18.63  137.29
  14  28  43   70.39  108.02
  14  28  46  198.21   88.72
  14  29 -39  169.16  184.61
  14  29 -30  176.65   99.32
  14  29 -27  114.14  141.89
  14  29 -21  141.47  251.56
  14  29 -18  169.87  312.62
  14  29 -15  690.24  167.79
  14  29 -12   88.26  151.68
  14  29   6  153.67   83.64
  14  29  12  146.13   74.21
  14  29  15   80.45   98.94
  14  29  18  299.86  157.36
  14  29  24   24.89  129.00
  14  29  27   92.75  123.18
  14  29  42   47.87  150.46
  14  30 -40   13.93  187.18
  14  30 -16  349.86  137.20
  14  30 -13  482.75  180.69
  14  30 -10   23.02  136.04
  14  30  -4  156.74  148.28
  14  30   2  304.74   76.02
  14  30   5  137.17   72.12
  14  30   8   21.23  114.49
  14  30  11   23.54   79.07
  14  31 -32  119.03  245.13
  14  31 -29   37.03  148.37
  14  31 -23  267.69  173.01
  14  31  22    5.69  165.23
  14  31  34  359.40  252.50
  14  32 -36  225.06  303.98
  14  32 -27   11.61  162.85
  14  32 -18   46.64  111.43
  14  32  -6  154.06  230.16
  14  32   0  139.31  236.81
  14  32   3   32.80   88.00
  14  32  27  124.51   92.55
  14  33 -31    2.55  107.04
  14  33 -13  458.19  128.28
  14  33  11  126.31   72.88
  14  33  20   98.53  132.14
  14  34 -14  301.78  114.09
  14  34  -2  201.14   83.20
  14  34   4   34.22  136.55
  14  34  16  127.02  145.31
  14  35 -18    8.30  123.53
  14  35 -15  286.31  302.55
  14  35  -3   14.52  102.86
  14  35   3   22.74   73.05
  14  35  12  165.34  213.11
  14  35  15   39.06  232.90
  14  36 -13  248.19  147.04
  14  36  11  152.79  150.20
  14  37  -8  122.48  102.10
  14  37   4  147.95  132.08
  15   1 -76    2.75   42.50
  15   1 -64  228.42   54.85
  15   1 -52  357.33  188.28
  15   1 -43  479.41   68.85
  15   1 -37  510.71  105.71
  15   1 -34   19.97   41.29
  15   1 -31   84.42   60.64
  15   1 -28 4600.73  364.93
  15   1 -22  657.52  110.42
  15   1 -1942898.70  343.97
  15   1 -16 2949.15  191.83
  15   1 -1340676.07  698.30
  15   1 -1020128.02  309.12
  15   1  -7    0.11   50.94
  15   1  -4 6392.08  174.08
  15   1  -1 5059.31  187.47
  15   1   2    9.88   70.68
  15   1   5 2856.05   48.88
  15   1   8  241.05  101.96
  15   1  11 1505.25   97.31
  15   1  14 1008.53   85.47
  15   1  1711179.66  292.56
  15   1  20  855.93   46.07
  15   1  23  337.57  103.28
  15   1  29  469.66  102.88
  15   1  32 2594.93  182.93
  15   1  35  425.10  100.62
  15   1  41  748.65  167.27
  15   1  44 1985.69  254.61
  15   1  50   76.24   76.44
  15   1  53  112.36   61.41
  15   1  62    0.05   67.99
  15   1  71   18.59   49.23
  15   1  74    7.31   43.82
  15   2 -71  115.59   56.94
  15   2 -68  142.51   79.75
  15   2 -59   21.54   55.14
  15   2 -53   28.16   60.62
  15   2 -47   55.35   61.36
  15   2 -44  236.33   46.37
  15   2 -41  147.25   40.65
  15   2 -38  410.31   64.90
  15   2 -32  126.12   66.98
  15   2 -29 6752.10  312.52
  15   2 -2611810.10  264.73
  15   2 -23 6721.01  269.22
  15   2 -20  212.71   75.63
  15   2 -17 8583.38  338.86
  15   2 -14 1128.90  161.65
  15   2 -1127619.37  658.07
  15   2  -8  389.57  150.21
  15   2   1  451.57   38.33
  15   2   4   91.13   36.98
  15   2   7 1216.10  134.55
  15   2  10  292.40   67.27
  15   2  1312289.51  351.32
  15   2  19 1797.82  130.12
  15   2  22  978.86  140.36
  15   2  25 2336.02  159.95
  15   2  28  443.68   65.51
  15   2  40 3145.88  299.16
  15   2  43  151.42  134.12
  15   2  49  547.95   87.35
  15   2  52  119.81  130.38
  15   2  70  125.58   64.01
  15   3 -72  150.54   52.80
  15   3 -66    3.76   71.92
  15   3 -60  215.05   91.52
  15   3 -57  475.31  115.36
  15   3 -54  297.99  129.90
  15   3 -48  341.11   64.58
  15   3 -45  802.14  151.89
  15   3 -39  545.03   73.73
  15   3 -36  741.37   79.23
  15   3 -21 4456.82  282.87
  15   3 -18 2001.27  111.45
  15   3 -12 4060.88  147.75
  15   3  -9 9615.57  499.89
  15   3  -613503.57  293.81
  15   3  -3  192.94   85.41
  15   3   0  465.75  100.59
  15   3   3 1979.97   84.21
  15   3   6 2397.57  199.20
  15   3   9 2081.97   53.69
  15   3  12  193.86   46.89
  15   3  15  743.85   70.43
  15   3  18 2569.60   69.12
  15   3  24 4033.53  208.85
  15   3  27 1814.11  172.62
  15   3  30   70.92   53.55
  15   3  33  417.45   99.22
  15   3  36 2613.62  278.88
  15   3  39 1276.77  130.83
  15   3  42   62.76   73.20
  15   3  51  569.07  167.59
  15   3  60  302.36  114.51
  15   3  69  163.41   70.47
  15   3  75   45.53   56.08
  15   4 -73   84.66   94.14
  15   4 -61  119.99   61.16
  15   4 -37  235.00   51.18
  15   4 -34  135.69   71.67
  15   4 -25  716.17  108.03
  15   4 -19 9439.54  376.94
  15   4 -1610292.03  378.68
  15   4 -13  634.53  131.69
  15   4 -1013646.45  350.88
  15   4  -427204.01  526.82
  15   4  -1  199.25   59.06
  15   4   2  149.76   65.53
  15   4   5 1588.79   42.87
  15   4   810540.65  218.95
  15   4  11 2085.96  108.10
  15   4  14  900.97   49.02
  15   4  17  771.09   45.04
  15   4  2313340.66  469.98
  15   4  26  220.09   33.88
  15   4  32 3362.37  239.14
  15   4  35  456.84   49.21
  15   4  38 2365.32  206.55
  15   4  41  260.87   77.07
  15   4  44  358.82  106.14
  15   4  50  271.92  229.49
  15   4  53  287.57  123.72
  15   4  62   33.40   90.90
  15   4  65  270.26  108.70
  15   4  71   72.90   98.34
  15   5 -62  241.22   78.36
  15   5 -59   69.22  107.26
  15   5 -50   89.04   90.94
  15   5 -44    2.28   62.60
  15   5 -41  168.91  105.06
  15   5 -38  471.82   59.38
  15   5 -35 1739.77  394.25
  15   5 -32  356.41   67.57
  15   5 -29 5438.95  345.49
  15   5 -23 8904.33  617.29
  15   5 -20 8081.35  510.46
  15   5 -17 3259.75  164.71
  15   5 -14    0.03   61.39
  15   5 -1111444.67  338.72
  15   5  -816950.81  549.13
  15   5  -5 2824.09   76.98
  15   5  -212333.06  338.63
  15   5   1 1871.88   41.76
  15   5   4 1537.16   83.67
  15   5   7  140.95   29.77
  15   5  10 1146.09  143.13
  15   5  13   24.23   95.25
  15   5  16  174.27   90.04
  15   5  19 2286.24  195.86
  15   5  22 1604.16  103.84
  15   5  2510850.42  334.33
  15   5  31  614.76   68.15
  15   5  34   73.40   77.59
  15   5  37 2060.20  237.78
  15   5  40   32.09   63.62
  15   5  43  815.68  167.44
  15   5  46   48.89   98.44
  15   5  61  449.97   74.80
  15   5  64  154.55   80.62
  15   5  70  250.69   70.44
  15   5  73  161.74   81.63
  15   6 -72  130.41   59.04
  15   6 -69  210.09   66.40
  15   6 -63   16.03   62.32
  15   6 -54  167.56   61.61
  15   6 -51   27.66   68.32
  15   6 -39 1143.26  182.39
  15   6 -33  181.45   85.82
  15   6 -3010006.19  438.25
  15   6 -27 8793.44  326.36
  15   6 -24  669.09  122.57
  15   6 -21 8253.52  448.48
  15   6 -18  145.31   80.85
  15   6 -12 1507.73   74.77
  15   6  -6 1910.70   69.47
  15   6  -3 3822.03  118.39
  15   6   0 6351.47  256.40
  15   6   9  322.33   74.16
  15   6  12    0.06   97.43
  15   6  18 2213.57  169.61
  15   6  21 2456.65  183.94
  15   6  24 4956.36  223.20
  15   6  27  284.01   76.26
  15   6  30  872.19   76.13
  15   6  33 3993.67  697.37
  15   6  39 1445.74  235.65
  15   6  45  486.02   90.99
  15   6  54    0.00   87.03
  15   6  57  357.96   99.63
  15   6  66  302.88   98.75
  15   7 -73   17.54   90.64
  15   7 -67   27.33   69.98
  15   7 -61  292.58   51.12
  15   7 -40  204.17   58.22
  15   7 -37   44.68   62.92
  15   7 -31 1429.07  122.85
  15   7 -28  716.57   78.66
  15   7 -25 1035.11   31.12
  15   7 -22 2386.52  126.05
  15   7 -19  317.05   95.10
  15   7 -16 6224.16  357.60
  15   7 -13 4981.30  193.95
  15   7  -7 3094.08  510.11
  15   7  -4  331.24   70.56
  15   7  -1  380.77   36.55
  15   7   2   21.40   93.73
  15   7   514069.27  261.61
  15   7  11  338.29  119.55
  15   7  14  591.70   86.40
  15   7  17  995.42   37.45
  15   7  26  143.15   41.22
  15   7  32  769.33   84.87
  15   7  38  569.81  151.39
  15   7  47  113.46   58.29
  15   7  62   25.72   97.99
  15   8 -65    0.01   82.97
  15   8 -38  475.42   91.69
  15   8 -35   97.66   57.62
  15   8 -32  403.30   88.12
  15   8 -29   35.16   40.77
  15   8 -26  181.06   58.45
  15   8 -23  305.28   36.12
  15   8 -17 8056.86  499.76
  15   8 -1416157.37  390.53
  15   8  -2 4356.32  211.11
  15   8   1 8474.38  228.44
  15   8   4 9656.37  168.15
  15   8   7 1901.11   53.25
  15   8  13 4099.14  204.98
  15   8  19 1001.63  123.99
  15   8  22  323.47   47.37
  15   8  25  304.14   60.21
  15   8  28  401.35   63.75
  15   8  31  186.79   96.84
  15   8  37   79.57   41.03
  15   8  43  188.59  103.64
  15   8  49    0.01   66.69
  15   8  52  203.58  107.44
  15   8  58  236.81  130.62
  15   8  67   51.44   89.57
  15   9 -66   21.71   89.71
  15   9 -57   55.65   79.06
  15   9 -54   85.32   55.79
  15   9 -51  706.61  150.64
  15   9 -42    0.02   43.74
  15   9 -39   81.17   61.74
  15   9 -36  421.46   52.37
  15   9 -33 1239.18  159.09
  15   9 -30  164.52   61.89
  15   9 -24 1877.51  202.87
  15   9 -18 1294.78   93.76
  15   9 -15  501.28   89.60
  15   9 -12 1595.91  132.65
  15   9  -9  888.58   54.36
  15   9  -611221.98  336.82
  15   9  -3 1238.75  108.14
  15   9   0 7554.15  195.08
  15   9   314396.35  312.62
  15   9   6  558.17   95.12
  15   9   9  998.64   41.13
  15   9  12 1198.77   74.52
  15   9  18  978.25  100.31
  15   9  21  727.76  117.84
  15   9  24 1457.03  147.39
  15   9  30 3403.06  277.44
  15   9  33  209.55   52.18
  15   9  45   31.59   85.22
  15   9  48   19.91   64.39
  15   9  51  141.10   69.82
  15   9  54  192.81   91.25
  15   9  72   56.15   50.08
  15  10 -70   13.07  110.71
  15  10 -61  242.17   84.16
  15  10 -55  287.56  109.99
  15  10 -43 1058.43  137.40
  15  10 -37  393.97   84.03
  15  10 -34  482.91   56.76
  15  10 -28 2180.51  194.50
  15  10 -19 5803.63  349.99
  15  10 -16 8576.52  353.22
  15  10 -13  515.97   38.36
  15  10 -1011989.40  290.75
  15  10  -7 6929.82  289.78
  15  10  -4  404.99   61.99
  15  10  -1 2654.12  150.00
  15  10   2  942.36  141.55
  15  10   5 2160.64  206.02
  15  10  11 1164.46  181.86
  15  10  14   27.76   45.23
  15  10  20  838.70  126.31
  15  10  23 1967.24  117.00
  15  10  29 1387.18  143.56
  15  10  38  182.71   73.07
  15  10  44  369.60   89.36
  15  10  50  355.42  134.01
  15  10  62  152.09   91.14
  15  10  65   43.33  139.71
  15  11 -71   82.83   53.36
  15  11 -68   48.08   67.11
  15  11 -65    0.10   71.77
  15  11 -56  365.90   75.53
  15  11 -47  384.49   61.91
  15  11 -44  152.68   69.50
  15  11 -41   70.54   72.45
  15  11 -38  421.54  117.33
  15  11 -29  127.80   37.40
  15  11 -26  522.30   57.02
  15  11 -23 4445.10  335.46
  15  11 -20 2048.48  143.08
  15  11 -17 1148.59   94.41
  15  11 -14   21.97   47.83
  15  11 -11 4580.90  376.78
  15  11  -5 4404.45  193.03
  15  11  -2 1563.21  143.51
  15  11   1 7113.22  236.65
  15  11   4  313.62   47.20
  15  11   7  511.93   61.72
  15  11  10 4794.05  240.90
  15  11  13  868.04  115.59
  15  11  16 1724.39  130.84
  15  11  25  529.83   87.41
  15  11  31  300.03   53.18
  15  11  34   11.81   55.89
  15  11  37  766.68  127.31
  15  11  40  150.09   62.58
  15  11  43 1128.59  147.07
  15  11  52  454.69  176.58
  15  11  58  196.22  129.48
  15  11  61   41.20  101.68
  15  11  67   10.85   64.01
  15  11  70   13.41   71.81
  15  12 -66   64.69   59.53
  15  12 -63   32.45   55.94
  15  12 -54  409.48   80.42
  15  12 -51   71.10   76.72
  15  12 -45  110.00   45.87
  15  12 -39  294.58  126.22
  15  12 -33  327.40   66.81
  15  12 -27 1590.77  179.78
  15  12 -18    0.00   32.59
  15  12 -15 1107.64   42.26
  15  12  -3 1443.98  116.21
  15  12   0  522.03   64.99
  15  12   9  244.50   80.72
  15  12  12 1515.59   89.01
  15  12  15  103.31   79.67
  15  12  18   74.83   43.92
  15  12  27 3815.61  283.78
  15  12  30  923.21   87.35
  15  12  36  430.34  121.40
  15  12  42   84.74   92.23
  15  12  45  533.05  120.43
  15  12  51  166.67  104.75
  15  12  54  238.94   86.88
  15  13 -61   20.43   78.75
  15  13 -52    7.07   47.48
  15  13 -34  715.27  205.30
  15  13 -31 1148.72  154.49
  15  13 -22   90.56   87.05
  15  13 -19  400.66   68.88
  15  13 -16  698.49   88.57
  15  13 -10 2323.20  215.88
  15  13  -7  913.77   65.63
  15  13  -4 4298.42  250.71
  15  13  -1 2454.86  120.04
  15  13   2 7814.36  261.71
  15  13   5 2567.00  183.70
  15  13  11  818.56   98.44
  15  13  14  812.65   58.73
  15  13  20 1835.73  170.16
  15  13  23 1457.38  185.04
  15  13  26  458.85  123.56
  15  13  29   88.37  111.78
  15  13  32   77.60   46.02
  15  13  35  147.43   79.48
  15  13  38  217.13   86.74
  15  13  41   39.33   72.39
  15  13  50  237.39  109.01
  15  13  59   49.28   76.62
  15  13  62    1.51  123.47
  15  13  65   21.68   93.28
  15  13  68   32.34   53.17
  15  14 -68  191.65  117.82
  15  14 -59   22.11  116.16
  15  14 -56  343.12   51.32
  15  14 -38  561.64  135.36
  15  14 -29  187.63   47.49
  15  14 -26 1356.60  167.93
  15  14 -17 1554.22  198.04
  15  14 -11 1011.80  137.14
  15  14  -8   72.97   70.64
  15  14  -2  484.63   89.10
  15  14   110656.01  323.92
  15  14   4  358.60   58.46
  15  14  10 1218.52   73.41
  15  14  13  199.51   47.74
  15  14  16  414.96   93.92
  15  14  19  703.15   93.85
  15  14  22 1187.10  120.66
  15  14  28  507.15  171.84
  15  14  31  799.10  163.70
  15  14  34  109.72  133.73
  15  14  37  211.25   80.15
  15  14  46  448.64  100.90
  15  14  52  148.74   59.33
  15  14  61    0.75   86.91
  15  15 -66  133.87  202.19
  15  15 -48  103.29   77.90
  15  15 -45   30.29   86.25
  15  15 -39   16.72   66.43
  15  15 -33  249.01   96.20
  15  15 -27  637.70  146.67
  15  15 -18    0.02   40.18
  15  15  -9  507.80   80.34
  15  15  -6 1516.91  122.34
  15  15   9  270.34   51.93
  15  15  15  384.39   58.99
  15  15  24  267.16  119.65
  15  15  33   31.15   85.51
  15  15  36 1385.26  184.36
  15  15  45    7.95   74.52
  15  15  48   42.56   85.74
  15  15  51  182.91   74.69
  15  15  60  166.01   64.65
  15  15  63  401.02   65.42
  15  16 -52  280.09   64.79
  15  16 -49  255.15  140.73
  15  16 -43  646.79  108.67
  15  16 -40  931.87  128.35
  15  16 -37  407.09  110.13
  15  16 -34  174.81   54.34
  15  16 -28  299.36   75.01
  15  16 -25 1149.61  166.12
  15  16 -19 1025.90  131.02
  15  16 -16  608.85   97.54
  15  16 -10 3728.31  192.95
  15  16  -7 2217.82  233.54
  15  16  -4   37.94   31.37
  15  16  -1 1353.71  109.18
  15  16   2 1145.91   71.69
  15  16   8  581.85   80.84
  15  16  11   38.64   36.57
  15  16  14  136.91   46.74
  15  16  17 1284.15  150.69
  15  16  23  299.87   89.98
  15  16  26  526.96   87.00
  15  16  41  222.81  230.31
  15  16  47   29.55   83.85
  15  16  50  833.79  124.04
  15  16  56  133.64   67.25
  15  16  59   72.90   70.76
  15  17 -62    0.53  120.64
  15  17 -59  340.84  103.28
  15  17 -50    0.05   78.32
  15  17 -44  427.52  143.06
  15  17 -41  586.09  106.72
  15  17 -38  213.77   92.46
  15  17 -20  283.76   81.62
  15  17 -14  687.60  152.87
  15  17 -11  408.94  202.74
  15  17  -8  403.71   55.70
  15  17  -5  201.67   59.30
  15  17  -2 1582.27  142.72
  15  17   4  842.41   86.24
  15  17   7  624.12   76.57
  15  17  10  417.20   86.96
  15  17  13  129.90   34.55
  15  17  16  303.80   56.77
  15  17  19  269.07   86.98
  15  17  22  662.78   96.93
  15  17  25 1130.26   91.43
  15  17  31   49.41   69.09
  15  17  43  136.13  130.20
  15  17  46  330.06   85.23
  15  17  49  367.59  254.43
  15  17  58    2.43   79.27
  15  18 -60   33.42  153.45
  15  18 -48  377.48   98.49
  15  18 -45  434.39  155.32
  15  18 -33   89.97   62.37
  15  18 -30   52.58   82.74
  15  18 -27  252.57   94.62
  15  18 -21  247.13   67.07
  15  18 -18  401.42  141.87
  15  18 -15  217.26   61.73
  15  18 -12   10.29   34.10
  15  18  -9  749.45  121.27
  15  18   0 5892.25  395.91
  15  18   3 1139.30  109.59
  15  18   9  608.71  122.83
  15  18  12  367.11   63.86
  15  18  15   26.02   54.92
  15  18  18  641.01   95.23
  15  18  24  696.67  120.29
  15  18  30  258.33  101.08
  15  18  33   84.05  100.28
  15  18  39  538.93  192.00
  15  18  42   17.11  108.25
  15  18  45  189.60  138.48
  15  18  48   49.36  102.67
  15  18  54   19.11  131.56
  15  18  57  208.67  120.66
  15  19 -52  146.06  144.61
  15  19 -49  116.13  135.33
  15  19 -31  114.93  158.64
  15  19 -19  351.77   75.04
  15  19 -16   79.37   63.62
  15  19 -13   12.12   44.47
  15  19 -10  275.21   98.87
  15  19  -7   15.25   74.38
  15  19   2  397.81   76.92
  15  19   5  341.52  115.45
  15  19   8  517.00   73.55
  15  19  11   43.60   52.16
  15  19  35 1571.69  150.15
  15  19  41  300.01  222.83
  15  19  50  113.98  102.73
  15  19  53    9.99   61.45
  15  19  62  205.78  113.87
  15  20 -41   70.63  111.30
  15  20 -38  687.85  183.81
  15  20 -35  202.88   92.01
  15  20 -32   56.20   87.52
  15  20 -14  488.79   85.45
  15  20  -8   35.19   60.16
  15  20  -5  124.02   53.61
  15  20  -2   97.91  142.29
  15  20   1 1134.25  192.35
  15  20   4  135.84   52.03
  15  20   7  357.70   63.61
  15  20  10  475.17   80.25
  15  20  16  226.71   48.05
  15  20  28   88.31   64.49
  15  20  31  315.57   91.53
  15  20  34  290.71  169.01
  15  20  37  136.87   85.32
  15  20  43  259.39  159.69
  15  20  58   23.76   81.86
  15  21 -54   42.93   99.28
  15  21 -51   51.87   98.04
  15  21 -45  601.14  116.61
  15  21 -42    5.80   93.14
  15  21 -33    2.87  111.73
  15  21 -30   65.57  104.28
  15  21 -18  400.40   90.33
  15  21 -15  170.15   75.47
  15  21  -9   77.59   94.45
  15  21   3   97.57   79.44
  15  21   6 2712.39  232.45
  15  21   9  362.63   75.22
  15  21  12    9.83   76.09
  15  21  18  183.38   93.01
  15  21  24  125.31   72.68
  15  21  30  431.76   62.62
  15  21  33  197.24   90.96
  15  21  39  430.56   98.71
  15  21  48  170.03  105.18
  15  21  51   51.93  221.59
  15  22 -46   47.27   99.66
  15  22 -43   78.33   94.18
  15  22 -31  492.56   83.62
  15  22 -28  219.92  142.34
  15  22 -22   48.90   99.85
  15  22 -19  143.69   65.69
  15  22 -16  419.32  128.97
  15  22 -13   90.88  107.80
  15  22 -10  270.27   89.42
  15  22  -7  140.14   92.24
  15  22  -4 1490.70  320.91
  15  22  -1 1060.51  136.16
  15  22   2 1084.18  127.42
  15  22   5   59.85   59.20
  15  22  11  865.56  130.68
  15  22  20  118.42  118.28
  15  22  23  311.74   88.63
  15  22  26 1169.87   94.69
  15  22  38  526.32  111.52
  15  22  41   56.96   72.14
  15  22  44    7.61  110.05
  15  22  47   49.33  128.83
  15  22  50   15.56  127.67
  15  23 -53  118.26  184.16
  15  23 -44  173.94   98.13
  15  23 -32   64.05   92.01
  15  23 -20   34.26  106.45
  15  23 -11   39.30   76.56
  15  23  -8  814.74   93.37
  15  23  -2  110.84   87.14
  15  23   1  192.32  110.22
  15  23   4  491.75  135.33
  15  23   7  423.08   78.67
  15  23  10  250.26  130.48
  15  23  13  139.30   75.79
  15  23  16  275.89   90.73
  15  23  22   78.82  109.31
  15  23  25  277.61  176.38
  15  23  31   92.91  100.57
  15  23  43   49.05  126.92
  15  23  46   55.66  110.18
  15  24 -45  193.65  133.88
  15  24 -39  529.95  103.13
  15  24 -33  215.88  129.23
  15  24 -27   29.18   68.15
  15  24 -21  757.52  208.32
  15  24 -15   41.47   69.55
  15  24 -12  504.91   82.41
  15  24  -9  146.92  169.62
  15  24  -6  835.22  156.11
  15  24  -3  140.81   77.17
  15  24   3   33.06   85.74
  15  24   6  481.43   87.53
  15  24  12   28.43   47.71
  15  24  15  502.62   89.82
  15  24  21  295.05   92.30
  15  24  27  231.24   74.01
  15  24  33   92.26  115.75
  15  24  39   53.29  103.97
  15  24  48  516.49   88.93
  15  24  54  216.09  160.16
  15  25 -49  257.09  127.15
  15  25 -34  333.86  123.87
  15  25 -28  315.01   70.30
  15  25 -22  272.67   78.49
  15  25 -19  188.31  122.75
  15  25 -13  351.25  116.15
  15  25 -10    1.07  124.01
  15  25  -7  288.58  105.93
  15  25  -1  445.41  367.69
  15  25  11   86.92   49.71
  15  25  14   39.68   29.47
  15  25  17  287.83   83.29
  15  25  26  120.61   97.34
  15  25  41  308.76  119.95
  15  25  50  207.01  125.81
  15  26 -50  143.37  137.82
  15  26 -47  242.65  121.01
  15  26 -41    1.54  103.34
  15  26 -35  213.50  164.38
  15  26 -26  360.86   90.81
  15  26 -14  116.78  146.81
  15  26 -11   41.49   95.32
  15  26   4  957.94  206.26
  15  26  10  203.69   75.81
  15  26  19  317.37  124.19
  15  26  34   22.08  105.65
  15  27 -24  225.45  142.92
  15  27 -21  288.63  112.45
  15  27  -3  524.16  186.86
  15  27   3  114.19   92.92
  15  27  15   78.46  127.19
  15  27  18   52.13  118.99
  15  27  27    1.65   71.84
  15  27  39  277.93   91.35
  15  27  48   80.86  121.34
  15  28 -43  275.28  106.74
  15  28 -31   60.86  134.64
  15  28 -28  282.35  119.80
  15  28 -25  348.32  150.94
  15  28 -22  289.30  114.00
  15  28 -19   45.04  198.78
  15  28  -4  294.03  143.15
  15  28  14    1.92   54.54
  15  28  17   67.04  132.68
  15  28  20  296.26  125.50
  15  28  23   79.25  131.30
  15  28  44   45.30  226.62
  15  29 -41  147.17  208.48
  15  29 -35  275.55  159.23
  15  29 -32  836.02  191.73
  15  29 -14  522.48  423.56
  15  29  -8  691.97  191.97
  15  29   1  381.23  188.37
  15  29  10  172.93   78.95
  15  29  13  386.23   68.61
  15  29  22   43.95  120.30
  15  29  28    8.36  151.96
  15  29  31  147.38  211.08
  15  29  37  111.54  156.14
  15  29  40    0.56  117.42
  15  30 -39  181.15  123.26
  15  30 -36   40.63  181.25
  15  30 -33   61.39  188.28
  15  30 -12  103.76  119.54
  15  30  -9  241.80  153.34
  15  30   0  516.78  248.27
  15  30  15  225.64  247.88
  15  30  21   63.60   81.46
  15  30  36  258.79  143.25
  15  30  39  121.49  103.72
  15  31 -31  194.99  136.76
  15  31   2  268.33  184.06
  15  31   5  253.63  217.24
  15  31  14  106.75   95.27
  15  31  20  207.34  107.82
  15  31  26  326.27  151.63
  15  32 -29   68.14  242.97
  15  32 -20    0.07  176.19
  15  32  -8   65.44  147.10
  15  32   7  146.79   66.04
  15  32  10  153.82  193.42
  15  32  16  286.97  136.09
  15  33 -27  133.93  119.02
  15  33 -15  546.85  147.24
  15  33 -12  104.30   84.26
  15  33  -9  272.66  274.56
  15  33   0  282.45   99.49
  15  33   3   31.85  129.47
  15  33   6  300.00   79.32
  15  33   9   44.25  104.01
  15  33  12   74.11  162.62
  15  33  18  192.68  136.06
  15  34 -13  204.83  126.09
  15  34   2   49.51  142.93
  15  34  14  227.96  181.71
  15  35 -17  242.81  244.32
  15  35 -14  129.29  158.59
  15  35  -5   11.75   88.36
  15  35  19  333.49  159.83
  15  36 -12  429.73  112.53
  15  36  -6  178.93  111.50
  16   1 -72   10.37   50.94
  16   1 -66    7.07   96.88
  16   1 -57  169.75   68.27
  16   1 -54  413.48   62.08
  16   1 -51   99.72   88.27
  16   1 -48  100.08   69.01
  16   1 -45  484.18   53.82
  16   1 -42 2727.45  536.86
  16   1 -39  660.45   47.19
  16   1 -36 1480.14  231.25
  16   1 -33    6.40   48.88
  16   1 -2732826.74  470.22
  16   1 -2410382.98  283.53
  16   1 -21 8728.34  311.80
  16   1 -1823645.69  483.56
  16   1 -1554894.84  638.88
  16   1  -9  313.74   95.44
  16   1  -6  660.99   74.36
  16   1  -3 5187.33  156.80
  16   1   0 2965.23   96.86
  16   1   313687.38  249.50
  16   1   6  849.64   66.31
  16   1  15 3449.41  279.77
  16   1  18  829.57   34.68
  16   1  21 3755.73  218.09
  16   1  24 4744.25  302.66
  16   1  27  849.08   78.43
  16   1  30 1176.70  106.70
  16   1  36 2478.93  208.78
  16   1  39 1509.62  270.18
  16   1  42 7035.83  576.73
  16   1  45    0.94   80.73
  16   1  48  286.08  100.51
  16   1  54  325.46  131.87
  16   1  66  108.29   54.69
  16   1  69  172.79   74.05
  16   1  75   63.78   47.77
  16   2 -73   14.68   52.38
  16   2 -58  322.66   61.32
  16   2 -55   97.39   68.34
  16   2 -49 1626.74  146.13
  16   2 -46   75.80   78.36
  16   2 -43  117.25   55.29
  16   2 -37 1108.38  182.94
  16   2 -31  173.33   58.07
  16   2 -25 3791.84  208.07
  16   2 -22 4344.06  229.05
  16   2 -16 2899.20  230.11
  16   2 -1321242.91  293.05
  16   2 -10  776.05  134.62
  16   2  -7 7347.60  277.97
  16   2  -4 4561.41  110.72
  16   2  -1 2401.31  153.34
  16   2   2  125.97   33.93
  16   2   5 3042.94   92.98
  16   2   8  312.57   84.25
  16   2  11 1639.66  184.55
  16   2  14 2604.26  237.06
  16   2  20  848.40   64.74
  16   2  23    0.61   35.12
  16   2  29  304.14   48.42
  16   2  32 1954.24  183.78
  16   2  35  918.59  103.62
  16   2  38  788.23  225.05
  16   2  41  441.69  112.43
  16   2  44  561.80   97.29
  16   2  47  269.64   74.98
  16   2  50  489.35  101.95
  16   2  59  221.54  101.67
  16   2  65    0.12  117.26
  16   2  74   94.82   57.87
  16   3 -74   26.64   52.88
  16   3 -65  104.78   67.12
  16   3 -59    0.42   78.67
  16   3 -50  347.37   81.54
  16   3 -47    4.52   48.41
  16   3 -38  509.56   77.42
  16   3 -29 9288.34  325.91
  16   3 -26 1843.12  100.00
  16   3 -20 3525.71  146.11
  16   3 -17  486.94  141.47
  16   3 -11  469.67   64.49
  16   3  -5  127.98  158.84
  16   3  -2 8698.67  281.16
  16   3   1  403.18   53.17
  16   3   4  312.67   44.57
  16   3   7 3209.33   94.76
  16   3  10  308.83   66.70
  16   3  13 1558.47   80.89
  16   3  16 2855.52  189.15
  16   3  19 3063.11  167.43
  16   3  22  574.58  140.32
  16   3  25  969.53   86.93
  16   3  34  404.31   64.15
  16   3  37 1529.76  175.40
  16   3  40 1446.81  184.47
  16   3  61   87.15   78.36
  16   3  67    0.56   52.51
  16   4 -69   86.66   75.42
  16   4 -54   69.93   58.13
  16   4 -45  102.10   59.34
  16   4 -42    1.60  103.80
  16   4 -30  311.22   62.98
  16   4 -27 2725.61  202.90
  16   4 -24  283.05   53.23
  16   4 -21 4156.69  285.52
  16   4 -15 2576.41  160.17
  16   4 -12 1088.54  219.41
  16   4  -9  198.64   87.31
  16   4  -6 2056.21  417.49
  16   4  -3 3063.54  171.71
  16   4   0    2.37   64.85
  16   4   3  487.10  137.76
  16   4   6   97.08  108.49
  16   4   9  968.45  118.75
  16   4  15  782.87   34.31
  16   4  18  235.76   48.07
  16   4  21  691.20  125.92
  16   4  24 1735.41  140.01
  16   4  33 2597.03  288.09
  16   4  42  793.12  111.63
  16   4  45  271.30   89.91
  16   4  48  528.02  142.96
  16   4  51   46.20  100.27
  16   4  54  242.53   64.50
  16   4  57  191.58   88.13
  16   4  60  138.54   96.72
  16   4  63  140.71  110.35
  16   4  66   13.71   69.05
  16   4  72  115.74   41.65
  16   5 -70  162.32   49.88
  16   5 -67   18.41   82.23
  16   5 -46  290.51  144.37
  16   5 -43  281.93  117.89
  16   5 -31 4999.11  302.67
  16   5 -28 1424.87  174.42
  16   5 -25 2303.93  156.51
  16   5 -22 6078.30  292.38
  16   5 -1913224.14  460.67
  16   5 -1610527.31  375.94
  16   5 -10 4730.11  375.16
  16   5  -423686.72  575.30
  16   5   2 1616.93   36.30
  16   5   5  528.54   88.94
  16   5   8  773.99   68.83
  16   5  11 1614.71  114.52
  16   5  14 1947.16  121.01
  16   5  17 4526.28  108.86
  16   5  20  158.51   38.43
  16   5  26 5012.09  193.79
  16   5  29 2450.36  180.78
  16   5  32  199.45   51.09
  16   5  35 1017.34  147.81
  16   5  38  867.50  158.40
  16   5  41    7.82   67.15
  16   5  44  183.18   66.77
  16   5  47  434.70  251.81
  16   5  53  296.86  147.89
  16   5  56  426.21  111.91
  16   5  62  476.83  101.30
  16   5  65  318.07  154.61
  16   6 -65    9.08   55.17
  16   6 -59   40.40   75.15
  16   6 -56  316.12   91.74
  16   6 -50  307.63   77.21
  16   6 -47    0.94   50.64
  16   6 -41  478.17   63.25
  16   6 -38  233.86   98.87
  16   6 -35 1154.97  197.25
  16   6 -32  793.25   68.76
  16   6 -29  651.15   79.66
  16   6 -20 1987.79  167.59
  16   6 -17 9099.05  339.27
  16   6 -14   50.52   47.34
  16   6 -11 3973.90  373.02
  16   6  -8 6022.91  335.76
  16   6  -5 9084.87  225.50
  16   6  -2   56.39  134.16
  16   6   1 6222.54  186.67
  16   6   4 4434.26  214.98
  16   6   7  319.85   52.32
  16   6  10 3188.34  109.05
  16   6  13 1820.04   99.36
  16   6  16 3662.70  182.09
  16   6  22 5001.96  325.46
  16   6  25 1666.71  171.28
  16   6  28  277.45   79.62
  16   6  31  673.25  144.24
  16   6  34 1769.80  171.89
  16   6  40  330.73  113.34
  16   6  43  186.12   91.35
  16   6  49  349.74   85.70
  16   6  55  235.61  130.13
  16   6  73   57.02   52.47
  16   7 -72   53.32   66.80
  16   7 -60  462.78  120.24
  16   7 -57   67.09   46.16
  16   7 -51  145.90   70.31
  16   7 -45  337.27  210.00
  16   7 -42  267.98  102.18
  16   7 -39  318.98  119.95
  16   7 -36  523.09   65.87
  16   7 -33  150.63   71.66
  16   7 -30   84.46   64.81
  16   7 -24 1688.80  299.46
  16   7 -18  110.08   61.63
  16   7 -15  346.51   93.59
  16   7 -12 2136.82  100.50
  16   7  -9 4039.68  450.06
  16   7  -6   78.50   97.89
  16   7  -3  989.79   48.83
  16   7   310266.75  234.62
  16   7   9 2699.04  200.74
  16   7  12  375.97   44.29
  16   7  15  196.57   67.02
  16   7  18 2773.79  235.11
  16   7  21 3474.64  304.63
  16   7  24  418.67   89.22
  16   7  27 1369.68  136.50
  16   7  30 4711.15  334.23
  16   7  33  912.70  105.21
  16   7  36  565.16   56.34
  16   7  39  967.83  111.79
  16   7  42  319.05  327.39
  16   7  45  364.95  140.25
  16   7  51  140.02   89.39
  16   7  54  186.39   85.17
  16   7  66   27.14   78.24
  16   7  72  132.57   68.79
  16   8 -64    6.80  108.77
  16   8 -55   56.33   83.12
  16   8 -49  180.39   95.24
  16   8 -46  314.13  135.12
  16   8 -37  861.24   91.57
  16   8 -31  757.78  102.75
  16   8 -22 2546.95  201.58
  16   8 -19 2237.73  226.41
  16   8 -10 4864.06  376.85
  16   8  -7 4209.89  206.46
  16   8  -422159.62  420.91
  16   8  -1 9392.10  397.14
  16   8   2 2980.71  141.45
  16   8   5 3797.86  233.93
  16   8   8 1271.20   30.07
  16   8  11 2584.27  185.03
  16   8  17    0.52   36.39
  16   8  20 5511.74  321.66
  16   8  23  553.09  178.10
  16   8  32  676.54   84.31
  16   8  35   27.67   42.08
  16   8  38   23.68   46.12
  16   8  41  946.76  199.41
  16   8  44  270.32  115.84
  16   8  47  450.57  134.16
  16   8  53  252.27   48.82
  16   8  56  264.25   94.95
  16   8  62  126.44   83.66
  16   8  71   87.79   53.58
  16   9 -62  152.83   48.03
  16   9 -53  424.96   77.94
  16   9 -41  210.87   72.74
  16   9 -38  372.11   61.62
  16   9 -35  558.04  174.25
  16   9 -32  139.50   94.35
  16   9 -29  351.94   68.48
  16   9 -23  630.08   56.81
  16   9 -20    0.69   32.84
  16   9 -17  235.64   44.17
  16   9 -14 6084.91  303.12
  16   9 -11 1333.43  174.08
  16   9  -811500.77  440.10
  16   9   1  732.28   43.11
  16   9   4 6753.63  332.50
  16   9   7 4264.85  188.32
  16   9  13 4673.77  215.47
  16   9  16  197.36   50.97
  16   9  31 2073.29  175.48
  16   9  43  394.99   93.80
  16   9  46  152.34  107.20
  16   9  52   60.44   70.56
  16   9  61   44.63   66.25
  16   9  70   19.95   82.07
  16  10 -69   64.06   54.87
  16  10 -63    3.15   52.79
  16  10 -54  223.63   89.12
  16  10 -48  333.03   80.43
  16  10 -33   97.92   94.17
  16  10 -30   31.93   60.96
  16  10 -27   36.25   69.37
  16  10 -24 2728.53  188.80
  16  10 -18  575.91   57.05
  16  10 -15  889.12   81.51
  16  10  -9 1597.27  141.98
  16  10  -6  133.22  112.44
  16  10  -3  715.13   87.94
  16  10   0 2662.88  170.78
  16  10   3  433.38   71.45
  16  10   6 5076.09  170.88
  16  10   9  951.57   78.99
  16  10  12 2530.10  181.38
  16  10  15 2822.50  296.46
  16  10  18   45.66   68.95
  16  10  24  221.64   59.61
  16  10  27 2133.06  184.05
  16  10  30  238.02   75.45
  16  10  36   90.60  134.88
  16  10  42    0.00   56.07
  16  10  45  144.89   91.39
  16  10  48   93.67  117.26
  16  10  54  294.62  137.48
  16  10  66    9.48   76.96
  16  11 -67  320.73   67.02
  16  11 -64  353.55   86.99
  16  11 -61  156.17   63.37
  16  11 -55  107.09  118.00
  16  11 -52  243.06   67.06
  16  11 -46  110.47   43.81
  16  11 -40  981.20  302.23
  16  11 -37  206.67   98.44
  16  11 -34  154.99   42.12
  16  11 -28  230.85  102.90
  16  11 -25 1222.08  101.34
  16  11 -22   10.74   44.30
  16  11 -16  484.09   26.08
  16  11 -10 7411.06  282.91
  16  11  -7  915.08  113.91
  16  11  -4 1764.15  136.03
  16  11  -1 1742.66  146.72
  16  11   2 6287.36  243.54
  16  11   5 1567.07  106.07
  16  11   8  188.88   45.63
  16  11  11    1.95   40.91
  16  11  14  167.24   67.02
  16  11  17  500.28   75.90
  16  11  20   26.32   72.78
  16  11  23  642.43  152.62
  16  11  26 1245.47  155.53
  16  11  29 1578.44  143.23
  16  11  32  759.43  188.47
  16  11  35 1280.29  156.58
  16  11  38   82.00   62.98
  16  11  41   66.70   80.76
  16  11  44  238.32   93.33
  16  11  65   22.76   90.75
  16  12 -65   51.72   91.76
  16  12 -59  154.79   75.14
  16  12 -53  486.06  106.85
  16  12 -47  156.61   70.65
  16  12 -41   50.17   63.88
  16  12 -38   31.69   70.68
  16  12 -35  151.27   76.57
  16  12 -32  377.01   91.20
  16  12 -26   10.53   58.29
  16  12 -14  808.45   77.00
  16  12 -11 1576.31  201.59
  16  12  -5  712.95   91.14
  16  12  -2  832.41  163.54
  16  12   1  223.81   55.98
  16  12   4  409.41   62.58
  16  12   7 2325.68  192.28
  16  12  10   48.33   82.69
  16  12  16  142.00   48.57
  16  12  19 2568.43  210.35
  16  12  22 2773.55  267.51
  16  12  31 1477.99  161.61
  16  12  34  855.55  145.93
  16  12  43   84.61   56.42
  16  12  46  132.54   55.82
  16  12  61  156.48  132.31
  16  13 -54   48.83   60.90
  16  13 -42  240.38   55.90
  16  13 -39  710.81  130.14
  16  13 -36 1062.76  339.34
  16  13 -33   24.48   47.25
  16  13 -30  201.50   49.87
  16  13 -24  668.31   79.80
  16  13 -21  501.18   67.58
  16  13 -15 1674.07  152.40
  16  13 -12 1089.39  151.89
  16  13  -9  110.53   43.98
  16  13   3 6808.80  310.87
  16  13   9  342.05   77.56
  16  13  12 4174.56  227.16
  16  13  15 1404.43  131.54
  16  13  21   33.03   83.97
  16  13  27  394.73   87.16
  16  13  30  299.59   90.33
  16  13  33  600.32  148.43
  16  13  42  293.41   59.48
  16  13  45   43.10   86.30
  16  13  51  121.33   73.69
  16  13  54  383.36   92.27
  16  13  57    9.18   80.55
  16  13  63    1.98   73.77
  16  13  66   31.64   90.87
  16  14 -67  120.97   97.40
  16  14 -46    5.63   53.87
  16  14 -37   76.05   95.04
  16  14 -19  251.37   41.37
  16  14 -16 1731.16  145.65
  16  14 -13 2252.39  229.48
  16  14 -10  384.14  163.10
  16  14  -7  427.49  108.71
  16  14  -1   88.83   56.64
  16  14   2  191.09   33.35
  16  14   5  108.28   41.54
  16  14  11  629.25   43.46
  16  14  14  289.13   36.42
  16  14  17  268.51   96.82
  16  14  20 1147.13  139.79
  16  14  23  264.12   72.93
  16  14  29  108.61   89.06
  16  14  32  173.57   71.74
  16  14  38  213.79   67.44
  16  14  41   97.38   83.44
  16  14  56   21.21   81.97
  16  15 -62  346.04  163.79
  16  15 -56   10.52  175.58
  16  15 -53   96.47  183.48
  16  15 -41  226.61   48.27
  16  15 -38  462.10   87.52
  16  15 -35   66.79   45.71
  16  15 -20  540.45   83.85
  16  15 -17  700.27   32.72
  16  15  -8  393.79  122.66
  16  15  -2  714.55   97.19
  16  15   1 1994.97  202.75
  16  15   4  989.29  115.30
  16  15   7  592.81  130.13
  16  15  10  431.79   40.40
  16  15  13 1254.25   93.15
  16  15  19  980.07  133.62
  16  15  22 1067.86  178.23
  16  15  25  189.51   53.56
  16  15  34  150.74   80.40
  16  15  43   44.34   58.57
  16  15  46  201.63  150.65
  16  15  58   20.30   63.59
  16  15  61   27.49  105.81
  16  16 -54  479.50  160.95
  16  16 -51  116.33  118.76
  16  16 -42  213.46   83.69
  16  16 -36   44.71  117.09
  16  16 -33  197.74  138.42
  16  16 -30  156.30  140.66
  16  16 -24  186.62   55.78
  16  16 -21  149.62   54.71
  16  16 -18   69.96   44.16
  16  16 -12  630.47  162.63
  16  16  -9 1272.27  100.73
  16  16  -3  322.92  111.31
  16  16   0  194.05   65.91
  16  16   3  282.64   39.70
  16  16   6  644.05   99.56
  16  16   9  625.99   90.77
  16  16  15  238.96   63.65
  16  16  18  341.83   37.55
  16  16  24  379.61   52.61
  16  16  30  136.20   75.59
  16  16  36   85.27   83.20
  16  16  42  246.68  122.45
  16  17 -46  229.16  156.45
  16  17 -40  161.33   55.89
  16  17 -37   33.38   62.04
  16  17 -25  549.99  135.02
  16  17 -13  647.39  179.74
  16  17 -10  358.30   66.88
  16  17  -7   45.45   89.45
  16  17  -4 3532.56  387.72
  16  17  -1  167.40   91.63
  16  17   2  272.27   81.17
  16  17   8 1461.18  174.48
  16  17  11 1471.19  179.94
  16  17  14 1517.03  144.92
  16  17  17  139.81   54.99
  16  17  32  259.41  131.94
  16  17  38   65.17  122.27
  16  17  62   29.70   43.89
  16  18 -59   20.04  104.32
  16  18 -53   15.02   80.46
  16  18 -44 1084.13  161.19
  16  18 -38  154.32  137.74
  16  18 -26   24.91   91.20
  16  18 -23  709.92   84.57
  16  18 -20  161.21   68.05
  16  18 -17  548.02  149.79
  16  18  -8  935.31  164.86
  16  18  -5  793.44  152.14
  16  18  -2   59.44   53.84
  16  18   1  383.28   51.67
  16  18   4 3061.61  399.94
  16  18  10  752.47  133.25
  16  18  13  266.79   72.37
  16  18  16    0.02   45.01
  16  18  19  243.40  116.47
  16  18  22  405.53   62.94
  16  18  34  678.20   80.41
  16  18  40  217.82  164.17
  16  18  55  151.78  131.65
  16  18  58   35.00   70.84
  16  18  61  539.27   97.17
  16  19 -60  171.46  135.15
  16  19 -54  342.35   98.53
  16  19 -48  610.81  151.81
  16  19 -39  550.12  104.59
  16  19 -36  498.57  103.65
  16  19 -33  686.13  155.58
  16  19 -21   55.88   83.43
  16  19 -12  546.73  109.51
  16  19  -9 1196.05  155.98
  16  19  -3  375.20   80.23
  16  19   0 1556.21  136.84
  16  19   3   82.55   52.40
  16  19   6  495.85   79.14
  16  19  15  286.72   92.17
  16  19  18  122.87   94.70
  16  19  24  515.21   72.44
  16  19  33  280.84  101.21
  16  19  39    3.21   72.48
  16  19  48  114.43  120.42
  16  19  60   88.94   59.51
  16  20 -58   73.72  126.94
  16  20 -49   31.91  109.99
  16  20 -40   51.58   96.28
  16  20 -31  265.98  317.50
  16  20 -28  225.06  106.39
  16  20 -19   57.39   77.17
  16  20 -16  211.24   76.49
  16  20 -13  157.05   62.66
  16  20 -10  204.39   79.85
  16  20  -7   64.25   42.85
  16  20  -1  213.86   58.80
  16  20   5   74.79   84.48
  16  20   8  357.05   88.82
  16  20  11  229.69   84.76
  16  20  23  188.37   69.85
  16  20  26  151.47   63.37
  16  20  29   34.46   89.22
  16  20  38  292.47  112.08
  16  21 -50  563.53  206.25
  16  21 -44   79.02  108.51
  16  21 -14  154.50   98.08
  16  21 -11  155.61   69.63
  16  21   4   96.34   53.04
  16  21  16  173.45   84.53
  16  21  28   75.70  133.67
  16  21  31  238.86   81.95
  16  21  34  193.90   86.38
  16  21  37  252.23  112.07
  16  21  49   54.77  137.88
  16  21  58  108.08   91.90
  16  22 -42  171.72  221.20
  16  22 -39  403.64   87.45
  16  22 -33  635.41  130.60
  16  22 -30  251.38  105.07
  16  22 -24   88.34   66.71
  16  22 -21  107.63  135.31
  16  22 -18  436.80   93.93
  16  22 -15  395.09  103.76
  16  22   0  256.73   64.71
  16  22   3  140.98   67.19
  16  22   6    2.61   59.68
  16  22   9  377.75   65.14
  16  22  15   18.04   56.98
  16  22  24 1467.37  172.26
  16  22  27  197.76   96.27
  16  22  39  505.68  106.18
  16  22  42  162.15  106.52
  16  22  48   12.69  132.67
  16  23 -49  156.99  102.49
  16  23 -37  536.46   98.59
  16  23 -34  158.19  169.70
  16  23 -31   35.03   87.40
  16  23 -28  430.17  135.82
  16  23 -25 1168.15  177.74
  16  23 -19   66.67   69.48
  16  23 -16  114.88   99.31
  16  23 -10  177.69   60.06
  16  23   8  170.39   57.92
  16  23  20  227.93  185.31
  16  23  35  488.68   88.05
  16  23  41   89.61  128.39
  16  23  44   66.47   97.55
  16  23  50   41.18   79.31
  16  24 -53   74.81  138.11
  16  24 -23  160.43  105.25
  16  24 -14   41.45   73.11
  16  24  -8  219.90  170.70
  16  24  -5  390.44  137.64
  16  24  10   65.63  113.18
  16  24  16  460.04   75.56
  16  24  22  128.28   94.06
  16  24  28  687.28  110.75
  16  24  37  377.58   71.57
  16  24  43  576.72   85.66
  16  24  46  297.30  109.22
  16  24  49   62.09  104.41
  16  25 -48   71.61   91.40
  16  25 -42   90.33   88.66
  16  25 -36  139.03  122.97
  16  25  -9   98.26  153.31
  16  25  -3  266.88  123.19
  16  25  12    0.49   88.61
  16  25  15  184.38  147.70
  16  25  21   54.99   50.34
  16  25  42  507.39  127.74
  16  26 -49    7.81   90.77
  16  26 -37  191.86  122.26
  16  26 -31   79.68   95.76
  16  26 -13  631.21  152.59
  16  26  -7  251.69   95.64
  16  26  -1   16.31   90.47
  16  26   8   41.78  140.64
  16  26  20  114.69   87.07
  16  26  29   25.61  103.38
  16  26  32  161.00  104.74
  16  26  41    7.41  153.26
  16  27 -44  115.36  108.65
  16  27 -26  700.87  234.26
  16  27 -23  133.41  156.48
  16  27  -5  598.13  149.86
  16  27  -2  100.64  158.15
  16  27   1   86.87  164.87
  16  27   4   25.32  103.01
  16  27   7  158.64  182.04
  16  27  22   63.73  219.88
  16  28 -33  225.65  299.05
  16  28 -15  150.48  179.96
  16  28 -12  366.87  183.09
  16  28  -6  182.66  175.11
  16  28   3  181.84  131.69
  16  28   9    0.83   77.50
  16  28  24  117.67  142.00
  16  28  30   98.62  138.96
  16  28  36   27.33  115.68
  16  28  39    0.68  104.73
  16  29 -40   11.12  114.79
  16  29 -34   46.01  162.35
  16  29 -31  102.37  193.32
  16  29 -16  290.67  111.59
  16  29 -10  150.92  228.43
  16  29  -7  295.39  389.22
  16  29  14   95.03  193.83
  16  29  17   41.22  106.30
  16  29  29   26.22  237.88
  16  30 -26    1.34  203.05
  16  30 -23   71.32  243.30
  16  30 -17  778.56  199.78
  16  30 -11  258.77  217.27
  16  30  -8  173.13  147.53
  16  30   7  334.85   60.82
  16  30  22  552.09  165.43
  16  30  25  145.68  135.26
  16  30  28   61.26  175.22
  16  31 -30   21.51  175.30
  16  31 -27   15.60  248.87
  16  31  -3  130.42  269.63
  16  31   0  522.51  137.89
  16  31   9  254.94  136.62
  16  31  18  270.89  194.01
  16  31  21   16.54   96.58
  16  31  33  281.20  167.57
  16  32 -25  270.61  159.85
  16  32  -1  330.10  111.84
  16  32  11   31.19  184.18
  16  32  23   45.77  157.17
  16  33 -17  143.93  220.03
  16  33  -8   93.72  128.05
  16  33  -5   49.41  318.81
  16  33  -2  189.11  131.37
  16  33   4   84.01  143.71
  16  33   7   74.86   89.54
  16  33  16  134.15  125.61
  16  33  22    4.26   84.81
  16  33  25  199.75  149.87
  16  34 -18   23.99  201.86
  16  34  -6  407.08  197.95
  16  34   6   60.13  299.38
  16  34   9   26.18   87.03
  16  34  15  195.63  102.16
  16  35  -7  160.51  129.92
  16  35  -4   14.94  125.95
  17   1 -53  158.15   66.07
  17   1 -50  160.97   64.39
  17   1 -38    9.25   50.29
  17   1 -35  164.36   60.95
  17   1 -32  648.78   49.58
  17   1 -23 2916.50  214.12
  17   1 -20 3004.13  138.75
  17   1 -1723486.43  486.15
  17   1 -14 1154.79   73.90
  17   1 -11  729.21  105.77
  17   1  -8 1111.75  160.44
  17   1  -5 4401.40  385.08
  17   1  -2 2560.70  144.15
  17   1   1 5511.20  154.90
  17   1   4 2903.43   77.20
  17   1   7  753.78   53.69
  17   1  13  706.82   89.43
  17   1  19  573.77   56.90
  17   1  22  913.08   85.84
  17   1  25 3730.85  180.93
  17   1  28  955.62  102.61
  17   1  34 3156.94  175.14
  17   1  37 2313.14  194.42
  17   1  49  954.58  157.25
  17   1  58   81.61   62.69
  17   1  61   91.07   79.93
  17   1  67   58.32   59.47
  17   2 -72    0.38   54.86
  17   2 -66  230.11   80.32
  17   2 -63   37.24   70.25
  17   2 -57  125.07   62.76
  17   2 -54  202.51   53.62
  17   2 -51   67.45   51.20
  17   2 -36  453.26  211.40
  17   2 -27  654.46   53.33
  17   2 -24 3495.41   94.99
  17   2 -21  499.05   79.19
  17   2 -1513892.28  344.92
  17   2 -12 6237.81  321.04
  17   2  -6 2428.90  263.17
  17   2  -3 3124.92  125.36
  17   2   0   83.73  115.00
  17   2   3 2512.16  186.73
  17   2   6 2100.03   69.13
  17   2   9  566.72   30.00
  17   2  15 1362.88   65.28
  17   2  18  517.21   70.02
  17   2  21 3653.94  220.53
  17   2  24 1007.81  184.51
  17   2  27  112.41   48.69
  17   2  30  837.77   69.39
  17   2  33  278.43   95.39
  17   2  42 1087.00  152.06
  17   2  48  111.19  171.80
  17   3 -73   48.26   46.56
  17   3 -55  323.56   90.05
  17   3 -46    0.67   84.72
  17   3 -43  640.36  121.37
  17   3 -34  691.06   96.60
  17   3 -31  232.10   73.04
  17   3 -28 1558.42  108.83
  17   3 -22   13.18   33.79
  17   3 -19 9303.60  399.95
  17   3 -1624063.24  595.06
  17   3 -13 5229.16  378.48
  17   3 -10 6274.57  358.21
  17   3  -737119.46  852.53
  17   3  -4   21.62  206.90
  17   3  -1 5683.09  107.49
  17   3   8  243.67   54.40
  17   3  11 4653.38  161.46
  17   3  17 1336.57  156.20
  17   3  20 3777.40  195.78
  17   3  26  201.71   41.36
  17   3  32  926.52   89.93
  17   3  38  279.51   96.16
  17   3  41  216.53   96.82
  17   3  47  193.22  111.45
  17   3  50  106.72   70.79
  17   3  53  312.55  111.55
  17   3  65   34.75   79.77
  17   3  74   22.98   56.20
  17   4 -74   61.77   48.15
  17   4 -65   64.48   77.48
  17   4 -62   93.09   87.65
  17   4 -56   74.61   62.76
  17   4 -53  188.42   83.87
  17   4 -50  115.64   61.33
  17   4 -47    2.17   40.90
  17   4 -41  103.76   69.49
  17   4 -38   41.30   34.32
  17   4 -32  127.61   56.06
  17   4 -26 3231.64  194.02
  17   4 -20 1787.40  246.06
  17   4 -17 6747.91  442.11
  17   4 -1413851.88  335.40
  17   4 -11 3198.34  206.68
  17   4  -5 4474.43  101.95
  17   4  -2 4948.76  181.16
  17   4   1  174.81   46.59
  17   4   7   54.10   38.36
  17   4  10  327.08   59.85
  17   4  13  492.74   50.52
  17   4  16 9050.13  264.92
  17   4  19 6092.84  312.70
  17   4  22  391.45   39.07
  17   4  25  856.88   92.03
  17   4  28 1524.84  102.93
  17   4  31  604.45   72.55
  17   4  34    0.02   50.86
  17   4  40 1948.42  287.99
  17   4  43  387.24  194.42
  17   4  46 1558.97  169.08
  17   4  61  329.66   99.27
  17   4  73  139.59   57.83
  17   5 -72  157.78   80.17
  17   5 -63   53.46   58.60
  17   5 -48  276.55  125.24
  17   5 -45   48.58   70.35
  17   5 -42  402.71  178.46
  17   5 -39  937.94   88.90
  17   5 -36  362.31   64.68
  17   5 -33   66.91   62.76
  17   5 -24    0.19   40.17
  17   5 -1820270.06  885.11
  17   5 -1520586.98  560.30
  17   5 -12 5809.97  312.59
  17   5  -9 2799.33  299.65
  17   5   0 6735.92  243.50
  17   5   3 5668.22  268.73
  17   5   6 2607.29  199.78
  17   5   9  537.68   62.51
  17   5  12 3128.93  156.97
  17   5  15 4068.13  212.97
  17   5  18 3050.36  249.17
  17   5  21    0.06   61.87
  17   5  27 2505.94  191.39
  17   5  30 1119.74  148.43
  17   5  36  941.71  134.78
  17   5  39  513.97  120.28
  17   5  42  296.76  134.83
  17   5  45  530.96  138.41
  17   6 -70    0.01   66.08
  17   6 -64  310.78   67.33
  17   6 -61  111.46  116.25
  17   6 -55  170.95   60.99
  17   6 -49  463.42   71.24
  17   6 -46  438.38  150.62
  17   6 -43  112.52   45.06
  17   6 -40  555.96   67.34
  17   6 -28  432.97  167.68
  17   6 -16 7857.05  317.90
  17   6 -13 2473.01  318.77
  17   6 -10   73.32  154.76
  17   6  -7  755.13   99.72
  17   6  -1 2176.49  112.11
  17   6   2  949.25   91.84
  17   6   5 3939.37  108.01
  17   6   8  473.49   47.54
  17   6  11 2363.23   40.83
  17   6  14  593.18   49.03
  17   6  17 1150.02   26.73
  17   6  20  627.31   37.91
  17   6  26 1193.63  100.34
  17   6  29  450.22   88.07
  17   6  38  461.69   83.41
  17   6  44  398.48   95.42
  17   6  47  388.43   62.43
  17   6  53  173.75  106.10
  17   6  62   73.19   97.97
  17   7 -71   36.31   59.37
  17   7 -65   16.55   53.19
  17   7 -50   35.62   42.78
  17   7 -47  144.48   53.58
  17   7 -41  218.46   81.46
  17   7 -38  362.79   48.59
  17   7 -29  193.57   76.45
  17   7 -26  198.56   54.50
  17   7 -23 1811.17  188.29
  17   7 -20 1121.88   83.47
  17   7 -17 1529.00   42.62
  17   7 -11  466.37  155.50
  17   7  -8 2817.00  133.24
  17   7  -5  393.87  121.21
  17   7  -2  479.74   75.90
  17   7   1 2914.76  136.20
  17   7   4 2537.73   86.53
  17   7   7 7945.09  238.22
  17   7  10 3871.01  176.84
  17   7  13 1435.16   89.30
  17   7  16   70.99   53.52
  17   7  19 5872.41  394.74
  17   7  22   66.59   66.31
  17   7  25  287.08   65.74
  17   7  28  373.98   98.62
  17   7  34 1509.45  134.83
  17   7  55   49.28   97.53
  17   7  58  463.99  101.83
  17   7  64   79.57   90.56
  17   7  67    6.83   56.02
  17   8 -63   44.08   55.85
  17   8 -57  131.84   86.63
  17   8 -51  301.98   61.34
  17   8 -42  146.59   55.66
  17   8 -39   27.99   38.98
  17   8 -36  763.77   69.32
  17   8 -33  333.04  112.66
  17   8 -30  486.58  132.93
  17   8 -27  814.24  146.68
  17   8 -24 1041.93  127.02
  17   8 -21 2006.30  229.20
  17   8 -18 1995.31  262.94
  17   8 -15 3288.97  195.72
  17   8 -12 4454.64  426.05
  17   8  -6 1772.46  225.72
  17   8  -3 2424.34  190.99
  17   8   0 2758.72  313.44
  17   8   3 1133.14  101.71
  17   8   9  475.96   54.66
  17   8  12   94.52   37.08
  17   8  15 2498.93  144.03
  17   8  21  520.66  135.84
  17   8  24  194.26   48.18
  17   8  27  684.53   89.46
  17   8  30 1116.55  128.20
  17   8  33  117.09   65.79
  17   8  36  105.58   52.95
  17   8  39   38.62   75.01
  17   8  51  149.85   60.13
  17   8  54   48.32   97.90
  17   8  60    9.12   78.15
  17   8  69    0.00   53.60
  17   9 -67   52.20   52.69
  17   9 -55    0.02   76.35
  17   9 -49  133.01   74.99
  17   9 -46  319.34   57.44
  17   9 -40  315.21   72.49
  17   9 -31  291.18   70.98
  17   9 -25  704.32  153.39
  17   9 -16 1393.92  198.61
  17   9 -1310564.69  452.97
  17   9  -1  530.63  115.70
  17   9   5 1656.74  141.39
  17   9   8  824.45   81.00
  17   9  11  108.57   38.16
  17   9  14  178.09   42.94
  17   9  17   98.48   26.66
  17   9  20  619.51   52.61
  17   9  23  382.83   78.37
  17   9  26 1711.59  151.06
  17   9  35  130.05   80.03
  17   9  44  118.53   65.97
  17   9  47   89.79   41.89
  17  10 -65  120.83   86.66
  17  10 -59  191.89   72.17
  17  10 -47  125.94   91.51
  17  10 -44   49.24   95.12
  17  10 -38  512.78   65.95
  17  10 -35   16.33   69.48
  17  10 -26  303.53   57.58
  17  10 -23  244.52  109.95
  17  10 -20  135.67   73.10
  17  10 -17  344.19   64.63
  17  10 -11   55.28   30.00
  17  10  -8 7767.38  627.06
  17  10   4 1586.39  157.96
  17  10   7 2821.67  150.70
  17  10  10    1.68   33.88
  17  10  13   87.41   36.48
  17  10  16 2676.51  215.64
  17  10  19   32.38   42.35
  17  10  25  128.40   72.00
  17  10  34  455.84   97.65
  17  10  37   98.29   53.51
  17  10  46   53.77   50.64
  17  10  52  273.42   80.78
  17  11 -57  388.15   84.95
  17  11 -45  159.02   70.33
  17  11 -42  114.07   78.26
  17  11 -39  423.53  137.34
  17  11 -33  607.90  104.77
  17  11 -30   57.41   81.15
  17  11 -27  210.35   68.92
  17  11 -24 1231.75  161.42
  17  11 -21  308.74   56.98
  17  11 -18  170.24   41.68
  17  11 -12  659.33   81.86
  17  11  -9 3049.43  325.51
  17  11  -6   13.00   59.52
  17  11  -3  790.24   57.27
  17  11   3 1386.42  212.04
  17  11   6 1324.15  164.58
  17  11   9    1.37   50.80
  17  11  27  659.97  129.57
  17  11  33  300.52   99.38
  17  11  36  178.07   73.68
  17  11  42  147.14   94.01
  17  11  60   29.79  170.84
  17  11  66  168.70   91.66
  17  11  69   49.53   96.94
  17  12 -61  111.07  189.07
  17  12 -58   10.15   88.95
  17  12 -49   42.56   48.28
  17  12 -34  155.09   71.21
  17  12 -16  183.14   78.76
  17  12 -13    3.30   66.63
  17  12 -10  412.04   96.43
  17  12  -4 2873.26  218.02
  17  12  -1 3156.99  155.38
  17  12   2 2410.13  236.52
  17  12   5 1840.95  168.23
  17  12   8  236.91   45.79
  17  12  14   24.18   47.93
  17  12  17  422.93   89.77
  17  12  20  497.52   88.40
  17  12  23  498.06   97.46
  17  12  26  213.31   90.94
  17  12  29 1048.80  137.40
  17  12  35  154.77   66.84
  17  12  41  106.26   65.17
  17  12  59   94.63  110.41
  17  12  62   77.74   64.26
  17  12  68    0.43   77.33
  17  13 -56  103.61   94.81
  17  13 -47  145.16   68.80
  17  13 -38  108.97   29.39
  17  13 -32  264.15   87.17
  17  13 -29   28.93   75.94
  17  13 -20  543.15   58.63
  17  13 -17 1685.37  334.78
  17  13 -14 1153.37  122.13
  17  13 -11  680.74  134.20
  17  13  -8  349.10   51.02
  17  13  -5 5122.16  269.22
  17  13  -2  119.60   45.80
  17  13   1 3663.43  273.17
  17  13   4 2433.68  222.94
  17  13   7 3607.23  242.00
  17  13  10  338.70   46.49
  17  13  16  340.92   45.05
  17  13  19  324.87   97.81
  17  13  31  145.27   80.10
  17  13  37  283.74  104.16
  17  13  40   88.42   69.58
  17  13  55  182.02  106.21
  17  13  58  192.14  200.06
  17  14 -66  161.95  117.36
  17  14 -60  289.59  196.25
  17  14 -54  166.39   96.00
  17  14 -48  374.20   66.77
  17  14 -45  247.77  161.73
  17  14 -42  104.63   55.03
  17  14 -36  620.28  102.30
  17  14 -33  238.14   51.32
  17  14 -30  433.31  118.37
  17  14 -27  251.13  110.17
  17  14 -24  397.62   85.33
  17  14 -15  133.17   63.84
  17  14 -12  244.97   39.49
  17  14  -9 5224.17  374.99
  17  14  -6 2726.64  329.36
  17  14   0 2034.10  235.37
  17  14   3 1082.86  105.10
  17  14   6 1091.46  260.91
  17  14   9 1347.38  158.11
  17  14  12 3100.12  223.78
  17  14  15 1364.54  172.59
  17  14  21  752.73  117.53
  17  14  24  561.44   72.91
  17  14  27  208.79  103.85
  17  14  33  217.61  103.26
  17  14  36   68.97   69.96
  17  14  54  215.95   77.98
  17  14  57   81.63   62.13
  17  14  63   13.76   71.97
  17  14  66  190.52   97.63
  17  15 -64  267.65  197.39
  17  15 -58  120.03  170.66
  17  15 -49    0.82   86.69
  17  15 -46  379.38  108.97
  17  15 -43   18.59  108.98
  17  15 -40  170.27   88.49
  17  15 -31  229.98   82.24
  17  15 -28  225.58   57.56
  17  15 -25  101.73   89.76
  17  15 -16  219.43   39.48
  17  15 -13  262.17  137.43
  17  15  -7 1200.77  247.48
  17  15  -4  410.92   66.22
  17  15   5   82.31   51.76
  17  15   8  642.69  129.52
  17  15  11  492.99   75.55
  17  15  14 2142.65  146.18
  17  15  17  158.17   73.75
  17  15  20  587.50  103.69
  17  15  23  769.11  129.61
  17  15  26   48.55   58.47
  17  15  47  257.50   83.02
  17  15  53   14.52   81.86
  17  15  56   91.03  120.40
  17  15  65  109.68   78.83
  17  16 -56   68.39  124.90
  17  16 -53   60.69  104.77
  17  16 -50  345.15  168.53
  17  16 -38  275.87  268.69
  17  16 -32  517.34  115.54
  17  16 -23  507.98  100.57
  17  16 -20  482.80  110.01
  17  16 -17   92.57   78.32
  17  16 -11  474.09   89.04
  17  16  -8  635.38  145.91
  17  16  -5  400.71   49.57
  17  16  -2  493.28   50.75
  17  16   1  279.63   72.07
  17  16   4  508.98  123.40
  17  16   7  245.80  109.87
  17  16  10   68.10   41.76
  17  16  13   56.40   63.09
  17  16  16  746.10   89.19
  17  16  19  256.48   91.32
  17  16  22  158.71   42.66
  17  16  25   38.13   72.90
  17  16  28  181.23   34.95
  17  16  40  567.09  151.37
  17  16  43  426.02   77.06
  17  16  46  121.26   70.25
  17  16  61   46.52  117.58
  17  16  64   57.68  185.91
  17  17 -39   83.01   98.77
  17  17 -33  157.43   85.86
  17  17 -24   86.60   63.18
  17  17 -21  343.55  100.29
  17  17 -15  134.16   69.61
  17  17  -6 1759.45  266.05
  17  17   0 2683.88  173.08
  17  17   6  386.15   60.79
  17  17   9 3688.32  538.03
  17  17  18   45.38   92.63
  17  17  21  248.24   51.11
  17  17  24  968.61  112.65
  17  17  27   82.84   50.42
  17  17  30  312.18  121.43
  17  17  36  290.61   83.10
  17  17  42  713.58  180.72
  17  17  45  420.30   77.60
  17  17  48  103.17   84.41
  17  17  51  153.87   63.66
  17  17  57    9.33   70.48
  17  18 -55   42.96  124.65
  17  18 -49  661.89  116.08
  17  18 -40  964.62  149.63
  17  18 -37  782.73  221.20
  17  18 -34  796.20  164.55
  17  18 -31   32.67  160.41
  17  18 -19  460.80  158.05
  17  18 -13  425.34  173.64
  17  18 -10  120.83  129.96
  17  18  -7  333.55   70.66
  17  18  -4  201.39   61.09
  17  18   2  367.14   79.70
  17  18   8 1181.12  140.96
  17  18  11  117.18   65.25
  17  18  20  689.02  127.87
  17  18  23  140.96   60.16
  17  18  32  432.50   92.97
  17  18  35  379.84   95.75
  17  18  38  316.03   72.86
  17  18  44    1.59   62.74
  17  18  50   63.52  121.18
  17  18  53    5.57   57.28
  17  18  59  101.41   78.71
  17  19 -56  118.71   94.04
  17  19 -53   59.44  140.14
  17  19 -17  364.58  101.36
  17  19 -14  500.53  110.50
  17  19 -11  618.43  133.42
  17  19  -2  605.77  113.65
  17  19   7  116.51   44.05
  17  19  10   78.30   74.40
  17  19  13  581.92  142.31
  17  19  16  322.90   70.32
  17  19  25  302.83   53.95
  17  19  28 1062.22  150.09
  17  19  31   58.72   84.68
  17  19  37   27.82   89.01
  17  19  43  118.02   77.84
  17  19  46  525.30  197.80
  17  19  49    0.00  101.70
  17  20 -45  221.99  113.03
  17  20 -36  382.34  105.85
  17  20 -33   28.94   89.95
  17  20 -30    2.31   69.46
  17  20 -21   68.26   99.08
  17  20  -3    6.56   83.36
  17  20   0  769.49  103.19
  17  20   3 2030.56  245.43
  17  20  15  954.86  119.96
  17  20  18  593.46  134.54
  17  20  24   47.97   94.47
  17  20  33  155.19  102.84
  17  20  36  110.09   55.36
  17  20  57   93.85  110.56
  17  21 -43  350.27  235.07
  17  21 -40  430.22  147.78
  17  21 -10  324.88  152.20
  17  21  -7    8.83  108.19
  17  21  -4  493.44  113.31
  17  21  -1  379.81   69.09
  17  21   8  126.47   80.10
  17  21  17  200.61   63.83
  17  21  26  295.76   91.07
  17  21  32    3.28   90.73
  17  21  38  193.37  111.65
  17  21  41   26.54   98.05
  17  22 -50   97.61   50.78
  17  22 -44   58.71   88.51
  17  22 -35   59.87   85.15
  17  22 -26  794.75  109.06
  17  22 -23  597.98  113.53
  17  22 -17  220.40  107.77
  17  22 -11  167.11  108.25
  17  22  -8  359.87   87.52
  17  22   4   35.47   51.62
  17  22   7   55.39   59.63
  17  22  13  553.27   77.20
  17  22  19  172.73  116.95
  17  22  25   69.57  119.16
  17  22  31  556.60   97.71
  17  22  34   72.23  106.25
  17  22  37  279.52   93.83
  17  22  43  247.25  115.57
  17  22  46   45.92   88.62
  17  22  55  110.06   87.06
  17  23 -36  101.70  163.10
  17  23 -30  111.32   72.40
  17  23 -24  606.53  111.08
  17  23 -18  347.44  147.64
  17  23 -12  129.04   61.47
  17  23  -9   35.45  142.81
  17  23  -6   10.69  141.30
  17  23  -3  241.47  133.42
  17  23   0   61.52   56.61
  17  23   3  171.15   80.53
  17  23   6  497.16   79.84
  17  23  18  142.55  154.83
  17  23  24  214.19  103.89
  17  23  27  380.97   68.30
  17  24 -34   35.02  124.16
  17  24 -28  231.93  124.59
  17  24 -25  607.19  107.47
  17  24 -22   87.41  116.32
  17  24 -19  156.52   83.38
  17  24  -4 1052.00  148.51
  17  24   2   92.61   79.97
  17  24  20  439.01  156.53
  17  24  26  215.28  115.52
  17  24  41  231.94  112.18
  17  24  44   84.71  152.36
  17  25 -47   12.54   75.91
  17  25 -41   22.69   95.89
  17  25 -32  613.23   83.74
  17  25 -29  445.99  139.86
  17  25 -26    4.21  148.06
  17  25 -17  453.77  111.88
  17  25 -14    2.41  140.68
  17  25 -11   70.86  128.69
  17  25  -5  976.20  249.13
  17  25  -2  219.94  182.62
  17  25   4   95.37  250.87
  17  25  13  187.90  109.85
  17  25  22  182.18  120.89
  17  25  25   73.92   96.30
  17  25  49   27.44   87.17
  17  26 -33   56.08  241.96
  17  26 -24  408.70  172.11
  17  26 -18  116.35  168.75
  17  26  -9  306.86  171.76
  17  26  -6  697.06  218.14
  17  26   3   61.04  108.28
  17  26   9  479.02  135.04
  17  26  12   80.17   59.01
  17  26  15 1222.70  379.79
  17  26  18  191.95   96.34
  17  26  30   12.49   74.01
  17  26  36  111.28  116.86
  17  26  42   66.75   96.39
  17  26  45  236.53  141.88
  17  27 -34  147.14  243.15
  17  27 -16  553.16  179.68
  17  27  -7  243.32  423.75
  17  27  -4  178.32  291.44
  17  27   2  162.05  183.21
  17  27  20   61.46  101.30
  17  27  26  161.89  139.63
  17  27  29   22.95  103.62
  17  27  38   71.68  100.83
  17  28 -17  149.46  153.84
  17  28  10  182.61  130.99
  17  28  19  216.50  112.28
  17  28  31  149.76  116.66
  17  28  34   35.13  103.92
  17  28  40   91.39   96.60
  17  29 -39  115.98   86.18
  17  29 -30   66.52  204.17
  17  29 -15    1.61  110.58
  17  29   3  144.06  109.24
  17  29  24   58.15  129.51
  17  29  27   93.53  132.97
  17  30 -34   42.68  215.76
  17  30 -28   39.52  124.76
  17  30  -1  219.66  303.82
  17  30  17    1.34  187.13
  17  30  20   17.60  125.70
  17  30  26  118.46  121.93
  17  31 -20   93.60  151.30
  17  31  10  124.98  101.24
  17  31  19    0.17  143.36
  17  32 -27   39.61   90.27
  17  32 -24  556.91  320.20
  17  32 -21  105.32  155.91
  17  32  21  126.84   81.99
  17  32  24   10.20  150.61
  17  32  27  230.68  107.24
  17  33 -19  158.55  129.80
  17  33 -16  169.64   94.55
  17  33  -7   23.12  172.51
  17  33  11   21.05  113.29
  17  33  17  129.18  126.01
  17  33  20   97.26  137.45
  17  33  23  184.92  210.13
  17  34 -17  156.91  121.15
  17  34 -14  310.16  106.67
  17  34  -8   95.50  156.30
  17  34  -2  147.44  101.60
  17  34   4  210.17  322.60
  18   1 -64  127.10   94.40
  18   1 -61  589.95   79.15
  18   1 -49  300.83   65.95
  18   1 -46  363.41   91.82
  18   1 -40  232.52  186.69
  18   1 -34 3709.41  245.89
  18   1 -31  189.05   34.67
  18   1 -25  184.90   73.14
  18   1 -22  770.70   38.30
  18   1 -19  981.51  101.61
  18   1 -16 1207.99  113.98
  18   1 -10   70.56  108.17
  18   1  -4  520.01   59.77
  18   1  -1    1.95   65.89
  18   1   2 4101.30  234.17
  18   1   5 2155.36  104.42
  18   1   8 1784.73  106.87
  18   1  11  394.79   68.16
  18   1  14 2386.77   27.52
  18   1  17 4529.75  221.15
  18   1  20 2595.26  233.38
  18   1  23 1546.02   72.66
  18   1  26  575.14  107.83
  18   1  38  965.16  160.62
  18   1  41   66.20  154.90
  18   1  44  324.29  102.28
  18   1  47  460.12  367.79
  18   1  56  100.55   85.28
  18   1  71  156.86   75.92
  18   2 -65   21.80   66.61
  18   2 -56  118.13   78.68
  18   2 -41  851.30  275.11
  18   2 -38   80.12   68.11
  18   2 -35  387.36   55.68
  18   2 -32 4285.99  201.12
  18   2 -29 1527.04  150.61
  18   2 -26  260.37   60.91
  18   2 -23 1904.58   96.15
  18   2 -20 3717.77  265.72
  18   2 -14 5866.86  128.96
  18   2 -1117073.51  457.31
  18   2  -8 4635.81  154.69
  18   2  -512868.45  404.50
  18   2  -2 3837.34  251.81
  18   2   1 8548.31  327.86
  18   2   4  689.99   56.41
  18   2   7  420.62   37.69
  18   2  10 1698.35   56.29
  18   2  16 1294.17   28.14
  18   2  19 2216.75  152.33
  18   2  22 1674.60   70.62
  18   2  28  956.14   89.49
  18   2  31 2208.79  168.90
  18   2  34  520.07  109.49
  18   2  46  374.45  115.74
  18   2  49  639.03  158.43
  18   2  61  385.95   85.85
  18   2  64   74.71   69.49
  18   2  67   88.52   90.95
  18   3 -54  252.57   64.89
  18   3 -48  936.22  149.59
  18   3 -45  117.23   99.75
  18   3 -42   22.67   39.53
  18   3 -39   78.36   63.87
  18   3 -30   88.40   52.32
  18   3 -21  385.55   67.63
  18   3 -18  312.52  112.62
  18   3 -15 5899.45  528.70
  18   3 -1217720.20  401.18
  18   3  -919817.27  452.35
  18   3  -6 2308.89  151.18
  18   3  -3  522.76  142.02
  18   3   0  615.96  118.13
  18   3   3  798.41  117.15
  18   3   6  415.31  126.19
  18   3   9   88.06   31.61
  18   3  12 4431.54  194.81
  18   3  15   96.17   85.28
  18   3  18    0.90   28.42
  18   3  21   18.93   34.78
  18   3  24 1376.76  159.20
  18   3  27  471.41   55.15
  18   3  42  249.48   80.44
  18   3  48   58.74  110.54
  18   3  57  251.97  129.95
  18   3  63   22.53   73.12
  18   3  69  217.13   95.90
  18   3  72   20.03   73.45
  18   4 -73  263.15   59.98
  18   4 -70    5.26   56.35
  18   4 -64  168.79   59.17
  18   4 -61   49.83   41.83
  18   4 -58   77.49   45.72
  18   4 -55  356.80  115.82
  18   4 -52   55.81   47.06
  18   4 -40  791.53  161.72
  18   4 -37  562.00   65.92
  18   4 -34   90.87   89.60
  18   4 -31 3160.67  268.16
  18   4 -28 7226.01  263.78
  18   4 -25  535.73   60.28
  18   4 -16 1877.37  201.25
  18   4 -1310355.74  356.86
  18   4 -10 5853.73  475.68
  18   4  -7  211.71   93.13
  18   4  -1  379.42   66.88
  18   4   2 2938.52  207.49
  18   4   510172.29  243.10
  18   4   8 8597.20  219.33
  18   4  11 1378.23   94.92
  18   4  14 1329.03   62.89
  18   4  17   26.34   41.15
  18   4  20  101.26   44.34
  18   4  23  413.88   76.93
  18   4  26 1449.98  123.61
  18   4  29  672.72  102.94
  18   4  32  284.17  100.46
  18   4  38 1390.29  156.68
  18   4  44  768.37  173.05
  18   4  53  174.90  105.59
  18   4  65  362.23   97.65
  18   5 -71   45.98   53.45
  18   5 -68   14.81   46.18
  18   5 -59  140.39   46.31
  18   5 -53   72.10   62.51
  18   5 -50   60.79   42.60
  18   5 -47  617.63  145.69
  18   5 -44  268.35   74.26
  18   5 -41   74.28   37.06
  18   5 -35   46.09   37.92
  18   5 -29  213.96   51.05
  18   5 -23  140.49   93.07
  18   5 -17  598.29  110.82
  18   5 -14 5631.04  360.84
  18   5 -11 3199.64  300.55
  18   5  -8 8383.23  395.30
  18   5  -510368.10  308.82
  18   5  -2 1234.94  175.75
  18   5   1 3111.19  142.74
  18   5  10   12.25   44.43
  18   5  13 2422.05   75.23
  18   5  16   13.10   20.06
  18   5  25  222.70   54.73
  18   5  28  974.44  146.21
  18   5  31 1026.24  152.34
  18   5  34  414.69  109.21
  18   5  37  300.43  163.13
  18   5  40  108.20   75.57
  18   5  46  126.57   97.57
  18   5  58  118.24  107.23
  18   5  64  221.60   95.71
  18   5  67   97.49   57.41
  18   6 -60   82.50   70.12
  18   6 -51   38.14   63.10
  18   6 -42   61.74   61.11
  18   6 -30  749.08  122.62
  18   6 -27  455.30   82.17
  18   6 -24  216.71   70.07
  18   6 -15 2118.85  238.22
  18   6 -1210774.42  431.32
  18   6  -9 4809.14  399.83
  18   6  -6  210.64  147.00
  18   6  -311518.42  318.33
  18   6   0 1482.95  169.81
  18   6   6 2237.79  189.60
  18   6   9  352.26   31.38
  18   6  12   48.62   51.60
  18   6  15 5509.22  272.57
  18   6  18 2051.12  202.05
  18   6  33 1284.24  141.80
  18   6  39  192.63   70.90
  18   6  51  239.64   75.45
  18   6  57  114.60   72.75
  18   6  60   23.16   67.31
  18   6  66   93.35  106.80
  18   7 -61   57.92   53.41
  18   7 -58  351.45   69.13
  18   7 -55   40.09   57.34
  18   7 -52   27.42   80.73
  18   7 -37   28.01   48.40
  18   7 -34  329.47  109.04
  18   7 -31    2.88   41.24
  18   7 -28  591.53   67.66
  18   7 -25 2255.68  239.85
  18   7 -19 1746.08  139.39
  18   7 -16 1802.06  166.44
  18   7 -13  522.46   70.45
  18   7 -10 1045.65  170.66
  18   7  -4   12.33   52.76
  18   7  -1 2129.54   88.25
  18   7   2 1016.73  100.12
  18   7   8 1573.93  141.36
  18   7  11 1325.83  151.87
  18   7  14    5.46   62.04
  18   7  17 1483.91  126.95
  18   7  23  317.06   41.69
  18   7  26  857.56  148.88
  18   7  32 2863.09  311.88
  18   7  35  362.64  108.38
  18   7  38   45.91   80.63
  18   7  41   45.59   90.59
  18   7  50   86.10   72.26
  18   7  53  157.79  105.62
  18   7  56  177.65   58.58
  18   7  59  143.20  115.24
  18   8 -59  279.81   66.96
  18   8 -56  539.17   82.05
  18   8 -50   63.93   54.52
  18   8 -47   31.71   56.75
  18   8 -41  118.78   46.43
  18   8 -38    9.17   55.92
  18   8 -35  272.65   55.59
  18   8 -32  127.90   66.37
  18   8 -29 1324.55  132.47
  18   8 -26  501.21  174.20
  18   8 -20  390.45   76.70
  18   8 -17 1254.88  128.93
  18   8 -11 1098.97  217.78
  18   8  -8 1613.60  160.54
  18   8  -2  140.24   59.75
  18   8   1  938.71   98.86
  18   8   4  506.93   58.58
  18   8  13  534.19   66.36
  18   8  16 1250.21  100.07
  18   8  19  145.73   51.14
  18   8  22 1907.68  140.26
  18   8  25   45.90   47.88
  18   8  28  125.98   62.31
  18   8  37  498.43   67.55
  18   8  43  210.89  105.93
  18   8  52   13.48   94.74
  18   8  55  121.63   92.74
  18   8  70  337.72  101.99
  18   9 -69  141.11   68.95
  18   9 -57  133.29   66.97
  18   9 -51  496.70  167.99
  18   9 -45   29.43   76.22
  18   9 -39  134.37   59.63
  18   9 -36  126.66   82.09
  18   9 -24 2574.62  287.66
  18   9 -21  911.75  101.74
  18   9 -12 1275.80  157.21
  18   9  -9  398.41  119.39
  18   9  -6  290.10   93.04
  18   9  -3 1054.04  170.46
  18   9   0 3778.28  407.43
  18   9   3  370.79   57.35
  18   9   6 2902.32  150.92
  18   9  18 2979.69  218.18
  18   9  21  161.97   53.94
  18   9  24 1063.17  176.41
  18   9  27  683.73   88.04
  18   9  30  356.61   45.78
  18   9  42  438.53   90.46
  18   9  54  130.68   88.00
  18   9  57  298.03   76.72
  18   9  60  208.43   73.42
  18   9  66   15.68   53.18
  18  10 -67  162.14   97.46
  18  10 -61  267.86  114.55
  18  10 -58   37.73  117.78
  18  10 -55   77.41   58.90
  18  10 -46  163.75   69.28
  18  10 -40   38.89   55.94
  18  10 -37  164.42   52.26
  18  10 -31  243.32   96.87
  18  10 -25  772.42  120.26
  18  10 -22  126.38   43.48
  18  10 -19   70.93   48.10
  18  10 -16  566.61   89.32
  18  10  -4 1004.34  164.03
  18  10  -1  525.81  132.76
  18  10   5  244.99   37.96
  18  10   8 1614.79  109.98
  18  10  11  566.94  127.90
  18  10  14  208.10   39.47
  18  10  17   88.72   39.91
  18  10  20  484.38  108.79
  18  10  23 1298.58  166.30
  18  10  26 1477.01  109.61
  18  10  29  364.12  124.04
  18  10  38  496.50  125.35
  18  10  53  189.09   88.14
  18  10  62  117.18   77.07
  18  10  68   41.09   78.77
  18  11 -68   30.34   70.15
  18  11 -50  188.07   72.95
  18  11 -44   98.50  102.96
  18  11 -35   57.01   43.53
  18  11 -32  126.92   63.32
  18  11 -29    4.32   41.70
  18  11 -20  255.69   62.76
  18  11 -17  572.36   92.66
  18  11 -14  307.31  133.98
  18  11 -11  120.96   36.41
  18  11  -8 6757.84  784.54
  18  11  -5 2017.31  258.19
  18  11   1 2061.77  182.97
  18  11   4 1166.12  117.26
  18  11  10 5636.62  309.34
  18  11  13 4193.94  286.85
  18  11  16 1964.92  169.39
  18  11  19 3593.31  341.36
  18  11  22  472.63   73.99
  18  11  25  513.91  142.72
  18  11  31  147.78   94.39
  18  11  34  457.89  127.14
  18  11  37  798.92  124.33
  18  11  40  231.30   79.40
  18  11  49  219.81   94.15
  18  11  52  118.11  104.96
  18  11  58  149.90   76.87
  18  11  61  298.05   73.78
  18  12 -66  118.78   72.42
  18  12 -60   72.68  117.77
  18  12 -45  876.44   86.54
  18  12 -42  207.59   57.05
  18  12 -39  413.92   62.21
  18  12 -36  185.13   62.51
  18  12 -33   34.70  109.86
  18  12 -21  195.82   69.72
  18  12 -18 2160.31  199.63
  18  12 -12  542.55   65.50
  18  12  -6 1189.70  167.75
  18  12  -3   76.09   75.67
  18  12   0  492.94   65.84
  18  12   3  674.96   85.89
  18  12   6  844.56  126.54
  18  12   9 1226.78   96.60
  18  12  12 1550.98  160.83
  18  12  21  768.99  111.52
  18  12  24   99.30   68.79
  18  12  27  651.93   88.02
  18  12  30  182.50   91.16
  18  12  33  412.37   81.87
  18  12  39  115.98   58.71
  18  12  48  685.99   96.16
  18  12  57   89.76   80.51
  18  12  63  323.69  111.57
  18  12  66   23.42   90.77
  18  13 -58   96.16  118.67
  18  13 -52    3.95  123.87
  18  13 -49  482.53  108.20
  18  13 -37  136.65  119.39
  18  13 -34  886.52  147.18
  18  13 -31  304.96   57.94
  18  13 -25  340.59   70.96
  18  13 -22  395.87   96.63
  18  13 -19   18.45   31.92
  18  13 -16  140.02   62.21
  18  13  -7   18.76  103.19
  18  13  -4  285.23  112.53
  18  13  -1  171.01   46.77
  18  13   5 1764.79  157.35
  18  13   8  451.89   54.87
  18  13  11  251.30   87.38
  18  13  14 1483.44  122.97
  18  13  17  112.58   47.19
  18  13  23 3085.27  193.27
  18  13  26    6.78   53.88
  18  13  35  816.27  103.92
  18  13  44   42.21  100.88
  18  13  62  167.71  113.12
  18  13  65   21.19   89.81
  18  14 -44  540.57  208.71
  18  14 -38  117.69  166.24
  18  14 -32   52.14  124.64
  18  14 -29  243.54   50.89
  18  14 -20  545.84   61.65
  18  14 -17   21.27   34.16
  18  14 -14  308.39   87.07
  18  14 -11 1211.94   79.77
  18  14  -2 1875.22  200.67
  18  14   1  146.67   52.14
  18  14   4 3148.68  602.02
  18  14   7 1468.09  217.32
  18  14  10  834.85   95.36
  18  14  13 1350.25  245.24
  18  14  19   23.18   65.46
  18  14  22  108.84   70.34
  18  14  25   18.39   74.60
  18  14  37  108.48   90.40
  18  14  40  219.15  138.49
  18  14  49   36.57   90.95
  18  14  64  104.63  105.79
  18  15 -51  167.34   92.79
  18  15 -27  606.54   89.58
  18  15 -21  647.61   94.07
  18  15 -18  954.21   93.06
  18  15 -12 1063.15  111.46
  18  15  -9 1225.97  154.26
  18  15  -6 5351.56  336.61
  18  15  -3  249.11   96.31
  18  15   3 4131.27  316.48
  18  15   6  965.88  197.11
  18  15   9  449.19  152.61
  18  15  12 1679.94  259.38
  18  15  15 1300.84  169.64
  18  15  18  823.66   70.02
  18  15  21  466.22  100.81
  18  15  24  235.63   60.41
  18  15  27  400.99  115.04
  18  15  42  370.79   95.88
  18  15  48  166.47   73.29
  18  15  51  165.25   70.87
  18  15  60  110.39   57.22
  18  16 -55  253.66  180.72
  18  16 -43  110.43   95.00
  18  16 -40   99.69  154.02
  18  16 -37   12.39  141.72
  18  16 -28  275.87   64.23
  18  16 -25  624.56  240.86
  18  16 -16  157.87  121.63
  18  16 -13   68.38   78.81
  18  16 -10 1265.07  188.57
  18  16  -7  175.05   96.69
  18  16  -4    3.83   87.86
  18  16  -1 3033.53  180.64
  18  16   2  370.49  143.39
  18  16   5 1358.50  201.25
  18  16   8 1263.89  163.64
  18  16  11 1037.08  191.26
  18  16  14  316.65   87.56
  18  16  17 1245.64  131.00
  18  16  23  689.32   75.79
  18  16  29  213.32   80.07
  18  16  44   98.43   84.21
  18  16  53   98.60   65.59
  18  16  56   13.52   80.84
  18  16  62  110.40   60.71
  18  17 -47  325.81  199.44
  18  17 -38  717.74  199.82
  18  17 -32  295.67   98.60
  18  17 -29  363.36  100.60
  18  17 -17  591.08   96.97
  18  17  -2    4.45   47.64
  18  17   1  318.56   59.31
  18  17   7 1252.40  195.13
  18  17  13  943.43   98.23
  18  17  16   82.32   45.02
  18  17  19  321.49   84.09
  18  17  22  264.72   56.88
  18  17  28  185.72   42.91
  18  17  31  211.30   76.13
  18  17  34  467.87  113.11
  18  17  37  116.93   60.86
  18  17  49   33.47  122.21
  18  17  55  165.05  241.71
  18  18 -51   54.30   97.78
  18  18 -48   43.06  125.98
  18  18 -45  255.70  112.00
  18  18 -42  148.81  163.55
  18  18 -39  194.82  121.27
  18  18 -27   11.91   73.64
  18  18 -15  276.76  132.71
  18  18  -9  433.49  131.11
  18  18  -6  130.38   53.94
  18  18  -3  122.68   95.70
  18  18   0  478.71   92.54
  18  18   3  442.59   50.90
  18  18  18  259.17   63.02
  18  18  27  596.86   61.51
  18  18  30   27.61   85.28
  18  18  33   96.02   65.92
  18  18  36  284.34   97.00
  18  18  39   96.73   97.29
  18  18  48   76.93   77.90
  18  18  54  231.48  115.90
  18  18  60  108.42  127.11
  18  19 -37  340.18  115.45
  18  19 -25  315.22  104.16
  18  19 -22  341.01  128.04
  18  19 -19  173.59   77.13
  18  19   2  368.23   82.37
  18  19   5  219.29  111.99
  18  19  11 1239.84  171.92
  18  19  23  129.37   44.72
  18  19  29   17.02   87.34
  18  19  32  111.27   86.30
  18  19  50   15.49   87.25
  18  20 -29  377.12  114.88
  18  20 -26  552.46  176.48
  18  20 -20  530.30  128.03
  18  20 -17 1123.97  179.54
  18  20 -14  491.34   93.99
  18  20  -8  243.30   79.26
  18  20  -2  276.31  175.71
  18  20   1  398.72  100.85
  18  20   4   46.06   66.54
  18  20   7  594.61   63.14
  18  20  10 1661.44  153.72
  18  20  25  765.65  560.59
  18  20  28  594.56  124.34
  18  20  34   12.50   80.90
  18  20  37   51.43  100.48
  18  20  40  103.21   89.83
  18  20  46   26.04  135.70
  18  20  52   91.11  116.10
  18  20  55   80.33   76.30
  18  21 -42  711.72  157.67
  18  21 -27  124.20   82.60
  18  21 -18  203.96  103.89
  18  21 -15  542.07  194.65
  18  21  -9  434.29  121.24
  18  21   0  297.26   56.12
  18  21  18  201.16   55.01
  18  21  21  279.66  156.87
  18  21  27  150.41   88.15
  18  21  39   99.01   88.83
  18  21  42  194.47   79.81
  18  22 -43   18.65   85.35
  18  22 -37  168.89  177.33
  18  22 -28   86.06  118.96
  18  22 -25  191.70   93.94
  18  22 -22  284.41  126.83
  18  22 -16  354.32  131.55
  18  22 -13  463.99  156.88
  18  22  -4   12.49   66.16
  18  22   2   42.55   60.21
  18  22   8  215.44   77.95
  18  22  11  219.71  150.17
  18  22  17  290.35   70.88
  18  22  20  358.85   94.93
  18  22  26  260.33  117.73
  18  22  32  188.60   85.04
  18  22  41  250.70   85.84
  18  22  47  151.00  132.31
  18  22  53  218.28   96.16
  18  23 -44   25.98  104.68
  18  23 -35  166.32   82.38
  18  23 -23  262.40  127.78
  18  23 -14   70.54  104.10
  18  23  -8   19.72   87.37
  18  23  25  901.60  153.03
  18  23  37  115.59   71.79
  18  23  46   33.64  107.46
  18  24 -48    3.23   90.10
  18  24 -36   42.33   95.95
  18  24 -33   91.15   78.74
  18  24 -18  299.19   69.15
  18  24  -9  123.62  112.34
  18  24  -6  366.80  140.36
  18  24   9  568.76   90.25
  18  24  12  189.59  165.94
  18  24  15   28.34  100.43
  18  24  18  450.80  168.46
  18  24  48  137.54   63.38
  18  25 -43  145.34  132.09
  18  25 -40   55.20   67.47
  18  25 -37  216.28   68.75
  18  25 -34   43.01  207.99
  18  25 -31   99.26  132.70
  18  25 -22   32.97  182.97
  18  25 -13  291.44  166.85
  18  25  -7  471.78  272.76
  18  25  -1  319.28  239.30
  18  25   5  236.89  139.28
  18  25   8   69.32   76.78
  18  25  11  457.66  129.30
  18  25  17  649.37  165.29
  18  25  20  256.90  119.38
  18  25  26  198.46  104.58
  18  25  47   97.57   66.10
  18  26 -44  190.30  176.85
  18  26 -41  391.88  146.95
  18  26 -23   55.47  166.83
  18  26   7   90.70  102.72
  18  26  10   57.24   75.56
  18  26  22  171.75  127.43
  18  26  25  494.98  218.56
  18  26  43  177.41  206.29
  18  27 -36  361.47  211.86
  18  27 -33  386.14  179.34
  18  27 -27    2.28  181.32
  18  27 -18  243.57  193.65
  18  27 -15  135.06  169.02
  18  27   3  129.04  263.75
  18  27  21  459.60  117.23
  18  28 -31   41.12  195.19
  18  28 -25   13.10  141.34
  18  28 -16    7.23  175.45
  18  28 -13   97.93  141.72
  18  28   8  461.93   84.53
  18  28  11  176.49  179.58
  18  28  17  363.44  106.35
  18  28  23   46.04  125.92
  18  29 -32   20.63  152.96
  18  29 -23   28.82  241.20
  18  29 -11  152.99  117.08
  18  29   1  219.13  251.55
  18  29   7  227.75   87.16
  18  29  10  153.16   89.24
  18  29  16  106.98  168.98
  18  29  19    0.55  155.31
  18  30 -33   78.92  264.82
  18  30 -24  141.33  233.74
  18  30 -18   53.91  124.35
  18  30  15  211.92  149.39
  18  30  27   54.14  135.38
  18  31 -19   36.53  128.53
  18  31 -13  209.85   93.35
  18  31 -10   25.55  164.61
  18  31  -1   88.89  125.74
  18  31  14  156.21  117.61
  18  31  26  175.02  126.93
  18  31  29  342.69  157.62
  18  32 -23   11.61   94.72
  18  32 -20  222.04  168.82
  18  32 -11  118.21  132.58
  18  32  -8   95.79  203.85
  18  33  -9  228.48  257.11
  18  33  -3   28.77   80.37
  18  33  15  101.61  192.80
  19   1 -66   18.14   51.36
  19   1 -63   82.36   79.96
  19   1 -48   32.66   58.44
  19   1 -42  161.77   62.85
  19   1 -33   24.41   41.86
  19   1 -30  857.17   46.66
  19   1 -27  950.18  166.96
  19   1 -21  494.47   77.19
  19   1 -18 1145.43   92.25
  19   1 -15 3361.08  248.31
  19   1  -9   90.09  101.20
  19   1  -6 1355.50   84.77
  19   1  -3 9752.67  283.48
  19   1   0 1688.64   68.17
  19   1   9  581.21   48.17
  19   1  12 1801.65   37.76
  19   1  18 4877.60  185.91
  19   1  21 3444.51  221.41
  19   1  24  468.29   52.06
  19   1  30  605.56   57.69
  19   1  36 1164.29  244.25
  19   1  39  685.99   99.25
  19   1  42  308.42  109.84
  19   1  45  399.02  189.03
  19   1  48  468.57   87.94
  19   1  54  145.97   93.44
  19   1  60  134.27   89.75
  19   2 -64   40.75   68.36
  19   2 -61  224.75   62.06
  19   2 -58   14.87   46.68
  19   2 -55   63.39   92.38
  19   2 -52  104.57   54.67
  19   2 -46  236.10   66.64
  19   2 -40  369.38   80.21
  19   2 -37   69.11   52.41
  19   2 -34  290.02   70.56
  19   2 -31  401.82   83.31
  19   2 -28 1611.00  118.36
  19   2 -25  383.88  103.48
  19   2 -22  810.00   57.53
  19   2 -19  295.66   64.51
  19   2 -16 2556.18   97.44
  19   2 -13 2329.47  271.00
  19   2 -10 2963.36  175.91
  19   2  -1 1312.63   69.63
  19   2   2 3954.76  164.83
  19   2   5   15.57   73.13
  19   2   8 2658.43  144.97
  19   2  11   34.44   22.59
  19   2  17 4253.64  205.15
  19   2  20 2195.75  119.99
  19   2  23   70.05   40.48
  19   2  29 3127.51  250.84
  19   2  32  366.65   77.99
  19   2  35  604.75  119.18
  19   2  38   78.44  105.56
  19   2  41   65.38   58.16
  19   2  44  248.17   64.88
  19   2  47  288.66  139.57
  19   2  50   12.38   76.63
  19   2  65  178.35   74.20
  19   3 -56  115.84  116.95
  19   3 -53  451.59  105.68
  19   3 -50    5.37   46.83
  19   3 -44  387.62  229.72
  19   3 -38  212.07   86.94
  19   3 -32   30.88   68.13
  19   3 -29  835.42   46.82
  19   3 -23  334.73   74.22
  19   3 -20    1.16   83.50
  19   3 -17 8158.64  288.68
  19   3 -11 5384.82  293.51
  19   3  -5 4463.13  104.55
  19   3  -2 5964.89  174.91
  19   3   1 9633.20  238.02
  19   3   4 3556.96  150.70
  19   3   7 8850.69  248.45
  19   3  10  949.48   56.34
  19   3  13  379.71   64.11
  19   3  19  897.34   58.10
  19   3  22 2948.92  110.63
  19   3  25 4502.41  397.09
  19   3  31  401.27   88.00
  19   3  40  394.70  296.44
  19   3  52  470.51  132.49
  19   3  55  112.69   97.19
  19   3  58   98.72   69.10
  19   3  67   48.49   84.50
  19   3  70    2.92   74.90
  19   4 -72    5.15   41.54
  19   4 -69   51.89   36.86
  19   4 -63    5.87   63.24
  19   4 -54  168.59   65.39
  19   4 -45  426.15   75.93
  19   4 -36  235.05   65.57
  19   4 -24  317.92   52.40
  19   4 -21   65.21   91.18
  19   4 -18  683.92   70.43
  19   4 -15  287.63   93.14
  19   4 -12 3525.35  412.43
  19   4  -9 4403.76  491.40
  19   4  -6 5272.58  505.74
  19   4   0  861.67   68.81
  19   4   3 5437.99  226.42
  19   4   6  105.09   21.77
  19   4   9 6732.42  218.85
  19   4  12 2318.23  100.11
  19   4  15  403.67   45.39
  19   4  18 1197.58  129.98
  19   4  21 2534.93  240.31
  19   4  27 2340.33  270.46
  19   4  30  532.41  144.54
  19   4  36 3160.88  302.62
  19   4  39  404.31   67.50
  19   4  42  577.95  144.89
  19   4  63  177.40  101.97
  19   4  66   88.82   70.30
  19   4  69   28.04   70.52
  19   4  72   75.69   65.33
  19   5 -61   61.70   69.86
  19   5 -43  270.94  165.33
  19   5 -37  314.70   56.74
  19   5 -31   95.98   72.03
  19   5 -28  771.96   87.24
  19   5 -25  326.87  123.55
  19   5 -22 1075.71   81.71
  19   5 -19  256.89  118.40
  19   5 -16  328.26   37.74
  19   5 -13  706.71   43.43
  19   5  -7 3950.30  429.87
  19   5  -1  796.95  122.58
  19   5  11  591.07   65.05
  19   5  17  483.82   89.16
  19   5  20  430.71   66.26
  19   5  23  849.14  122.10
  19   5  26 3304.42  261.86
  19   5  32  139.19   53.71
  19   5  35 1060.38  135.07
  19   5  38  687.88  128.95
  19   5  41  807.67  143.58
  19   5  44  365.82  107.83
  19   5  50  447.07   86.60
  19   5  53  142.13  129.02
  19   5  68  261.89   78.39
  19   6 -62   42.95   70.17
  19   6 -50  390.36   79.76
  19   6 -47  244.68   69.70
  19   6 -44  111.56   46.96
  19   6 -41  273.03  122.98
  19   6 -38 1660.90  197.24
  19   6 -35  108.84  140.57
  19   6 -32  338.83   64.28
  19   6 -29   31.48   57.82
  19   6 -23 5002.39  491.40
  19   6 -17 1557.92   84.59
  19   6 -14  921.40   92.53
  19   6  -8   58.76   32.82
  19   6  -5 4892.04  309.05
  19   6   4 2838.60  112.22
  19   6   7  313.96   39.03
  19   6  10 1736.07   98.88
  19   6  19  595.76  140.40
  19   6  22 1415.15  110.80
  19   6  28  267.01   84.05
  19   6  31 1274.68  137.19
  19   6  34   85.91   54.82
  19   6  37 1530.22  171.01
  19   6  40  269.11   62.90
  19   6  43  777.95  105.08
  19   6  46  596.53  142.96
  19   6  52  211.70  118.92
  19   6  55  592.34  112.68
  19   6  67   19.24   91.76
  19   7 -66    0.63   58.05
  19   7 -54  380.34  154.40
  19   7 -48  192.28   58.78
  19   7 -45  119.44   51.45
  19   7 -42  249.23   70.44
  19   7 -36  217.84   60.98
  19   7 -30  323.11   76.98
  19   7 -27 1481.69  169.70
  19   7 -24   46.78   35.21
  19   7 -21  158.90   52.50
  19   7 -12  179.37  131.45
  19   7  -9 1403.54  173.56
  19   7  -6 1327.75  137.48
  19   7   0  533.87   73.51
  19   7   6 1329.98  104.57
  19   7  12  226.60   48.21
  19   7  15 2296.08  282.64
  19   7  21  203.83   45.68
  19   7  24  329.26   88.30
  19   7  27    2.14   40.47
  19   7  30  589.84  115.16
  19   7  36  656.59   98.23
  19   7  39 1171.45  181.94
  19   7  42  669.81  154.90
  19   7  45  288.91  150.94
  19   7  57   48.57   97.96
  19   7  60  168.90   95.34
  19   8 -67  109.79   54.40
  19   8 -64    8.76   68.16
  19   8 -52   29.91   51.77
  19   8 -49   25.22   65.85
  19   8 -37  422.68   78.12
  19   8 -34  543.27   85.63
  19   8 -28  385.69   71.16
  19   8 -19  314.80  123.12
  19   8 -16  181.81   56.44
  19   8 -13  218.28  133.84
  19   8 -10  174.48   48.95
  19   8  -7 1087.08   96.51
  19   8  -4    0.42   81.63
  19   8   5   55.24   44.57
  19   8   8 5871.95  226.16
  19   8  11   56.70   21.67
  19   8  17  444.18   74.46
  19   8  20  161.25   32.42
  19   8  23  470.59  122.21
  19   8  26  110.53   52.51
  19   8  38  682.26  158.31
  19   8  41  318.03  100.32
  19   8  53  277.56  158.51
  19   9 -56  197.86   67.77
  19   9 -53  405.71   92.42
  19   9 -47  222.83   79.31
  19   9 -44  192.64   43.27
  19   9 -41   67.63  157.88
  19   9 -35   61.90   70.97
  19   9 -32  191.57   92.84
  19   9 -26 2620.23  179.25
  19   9 -23  177.26   50.64
  19   9 -20  127.70   54.29
  19   9 -17  265.97   51.88
  19   9 -11  412.66  108.50
  19   9   1  805.65  104.74
  19   9   4  735.17   36.27
  19   9  10  433.84   72.99
  19   9  13   60.92   23.95
  19   9  16 1216.37  128.74
  19   9  19  705.53   94.88
  19   9  22  441.26  112.36
  19   9  25   49.70   51.73
  19   9  31  243.45   69.80
  19   9  34  296.67  101.09
  19   9  40 1249.64  129.48
  19   9  46  420.47   96.88
  19   9  52  335.95   94.93
  19   9  55  143.20   77.25
  19   9  58   64.38   83.18
  19   9  61   26.21   89.36
  19  10 -51  201.09  104.57
  19  10 -48  426.66   87.30
  19  10 -45  202.74   68.01
  19  10 -39  232.44  123.21
  19  10 -33  169.63  130.47
  19  10 -27   81.41   49.15
  19  10 -21 1495.93  214.63
  19  10 -18  322.78  163.80
  19  10 -15   23.73   53.45
  19  10 -12 2555.46  303.70
  19  10  -9 3658.82  239.76
  19  10  -6  903.18   93.18
  19  10  -3 1004.16  136.10
  19  10   3 1623.68  118.95
  19  10   6 6350.73  238.68
  19  10  12  308.47   39.33
  19  10  18  189.58  128.32
  19  10  21  376.59  162.56
  19  10  24   78.65   52.67
  19  10  30  743.41   84.98
  19  10  33  413.50   88.17
  19  10  39  353.40   94.52
  19  10  42  559.29  163.22
  19  10  57   24.75  103.56
  19  10  63  245.72   94.28
  19  10  66   43.50   89.25
  19  11 -58   82.19  110.13
  19  11 -46  219.64   90.60
  19  11 -43  533.75   93.80
  19  11 -40  464.75   87.80
  19  11 -34  700.59   72.25
  19  11 -31  860.55  103.34
  19  11 -25   48.70   40.66
  19  11 -22    9.15   38.07
  19  11 -19   99.08   34.85
  19  11 -16 1046.14  174.01
  19  11 -13  139.07   84.13
  19  11  -7  210.56   79.89
  19  11  -4 1012.35  187.25
  19  11  -1  429.45  173.59
  19  11   2 2512.66  435.29
  19  11   8  389.91  116.77
  19  11  14 1392.72  170.88
  19  11  29   77.31   67.45
  19  11  32  406.90   70.61
  19  11  35   58.62   44.28
  19  11  53  129.24   87.99
  19  11  62  265.38  120.12
  19  11  65   57.19   99.23
  19  12 -53  173.22  124.54
  19  12 -38  248.27   77.42
  19  12 -35  550.41   76.25
  19  12 -32  692.68  125.80
  19  12 -29  514.12   60.35
  19  12 -26   18.06   35.23
  19  12 -23   67.03   67.57
  19  12  -8 1837.03  305.80
  19  12  -5 3001.97  281.63
  19  12  10  129.83   68.79
  19  12  13 2061.76  170.51
  19  12  19  414.96  166.52
  19  12  22  690.03   63.12
  19  12  28  384.95   54.08
  19  12  31   43.70   76.57
  19  12  34  495.70   94.73
  19  12  49  236.26   77.69
  19  12  55  178.93   81.79
  19  12  58   84.70   78.80
  19  12  64   69.20   69.70
  19  13 -63   45.78  162.72
  19  13 -48  103.73   97.42
  19  13 -42   38.61   99.41
  19  13 -39  639.99  167.94
  19  13 -36  689.93  186.70
  19  13 -30  290.50   60.28
  19  13 -15  241.61  204.20
  19  13  -9  172.13   35.29
  19  13   3  444.33  266.62
  19  13   6   46.95   46.34
  19  13  12  377.11   70.28
  19  13  18  125.19   56.16
  19  13  21 3155.12  612.25
  19  13  24  208.36  104.04
  19  13  30  307.88   91.49
  19  13  33  105.49   54.55
  19  13  42   40.58   97.02
  19  13  45  283.23   97.82
  19  13  60    2.91   81.13
  19  13  63    2.35   68.51
  19  14 -52   13.95   96.50
  19  14 -46  586.39  152.95
  19  14 -40   91.18  150.94
  19  14 -13  859.08  168.80
  19  14 -10 1440.53  141.04
  19  14  -4  798.78   67.96
  19  14   5  917.83   50.39
  19  14   8  909.24  117.59
  19  14  14  309.90   98.51
  19  14  17  173.01   83.38
  19  14  20  128.35  130.29
  19  14  26  524.20  123.85
  19  14  29  227.63   68.15
  19  14  35   13.75   31.89
  19  14  47  529.82  118.69
  19  14  56   30.87  100.00
  19  14  62  137.87  107.22
  19  15 -50  262.81  285.12
  19  15 -44   91.53  208.39
  19  15 -32  417.02  130.30
  19  15 -26  537.47  186.45
  19  15 -14  206.17  138.44
  19  15   7  306.19  133.61
  19  15  10  953.69  143.18
  19  15  13 1782.99  221.22
  19  15  19  103.19   54.28
  19  15  22  276.12  112.27
  19  15  25  207.41   53.71
  19  15  43   48.97   87.51
  19  15  49   72.66   73.24
  19  15  52  230.26   88.63
  19  15  55  113.31  124.28
  19  16 -60    6.58   92.65
  19  16 -57   48.32  245.96
  19  16 -54  292.65  111.88
  19  16 -51  480.18  214.72
  19  16 -45  149.67   95.65
  19  16 -39  351.73  113.03
  19  16 -36  636.73  210.28
  19  16 -18   56.23   89.53
  19  16  -9  186.93  117.21
  19  16  -6  621.65  113.71
  19  16  -3 2819.26  191.37
  19  16   3 1732.33  249.85
  19  16   6  820.18  175.60
  19  16   9  533.91   98.76
  19  16  12  381.71  141.21
  19  16  18   53.06   61.62
  19  16  21  583.61   95.64
  19  16  30  233.77   56.88
  19  16  39  122.90  111.23
  19  16  45  257.92   66.31
  19  16  48   20.67   75.57
  19  16  54  179.98   56.68
  19  17 -52   57.71  130.31
  19  17 -43  240.73  189.27
  19  17 -40  534.46  209.88
  19  17 -37  261.56  229.51
  19  17 -28  719.88  220.38
  19  17 -19  420.51  128.56
  19  17 -13  391.86  103.14
  19  17  -7  339.12   88.02
  19  17   2 3040.90  276.71
  19  17   8   85.12   85.55
  19  17  11  126.87  110.13
  19  17  14  273.33   48.02
  19  17  17  471.08  143.30
  19  17  23  401.26   83.86
  19  17  26   82.59   62.74
  19  17  35  765.75   85.07
  19  17  38  184.51   59.69
  19  17  47  377.51   72.58
  19  17  56   82.15   97.30
  19  18 -53   13.35   70.54
  19  18 -50    5.54  109.00
  19  18 -41  234.63  109.43
  19  18 -38  483.50  158.16
  19  18 -32  877.45  262.10
  19  18 -23  331.32  125.91
  19  18 -17   46.92   94.58
  19  18 -14   47.84   93.19
  19  18 -11  106.16   87.00
  19  18  -5  958.50  313.42
  19  18   1   55.20   76.21
  19  18   7   18.25   76.81
  19  18  10  692.40  216.31
  19  18  13  105.09   69.79
  19  18  16   32.40  108.94
  19  18  22  107.33   68.38
  19  18  34  716.50  132.28
  19  18  37  169.57   76.20
  19  18  43   91.42   87.99
  19  18  49   10.32   94.31
  19  19 -57  134.29  117.70
  19  19 -51   20.74   86.36
  19  19 -48   21.46   95.69
  19  19 -42  723.12  119.35
  19  19 -36  298.16  121.83
  19  19 -33  422.48  127.05
  19  19 -30  215.95  183.51
  19  19 -21  173.15  105.18
  19  19 -15  370.51  129.01
  19  19  -9  105.76   63.26
  19  19   0  247.86   73.74
  19  19   3  719.86  100.90
  19  19   9  253.27   95.66
  19  19  39  366.72  104.58
  19  19  54   88.29   54.35
  19  20 -55   67.30   77.73
  19  20 -37   80.22   92.60
  19  20 -22  128.52   91.76
  19  20 -19  814.31  127.93
  19  20   5  129.22   69.58
  19  20  17  326.36   87.79
  19  20  23  442.06  116.34
  19  20  26  450.91  108.00
  19  20  32  157.67   93.62
  19  20  38  410.18   91.54
  19  20  41   17.21   68.95
  19  20  47   34.71   84.74
  19  21 -53   60.59  145.89
  19  21 -44   19.68  171.01
  19  21 -41   96.14  143.21
  19  21 -35  113.30  125.12
  19  21 -26  189.76  104.79
  19  21 -17  222.83  157.13
  19  21 -14  149.59  124.26
  19  21  -2  221.73  104.39
  19  21   7  292.18  105.41
  19  21  10   49.31   99.38
  19  21  13  654.35   87.26
  19  21  16   90.49   62.22
  19  21  25  268.85  125.73
  19  21  31  420.14  189.73
  19  21  40  142.42   94.40
  19  21  43  248.75   61.67
  19  21  49  134.49   81.87
  19  21  52   17.66   77.30
  19  22 -42   33.24  157.07
  19  22 -39  121.63  105.45
  19  22 -33  565.92  225.09
  19  22 -30  235.14  184.08
  19  22 -27   66.02  149.87
  19  22 -24  153.12  166.03
  19  22 -18  309.41   85.49
  19  22  -9   81.59   77.37
  19  22  18  289.76   94.75
  19  22  33  500.80  106.90
  19  22  39   33.75   98.24
  19  22  42  564.96   73.23
  19  22  48   22.19   71.13
  19  22  51   26.72   57.09
  19  23 -49   34.38  102.42
  19  23 -43   89.42  134.66
  19  23 -40  270.55   99.59
  19  23 -37  322.11   92.38
  19  23 -34   35.30   78.95
  19  23 -31  114.62   78.68
  19  23 -13  286.68  124.03
  19  23 -10  215.37   97.99
  19  23  -7    9.43   69.05
  19  23  -4   48.07  152.68
  19  23  14  308.15   91.57
  19  23  35   74.97   75.29
  19  23  41  684.87  143.67
  19  23  44  181.40   95.44
  19  24 -41    0.07   93.48
  19  24 -23  165.72   60.33
  19  24 -20  118.92   81.88
  19  24 -14  116.17  146.32
  19  24 -11  560.74  149.37
  19  24   1  106.22  248.92
  19  24   4  307.27  196.53
  19  24  10   48.75   73.57
  19  24  16  179.69  158.06
  19  24  25  163.88   75.08
  19  24  31    6.79  107.60
  19  24  37  168.49   79.55
  19  24  40    0.96   64.83
  19  24  46   74.46   92.12
  19  25 -33   58.96  145.82
  19  25 -21  179.09  158.36
  19  25 -15  182.46  133.90
  19  25  -9 1330.40  234.97
  19  25  21  152.84  145.84
  19  25  30   79.21   92.40
  19  25  39  118.36  147.26
  19  25  42  200.78  129.60
  19  26 -31  210.11  136.86
  19  26 -28   16.14   98.85
  19  26 -10  245.20  112.50
  19  26  -4  197.76  199.60
  19  26  11  109.49  108.87
  19  26  14  963.86  211.85
  19  26  17  113.44   95.49
  19  26  26  106.13  140.75
  19  26  32   46.13  355.36
  19  26  41   43.17  100.08
  19  27 -35    2.56  100.65
  19  27 -29   78.85  233.66
  19  27 -23  155.26  130.38
  19  27 -20   38.82  199.19
  19  27 -17  136.89   94.69
  19  27 -14  159.73  125.08
  19  27  -8  160.11  117.46
  19  27  10  367.17  163.66
  19  27  13  270.86  307.02
  19  27  31  280.33  153.82
  19  28 -33  116.17  218.86
  19  28 -27    3.35  188.19
  19  28 -24  247.48  299.52
  19  28 -21  307.29  198.72
  19  28 -18   12.08  114.55
  19  28 -15   89.26   94.59
  19  28  15  318.94  128.30
  19  28  21  515.91  255.24
  19  29 -31  346.59  151.19
  19  29 -28  811.68  267.10
  19  29 -19  345.00  238.15
  19  29 -13   40.24  129.34
  19  29  -1  305.22  102.80
  19  29   5   36.13   93.12
  19  29  11  251.83  140.10
  19  29  17  355.97  102.59
  19  30 -23  352.74  256.68
  19  30 -11  407.92  113.97
  19  30  -5  144.90   97.69
  19  30   4   12.91  113.01
  19  30  10  139.50  117.17
  19  30  19  142.43   92.32
  19  30  25    6.82  145.30
  19  30  28  345.78   90.78
  19  31 -15  125.81  300.35
  19  31 -12  400.91  296.60
  19  31  -3   96.68  119.95
  19  31  24  279.00  164.72
  19  32 -13  232.10  151.56
  19  32 -10    8.66   59.47
  19  32  -1  175.83   67.90
  19  32  14   41.38  112.65
  19  33  -8  194.08   82.69
  19  33  -5  120.94  150.25
  20   1 -62   71.06   66.39
  20   1 -53   59.70   47.22
  20   1 -44 1627.87  356.05
  20   1 -38  244.41   92.91
  20   1 -32 1417.30   76.42
  20   1 -29 1352.42  129.31
  20   1 -26  101.17   47.71
  20   1 -23  298.48   86.36
  20   1 -20 5299.80  297.09
  20   1 -14  312.95  103.45
  20   1 -11  348.02   94.42
  20   1  -8 1382.87   93.55
  20   1  -2 1394.71  141.49
  20   1   1  416.20   56.50
  20   1   4  956.77   44.63
  20   1   7    1.70   68.91
  20   1  13 2893.05  201.87
  20   1  16 4143.46  260.06
  20   1  22   41.75   84.05
  20   1  25 2044.33  300.63
  20   1  31 2844.26  252.22
  20   1  34  202.02   47.96
  20   1  37  192.13  116.75
  20   1  40 1603.43  112.08
  20   1  43   69.14   95.66
  20   1  55   90.80  196.12
  20   1  67   16.19   69.44
  20   1  73   97.04   69.82
  20   2 -72  202.41   96.23
  20   2 -57  326.92   56.41
  20   2 -54   96.08   44.63
  20   2 -51  456.94   58.17
  20   2 -48   88.72   50.99
  20   2 -42 1335.62  266.29
  20   2 -39  301.33   66.21
  20   2 -33  307.49   69.45
  20   2 -30 1711.96  131.28
  20   2 -24 2565.01  199.03
  20   2 -21  185.78   34.13
  20   2 -15  125.49   48.44
  20   2  -9 2209.15   90.22
  20   2  -6 1382.50  136.82
  20   2  -311325.83  300.32
  20   2   3 4502.49  234.84
  20   2   9 2158.59  140.54
  20   2  12 1343.81  125.92
  20   2  15 1722.85  117.52
  20   2  21   45.05   80.93
  20   2  24   47.27   47.62
  20   2  27 3648.47  427.04
  20   2  33  712.21  160.69
  20   2  36  761.69  165.74
  20   2  39  413.43   96.13
  20   2  42  379.50   71.15
  20   2  45 1952.67  370.96
  20   2  66    0.26  105.55
  20   3 -70   40.32   48.44
  20   3 -64  108.22   53.33
  20   3 -61   21.30   91.66
  20   3 -58   86.20   43.50
  20   3 -43  140.29   80.70
  20   3 -37  980.92  168.78
  20   3 -34  189.32   78.04
  20   3 -28 3091.11  398.23
  20   3 -22 1206.07   90.00
  20   3 -19  105.26   73.87
  20   3 -13 2181.04  229.33
  20   3  -7 1223.55  157.83
  20   3  -4 7800.48  485.08
  20   3  -1  289.88   61.54
  20   3  11  125.01   23.18
  20   3  14   27.80   23.56
  20   3  20 2952.62  293.37
  20   3  23  953.12  188.94
  20   3  26  216.73   65.02
  20   3  32  460.83   65.82
  20   3  35  589.26  168.95
  20   3  41  312.24   80.05
  20   3  50  138.17   91.36
  20   3  53  359.76  132.93
  20   3  62  271.34   66.40
  20   3  65   56.65   79.37
  20   4 -68   27.85   53.76
  20   4 -59   23.74   44.99
  20   4 -56  379.11   56.59
  20   4 -53  352.39   78.21
  20   4 -41   54.01   61.18
  20   4 -35  140.51   64.25
  20   4 -26 8271.06  470.86
  20   4 -23 2064.36  234.39
  20   4 -17  967.84  190.35
  20   4 -11  504.18   57.81
  20   4  -8  791.11   59.52
  20   4  -5  183.34   63.27
  20   4  -2 2741.68  155.76
  20   4   1 1813.46  105.06
  20   4   4 5840.24  230.30
  20   4   7  382.95   84.11
  20   4  16  383.61   55.99
  20   4  19  634.09   91.63
  20   4  22   17.76   80.05
  20   4  40 1025.75  125.80
  20   4  43  699.16  204.55
  20   4  46  363.95   87.52
  20   4  64    8.91   64.93
  20   4  70   53.02  102.02
  20   5 -66   14.72   68.28
  20   5 -63  144.90   59.40
  20   5 -57   51.74   60.78
  20   5 -51   33.87   99.40
  20   5 -48    3.97   89.32
  20   5 -39  702.06   74.78
  20   5 -36 1268.68  220.15
  20   5 -33  526.11  119.63
  20   5 -27  308.67   35.15
  20   5 -24   73.48   25.58
  20   5 -21  319.48   49.27
  20   5 -18 4332.38  356.97
  20   5 -12  881.75  160.00
  20   5  -9 2152.81  192.58
  20   5  -6 1475.75  141.67
  20   5  -3 1926.28  112.17
  20   5   9  955.49   76.56
  20   5  12 2404.19  142.03
  20   5  15  407.75   72.62
  20   5  18 1085.33   47.01
  20   5  21  224.27   82.53
  20   5  24 1069.51  139.10
  20   5  27  724.28  168.94
  20   5  33  109.63   57.65
  20   5  42 1042.98  135.87
  20   5  45  430.35  128.26
  20   5  57   69.57   74.23
  20   6 -58  113.18   64.23
  20   6 -46  713.19   85.66
  20   6 -43   54.89   51.71
  20   6 -40  214.15   54.99
  20   6 -34   54.87  109.58
  20   6 -31  148.62   77.94
  20   6 -25   91.87  120.96
  20   6 -22  118.42   49.10
  20   6 -19 2154.52  150.08
  20   6 -13 2965.31  383.62
  20   6  -7 2555.94  155.30
  20   6  -4  892.68   96.72
  20   6  -1  465.05   77.36
  20   6   2  249.94   71.32
  20   6   8  882.80   55.31
  20   6  11   33.42   55.38
  20   6  14 1529.36   89.62
  20   6  20  655.13   77.42
  20   6  26  259.78  143.36
  20   6  29 2347.53  155.65
  20   6  32  427.47   55.36
  20   6  41   85.39   77.97
  20   6  47  269.86  100.53
  20   6  50  363.47  124.82
  20   6  53   33.46  106.31
  20   6  56   55.97  137.17
  20   6  59  788.46  110.36
  20   6  68  392.38  163.87
  20   7 -68  134.41   65.46
  20   7 -59  295.95   84.31
  20   7 -56   59.55   72.90
  20   7 -50  524.12   85.81
  20   7 -47  264.90   75.89
  20   7 -35  244.89   77.56
  20   7 -32 1206.32  154.29
  20   7 -29  109.92   72.11
  20   7 -23 1718.08  163.57
  20   7 -20  573.79   38.25
  20   7 -17  342.39  102.00
  20   7  -5 1576.63  143.01
  20   7  -2 1891.82  173.22
  20   7   1  318.74   50.81
  20   7   4  775.13   83.62
  20   7  10  565.55   61.50
  20   7  13  838.06   80.43
  20   7  19 1309.94  140.85
  20   7  25 5143.10  385.21
  20   7  28   45.50   63.56
  20   7  31  286.22  107.29
  20   7  34 1685.53  137.88
  20   7  37  122.01   66.43
  20   7  40  131.78  116.66
  20   7  64    0.00   95.15
  20   7  67  155.19  121.00
  20   8 -66  121.27  130.38
  20   8 -63   14.60   48.49
  20   8 -60    1.27   52.50
  20   8 -57  113.98   74.70
  20   8 -51  201.42   85.62
  20   8 -39  169.29   72.61
  20   8 -36  125.42   63.30
  20   8 -33  269.85  148.52
  20   8 -30  108.35   53.23
  20   8 -27  520.36   66.92
  20   8 -15  303.45   80.26
  20   8 -12  247.83   59.18
  20   8  -9  250.74  107.30
  20   8  -6  322.78   35.84
  20   8  -3 2377.99  244.91
  20   8   0  297.61   97.32
  20   8   3  672.11   45.90
  20   8   9  395.37   38.18
  20   8  12  550.37   70.21
  20   8  15 1466.69  166.75
  20   8  21  385.21   98.38
  20   8  30 1958.75  218.33
  20   8  33 1869.44  246.68
  20   8  42  168.97   90.91
  20   8  57   11.52   80.25
  20   8  60   36.59  101.87
  20   8  63   12.73   98.52
  20   9 -64   50.49  105.14
  20   9 -61  194.89   98.94
  20   9 -58  295.28  107.30
  20   9 -55  330.91   98.45
  20   9 -46  146.41   78.32
  20   9 -43  143.02   86.89
  20   9 -40  327.22  162.51
  20   9 -28  181.65   60.65
  20   9 -19  557.81  114.70
  20   9 -13 2519.94  294.89
  20   9 -10 3451.85  397.32
  20   9  -7 1511.27  357.91
  20   9  -4 1012.16   83.11
  20   9   5   96.19   35.29
  20   9   8 2316.46  178.77
  20   9  11  749.68  115.83
  20   9  14   96.31   41.85
  20   9  17  408.55   45.01
  20   9  20   50.48   37.87
  20   9  23  196.09   73.13
  20   9  26   15.02   54.71
  20   9  29  636.74  113.98
  20   9  32  371.22   93.20
  20   9  41   91.22   97.48
  20   9  50  184.32  113.93
  20   9  56  250.88  104.59
  20   9  62  148.96   83.32
  20  10 -59  345.01  262.43
  20  10 -53  109.42  119.70
  20  10 -50    7.87   61.66
  20  10 -44  478.89   90.67
  20  10 -41   22.37  166.15
  20  10 -38  827.42  140.92
  20  10 -26  174.09   84.29
  20  10 -23  534.17  120.78
  20  10 -14  384.97   66.96
  20  10 -11 1090.74  111.53
  20  10  -5   40.62   55.42
  20  10  -2 1074.64  193.14
  20  10   7    0.61   26.56
  20  10  10  294.27   57.15
  20  10  13  368.06   39.82
  20  10  16 1611.63  178.17
  20  10  19  321.29  163.50
  20  10  22    6.08   74.51
  20  10  25  143.21   71.10
  20  10  28  193.81   87.34
  20  10  31   60.88   66.95
  20  10  37  211.45   65.24
  20  10  46   59.49   57.49
  20  10  49   61.94   76.26
  20  11 -63  135.13   99.27
  20  11 -60  301.48  151.33
  20  11 -54  141.78  116.00
  20  11 -36   33.93   62.15
  20  11 -27  637.34   56.22
  20  11 -21  179.66   52.17
  20  11 -15  506.14  163.91
  20  11  -3 1138.81  181.08
  20  11   0 2280.05  289.16
  20  11   3  325.46  125.86
  20  11   6  109.91   93.40
  20  11   9 1235.95  201.83
  20  11  12  100.73   66.33
  20  11  21  146.98   57.29
  20  11  24  172.54   78.55
  20  11  30 1711.68  211.96
  20  11  36  101.24   71.01
  20  11  42  231.23   64.25
  20  11  48  105.48   87.57
  20  11  54   23.81   80.28
  20  11  57  244.52  115.38
  20  11  60  347.68   97.00
  20  11  63    8.25   77.95
  20  12 -64   82.41   90.96
  20  12 -52  552.88  240.40
  20  12 -49  334.48   95.96
  20  12 -46    3.01   74.85
  20  12 -28 2320.54  238.90
  20  12 -25 1467.73  126.16
  20  12 -22   86.95  107.21
  20  12 -19    0.25   72.54
  20  12 -10  296.74   87.01
  20  12  -7  382.26  110.32
  20  12   5 3241.51  421.84
  20  12   8  162.21   61.52
  20  12  11 1271.10  114.93
  20  12  14 2375.10  167.57
  20  12  17  569.11   92.22
  20  12  20  595.40   73.32
  20  12  23   74.64   56.46
  20  12  26 1081.76  139.81
  20  12  32   65.93   61.77
  20  12  35   42.97   50.54
  20  12  38  414.58   48.30
  20  12  41  797.85  128.68
  20  12  53   50.06   79.27
  20  13 -62  164.39  244.97
  20  13 -56    8.36   79.52
  20  13 -50  325.93  142.13
  20  13 -41  287.65  113.98
  20  13 -17  251.04  122.30
  20  13 -14 1202.24  194.46
  20  13 -11 2213.62  268.59
  20  13  -8  842.92  138.77
  20  13   4  183.26   53.71
  20  13   7  712.87   86.00
  20  13  10  328.52   89.86
  20  13  16  136.10   82.06
  20  13  19 2433.72  526.38
  20  13  22  424.16   85.67
  20  13  25  276.74   61.59
  20  13  34  131.75  109.32
  20  13  58  114.54   89.40
  20  14 -57  114.30  375.91
  20  14 -48   97.49   85.94
  20  14 -42  112.32  108.30
  20  14 -39 1037.90  165.69
  20  14 -30  801.71  196.14
  20  14 -24 1129.27  182.55
  20  14 -18  277.30  153.11
  20  14 -15  795.78  112.72
  20  14 -12 2056.55  260.52
  20  14  -6  165.46  225.30
  20  14  -3  481.25  124.53
  20  14   3  792.60  196.09
  20  14   6  116.35   79.24
  20  14  15 2321.42  205.94
  20  14  18  472.76   65.45
  20  14  21  122.79   80.45
  20  14  24  494.63  103.33
  20  14  27  137.87  105.29
  20  14  36   46.44   70.95
  20  14  48  259.47   81.32
  20  14  54  208.18  112.24
  20  15 -61  146.17  167.07
  20  15 -55   82.32  112.99
  20  15 -37   61.57  124.00
  20  15 -34   75.22  105.89
  20  15 -31   97.30  145.05
  20  15 -28  544.06  203.95
  20  15 -22  176.17  138.90
  20  15 -19  350.41   97.99
  20  15 -16  219.98   93.64
  20  15 -13  586.37  225.04
  20  15 -10  558.19  173.06
  20  15  -7  643.46  123.01
  20  15  -4   22.55  135.45
  20  15  -1  925.65  316.06
  20  15   2   27.81  118.14
  20  15   5 2050.30  346.18
  20  15  20  120.41   87.90
  20  15  23  785.32  178.05
  20  15  26   95.51   55.11
  20  15  29  387.59   80.95
  20  15  38    2.30   86.53
  20  15  44  363.95   66.90
  20  15  50  320.27   96.75
  20  15  56    6.32   76.87
  20  16 -56    1.72  115.96
  20  16 -44   75.47   92.59
  20  16 -35  287.19  193.50
  20  16 -26  310.79   80.58
  20  16 -20   62.51   72.12
  20  16 -17  289.32  110.29
  20  16  -2  453.79   70.98
  20  16   1  615.41  110.68
  20  16  10 2254.24  186.96
  20  16  13   77.79   84.25
  20  16  16  128.99   68.44
  20  16  19  149.47   59.59
  20  16  28  609.21   79.62
  20  16  31  211.50   70.38
  20  16  43   97.74   73.85
  20  16  46  240.86   77.68
  20  16  55  133.82   90.80
  20  17 -51   28.44  188.80
  20  17 -48   80.36  210.94
  20  17 -30  631.55  117.92
  20  17 -18  358.18  103.92
  20  17  -9  857.52  148.72
  20  17  -3  197.95  140.00
  20  17   0  146.96   84.52
  20  17   3  327.72  125.04
  20  17   6 1113.19  230.23
  20  17   9   62.63  158.14
  20  17  12   73.77   96.59
  20  17  15  197.62   95.38
  20  17  18  142.83   92.51
  20  17  24  101.97   72.33
  20  17  27  899.67  106.14
  20  17  30  116.42   48.79
  20  17  33  267.67   75.67
  20  17  36   26.50   63.93
  20  17  48   27.87   78.90
  20  18 -55   44.72  126.65
  20  18 -43   43.18  106.03
  20  18 -34  301.20   93.51
  20  18 -31  277.27  113.32
  20  18 -28  250.69   82.06
  20  18 -19   79.86  111.95
  20  18 -13  106.02   94.04
  20  18  -7  201.54   90.86
  20  18  -4  262.55  132.29
  20  18  -1 2011.35  219.55
  20  18   2  722.77  176.50
  20  18  14  252.84   75.86
  20  18  20  599.95  217.40
  20  18  23  624.37  108.40
  20  18  29   79.05   82.63
  20  18  44  102.57   72.61
  20  19 -35  184.76  112.17
  20  19 -32  377.39  204.41
  20  19 -23  547.34  133.38
  20  19 -20  256.42   94.01
  20  19  -5 2609.30  698.17
  20  19   1   37.20   98.09
  20  19   4  105.46   80.20
  20  19   7  138.53  105.52
  20  19  10   56.78  111.67
  20  19  16  773.16  157.61
  20  19  22  192.43   72.85
  20  19  28  416.25  154.09
  20  19  37  287.40  103.69
  20  19  52   13.31   66.70
  20  20 -39   23.13  104.58
  20  20 -21   39.84  132.62
  20  20  -9  529.62  143.06
  20  20  -3  192.46  115.63
  20  20   0    0.62   82.94
  20  20   6  102.16  108.22
  20  20  15   16.50   75.49
  20  20  18  111.18   91.08
  20  20  24  187.26   66.58
  20  20  30   78.11   98.41
  20  20  33  346.63  143.50
  20  20  42  197.03   99.18
  20  20  48    0.09   65.08
  20  21 -43  160.84  109.83
  20  21 -22   31.28  100.67
  20  21 -10  434.80  105.00
  20  21  17  738.43  279.92
  20  21  26  215.09   84.66
  20  21  38   66.80   86.79
  20  21  41  251.85  148.29
  20  21  50   47.35   60.29
  20  22 -50    4.86   72.30
  20  22 -29    8.90  103.98
  20  22 -20  119.21   82.91
  20  22  -8   77.06   93.45
  20  22   7  167.99  256.55
  20  22  22   17.41  113.11
  20  22  40  116.77   81.85
  20  22  49  237.31   76.07
  20  23 -33  109.79   99.33
  20  23 -30  878.05  128.60
  20  23 -27  242.13   60.86
  20  23 -24  293.36   95.72
  20  23 -21  851.97  224.50
  20  23 -18    4.71  125.87
  20  23 -15   29.24   90.00
  20  23 -12    3.01   83.00
  20  23  -9  122.26  222.81
  20  23   0  715.07  183.58
  20  23  18  297.57  161.04
  20  23  24  113.51  122.33
  20  23  27   31.90   83.84
  20  23  36  165.45  150.71
  20  24 -34  109.36   98.09
  20  24 -31  360.99  111.51
  20  24 -28  298.01   83.33
  20  24 -22  191.18  183.52
  20  24 -19  114.06  161.74
  20  24 -13  444.40  175.28
  20  24  -7  126.45  313.38
  20  24  11  255.94  185.70
  20  24  14   53.57   99.08
  20  24  38  253.19  100.80
  20  24  41   52.13   96.91
  20  24  44  484.44   95.73
  20  25 -41    2.15  196.86
  20  25 -32  394.51  236.96
  20  25 -20  531.85  223.95
  20  25 -17  535.63  206.96
  20  25 -14  151.72  139.60
  20  25  13  219.29  115.97
  20  25  34  350.76  131.03
  20  25  37  268.54  123.48
  20  26 -39   62.79  152.34
  20  26 -36   73.65  159.04
  20  26 -33   75.19  117.82
  20  26 -30  371.37  214.55
  20  26 -27  262.65  144.85
  20  26 -24   43.95  232.06
  20  26  -9   67.28  147.32
  20  26  12   76.14  186.82
  20  26  39   99.95  112.86
  20  27 -31  169.93  190.24
  20  27 -25  116.07  168.11
  20  27 -13  594.67  235.06
  20  27  20  206.22   91.54
  20  27  35   83.97   84.52
  20  28 -17   12.20  163.07
  20  28 -14    7.72  119.07
  20  28 -11  288.40  202.91
  20  28  -8  345.90  117.01
  20  28  16   56.55  147.26
  20  28  22  135.50  150.00
  20  28  25   12.50   97.84
  20  28  31  255.00  224.50
  20  29 -12   53.69  180.82
  20  29  15   25.34  108.71
  20  30 -25   17.01  294.31
  20  30 -16   42.88  120.92
  20  30 -10  495.93  167.16
  20  30  20  299.11  170.90
  20  30  26  278.93  159.06
  20  31 -17   90.96  112.51
  20  31 -11   14.95  102.17
  20  31  13  180.24  242.12
  20  31  19   86.65   91.41
  20  32 -12  191.85  137.16
  20  32  -9   99.61  160.94
  20  32   3  155.80   86.05
  20  32  12   23.84  154.40
  21   1 -58  168.21  108.43
  21   1 -55  455.15   85.57
  21   1 -52   48.23   58.12
  21   1 -43 1583.26  140.86
  21   1 -40  209.32   50.74
  21   1 -37  671.90   73.78
  21   1 -34 2086.59  227.13
  21   1 -31  829.89  106.75
  21   1 -28 3367.46  247.96
  21   1 -25 3508.97  213.50
  21   1 -22 1026.04  112.57
  21   1 -19   86.34   57.82
  21   1 -16 2298.38  171.71
  21   1 -13  317.32   95.74
  21   1 -10   20.13  114.93
  21   1  -710322.75  468.72
  21   1  -1  380.47   95.27
  21   1   2 6572.90  356.70
  21   1   8  386.90   30.92
  21   1  11 1658.34   40.06
  21   1  14 1379.40   69.63
  21   1  20 1504.24  150.39
  21   1  26  791.80  151.12
  21   1  29  521.38   88.48
  21   1  32  242.89   90.58
  21   1  35 2272.62  301.08
  21   1  44 1588.02  197.57
  21   1  59    0.11   69.83
  21   1  62  663.25  103.86
  21   1  71   93.62   82.06
  21   2 -71   48.47   48.72
  21   2 -50   24.67   55.23
  21   2 -47  292.37   73.74
  21   2 -41  933.14  202.54
  21   2 -38  157.30   94.86
  21   2 -35  134.33   74.27
  21   2 -32  928.20   94.28
  21   2 -29  780.14   71.94
  21   2 -26  104.54   60.33
  21   2 -23  969.24   31.99
  21   2 -20 2812.93  263.57
  21   2 -17  829.09  173.48
  21   2 -14  792.75  153.29
  21   2  -8    1.50   37.85
  21   2  -5  597.55   44.47
  21   2   1  562.03   66.46
  21   2   4 1922.11  143.88
  21   2   7 1687.60   82.24
  21   2  10 1220.62   28.27
  21   2  13   44.90   38.42
  21   2  16  285.81   55.52
  21   2  19  271.74   66.54
  21   2  22  348.91  127.08
  21   2  28 1107.03  144.69
  21   2  34  245.36  119.37
  21   2  37 2308.90  465.59
  21   2  43  233.79   60.48
  21   2  46  356.55  104.02
  21   2  52  296.04   66.56
  21   2  64  427.39   57.98
  21   2  67   14.72   86.58
  21   2  70   26.03   55.42
  21   3 -51  119.28   49.02
  21   3 -45  165.90   61.02
  21   3 -42   93.12   93.77
  21   3 -33  306.49   50.85
  21   3 -27  852.08  115.69
  21   3 -24  192.22   93.57
  21   3 -21 1176.03   81.36
  21   3 -18  618.71   39.59
  21   3 -15  503.25  219.97
  21   3  -3   62.74   58.83
  21   3   011363.36  335.16
  21   3   3   41.06  117.62
  21   3   6  165.17  137.89
  21   3   9 3335.74  106.50
  21   3  12 2590.03  185.96
  21   3  15  501.12  131.89
  21   3  18  573.50   93.96
  21   3  21   79.07   54.25
  21   3  30  477.07  109.66
  21   3  33  774.40  103.71
  21   3  51   20.25   98.06
  21   3  57  222.66  129.59
  21   3  63  106.20   88.03
  21   4 -49   53.56   52.82
  21   4 -46   76.55   59.16
  21   4 -34  732.17   74.99
  21   4 -31  655.36  107.55
  21   4 -28  368.51   81.90
  21   4 -22  803.69  128.92
  21   4 -16 1021.24  116.57
  21   4  -7   64.21   46.50
  21   4  -4 1048.04   69.59
  21   4  -1 1537.25   69.23
  21   4   2 1096.40   78.45
  21   4   5 3919.04  216.77
  21   4   8 4716.58  221.77
  21   4  11 1424.71  150.11
  21   4  14  576.70   93.96
  21   4  17  140.04   28.15
  21   4  20 2841.89  192.43
  21   4  23  392.71  129.05
  21   4  26  451.00  110.04
  21   4  32  321.37   76.09
  21   4  35  804.65  104.95
  21   4  38   62.72   61.94
  21   4  50   42.12   75.67
  21   4  56    4.42   60.46
  21   4  62   57.58  123.66
  21   5 -47  101.13   63.16
  21   5 -44  104.85   92.88
  21   5 -23  266.53   56.40
  21   5 -20  760.92  135.26
  21   5 -14  127.75   95.80
  21   5 -11 1116.98  200.83
  21   5  -8  539.93   54.73
  21   5  -5  267.93  110.30
  21   5  -2  658.90   96.51
  21   5   4  533.17   61.66
  21   5  13  126.39   34.69
  21   5  16  987.15   77.88
  21   5  19 1543.92  227.39
  21   5  22   17.57   28.10
  21   5  25 1039.29  192.58
  21   5  31  513.09   84.12
  21   5  37  282.71   82.09
  21   5  40  127.03   92.52
  21   5  46    0.02   84.85
  21   5  58  201.27  113.71
  21   5  67  182.89  169.29
  21   6 -57   93.62   64.93
  21   6 -54  176.35   64.80
  21   6 -51  201.76   62.21
  21   6 -48   99.88   79.95
  21   6 -39  160.29   60.97
  21   6 -36   40.95   68.92
  21   6 -33   59.52   56.81
  21   6 -27  812.39  168.80
  21   6 -24  743.02  164.34
  21   6 -21  325.85  122.25
  21   6 -18 1593.08  173.32
  21   6 -15 2069.76  416.89
  21   6 -12 1207.84  173.14
  21   6  -6 2137.68  120.39
  21   6  -3 1243.92  129.56
  21   6   0 3453.45  308.07
  21   6   3  865.49   73.27
  21   6   9  252.60   32.10
  21   6  12 1290.74  151.15
  21   6  15 2274.97  204.99
  21   6  18 1562.02  126.26
  21   6  21 1431.10  134.16
  21   6  24  732.99   89.39
  21   6  27  376.56   52.30
  21   6  30  194.52  102.39
  21   6  33  487.55  148.87
  21   6  39  559.65  114.73
  21   6  42  284.95   92.11
  21   6  45  235.33   68.65
  21   6  48   60.02   63.73
  21   6  51  397.87   79.47
  21   6  69  128.98  128.85
  21   7 -61  298.77   68.62
  21   7 -58   22.79   80.60
  21   7 -52    0.17  109.20
  21   7 -43  181.65   67.11
  21   7 -22  670.22  130.39
  21   7 -19  966.87   88.55
  21   7 -10 4197.25  278.02
  21   7  -7 3296.82  228.35
  21   7  -4   42.89   59.25
  21   7   2  488.10   56.86
  21   7   5 1098.43  120.95
  21   7  11  319.67   36.66
  21   7  14  291.98   28.77
  21   7  17 1136.07  145.38
  21   7  20   68.14   53.16
  21   7  23 2122.42  239.92
  21   7  26  704.02  113.22
  21   7  29  910.68  130.98
  21   7  35   23.26   73.70
  21   7  38  360.45   93.37
  21   7  41  375.08   83.48
  21   7  44  148.46   65.70
  21   7  53   54.65   65.43
  21   7  56  475.98  157.26
  21   7  65   10.47  119.14
  21   7  68  211.77   75.77
  21   8 -62  187.74  147.07
  21   8 -56   53.96   49.88
  21   8 -44   64.37   59.72
  21   8 -38   23.69  128.01
  21   8 -29   35.11   71.28
  21   8 -26   92.27  158.36
  21   8 -20    6.89   43.01
  21   8  -8  953.41  146.37
  21   8  -2  732.91  173.96
  21   8   1 4823.99  295.49
  21   8   4 2212.35  311.21
  21   8   7 1028.60  117.32
  21   8  10  672.85   49.91
  21   8  13   88.04   29.97
  21   8  19 2811.59  274.12
  21   8  22 1367.10  175.49
  21   8  25   39.78   51.99
  21   8  28  683.55   92.39
  21   8  40  398.71  139.33
  21   8  43    2.08   81.34
  21   8  52    0.09   83.20
  21   8  64  177.07   88.64
  21   9 -66  120.56  127.78
  21   9 -63  113.33  105.52
  21   9 -60    2.04   90.73
  21   9 -45   20.99   60.54
  21   9 -39   53.18   72.04
  21   9 -30  371.65   88.71
  21   9 -18  285.58  128.10
  21   9 -12  222.62  108.78
  21   9  -9  500.65   58.67
  21   9  -3   67.38   39.67
  21   9   0 1052.80  142.08
  21   9   3 1795.25  179.98
  21   9   6  200.69   58.50
  21   9  18  964.15  114.02
  21   9  21   67.57   61.59
  21   9  27  214.15   83.31
  21   9  33  271.73   82.84
  21   9  42  317.43   78.42
  21   9  57    9.08   99.86
  21  10 -61   13.42  136.13
  21  10 -58   65.21  106.17
  21  10 -52   85.55   99.80
  21  10 -31 1703.32  340.57
  21  10 -28 1539.01  278.54
  21  10 -25  715.65  140.15
  21  10 -16   97.90   63.90
  21  10 -13  493.79  180.65
  21  10  -1 1552.04  336.47
  21  10   5 1105.19  129.94
  21  10   8  511.54   46.84
  21  10  11  512.49  102.04
  21  10  14   66.20   60.36
  21  10  17  160.15   67.74
  21  10  20   95.17   69.41
  21  10  23  153.64   53.83
  21  10  26  146.26   64.13
  21  10  32  216.92   57.25
  21  10  41  186.89   64.14
  21  10  47   26.20   50.42
  21  10  50  219.80   76.74
  21  11 -56  238.80  182.35
  21  11 -53  315.92  169.75
  21  11 -32  244.53   76.91
  21  11 -29 1264.71  160.83
  21  11 -23  682.31   85.15
  21  11 -14  346.62   72.45
  21  11 -11  274.02  211.70
  21  11  -8  378.51  161.41
  21  11  -2  175.89   58.55
  21  11   1  414.31   41.56
  21  11   4  419.32  149.34
  21  11   7  334.30   45.10
  21  11  13  159.27   40.09
  21  11  16  330.75  130.20
  21  11  19    4.23   55.58
  21  11  22  546.16  129.43
  21  11  25  114.04   77.91
  21  11  34  232.18  119.44
  21  11  40  294.54  107.24
  21  11  64  184.08   98.21
  21  12 -63   46.46   95.76
  21  12 -57    7.13   72.76
  21  12 -51  124.63   82.79
  21  12 -45  192.06   86.39
  21  12 -42  112.63   86.27
  21  12 -36   22.80  109.13
  21  12 -30  357.54  103.61
  21  12 -27   32.54  129.39
  21  12 -18   23.01   87.11
  21  12 -12  501.67   96.47
  21  12  -9    0.36   52.37
  21  12  -6  420.76  117.96
  21  12   0  335.50   88.10
  21  12   6  677.59   71.01
  21  12   9  136.04   65.20
  21  12  12  297.88   59.03
  21  12  15   89.57   57.94
  21  12  21  398.15  100.61
  21  12  24   69.78   55.16
  21  12  27  287.71   57.43
  21  12  33  123.38   66.17
  21  12  39  392.02   68.81
  21  12  42  317.98  115.21
  21  12  51   69.62   95.28
  21  13 -55    0.25  107.38
  21  13 -46  212.10  164.29
  21  13 -40   47.08  111.45
  21  13 -25  783.74  197.68
  21  13 -10  136.78  211.18
  21  13  -4  154.79   88.62
  21  13   2  690.39  167.10
  21  13   5 1915.67  184.80
  21  13   8 1211.19  268.20
  21  13  11 1909.83  195.51
  21  13  14   24.99   88.91
  21  13  17  467.88  121.15
  21  13  32  109.58   33.05
  21  13  35  196.01   96.10
  21  13  41  223.45   43.91
  21  13  53  343.46  153.19
  21  13  56   80.78   83.14
  21  13  62    1.30   87.93
  21  14 -56  275.65  126.45
  21  14 -44   78.99  119.49
  21  14 -35  202.91  188.00
  21  14 -29 1415.66  281.29
  21  14 -17  192.77  166.96
  21  14 -11  262.18  128.19
  21  14   1 1310.06  254.22
  21  14   4  317.72  192.08
  21  14   7 1041.10  235.90
  21  14  10  840.26  141.42
  21  14  16  394.08   94.92
  21  14  19  362.93   52.21
  21  14  22  935.10  131.02
  21  14  31   78.17   53.91
  21  14  34   54.12   49.57
  21  14  46   15.10   77.93
  21  15 -57  188.43  139.73
  21  15 -51  126.26  121.71
  21  15 -42  189.74  118.78
  21  15 -39  398.84  153.24
  21  15 -33 1293.43  113.61
  21  15 -24 1289.53  268.89
  21  15 -18  450.19   92.16
  21  15  -6  308.16  116.06
  21  15  -3  945.48  253.11
  21  15   6 1071.29  122.35
  21  15  12   81.17   79.05
  21  15  27  256.46   83.33
  21  15  36   59.66   72.62
  21  15  39  145.50   78.46
  21  15  45  258.73   63.99
  21  16 -52   29.69   67.32
  21  16 -37    3.05  124.83
  21  16 -34  402.33  149.86
  21  16 -31    0.37   83.82
  21  16 -22   79.12  111.06
  21  16 -16    5.14  102.30
  21  16 -13 1182.36  217.31
  21  16 -10  448.81  210.48
  21  16  -7  720.87  194.67
  21  16  -4  423.61  227.69
  21  16  -1  637.42  115.76
  21  16   8  150.68  129.97
  21  16  23  392.71  125.84
  21  16  26 1059.92  129.83
  21  16  29  168.50   52.33
  21  16  32  233.08   73.33
  21  16  35   67.22   55.61
  21  16  44  112.58  112.75
  21  16  56   48.61   92.89
  21  17 -56   97.96  138.35
  21  17 -47   76.23  154.61
  21  17 -44  231.99   98.79
  21  17 -38   64.18   82.70
  21  17 -20  187.36  147.90
  21  17  -8  548.24  104.64
  21  17  -2  132.25  138.85
  21  17   1  706.09  216.14
  21  17   4  175.00  139.23
  21  17   7    1.04   78.26
  21  17  10  257.66   74.85
  21  17  16   93.21   48.30
  21  17  22  510.49   93.00
  21  17  31  201.30   75.31
  21  17  37   53.23   59.04
  21  17  40   91.17   49.04
  21  18 -48  315.40  142.83
  21  18 -45  560.69  100.78
  21  18 -21  362.74  196.86
  21  18 -12   64.90  102.95
  21  18  -9   43.78  211.98
  21  18   0   42.00   67.15
  21  18  18  642.60  136.95
  21  18  21  898.34  144.50
  21  18  27  623.17   85.16
  21  18  30   12.71   95.66
  21  18  33  270.01   97.92
  21  18  36   15.36   92.80
  21  18  39  105.10   73.92
  21  19 -40  301.20  112.59
  21  19 -25  478.79  146.98
  21  19 -19   85.14  104.81
  21  19 -10  208.14  160.95
  21  19  -7   26.85   76.23
  21  19  -1  116.71  129.11
  21  19   2   39.62   96.50
  21  19   5   21.29   79.37
  21  19   8  511.85  120.77
  21  19  14  391.66  100.16
  21  19  17  127.37   74.11
  21  19  20  998.49   82.93
  21  19  23  218.93   51.94
  21  19  26  116.69   69.40
  21  19  29  133.72  100.60
  21  19  32  230.01  100.75
  21  19  35   30.40   85.61
  21  19  47  148.26   85.55
  21  20 -50   34.03  118.44
  21  20 -47  127.69  145.94
  21  20 -29  219.32  234.93
  21  20 -26   99.97   67.00
  21  20 -14  213.36  112.03
  21  20  -8  102.37  143.82
  21  20   4  590.35  116.05
  21  20  10  277.04  127.77
  21  20  16   94.23   71.46
  21  20  19  483.15  140.88
  21  20  37   30.95   79.37
  21  20  49   76.89   94.71
  21  21 -48   31.91  132.46
  21  21 -45   56.94  133.48
  21  21 -39   43.83  123.69
  21  21 -36    3.58  144.44
  21  21 -33  139.76   92.76
  21  21 -27  254.26  104.27
  21  21 -21  310.23  145.86
  21  21 -15  101.69   55.53
  21  21  -9  145.01  128.21
  21  21   0  191.60   82.35
  21  21   3  594.79   94.03
  21  21   6   42.56   79.41
  21  21   9  141.21   97.70
  21  21  12   64.53   91.41
  21  21  15  106.76  147.24
  21  21  24   52.51  124.77
  21  21  30  131.29   84.49
  21  22 -37   10.96   77.91
  21  22 -34   56.61   81.94
  21  22 -31   82.60  128.06
  21  22 -28  394.03   98.36
  21  22 -19  464.05   83.11
  21  22 -13   59.56  137.09
  21  22  -1  180.61  276.58
  21  22  17  760.02  204.14
  21  22  20    3.47  103.57
  21  22  26 1475.18  183.24
  21  22  35   41.57   83.08
  21  22  41  182.16   86.03
  21  23 -44  336.14  124.48
  21  23 -23  219.79   66.00
  21  23 -20  547.58  151.17
  21  23 -11    0.04  162.88
  21  23  10  471.51  110.56
  21  23  16    2.73   89.38
  21  23  31  168.56   73.06
  21  24 -42  299.09  232.93
  21  24 -36  351.03  272.26
  21  24 -33  349.94  135.13
  21  24 -12  275.16  187.60
  21  24  -9   18.69  188.65
  21  24  -6  130.56  210.57
  21  24  -3   15.82  127.08
  21  24  15  274.58  245.39
  21  24  21  203.44  117.23
  21  24  36  118.52  134.83
  21  25 -10   58.27  121.48
  21  25  -7   70.45  162.30
  21  25   2  356.31  140.14
  21  25  17  272.16  256.54
  21  26 -35   23.85  213.79
  21  26 -29   29.19  202.44
  21  26 -20  241.99  206.81
  21  26 -17 1398.40  218.52
  21  26 -11  245.06  161.83
  21  26   1  202.34  211.17
  21  26   7  403.52  192.45
  21  26  13   89.20  157.15
  21  26  19   10.72   88.45
  21  26  28   95.51  107.41
  21  27 -27  349.72  141.21
  21  27 -18  143.54  116.85
  21  27 -12  402.63  195.42
  21  27   3  317.36  213.40
  21  27   9    1.99  109.52
  21  27  18   54.62   93.33
  21  28 -31   55.93  181.31
  21  28 -25  418.53  177.54
  21  28 -19  132.65  407.39
  21  28 -13   36.79   97.06
  21  28  -7  418.08  207.03
  21  28  17   72.13  128.38
  21  28  29   35.99  110.42
  21  29 -26  155.21  178.65
  21  29 -23  120.66  373.48
  21  29 -20  243.37  103.98
  21  29  -8    4.91   94.00
  21  30 -18  279.34  226.76
  21  30 -15  121.20  119.68
  21  30 -12  108.18  237.68
  21  30  18  248.42  163.69
  21  31  -1   74.19  100.87
  21  31  11  308.05  120.12
  22   1 -66   32.28   85.85
  22   1 -54  387.32   90.26
  22   1 -51   94.66   62.20
  22   1 -45  296.95   69.17
  22   1 -42  685.15  104.89
  22   1 -36  246.65   84.63
  22   1 -30  616.66  102.01
  22   1 -24 3395.97  273.72
  22   1 -21  773.68  174.96
  22   1 -18  987.47  221.61
  22   1  -9  223.05   92.67
  22   1  -6 1649.75  237.31
  22   1  -310446.32  309.03
  22   1   0    8.79   66.46
  22   1   3 1231.39   42.20
  22   1   6 7608.41  191.59
  22   1   9 1096.84   83.76
  22   1  12  323.27   80.18
  22   1  18 6204.87  357.44
  22   1  21 1700.53  187.66
  22   1  24 1516.30  166.08
  22   1  27  371.18   70.77
  22   1  36  661.71  175.18
  22   1  39  408.04   95.78
  22   1  45  127.54   79.20
  22   1  48  697.62  100.14
  22   1  51   49.74   89.21
  22   1  69   75.45   52.61
  22   2 -55  293.07   83.89
  22   2 -52  178.87   69.79
  22   2 -49  333.84   56.33
  22   2 -46   81.19   40.28
  22   2 -34  358.27  115.67
  22   2 -28   75.98   30.40
  22   2 -25  187.32   61.44
  22   2 -22 1336.71  272.33
  22   2 -16  411.66  106.38
  22   2 -13  568.67   67.41
  22   2  -7  509.37   73.68
  22   2  -1 2736.90  229.50
  22   2   2 1326.27  163.67
  22   2   5 1887.62  105.54
  22   2   8 1208.20  116.30
  22   2  14  311.22   56.15
  22   2  20  265.02   60.12
  22   2  23 1474.38  149.87
  22   2  26  323.12   51.94
  22   2  35  353.93   94.46
  22   2  41 1161.85  167.73
  22   2  44    0.57   67.75
  22   2  47   29.31  127.40
  22   2  53   17.97   87.90
  22   2  59  181.88   78.75
  22   2  65   67.65   72.88
  22   3 -65   86.19   61.95
  22   3 -59  156.82  101.54
  22   3 -53   76.72   78.99
  22   3 -35   14.37   48.06
  22   3 -32  143.98   34.34
  22   3 -23  875.14   58.17
  22   3 -20 1620.77  140.97
  22   3 -17 1003.86  145.16
  22   3 -11  287.53   62.57
  22   3  -8 1578.97  141.00
  22   3  -5  708.02   76.39
  22   3   1 3822.11  215.23
  22   3   4 8862.73  249.47
  22   3   7  461.42   46.99
  22   3  10   39.31   27.90
  22   3  13  133.66   43.44
  22   3  16  175.37   26.32
  22   3  22  771.02   87.58
  22   3  25   42.18   83.73
  22   3  28  121.39   75.48
  22   3  31  481.48   68.95
  22   3  43  477.87   87.56
  22   3  46  188.63   99.27
  22   3  49  304.07  148.16
  22   3  52  124.32   43.87
  22   3  67   28.77   82.70
  22   3  70   94.20   62.14
  22   4 -69  127.08   48.75
  22   4 -66   62.77   79.15
  22   4 -60  141.96   65.41
  22   4 -54    1.27   62.79
  22   4 -48   32.64   48.86
  22   4 -36  315.11   97.45
  22   4 -33 1380.52  171.79
  22   4 -27  326.39  124.04
  22   4 -24 1416.53  152.13
  22   4 -21 2506.88  276.98
  22   4 -18  379.19  163.55
  22   4 -15  375.67   73.98
  22   4 -12 1415.46  140.84
  22   4  -9  213.37   81.70
  22   4  -6  160.72   54.27
  22   4  -3 1188.85  169.05
  22   4   0 2416.20  167.17
  22   4   3 2430.91  101.28
  22   4   6  504.53   55.84
  22   4   9  112.50   32.19
  22   4  12  533.49   55.50
  22   4  21   48.32   44.92
  22   4  33  539.05  159.87
  22   4  42   14.90  154.18
  22   4  60   29.00  119.75
  22   4  69  210.65   91.70
  22   5 -52   41.15   33.71
  22   5 -46  122.44   59.40
  22   5 -43  252.83   62.05
  22   5 -31    5.23  124.97
  22   5 -28  446.95   90.65
  22   5 -25 1057.79  151.18
  22   5 -22  105.69   44.50
  22   5 -16 1628.15  177.96
  22   5 -10  674.16  137.03
  22   5  -4   59.13   35.28
  22   5  -1  789.05  101.90
  22   5   2 2246.93  101.16
  22   5   5 3185.11  125.90
  22   5   8  931.40   72.89
  22   5  11  211.71   26.96
  22   5  14  262.46   49.89
  22   5  17  245.48   39.38
  22   5  20  558.61   74.78
  22   5  23  804.38  175.05
  22   5  29  290.36  111.14
  22   5  32  756.04  105.59
  22   5  38  187.61  109.48
  22   5  41  264.09   98.63
  22   5  44   39.26  118.81
  22   5  47  349.90  110.92
  22   5  50  288.94   82.46
  22   5  59  174.50   89.64
  22   6 -59  215.83   86.72
  22   6 -56    7.80   90.37
  22   6 -50    4.37   45.42
  22   6 -47  251.26   52.80
  22   6 -44   69.71   73.36
  22   6 -41   18.57   52.29
  22   6 -35  377.52  120.97
  22   6 -32  161.84   87.65
  22   6 -23   69.03   46.75
  22   6 -20   27.21   50.51
  22   6 -17  349.50   73.75
  22   6 -14  426.91  170.35
  22   6 -11 1276.46  174.11
  22   6  -8   66.06   62.49
  22   6  -5  118.67   65.95
  22   6  -2  615.24  108.99
  22   6   1 1457.30  157.44
  22   6   4 1354.62  142.24
  22   6   7  134.79   66.79
  22   6  10   85.30   55.72
  22   6  13  639.19  171.66
  22   6  16  550.27   90.16
  22   6  19  170.70   54.54
  22   6  25  152.99   65.94
  22   6  28  395.37  131.37
  22   6  31   90.24   70.57
  22   6  34  307.70   75.16
  22   6  40   41.49   50.02
  22   6  46  423.51  130.19
  22   6  49  289.97   85.16
  22   6  55   27.47  106.13
  22   7 -51   35.02   75.65
  22   7 -45    1.23   42.02
  22   7 -24  141.63   69.77
  22   7 -18  450.30  132.84
  22   7 -15  382.90  113.15
  22   7  -6 1016.63  154.84
  22   7  -3 2540.87  278.02
  22   7   0  418.91  103.04
  22   7   6   16.95   25.32
  22   7   9  277.54   57.77
  22   7  12  687.49   78.94
  22   7  15   13.81   52.16
  22   7  18  452.11   90.31
  22   7  21  137.29   54.71
  22   7  24  250.48   68.02
  22   7  30    4.37   40.48
  22   7  33  381.14   76.33
  22   7  36  342.83   79.12
  22   7  48  132.31   94.62
  22   7  63   58.60   94.11
  22   8 -37  148.90   63.76
  22   8 -34  270.00   52.02
  22   8 -31  203.27   37.47
  22   8 -19  171.36   61.78
  22   8 -16  434.89  143.80
  22   8 -13 1879.89  307.59
  22   8  -7  489.83   78.98
  22   8   2  373.83   69.56
  22   8   8 2375.24  181.89
  22   8  11  481.33   70.01
  22   8  14  275.62   78.39
  22   8  17 2404.74  338.24
  22   8  20  481.49   63.81
  22   8  23  464.88   63.08
  22   8  26  228.19   84.38
  22   8  29  376.81   98.47
  22   8  32  176.61  118.89
  22   8  38   23.17   59.63
  22   8  44   71.41   41.99
  22   8  50  224.82  106.11
  22   8  53  293.74   74.09
  22   8  59   82.87  113.41
  22   9 -65   49.19   62.66
  22   9 -44  707.05  167.42
  22   9 -32  613.04  129.58
  22   9 -29 1147.58  183.85
  22   9 -23  154.79   49.38
  22   9 -20  363.52   94.48
  22   9 -17  430.61   60.85
  22   9  -8   19.46   42.49
  22   9  -5  122.03   40.07
  22   9  -2  698.35   95.65
  22   9   1 3997.51  328.31
  22   9   7   67.74   25.25
  22   9  10 1566.20  160.11
  22   9  13   30.94   53.65
  22   9  19    0.75   48.10
  22   9  22  372.36   70.20
  22   9  25  299.83   65.09
  22   9  28   92.07   96.90
  22   9  40  232.02   47.97
  22   9  49  165.14   83.08
  22   9  61   36.33   67.28
  22  10 -63    4.71   77.26
  22  10 -57   25.75   92.31
  22  10 -48   50.92  112.34
  22  10 -45    0.22   86.49
  22  10 -39  239.93  102.91
  22  10 -27 2891.00  506.93
  22  10 -24  522.10   87.38
  22  10 -21  564.88  200.34
  22  10 -15  366.85   75.92
  22  10  -9  207.54   65.79
  22  10  -6  600.80  133.45
  22  10   3  399.86   93.84
  22  10   6  389.60   34.13
  22  10   9  379.77   47.65
  22  10  12  444.48   54.76
  22  10  21  237.37  150.12
  22  10  24  188.66   59.22
  22  10  48  495.07  103.80
  22  10  60    0.44   97.00
  22  10  63  168.87   67.16
  22  11 -61   27.49   66.09
  22  11 -55   33.67   90.70
  22  11 -43  118.29  102.05
  22  11 -37  335.07   96.57
  22  11 -25  309.37  111.17
  22  11 -16  234.54   99.03
  22  11 -13 1068.76  163.09
  22  11 -10  875.84  213.79
  22  11  -7   61.49   84.68
  22  11  -4  672.25  191.12
  22  11   2  188.47   82.84
  22  11   8  311.31   98.66
  22  11  11 1741.88  186.39
  22  11  17  165.44  110.24
  22  11  20   41.28   47.40
  22  11  23   20.50   53.65
  22  11  26  383.80  104.06
  22  11  35   58.71   90.18
  22  11  38  192.89   63.89
  22  11  44  103.16   67.95
  22  11  53   74.68  121.98
  22  11  59    1.36  101.85
  22  12 -62   71.78  175.19
  22  12 -56    4.38  164.52
  22  12 -38  120.41  113.14
  22  12 -35  249.93  137.28
  22  12 -32   84.35   93.60
  22  12 -26  223.70  141.82
  22  12 -17  980.49  168.50
  22  12 -11    7.99   72.15
  22  12  -8  270.11   99.82
  22  12  -5  706.49  172.84
  22  12  -2 1598.08  457.03
  22  12   1 1013.56  187.77
  22  12   4  216.89   64.17
  22  12   7  471.89  110.18
  22  12  10   43.90   81.30
  22  12  13  423.85   88.24
  22  12  16   47.37   59.15
  22  12  19  182.22   68.57
  22  12  22 1300.63  145.01
  22  12  25  882.56  124.33
  22  12  31  459.17  117.45
  22  12  43  122.67   85.11
  22  12  46  137.76   62.27
  22  12  49  101.22   83.75
  22  12  52  365.78   67.97
  22  12  55    6.33   79.00
  22  12  58   95.34   83.42
  22  13 -42  462.30  179.75
  22  13 -33 1435.22  274.60
  22  13 -24  598.05  137.04
  22  13 -21 1835.37  287.94
  22  13 -15  424.14  102.96
  22  13  -3 1411.47  204.76
  22  13   0  802.74  174.46
  22  13   9  973.30  157.11
  22  13  18  256.29   55.01
  22  13  24  503.09  190.34
  22  13  27   10.19   75.35
  22  13  30  375.57   61.85
  22  13  33  182.37   62.84
  22  13  39  142.74  124.93
  22  13  42  101.27   77.61
  22  13  57  214.08  144.40
  22  14 -58   39.75  131.33
  22  14 -34  243.69   94.51
  22  14 -28  501.86  188.44
  22  14 -25 1059.07  139.61
  22  14 -19  694.58  189.83
  22  14 -13  376.08  107.10
  22  14  -7  394.86  145.39
  22  14  -4  684.85  259.81
  22  14  -1  406.73  146.20
  22  14   2  129.45  122.78
  22  14   5   24.75   89.65
  22  14  14  284.36  111.80
  22  14  17  483.96   83.27
  22  14  20  675.58  120.81
  22  14  26  397.52   89.74
  22  14  32  147.93   62.42
  22  14  35  423.65  151.40
  22  14  38  146.10   68.00
  22  14  41   29.53   88.50
  22  14  53  596.34  122.75
  22  14  56   25.56   60.46
  22  15 -56  236.86  146.64
  22  15 -32  240.56  108.59
  22  15 -29  429.90  146.39
  22  15 -23  596.57  128.66
  22  15 -11  169.93  104.12
  22  15  -8  263.40  167.33
  22  15  -2  415.50  150.02
  22  15   1  301.77  103.17
  22  15  10  229.14   64.18
  22  15  13  338.49  102.23
  22  15  16  502.57  205.83
  22  15  19  218.18   90.78
  22  15  28    3.76   85.60
  22  15  31  224.65   56.96
  22  15  34  444.80   68.89
  22  15  37   19.00   67.52
  22  15  43   75.67   71.67
  22  15  49   50.45   56.10
  22  16 -54   72.11   82.67
  22  16 -51   62.64   82.08
  22  16 -39    2.12   92.32
  22  16 -33    1.32   90.44
  22  16 -27  381.75   93.04
  22  16 -24  118.78   78.09
  22  16 -21  323.19  123.79
  22  16  -9  187.68   77.55
  22  16  -6 1190.10  271.47
  22  16   3  822.49  170.92
  22  16   9  193.12   72.43
  22  16  15  666.68  125.32
  22  16  18  278.88   80.75
  22  16  21   35.91   73.66
  22  16  24  415.50  121.38
  22  16  30  641.91   80.61
  22  16  33  351.27   75.33
  22  16  36   94.35   53.74
  22  16  39    2.47   47.90
  22  17 -31   45.60  129.58
  22  17   2  548.77  129.71
  22  17   5   78.84   91.97
  22  17   8  145.57   87.83
  22  17  11  104.88   55.52
  22  17  14  457.49   86.75
  22  17  17  386.40  108.80
  22  17  23   67.26   54.60
  22  17  26  123.16   91.88
  22  17  29  379.71  116.18
  22  17  41   36.00   43.65
  22  17  44  184.29   70.22
  22  17  50    0.17   80.87
  22  18 -47  138.49   93.52
  22  18 -41  374.88  164.43
  22  18 -38  142.22  138.17
  22  18 -26 1082.56  149.14
  22  18 -17   51.29  124.41
  22  18   7  343.57   79.92
  22  18  16  290.26  105.89
  22  18  22  379.93  103.90
  22  18  25   30.74  161.96
  22  18  28   61.06   77.41
  22  18  40  158.75   48.45
  22  18  43    7.25   76.27
  22  18  46   34.66  102.04
  22  18  49  319.31  122.79
  22  19 -15   23.36  156.76
  22  19   0  230.39  143.23
  22  19   6  132.16   89.23
  22  19   9   23.06   90.81
  22  19  12  308.74   75.57
  22  19  18  264.55   90.20
  22  19  21  310.31   69.74
  22  19  24   17.45   83.58
  22  19  27  202.14  110.37
  22  19  30  300.55   93.42
  22  19  36   51.29   88.84
  22  19  48    3.93   78.41
  22  20 -49   21.20   79.01
  22  20 -43   12.75   82.02
  22  20 -40  121.52  128.25
  22  20 -37    3.48   98.53
  22  20 -31   10.26   60.94
  22  20 -28  230.27   99.94
  22  20 -22  313.41  122.96
  22  20 -13  746.66  116.18
  22  20   2  536.83  153.33
  22  20   5  286.90   77.78
  22  20  11  297.45  102.60
  22  20  20   35.10  108.97
  22  20  41  125.34   73.21
  22  20  44   94.79  129.83
  22  21 -38  188.04  100.34
  22  21 -29  177.09  133.69
  22  21 -17  789.18  104.87
  22  21  -8  973.44  144.69
  22  21  -5  966.30  188.91
  22  21  -2  467.07  126.61
  22  21   4  107.19   94.40
  22  21  22    1.85   44.15
  22  21  25   69.92   89.47
  22  21  34   64.72   70.24
  22  21  43   51.54   74.70
  22  21  46   11.82   89.86
  22  22 -42  219.81  126.15
  22  22 -30  287.75   61.87
  22  22 -24  102.46  118.32
  22  22 -21    3.51  106.90
  22  22 -15  288.33  107.48
  22  22  -3  193.18  309.93
  22  22   3  173.09  246.55
  22  22  36   34.92   75.58
  22  22  42   42.30   91.54
  22  23 -43   16.36   74.34
  22  23 -22    7.71  181.25
  22  23 -10  175.70  130.24
  22  23  -4  760.71  316.27
  22  23  32    3.66  124.22
  22  23  35  207.96  360.14
  22  23  41  245.50   93.33
  22  24 -32  106.65  177.27
  22  24  -8  245.19  143.28
  22  24  -5  303.56  480.37
  22  24  -2  204.39  273.19
  22  24  10   77.09  104.42
  22  24  16   77.28   95.99
  22  24  34   27.36   86.30
  22  25 -21  291.92  215.91
  22  25 -18  382.63  270.49
  22  25 -12   90.51  198.40
  22  25   6  127.57  172.08
  22  25   9   81.46  238.32
  22  26 -31   92.64  164.00
  22  26 -28  277.46  192.96
  22  26 -22  180.64  120.44
  22  26 -13  729.39  189.67
  22  26  -1  420.82  255.70
  22  26  11   59.37  122.16
  22  26  23  506.17  275.53
  22  26  26  100.21   84.51
  22  26  29  187.62  127.34
  22  27 -29  400.17  152.24
  22  27 -26  164.44  150.22
  22  27 -23   27.78  152.73
  22  27 -17   32.55  194.99
  22  27 -14  310.02  193.67
  22  27  -5  129.24  157.70
  22  27  13  218.78  123.48
  22  27  19   16.85  107.68
  22  27  22   87.42  138.09
  22  28 -21  276.61  228.92
  22  28  -9  162.67  213.17
  22  28  -6    7.17  140.88
  22  29 -13  222.63  122.44
  22  29  -4    5.34  122.77
  22  29  11  300.38   77.08
  22  29  14  317.37  310.38
  22  30  -5  394.28  186.79
  22  30   1  120.17  330.11
  23   1 -65    0.05   60.22
  23   1 -62    7.20   93.04
  23   1 -53  187.22   81.10
  23   1 -41  582.51  135.07
  23   1 -38   49.07   59.87
  23   1 -35  451.63  119.58
  23   1 -26  845.75   60.01
  23   1 -17  124.11   75.78
  23   1 -14 1198.42  181.39
  23   1 -11  621.68  180.94
  23   1  -5  175.88   62.69
  23   1  -2 1672.38  167.36
  23   1   1  718.87   47.44
  23   1   4 1326.99  125.21
  23   1   7 3369.10  129.65
  23   1  10  353.99   43.90
  23   1  13  280.04   64.13
  23   1  16  273.89   69.12
  23   1  28  538.15   70.96
  23   1  34  708.22  187.90
  23   1  40  214.08  112.90
  23   1  43   47.75   79.96
  23   1  55   68.81   78.59
  23   1  61    4.05   58.46
  23   2 -60   84.81   68.73
  23   2 -51  162.04   62.98
  23   2 -45  609.61  106.54
  23   2 -42   40.91   64.01
  23   2 -39   42.60   49.20
  23   2 -36  181.97   72.19
  23   2 -33   62.92   57.99
  23   2 -27  172.78   36.84
  23   2 -24  279.75   66.87
  23   2 -18  326.97  160.09
  23   2 -12  592.23   76.38
  23   2  -6  699.09  189.59
  23   2  -3  153.09   86.07
  23   2   3 1571.90  135.95
  23   2   9  110.66   35.79
  23   2  15   38.65   35.38
  23   2  18   94.43   53.10
  23   2  21 3604.90  373.04
  23   2  27  268.86  103.10
  23   2  30 1895.93  257.16
  23   2  36   25.20   62.15
  23   2  42  309.53  145.10
  23   2  45    2.75   53.67
  23   2  51  171.56  116.58
  23   2  60  178.75  116.93
  23   2  63   97.19   99.56
  23   2  66   38.07   70.13
  23   3 -67   65.92   56.78
  23   3 -64  321.53  104.51
  23   3 -58  120.51   83.10
  23   3 -40  235.21   69.14
  23   3 -37  856.29  142.29
  23   3 -34 1276.11  123.38
  23   3 -31 1040.75  196.34
  23   3 -28  456.15  108.83
  23   3 -25  279.70   59.05
  23   3 -22  579.19   39.33
  23   3 -16   42.93   56.79
  23   3 -13  185.39  127.90
  23   3 -10  373.04  104.44
  23   3  -7 5075.23  466.30
  23   3  -4 1445.72  122.77
  23   3  -1 1148.77  118.43
  23   3   5  260.19   34.63
  23   3  11   88.97   42.51
  23   3  14    4.04   19.53
  23   3  17  104.69   47.75
  23   3  20 1096.27  137.24
  23   3  23    1.23   56.69
  23   3  29  769.79  141.22
  23   3  32 1166.61  190.76
  23   3  35  401.91  118.39
  23   3  47   93.68  120.29
  23   3  56  124.63  155.67
  23   3  59    7.77  111.54
  23   3  65   93.30  131.56
  23   3  68    0.88  127.06
  23   4 -50   83.50   56.07
  23   4 -44  204.58   50.61
  23   4 -41  466.65   97.57
  23   4 -32  587.32  146.52
  23   4 -29    7.03   87.53
  23   4 -20  701.95  109.63
  23   4 -17 1145.53  210.61
  23   4 -11 2434.43  283.99
  23   4  -8  989.05  212.56
  23   4  -5  233.86  105.65
  23   4  -2  335.37   49.93
  23   4   4  902.95   95.34
  23   4   7   17.44   36.12
  23   4  10 1531.50  119.90
  23   4  13 3085.31  192.44
  23   4  16  262.40   68.94
  23   4  25 2225.26  234.38
  23   4  28  323.01  116.38
  23   4  31  526.65  113.19
  23   4  37   75.90   79.10
  23   4  40   26.30   71.09
  23   4  46   22.32   70.71
  23   4  67  212.77   84.07
  23   5 -66   99.32  119.10
  23   5 -63  248.95   65.62
  23   5 -57  116.75   78.64
  23   5 -51  244.24   72.70
  23   5 -45   68.35   48.65
  23   5 -39   66.93   40.85
  23   5 -27  195.25  124.62
  23   5 -24 1247.26  277.66
  23   5 -15  313.58   53.41
  23   5 -12    2.22   48.16
  23   5  -9  381.61  109.81
  23   5  -6  662.38  115.40
  23   5  -3   91.59   47.90
  23   5   9 2727.99  178.76
  23   5  12 1290.16   96.58
  23   5  15  526.29   89.90
  23   5  18  171.58   25.98
  23   5  21  676.27   74.34
  23   5  27  490.79  117.15
  23   5  30   94.49   70.68
  23   5  36  542.03  145.39
  23   5  42  257.75  123.48
  23   5  51  214.10   83.02
  23   5  60   11.72   91.25
  23   5  63  125.12   78.59
  23   5  66  196.05  123.49
  23   6 -64   19.19   87.21
  23   6 -61  197.10  111.02
  23   6 -46  263.85   53.93
  23   6 -40  173.96   59.77
  23   6 -31   30.50  122.29
  23   6 -22  271.87   53.40
  23   6 -16  394.88   80.81
  23   6 -13  779.51  114.72
  23   6  -4  417.55   84.01
  23   6  -1 2838.41  213.13
  23   6   2 3740.62  210.32
  23   6   8  148.49   37.43
  23   6  11  556.90   84.61
  23   6  17   31.22   49.12
  23   6  23  174.63   87.46
  23   6  26 2561.20  247.15
  23   6  29 1872.08  191.16
  23   6  35  324.44   86.32
  23   6  38   59.64   72.37
  23   6  41   79.85   58.00
  23   6  44   78.33   92.70
  23   6  53   11.54   90.19
  23   6  65   66.08   92.12
  23   7 -65   30.01   98.56
  23   7 -50    0.09  103.01
  23   7 -35   76.30  131.20
  23   7 -32  327.86  103.61
  23   7 -26   65.22   85.78
  23   7 -23    8.41   84.27
  23   7 -20   99.04   56.62
  23   7 -17  208.99   79.64
  23   7 -14   42.04   56.84
  23   7 -11 3680.35  446.96
  23   7  -8  608.01  194.89
  23   7  -2  589.49   61.12
  23   7   1  206.53   69.41
  23   7   4  522.19  135.67
  23   7   7 1237.83  240.72
  23   7  10  984.65   99.20
  23   7  13  649.84   82.45
  23   7  16  559.65   69.23
  23   7  19   52.65   62.42
  23   7  22    6.52   91.50
  23   7  25  324.95   68.49
  23   7  28  413.84  118.85
  23   7  37   22.71   72.87
  23   7  49  137.78   59.57
  23   7  64   33.61   68.54
  23   8 -60   49.93   96.40
  23   8 -54   32.38   86.49
  23   8 -45   76.07   50.19
  23   8 -30  599.45  134.14
  23   8 -24  200.12   96.14
  23   8 -18  331.86   94.42
  23   8 -15   59.79   38.68
  23   8 -12  450.24   75.76
  23   8  -9  802.68  194.97
  23   8  -6  237.13   64.36
  23   8   0   74.21   70.85
  23   8   3   59.40   37.04
  23   8   6   70.67   75.40
  23   8   9  432.67   66.96
  23   8  12   31.01   31.15
  23   8  15  302.10  103.02
  23   8  18   45.08   66.56
  23   8  21  932.53  123.13
  23   8  24  328.32   70.75
  23   8  30  372.49   80.57
  23   8  45   58.07   87.06
  23   8  57   96.49   85.11
  23   8  60   53.23  228.16
  23   8  63   28.20   70.05
  23   9 -64    7.19  164.88
  23   9 -43   55.82  187.34
  23   9 -31  484.77   78.94
  23   9 -28    3.30   70.27
  23   9 -19  296.10   95.98
  23   9 -16  332.67  146.65
  23   9 -13  362.28  245.09
  23   9  -7 1281.69  134.20
  23   9  -4  361.00   73.71
  23   9  -1 1700.43  120.87
  23   9   2  249.91   72.75
  23   9   5   16.93   33.03
  23   9  11 1436.15  123.07
  23   9  14  241.61   59.42
  23   9  17    2.26   98.83
  23   9  20 2168.99  223.35
  23   9  29  540.63  154.48
  23   9  35  186.82  187.29
  23   9  47  603.58   95.60
  23   9  53  186.61  106.65
  23   9  56  170.99  104.00
  23   9  59    4.36   61.43
  23  10 -50   93.53  120.73
  23  10 -44   22.37  136.31
  23  10 -38  116.16  138.62
  23  10 -20  719.89   89.33
  23  10 -14  388.89   86.06
  23  10  -5  164.15   94.57
  23  10   4   87.76   98.94
  23  10   7  510.60  135.42
  23  10  10  223.08   74.61
  23  10  13 1191.40  146.36
  23  10  16 1201.83  119.81
  23  10  19  235.09   52.80
  23  10  22  176.89   51.65
  23  10  28  382.30  118.16
  23  10  34   21.39   75.46
  23  10  40   55.32   71.77
  23  10  46  274.61   64.38
  23  10  55  183.99  157.81
  23  10  61   40.56   76.91
  23  11 -60    0.02  132.07
  23  11 -54    1.49  123.31
  23  11 -42  510.84  189.43
  23  11 -36   98.97   82.00
  23  11 -24 1060.69  288.12
  23  11 -18  592.08  129.30
  23  11 -15  569.25  140.14
  23  11 -12  259.23   86.26
  23  11  -9 1307.80  171.61
  23  11  -6  149.75   82.95
  23  11  -3  555.81  290.96
  23  11   0  859.27  199.81
  23  11   3  229.28   86.49
  23  11   6  506.43   93.19
  23  11   9 1288.58  125.15
  23  11  15  979.55  126.74
  23  11  18 1301.00  147.92
  23  11  24  281.56   82.04
  23  11  27  154.37  121.34
  23  11  30  689.19   67.65
  23  11  33   21.86  110.44
  23  11  48  422.94   92.09
  23  11  51  120.32   80.90
  23  12 -58    8.34  103.78
  23  12 -52   63.86   96.25
  23  12 -49   14.18  136.12
  23  12 -46  403.45   91.03
  23  12 -37   31.90   78.74
  23  12 -31 2033.45  360.36
  23  12 -28  804.48  162.82
  23  12 -22    6.52  110.77
  23  12 -19  363.56  110.89
  23  12 -16   63.25   75.16
  23  12 -13   38.81   90.27
  23  12   2   62.55  132.83
  23  12   5  411.94   89.66
  23  12  14 1012.71  116.52
  23  12  17 1118.53  140.05
  23  12  20  100.69   45.80
  23  12  23  369.04   99.93
  23  12  26  205.13   69.00
  23  12  41  132.78   52.56
  23  12  44  413.78   75.64
  23  12  50   46.17   75.06
  23  12  59  190.38  135.22
  23  13 -56   34.98   99.33
  23  13 -50  155.74  120.17
  23  13 -41  212.07  116.41
  23  13 -38  357.84  165.05
  23  13 -23 1099.40  181.11
  23  13 -17  331.07  120.39
  23  13 -14  148.74  109.30
  23  13 -11 1606.36  297.55
  23  13  -8  101.13   92.27
  23  13  -2  592.46  237.15
  23  13   7   52.83  101.55
  23  13  19  113.84   57.45
  23  13  22  241.02   55.88
  23  13  28  349.03   71.46
  23  13  31  313.87  100.70
  23  13  34  598.21   94.98
  23  13  40  162.89   60.38
  23  13  43  322.31   79.90
  23  13  52  473.11  117.68
  23  14 -57   27.13   94.72
  23  14 -51   95.50   83.74
  23  14 -30  248.67   92.92
  23  14 -27  673.64  205.71
  23  14 -21  409.78  171.56
  23  14 -15  175.84  118.21
  23  14  -6  601.31  138.29
  23  14   3  576.66   98.47
  23  14   6    8.55   66.78
  23  14  18   71.65   43.74
  23  14  30  126.69   44.90
  23  14  39  161.34  101.11
  23  14  45  188.19   74.53
  23  14  54  147.41   67.27
  23  15 -49  100.41   80.98
  23  15 -46    9.42  170.53
  23  15 -34  165.14  155.23
  23  15 -31  152.84  104.77
  23  15 -25  275.98  128.63
  23  15 -13 1725.22  196.62
  23  15 -10 1977.82  228.38
  23  15   2  185.97   85.38
  23  15   8  241.30   85.82
  23  15  14   99.84   59.67
  23  15  23  204.83   75.58
  23  15  26  483.54   96.91
  23  15  29  196.54   83.73
  23  15  32   90.50   66.48
  23  15  50  110.25   80.10
  23  15  53   38.94   91.66
  23  15  56  108.54   93.89
  23  16 -47   35.25  125.12
  23  16 -41  198.51  176.37
  23  16 -38  131.33  167.36
  23  16 -35  483.44  174.34
  23  16 -29  521.45  122.86
  23  16 -23  188.28  128.10
  23  16  -2  453.17  165.05
  23  16   4   92.77  110.27
  23  16  10 1148.79   74.35
  23  16  22  491.01  127.22
  23  16  28   94.53   81.05
  23  16  37  102.01   68.92
  23  16  40  109.06   39.72
  23  16  43  112.27   89.88
  23  16  46  237.50   87.96
  23  17 -39  163.48  103.51
  23  17 -24  472.22  130.67
  23  17 -15  209.56  182.00
  23  17 -12   42.48   93.16
  23  17  -9   23.69   52.67
  23  17  -6  279.60  121.76
  23  17  -3  445.30  130.99
  23  17  18   56.70   64.72
  23  17  21   42.41  122.96
  23  17  24    1.73   83.16
  23  17  27    4.30   81.25
  23  17  33  179.87   87.17
  23  17  39  353.48   97.31
  23  17  48   52.03   75.14
  23  18 -28  372.97  140.10
  23  18 -22  456.68  108.39
  23  18 -19  136.60  130.68
  23  18  -4    5.94   83.08
  23  18   8  635.95  148.92
  23  18  11  992.33  144.09
  23  18  17  262.93   77.31
  23  18  23  125.60  146.46
  23  18  26  220.46   80.15
  23  18  32   90.53   67.75
  23  18  44   29.90   79.88
  23  18  47  329.19  166.32
  23  19 -47  114.02  103.59
  23  19 -44  102.62   64.74
  23  19 -38   51.45   74.88
  23  19 -32  233.21  109.91
  23  19 -29  232.97   79.72
  23  19 -26   64.58  142.38
  23  19 -14  442.92   95.37
  23  19  -5  144.82  181.70
  23  19  -2  249.27   95.22
  23  19   1  576.42  219.08
  23  19   4  173.16  140.73
  23  19  19  121.81  103.79
  23  19  22  185.45  130.32
  23  19  25  203.36   99.08
  23  19  34  214.16  100.86
  23  19  40  161.64   77.45
  23  19  43   57.54  128.38
  23  19  46  136.57  105.10
  23  19  49   55.57   63.83
  23  20 -36   91.82  130.45
  23  20 -30  137.94   95.37
  23  20 -21  257.89  111.26
  23  20 -15   83.37   83.67
  23  20  -9  555.09  235.05
  23  20  -6  227.43  100.10
  23  20  -3   82.38  107.85
  23  20   3   34.72   88.41
  23  20   6  277.31  156.63
  23  20   9   96.49  113.83
  23  20  12   96.82  118.70
  23  20  21  276.13  105.50
  23  21 -40  114.50  115.30
  23  21 -34  216.22   79.96
  23  21 -25  149.10  127.58
  23  21 -19  245.33  149.69
  23  21 -16   49.88   72.68
  23  21 -13  345.53  129.72
  23  21  -4  233.48  127.22
  23  21   8  119.20  171.38
  23  21  23  184.52  130.52
  23  21  26   90.80  139.49
  23  21  29  505.79  220.80
  23  21  32   38.96   73.70
  23  22 -41   43.15   99.56
  23  22 -38   80.14   55.68
  23  22 -35   76.96   64.10
  23  22 -23    1.56  104.08
  23  22 -17   85.04  251.02
  23  22  -2  428.82  198.85
  23  22   7  221.09  150.97
  23  22  10  692.45  147.16
  23  22  13   55.08   93.27
  23  22  16   17.83  168.86
  23  22  22   81.57   84.06
  23  22  25   84.57  114.74
  23  22  31   66.24  151.78
  23  23 -33   91.48  135.34
  23  23 -21  151.94  155.24
  23  23  -9  255.28  166.77
  23  23  24  192.26   84.25
  23  23  27  499.96  131.28
  23  23  33  178.26  130.05
  23  24 -28  233.38  148.95
  23  24 -22  299.61  156.82
  23  24  -1  158.54  275.59
  23  24  11   14.57  103.34
  23  24  23   41.32  106.50
  23  24  29   73.17  117.23
  23  24  35  118.55  192.09
  23  25 -29  176.92  156.38
  23  25 -23  300.02  219.83
  23  25  -8  200.50  183.01
  23  25  10   10.76  127.92
  23  25  16   19.04   98.28
  23  25  19  160.43   83.25
  23  25  25   32.81   85.94
  23  25  34   42.45  130.59
  23  26 -21   22.15  240.47
  23  26 -12  136.46  115.41
  23  26  -6   72.85  119.95
  23  26   6  179.01  179.58
  23  26  15  143.29   81.89
  23  27 -22  106.77  135.19
  23  27 -19   97.39  132.55
  23  27 -13  244.18  117.87
  23  27 -10  660.22  137.13
  23  27  -1   63.92  113.35
  23  27  23  227.15  109.72
  23  27  26  430.03  142.02
  23  28 -11  122.37  112.39
  23  28  13    0.47  159.56
  23  28  19   93.67   85.51
  23  29 -12   50.55   94.34
  23  29  -6  132.16  290.24
  23  29  -3   65.92  137.35
  23  29   0  125.21  178.07
  24   1 -67   41.13   54.40
  24   1 -64   77.53   83.99
  24   1 -52   51.97   50.98
  24   1 -43  184.26   84.30
  24   1 -37   43.43   45.44
  24   1 -34  197.09   38.11
  24   1 -28  257.84   60.12
  24   1 -22  437.68  208.11
  24   1 -13  165.08   72.77
  24   1  -4  243.67   43.85
  24   1   8 2870.59  210.27
  24   1  11 8026.34  310.96
  24   1  14 3707.21  174.23
  24   1  17  643.36   66.06
  24   1  20 1257.04   86.91
  24   1  23  909.11   68.00
  24   1  29  106.96  156.24
  24   1  32  620.77  141.04
  24   1  38  816.59  189.83
  24   1  41  136.38  104.84
  24   1  47  419.89   88.70
  24   1  50  162.06   88.46
  24   1  53    4.16   62.61
  24   1  56  133.08   90.92
  24   1  59  154.17   98.50
  24   1  62  307.76   72.04
  24   2 -62  118.14   64.99
  24   2 -53  359.47   89.86
  24   2 -44    1.09   75.98
  24   2 -38  670.70   77.64
  24   2 -35 2479.72  326.60
  24   2 -29   60.37  110.10
  24   2 -26  594.56  133.72
  24   2 -23  928.33   57.24
  24   2 -14  486.91   95.79
  24   2  -8  150.11   82.55
  24   2   1  309.57   40.92
  24   2   4  747.63   80.80
  24   2   7 1853.28  142.64
  24   2  10 3821.55  241.31
  24   2  13 1822.26  108.93
  24   2  16  299.20   39.86
  24   2  19 2871.99  398.31
  24   2  22  330.67  159.09
  24   2  25  816.04  157.56
  24   2  28  211.95   81.05
  24   2  31  447.07   68.10
  24   2  34  316.81  107.92
  24   2  40  426.32   78.12
  24   2  43   44.80   93.96
  24   2  46   56.10   70.10
  24   2  49    5.58  105.64
  24   2  52    1.02   48.92
  24   2  55   50.85  118.23
  24   2  61  151.11  165.52
  24   3 -66   31.51   60.01
  24   3 -63   20.98   76.44
  24   3 -57  393.88  118.21
  24   3 -54  452.78   68.69
  24   3 -45  400.35   66.57
  24   3 -30  445.95   61.90
  24   3 -27  333.85   81.55
  24   3 -18  263.21   61.87
  24   3 -15  239.52   65.26
  24   3 -12  267.56   68.87
  24   3  -9  395.47   52.44
  24   3  -3 1478.21   48.96
  24   3   0   10.80   44.30
  24   3   3   50.80   52.64
  24   3   6 1063.88   72.58
  24   3   9  192.84   59.27
  24   3  12  526.13   73.13
  24   3  15 1978.74  242.25
  24   3  21  198.77   75.75
  24   3  27  126.18   70.39
  24   3  30 2886.21  471.42
  24   3  39  166.36  159.13
  24   3  42  183.73   42.70
  24   3  60  203.59  111.74
  24   4 -61   97.86   77.27
  24   4 -58   93.21   59.73
  24   4 -49  296.13   56.74
  24   4 -46  364.92   68.11
  24   4 -37   11.78   74.01
  24   4 -34  198.68  110.93
  24   4 -31  461.31  115.44
  24   4 -28 1044.94  143.52
  24   4 -22  150.34   62.34
  24   4 -13  300.99   43.85
  24   4 -10 1242.83  163.11
  24   4  -7 4985.90  406.70
  24   4  -1  249.94   46.14
  24   4   5  801.36   68.88
  24   4   8  187.49   38.82
  24   4  14  968.57  102.59
  24   4  17  154.05   44.89
  24   4  23 2130.41  223.95
  24   4  29  338.44   67.51
  24   4  32 1525.44  124.17
  24   4  47   34.36   94.87
  24   4  50  115.75   72.39
  24   4  59   56.86   82.06
  24   5 -65   63.61   98.13
  24   5 -59   17.78   69.20
  24   5 -56   84.74   49.58
  24   5 -50  234.82   93.26
  24   5 -47   15.34   53.07
  24   5 -44  207.70  103.34
  24   5 -29  758.81  223.29
  24   5 -23  151.40   56.41
  24   5 -20   48.99   78.76
  24   5 -17 1100.01  240.36
  24   5 -14 2130.28  289.30
  24   5  -8 1767.59  213.07
  24   5  -5  747.02  177.66
  24   5  -2 3869.39  246.55
  24   5   1   16.10   33.24
  24   5   4   31.59   24.56
  24   5  10 1678.14  111.36
  24   5  13 1122.59   81.67
  24   5  19 3312.64  226.86
  24   5  22  896.40   79.85
  24   5  25  100.09   55.13
  24   5  28  314.32   86.03
  24   5  31  123.82   53.87
  24   5  34  145.92   82.30
  24   5  40  107.44   76.85
  24   5  46   60.47   76.42
  24   5  49  138.96  111.12
  24   5  58  159.15  115.15
  24   5  64   16.64   87.19
  24   6 -60   47.11   77.59
  24   6 -21  859.86  128.14
  24   6 -18  360.56  206.19
  24   6 -12  860.51  181.36
  24   6  -9 4548.25  383.16
  24   6  -6 7139.05  508.22
  24   6  -3  278.00   59.26
  24   6   0  691.06  154.75
  24   6   3 2011.43  165.57
  24   6   6 1682.05  208.69
  24   6   9  318.51   51.15
  24   6  12  849.85   89.70
  24   6  18 1941.52  244.25
  24   6  21 1711.38  217.25
  24   6  24  289.01   82.03
  24   6  27  653.57  114.64
  24   6  30  113.30   93.64
  24   6  33   42.89   70.99
  24   6  39  432.19   80.10
  24   6  51  196.58   68.69
  24   6  60  108.40   84.98
  24   7 -64   68.82   75.44
  24   7 -58  216.00   84.97
  24   7 -55  100.81   77.57
  24   7 -52    0.55  116.48
  24   7 -46  106.83   67.74
  24   7 -43  156.27  147.02
  24   7 -37  196.43  193.07
  24   7 -31  125.09  116.76
  24   7 -28 2723.21  301.38
  24   7 -25  233.14  165.69
  24   7 -19    8.91   79.55
  24   7 -13   10.05   64.30
  24   7 -10 1953.48  359.77
  24   7  -7  659.13   75.75
  24   7  -1  647.53   99.41
  24   7   5  278.12   76.11
  24   7  11  248.75   43.94
  24   7  14  126.13   78.68
  24   7  17 2252.09  240.78
  24   7  23  318.73   87.18
  24   7  29  322.93   66.28
  24   7  35  260.72   74.03
  24   7  47   30.04   77.52
  24   7  56   94.33   79.37
  24   8 -59    0.02   60.70
  24   8 -41  328.31  136.09
  24   8 -32  414.32  213.24
  24   8 -26   85.35  147.99
  24   8 -23   28.40   81.46
  24   8 -20  463.16  224.99
  24   8 -17  122.78  105.87
  24   8 -14  149.92  111.33
  24   8  -8 1241.84  215.45
  24   8  -5    2.89   63.82
  24   8   1  277.81  102.28
  24   8   7  445.80   70.39
  24   8  10 2193.61  272.56
  24   8  13   88.88   58.78
  24   8  16  197.36   47.24
  24   8  19  975.55  126.93
  24   8  22  375.47   82.91
  24   8  28   31.90   71.74
  24   8  31  350.09  192.59
  24   8  34   99.33   68.37
  24   8  37  318.34   57.42
  24   8  46   73.66  103.64
  24   8  52   30.03   66.51
  24   9 -60    0.42   72.21
  24   9 -51  139.55  107.75
  24   9 -45   86.35   86.01
  24   9 -39   19.89  120.61
  24   9 -36  701.87  141.22
  24   9 -24 1550.15  232.92
  24   9 -18  259.70  104.18
  24   9 -12   61.72   50.89
  24   9  -9  101.48  143.52
  24   9   0   57.45   66.03
  24   9   6  670.22  116.86
  24   9   9  192.90   48.75
  24   9  12   89.80   72.24
  24   9  15  198.78   59.71
  24   9  18  348.08   91.54
  24   9  27  128.82   75.74
  24   9  30   38.30   65.61
  24   9  33  211.72   75.39
  24   9  36   58.78  104.58
  24   9  42  294.62  102.57
  24   9  48   63.54   53.45
  24  10 -46  171.56  141.31
  24  10 -40  180.52  115.58
  24  10 -37  430.57  143.77
  24  10 -34  456.01  129.28
  24  10 -22  737.41  205.21
  24  10 -10  225.60  112.92
  24  10  -7 1668.19  228.12
  24  10  -1  981.60  166.74
  24  10   2  661.42  257.84
  24  10  11  401.18  102.35
  24  10  14  164.21   44.75
  24  10  17  188.20   85.16
  24  10  20  303.48   54.10
  24  10  23  159.86  150.80
  24  10  29  356.34   89.62
  24  10  32  914.21   68.72
  24  10  41    5.20   78.70
  24  10  44   56.79   87.28
  24  10  47  263.48   92.10
  24  10  59  118.21   97.19
  24  11 -56   25.84  108.09
  24  11 -35  158.25   84.12
  24  11 -32   78.24  126.61
  24  11 -20   89.39  100.82
  24  11 -17  119.41   98.47
  24  11 -14  220.39   91.05
  24  11 -11   61.32   88.91
  24  11  -5  324.96   87.82
  24  11   1  137.90  131.00
  24  11   7  172.02  122.28
  24  11  10  197.76   95.23
  24  11  25   39.98   76.00
  24  11  31   48.99   69.25
  24  11  34  137.95   74.80
  24  11  37  247.74   68.45
  24  11  43   39.35   71.59
  24  11  52    7.78   94.38
  24  12 -54  140.67  172.14
  24  12 -51   77.47  113.33
  24  12 -48  133.40   93.35
  24  12 -36  402.50  176.16
  24  12 -27  908.53  484.07
  24  12 -24  446.40  109.01
  24  12 -15  684.04  250.02
  24  12 -12   74.55   86.64
  24  12   0  416.50  130.44
  24  12   3  201.10  108.67
  24  12   9  504.71  104.96
  24  12  18  749.96  103.52
  24  12  21  230.43   56.51
  24  12  27    7.89   72.29
  24  12  36  108.65   99.05
  24  12  42  907.23  104.55
  24  12  45  304.70   43.32
  24  12  51  108.39  102.16
  24  12  57   52.18  128.67
  24  13 -49  143.43   91.93
  24  13 -46  183.83  116.87
  24  13 -43    0.49   67.01
  24  13 -37  255.92  139.52
  24  13 -31  600.98  143.55
  24  13 -25  241.00  112.58
  24  13 -22  295.91  103.99
  24  13 -16  110.16   78.25
  24  13  -7  781.07  120.09
  24  13  -4  220.34  166.12
  24  13   5  274.98  112.91
  24  13   8  390.58  178.82
  24  13  11  433.87  190.34
  24  13  14  695.85  124.43
  24  13  17  505.02  184.34
  24  13  20  438.28   59.25
  24  13  23  690.88  210.64
  24  13  26 1107.23   86.09
  24  13  29  152.08   47.54
  24  13  32  691.80  102.55
  24  13  41   62.58  105.30
  24  13  44   59.19   69.36
  24  13  47  188.07   91.11
  24  13  50  254.45   63.55
  24  14 -47  262.88  124.01
  24  14 -41   22.15   71.55
  24  14  -8  867.52  146.38
  24  14   1   48.73  119.95
  24  14   7  650.85  179.30
  24  14  10  491.20  127.85
  24  14  16  256.58   79.26
  24  14  22  449.14  101.11
  24  14  25  976.59  150.02
  24  14  37  235.34   75.25
  24  14  40   69.46   63.93
  24  14  49  175.46   62.59
  24  14  55    6.93   73.97
  24  15 -27  927.52  173.82
  24  15 -18   62.06  117.43
  24  15 -15  169.72  196.83
  24  15 -12   25.50  104.94
  24  15  -6  102.77   85.49
  24  15  -3   64.30  107.07
  24  15   0  854.81  266.84
  24  15   6  108.09   56.80
  24  15  45   68.67   57.59
  24  15  48   11.66   76.43
  24  15  54  124.15  159.68
  24  16 -49   65.95   90.33
  24  16 -43    3.41  111.44
  24  16 -40    0.37  124.52
  24  16 -37   53.95  106.19
  24  16 -19  108.82   90.15
  24  16 -13  515.93  163.29
  24  16 -10  362.37  123.15
  24  16  -7  707.76  118.86
  24  16  -4  329.92  128.41
  24  16  -1   89.75   86.73
  24  16   8  260.49  122.18
  24  16  20  321.30   78.56
  24  16  26  158.44   89.51
  24  16  29   10.99   70.18
  24  16  35   87.41   54.06
  24  17 -26   10.65   91.27
  24  17 -20  420.19  111.42
  24  17 -17  146.90  132.44
  24  17 -14  443.54  118.59
  24  17  13  201.63   68.79
  24  17  22  805.15  135.56
  24  17  25  131.28   80.12
  24  17  31  541.22  130.88
  24  17  40   37.93   71.48
  24  17  46   72.39   84.08
  24  17  49  541.22  143.00
  24  18 -48   78.35   99.39
  24  18 -45  426.15  176.85
  24  18 -39   12.43   81.48
  24  18 -27   10.24  112.08
  24  18   0  257.90   89.51
  24  18  12  101.79   96.89
  24  18  42  186.77   81.33
  24  19 -46  164.20  131.03
  24  19 -43   89.87  135.61
  24  19 -37  100.39   88.38
  24  19 -34  297.10  131.82
  24  19 -31  139.25  100.45
  24  19 -28  417.41  170.71
  24  19 -25   67.93  131.61
  24  19 -22  250.67  121.28
  24  19 -19  487.98  105.71
  24  19 -16  426.84  158.23
  24  19   2  218.83  228.66
  24  19   5  216.73  202.51
  24  19  11  272.11  145.56
  24  19  14    0.00   74.23
  24  19  17  463.73  133.57
  24  19  23  129.12   79.22
  24  19  38   49.61  108.71
  24  19  44  412.07  125.28
  24  19  47    2.41   85.04
  24  20 -38    7.38  117.30
  24  20 -26   28.34   90.86
  24  20 -14   52.29  120.86
  24  20  -2  557.92  166.71
  24  20  13  123.75  107.62
  24  21 -27   51.41   79.13
  24  21 -18    1.06  145.53
  24  21 -15   96.78   94.62
  24  21  -9   49.50   80.06
  24  21  -6  911.38  219.20
  24  21  -3  217.87  185.83
  24  21   0  409.98  362.97
  24  21   9  205.53  289.13
  24  21  12   20.58   61.35
  24  21  15  123.10   91.77
  24  21  18  120.29  155.07
  24  21  36  537.92   72.46
  24  22 -40   11.85  117.72
  24  22 -31   50.52  100.08
  24  22 -16  264.39  177.98
  24  22 -10  257.51  162.74
  24  22  35   93.68  117.70
  24  23 -35   58.35  144.80
  24  23 -32   86.25  118.33
  24  23 -14  685.92  153.45
  24  23  -2   63.36  152.86
  24  23   7  268.64  294.57
  24  23  19  141.73  111.49
  24  23  37  162.21  160.84
  24  24 -27   11.40  204.68
  24  24 -24  102.99  109.56
  24  24 -18  262.87  163.16
  24  24 -12  141.99   88.36
  24  24  -9   58.86  256.25
  24  24  12   64.93  114.55
  24  24  24   19.44  122.10
  24  25 -31  329.73  302.20
  24  25 -22  642.69  250.53
  24  25 -19    0.01  159.68
  24  25 -16  246.96  182.45
  24  25 -13  522.47  128.73
  24  25  -7  262.54  162.59
  24  25  -4   78.86  121.11
  24  25   8   50.83  202.34
  24  25  14  153.38  112.69
  24  25  20  381.80  186.43
  24  26  -2  524.54  171.92
  24  26   1   20.04   82.87
  24  26  25   56.34   72.18
  24  27 -12    0.20  109.23
  24  27  -9   47.84  129.40
  24  27  -3  160.00   89.85
  24  27   0  303.65  159.73
  24  27   6  154.82  215.04
  24  27  12   42.30  150.11
  24  27  15  178.20  171.88
  24  28  -7  230.90   74.67
  24  28  -4  169.50  113.93
  25   1 -60    1.52   86.21
  25   1 -57  125.31   75.28
  25   1 -48   26.78   50.89
  25   1 -36  513.91  113.90
  25   1 -27  236.93  122.16
  25   1 -21  586.96   85.43
  25   1 -12  494.99   62.82
  25   1  -6  911.85  117.09
  25   1  -3  185.10   51.06
  25   1   0  925.70   72.30
  25   1   3 1469.47  212.31
  25   1   6  693.25   54.21
  25   1  12  210.67   43.02
  25   1  18   10.23   27.59
  25   1  21   52.45   41.69
  25   1  24   69.43   86.61
  25   1  33  418.15  103.90
  25   1  36  244.44  113.87
  25   2 -64   14.72   67.36
  25   2 -52  130.88   58.99
  25   2 -49  108.70   71.48
  25   2 -46  199.44   54.60
  25   2 -43  626.26   96.20
  25   2 -31 1327.54  143.44
  25   2 -28   25.40   57.24
  25   2 -25  563.21  101.58
  25   2 -16  155.39  100.18
  25   2 -10   73.15   69.96
  25   2  -4 3592.03  309.05
  25   2  -1   60.92   27.04
  25   2   2  367.63   38.23
  25   2   5  754.89   98.66
  25   2  11  295.46   53.82
  25   2  14 1085.42  122.54
  25   2  20 2090.63  159.01
  25   2  23  249.58  147.80
  25   2  26 1295.98  176.51
  25   2  32  846.44  123.84
  25   2  35  176.02   92.15
  25   2  44  121.54   82.85
  25   2  50  277.00   67.33
  25   2  65  277.63   91.95
  25   3 -65    3.26   55.28
  25   3 -62  143.73   64.95
  25   3 -56   82.99  107.63
  25   3 -50   72.44   63.52
  25   3 -44  294.45   83.25
  25   3 -41   78.94   85.60
  25   3 -38   44.37   84.48
  25   3 -32  388.06   80.26
  25   3 -29   25.37   65.23
  25   3 -17    0.16   80.95
  25   3 -14  608.03  218.41
  25   3  -8  488.75   57.55
  25   3  -5 1585.05  142.09
  25   3   1  293.49   66.42
  25   3   7   65.78   29.57
  25   3  13 1797.91  125.94
  25   3  16  255.66   40.77
  25   3  19  262.64  104.59
  25   3  22 3883.87  509.87
  25   3  28  171.42  160.43
  25   3  31   37.43   86.64
  25   3  34  293.43  135.46
  25   3  40  501.60   63.38
  25   3  46  573.89  131.02
  25   3  55  199.97   72.00
  25   3  61  117.58   97.02
  25   4 -60   96.79   57.19
  25   4 -57    4.92   58.14
  25   4 -51    2.01  106.53
  25   4 -48  194.59  100.50
  25   4 -30 1062.03  187.49
  25   4 -27 1460.66  232.72
  25   4 -24  204.84  111.04
  25   4 -12 1618.84  230.74
  25   4  -9  803.21  154.59
  25   4  -6  268.21   61.97
  25   4  -3  358.18   95.63
  25   4   0    9.23   51.05
  25   4   3  215.87   53.52
  25   4   6  383.44  122.27
  25   4   9  392.09   45.02
  25   4  12  199.72   44.32
  25   4  18  974.38   98.67
  25   4  21  102.71   40.85
  25   4  24  800.53  124.02
  25   4  27  105.28   58.15
  25   4  33  216.98  126.54
  25   4  36 2111.12  275.59
  25   4  45  100.61   84.40
  25   4  51   96.62   92.56
  25   4  60   56.51  118.79
  25   5 -58   83.99  119.04
  25   5 -43 1112.51  124.49
  25   5 -40   59.82   74.43
  25   5 -37  542.26  180.22
  25   5 -31  510.98  107.18
  25   5 -25  327.20  101.50
  25   5 -22  398.02   85.68
  25   5  -4   11.52   42.59
  25   5  -1   29.14   45.49
  25   5   2 2884.32  153.45
  25   5   5  163.18   43.24
  25   5   8  600.68   83.09
  25   5  11  587.84  115.26
  25   5  14   24.65   44.15
  25   5  17  878.25  129.12
  25   5  20   54.13   46.62
  25   5  23  758.28   82.32
  25   5  26  812.23  146.13
  25   5  32  262.36  127.89
  25   5  35  702.42   86.91
  25   5  41  341.72   85.48
  25   5  50  183.03  131.20
  25   5  62   94.09  197.49
  25   6 -53   79.02  106.94
  25   6 -50  184.72  166.27
  25   6 -41  211.23   87.15
  25   6 -32  909.09  245.42
  25   6 -23  201.61   93.86
  25   6 -14  118.43   55.30
  25   6  -2  944.48  165.32
  25   6   7  156.97   40.27
  25   6  10  401.45   61.39
  25   6  13   45.37   57.35
  25   6  16  134.20   61.19
  25   6  19  761.63  105.23
  25   6  22  315.18   82.48
  25   6  25  333.19   82.90
  25   6  28  132.05   55.18
  25   6  34 1253.21  216.15
  25   6  40  112.47   88.59
  25   6  49   44.08   64.27
  25   6  58    9.58   97.37
  25   6  61   37.50   97.39
  25   7 -57    0.95   88.86
  25   7 -42  646.73  227.29
  25   7 -36   27.82   80.74
  25   7 -24 1918.84  359.65
  25   7 -18  647.00  121.35
  25   7 -15  344.46  168.10
  25   7 -12  456.58   91.14
  25   7  -9  853.50  179.36
  25   7  -6  929.61  168.31
  25   7  -3  796.47  211.48
  25   7   0  806.24  151.65
  25   7   3  478.97   71.77
  25   7   6  772.31  138.32
  25   7  12  995.48  114.82
  25   7  18 1681.69  143.12
  25   7  21 1637.93  192.91
  25   7  27 2234.59  188.96
  25   7  30    9.32   72.17
  25   7  33  235.03   71.80
  25   7  36  305.06   56.14
  25   7  39   92.28   65.39
  25   7  42  105.38   88.85
  25   7  45  555.89  103.37
  25   8 -55    9.16   59.47
  25   8 -46   14.34   85.58
  25   8 -37  449.75  154.48
  25   8 -34  139.26  119.14
  25   8 -28 1575.58  273.34
  25   8 -25  400.53  109.31
  25   8 -22 1643.58  207.93
  25   8 -13   56.53   73.12
  25   8  -4 1131.00  190.81
  25   8  -1  617.74  115.57
  25   8   2  542.27  168.03
  25   8  14 1811.41  122.33
  25   8  17  189.10   57.19
  25   8  20  617.34   91.61
  25   8  23 1298.81  132.37
  25   8  26  484.30   91.07
  25   8  41    4.26   70.86
  25   8  53  282.56  108.40
  25   8  59  166.09  112.26
  25   8  62  253.05  105.00
  25   9 -59   43.62   63.52
  25   9 -56    9.83  102.08
  25   9 -50   30.87  103.59
  25   9 -47   88.86   94.07
  25   9 -41  176.04  187.05
  25   9 -32  285.45  110.14
  25   9 -23 1141.81  223.86
  25   9 -20   23.01  126.01
  25   9 -17  341.34  147.77
  25   9 -14  314.59  174.79
  25   9 -11  118.96   97.58
  25   9  -5  707.61  145.00
  25   9  -2  530.27  174.52
  25   9   1  623.51   79.93
  25   9   4 2383.89  258.82
  25   9   7  943.17  144.74
  25   9  10  364.21   74.95
  25   9  13  157.40   54.20
  25   9  22 1226.58  133.89
  25   9  25  484.42  208.90
  25   9  31  104.97   66.81
  25   9  37    0.75   56.26
  25   9  40   38.10   73.93
  25   9  43  290.30   80.01
  25   9  46  309.52  117.39
  25   9  55  135.77   64.06
  25   9  61  151.86  106.87
  25  10 -60   19.05  128.55
  25  10 -42  210.22  117.91
  25  10 -27  719.46  218.48
  25  10 -24 1304.25  289.38
  25  10 -21  472.33  122.05
  25  10 -18 1380.32  186.45
  25  10 -15  181.33   88.89
  25  10  -6 1148.28  160.54
  25  10   3  184.17   93.01
  25  10   9  202.07  109.56
  25  10  21  121.13   92.17
  25  10  24  560.16  102.45
  25  10  30   35.86   63.14
  25  10  42    0.00   46.99
  25  10  45  108.31   46.77
  25  10  51  291.15  136.36
  25  10  57  193.53  110.27
  25  11 -55    7.98   89.98
  25  11 -46  169.57  137.72
  25  11 -40   42.88  192.57
  25  11 -28  488.75  206.42
  25  11 -22  275.06  194.83
  25  11  -7 1454.35  209.54
  25  11  -1  586.29  247.55
  25  11   5  187.38  223.69
  25  11   8   64.57   59.00
  25  11  11   49.48   52.79
  25  11  17  361.22   98.21
  25  11  26  569.21  217.96
  25  11  29  220.16   83.62
  25  11  35  171.00   69.69
  25  11  38   16.44   46.07
  25  11  47   58.83   75.66
  25  11  50  175.80   68.92
  25  12 -53   37.99  133.76
  25  12 -50  110.85   61.95
  25  12 -47  169.70  166.44
  25  12 -35   70.93   90.51
  25  12 -29  335.95  110.36
  25  12 -23  118.54   67.64
  25  12 -20  668.54  229.27
  25  12 -14   73.64  176.22
  25  12 -11  599.53  133.73
  25  12  -8  420.98  114.29
  25  12  -5  242.70  128.88
  25  12  -2 1233.75  180.16
  25  12   1 1083.95  181.55
  25  12   7  305.60  110.18
  25  12  10  525.47  105.65
  25  12  13  787.85  174.63
  25  12  22  470.06  112.18
  25  12  25  454.55  156.09
  25  12  37    0.94   48.32
  25  12  49  131.02   50.14
  25  13 -54  120.98  100.07
  25  13 -39  186.12  128.76
  25  13 -36    6.41   70.59
  25  13 -30  122.79  159.97
  25  13 -27   82.22   72.40
  25  13  -6   91.32  106.19
  25  13  -3  717.70  159.28
  25  13   3  384.88  131.44
  25  13  12  379.23   91.02
  25  13  15  345.80   89.47
  25  13  18  217.89  131.00
  25  13  21  178.18   89.04
  25  13  24  342.55  159.53
  25  13  27   53.76   90.31
  25  13  30  122.15   90.81
  25  13  39   65.93   75.81
  25  14 -46   64.92  108.08
  25  14 -34  209.04   72.47
  25  14 -31   99.48  185.21
  25  14 -28  901.19  150.48
  25  14 -25  647.63  315.15
  25  14 -13  487.55  205.91
  25  14  -7   71.49   84.26
  25  14  -4  641.68  172.54
  25  14  -1  176.72   85.72
  25  14   2  468.32  212.58
  25  14   8  770.35  129.09
  25  14  11  368.60   87.55
  25  14  17   96.13   87.81
  25  14  29   31.58   68.04
  25  14  32   17.39   64.47
  25  14  50  252.19   94.01
  25  15 -50   21.37   97.24
  25  15 -47   89.01   96.76
  25  15 -44  236.32  103.13
  25  15 -41   54.16  140.83
  25  15 -32  467.78  140.40
  25  15 -29   54.80  129.41
  25  15 -23 1190.11  245.77
  25  15 -17  879.45  146.71
  25  15  -8   90.71  104.23
  25  15  -5   53.30  148.96
  25  15  13  182.64   63.02
  25  15  19  280.37  147.26
  25  15  28  143.11   77.45
  25  15  31  226.41   76.26
  25  15  34    2.13   73.93
  25  15  40   33.91   78.24
  25  15  43  115.91   81.60
  25  15  46  181.54   73.64
  25  16 -51    9.01  128.53
  25  16 -45   28.76  147.46
  25  16 -42  183.61  267.46
  25  16 -30  187.23  182.79
  25  16 -21  765.18  169.94
  25  16 -12    0.01   90.02
  25  16  -9  145.85   84.31
  25  16  -3   53.04   82.03
  25  16   0  185.28  157.82
  25  16   3   73.37   88.01
  25  16   6 1565.99  299.03
  25  16  18  200.44  123.07
  25  16  33  351.70  116.71
  25  16  42  114.18   89.81
  25  16  51  216.33  201.06
  25  17 -49  235.08   91.96
  25  17 -37   48.39   93.30
  25  17 -19  190.57   89.85
  25  17  -4   61.53   85.84
  25  17   2  324.12  147.36
  25  17   5  147.88  129.70
  25  17  20   50.48  122.15
  25  17  32   72.55   77.40
  25  17  47  143.11   99.42
  25  18 -44   23.78  108.39
  25  18 -35   33.21  107.16
  25  18 -20   23.46   92.47
  25  18 -17  139.69   97.93
  25  18   7  132.41   92.23
  25  18  37   49.68   67.83
  25  18  40  128.01   92.18
  25  18  43   76.69  100.76
  25  19 -33  264.22  113.18
  25  19 -18  331.71  160.05
  25  19 -12  574.21  174.55
  25  19  -6  401.86  159.37
  25  19   0  192.99  195.32
  25  19   3   68.35  128.05
  25  19   9  769.92  148.17
  25  19  15   11.69  103.09
  25  19  21   75.15  100.53
  25  19  24  341.10  233.51
  25  19  45  101.95   82.42
  25  20 -40   71.41   82.75
  25  20 -31  169.08  114.51
  25  20 -16  167.92  158.67
  25  20 -13  340.55  121.21
  25  20 -10  155.11  196.10
  25  20  -7  288.82  148.48
  25  20   2   86.05  144.42
  25  20  11  154.69  161.80
  25  20  26  279.43  255.72
  25  20  35  281.79  107.17
  25  21 -38   10.97   81.65
  25  21 -35   79.49   73.61
  25  21 -32  316.48  102.48
  25  21 -14  168.11  134.90
  25  21   1  117.50   96.45
  25  21  16   15.15  130.87
  25  21  19   73.35   86.79
  25  21  25  117.90  100.34
  25  21  28   83.37  150.21
  25  21  31  157.07  114.27
  25  22 -33   68.45  118.20
  25  22 -30   76.45  206.58
  25  22 -24  445.10  176.78
  25  22 -18  212.16  167.10
  25  22 -15  487.98  135.12
  25  22   0  183.91  141.20
  25  22   6  210.89  172.98
  25  22   9   37.21  301.59
  25  22  12  222.60  103.62
  25  22  21   65.57   84.61
  25  22  30  248.60  101.90
  25  22  36   76.90   75.84
  25  23 -34    0.20  130.73
  25  23 -16  144.87  186.33
  25  23 -10  152.27  111.92
  25  23  -1  119.95  143.99
  25  23  14  127.30  145.53
  25  23  29  285.31   96.80
  25  23  32  171.21  162.52
  25  24 -14  105.47  139.59
  25  24 -11  265.39  149.64
  25  24  -8   73.42  218.25
  25  24   1   23.70  123.46
  25  24  10  380.13  175.08
  25  24  22  133.28   83.71
  25  24  25  234.31  126.69
  25  24  31   24.34  125.53
  25  25 -27  292.44  456.51
  25  25 -24  385.11  237.08
  25  25 -12   20.58  138.38
  25  25  -6   60.80  111.55
  25  26 -16   37.28  129.38
  25  26  -7   40.64  158.20
  25  26  20   45.51  104.86
  25  27 -14  355.47  133.15
  25  27  -2   89.15  113.73
  26   1 -59    2.07   63.04
  26   1 -56  203.43   67.00
  26   1 -47  163.02   65.35
  26   1 -44  188.74  108.33
  26   1 -35  646.35  219.28
  26   1 -29   44.11   59.76
  26   1 -26  467.28  158.79
  26   1 -23   98.87  118.90
  26   1 -14 1006.06  161.58
  26   1 -11  421.51  109.36
  26   1  -8 1308.16  142.91
  26   1  -5  279.97   47.12
  26   1  -2 1287.92  177.99
  26   1   1 2017.54  238.46
  26   1   7  241.19   64.67
  26   1  10  144.75   69.83
  26   1  13 1019.35   65.27
  26   1  19  109.44   59.51
  26   1  22 2155.20  231.07
  26   1  25 1086.88  154.95
  26   1  37   81.30   76.14
  26   1  40   31.00   81.04
  26   2 -66   96.26   70.79
  26   2 -60   43.07   67.45
  26   2 -54   86.70   71.46
  26   2 -51  167.91   57.47
  26   2 -48  489.07   56.70
  26   2 -42  668.08  117.19
  26   2 -33  261.19  149.60
  26   2 -30  900.58  120.14
  26   2 -24  211.35  114.95
  26   2 -21  240.73  119.71
  26   2 -12  318.40  112.35
  26   2  -6   95.61   53.82
  26   2  -3  321.25   46.05
  26   2   0 1122.28  123.21
  26   2   3  644.64   80.95
  26   2   6 1473.41  103.41
  26   2   9 1348.76  189.74
  26   2  12 1369.65  114.40
  26   2  15   90.76   58.52
  26   2  18  242.95  115.15
  26   2  21  553.22  106.64
  26   2  24  311.22   81.37
  26   2  27  173.28  108.93
  26   2  30 2152.35  154.02
  26   2  48   40.89  130.96
  26   2  54   46.39   64.95
  26   2  57  265.85   49.22
  26   2  63  183.72  150.16
  26   2  66  163.74   93.00
  26   3 -61  222.97   76.13
  26   3 -58  293.63   63.64
  26   3 -52   44.45   69.52
  26   3 -46  164.26   50.12
  26   3 -43  130.00   50.56
  26   3 -34  154.34   84.20
  26   3 -31  156.53   94.32
  26   3 -28  709.99   95.31
  26   3 -19  226.00  126.51
  26   3 -16  236.40   46.74
  26   3 -13  343.96   75.01
  26   3 -10  170.18   62.08
  26   3  -1 3878.61  429.74
  26   3   2   71.11   71.76
  26   3   5  229.45  114.69
  26   3   8 1671.30  147.22
  26   3  14   23.22   24.19
  26   3  17  535.93   73.09
  26   3  26  865.86  162.63
  26   3  32   66.30   70.00
  26   3  35 1096.96  182.41
  26   3  44   11.66   68.93
  26   3  56  141.18   63.77
  26   3  59   12.61   54.51
  26   4 -59    0.06   89.00
  26   4 -56   82.22   82.14
  26   4 -47  372.86   65.01
  26   4 -44  319.31   63.11
  26   4 -41  696.41  174.32
  26   4 -32  414.71  109.91
  26   4 -23 1929.25  242.93
  26   4 -20  194.40  174.22
  26   4 -17   36.75   97.87
  26   4 -14 1065.92  205.68
  26   4 -11 1327.10  126.06
  26   4  -2  684.22  130.33
  26   4   1  158.24   65.43
  26   4   4 1267.42  148.09
  26   4   7  979.94   86.98
  26   4  10  338.33   71.51
  26   4  13  297.06   48.25
  26   4  16 1003.29  110.22
  26   4  19  204.83  128.71
  26   4  22  482.39  131.58
  26   4  25   71.54   64.48
  26   4  28  177.15  105.74
  26   4  34  674.03  127.51
  26   4  58  586.74  120.91
  26   4  61   15.65  147.75
  26   5 -60   23.59   86.45
  26   5 -57  103.97  173.13
  26   5 -54  119.64   72.17
  26   5 -51  282.69   70.97
  26   5 -48  248.02   86.66
  26   5 -42   36.87  103.75
  26   5 -36  613.04  108.68
  26   5 -30  475.02  130.05
  26   5 -27  336.12  222.30
  26   5 -24  194.50  222.60
  26   5 -21  928.08  142.85
  26   5 -15  760.74  157.81
  26   5 -12 1982.28  224.69
  26   5   0  349.19   77.87
  26   5   3  767.77  118.90
  26   5   6   74.85   78.47
  26   5  12  370.76   58.99
  26   5  15 1180.19  132.15
  26   5  42    0.01   90.31
  26   5  45   50.47   90.31
  26   5  60   31.70   59.68
  26   6 -58   46.73   69.41
  26   6 -49   25.32  112.11
  26   6 -37   90.17   49.98
  26   6 -31  205.40  122.62
  26   6 -28   11.06  106.84
  26   6 -25 2518.76  250.62
  26   6 -22 2215.94  229.72
  26   6 -19  696.81  232.93
  26   6 -13  351.71  155.26
  26   6 -10 1413.42  250.39
  26   6  -4  285.88  118.27
  26   6   2  991.11  114.81
  26   6   5 1269.48  123.38
  26   6  11  671.89  128.84
  26   6  14 1164.06  207.26
  26   6  17   19.88   40.09
  26   6  26  851.24  137.25
  26   6  29  269.01   62.05
  26   6  32  178.31   68.64
  26   6  38   80.29   66.96
  26   6  47   80.81   50.65
  26   6  50    5.67   72.70
  26   6  53  160.90   67.17
  26   6  59   62.32   75.74
  26   7 -59   61.10   71.81
  26   7 -56  167.97  106.30
  26   7 -23  602.79  191.59
  26   7 -11  944.13  311.05
  26   7  -8  483.50  206.37
  26   7  -5  423.06  133.02
  26   7  -2 1149.93  142.24
  26   7   1  897.93  116.57
  26   7  10  726.32  103.21
  26   7  13  186.88   81.55
  26   7  16  267.02  100.93
  26   7  22  126.98   55.02
  26   7  31  105.76   73.91
  26   7  34  395.70   88.51
  26   7  37  137.64   91.79
  26   7  40   72.56   45.97
  26   7  43   65.57   92.77
  26   8 -57    0.69   86.35
  26   8 -54    5.79  105.46
  26   8 -45  185.85  132.25
  26   8 -36  235.33  133.08
  26   8 -33  196.22  109.33
  26   8 -27  561.74  115.14
  26   8 -18  834.33  392.36
  26   8 -15  776.98  129.11
  26   8 -12 1431.81  220.19
  26   8  -9  590.82  101.58
  26   8  12  474.54  100.57
  26   8  15  581.32  100.39
  26   8  21  622.53  130.14
  26   8  24  184.59   52.96
  26   8  27   92.03   72.66
  26   8  33  178.48   47.99
  26   8  36  146.10   77.67
  26   8  39   97.45   97.35
  26   8  42  213.92   65.03
  26   8  48   77.37   99.27
  26   8  51   14.13   77.36
  26   8  57    2.09  111.55
  26   9 -55   52.92  104.71
  26   9 -49    1.87   69.81
  26   9 -46  168.54   85.98
  26   9 -40  984.67  232.12
  26   9 -37  671.94  144.99
  26   9 -34  438.70  119.33
  26   9 -28  603.83  158.29
  26   9 -22   99.51  152.09
  26   9 -19   49.54   58.50
  26   9 -16 1064.79  178.05
  26   9  -4  472.62  146.87
  26   9   2  359.17  154.71
  26   9   8  399.04   76.25
  26   9  17   40.45   43.82
  26   9  20  606.38   94.37
  26   9  23   60.82   87.88
  26   9  26   90.11   77.40
  26   9  32  270.43   71.55
  26   9  35  178.35   52.83
  26   9  56  333.48  104.48
  26   9  59   36.88   81.07
  26  10 -56   55.49  145.83
  26  10 -53    4.22   79.91
  26  10 -32 1589.56  253.38
  26  10 -29  102.80   93.51
  26  10 -23  329.04  137.27
  26  10 -20  995.18  219.59
  26  10 -17  116.43   83.84
  26  10 -14   90.81  100.72
  26  10 -11  342.95  118.38
  26  10  -8  196.24   71.12
  26  10   1  152.51  161.45
  26  10   4  511.60  109.99
  26  10  13  209.63  157.78
  26  10  16  162.33  108.71
  26  10  19  108.06   79.88
  26  10  25  381.26   94.67
  26  10  34   28.06   76.97
  26  10  37   60.27   63.11
  26  10  40  137.20   91.53
  26  10  52  182.82   84.85
  26  10  58   74.14   90.92
  26  11 -54    0.20  124.91
  26  11 -51   53.05  127.05
  26  11 -24  364.88  180.75
  26  11 -21   19.23  143.54
  26  11 -18  233.40  134.84
  26  11 -12   80.56   77.69
  26  11  -9    9.20  103.12
  26  11  -6   79.82  101.50
  26  11   0  485.96  110.35
  26  11   9 1120.74  188.29
  26  11  12  690.66  244.10
  26  11  15  582.04  137.75
  26  11  21    6.65   68.69
  26  11  24  154.47   78.05
  26  11  27  218.44   65.75
  26  11  30  122.52   82.01
  26  11  36   69.98  105.43
  26  11  39  187.29  109.17
  26  11  51  189.66   69.90
  26  12 -52   37.23  132.13
  26  12 -37   12.65   98.21
  26  12 -31  199.73  125.09
  26  12 -22  336.14  138.88
  26  12 -13  138.92   95.48
  26  12  -7  198.82   80.00
  26  12  -4  120.71  137.16
  26  12   2  386.06   97.50
  26  12   5  210.62  172.32
  26  12  26   35.40  106.44
  26  12  47  131.76   59.80
  26  13 -47  137.47   95.96
  26  13 -32  116.25  216.53
  26  13 -20  283.13  160.26
  26  13 -14   14.65  106.67
  26  13  -8  371.59  100.27
  26  13  -5  612.91  117.64
  26  13   7  339.69  109.35
  26  13  10  516.59   82.43
  26  13  28   13.71   88.19
  26  13  34   16.23   78.03
  26  13  46   18.34  121.45
  26  14 -45  337.75  126.46
  26  14 -36  717.51  139.49
  26  14 -33  427.90   95.45
  26  14 -24  308.12  132.86
  26  14 -21  664.52  188.27
  26  14 -18  358.81  181.01
  26  14 -15   76.32   67.94
  26  14 -12  201.75  101.40
  26  14  -9  471.48  130.48
  26  14  -6  246.86  102.56
  26  14   3  331.79  100.82
  26  14   6  130.83   79.50
  26  14  12  267.38   78.47
  26  14  21   49.34   64.17
  26  14  24    3.32   60.15
  26  14  33  109.13   79.41
  26  15 -46    2.16   85.03
  26  15 -43   40.43   96.29
  26  15 -40   54.27   75.11
  26  15 -31  382.19   91.30
  26  15 -28  326.65   81.05
  26  15 -25  411.06  113.32
  26  15 -16  200.19  102.92
  26  15 -10  555.21   97.45
  26  15  -7  796.40  187.19
  26  15  -1  366.40   78.06
  26  15  11   76.56   93.59
  26  15  14   98.24   81.64
  26  15  20  102.71   94.34
  26  15  23  235.56   76.59
  26  15  35  252.50  125.74
  26  15  41   17.74   78.44
  26  16 -32    3.57  110.99
  26  16 -20  926.07  121.62
  26  16 -11  616.53   87.78
  26  16  -8   70.93   96.48
  26  16  -2   12.73  112.67
  26  16   7  577.58  155.85
  26  16  10  405.31   59.95
  26  16  19  183.05   83.40
  26  16  25  132.27  105.99
  26  16  28  644.33  119.33
  26  16  34  600.53  116.99
  26  16  40    0.03   71.53
  26  17 -39    0.44  101.78
  26  17 -36   29.39   86.56
  26  17 -33  196.10  114.91
  26  17 -27   53.50  111.58
  26  17 -24  192.41   87.68
  26  17 -18  266.18  135.06
  26  17 -15  204.46   86.11
  26  17 -12  607.90  102.51
  26  17  -6  269.78   96.23
  26  17  15  267.53  177.34
  26  17  21    7.35   98.56
  26  17  24  336.44   74.78
  26  17  36   54.17   57.71
  26  17  42  264.08  140.67
  26  18 -40   33.63  138.24
  26  18 -37    1.38  111.73
  26  18  -7   40.57   63.46
  26  18   8   11.53  100.14
  26  18  14  514.70  121.12
  26  18  17   78.08  123.04
  26  18  20   38.90  126.18
  26  18  23  114.02   93.43
  26  18  26  222.94   60.71
  26  18  32   94.62  128.72
  26  18  35   17.00   78.78
  26  19 -35    3.30  212.74
  26  19 -29  721.40  121.91
  26  19  -8   43.76   99.81
  26  19  -5   59.67   92.70
  26  19   7    4.24   58.88
  26  19  10  233.70  102.83
  26  19  28  255.86  121.85
  26  20 -39  129.12   60.88
  26  20 -18   17.50  122.71
  26  20 -15  142.22  118.23
  26  20 -12   65.58   79.34
  26  20  -9  434.26  234.27
  26  20  27  106.33  122.60
  26  21 -34    7.18   80.02
  26  21 -31  136.76  124.48
  26  21 -16  342.42  192.69
  26  21 -10  224.69  171.78
  26  21  29   27.12  118.10
  26  22 -29  346.51  145.58
  26  22 -20  155.73  141.41
  26  22 -14   66.80  148.15
  26  22  -8  780.50  182.54
  26  22   1  324.61  127.94
  26  22  16   75.67  124.75
  26  22  19  494.17  220.43
  26  22  28  184.77  109.37
  26  23 -24  647.89  170.03
  26  23 -21  284.13  140.64
  26  23 -12   17.95  148.29
  26  23  21  445.08  192.41
  26  23  24   38.46  106.10
  26  24 -25   35.05  127.63
  26  24 -22  294.78  174.52
  26  24 -13   46.83  188.34
  26  24  -4  170.54  215.65
  26  24  17  329.53  131.77
  26  24  23  212.08  127.51
  26  24  26    0.55   91.78
  26  25 -17  101.36  138.60
  26  25  16  140.05  147.07
  26  25  19    2.91  101.54
  26  26 -15    0.43  171.40
  26  26 -12  158.01  139.10
  26  26  -9  466.57  131.35
  26  27   5  116.61  277.23
  27   1 -64  276.12   69.07
  27   1 -52    9.40   63.89
  27   1 -49   23.76   68.71
  27   1 -46  532.87  130.82
  27   1 -43  387.11  114.23
  27   1 -40  587.99   79.52
  27   1 -37  790.90  259.46
  27   1 -34    0.41   71.31
  27   1 -25  420.36  237.41
  27   1 -22  359.16   74.22
  27   1 -19  152.54  192.96
  27   1 -13  728.36  202.62
  27   1 -10 2651.23  214.19
  27   1  -7  535.04  105.88
  27   1  -1 1331.07  144.51
  27   1   2  417.28   49.92
  27   1   5 1242.82  154.51
  27   1   8 1367.47  199.64
  27   1  11  477.91   71.48
  27   1  14 1535.59  139.90
  27   1  17 2894.50  341.47
  27   1  20  243.97  115.88
  27   1  26   12.18   52.02
  27   1  29  383.81  134.91
  27   1  35   21.86  125.94
  27   1  38  312.18   67.86
  27   1  41   72.35   78.34
  27   1  44   37.58   72.47
  27   1  53  296.32   71.42
  27   1  56  281.30   82.48
  27   1  65  201.71  220.37
  27   2 -62   13.44  154.08
  27   2 -44  138.34   85.13
  27   2 -38  264.84  154.30
  27   2 -29  103.01   82.91
  27   2 -26  595.55  159.75
  27   2 -17  165.40   82.33
  27   2 -14  778.53  113.18
  27   2 -11  774.66  115.94
  27   2  -5   24.01   90.16
  27   2   1 2191.29  188.44
  27   2   4   56.05   27.05
  27   2   7   99.50   22.04
  27   2  13 2561.19  149.35
  27   2  16  187.38   56.02
  27   2  19  300.26   70.02
  27   2  22   81.16   63.63
  27   2  25  418.79  115.62
  27   2  28  296.80   53.71
  27   2  43  185.28  124.27
  27   2  52   78.16  103.07
  27   2  61   68.38   83.24
  27   3 -57   30.68   95.79
  27   3 -51   59.78   56.31
  27   3 -45  292.13   43.94
  27   3 -33  427.86  145.44
  27   3 -30  276.79  107.30
  27   3 -27  119.55   99.61
  27   3 -21   30.34  135.22
  27   3 -18  191.60  102.03
  27   3 -15  547.42  128.41
  27   3 -12  190.82  136.19
  27   3  -9  178.47   56.29
  27   3  -6  425.25   80.05
  27   3   0  150.55   56.73
  27   3   3  120.63   75.24
  27   3   6 1004.96  122.59
  27   3  12  193.72   61.18
  27   3  21   60.10   62.49
  27   3  24 2122.26  222.64
  27   3  30   53.98   66.67
  27   3  33  836.34  142.95
  27   3  39  250.72   81.76
  27   3  42  425.91  146.85
  27   3  45   25.10   56.62
  27   3  51   77.97  101.69
  27   4 -55   26.49   75.88
  27   4 -52  252.55   68.93
  27   4 -43  153.29   69.59
  27   4 -40  341.87  115.51
  27   4 -37  119.88  183.56
  27   4 -25  443.22  117.61
  27   4  -4   20.15   43.32
  27   4  -1   25.08   53.23
  27   4   2  425.82   73.99
  27   4   5   71.57   62.27
  27   4   8  481.06  122.64
  27   4  11  222.58   41.80
  27   4  14  335.40   60.22
  27   4  20 1078.43  143.61
  27   4  23  509.79   80.86
  27   4  26  137.65   49.49
  27   4  29  307.72   60.61
  27   4  44   80.08   65.58
  27   4  59  198.91   82.88
  27   4  62  212.22  124.11
  27   5 -53   60.56   67.27
  27   5 -41   71.38  118.06
  27   5 -35  491.99  137.35
  27   5 -23 1002.11  233.88
  27   5 -17  505.18   99.12
  27   5 -11   83.12   89.28
  27   5  -2   82.45   49.41
  27   5   1    0.07   49.03
  27   5  13  175.40   38.55
  27   5  16  916.59  125.22
  27   5  19  297.95   51.02
  27   5  22   58.15   57.57
  27   5  25   78.36   72.17
  27   5  28  287.06   78.36
  27   5  34  907.17   88.14
  27   5  37   47.94   70.05
  27   5  40  326.02  128.95
  27   5  43  191.55   79.33
  27   5  46    0.03   76.25
  27   5  49  195.22  114.72
  27   5  55  281.63  144.75
  27   6 -48  126.95   80.74
  27   6 -42   23.99   88.23
  27   6 -39   54.25  110.46
  27   6 -36   89.88  112.69
  27   6 -33  566.61  140.71
  27   6 -21 1786.18  472.94
  27   6 -18  474.46  260.11
  27   6 -12  591.86  114.76
  27   6  -9 1032.52  226.49
  27   6  -6  511.43  135.94
  27   6   3  117.27   59.08
  27   6   6  559.27   77.60
  27   6   9   45.33   97.93
  27   6  12  188.27   64.86
  27   6  18  513.12   88.68
  27   6  24 1124.92  131.46
  27   6  30  476.89   95.64
  27   6  36   40.25  179.97
  27   6  39 1457.52  199.96
  27   6  42  551.34   77.36
  27   6  45    0.05   83.36
  27   6  54    0.22   59.76
  27   6  57  126.16  121.13
  27   6  60  106.54  177.52
  27   7 -55   66.60   68.52
  27   7 -46   53.64   75.64
  27   7 -40   10.53  103.09
  27   7 -34  127.83   89.42
  27   7 -31   70.48   79.46
  27   7 -16  473.42  115.94
  27   7   5   48.20   74.22
  27   7  11  255.37   64.98
  27   7  20  178.31   65.36
  27   7  26  148.31   60.41
  27   7  29  323.69  170.79
  27   7  32  344.80  102.91
  27   7  38  534.06   82.39
  27   7  50   28.39   67.73
  27   8 -53  148.49  119.35
  27   8 -35  688.52  190.19
  27   8 -32  364.03  136.98
  27   8 -20  444.91  104.40
  27   8 -14  622.75  148.39
  27   8  -5  127.93  124.04
  27   8  -2  335.60   90.84
  27   8   7   53.02   57.23
  27   8  10  375.55   60.12
  27   8  13  302.86   64.78
  27   8  16  824.11  143.03
  27   8  19  406.72   99.08
  27   8  25  832.11  108.19
  27   8  28  200.32   71.69
  27   8  31  619.34   72.62
  27   8  34   61.84   77.93
  27   8  37  155.88   57.72
  27   8  49   57.56   52.59
  27   8  55  152.05   83.87
  27   9 -57   50.64   83.11
  27   9 -48  109.36   65.44
  27   9 -39    2.56  158.29
  27   9 -36 1268.70  201.26
  27   9 -33  556.92  129.93
  27   9 -24 1211.33  257.63
  27   9 -15   84.19  125.33
  27   9  -9  220.36  137.75
  27   9  -6 1127.95  175.30
  27   9  -3  591.03   86.86
  27   9   6  857.43  163.05
  27   9   9   69.55   74.29
  27   9  12  437.56  130.11
  27   9  21  423.36   80.08
  27   9  24  331.60  189.85
  27   9  36   26.85   51.49
  27   9  39   57.71   88.90
  27   9  48  103.95   79.41
  27   9  51  114.70   76.86
  27  10 -52    1.94  127.42
  27  10 -40   14.22  100.00
  27  10 -37   38.75  107.14
  27  10 -28  979.10  194.30
  27  10 -22  692.67  178.74
  27  10 -19  192.09   88.13
  27  10 -13  229.20   78.13
  27  10  -7   43.29   89.78
  27  10  -4  221.31  133.32
  27  10   5  461.33   71.24
  27  10   8  246.13  108.23
  27  10  14  169.60  162.99
  27  10  20   25.58   48.25
  27  10  23 1262.17  243.98
  27  10  26   52.40  117.81
  27  10  38  227.20   53.57
  27  10  41  176.77  100.56
  27  10  50  292.03   73.50
  27  11 -44   94.78  285.60
  27  11 -41   47.41  112.92
  27  11 -17  500.54   76.88
  27  11  -8  134.36   87.58
  27  11   1  202.65   96.19
  27  11   4  176.65   93.50
  27  11   7  328.99   87.71
  27  11  10 1555.56  240.68
  27  11  13   28.36   97.70
  27  11  16  148.90   85.47
  27  11  19 1419.49  113.41
  27  11  22  407.70   76.68
  27  11  28   54.96   88.46
  27  11  31  443.49  116.74
  27  11  37    1.30   88.55
  27  11  40   48.03   90.06
  27  11  43   38.49  122.83
  27  12 -48  106.04  138.56
  27  12 -45   16.65  227.21
  27  12 -27  269.38  108.30
  27  12 -24  190.64   89.06
  27  12 -21  443.07  114.99
  27  12 -18  409.01   94.69
  27  12 -15  899.15  243.01
  27  12 -12  107.93  106.36
  27  12  -6  226.63  153.43
  27  12   3   73.28   65.23
  27  12   6  528.65  119.68
  27  12   9  370.55   97.18
  27  12  15  667.99  161.80
  27  12  18  928.82  198.40
  27  12  27   99.03   65.39
  27  12  39   83.61   72.43
  27  12  42   10.63   84.62
  27  12  48  114.51  118.29
  27  13 -46   51.37  127.35
  27  13 -40    2.43   56.10
  27  13 -34  111.80  109.94
  27  13 -31   57.66  126.18
  27  13 -19  191.82  160.36
  27  13  -1  716.29  286.12
  27  13  14  190.32   98.79
  27  13  20  114.25  123.26
  27  13  29  270.26   72.25
  27  13  32  237.37  100.76
  27  13  35  244.68   77.95
  27  13  44  318.53  143.95
  27  14 -50   75.73  115.42
  27  14 -38   20.30  132.18
  27  14 -35    7.99  134.48
  27  14 -17  390.02  137.63
  27  14   4  398.40   98.62
  27  14   7  371.00  310.86
  27  14  10  335.15  159.98
  27  14  16  155.16   68.24
  27  14  19   77.33   99.13
  27  14  28   38.20  145.59
  27  14  31  356.17   62.47
  27  14  37  131.10   79.12
  27  14  40  126.90   74.53
  27  14  46  298.92  106.26
  27  15 -39  110.52   88.06
  27  15 -18  607.67  110.62
  27  15  -6  312.55   91.33
  27  15   3  258.10  111.58
  27  15   9   98.29  103.41
  27  15  12  343.91  127.84
  27  15  21  332.13   84.99
  27  15  27  242.13   64.27
  27  15  30   51.61   78.18
  27  15  39    2.20   85.36
  27  15  42   43.76   90.24
  27  15  45   79.52  125.31
  27  16 -28  551.41  130.79
  27  16  -7  561.34  131.08
  27  16  11  186.13   70.66
  27  16  14  200.13   76.32
  27  16  20   74.47   72.16
  27  16  23  139.63  101.21
  27  16  26  193.93   65.03
  27  16  32  146.89   93.50
  27  16  35   90.16   94.51
  27  16  38   44.13   94.08
  27  17 -41  197.95   79.15
  27  17 -29  113.28   88.37
  27  17 -20  302.22  106.35
  27  17 -14  107.38   96.69
  27  17  -8   37.18   83.79
  27  17  -5  502.31  123.21
  27  17  -2  390.92  197.20
  27  17   4  121.68   87.55
  27  17   7  149.57  176.38
  27  17  16  589.42  133.90
  27  17  19  114.01   68.52
  27  17  31  126.31   56.89
  27  17  40   91.45  157.09
  27  17  43   53.92  130.12
  27  18 -33    2.79  157.88
  27  18 -27  282.64  115.98
  27  18 -21    1.07   93.43
  27  18 -18  192.08  122.55
  27  18 -12   13.99   71.03
  27  18   0  317.54  117.50
  27  18   6  541.43  140.75
  27  18  21  101.83  128.58
  27  18  24  121.33  177.64
  27  18  33   15.12   87.96
  27  19 -34    0.39   91.90
  27  19 -31   10.65   71.86
  27  19 -25  156.39  174.24
  27  19 -19    3.62  101.19
  27  19  -7  196.31  137.88
  27  19  17    8.68   85.32
  27  19  20  225.26  120.98
  27  19  23  412.27  127.27
  27  19  26   69.43  126.34
  27  19  29    2.21  106.17
  27  19  32   82.69  142.27
  27  19  38   97.28  103.62
  27  20 -29   75.73   90.75
  27  20  -8  206.67  130.12
  27  20  -2  190.55  145.81
  27  20  10  124.31  152.57
  27  20  13   44.65   90.12
  27  20  16   43.86  156.24
  27  20  19   89.67  104.56
  27  21 -33  158.55  320.21
  27  21 -30  179.92  144.31
  27  21 -15  101.74  137.71
  27  21  -3  198.35  127.08
  27  22 -25  102.97  124.06
  27  22 -19  196.01  204.09
  27  22 -13  196.40  155.14
  27  22 -10   89.44  233.17
  27  22  -7   55.81  103.86
  27  22   8   64.25  185.09
  27  22  20  268.25   96.61
  27  22  26  149.83  268.07
  27  23 -20  291.70  249.63
  27  23  -5  212.38  205.02
  27  23  -2  153.54   98.01
  27  23  10  167.94  208.90
  27  23  13   82.48   96.25
  27  23  19   10.81  100.46
  27  23  25    3.70   98.17
  27  24 -21  154.50  214.53
  27  24 -18  192.77  113.07
  27  24 -15   37.36  124.77
  27  24   0    2.85  135.62
  27  24   9   16.93  212.71
  27  24  21  192.30  204.94
  27  25 -16   21.12  149.71
  27  25 -13  127.78  182.66
  27  25  14   27.01  108.18
  27  26  -5  169.16  171.66
  28   1 -54   18.58   45.09
  28   1 -39  341.10   90.87
  28   1 -33   45.07   63.09
  28   1 -18  610.46  132.28
  28   1  -6  159.12   53.31
  28   1   0  811.63  137.10
  28   1   3  156.29   69.51
  28   1   6  206.98   23.69
  28   1   9  317.89   67.41
  28   1  12  854.67  135.42
  28   1  15 2434.89  269.37
  28   1  21  270.64   98.76
  28   1  24  938.17  214.36
  28   1  30    2.65   54.20
  28   1  42  520.77   94.53
  28   1  45  233.07  188.13
  28   1  48  169.83  139.46
  28   1  63   87.99  178.20
  28   2 -55   53.29   56.85
  28   2 -49    7.03   66.85
  28   2 -37  268.94  179.65
  28   2 -28  491.40  128.87
  28   2 -25  559.63  167.59
  28   2 -13  863.40  265.05
  28   2  -4  369.60   76.83
  28   2   5  435.95   58.06
  28   2   8   66.26   31.59
  28   2  11  698.26   57.48
  28   2  14 2808.38  246.11
  28   2  17  890.80  111.38
  28   2  23 2009.92  152.47
  28   2  26  617.18   79.54
  28   2  35  476.52  109.16
  28   2  44    0.29   59.66
  28   2  47   53.01   98.13
  28   2  50  346.55  109.75
  28   3 -62  115.67   87.08
  28   3 -47   51.28   38.81
  28   3 -38  194.98  190.92
  28   3 -29  403.52   77.91
  28   3 -17  191.00   82.75
  28   3 -14  723.30  111.78
  28   3  -8 1209.83  229.35
  28   3  -2  254.13  101.88
  28   3   1   49.60   73.75
  28   3   4  119.73   51.46
  28   3   7  264.27   81.42
  28   3  10  494.73  103.45
  28   3  13  741.14  128.98
  28   3  16  385.43   73.00
  28   3  19  281.88   51.73
  28   3  22  905.76  111.36
  28   3  25  422.20  113.91
  28   3  28  145.60   72.33
  28   3  40  285.35   72.84
  28   3  43   78.23   84.22
  28   3  52   96.70  141.58
  28   3  61   17.46   76.50
  28   4 -57  161.97  114.56
  28   4 -39  119.88  132.06
  28   4 -33  397.88  117.12
  28   4 -24   27.88   86.94
  28   4 -21  128.82  100.18
  28   4   9  303.10   59.13
  28   4  15  514.59  108.48
  28   4  18 1463.67  165.60
  28   4  24   69.21   68.17
  28   4  27   37.47   64.73
  28   4  33  905.75  218.00
  28   4  39    2.26   90.20
  28   4  48   65.02  102.76
  28   4  60  135.49   99.35
  28   5 -43  701.75  110.96
  28   5 -28  151.00  101.05
  28   5 -22   80.88   77.83
  28   5 -19 1315.40  352.88
  28   5 -16  421.98  102.94
  28   5 -13  497.15  164.38
  28   5 -10  513.71  147.29
  28   5  -4  364.00  185.02
  28   5  -1    1.33   73.17
  28   5   2  314.39  120.87
  28   5   8  384.71  126.41
  28   5  11  178.60   46.26
  28   5  14  388.28   64.24
  28   5  20  506.40  101.98
  28   5  23   31.76   47.54
  28   5  26  273.37   85.13
  28   5  32  309.04   68.27
  28   5  35  609.51   72.43
  28   5  44  110.93   85.44
  28   5  56  113.24  114.17
  28   5  59  104.07   53.50
  28   6 -59   17.61  102.02
  28   6 -56  107.08   93.68
  28   6 -29  686.80  203.25
  28   6 -26 1282.51  179.31
  28   6 -17  253.70  113.43
  28   6 -14 1466.50  283.93
  28   6 -11  260.67   86.78
  28   6  -5  205.98  102.08
  28   6  -2  827.45  156.73
  28   6   4  755.26  126.90
  28   6   7  179.36   96.13
  28   6  10  227.39   59.22
  28   6  16  378.86   85.83
  28   6  19 1285.31  188.92
  28   6  22  533.90  121.28
  28   6  28  983.96  178.66
  28   6  31  219.55   67.42
  28   6  34  134.39   71.14
  28   6  49   80.45   62.67
  28   6  52  189.70  110.58
  28   6  55  132.84  104.25
  28   6  58   71.43  192.55
  28   7 -45   51.95  104.54
  28   7 -42    3.48  105.10
  28   7 -27  927.75  169.35
  28   7 -24  522.51  151.79
  28   7 -21  765.43  165.67
  28   7 -12  422.00   93.03
  28   7   0  218.35  101.24
  28   7   3  717.89  115.15
  28   7   6  779.89  176.98
  28   7   9    0.41   59.80
  28   7  12   28.67   53.33
  28   7  15  838.38   88.88
  28   7  18  300.89  100.41
  28   7  21  592.99   71.87
  28   7  24   23.31   65.55
  28   7  30  605.67  101.35
  28   7  33   54.30   74.68
  28   7  36  131.15   70.46
  28   7  42  413.22   79.23
  28   7  45  108.46  136.76
  28   7  48    2.74   80.81
  28   7  54   29.12   61.85
  28   8 -52  161.02   93.49
  28   8 -43  495.12  115.30
  28   8 -28  187.02  185.20
  28   8 -25  482.11  153.08
  28   8 -19  290.39  187.37
  28   8 -13  719.20  262.16
  28   8   2  801.39  227.39
  28   8   8   86.08   69.87
  28   8  14  149.67   90.59
  28   8  17  242.88   65.19
  28   8  26  163.86   84.91
  28   8  32  207.85   60.63
  28   8  35  779.60  129.30
  28   8  38  153.10   71.36
  28   8  50  164.80  123.98
  28   8  56  129.23   97.77
  28   9 -47   98.19  129.28
  28   9 -44  102.75  183.48
  28   9 -41  213.12  155.15
  28   9 -35  291.67  110.74
  28   9 -29  719.28  202.12
  28   9 -23  250.32  180.43
  28   9  -2  155.10  184.59
  28   9  10  104.14   58.34
  28   9  13   99.76   83.55
  28   9  16  176.76   65.21
  28   9  19  136.67   67.25
  28   9  25  202.54   90.74
  28   9  31  184.57   82.80
  28   9  52  290.70  140.16
  28   9  55  135.06  207.92
  28  10 -54    0.12   46.90
  28  10 -42   65.18  152.81
  28  10 -27  121.22  121.01
  28  10 -21  160.77   92.87
  28  10 -18    5.87   59.80
  28  10 -15  765.25  122.83
  28  10  -9  140.75  103.74
  28  10  -6  200.13   93.79
  28  10  -3  173.24  117.15
  28  10   6  367.31  258.87
  28  10  12   53.40  107.75
  28  10  15  336.82   84.13
  28  10  18  239.84   79.13
  28  10  21  125.59   90.68
  28  10  24  302.96   98.86
  28  10  27  304.50   75.13
  28  10  39  126.81   79.57
  28  11 -28   15.51  160.61
  28  11 -25 1048.77  184.56
  28  11 -22  128.93  175.00
  28  11 -16  396.10  143.23
  28  11 -13  143.90   86.12
  28  11  -7  181.41   99.46
  28  11  -1  294.41  111.74
  28  11   5  131.29  101.02
  28  11   8   49.72  124.70
  28  11  11  608.64   76.71
  28  11  14  639.59   99.41
  28  11  17   64.47  122.88
  28  11  26  391.51  121.16
  28  11  29   87.39   68.41
  28  11  32   24.20   59.06
  28  11  41   32.19  121.02
  28  11  44  254.70  262.05
  28  11  50  331.60  120.37
  28  12 -50  114.75  112.62
  28  12 -29  294.52   81.44
  28  12 -23  544.63  135.30
  28  12 -20    8.52   92.71
  28  12 -14  108.07   89.48
  28  12  -8  153.52  191.12
  28  12  -5  217.64  164.30
  28  12   1  774.66  165.22
  28  12  10  322.53  103.25
  28  12  22  350.54   89.11
  28  12  28   75.32  167.95
  28  12  31  130.48   57.72
  28  12  37  171.59   80.88
  28  12  43  144.08  110.97
  28  13 -42  126.73  142.65
  28  13 -36  483.02  100.36
  28  13 -27  137.39  107.14
  28  13 -18   24.04  100.31
  28  13 -12  115.76   82.11
  28  13  -6  113.98  125.57
  28  13  -3  205.36  150.36
  28  13   9   51.04   98.72
  28  13  27  125.15   78.37
  28  14 -46  349.84  217.28
  28  14 -40  407.90  121.85
  28  14 -37   43.24   77.30
  28  14 -31  159.98   95.01
  28  14 -13  169.82  112.45
  28  14  -7  190.05  119.17
  28  14  -1   74.30  200.31
  28  14   2  527.16  172.22
  28  14  14  176.31  106.24
  28  14  17  107.02  122.80
  28  14  23   38.78   73.48
  28  14  26  286.68  104.22
  28  14  29   80.03   61.08
  28  15 -41  141.79  164.78
  28  15 -38   34.07  104.46
  28  15 -20  127.81  152.97
  28  15 -14  492.82  152.32
  28  15  -8   59.96  100.02
  28  15   7  347.16   98.28
  28  15  10   39.46   70.37
  28  15  22  117.72  102.36
  28  15  25    9.63   58.47
  28  15  28   34.10   70.40
  28  15  31   53.54  123.89
  28  16 -42  136.18   91.41
  28  16 -33  137.35  187.17
  28  16 -24   19.14  139.12
  28  16 -21  168.27  148.02
  28  16  -6  131.43  108.97
  28  16  -3  117.34  139.27
  28  16  15  258.60  109.23
  28  16  18   17.02  129.99
  28  16  24  568.83   92.59
  28  16  27  106.87   75.05
  28  16  30   55.42  163.56
  28  17 -34  173.46  140.50
  28  17 -16  292.17  144.59
  28  17 -10   18.75  113.17
  28  17   2  146.25  130.28
  28  17  11   24.99  134.24
  28  17  17   41.48   98.44
  28  17  23   82.17  109.41
  28  17  32  100.27  127.62
  28  18 -29   10.48   79.50
  28  18 -23   36.97   98.42
  28  18 -17    9.10  109.06
  28  18 -14   33.36  114.75
  28  18  -5  156.25   90.56
  28  18  -2  528.83   80.07
  28  18  22   57.27   91.54
  28  19 -33  366.70  123.25
  28  19 -21  251.13   85.07
  28  19  -9   33.93  103.02
  28  19   0  243.92  312.65
  28  19   3  170.57  213.56
  28  19  12  280.89  192.62
  28  19  15   88.21  114.01
  28  19  18  165.39   96.30
  28  20 -25  491.65  315.01
  28  20 -16  172.92  145.76
  28  20  -7  135.82  194.99
  28  20  -4   67.46  137.12
  28  20  14  165.05  123.41
  28  20  20   50.85  113.62
  28  20  23  144.02  139.52
  28  20  32   95.41  215.55
  28  21 -29   46.20  331.88
  28  21 -26   94.94  206.16
  28  21 -20  259.94  142.14
  28  21  13  515.38  202.36
  28  22 -15  217.44   97.56
  28  22 -12  121.29  158.23
  28  22  -9   12.00  105.77
  28  22  -3  275.09  137.66
  28  22   3  205.40  148.52
  28  22   9  124.20  226.77
  28  22  21   39.51  214.66
  28  23 -22  267.50  185.52
  28  23 -10  245.44  184.53
  28  25  -3  115.75  144.28
  28  25   0   29.47   95.85
  29   1 -59  294.62   97.07
  29   1 -56   83.60  133.81
  29   1 -47   77.80   59.17
  29   1 -41  428.12   86.93
  29   1 -32  137.12   84.40
  29   1 -29  772.42  213.73
  29   1 -26  862.28  135.72
  29   1 -20  553.20  132.93
  29   1 -14  701.10  224.08
  29   1 -11  261.44  107.19
  29   1  -8  202.80  163.60
  29   1  -5 1618.30  218.10
  29   1  -2 2950.91  253.59
  29   1   1  931.49  126.98
  29   1   4  109.22   69.20
  29   1   7 2530.17  188.55
  29   1  10  531.49  128.99
  29   1  13  311.33  100.71
  29   1  16  628.37   67.18
  29   1  25  415.00   70.80
  29   1  28   30.47   49.07
  29   1  31  272.97   58.45
  29   1  34  843.38  112.54
  29   1  40   80.83   83.72
  29   1  46  148.75   83.39
  29   1  52   43.75  123.99
  29   1  58  114.55   80.67
  29   1  61  203.45   92.28
  29   2 -54  261.14   75.03
  29   2 -42  542.72   59.84
  29   2 -36  590.86  133.88
  29   2 -24  313.56  110.68
  29   2 -21  268.29  181.08
  29   2 -15 1296.02  315.01
  29   2 -12 2130.16  258.83
  29   2  -9 1681.28  348.27
  29   2  -6  443.36  129.13
  29   2  -3  261.29   66.34
  29   2   6   42.79   26.42
  29   2  12  347.72   66.53
  29   2  18  631.58   95.72
  29   2  24  159.12   75.83
  29   2  27  286.01   73.50
  29   2  30  273.98  110.30
  29   2  33  145.64   69.40
  29   2  36    5.81   43.64
  29   2  39   59.22   63.98
  29   2  45   24.60  100.43
  29   3 -52  149.60   87.70
  29   3 -43   33.33  122.23
  29   3 -34  414.86   89.09
  29   3 -31  126.81  120.75
  29   3 -19  235.22  115.07
  29   3 -16  167.56   89.71
  29   3 -13  768.23  279.28
  29   3  -4  804.98  121.82
  29   3   2  280.57   72.50
  29   3   5  235.76  103.64
  29   3  11  323.78  176.75
  29   3  14  471.76   81.60
  29   3  23 1820.46  135.83
  29   3  26   22.69   59.42
  29   3  32  382.35   76.91
  29   3  38    7.24   55.18
  29   3  41  343.44   92.02
  29   3  53   38.03   66.14
  29   4 -59   79.23   64.91
  29   4 -56  137.03   91.64
  29   4 -53   10.81   73.52
  29   4 -50   57.96  103.26
  29   4 -38  308.75  146.26
  29   4 -26  326.26  113.60
  29   4 -20  125.67  103.35
  29   4 -17 2715.00  338.82
  29   4 -14  126.83  105.89
  29   4  -2  381.71   99.85
  29   4   4  121.46   69.16
  29   4  13  415.63   99.43
  29   4  19  533.98   67.05
  29   4  22   67.75   77.69
  29   4  25  451.89  225.28
  29   4  31  293.43   71.07
  29   4  37  101.50   60.59
  29   4  55   25.16   91.57
  29   5 -54    8.18   71.58
  29   5 -36  414.97  133.17
  29   5 -30 2214.36  397.56
  29   5 -24  134.50  121.57
  29   5 -21  366.79  149.26
  29   5 -18  648.44  143.16
  29   5  -9    8.95   59.33
  29   5  -6  293.45  110.15
  29   5   0  844.00  134.36
  29   5   3  122.24   71.70
  29   5   9  716.31  207.97
  29   5  12   35.13   66.89
  29   5  39   20.11   99.57
  29   5  45   18.91   77.42
  29   5  48  102.15   90.39
  29   5  54  162.82   73.71
  29   5  57   33.53   89.19
  29   6 -55   56.96   80.08
  29   6 -34  677.44  162.28
  29   6 -25 1074.23  130.95
  29   6 -16  605.41  234.88
  29   6  -7  166.02   88.34
  29   6  -4   59.86  102.32
  29   6  -1  272.61   76.19
  29   6   5  221.60   74.89
  29   6   8  208.43   70.30
  29   6  11    1.45   55.13
  29   6  17    0.41   52.04
  29   6  23  168.80   81.84
  29   6  26   68.86  107.11
  29   6  29   27.98   49.18
  29   6  35  486.95   76.97
  29   6  56  116.65   69.66
  29   7 -53    1.38   96.25
  29   7 -44  290.47  113.57
  29   7 -32  237.94  105.09
  29   7 -26  118.42  113.64
  29   7 -23  285.09  102.02
  29   7 -20  283.04  143.69
  29   7 -17  559.68  155.02
  29   7  -8  318.80  112.38
  29   7  -5  512.19   84.38
  29   7  -2  633.98  128.75
  29   7   7  125.71   82.37
  29   7  10   43.33   81.25
  29   7  16  138.76   62.15
  29   7  19   19.12   76.75
  29   7  22  417.80   91.49
  29   7  31  133.29  111.07
  29   7  34    7.10   93.98
  29   7  40   68.44  119.90
  29   8 -48   82.67   66.83
  29   8 -45    0.98   70.00
  29   8 -39  740.90  289.52
  29   8 -33  653.20  162.06
  29   8 -30  197.23  150.97
  29   8 -27  234.47   97.95
  29   8 -21  144.02  116.71
  29   8 -18  406.69  249.09
  29   8 -15  327.58  209.04
  29   8  -9  242.54  148.16
  29   8   3  698.01   99.90
  29   8   6  302.65   72.75
  29   8  12  655.01  253.10
  29   8  18  904.35  120.29
  29   8  21  233.16  123.83
  29   8  24   25.62   90.29
  29   8  27   75.99   88.84
  29   8  30  109.97   94.18
  29   8  36  425.32  142.95
  29   8  39  490.25  181.42
  29   8  42   25.38   99.53
  29   8  51   91.13   97.76
  29   8  54  136.48  115.50
  29   9 -49  208.46  202.47
  29   9 -46    3.91  119.59
  29   9 -37  196.81  150.93
  29   9 -28  132.23  228.91
  29   9 -25  479.67  118.58
  29   9 -13  340.89  214.70
  29   9 -10  206.41   97.08
  29   9  -7   22.74  100.30
  29   9  -4  247.03  108.98
  29   9   2   51.38   89.08
  29   9   8  557.21  199.26
  29   9  11  728.64  190.43
  29   9  14 1242.17  104.83
  29   9  17  403.51   98.61
  29   9  23  223.78  101.25
  29   9  26  651.90   86.84
  29   9  32  123.19  105.81
  29   9  41   92.55   94.77
  29   9  50  138.97  128.48
  29  10 -44   97.61  143.66
  29  10 -41   76.36  165.20
  29  10 -11  863.01  132.69
  29  10   4  356.27  118.33
  29  10  16   29.98   93.14
  29  10  19   32.07   74.62
  29  10  22  466.38   73.57
  29  10  25  460.53   91.41
  29  10  28    3.97   60.27
  29  10  34  256.83  130.41
  29  10  52  428.89  116.96
  29  11 -51   75.59  151.06
  29  11 -48  109.59   78.50
  29  11 -39    1.64  103.76
  29  11 -27  125.15  107.49
  29  11 -21   49.72  116.04
  29  11  -9   72.12  118.11
  29  11  -6  597.66  224.70
  29  11  -3  177.79  140.49
  29  11   0   60.82   91.58
  29  11   9  271.85   76.42
  29  11  15  220.31   95.50
  29  11  18  347.41   80.38
  29  11  21   73.27   69.04
  29  11  27   14.09   85.18
  29  11  33   48.29  114.27
  29  11  36  226.74  105.98
  29  11  45   16.23  127.22
  29  12 -49  167.99  269.01
  29  12 -46   27.42  126.59
  29  12 -37  351.92   72.45
  29  12 -28   54.65   65.13
  29  12 -19  168.50  131.71
  29  12  -7  144.67  117.66
  29  12  -1  338.97   81.88
  29  12  11  104.33   60.05
  29  12  14  255.48   85.51
  29  12  17   63.78  123.30
  29  12  23   27.82   62.75
  29  13 -41   68.37   72.29
  29  13 -38    5.79  111.54
  29  13 -35   14.83  101.70
  29  13 -32  310.96  165.43
  29  13 -29  170.78  165.41
  29  13 -26  137.85  118.25
  29  13 -23    0.36  110.30
  29  13 -20   16.43  180.98
  29  13 -17  784.73  120.05
  29  13 -14  213.59   75.63
  29  13 -11   74.35   74.20
  29  13  -2  461.04  108.72
  29  13   1  177.26  144.09
  29  13   4  193.63   89.35
  29  13   7   92.89  170.61
  29  13  16  107.58  110.54
  29  13  22  165.55  106.11
  29  13  25  119.10   65.81
  29  13  31   28.00   68.00
  29  13  37  574.56  134.25
  29  13  43   42.64  110.20
  29  14 -33   30.49   60.86
  29  14 -27   13.10  211.59
  29  14 -12  130.89  109.41
  29  14   3   89.19  111.94
  29  14   6  474.25  147.86
  29  14  21  128.04   61.69
  29  14  24  105.72   72.62
  29  14  30  197.67   81.97
  29  14  33  121.24   98.23
  29  14  45  146.54  174.06
  29  15 -37  138.68  176.68
  29  15 -34   25.21   73.00
  29  15 -31   72.38   85.63
  29  15 -25   22.09  108.38
  29  15 -19   58.33  118.20
  29  15 -16  331.67  125.55
  29  15 -13  166.15  101.35
  29  15  -4  115.68  135.03
  29  15   2  379.44  183.23
  29  15   5  450.39  135.38
  29  15  17   78.19  106.40
  29  15  20  196.38   76.73
  29  15  23   57.61  145.09
  29  15  26   72.17  196.51
  29  15  32   61.36  111.40
  29  15  35   69.28  193.37
  29  15  44    0.54   67.26
  29  16 -29    0.84  158.59
  29  16 -20  464.77  126.06
  29  16 -17  349.31  121.69
  29  16 -14  353.19  118.12
  29  16  34   35.99  141.11
  29  16  37  353.28  311.14
  29  16  40  182.20  115.92
  29  17 -39    5.58   94.17
  29  17 -33   71.45  140.58
  29  17 -30   39.40  164.47
  29  17 -21    5.00   81.68
  29  17 -15   90.73  112.91
  29  17  -9   83.64   96.58
  29  17  -3    6.96  183.40
  29  17   0   16.33   71.53
  29  17   3  110.97  107.67
  29  17   9   12.03   93.54
  29  17  18  383.18   84.11
  29  17  30  171.65  185.09
  29  17  36   92.10  121.51
  29  17  39   30.33  139.48
  29  18 -31   99.93   81.08
  29  18 -22   94.89  128.94
  29  18 -19  307.17   97.30
  29  18 -16   78.54   86.67
  29  18 -10  195.70  107.04
  29  18  11  105.31  193.74
  29  18  20   62.79  104.58
  29  18  29    0.41  128.86
  29  18  32   21.19  133.19
  29  19 -32   38.62   66.97
  29  19 -14  212.76  139.71
  29  19 -11   81.47  109.74
  29  19  -8   43.37  191.96
  29  20 -12    0.12   92.71
  29  20  -9  307.81   99.98
  29  20   6  304.92  127.15
  29  20  21  192.11  105.45
  29  20  24   50.28  141.35
  29  20  30   25.48   77.59
  29  21 -22  109.28  127.66
  29  21 -19   89.63  169.60
  29  21 -16  170.29  232.89
  29  21  -4   76.12  101.44
  29  21  20   23.40  193.40
  29  22 -11  117.85  148.56
  29  22  -2   10.20   95.40
  29  22  22  232.07  185.56
  29  23 -15  306.93   75.55
  29  23  -6  273.15  121.12
  29  23   6   42.51  186.71
  29  23  12  196.31  178.90
  30   1 -58   85.63   74.10
  30   1 -55   59.45  101.34
  30   1 -37  535.08  147.87
  30   1 -16  124.91   82.11
  30   1  -7  318.22  130.03
  30   1  -4  324.83   89.85
  30   1   2  337.01   79.05
  30   1   8  252.71  119.84
  30   1  11  291.78   52.15
  30   1  14  334.22   85.45
  30   1  29  160.82  170.42
  30   1  35  136.89   72.23
  30   1  44   11.64   75.48
  30   1  47   57.95  136.88
  30   1  50  254.76   89.44
  30   1  59  243.70  177.27
  30   2 -53   95.39  118.76
  30   2 -41  154.59   88.90
  30   2 -38  416.04  114.46
  30   2 -35  101.61  169.80
  30   2 -32   75.40   68.11
  30   2 -29  335.01  215.48
  30   2 -26  195.91   79.40
  30   2 -23 1419.65  202.62
  30   2 -20  156.65  152.48
  30   2  -2  769.36  104.87
  30   2   1  321.27   86.04
  30   2   4  395.76   85.22
  30   2   7 1085.74  139.70
  30   2  10  614.93  171.30
  30   2  13   25.54   76.65
  30   2  19   72.04   48.11
  30   2  25  262.39   99.82
  30   2  28  185.36   62.37
  30   2  31  124.20   79.62
  30   2  34  254.44   63.25
  30   2  40  111.80   54.08
  30   2  43   10.88   81.61
  30   2  52  142.39  113.02
  30   2  55  169.51   79.89
  30   3 -48   39.85   95.29
  30   3 -39  165.16   92.66
  30   3 -36  483.47  204.25
  30   3 -30  213.96  116.78
  30   3 -27  319.98  141.87
  30   3 -24  595.78  244.26
  30   3 -18  137.65  101.08
  30   3 -15  200.85  118.97
  30   3  -9  234.32  108.42
  30   3   0  152.50   62.81
  30   3   3  115.79   72.63
  30   3   6 1379.55  147.52
  30   3   9  379.96   86.70
  30   3  12  128.69   59.73
  30   3  15 1699.97  209.01
  30   3  18  372.51   75.52
  30   3  21  155.71   79.92
  30   3  24  227.41   65.68
  30   3  30  125.04   55.81
  30   3  33  434.11   71.33
  30   3  39  311.75   80.69
  30   3  54   22.39   64.26
  30   4 -52   10.67   58.75
  30   4 -22  208.40  119.28
  30   4 -19   40.97   98.81
  30   4  -7  395.93  101.63
  30   4   2 1203.34  160.53
  30   4   8   76.78  101.61
  30   4  11 1454.64  149.98
  30   4  14  169.02   59.64
  30   4  17  318.17   87.35
  30   4  20   27.87   59.27
  30   4  23  297.47   77.14
  30   4  26  590.81   78.92
  30   4  29 1030.04  187.61
  30   4  32  155.30   67.79
  30   4  35  148.77  121.54
  30   4  41  166.98   74.28
  30   4  47  355.64   79.10
  30   4  56  237.29   56.81
  30   5 -56  102.37   75.47
  30   5 -35  541.28  150.62
  30   5 -26  423.86  112.19
  30   5 -23  176.97   79.29
  30   5 -20  500.49  111.30
  30   5  -8  355.74  119.63
  30   5   7  196.49   92.38
  30   5  10  285.70   88.83
  30   5  13  167.14   58.34
  30   5  19   79.22   72.50
  30   5  22  182.47   68.58
  30   5  31  111.46  110.08
  30   5  55  187.96  114.45
  30   6 -33  229.03  134.60
  30   6 -15  427.81   74.50
  30   6 -12   49.47   84.38
  30   6  -6  280.90  113.68
  30   6   0  256.91  117.89
  30   6   3  471.33  174.35
  30   6   9  146.97   63.27
  30   6  12    1.90   53.45
  30   6  15   92.91   60.96
  30   6  18   68.05   77.52
  30   6  21  142.60   86.96
  30   6  24  466.35  103.69
  30   6  30   87.32  175.34
  30   6  33  134.99   91.69
  30   6  36   47.58  132.15
  30   6  39   46.95  136.77
  30   6  42   35.25  146.24
  30   6  45    7.24  122.86
  30   7 -52  259.54  121.48
  30   7 -46   93.18   96.74
  30   7 -43    4.00  113.32
  30   7 -37   23.10  130.18
  30   7 -34   46.65  131.00
  30   7 -22  437.56  154.44
  30   7 -19  260.99  163.50
  30   7 -16  376.26  103.30
  30   7  -4  223.61   75.48
  30   7   2  457.22  112.30
  30   7   5 1297.35  225.58
  30   7  14 1421.03  210.93
  30   7  23  414.56  128.95
  30   7  35   84.40  116.15
  30   7  41   44.17   92.57
  30   7  47  177.19  141.36
  30   8 -35  112.04  149.79
  30   8 -26    1.98   97.02
  30   8 -20  487.14  197.50
  30   8 -17  103.69  125.98
  30   8  -8  139.80   80.15
  30   8  -5 1163.71  189.47
  30   8   7   96.21   81.10
  30   8  10  353.27  283.96
  30   8  13 1083.52  133.35
  30   8  22   67.01   79.43
  30   8  31   34.58   66.93
  30   8  52   72.22  224.88
  30   9 -33    0.33   71.12
  30   9  -9  395.18  176.01
  30   9  -6   59.84  144.93
  30   9  -3  164.15   84.00
  30   9   0  129.01  106.32
  30   9   9  154.91  127.56
  30   9  18  138.77   76.63
  30   9  24   66.54   66.96
  30   9  30  148.06  241.18
  30   9  42    4.21   76.33
  30   9  48   98.27   91.67
  30   9  51  272.33  122.67
  30  10 -49   23.05   61.55
  30  10 -46   57.71   99.73
  30  10 -43  188.24   97.07
  30  10 -37   84.69  111.70
  30  10 -34   35.07   88.99
  30  10 -28  429.18  117.19
  30  10 -25  452.10  101.40
  30  10 -10  215.17   97.78
  30  10  -4 1004.05  152.65
  30  10   5  245.53  210.63
  30  10  14  176.85  103.31
  30  10  17  163.75   78.07
  30  10  20   56.37  111.87
  30  10  23  289.19  101.48
  30  10  38  291.51   73.47
  30  10  41  173.52  101.04
  30  10  47  149.24  101.94
  30  10  50  107.46  113.66
  30  11 -47  197.45   54.24
  30  11 -38   40.72   75.46
  30  11 -32   59.89  132.14
  30  11 -11 1117.98  185.49
  30  11  -5  428.58   77.80
  30  11  -2  237.00  102.83
  30  11  10  164.57  152.18
  30  11  13  296.39  120.77
  30  11  19  319.97  143.22
  30  11  25   26.04  150.74
  30  11  37   78.19   73.53
  30  11  40    1.39   84.03
  30  11  46  256.34  185.40
  30  12 -33    0.27   74.61
  30  12 -30   77.53  118.31
  30  12 -21  384.92   94.10
  30  12 -18    8.11   92.04
  30  12 -15  257.69  154.60
  30  12  -6  962.60  136.03
  30  12  -3  179.64  139.87
  30  12   0   46.29  240.18
  30  12   9    0.89   76.48
  30  12  18  425.74  151.35
  30  12  21  740.70  127.35
  30  12  24    0.03   76.10
  30  12  27  212.24  102.23
  30  12  30    3.07   97.76
  30  12  39  303.71  119.87
  30  13 -40   72.56  119.59
  30  13 -37    5.12   97.52
  30  13 -28   67.21   84.75
  30  13 -25   78.64  115.99
  30  13 -19  291.58  111.74
  30  13 -13  346.75   82.28
  30  13  -4   59.23  139.25
  30  13  -1  221.83  119.29
  30  13  11  306.95  136.33
  30  13  23  170.23  118.42
  30  13  26  137.68   69.48
  30  13  38   41.99   91.04
  30  13  41   44.21  138.01
  30  14 -35   60.23  105.01
  30  14 -32   51.94  128.96
  30  14 -29  182.07  162.39
  30  14 -26  270.67   88.05
  30  14 -23   38.57   77.88
  30  14 -17   66.16  127.31
  30  14 -14   70.61  138.51
  30  14  -2  264.96  124.72
  30  14   4   19.04  141.36
  30  14   7   99.76  127.65
  30  14  16  528.91  186.77
  30  14  22  193.50   57.29
  30  14  31  610.74   78.71
  30  14  34   12.73  118.95
  30  14  37  176.48   97.51
  30  14  43  104.91   84.34
  30  15 -39  156.69  123.44
  30  15 -30  296.94   74.34
  30  15 -21   67.09  115.18
  30  15 -18   50.78  216.17
  30  15 -12   42.24  141.55
  30  15  -6  144.41  141.00
  30  15   9   69.76   80.72
  30  15  18  185.80  128.09
  30  15  27   70.59  154.12
  30  15  36   46.96   64.63
  30  16 -34  295.24   98.27
  30  16 -31   94.57  127.10
  30  16 -16  177.69   99.66
  30  16 -13  127.84  100.90
  30  16  -7  430.43  450.13
  30  16  -4  651.12   95.34
  30  16   2   38.17   72.03
  30  16  11  135.34  128.77
  30  16  32  114.28   73.68
  30  17 -26   60.91  186.53
  30  17  -8  587.42  186.29
  30  17  -5  202.36  134.38
  30  17  -2   34.29  115.87
  30  17  19  566.17  235.67
  30  17  31   81.80  126.22
  30  18 -24   81.31   88.67
  30  18 -21    1.15  120.63
  30  18 -18   69.87   94.45
  30  18 -15   35.16   97.30
  30  18   0  420.59  142.30
  30  18   3   93.23  149.15
  30  18  24   65.10  126.00
  30  18  30   28.17  116.84
  30  18  33   33.87   79.84
  30  19 -25  201.14  163.30
  30  19 -19  197.18  170.24
  30  19 -13   21.81  110.99
  30  19  -7  177.66   98.41
  30  19  23  518.37  371.13
  30  20 -26  251.55  210.44
  30  20 -14  159.20  128.82
  30  20  25  249.36  195.79
  30  21 -18  256.81  203.64
  30  21  18  651.54  364.27
  30  22  -7   12.61   96.16
  30  22   8  101.04   90.51
  31   1 -42   43.30   69.48
  31   1 -39  553.72  100.83
  31   1 -36    1.54   83.96
  31   1 -33  255.97   97.22
  31   1 -27  429.44  121.90
  31   1 -15  228.11   85.19
  31   1 -12  605.23  147.80
  31   1  -9  362.03   95.77
  31   1   0   76.51   68.29
  31   1   3  130.26  139.86
  31   1  12  609.60  161.73
  31   1  15  235.44   77.98
  31   1  18  368.06  101.69
  31   1  27  133.07  110.59
  31   1  30  378.19  156.15
  31   1  33   29.48  117.59
  31   1  39  246.97   65.39
  31   1  48   73.62   67.82
  31   1  57  355.06  104.67
  31   2 -34  230.05  154.39
  31   2 -28  257.76   95.85
  31   2 -25  229.99  136.51
  31   2 -22  831.52  326.67
  31   2 -19  418.80  162.40
  31   2 -16  353.13  146.72
  31   2  -1  220.60   66.92
  31   2   2 1136.01  135.50
  31   2   5  377.56   91.25
  31   2  14  131.14  111.32
  31   2  17  824.15  117.29
  31   2  20  503.90  104.66
  31   2  23  123.30  117.27
  31   2  29   17.55   90.23
  31   2  32   37.12   83.79
  31   2  35   61.31   61.03
  31   2  38  414.08   78.30
  31   2  50    0.02   68.18
  31   3 -56  185.06  105.10
  31   3 -50    3.12   63.01
  31   3 -38  119.43  106.30
  31   3 -20  428.99  183.61
  31   3 -17 1097.71  172.97
  31   3 -11  362.58  114.46
  31   3  -5  111.44  137.76
  31   3   1  285.96   90.29
  31   3   4   43.05   79.40
  31   3  10  413.28  134.10
  31   3  13  717.41  119.52
  31   3  25   11.48  167.38
  31   3  34   29.52   75.76
  31   3  37  299.16  110.94
  31   3  43   70.53   81.27
  31   3  49   17.58   78.74
  31   3  52  157.74  207.57
  31   3  55  175.37   72.57
  31   4 -54    1.96   69.83
  31   4 -51  155.20   83.82
  31   4 -45   28.49   66.32
  31   4 -39   72.85   88.22
  31   4 -27   19.34  124.50
  31   4 -24  766.02  140.73
  31   4 -21  175.96   72.72
  31   4 -15  423.37  194.80
  31   4 -12  242.14   62.31
  31   4  -9  571.30  126.76
  31   4  -6  999.25  219.22
  31   4   3   13.14  128.07
  31   4   6   82.48   65.59
  31   4   9  390.93  130.08
  31   4  18  747.77  110.77
  31   4  21  290.87   87.79
  31   4  27  212.70  341.75
  31   4  39    2.87  110.30
  31   5 -52   63.69   77.48
  31   5 -40    6.51  121.51
  31   5 -37  289.47  178.00
  31   5 -28  767.31  165.85
  31   5 -25  375.60  107.72
  31   5 -22  153.61  117.73
  31   5 -19  272.56  110.82
  31   5 -16    0.07  103.70
  31   5 -13  105.48  128.62
  31   5 -10  338.42  125.57
  31   5  -1   14.59  133.11
  31   5   2  140.12   78.46
  31   5   5  444.79  128.84
  31   5   8  840.28  134.18
  31   5  14   38.33   65.79
  31   5  20 1375.65  156.81
  31   5  26   48.73   95.99
  31   5  41    0.90   82.99
  31   5  47   52.93   73.34
  31   6 -53   63.83  153.89
  31   6 -50  154.25   69.28
  31   6 -35   54.32  115.95
  31   6 -26   77.00  100.38
  31   6 -14 1008.96  138.50
  31   6 -11 1327.71  273.12
  31   6  -5  145.49  139.49
  31   6  -2  641.15  107.57
  31   6  10    9.62   75.28
  31   6  13  121.49   87.66
  31   6  19  103.66   84.09
  31   6  25   46.71  169.31
  31   6  31  696.66  117.74
  31   6  34   81.51  170.22
  31   6  49    0.90  142.42
  31   7 -48    5.35  117.57
  31   7 -36   19.56  102.11
  31   7 -27   86.47  129.46
  31   7 -24   18.93  105.73
  31   7   6  183.54  109.53
  31   7  12    8.04   81.97
  31   7  15  249.87  155.64
  31   7  21   13.84   96.87
  31   7  27    1.58  116.27
  31   7  45   26.90   68.84
  31   8 -25  170.19  122.35
  31   8  -4   69.46   94.74
  31   8   2  141.16  122.12
  31   8   5  546.37   77.31
  31   8  11  484.02   98.93
  31   8  17  207.87   69.49
  31   8  23   66.22  142.01
  31   8  26  142.85  154.85
  31   8  29    8.85   86.69
  31   9 -47  107.36  174.08
  31   9 -41  165.03   86.38
  31   9 -35   68.82  127.74
  31   9 -32  129.61  152.06
  31   9 -29  441.39   76.46
  31   9 -26  553.34  153.29
  31   9 -20  146.32  150.03
  31   9   1   11.42  111.03
  31   9   7  126.37   68.50
  31   9  10  161.89   69.47
  31   9  13   47.41  113.97
  31   9  16  227.76  167.20
  31   9  25    0.83   78.92
  31   9  28  333.22  130.88
  31   9  31   19.62   88.31
  31   9  34  114.63  104.56
  31   9  40  123.77  131.16
  31   9  49  169.57  155.72
  31  10 -45   57.90  134.50
  31  10 -39  122.86   86.96
  31  10 -36  239.55  124.48
  31  10 -33  424.58  136.82
  31  10 -18   35.77  125.40
  31  10 -15   78.36  103.32
  31  10 -12  131.96  126.76
  31  10  -3   51.88  112.67
  31  10   3  102.84   82.75
  31  10  24  131.29  104.95
  31  10  27    9.49  118.04
  31  10  45  764.05  212.83
  31  11 -46  263.27  116.20
  31  11 -37   55.00  101.24
  31  11 -25  202.44  114.12
  31  11 -19  665.53  325.67
  31  11  -7   31.72   86.35
  31  11   5   68.06   83.95
  31  11   8   86.43  149.71
  31  11  11   90.92  153.26
  31  11  14   87.41   81.35
  31  11  20   17.33  170.65
  31  11  23   83.17  124.24
  31  11  29   29.30   90.15
  31  11  32   16.40   86.45
  31  11  41  187.23  127.90
  31  12 -29  211.37  144.81
  31  12 -20  141.54   97.47
  31  12 -17  104.12   91.08
  31  12  -8  102.54   92.88
  31  12   1   55.03  148.03
  31  12   4  672.06  175.54
  31  12  10 1004.01  259.04
  31  12  28   72.33  108.57
  31  13 -39   54.86  137.81
  31  13 -36  126.27   96.85
  31  13 -33   84.98  184.07
  31  13 -27  312.31  198.62
  31  13 -15  197.46  100.52
  31  13  -3  157.94  137.02
  31  13   6   67.59  121.89
  31  13   9  123.54   67.32
  31  13  24  352.27  103.50
  31  13  36   18.44   95.57
  31  14 -25  393.06   87.49
  31  14 -22  108.75  181.88
  31  14 -16  160.40  107.39
  31  14   8   15.09  220.54
  31  14  17  151.29  153.53
  31  14  20  390.85  149.92
  31  14  23  248.32  114.34
  31  14  26   64.42  115.36
  31  14  32   65.52  138.63
  31  14  38   75.08  122.34
  31  15 -32  138.15  107.61
  31  15 -26   99.50   92.25
  31  15 -23   94.96  110.83
  31  15 -20  121.18  121.57
  31  15  -8   90.88  119.39
  31  15  -2   40.14   96.85
  31  15   7  200.53   94.76
  31  15  16   86.75  132.05
  31  15  19  505.40  126.23
  31  15  22  120.34  198.41
  31  15  25  260.86  135.07
  31  15  37    0.25   88.93
  31  16 -30  239.83  188.83
  31  16 -18   39.54   73.03
  31  16  -9  287.94  160.33
  31  16   6   95.47  118.25
  31  16  12  408.54  315.48
  31  16  15  143.44  180.82
  31  16  18   37.08  193.02
  31  16  30  124.18  158.81
  31  17 -13  520.79  141.14
  31  17 -10  690.87  152.36
  31  17  -7   49.29  110.34
  31  17  -4   83.87   61.66
  31  17  17  103.49  135.91
  31  17  20   44.45  125.82
  31  17  26  306.53  233.29
  31  17  32    6.85  100.46
  31  18 -20  496.52   93.88
  31  18  -8  148.56  136.01
  31  18  -2  135.05   94.69
  31  18   7  445.67  342.81
  31  18  10  214.37  138.68
  31  19 -24  164.20  226.84
  31  19 -18  174.98  148.93
  31  19  12   77.03  154.84
  31  20 -16  235.54  156.10
  31  20  -4  536.27  256.01
  31  20   2   54.85  185.49
  31  20  11  260.66  133.04
  31  20  17   45.00  281.51
  31  21  -8  104.03  125.53
  31  21   7  103.23  158.19
  32   1 -50   12.16  119.88
  32   1 -47    6.39   86.94
  32   1 -32  157.44  176.64
  32   1 -26   95.18   87.22
  32   1 -20  137.40  133.36
  32   1 -17  412.28  176.70
  32   1 -14    1.33   86.01
  32   1  -8   51.85  104.84
  32   1  -5   93.42  110.97
  32   1  -2  180.59   60.23
  32   1   1  461.49  114.53
  32   1   7    1.20   89.04
  32   1  13  247.77  124.80
  32   1  16  111.33   94.61
  32   1  19   43.56   80.42
  32   1  28  111.99   50.81
  32   1  37   84.65   79.72
  32   1  43  181.71  141.85
  32   1  46   42.85   97.78
  32   1  49  241.98  111.42
  32   1  52    2.13   45.46
  32   1  55  149.48   61.34
  32   2 -48    4.76  117.49
  32   2 -45    2.27   67.60
  32   2 -42    2.13   81.28
  32   2 -33    0.02   90.70
  32   2 -27  497.26  106.98
  32   2 -18  556.31  123.52
  32   2 -15  131.34  152.51
  32   2 -12  105.91   78.12
  32   2  -6   44.18   84.56
  32   2  -3  344.45  152.60
  32   2   3  111.13   73.01
  32   2   9  306.19   68.99
  32   2  12   69.95   71.20
  32   2  15  155.12  102.30
  32   2  30   57.43  124.39
  32   2  39  190.57  145.26
  32   2  42  184.45   75.83
  32   2  51   72.93   53.90
  32   2  54   25.63   81.07
  32   3 -52   14.90   79.99
  32   3 -43  125.39   62.88
  32   3 -40  231.02  100.63
  32   3 -31   87.82   99.42
  32   3 -25  278.65  120.45
  32   3 -16   80.03  107.36
  32   3 -10  121.41  195.45
  32   3  -4  580.68  109.14
  32   3  -1  621.66  167.14
  32   3   2  143.44   57.75
  32   3  14  127.02   72.45
  32   3  17  320.38   68.56
  32   3  20 1416.34  121.45
  32   3  35  283.20  152.60
  32   3  41   71.65  152.04
  32   4 -53  101.09   60.01
  32   4 -29  356.06  114.23
  32   4 -23   60.23  121.01
  32   4 -20   37.64  103.53
  32   4 -17   79.96  107.39
  32   4 -14  202.30   67.66
  32   4  -5  339.21   77.20
  32   4   7  538.00  116.88
  32   4  10   79.51   97.09
  32   4  13  433.99   75.64
  32   4  16  707.92  159.81
  32   4  22  123.39  112.98
  32   4  28   60.29  108.45
  32   4  52  361.31  229.01
  32   5 -51   85.95   66.60
  32   5 -36  667.21  113.97
  32   5 -30  118.73  102.11
  32   5 -24  105.52  140.17
  32   5 -21  723.06  144.94
  32   5 -18  340.86  134.46
  32   5 -15  334.05  100.31
  32   5 -12  121.35   91.28
  32   5  -9  241.03  123.28
  32   5   0  107.55   63.67
  32   5   6   11.29   78.48
  32   5   9    1.42   70.77
  32   5  12  144.38  103.93
  32   5  15  338.31  120.72
  32   5  18  186.71  126.16
  32   5  45   72.52  115.77
  32   5  48   45.15  116.74
  32   6 -43  130.74  143.72
  32   6 -31  182.57  112.54
  32   6 -16  318.38   65.76
  32   6 -13  247.88  144.94
  32   6  -7  301.81  152.29
  32   6  -4  183.52  103.17
  32   6   2  260.39   99.61
  32   6   5    1.00   61.23
  32   6  11 1073.69  148.90
  32   6  14  282.27   97.40
  32   6  20  563.26  172.37
  32   6  23  425.73  166.83
  32   6  35   81.11   67.22
  32   6  41    1.84  219.10
  32   6  47  336.77  139.34
  32   6  50  161.41  127.74
  32   7 -47   62.80  121.99
  32   7 -44    6.53   97.54
  32   7 -41   27.73   84.94
  32   7 -29  208.64  130.91
  32   7 -23   10.02   97.92
  32   7 -20 1302.85  260.69
  32   7  -8   82.89   74.89
  32   7   7  940.88  349.87
  32   7  10  154.24   87.59
  32   7  13  211.93   96.79
  32   7  22  527.85  134.48
  32   7  40  147.85   88.12
  32   7  43  135.51  199.37
  32   8 -48  141.69  123.07
  32   8 -39   13.07  116.71
  32   8 -33  150.76  118.37
  32   8 -24  513.82  135.00
  32   8 -18  551.31  140.03
  32   8 -15  328.29  119.78
  32   8 -12  303.47   96.48
  32   8  -6  176.26  110.41
  32   8   6   31.06   53.07
  32   8  21  314.01  127.85
  32   8  36    0.75   82.28
  32   9 -37  226.45   89.60
  32   9 -34   26.47   59.50
  32   9 -25  217.72  115.72
  32   9  -4  494.61  120.44
  32   9   5   84.05   73.12
  32   9   8  351.23  142.40
  32   9  11  226.42  125.13
  32   9  14  171.04  143.85
  32   9  26  176.25   89.18
  32   9  29  248.70   75.00
  32   9  41  226.63  159.06
  32  10 -44   48.16  112.05
  32  10 -41    2.94  165.28
  32  10 -20  158.66  127.61
  32  10 -14   71.37  103.79
  32  10 -11  130.86   96.26
  32  10  -5   89.91  102.59
  32  10   4  158.37  105.25
  32  10   7   88.49  157.29
  32  10  10  263.13  238.33
  32  10  13   95.65  178.07
  32  10  25   25.37   73.45
  32  10  37  262.23   79.26
  32  10  40  197.65  256.60
  32  10  43  189.05  132.88
  32  11 -39   81.56  145.26
  32  11 -21  170.80  124.16
  32  11  -9    0.07   93.09
  32  11  -6  111.54  147.27
  32  11   0  234.44  111.45
  32  11   3   99.96  149.09
  32  11   6  643.68  151.68
  32  11   9  587.36  110.81
  32  11  12  194.71   89.70
  32  11  30   30.25   70.40
  32  12 -22  410.41  110.72
  32  12 -16  261.97  116.74
  32  12  -4  283.67   84.65
  32  12  -1  265.12  125.80
  32  12   2  561.67  171.73
  32  12  20  235.10  144.34
  32  12  26  202.95   98.34
  32  12  32   56.04   82.76
  32  12  35   37.32   98.45
  32  12  38  135.94   84.07
  32  13 -11  150.69   90.39
  32  13  -8  141.57  101.14
  32  13  -2  269.19  139.88
  32  13  10  188.15  217.55
  32  13  22  528.99  127.80
  32  13  31  331.75  119.65
  32  14 -18    2.18  144.11
  32  14  -3   19.99  139.02
  32  14  15  299.13  154.10
  32  14  21    5.02   85.78
  32  15 -31  167.57  313.51
  32  15 -25  132.26  113.15
  32  15 -22  340.39  132.10
  32  15 -10   84.84  114.03
  32  15  -7  203.77   71.25
  32  15  17  256.74  114.28
  32  15  26   68.45   89.02
  32  15  35  128.30  199.33
  32  16 -26   52.40   88.49
  32  16 -17  203.04  106.55
  32  16 -14  408.05  148.93
  32  16  -8   86.09  128.58
  32  16  -5   41.22  148.66
  32  16   1   19.77   83.44
  32  16  19  360.09  119.65
  32  16  22  328.79  128.72
  32  16  25  136.62  129.89
  32  17 -24   24.78  108.71
  32  17 -18  298.14  115.54
  32  17   0  275.47  343.52
  32  17  27  136.79  164.03
  32  18   5   54.74  247.16
  32  18  11  172.13  214.73
  32  18  14  131.30  157.65
  32  19 -17  156.68  156.39
  32  19  -8  219.70  161.42
  32  19  -2   32.80  147.98
  32  20   0  103.97  240.76
  33   1 -46   40.33   71.78
  33   1 -37    4.31   74.25
  33   1 -28   56.82   84.07
  33   1 -25  556.69  207.18
  33   1 -13  154.16  127.98
  33   1  -7  166.75  108.96
  33   1  -4  593.85  117.03
  33   1  -1  368.36  117.94
  33   1   2  292.80   96.79
  33   1   5  260.19   74.47
  33   1  17  549.84  357.47
  33   1  50   19.41  125.56
  33   2 -53   99.73   54.45
  33   2 -50    7.31   74.88
  33   2 -44   34.74   70.09
  33   2 -41  146.79   60.43
  33   2 -29  536.43  136.78
  33   2  -8 1240.81  300.92
  33   2  -5 1124.20  211.29
  33   2  -2 1370.30  164.54
  33   2   1  172.31   72.16
  33   2   7  483.22   97.68
  33   2  10  924.86  182.70
  33   2  19 1427.94  117.09
  33   2  22   91.21   78.03
  33   2  28   42.94  113.86
  33   2  31  310.44   98.23
  33   2  34  201.04  141.72
  33   3 -51   68.09   43.91
  33   3 -48    0.01   99.82
  33   3 -27   75.86   74.17
  33   3 -12  624.25  139.81
  33   3  -9  740.70  201.94
  33   3  -6  280.71   98.05
  33   3   6  257.09  108.35
  33   3  18  138.19   70.89
  33   3  21  238.27  114.93
  33   3  24  271.22  114.88
  33   3  30  326.76  243.65
  33   3  42   32.08  118.17
  33   3  51   54.12  165.08
  33   4 -40  111.07  136.19
  33   4 -28   18.81  130.50
  33   4 -19   64.61   98.88
  33   4 -16 1524.06  186.48
  33   4 -13  822.02  177.08
  33   4 -10 1113.58  215.82
  33   4  -1  828.05  136.89
  33   4   8 1107.48  159.68
  33   4  14   54.61   99.07
  33   4  17   14.35   74.35
  33   4  20  135.92   80.37
  33   4  23  137.11  156.68
  33   4  32  360.60  150.45
  33   4  44  390.00  236.96
  33   5 -44  270.05   83.48
  33   5 -35   24.44   77.91
  33   5 -29   95.70   91.25
  33   5 -14 1092.93  380.48
  33   5  -5  508.88  131.12
  33   5  -2  550.50   83.76
  33   5   1  399.38   84.17
  33   5   4 1116.25  151.76
  33   5  13  691.62  102.57
  33   5  31   84.34  105.06
  33   5  43    7.16   79.82
  33   5  49  151.43  159.10
  33   6 -45   53.41  168.93
  33   6 -42   17.01  123.99
  33   6 -36  297.56  150.54
  33   6 -30  141.83  199.88
  33   6 -27  235.20  129.40
  33   6 -24  447.11  152.42
  33   6 -18 1505.39  206.79
  33   6  -9  344.43  223.46
  33   6  -6  189.32  109.15
  33   6  -3    0.45   96.08
  33   6   6   66.25   74.47
  33   6   9  354.31  107.11
  33   6  15  204.80   71.78
  33   6  24  193.46  179.42
  33   6  30  337.82  171.73
  33   6  33    1.06  136.44
  33   6  39   25.05  166.02
  33   6  45  360.56  121.88
  33   7 -34   16.47   78.96
  33   7 -22  627.56  126.76
  33   7 -19  132.11  125.55
  33   7 -13  254.91  103.93
  33   7 -10  548.78  113.85
  33   7  -7   49.67   92.99
  33   7  -4   24.57   81.54
  33   7   2   41.20  126.55
  33   7   5   41.36   96.68
  33   7   8   91.05  136.24
  33   7  11   11.09   77.04
  33   7  17  464.21   88.25
  33   7  20  155.13   92.37
  33   7  23  210.68   85.37
  33   7  41  473.81  160.38
  33   8 -44  120.17  191.91
  33   8 -29   13.53   80.89
  33   8 -23   15.19  134.50
  33   8 -17  180.59  115.00
  33   8 -11   41.39  101.04
  33   8  -5  199.79   85.27
  33   8  -2   24.07  104.06
  33   8  13    4.25   64.53
  33   8  16   60.84   95.12
  33   8  22  200.42  159.12
  33   8  31  119.98  153.20
  33   8  34  148.68  134.65
  33   8  37  210.43  203.02
  33   9 -39   94.28  145.30
  33   9 -21  241.47  117.61
  33   9 -18   79.67  120.94
  33   9 -15    9.07  116.26
  33   9 -12  403.24  177.00
  33   9  21  100.89  108.56
  33   9  24  256.51  106.91
  33   9  33   50.47  121.57
  33   9  36   95.04   94.75
  33   9  42  520.42  233.73
  33  10 -43   84.37  167.32
  33  10 -40   54.24  122.17
  33  10 -37   31.60   67.75
  33  10 -22  305.90  124.78
  33  10 -19   14.90   90.14
  33  10 -16  439.44  152.73
  33  10  -7  176.08  160.32
  33  10  -4   20.21  103.71
  33  10  14   15.14   82.02
  33  10  41   91.43  140.84
  33  11 -41  164.21   87.59
  33  11 -38  214.06  115.99
  33  11 -35  201.59   92.99
  33  11 -29  240.07  124.02
  33  11 -26  156.55  132.23
  33  11 -11  279.52   89.63
  33  11  -8  333.04  194.08
  33  11  -5  217.40   79.25
  33  11  13   94.68   89.12
  33  11  19   45.13  106.61
  33  11  22  298.43  111.82
  33  11  37   12.04   86.96
  33  11  40   43.35   76.40
  33  12 -39  175.34  115.11
  33  12 -27   27.43   88.50
  33  12  -6   78.78   79.40
  33  12  24  150.57   83.41
  33  12  30  222.25   90.09
  33  12  33  204.92   86.24
  33  12  36   92.52   55.35
  33  13 -22   50.16  117.79
  33  13 -13  126.91  148.38
  33  13 -10  197.29   75.42
  33  13  26   96.97  106.97
  33  14 -32   34.39   92.99
  33  14 -23    4.26   89.24
  33  14 -14  133.38  122.41
  33  14 -11  117.57   98.32
  33  14  -8   67.85  122.07
  33  14  13   90.12  118.67
  33  14  22  329.94   82.94
  33  15 -30  130.03  167.70
  33  15 -24  182.39  110.35
  33  15 -12  282.26  107.43
  33  15  15   16.99   91.55
  33  15  18   89.79  154.26
  33  15  24  210.60  126.34
  33  16 -25   32.08   93.84
  33  16 -22  174.79  105.82
  33  16 -19   57.93  199.95
  33  16  -4  174.43  200.44
  33  16   5  164.29  272.00
  33  16  11   26.11  124.14
  33  16  20   16.14  222.68
  33  17 -23  279.89  107.16
  33  17  -2  262.25  183.07
  33  17  19   22.95  156.57
  33  18 -12  384.03  463.87
  33  18   6  203.13  148.74
  33  19 -10  239.54  171.09
  33  19  -7  361.05  348.68
  33  19   8  191.72  172.59
  33  19  11   79.12  123.06
  34   1 -54   29.12   59.94
  34   1 -51   19.44  104.82
  34   1 -36   53.05   74.50
  34   1 -18   45.36   94.73
  34   1 -15 1087.92  301.64
  34   1 -12   35.19  134.44
  34   1  -6  201.71   83.20
  34   1   3  509.92  131.63
  34   1   6 1096.31  205.07
  34   1   9  616.93  108.66
  34   1  12  647.37   76.24
  34   1  27  315.47   82.78
  34   1  42  181.53  147.11
  34   1  45  212.02  100.22
  34   2 -49   66.70   89.74
  34   2 -46  215.71  133.33
  34   2 -43   16.83   61.47
  34   2 -40   36.04  119.80
  34   2 -37  182.96   83.34
  34   2 -31    3.21   98.20
  34   2 -28   77.07  120.51
  34   2 -25  665.71  151.14
  34   2 -19  853.41  193.05
  34   2 -10   57.06   90.47
  34   2   2 1486.84  169.40
  34   2   8   70.12  103.42
  34   2  11   74.34   52.45
  34   2  14  128.85   71.63
  34   2  20    7.76  104.78
  34   2  26  164.19   96.70
  34   2  29  261.84  151.53
  34   2  35  382.54  133.53
  34   2  44   97.74  123.81
  34   3 -50   65.00  115.15
  34   3 -41   86.66   95.46
  34   3 -32   83.43  109.85
  34   3 -17  291.06  139.14
  34   3  -5   61.24   80.93
  34   3  10  803.06  100.02
  34   3  13  160.29   59.22
  34   3  16   95.44   74.90
  34   3  19  142.08   79.54
  34   3  25  332.10  167.12
  34   3  37   29.95  170.75
  34   4 -45  166.73   48.62
  34   4 -42    0.47   86.48
  34   4 -24  183.09  192.73
  34   4 -21  468.31   95.53
  34   4 -15  257.57  112.80
  34   4   0  395.42   79.55
  34   4   6  358.68  155.25
  34   4   9  564.13  132.47
  34   4  12  415.06   98.40
  34   4  24  202.22   66.67
  34   4  27  345.54  123.32
  34   4  36   82.36  148.97
  34   4  45   65.39  128.52
  34   4  48    6.71   70.08
  34   5 -46    1.76   94.61
  34   5 -40  166.95  120.55
  34   5 -31  170.64  130.27
  34   5 -25   56.64  130.96
  34   5 -10  589.67  129.53
  34   5  -4  262.34  161.62
  34   5   2   91.98  154.30
  34   5   8   25.05   74.95
  34   5  17  144.00   90.95
  34   5  23  973.54  194.79
  34   5  29  696.28  137.15
  34   5  41  305.73  232.21
  34   6 -44   40.76  115.86
  34   6 -32   64.46   74.24
  34   6 -14   72.26   93.12
  34   6 -11  219.94  121.54
  34   6  -2  198.60  171.17
  34   6   4  135.64   91.04
  34   6  31   19.05  154.49
  34   6  40  155.17  125.73
  34   7 -21  117.94  100.60
  34   7 -18  119.86   89.84
  34   7  -9   82.76   99.77
  34   7   0   70.52   92.90
  34   7  15  347.92  116.34
  34   7  27  270.02  113.55
  34   7  33  116.85  103.96
  34   7  39   49.48  118.98
  34   7  45  178.33  144.35
  34   8 -40   20.98  129.77
  34   8 -31  180.86  102.90
  34   8 -28  151.20  323.82
  34   8 -25  260.34  291.72
  34   8 -22    5.50  106.06
  34   8  -1  494.13  111.88
  34   8   8  213.56  251.82
  34   8  14   92.06   89.45
  34   8  17  342.65  103.34
  34   8  20  123.56   80.74
  34   8  23  109.28  110.30
  34   8  29   11.70   91.81
  34   8  32   25.99  128.06
  34   8  35    7.94   69.01
  34   8  44  227.71   82.49
  34   9 -23   98.51  118.57
  34   9 -14  122.57   99.79
  34   9  -2  312.19  107.44
  34   9   1  111.60  147.69
  34   9   4  137.92   57.56
  34   9  10   81.87   80.50
  34   9  13   10.52  132.56
  34   9  19  102.25  169.81
  34   9  25  104.09  118.05
  34   9  31   73.72  156.05
  34   9  34  426.43   85.56
  34   9  37   11.45   85.68
  34   9  40  359.08  166.24
  34  10 -36  158.83   96.09
  34  10 -30  128.51   94.75
  34  10 -24   70.75   85.67
  34  10 -18  195.77  103.57
  34  10  -6   79.10   84.33
  34  10  -3   91.39  110.65
  34  10   0  414.12  124.00
  34  10   6  398.45   90.47
  34  10   9  214.78  113.90
  34  10  12  181.59   82.55
  34  10  15   33.45  195.81
  34  10  18    1.32   69.07
  34  10  21  141.30   64.14
  34  10  24   59.92  106.08
  34  10  30   27.85   69.64
  34  10  36   32.60   83.49
  34  10  39  135.23   97.35
  34  11 -16  611.51  162.07
  34  11  -1   57.69  163.27
  34  11   8   87.96  189.76
  34  11  29    8.11   64.27
  34  11  32  137.50   90.78
  34  12 -35  169.16   76.76
  34  12 -23   16.36  168.62
  34  12 -20   13.75  155.41
  34  12 -14  311.81  107.60
  34  12  -8  161.17  128.48
  34  12  -2  107.30  112.50
  34  12   7  203.60  157.93
  34  12  22   12.40  108.64
  34  12  28  106.96  117.90
  34  12  34   48.90  105.01
  34  13 -33   13.21  114.87
  34  13 -27   57.59  177.34
  34  13 -24  332.43  145.22
  34  13 -21  132.17  149.18
  34  13  -9   43.34  134.71
  34  13  -3  261.86  191.84
  34  13   6  464.97   60.52
  34  13  12  406.93   99.29
  34  13  15   33.75  107.02
  34  13  21   35.30  134.33
  34  13  27    5.36   87.84
  34  13  30  341.22  169.16
  34  13  33  137.22   79.85
  34  14 -22    1.17  108.47
  34  14 -10   85.79   90.78
  34  14  -1  117.50  116.03
  34  14   8  227.60  123.01
  34  14  14   24.39  199.64
  34  14  17   37.54  103.66
  34  15 -26   30.80   82.36
  34  15 -17  172.05  129.42
  34  15 -11   22.54   96.49
  34  15  -8   66.06   61.92
  34  15  19   48.09   79.56
  34  15  25   53.79  154.06
  34  16 -15  276.52  166.20
  34  16  -3   51.80  144.96
  34  16  12  240.96  212.25
  34  16  15  144.09  106.40
  34  17 -16  131.09  214.15
  34  17 -10   67.85  202.02
  34  17  -4   80.37  211.48
  34  17  -1  105.28  152.44
  34  17   8  271.26  338.41
  34  17  11  217.19  185.22
  34  18   4  162.75  214.36
  34  18   7   73.52  139.15
  35   1 -47  101.37  175.09
  35   1 -44  190.13  107.41
  35   1 -41   50.73  112.87
  35   1 -38   19.30   84.43
  35   1 -35  441.00  180.45
  35   1 -23  568.74  119.80
  35   1 -17  505.01  163.93
  35   1  -8  346.13   81.55
  35   1   1   56.13   92.52
  35   1   4  344.27   99.85
  35   1   7  310.94   66.85
  35   1  10   94.18   78.53
  35   1  13  226.22   99.57
  35   1  16   40.85   75.04
  35   1  25    0.70   72.67
  35   1  37   99.02   77.64
  35   1  46  216.61  117.32
  35   2 -42   16.21  125.13
  35   2 -27  256.43  142.16
  35   2 -15  518.80  147.40
  35   2  -9  347.21  215.83
  35   2  -6   87.30   82.21
  35   2   0  109.00   90.58
  35   2  12   73.57  103.01
  35   2  21  386.48  164.83
  35   2  24  352.29   97.25
  35   2  27  180.60   89.02
  35   2  33   90.44  155.90
  35   2  36  318.92   76.56
  35   3 -49   86.17  106.04
  35   3 -22  397.87  133.99
  35   3 -16   68.62   74.64
  35   3 -13  505.66  187.05
  35   3 -10   33.74  150.28
  35   3   2  555.91  113.40
  35   3  11  130.07   86.15
  35   3  17  233.47  104.15
  35   3  44   85.77  151.14
  35   4 -44  208.53  140.31
  35   4 -38   52.16  171.57
  35   4 -32   13.54   80.78
  35   4 -29    0.67   86.96
  35   4 -20   49.40   95.78
  35   4 -14   28.14   84.88
  35   4   7   27.30  127.67
  35   4  13   58.66  110.55
  35   4  40   13.92   86.84
  35   5 -45  120.62   97.23
  35   5 -36  232.01  192.35
  35   5 -21  261.11  139.22
  35   5 -18    3.78  101.93
  35   5 -12  349.28  145.51
  35   5  -6  106.33  156.83
  35   5  12  180.68  113.48
  35   5  18  204.06  125.23
  35   5  21  278.09  167.00
  35   5  27  179.05  161.17
  35   5  30  174.26  165.25
  35   5  33  339.18  232.52
  35   5  36   23.01  112.67
  35   5  39  213.10  159.61
  35   6 -31    1.63   69.29
  35   6 -25  443.76  208.86
  35   6 -16  472.04  105.72
  35   6 -10  405.25  138.43
  35   6   2   18.93  101.13
  35   6   5   19.11   75.28
  35   6  17  173.74  137.02
  35   7 -38  162.94  133.72
  35   7 -35    3.13  139.01
  35   7 -23  327.80   92.03
  35   7 -20  167.78   89.26
  35   7 -11  230.61  155.88
  35   7   1  432.38  128.44
  35   7   4   59.40   68.92
  35   7  10  153.48   73.92
  35   7  13  179.67  100.86
  35   7  16   64.52  186.12
  35   7  19  239.61  114.83
  35   7  22  138.47  114.39
  35   7  28   19.34   95.82
  35   7  34  114.77   75.46
  35   7  43  228.16   66.06
  35   8 -36   28.95   86.72
  35   8 -33   31.66  152.88
  35   8 -30   52.59   85.71
  35   8 -18   89.95  148.90
  35   8 -15  118.04  109.02
  35   8  -9   21.64   90.13
  35   8  -3   55.06   78.37
  35   8   6  150.51  194.83
  35   8  18  103.30   96.18
  35   8  39   33.77   76.23
  35   9 -16  132.97  179.93
  35   9  -1   38.80   76.03
  35   9  20   41.20   83.23
  35   9  32  357.66  132.66
  35  10 -35    9.69  149.17
  35  10 -29    0.28  162.26
  35  10 -17  476.41  126.07
  35  10 -14   49.03  124.80
  35  10   1   83.94   81.20
  35  10   4   64.23  120.43
  35  10  31  204.21  126.59
  35  11 -18   63.52  101.66
  35  11 -15   64.52   90.36
  35  11 -12  107.43  143.21
  35  11  -9  345.89   81.34
  35  11  -3  132.97  121.89
  35  11  12  137.21  115.89
  35  11  15  289.13  133.00
  35  11  21   37.61  108.96
  35  11  27   31.82   84.36
  35  11  30  145.19  117.10
  35  11  33  366.73  140.83
  35  12 -22  278.29  114.69
  35  12 -16    5.91  114.04
  35  12 -13    8.69  103.61
  35  12  -4    0.01  114.81
  35  12  -1   93.30  101.56
  35  12  14  198.01  127.98
  35  12  23  252.55  166.40
  35  13 -29   46.36  103.10
  35  13 -26    0.04  139.98
  35  13 -20  168.73  137.48
  35  13  -8   42.47  153.72
  35  13   7  243.31   97.74
  35  13  13   55.70  103.92
  35  13  16   64.33  103.83
  35  13  19    7.11  107.73
  35  14 -12   37.06   77.70
  35  14  -9   10.82  126.45
  35  14  -3   19.77   93.85
  35  14   3  233.77   81.65
  35  14   6  368.78  224.07
  35  14  15  117.91  109.83
  35  14  18   63.53  193.42
  35  15 -16   38.77  115.67
  35  15 -13   19.55   88.59
  35  15 -10   49.03  118.08
  35  15  -1   99.45   90.56
  35  15   2  115.16  109.75
  35  16  -5  115.94  284.38
  35  16   7   63.19  138.06
  35  17  -3   66.91   66.13
  36   1 -43   13.82   91.29
  36   1 -31   21.11  137.85
  36   1 -19  172.41   60.86
  36   1 -16 1247.26  173.16
  36   1 -13 1428.58  185.87
  36   1 -10    5.96  101.43
  36   1  -4  184.77  121.71
  36   1  -1  603.08  103.04
  36   1   2   27.39   74.84
  36   1   8  403.14  198.98
  36   1  11  522.39  104.72
  36   1  26  277.97  152.69
  36   1  32  126.82  119.27
  36   1  41  152.52  233.17
  36   2 -35   41.59  116.55
  36   2 -23   27.16  105.50
  36   2 -20   65.93   62.99
  36   2 -14   36.64  115.40
  36   2  -8   56.94   67.23
  36   2   1  878.76  180.41
  36   2   4  235.26  183.96
  36   2  10  487.79   68.90
  36   2  13  261.55   68.07
  36   2  19  277.28  104.58
  36   2  22   96.37  206.10
  36   2  31   71.32  165.50
  36   2  40   32.28  152.69
  36   3 -45   98.00   98.86
  36   3 -42  222.87   79.84
  36   3 -30   20.73   96.32
  36   3 -24  154.17  131.04
  36   3 -18  196.40  155.42
  36   3 -15  335.79  108.61
  36   3  -6   17.10  113.25
  36   3  -3  546.11  164.26
  36   3   9   24.67  140.16
  36   3  15   24.57   90.61
  36   3  18   55.72  107.20
  36   3  24   31.30  156.62
  36   3  27  108.85  136.97
  36   3  33   25.71  114.48
  36   3  36   31.65   82.30
  36   3  39    0.94  104.03
  36   4 -40   18.80  122.00
  36   4 -34  302.27  144.72
  36   4 -22    2.83   72.26
  36   4 -19  183.08  168.71
  36   4   8  198.52  185.74
  36   4  17  167.69  117.50
  36   4  20 1049.06  127.42
  36   4  26   12.47  134.02
  36   4  29   76.05  104.60
  36   4  32   35.61  211.07
  36   4  35   22.68   86.49
  36   4  41   57.80  172.79
  36   5 -38  273.25  151.25
  36   5 -35    0.14  103.91
  36   5 -32  196.46  126.33
  36   5 -20  185.60  128.47
  36   5   4   81.16  125.72
  36   5  10  170.45  184.80
  36   5  13  605.49   98.37
  36   5  16  396.36  125.31
  36   5  19  241.26   71.24
  36   5  40  206.09   67.70
  36   5  43  135.02   78.22
  36   6 -42   60.71  147.59
  36   6 -39   46.34  112.97
  36   6 -30  267.33  163.27
  36   6 -21    0.41  103.37
  36   6 -15  138.33  149.85
  36   6 -12  270.91  147.81
  36   6   3   86.53  169.37
  36   6   6  329.95   80.94
  36   6  18   80.34  101.13
  36   6  21   35.51  113.35
  36   6  39    0.02   87.72
  36   7 -31  158.60  108.59
  36   7 -16    9.45   81.31
  36   7  11   64.88   96.16
  36   7  26  200.33  200.36
  36   7  35  108.10   94.24
  36   7  38  114.25   81.19
  36   8 -38   68.95  190.46
  36   8 -29   13.87  131.48
  36   8 -26   91.18   96.65
  36   8  -8  215.27  114.96
  36   8  25   82.36  101.78
  36   8  28  246.05   70.11
  36   8  31   86.44   71.62
  36   9 -24  234.27  150.92
  36   9 -21   94.54   93.86
  36   9 -15  310.93  151.83
  36   9 -12  344.72  140.66
  36   9  -6  199.66  178.43
  36   9  12   90.46  156.27
  36   9  18   65.03   74.98
  36   9  30  104.13  107.12
  36   9  36  232.70  126.34
  36  10 -31  104.47  112.93
  36  10 -22   61.33  148.24
  36  10 -19   34.11   98.11
  36  10  -7  139.03   94.88
  36  10   5  177.70  185.13
  36  10  14   48.06  133.87
  36  10  23  121.36   86.15
  36  10  26   75.08   99.36
  36  10  29   39.06   79.56
  36  10  32  200.17   81.01
  36  11 -29  261.37   92.78
  36  11 -26  125.31  111.80
  36  11 -17    3.84   87.21
  36  11 -14    9.35   82.62
  36  11  -8  141.16  103.81
  36  11  -2   71.11   67.04
  36  11   1   46.40   96.85
  36  11   7   67.00   66.91
  36  11  10   61.26   88.47
  36  11  13  225.36   87.75
  36  11  16   52.33   95.71
  36  11  22   91.65  110.86
  36  11  25  195.66   72.04
  36  11  31    9.78  135.19
  36  12 -18   10.42   81.36
  36  12 -15  108.42  101.77
  36  12  -6  331.88  112.18
  36  13 -19   12.96   79.25
  36  13  -4   69.89  136.10
  36  13  11  136.12   88.33
  36  13  23  174.46   90.74
  36  14 -11    9.01   57.10
  36  14  -8    5.68   84.54
  36  14  -5  196.29   80.83
  36  14  -2  161.81  186.06
  36  14   7   53.91  131.64
  36  15   0   67.51  158.30
  37   1 -45  124.22  209.35
  37   1 -30  200.05  150.35
  37   1 -15  104.34   80.76
  37   1 -12  239.03   71.59
  37   1  -3  297.30  136.47
  37   1   6   41.77   99.23
  37   1  18  636.54  436.87
  37   1  24  143.01   88.27
  37   2 -40  102.22  122.92
  37   2 -28  152.33  138.34
  37   2  -4  258.31   71.23
  37   2  -1  274.34  102.62
  37   2   5    5.78  110.04
  37   2  11    0.17   80.51
  37   2  14  162.08   90.82
  37   2  26  145.34  104.48
  37   2  29  133.52  188.48
  37   2  32  170.48  183.28
  37   2  38  205.86  129.60
  37   3 -41  136.34  113.83
  37   3 -35    6.03   88.66
  37   3 -26    4.52   64.06
  37   3 -20  258.09  133.40
  37   3 -14  134.93  130.19
  37   3  -5  373.58  150.29
  37   3  -2   14.96   63.10
  37   3  43   93.82   74.00
  37   4 -30   61.11   90.26
  37   4 -24   29.08   62.93
  37   4 -15  335.42   96.82
  37   4   3  408.31  140.74
  37   4   9  196.97   94.66
  37   4  15  245.48  106.08
  37   4  30    3.65  146.02
  37   4  39   19.16  100.56
  37   4  42   17.85  110.58
  37   5 -34   86.66   86.52
  37   5 -31   91.43   97.59
  37   5 -25    5.85  126.22
  37   5 -22   39.90  133.13
  37   5 -13  218.54  125.63
  37   5 -10    3.79  112.25
  37   5  -7  141.85  172.73
  37   5  -4  292.41  128.00
  37   5   2  158.24  187.60
  37   5  11  295.14   69.17
  37   5  17  288.14   99.89
  37   5  20   41.04   58.11
  37   5  26    9.46   80.60
  37   5  32  178.96  150.48
  37   6 -38    8.27  135.92
  37   6 -23  182.75   72.86
  37   6 -17  651.80  146.43
  37   6  -5  128.76  101.19
  37   6  -2  382.54  115.74
  37   6  10   75.89   86.93
  37   6  16    1.08   81.65
  37   6  22   12.53  132.43
  37   6  25  351.44  119.24
  37   6  28   14.34  107.81
  37   6  31  227.65  107.13
  37   7 -36  123.75  238.67
  37   7 -30   57.49  134.28
  37   7 -18   60.21  131.37
  37   7 -12   86.05   98.74
  37   7  -9  183.58  122.19
  37   7  15  245.34  120.35
  37   7  21   35.38   86.85
  37   7  24   96.75   87.67
  37   7  30    3.65   99.63
  37   7  33    1.22  100.52
  37   7  36   58.33   50.53
  37   8 -25  406.32  205.01
  37   8 -16  208.95   89.85
  37   8 -13  258.09  122.90
  37   8 -10  387.59  152.18
  37   8   2  296.87  148.60
  37   8  11  498.97  118.07
  37   8  14  199.71   92.33
  37   8  20   42.59  147.56
  37   9 -29  214.75  101.02
  37   9 -20  201.01  133.29
  37   9  -5   29.97  146.67
  37   9  19   10.04  114.24
  37   9  22  154.41   93.19
  37   9  25  183.85  117.73
  37  10 -18   87.81  151.16
  37  10  -6  113.48  199.46
  37  10  -3   46.47   83.94
  37  10  18  188.61  162.78
  37  10  24  155.50   83.38
  37  11  -7    3.58   98.47
  37  11  -4  239.05   85.93
  37  11  -1    0.02  134.86
  37  11   5  162.09  100.57
  37  11  20   13.03  114.51
  37  12  -8   36.59   90.31
  37  12   1   27.52  106.44
  37  12  22   40.16  103.88
  37  13  -9   28.68   68.03
  37  13  -6  144.40  174.49
  37  13  -3   65.76  142.70
  37  13   0   32.62   70.33
  37  13   3  130.70  144.77
  37  13   6  347.46  118.77
  37  14 -10   17.78   67.70
  37  14  -4   82.41   92.15
  38   1 -41  180.59  121.46
  38   1 -38  177.97  113.31
  38   1 -35  124.80  172.99
  38   1 -29  250.88  118.26
  38   1 -26  674.89   86.00
  38   1 -17  290.70  165.92
  38   1   1   14.07   80.88
  38   1   4   74.44  101.57
  38   1  22  121.53  120.23
  38   1  28  169.00  109.55
  38   1  31  199.91  156.21
  38   1  37  344.55  127.31
  38   2 -39   70.65   99.33
  38   2 -18 1103.38  159.78
  38   2 -12  192.59  163.62
  38   2  -9  244.21  166.88
  38   2   9  194.94  121.97
  38   2  12  426.61  134.80
  38   2  15  208.88  190.88
  38   2  18   24.07   83.80
  38   2  30   69.83  170.27
  38   2  33  284.95  130.20
  38   3 -40   45.53  100.64
  38   3 -34   89.78  249.92
  38   3 -22   41.13  150.94
  38   3 -13  607.03  151.78
  38   3 -10    0.07   70.29
  38   3  -7   81.64   83.12
  38   3  14   42.62   68.78
  38   3  20  190.08  127.43
  38   3  23  216.55  130.42
  38   3  26   46.56  102.48
  38   4 -35    0.27   80.17
  38   4 -26  155.97   87.52
  38   4 -17   11.48   94.18
  38   4 -11  157.64  217.83
  38   4   1  150.43   68.16
  38   4   7  224.34   87.14
  38   4  10    0.03   87.74
  38   4  28  152.11  152.42
  38   4  34    9.09  103.59
  38   4  37   80.10  135.02
  38   5 -36   53.18  221.84
  38   5 -33   29.92  107.36
  38   5 -30   50.09   99.76
  38   5 -15  363.10  155.27
  38   5 -12    3.93  108.76
  38   5  -3   72.62  129.35
  38   5  15   32.93  102.68
  38   5  21  292.07  108.12
  38   5  30  211.67  143.97
  38   6 -25  123.57   98.33
  38   6 -19  523.61  169.25
  38   6 -16   26.95   96.70
  38   6  20   54.76  110.19
  38   6  23  458.64   98.32
  38   7 -26   42.37  109.31
  38   7 -17  446.54  169.63
  38   7   7    0.09   77.35
  38   7  10   12.11  120.89
  38   7  25  171.29  141.33
  38   7  31   26.72   58.68
  38   8 -27  181.35  110.39
  38   8 -24   70.65  131.78
  38   8 -18   34.79  136.26
  38   8   3    0.04   77.62
  38   8   6   36.68   80.51
  38   8   9  171.35   85.00
  38   8  24   39.92   76.55
  38   8  27   28.28  113.82
  38   9 -28  180.00  425.57
  38   9 -25    1.11   90.08
  38   9 -22   66.79  114.35
  38   9 -16    8.06   79.87
  38   9 -10  128.51  125.72
  38   9  -4   30.76  113.88
  38   9   2  665.62  106.57
  38   9   8   12.32   74.89
  38   9  17  116.89  109.16
  38   9  20  215.85  137.87
  38  10 -20  315.41   95.75
  38  10 -14  247.85   85.78
  38  10 -11  228.92   80.35
  38  10  -5  184.20  156.97
  38  10  -2  124.18  177.15
  38  10  16   43.07  102.71
  38  11 -18  175.36  179.37
  38  11 -15  512.87  110.55
  38  11  -9  114.00  111.70
  38  11   0   48.77   91.65
  38  11   3  253.53   51.52
  38  11  18  209.25  125.13
  38  12 -13  156.01   93.63
  38  12  -4    7.19   53.87
  38  12   2  133.45   79.49
  38  12   8  208.71  113.95
  38  12  14  220.98  252.55
  39   1 -40   23.97   65.49
  39   1 -37   59.39  112.68
  39   1 -25  173.34  193.82
  39   1 -22  439.19  101.19
  39   1 -19  132.76  120.23
  39   1 -16  617.59  151.90
  39   1 -10   53.16  118.89
  39   1  -4  197.20  122.77
  39   1   2  173.98  162.27
  39   1  11  241.46   75.36
  39   1  38  193.39  153.67
  39   2  10   70.52   70.53
  39   2  25   34.62  144.46
  39   2  28   70.77  142.40
  39   2  31  108.36  145.03
  39   2  40    6.64   88.55
  39   3 -30  131.42  151.91
  39   3 -21   37.57  168.10
  39   3 -15   42.64  115.28
  39   3 -12   13.61   80.03
  39   3  -6  149.73  259.50
  39   3  12    5.25   93.91
  39   3  15   18.23   53.42
  39   3  21  174.43  144.19
  39   3  27   13.49  139.63
  39   3  30  145.64  128.83
  39   3  33  170.07  103.31
  39   3  36   20.65   68.73
  39   4 -22  487.35  124.53
  39   4  -7   53.10   81.10
  39   4   2  291.32   87.65
  39   4   5 1241.86  316.98
  39   4  17  122.36   98.01
  39   4  23   81.68   83.09
  39   4  26   89.18  113.95
  39   4  32   78.84  120.16
  39   5 -32   70.20  202.90
  39   5 -14  151.11  170.36
  39   5  -8   82.02   64.58
  39   5  -5  233.99  102.22
  39   5   1   66.38  138.73
  39   5   4   26.44   86.82
  39   5  10  164.56   67.52
  39   5  16  161.70  100.70
  39   5  25  134.19  114.99
  39   5  34  291.37   96.25
  39   6 -30  148.06   94.30
  39   6 -27  353.18  182.76
  39   6 -18   69.46  103.74
  39   6 -15  104.00  151.86
  39   6  -6   78.23  123.07
  39   6  -3  199.99  110.31
  39   6   0   32.67   97.42
  39   6  24    9.19  128.53
  39   7 -22   72.06  120.21
  39   7 -16   93.41  107.69
  39   7  -7  123.67  104.71
  39   7   2  221.93  131.75
  39   7  14  184.68   94.72
  39   7  23  295.82  102.56
  39   7  26  213.60  105.54
  39   8 -23   89.74   80.17
  39   8 -11  147.00  122.95
  39   8  -5  205.71  162.53
  39   8   1  221.56  122.18
  39   8   4  687.95  235.22
  39   8  13  269.18  127.93
  39   8  19   20.87   67.16
  39   8  25  119.28   70.48
  39   9 -18  187.27  110.02
  39   9 -15  251.65   81.12
  39   9 -12  324.14  131.47
  39   9   3   74.83  107.92
  39   9   6   19.92   84.67
  39  10 -16  116.59   66.74
  39  10 -10   15.63   79.74
  39  10  17   51.08   95.61
  39  11 -11  105.67  102.79
  39  11  -5   91.73   84.62
  39  11  -2   63.67   90.39
  39  11   4    0.53   94.44
  39  11   7   73.52   97.35
  40   1 -18   97.23  115.10
  40   1  12  159.94  121.12
  40   1  15  402.26  102.19
  40   1  30  144.31  184.52
  40   2 -37    0.04  106.68
  40   2 -34    6.82  166.22
  40   2 -25    2.76  182.90
  40   2 -10  274.26  105.84
  40   2  -1   43.75   71.56
  40   2  11    0.15   84.83
  40   2  20  269.14   84.28
  40   2  23   59.98   97.14
  40   2  29    0.71  140.32
  40   2  35  100.73  175.15
  40   3 -23   40.97   72.59
  40   3 -20   78.37  100.88
  40   3 -14  384.59  136.72
  40   3 -11  374.26  132.32
  40   3  -8    4.48  124.71
  40   3  -5  259.36  107.92
  40   3  -2  485.16   85.26
  40   3   4  118.19  191.76
  40   3  13  150.46   80.00
  40   3  19  146.99   91.65
  40   3  28  171.61  107.28
  40   3  31   75.67  125.41
  40   4 -30  260.99  104.27
  40   4 -27   71.49   81.74
  40   4 -21   50.93   83.96
  40   4  -6  283.29  111.15
  40   4  -3  307.19  139.37
  40   4   3  165.95  100.02
  40   4   9  251.13   75.98
  40   4  18  175.02   73.68
  40   4  24  288.61  187.12
  40   4  27    1.85  135.88
  40   4  30   70.05  104.12
  40   5 -28  195.83  102.32
  40   5 -25   97.08   84.25
  40   5 -13   87.57  150.14
  40   5 -10  225.39  115.54
  40   5  -7  200.11  161.35
  40   5  -1   67.12   86.34
  40   5   2    9.99  104.10
  40   5   8  408.04  140.38
  40   5  11   13.66  135.93
  40   5  14   29.37  117.94
  40   5  17    0.23  111.01
  40   5  20    0.63   94.69
  40   6 -26  130.57  102.58
  40   6 -20  240.68  136.65
  40   6 -14   72.01  123.31
  40   6 -11   34.78   89.77
  40   6  -2   29.07  104.89
  40   6   7  150.34  113.42
  40   6  10  431.21   69.33
  40   6  19    1.28   69.42
  40   6  25   38.60   95.20
  40   7 -21  113.01  185.34
  40   7  -3   65.53  171.46
  40   7   6    0.43   89.25
  40   7  21   63.61   81.92
  40   8 -13   10.30   76.38
  40   8  -4  278.59   72.78
  40   8  11  137.87   87.99
  40   8  14  232.46  121.56
  40   9 -14   55.09  130.88
  40   9 -11  376.93  170.17
  40   9  -5  199.09   54.50
  40   9   1  103.40  161.47
  40  10   0    1.76   74.54
  41   1 -35   67.16  137.92
  41   1 -32  158.21  194.83
  41   1 -29  218.75  130.23
  41   1 -23   60.60  127.56
  41   1 -17  205.62  181.58
  41   1   1  102.89  104.32
  41   1   4  459.69  124.26
  41   1  13  422.00   79.07
  41   1  16 1141.38  179.21
  41   1  19  350.07  109.71
  41   1  34   92.10  131.88
  41   2 -33   74.00   82.89
  41   2 -18   18.29  102.02
  41   2 -15   10.31   93.29
  41   2 -12    0.92  122.63
  41   2   9  109.98   79.98
  41   2  18   51.67  109.83
  41   3 -31  191.63  196.80
  41   3 -28  252.76  110.43
  41   3 -16  172.02  125.85
  41   3 -13  140.32  236.31
  41   3 -10    0.89  107.59
  41   3  -7  109.68  148.61
  41   3  -1  135.96   88.72
  41   3  11  401.99  106.17
  41   3  17   51.33   82.08
  41   3  20  120.32   92.86
  41   3  26    0.22   69.12
  41   4 -26   13.22   85.45
  41   4 -20   72.35  113.39
  41   4 -17  114.43   64.50
  41   4  -8  213.33  154.16
  41   4  -2  534.36  193.33
  41   4   7   22.34  122.82
  41   4  13  326.91  174.38
  41   4  28   25.77  107.53
  41   5  -9   56.98  112.13
  41   5   6   80.53  170.67
  41   5  18   93.06   89.99
  41   6 -13    8.75   92.48
  41   6  -7   67.01  117.20
  41   6   5  282.59  274.68
  41   6   8  174.31  145.55
  41   6  11  139.47  131.35
  41   6  14   44.75  116.67
  41   6  17   35.31  103.58
  41   6  20  110.47  102.17
  41   7 -17   81.34  137.61
  41   7 -14  230.40  113.68
  41   7  -5  152.07  187.12
  41   7   1  267.44  290.61
  41   7  13   90.79   73.66
  41   8  -6  127.63  152.76
  41   8   0  108.63  103.85
  41   8   9  112.81   65.39
  42   1 -22   50.81  131.28
  42   1 -19  143.44   94.51
  42   1  11    4.32   71.27
  42   1  20   86.73  144.00
  42   1  23  345.11  117.04
  42   2 -23  129.48   89.82
  42   2 -14  673.67  157.47
  42   2 -11   61.75  137.06
  42   2  -8    7.01   94.13
  42   2   1  251.51   74.32
  42   2   4  105.71  161.48
  42   2  10  155.98  179.10
  42   2  13    7.50   64.32
  42   2  19    0.01   80.37
  42   2  22   30.28   90.51
  42   2  28   89.05  109.23
  42   3 -18  174.88   88.24
  42   3 -15   52.66  114.84
  42   3  -6  289.86   74.77
  42   3   9   86.58  132.41
  42   3  15  310.85   75.37
  42   3  24  242.14   86.97
  42   4 -22   38.34  105.89
  42   4 -16  196.59   91.69
  42   4 -13  194.76  174.01
  42   4   2   16.82   65.68
  42   4  11  367.42  133.37
  42   4  14   58.97  191.17
  42   4  20   31.77  114.58
  42   5 -17   85.66  126.93
  42   5 -11  131.68  110.23
  42   5  -5  141.49  102.46
  42   5  -2  201.68  150.45
  42   5   4    3.92   60.44
  42   5  16  109.63  191.49
  42   6 -12  124.11  127.07
  42   6   6   59.56  287.14
  43   1 -21   62.09   85.35
  43   1 -18  243.20  110.92
  43   1   3   84.69   91.68
  43   1   6   71.11  112.17
  43   1   9  236.56   90.38
  43   1  21    6.30   80.19
  43   1  24   10.27   71.97
  43   2 -22  107.30  101.80
  43   2 -19  263.41  112.32
  43   2 -16  240.01  176.90
  43   2 -13    9.25  122.68
  43   2   5    4.03   74.07
  43   3 -17  176.44  166.93
  43   3 -11  133.90   79.57
  43   3  -2   62.54  173.51
  43   3  10    2.75  110.99
  43   3  13   37.76  120.08
  43   4 -12   10.71  142.13
  43   4  -3  213.24  149.65
  43   4   9   95.88  104.06
  43   5  -7  116.13  121.51
  43   5  -4   32.74   95.03
  43   5  -1  190.23   84.35
  43   5   5  211.72  111.51
  44   2 -15   92.99  110.96
  44   2  -9   14.16   78.55
  44   2  -6  177.91  136.50
  44   2  15   11.06   52.30
  44   3 -10  120.08  143.22
  44   3  -4  130.09  103.47
  45   1 -10  153.81  151.60
  45   1   5   25.29   75.03
  45   1  11   32.07   88.71
  45   2   1    6.64  291.87
   0   0   0    0.00    0.00
;
_shelx_hkl_checksum              34299
_olex2_submission_special_instructions 'No special instructions were received'
