
#######################################################################
#
#                 Cambridge Crystallographic Data Centre
#                                CCDC 
#
#######################################################################
#
# If this CIF has been generated from an entry in the Cambridge 
# Structural Database, then it will include bibliographic, chemical, 
# crystal, experimental, refinement or atomic coordinate data resulting 
# from the CCDC's data processing and validation procedures.
#
#######################################################################

data_CABTUX
_chemical_formula_moiety         'C120 H96 Ag4 N32 4+,2(C7 H8),4(B1 F4 1-)'
_chemical_name_systematic        
"tetrakis(\m~2~-2,2'-(diazene-1,2-diylbis(4,1-phenylenemethylene-1H-pyrazole-1,3-diyl))dipyridine)-tetra-silver tetrakis(tetrafluoroborate) toluene unknown solvate"
_symmetry_cell_setting           monoclinic
_symmetry_space_group_name_H-M   'C 2/c'
_symmetry_Int_Tables_number      15
_space_group_name_Hall           '-C 2yn'
loop_
_symmetry_equiv_pos_site_id
_symmetry_equiv_pos_as_xyz
1 x,y,z
2 -x,y,1/2-z
3 1/2+x,1/2+y,z
4 1/2-x,1/2+y,1/2-z
5 -x,-y,-z
6 x,-y,1/2+z
7 1/2-x,1/2-y,-z
8 1/2+x,1/2-y,1/2+z
_cell_length_a                   34.111(6)
_cell_length_b                   11.236(2)
_cell_length_c                   40.686(8)
_cell_angle_alpha                90
_cell_angle_beta                 111.635(2)
_cell_angle_gamma                90
_cell_volume                     14495.2
_exptl_crystal_colour            orange
_exptl_crystal_description       block
_cell_formula_units_Z            4
loop_
_atom_site_label
_atom_site_type_symbol
_atom_site_fract_x
_atom_site_fract_y
_atom_site_fract_z
Ag1 Ag 0.38192(2) -0.34873(5) 0.37877(2)
Ag2 Ag 0.29027(3) 0.37106(5) 0.13124(2)
N1 N 0.40803(17) -0.5363(3) 0.38223(17)
C1 C 0.45166(16) -0.5482(4) 0.39568(16)
C2 C 0.46987(15) -0.6588(5) 0.39546(19)
H1 H 0.4997 -0.6669 0.4047
C3 C 0.4444(2) -0.7573(4) 0.3818(2)
H2 H 0.4569 -0.8329 0.3817
C4 C 0.4008(2) -0.7454(4) 0.3684(2)
H3 H 0.3834 -0.8127 0.3590
C5 C 0.38260(15) -0.6348(4) 0.36857(19)
H4 H 0.3528 -0.6266 0.3594
N2 N 0.48865(19) -0.2509(4) 0.42065(17)
N3 N 0.45666(14) -0.3351(5) 0.40331(15)
C6 C 0.4753(2) -0.4500(4) 0.40901(18)
C7 C 0.51879(19) -0.4369(6) 0.42989(19)
H5 H 0.5389 -0.4994 0.4377
C8 C 0.52705(15) -0.3138(7) 0.43708(18)
H6 H 0.5536 -0.2795 0.4505
C9 C 0.4801(4) -0.1312(9) 0.4171(3)
H7 H 0.5058 -0.0866 0.4313
H8 H 0.4580 -0.1129 0.4267
N4 N 0.31350(19) 0.5589(3) 0.12822(19)
C10 C 0.3512(2) 0.5685(5) 0.1226(3)
C11 C 0.3700(3) 0.6792(6) 0.1243(3)
H9 H 0.3958 0.6857 0.1205
C12 C 0.3512(3) 0.7803(5) 0.1316(3)
H10 H 0.3640 0.8559 0.1327
C13 C 0.3135(3) 0.7707(4) 0.1372(3)
H11 H 0.3006 0.8398 0.1422
C14 C 0.2947(2) 0.6600(4) 0.1355(3)
H12 H 0.2689 0.6534 0.1393
N5 N 0.3758(2) 0.2696(4) 0.1083(2)
N6 N 0.35065(19) 0.3577(5) 0.1160(2)
C15 C 0.3687(3) 0.4707(4) 0.1147(3)
C16 C 0.4050(3) 0.4523(6) 0.1062(3)
H13 H 0.4232 0.5126 0.1035
C17 C 0.4094(3) 0.3280(7) 0.1022(3)
H14 H 0.4311 0.2906 0.0965
C18 C 0.3682(4) 0.1475(8) 0.1110(3)
H15 H 0.3836 0.1008 0.0991
H16 H 0.3377 0.1314 0.0988
C19 C 0.46546(9) -0.0902(4) 0.37913(9)
C20 C 0.42442(9) -0.0545(2) 0.35959(8)
H17 H 0.4041 -0.0506 0.3705
C21 C 0.41306(9) -0.02460(19) 0.32413(8)
H18 H 0.3850 -0.0002 0.3108
C22 C 0.44274(10) -0.0304(2) 0.30822(9)
C23 C 0.48378(9) -0.0661(4) 0.32775(10)
H19 H 0.5041 -0.0700 0.3169
C24 C 0.49514(9) -0.0960(4) 0.36321(10)
H20 H 0.5232 -0.1204 0.3766
C25 C 0.38138(18) 0.1097(4) 0.14773(9)
C26 C 0.35234(16) 0.0816(4) 0.16315(9)
H21 H 0.3230 0.0843 0.1495
C27 C 0.36624(14) 0.0497(3) 0.19862(8)
H22 H 0.3464 0.0305 0.2092
C28 C 0.40919(13) 0.0458(2) 0.21867(9)
C29 C 0.43823(15) 0.0738(3) 0.20325(10)
H23 H 0.4676 0.0711 0.2170
C30 C 0.42433(17) 0.1058(3) 0.16778(10)
H24 H 0.4442 0.1249 0.1572
N7 N 0.44031(12) 0.0169(2) 0.25596(9)
N8 N 0.41236(11) 0.00734(19) 0.26834(9)
N9 N 0.35225(12) -0.1933(3) 0.39986(10)
C31 C 0.32822(10) -0.1143(3) 0.37399(10)
C32 C 0.31169(12) -0.0127(4) 0.38351(10)
H25 H 0.2953 0.0413 0.3658
C33 C 0.31920(14) 0.0099(4) 0.41891(11)
H26 H 0.3079 0.0793 0.4254
C34 C 0.34323(14) -0.0692(4) 0.44478(10)
H27 H 0.3484 -0.0537 0.4690
C35 C 0.35975(13) -0.1707(3) 0.43526(10)
H28 H 0.3762 -0.2248 0.4529
N10 N 0.3280(2) -0.2482(4) 0.29345(15)
N11 N 0.33921(19) -0.2452(4) 0.33070(14)
C36 C 0.3217(2) -0.1404(4) 0.33927(14)
C37 C 0.2997(2) -0.0786(4) 0.30731(17)
H29 H 0.2850 -0.0056 0.3052
C38 C 0.3035(3) -0.1453(5) 0.27899(13)
H30 H 0.2918 -0.1246 0.2547
C39 C 0.3386(4) -0.3436(7) 0.2765(3)
H31 H 0.3157 -0.3558 0.2532
H32 H 0.3405 -0.4165 0.2907
C40 C 0.3792(3) -0.3284(6) 0.2708(3)
C41 C 0.3792(3) -0.2893(6) 0.2384(2)
H33 H 0.3534 -0.2687 0.2200
C42 C 0.4169(4) -0.2802(6) 0.2328(3)
H34 H 0.4169 -0.2535 0.2107
C43 C 0.4547(3) -0.3103(7) 0.2597(4)
C44 C 0.4547(3) -0.3495(7) 0.2921(3)
H35 H 0.4805 -0.3701 0.3105
C45 C 0.4170(4) -0.3586(6) 0.2977(2)
H36 H 0.4170 -0.3853 0.3198
N12 N 0.5025(4) -0.3093(9) 0.2637(3)
N13 N 0.24667(17) 0.2085(4) 0.10868(15)
C46 C 0.23941(19) 0.1377(4) 0.13387(12)
C47 C 0.2153(2) 0.0348(4) 0.12359(15)
H37 H 0.2104 -0.0136 0.1408
C48 C 0.1985(2) 0.0027(5) 0.08812(17)
H38 H 0.1821 -0.0676 0.0811
C49 C 0.2058(2) 0.0735(6) 0.06292(13)
H39 H 0.1943 0.0516 0.0387
C50 C 0.2299(2) 0.1764(5) 0.07320(14)
H40 H 0.2348 0.2248 0.0560
N14 N 0.2958(2) 0.2839(4) 0.21551(14)
N15 N 0.2799(2) 0.2763(4) 0.17804(14)
C51 C 0.2559(2) 0.1700(4) 0.16804(12)
C52 C 0.2570(3) 0.1118(4) 0.19933(15)
H41 H 0.2436 0.0387 0.2004
C53 C 0.2816(3) 0.1822(5) 0.22867(12)
H42 H 0.2876 0.1644 0.2529
C54 C 0.3165(5) 0.3834(8) 0.2320(3)
H43 H 0.3117 0.3958 0.2544
H44 H 0.3056 0.4537 0.2168
C55 C 0.3639(2) 0.3686(5) 0.23992(19)
C56 C 0.3796(3) 0.4013(5) 0.21421(14)
H45 H 0.3610 0.4304 0.1920
C57 C 0.4225(3) 0.3913(5) 0.22099(17)
H46 H 0.4333 0.4136 0.2034
C58 C 0.4496(2) 0.3487(5) 0.2535(2)
C59 C 0.4339(3) 0.3160(5) 0.27920(15)
H47 H 0.4525 0.2869 0.3014
C60 C 0.3910(3) 0.3260(5) 0.27242(17)
H48 H 0.3802 0.3037 0.2900
N16 N 0.4946(4) 0.3425(6) 0.2625(2)
N9A N 0.64775(12) -0.1933(3) 0.10014(10)
C31A C 0.67178(10) -0.1143(3) 0.12601(10)
C32A C 0.68831(12) -0.0127(4) 0.11649(10)
H25A H 0.7047 0.0413 0.1342
C33A C 0.68080(14) 0.0099(4) 0.08109(11)
H26A H 0.6921 0.0793 0.0746
C34A C 0.65677(14) -0.0692(4) 0.05522(10)
H27A H 0.6516 -0.0537 0.0310
C35A C 0.64025(13) -0.1707(3) 0.06474(10)
H28A H 0.6238 -0.2248 0.0471
N10A N 0.6720(2) -0.2482(4) 0.20655(15)
N11A N 0.66079(19) -0.2452(4) 0.16930(14)
C36A C 0.6783(2) -0.1404(4) 0.16073(14)
C37A C 0.7003(2) -0.0786(4) 0.19269(17)
H29A H 0.7150 -0.0056 0.1948
C38A C 0.6965(3) -0.1453(5) 0.22101(13)
H30A H 0.7082 -0.1246 0.2453
C39A C 0.6614(4) -0.3436(7) 0.2235(3)
H31A H 0.6843 -0.3558 0.2468
H32A H 0.6595 -0.4165 0.2093
C40A C 0.6208(3) -0.3284(6) 0.2292(3)
C41A C 0.6208(3) -0.2893(6) 0.2616(2)
H33A H 0.6466 -0.2687 0.2800
C42A C 0.5831(4) -0.2802(6) 0.2672(3)
H34A H 0.5831 -0.2535 0.2893
C43A C 0.5453(3) -0.3103(7) 0.2403(4)
C44A C 0.5453(3) -0.3495(7) 0.2079(3)
H35A H 0.5195 -0.3701 0.1895
C45A C 0.5830(4) -0.3586(6) 0.2023(2)
H36A H 0.5830 -0.3853 0.1802
N12A N 0.4975(4) -0.3093(9) 0.2363(3)
N13A N 0.75333(17) 0.2085(4) 0.39132(15)
C46A C 0.76059(19) 0.1377(4) 0.36613(12)
C47A C 0.7847(2) 0.0348(4) 0.37641(15)
H37A H 0.7896 -0.0136 0.3592
C48A C 0.8015(2) 0.0027(5) 0.41188(17)
H38A H 0.8179 -0.0676 0.4189
C49A C 0.7942(2) 0.0735(6) 0.43708(13)
H39A H 0.8057 0.0516 0.4613
C50A C 0.7701(2) 0.1764(5) 0.42680(14)
H40A H 0.7652 0.2248 0.4440
N14A N 0.7042(2) 0.2839(4) 0.28449(14)
N15A N 0.7201(2) 0.2763(4) 0.32196(14)
C51A C 0.7441(2) 0.1700(4) 0.33196(12)
C52A C 0.7430(3) 0.1118(4) 0.30067(15)
H41A H 0.7564 0.0387 0.2996
C53A C 0.7184(3) 0.1822(5) 0.27133(12)
H42A H 0.7124 0.1644 0.2471
C54A C 0.6835(5) 0.3834(8) 0.2680(3)
H43A H 0.6883 0.3958 0.2456
H44A H 0.6944 0.4537 0.2832
C55A C 0.6361(2) 0.3686(5) 0.26008(19)
C56A C 0.6204(3) 0.4013(5) 0.28579(14)
H45A H 0.6390 0.4304 0.3080
C57A C 0.5775(3) 0.3913(5) 0.27901(17)
H46A H 0.5667 0.4136 0.2966
C58A C 0.5504(2) 0.3487(5) 0.2465(2)
C59A C 0.5661(3) 0.3160(5) 0.22080(15)
H47A H 0.5475 0.2869 0.1986
C60A C 0.6090(3) 0.3260(5) 0.22758(17)
H48A H 0.6198 0.3037 0.2100
N16A N 0.5054(4) 0.3425(6) 0.2375(2)
Ag1A Ag 0.61808(2) -0.34873(5) 0.12123(2)
Ag2A Ag 0.70973(3) 0.37106(5) 0.36876(2)
N1A N 0.59197(17) -0.5363(3) 0.11777(17)
C1A C 0.54834(16) -0.5482(4) 0.10432(16)
C2A C 0.53013(15) -0.6588(5) 0.10454(19)
H1A H 0.5003 -0.6669 0.0953
C3A C 0.5556(2) -0.7573(4) 0.1182(2)
H2A H 0.5431 -0.8329 0.1183
C4A C 0.5992(2) -0.7454(4) 0.1316(2)
H3A H 0.6166 -0.8127 0.1410
C5A C 0.61740(15) -0.6348(4) 0.13143(19)
H4A H 0.6472 -0.6266 0.1406
N2A N 0.51135(19) -0.2509(4) 0.07935(17)
N3A N 0.54334(14) -0.3351(5) 0.09669(15)
C6A C 0.5247(2) -0.4500(4) 0.09099(18)
C7A C 0.48121(19) -0.4369(6) 0.07011(19)
H5A H 0.4611 -0.4994 0.0623
C8A C 0.47295(15) -0.3138(7) 0.06292(18)
H6A H 0.4464 -0.2795 0.0495
C9A C 0.5199(4) -0.1312(9) 0.0829(3)
H7A H 0.4942 -0.0866 0.0687
H8A H 0.5420 -0.1129 0.0733
N4A N 0.68650(19) 0.5589(3) 0.37178(19)
C10A C 0.6488(2) 0.5685(5) 0.3774(3)
C11A C 0.6300(3) 0.6792(6) 0.3757(3)
H9A H 0.6042 0.6857 0.3795
C12A C 0.6488(3) 0.7803(5) 0.3684(3)
H10A H 0.6360 0.8559 0.3673
C13A C 0.6865(3) 0.7707(4) 0.3628(3)
H11A H 0.6994 0.8398 0.3578
C14A C 0.7053(2) 0.6600(4) 0.3645(3)
H12A H 0.7311 0.6534 0.3607
N5A N 0.6242(2) 0.2696(4) 0.3917(2)
N6A N 0.64935(19) 0.3577(5) 0.3840(2)
C15A C 0.6313(3) 0.4707(4) 0.3853(3)
C16A C 0.5950(3) 0.4523(6) 0.3938(3)
H13A H 0.5768 0.5126 0.3965
C17A C 0.5906(3) 0.3280(7) 0.3978(3)
H14A H 0.5689 0.2906 0.4035
C18A C 0.6318(4) 0.1475(8) 0.3890(3)
H15A H 0.6164 0.1008 0.4009
H16A H 0.6623 0.1314 0.4012
C19A C 0.53454(9) -0.0902(4) 0.12087(9)
C20A C 0.57558(9) -0.0545(2) 0.14041(8)
H17A H 0.5959 -0.0506 0.1295
C21A C 0.58694(9) -0.02460(19) 0.17587(8)
H18A H 0.6150 -0.0002 0.1892
C22A C 0.55726(10) -0.0304(2) 0.19178(9)
C23A C 0.51622(9) -0.0661(4) 0.17225(10)
H19A H 0.4959 -0.0700 0.1831
C24A C 0.50486(9) -0.0960(4) 0.13679(10)
H20A H 0.4768 -0.1204 0.1234
C25A C 0.61862(18) 0.1097(4) 0.35227(9)
C26A C 0.64766(16) 0.0816(4) 0.33685(9)
H21A H 0.6770 0.0843 0.3505
C27A C 0.63376(14) 0.0497(3) 0.30138(8)
H22A H 0.6536 0.0305 0.2908
C28A C 0.59081(13) 0.0458(2) 0.28133(9)
C29A C 0.56177(15) 0.0738(3) 0.29675(10)
H23A H 0.5324 0.0711 0.2830
C30A C 0.57567(17) 0.1058(3) 0.33222(10)
H24A H 0.5558 0.1249 0.3428
N7A N 0.55969(12) 0.0169(2) 0.24404(9)
N8A N 0.58764(11) 0.00734(19) 0.23166(9)
B1 B 0.7635(3) 0.7763(7) 0.3157(2)
F1 F 0.7262(2) 0.8384(5) 0.3106(2)
F2 F 0.78569(16) 0.7599(4) 0.35129(13)
F3 F 0.74955(17) 0.6750(4) 0.29796(15)
F4 F 0.78616(18) 0.8474(4) 0.30112(16)
B2 B 0.5925(4) 1.0252(10) 0.9450(3)
F5 F 0.5649(4) 0.9496(11) 0.9224(3)
F6 F 0.5762(3) 1.0615(9) 0.9690(3)
F7 F 0.6298(4) 0.9660(14) 0.9635(4)
F8 F 0.6016(5) 1.1195(11) 0.9277(4)
C61 C 0.5462(4) 0.7262(9) 0.9929(4)
C62 C 0.5415(4) 0.6340(11) 1.0140(4)
H49 H 0.5202 0.6383 1.0238
C63 C 0.5679(5) 0.5354(10) 1.0206(4)
H50 H 0.5647 0.4724 1.0350
C64 C 0.5990(5) 0.5291(10) 1.0063(4)
H51 H 0.6171 0.4618 1.0109
C65 C 0.6038(5) 0.6213(12) 0.9853(4)
H52 H 0.6250 0.6170 0.9755
C66 C 0.5773(5) 0.7198(11) 0.9786(4)
H53 H 0.5805 0.7828 0.9642
C67 C 0.5140(6) 0.8384(13) 0.9868(6)
H54 H 0.4873 0.8201 0.9675
H55 H 0.5266 0.9093 0.9807
H56 H 0.5086 0.8534 1.0085
loop_
_geom_bond_atom_site_label_1
_geom_bond_atom_site_label_2
_geom_bond_site_symmetry_1
_geom_bond_site_symmetry_2
Ag1 N1 1_555 1_555
Ag2 N4 1_555 1_555
N1 C1 1_555 1_555
C1 C2 1_555 1_555
C2 H1 1_555 1_555
C3 C2 1_555 1_555
H2 C3 1_555 1_555
C4 C3 1_555 1_555
H3 C4 1_555 1_555
C5 N1 1_555 1_555
H4 C5 1_555 1_555
N2 N3 1_555 1_555
N3 Ag1 1_555 1_555
C6 C1 1_555 1_555
C7 C6 1_555 1_555
H5 C7 1_555 1_555
C8 N2 1_555 1_555
H6 C8 1_555 1_555
C9 N2 1_555 1_555
H7 C9 1_555 1_555
H8 C9 1_555 1_555
N4 C10 1_555 1_555
C10 C11 1_555 1_555
C11 H9 1_555 1_555
C12 C11 1_555 1_555
H10 C12 1_555 1_555
C13 C12 1_555 1_555
H11 C13 1_555 1_555
C14 N4 1_555 1_555
H12 C14 1_555 1_555
N5 N6 1_555 1_555
N6 Ag2 1_555 1_555
C15 C10 1_555 1_555
C16 C15 1_555 1_555
H13 C16 1_555 1_555
C17 N5 1_555 1_555
H14 C17 1_555 1_555
C18 N5 1_555 1_555
H15 C18 1_555 1_555
H16 C18 1_555 1_555
C19 C9 1_555 1_555
C20 C19 1_555 1_555
H17 C20 1_555 1_555
C21 C20 1_555 1_555
H18 C21 1_555 1_555
C22 C21 1_555 1_555
C23 C22 1_555 1_555
H19 C23 1_555 1_555
C24 C19 1_555 1_555
H20 C24 1_555 1_555
C25 C18 1_555 1_555
C26 C25 1_555 1_555
H21 C26 1_555 1_555
C27 C26 1_555 1_555
H22 C27 1_555 1_555
C28 C27 1_555 1_555
C29 C28 1_555 1_555
H23 C29 1_555 1_555
C30 C25 1_555 1_555
H24 C30 1_555 1_555
N7 C28 1_555 1_555
N8 C22 1_555 1_555
N9 Ag1 1_555 1_555
C31 N9 1_555 1_555
C32 C31 1_555 1_555
H25 C32 1_555 1_555
C33 C32 1_555 1_555
H26 C33 1_555 1_555
C34 C33 1_555 1_555
H27 C34 1_555 1_555
C35 N9 1_555 1_555
H28 C35 1_555 1_555
N10 N11 1_555 1_555
N11 Ag1 1_555 1_555
C36 C31 1_555 1_555
C37 C36 1_555 1_555
H29 C37 1_555 1_555
C38 N10 1_555 1_555
H30 C38 1_555 1_555
C39 N10 1_555 1_555
H31 C39 1_555 1_555
H32 C39 1_555 1_555
C40 C39 1_555 1_555
C41 C40 1_555 1_555
H33 C41 1_555 1_555
C42 C41 1_555 1_555
H34 C42 1_555 1_555
C43 C42 1_555 1_555
C44 C43 1_555 1_555
H35 C44 1_555 1_555
C45 C40 1_555 1_555
H36 C45 1_555 1_555
N12 C43 1_555 1_555
N13 Ag2 1_555 1_555
C46 N13 1_555 1_555
C47 C46 1_555 1_555
H37 C47 1_555 1_555
C48 C47 1_555 1_555
H38 C48 1_555 1_555
C49 C48 1_555 1_555
H39 C49 1_555 1_555
C50 N13 1_555 1_555
H40 C50 1_555 1_555
N14 N15 1_555 1_555
N15 Ag2 1_555 1_555
C51 C46 1_555 1_555
C52 C51 1_555 1_555
H41 C52 1_555 1_555
C53 N14 1_555 1_555
H42 C53 1_555 1_555
C54 N14 1_555 1_555
H43 C54 1_555 1_555
H44 C54 1_555 1_555
C55 C54 1_555 1_555
C56 C55 1_555 1_555
H45 C56 1_555 1_555
C57 C56 1_555 1_555
H46 C57 1_555 1_555
C58 C57 1_555 1_555
C59 C58 1_555 1_555
H47 C59 1_555 1_555
C60 C55 1_555 1_555
H48 C60 1_555 1_555
N16 C58 1_555 1_555
B1 F1 1_555 1_555
F2 B1 1_555 1_555
F3 B1 1_555 1_555
F4 B1 1_555 1_555
B2 F5 1_555 1_555
F6 B2 1_555 1_555
F7 B2 1_555 1_555
F8 B2 1_555 1_555
C61 C62 1_555 1_555
C62 H49 1_555 1_555
C63 C62 1_555 1_555
H50 C63 1_555 1_555
C64 C63 1_555 1_555
H51 C64 1_555 1_555
C65 C64 1_555 1_555
H52 C65 1_555 1_555
C66 C61 1_555 1_555
H53 C66 1_555 1_555
C67 C61 1_555 1_555
H54 C67 1_555 1_555
H55 C67 1_555 1_555
H56 C67 1_555 1_555
N9A C31A 1_555 1_555
C31A C32A 1_555 1_555
C32A H25A 1_555 1_555
C33A C32A 1_555 1_555
H26A C33A 1_555 1_555
C34A C33A 1_555 1_555
H27A C34A 1_555 1_555
C35A N9A 1_555 1_555
H28A C35A 1_555 1_555
N10A N11A 1_555 1_555
N11A C36A 1_555 1_555
C36A C31A 1_555 1_555
C37A C36A 1_555 1_555
H29A C37A 1_555 1_555
C38A N10A 1_555 1_555
H30A C38A 1_555 1_555
C39A N10A 1_555 1_555
H31A C39A 1_555 1_555
H32A C39A 1_555 1_555
C40A C39A 1_555 1_555
C41A C40A 1_555 1_555
H33A C41A 1_555 1_555
C42A C41A 1_555 1_555
H34A C42A 1_555 1_555
C43A C42A 1_555 1_555
C44A C43A 1_555 1_555
H35A C44A 1_555 1_555
C45A C40A 1_555 1_555
H36A C45A 1_555 1_555
N12A N12 1_555 1_555
N13A C46A 1_555 1_555
C46A C47A 1_555 1_555
C47A H37A 1_555 1_555
C48A C47A 1_555 1_555
H38A C48A 1_555 1_555
C49A C48A 1_555 1_555
H39A C49A 1_555 1_555
C50A N13A 1_555 1_555
H40A C50A 1_555 1_555
N14A N15A 1_555 1_555
N15A C51A 1_555 1_555
C51A C46A 1_555 1_555
C52A C51A 1_555 1_555
H41A C52A 1_555 1_555
C53A N14A 1_555 1_555
H42A C53A 1_555 1_555
C54A N14A 1_555 1_555
H43A C54A 1_555 1_555
H44A C54A 1_555 1_555
C55A C54A 1_555 1_555
C56A C55A 1_555 1_555
H45A C56A 1_555 1_555
C57A C56A 1_555 1_555
H46A C57A 1_555 1_555
C58A C57A 1_555 1_555
C59A C58A 1_555 1_555
H47A C59A 1_555 1_555
C60A C55A 1_555 1_555
H48A C60A 1_555 1_555
N16A N16 1_555 1_555
Ag1A N9A 1_555 1_555
Ag2A N13A 1_555 1_555
N1A Ag1A 1_555 1_555
C1A N1A 1_555 1_555
C2A C1A 1_555 1_555
H1A C2A 1_555 1_555
C3A C2A 1_555 1_555
H2A C3A 1_555 1_555
C4A C3A 1_555 1_555
H3A C4A 1_555 1_555
C5A N1A 1_555 1_555
H4A C5A 1_555 1_555
N2A N3A 1_555 1_555
N3A Ag1A 1_555 1_555
C6A C1A 1_555 1_555
C7A C6A 1_555 1_555
H5A C7A 1_555 1_555
C8A N2A 1_555 1_555
H6A C8A 1_555 1_555
C9A N2A 1_555 1_555
H7A C9A 1_555 1_555
H8A C9A 1_555 1_555
N4A Ag2A 1_555 1_555
C10A N4A 1_555 1_555
C11A C10A 1_555 1_555
H9A C11A 1_555 1_555
C12A C11A 1_555 1_555
H10A C12A 1_555 1_555
C13A C12A 1_555 1_555
H11A C13A 1_555 1_555
C14A N4A 1_555 1_555
H12A C14A 1_555 1_555
N5A N6A 1_555 1_555
N6A Ag2A 1_555 1_555
C15A C10A 1_555 1_555
C16A C15A 1_555 1_555
H13A C16A 1_555 1_555
C17A N5A 1_555 1_555
H14A C17A 1_555 1_555
C18A N5A 1_555 1_555
H15A C18A 1_555 1_555
H16A C18A 1_555 1_555
C19A C9A 1_555 1_555
C20A C19A 1_555 1_555
H17A C20A 1_555 1_555
C21A C20A 1_555 1_555
H18A C21A 1_555 1_555
C22A C21A 1_555 1_555
C23A C22A 1_555 1_555
H19A C23A 1_555 1_555
C24A C19A 1_555 1_555
H20A C24A 1_555 1_555
C25A C18A 1_555 1_555
C26A C25A 1_555 1_555
H21A C26A 1_555 1_555
C27A C26A 1_555 1_555
H22A C27A 1_555 1_555
C28A C27A 1_555 1_555
C29A C28A 1_555 1_555
H23A C29A 1_555 1_555
C30A C25A 1_555 1_555
H24A C30A 1_555 1_555
N7A C28A 1_555 1_555
N8A C22A 1_555 1_555
C4 C5 1_555 1_555
N3 C6 1_555 1_555
C7 C8 1_555 1_555
C13 C14 1_555 1_555
N6 C15 1_555 1_555
C16 C17 1_555 1_555
C23 C24 1_555 1_555
C29 C30 1_555 1_555
N7 N8 1_555 1_555
C34 C35 1_555 1_555
N11 C36 1_555 1_555
C37 C38 1_555 1_555
C44 C45 1_555 1_555
C49 C50 1_555 1_555
N15 C51 1_555 1_555
C52 C53 1_555 1_555
C59 C60 1_555 1_555
C65 C66 1_555 1_555
C34A C35A 1_555 1_555
N11A Ag1A 1_555 1_555
C37A C38A 1_555 1_555
C43A N12A 1_555 1_555
C44A C45A 1_555 1_555
C49A C50A 1_555 1_555
N15A Ag2A 1_555 1_555
C52A C53A 1_555 1_555
C58A N16A 1_555 1_555
C59A C60A 1_555 1_555
C4A C5A 1_555 1_555
N3A C6A 1_555 1_555
C7A C8A 1_555 1_555
C13A C14A 1_555 1_555
N6A C15A 1_555 1_555
C16A C17A 1_555 1_555
C23A C24A 1_555 1_555
C29A C30A 1_555 1_555
N7A N8A 1_555 1_555

#END
