
#######################################################################
#
#                 Cambridge Crystallographic Data Centre
#                                CCDC 
#
#######################################################################
#
# If this CIF has been generated from an entry in the Cambridge 
# Structural Database, then it will include bibliographic, chemical, 
# crystal, experimental, refinement or atomic coordinate data resulting 
# from the CCDC's data processing and validation procedures.
#
#######################################################################

data_CABVEJ
_chemical_formula_moiety         'C56 H44 Ag2 N12 2+,2(Cl1 O4 1-)'
_chemical_name_systematic        
"bis(\m-2,2'-(naphthalene-1,4-diylbis(methylene-1H-pyrazole-1,3-diyl))dipyridine)-di-silver(i) diperchlorate"
_symmetry_cell_setting           monoclinic
_symmetry_space_group_name_H-M   'P 21/c'
_symmetry_Int_Tables_number      14
_space_group_name_Hall           '-P 2ybc'
loop_
_symmetry_equiv_pos_site_id
_symmetry_equiv_pos_as_xyz
1 x,y,z
2 -x,1/2+y,1/2-z
3 -x,-y,-z
4 x,1/2-y,1/2+z
_cell_length_a                   15.6463(10)
_cell_length_b                   24.0292(15)
_cell_length_c                   14.4368(9)
_cell_angle_alpha                90
_cell_angle_beta                 105.090(3)
_cell_angle_gamma                90
_cell_volume                     5240.62
_exptl_crystal_colour            colorless
_exptl_crystal_description       block
_cell_formula_units_Z            4
loop_
_atom_site_label
_atom_site_type_symbol
_atom_site_fract_x
_atom_site_fract_y
_atom_site_fract_z
Ag1 Ag 0.030324(18) 0.354388(11) 0.614774(17)
Ag2 Ag 0.50955(2) 0.464135(12) 0.78303(2)
N1 N 0.01266(18) 0.32290(11) 0.45718(19)
C1 C -0.0238(2) 0.27440(15) 0.4226(3)
H1 H -0.0463 0.2509 0.4636
C2 C -0.0304(2) 0.25677(16) 0.3297(3)
H2 H -0.0580 0.2223 0.3074
C3 C 0.0033(2) 0.28952(16) 0.2710(3)
H3 H -0.0003 0.2781 0.2071
C4 C 0.0426(2) 0.33950(15) 0.3049(2)
H4 H 0.0676 0.3626 0.2654
C5 C 0.0449(2) 0.35530(13) 0.3984(2)
N2 N 0.10841(16) 0.47742(10) 0.53489(17)
N3 N 0.06996(16) 0.42702(10) 0.52039(17)
C6 C 0.08144(19) 0.40968(12) 0.4364(2)
C7 C 0.1264(2) 0.44959(14) 0.3967(2)
H5 H 0.1421 0.4476 0.3375
C8 C 0.1429(2) 0.49229(13) 0.4623(2)
H6 H 0.1730 0.5260 0.4573
C9 C 0.1090(2) 0.50807(12) 0.6218(2)
H7 H 0.0491 0.5063 0.6326
H8 H 0.1222 0.5476 0.6123
N4 N 0.62351(18) 0.40201(11) 0.81617(18)
C10 C 0.6911(2) 0.40187(15) 0.7752(2)
H9 H 0.6955 0.4316 0.7334
C11 C 0.7544(3) 0.36088(16) 0.7908(3)
H10 H 0.8002 0.3617 0.7587
C12 C 0.7502(3) 0.31856(16) 0.8537(3)
H11 H 0.7938 0.2901 0.8667
C13 C 0.6820(2) 0.31815(14) 0.8974(3)
H12 H 0.6782 0.2896 0.9416
C14 C 0.6185(2) 0.35995(12) 0.8762(2)
N5 N 0.42911(18) 0.39118(13) 0.95635(19)
N6 N 0.49338(17) 0.40515(11) 0.91369(18)
C15 C 0.5424(2) 0.35943(13) 0.9178(2)
C16 C 0.5102(3) 0.31675(15) 0.9648(3)
H13 H 0.5334 0.2802 0.9774
C17 C 0.4387(3) 0.33848(17) 0.9887(3)
H14 H 0.4021 0.3199 1.0220
C18 C 0.3665(2) 0.43305(17) 0.9696(2)
H15 H 0.3998 0.4666 0.9983
H16 H 0.3349 0.4187 1.0157
C19 C 0.17512(19) 0.48675(12) 0.7102(2)
C20 C 0.23249(19) 0.44415(12) 0.7075(2)
H17 H 0.2305 0.4266 0.6480
C21 C 0.2944(2) 0.42578(12) 0.7912(2)
H18 H 0.3337 0.3963 0.7872
C22 C 0.2989(2) 0.44980(13) 0.8782(2)
C23 C 0.2396(2) 0.49363(13) 0.8848(2)
C24 C 0.17743(19) 0.51259(12) 0.7997(2)
C25 C 0.2404(2) 0.52006(15) 0.9729(2)
H19 H 0.2810 0.5078 1.0302
C26 C 0.1841(3) 0.56276(17) 0.9768(2)
H20 H 0.1856 0.5796 1.0368
C27 C 0.1242(3) 0.58208(17) 0.8934(3)
H21 H 0.0860 0.6124 0.8966
C28 C 0.1206(2) 0.55716(14) 0.8070(2)
H22 H 0.0790 0.5701 0.7509
N7 N 0.01894(17) 0.38870(10) 0.76178(18)
C29 C -0.0387(2) 0.42805(14) 0.7716(2)
H23 H -0.0821 0.4399 0.7160
C30 C -0.0383(3) 0.45218(15) 0.8582(3)
H24 H -0.0805 0.4799 0.8622
C31 C 0.0247(3) 0.43514(17) 0.9389(3)
H25 H 0.0265 0.4508 0.9997
C32 C 0.0850(2) 0.39522(15) 0.9302(2)
H26 H 0.1294 0.3833 0.9848
C33 C 0.0803(2) 0.37252(12) 0.8407(2)
N8 N 0.20212(17) 0.27070(10) 0.75314(19)
N9 N 0.14165(16) 0.31187(10) 0.74006(18)
C34 C 0.14213(19) 0.32898(12) 0.8286(2)
C35 C 0.2030(2) 0.29844(16) 0.8978(3)
H27 H 0.2163 0.3023 0.9655
C36 C 0.2395(2) 0.26167(16) 0.8467(3)
H28 H 0.2834 0.2346 0.8727
C37 C 0.2218(2) 0.24489(13) 0.6693(3)
H29 H 0.1662 0.2409 0.6179
H30 H 0.2460 0.2071 0.6867
N10 N 0.42440(18) 0.54220(11) 0.76391(19)
C38 C 0.4075(3) 0.57199(15) 0.8354(2)
H31 H 0.4403 0.5635 0.8990
C39 C 0.3462(3) 0.61392(15) 0.8230(3)
H32 H 0.3364 0.6335 0.8765
C40 C 0.2992(2) 0.62676(14) 0.7314(3)
H33 H 0.2566 0.6558 0.7201
C41 C 0.3146(2) 0.59685(13) 0.6558(2)
H34 H 0.2830 0.6053 0.5918
C42 C 0.3768(2) 0.55420(12) 0.6739(2)
N11 N 0.42773(18) 0.44659(11) 0.53063(19)
N12 N 0.42872(17) 0.46916(10) 0.61654(19)
C43 C 0.3901(2) 0.51897(12) 0.5960(2)
C44 C 0.3639(2) 0.52760(13) 0.4964(2)
H35 H 0.3350 0.5593 0.4632
C45 C 0.3890(2) 0.48038(14) 0.4576(2)
H36 H 0.3805 0.4728 0.3912
C46 C 0.4597(2) 0.38998(14) 0.5272(3)
H37 H 0.5210 0.3871 0.5683
H38 H 0.4605 0.3808 0.4606
C47 C 0.2873(2) 0.27826(11) 0.6315(2)
C48 C 0.2549(2) 0.31996(12) 0.5666(2)
H39 H 0.1927 0.3251 0.5442
C49 C 0.3116(2) 0.35496(13) 0.5328(2)
H40 H 0.2872 0.3838 0.4888
C50 C 0.4008(2) 0.34853(12) 0.5617(2)
C51 C 0.4377(2) 0.30374(12) 0.6238(2)
C52 C 0.3800(2) 0.26878(12) 0.6610(2)
C53 C 0.5294(2) 0.29158(13) 0.6501(3)
H41 H 0.5686 0.3142 0.6261
C54 C 0.5626(2) 0.24815(15) 0.7092(3)
H42 H 0.6242 0.2402 0.7246
C55 C 0.5064(3) 0.21517(15) 0.7473(3)
H43 H 0.5303 0.1855 0.7897
C56 C 0.4182(2) 0.22512(14) 0.7242(3)
H44 H 0.3811 0.2023 0.7510
Cl1 Cl 0.26174(18) 0.41423(10) 0.2024(2)
O1 O 0.2871(3) 0.3847(2) 0.2920(3)
O2 O 0.1685(2) 0.4267(2) 0.1794(3)
O3 O 0.3113(3) 0.46511(14) 0.2097(3)
O4 O 0.2795(3) 0.38013(18) 0.1274(3)
Cl3 Cl 0.79536(6) 0.31354(4) 0.55791(6)
O9 O 0.79210(17) 0.30096(10) 0.45968(11)
O10 O 0.8790(2) 0.29200(19) 0.6177(2)
O11 O 0.7242(3) 0.2867(2) 0.5851(3)
O12 O 0.7933(4) 0.37230(8) 0.5718(2)
loop_
_geom_bond_atom_site_label_1
_geom_bond_atom_site_label_2
_geom_bond_site_symmetry_1
_geom_bond_site_symmetry_2
Ag1 N1 1_555 1_555
Ag2 N4 1_555 1_555
N1 C1 1_555 1_555
C1 H1 1_555 1_555
C2 C1 1_555 1_555
H2 C2 1_555 1_555
C3 C2 1_555 1_555
H3 C3 1_555 1_555
C4 C3 1_555 1_555
H4 C4 1_555 1_555
C5 N1 1_555 1_555
N2 N3 1_555 1_555
N3 Ag1 1_555 1_555
C6 C5 1_555 1_555
C7 C6 1_555 1_555
H5 C7 1_555 1_555
C8 N2 1_555 1_555
H6 C8 1_555 1_555
C9 N2 1_555 1_555
H7 C9 1_555 1_555
H8 C9 1_555 1_555
N4 C10 1_555 1_555
C10 H9 1_555 1_555
C11 C10 1_555 1_555
H10 C11 1_555 1_555
C12 C11 1_555 1_555
H11 C12 1_555 1_555
C13 C12 1_555 1_555
H12 C13 1_555 1_555
C14 N4 1_555 1_555
N5 N6 1_555 1_555
N6 Ag2 1_555 1_555
C15 C14 1_555 1_555
C16 C15 1_555 1_555
H13 C16 1_555 1_555
C17 N5 1_555 1_555
H14 C17 1_555 1_555
C18 N5 1_555 1_555
H15 C18 1_555 1_555
H16 C18 1_555 1_555
C19 C9 1_555 1_555
C20 C19 1_555 1_555
H17 C20 1_555 1_555
C21 C20 1_555 1_555
H18 C21 1_555 1_555
C22 C18 1_555 1_555
C23 C22 1_555 1_555
C24 C19 1_555 1_555
C25 C23 1_555 1_555
H19 C25 1_555 1_555
C26 C25 1_555 1_555
H20 C26 1_555 1_555
C27 C26 1_555 1_555
H21 C27 1_555 1_555
C28 C24 1_555 1_555
H22 C28 1_555 1_555
N7 Ag1 1_555 1_555
C29 N7 1_555 1_555
H23 C29 1_555 1_555
C30 C29 1_555 1_555
H24 C30 1_555 1_555
C31 C30 1_555 1_555
H25 C31 1_555 1_555
C32 C31 1_555 1_555
H26 C32 1_555 1_555
C33 N7 1_555 1_555
N8 N9 1_555 1_555
N9 Ag1 1_555 1_555
C34 C33 1_555 1_555
C35 C34 1_555 1_555
H27 C35 1_555 1_555
C36 N8 1_555 1_555
H28 C36 1_555 1_555
C37 N8 1_555 1_555
H29 C37 1_555 1_555
H30 C37 1_555 1_555
N10 Ag2 1_555 1_555
C38 N10 1_555 1_555
H31 C38 1_555 1_555
C39 C38 1_555 1_555
H32 C39 1_555 1_555
C40 C39 1_555 1_555
H33 C40 1_555 1_555
C41 C40 1_555 1_555
H34 C41 1_555 1_555
C42 N10 1_555 1_555
N11 N12 1_555 1_555
N12 Ag2 1_555 1_555
C43 C42 1_555 1_555
C44 C43 1_555 1_555
H35 C44 1_555 1_555
C45 N11 1_555 1_555
H36 C45 1_555 1_555
C46 N11 1_555 1_555
H37 C46 1_555 1_555
H38 C46 1_555 1_555
C47 C37 1_555 1_555
C48 C47 1_555 1_555
H39 C48 1_555 1_555
C49 C48 1_555 1_555
H40 C49 1_555 1_555
C50 C46 1_555 1_555
C51 C50 1_555 1_555
C52 C47 1_555 1_555
C53 C51 1_555 1_555
H41 C53 1_555 1_555
C54 C53 1_555 1_555
H42 C54 1_555 1_555
C55 C54 1_555 1_555
H43 C55 1_555 1_555
C56 C52 1_555 1_555
H44 C56 1_555 1_555
Cl1 O1 1_555 1_555
O2 Cl1 1_555 1_555
O3 Cl1 1_555 1_555
O4 Cl1 1_555 1_555
Cl3 O9 1_555 1_555
O10 Cl3 1_555 1_555
O11 Cl3 1_555 1_555
O12 Cl3 1_555 1_555
C4 C5 1_555 1_555
N3 C6 1_555 1_555
C7 C8 1_555 1_555
C13 C14 1_555 1_555
N6 C15 1_555 1_555
C16 C17 1_555 1_555
C21 C22 1_555 1_555
C23 C24 1_555 1_555
C27 C28 1_555 1_555
C32 C33 1_555 1_555
N9 C34 1_555 1_555
C35 C36 1_555 1_555
C41 C42 1_555 1_555
N12 C43 1_555 1_555
C44 C45 1_555 1_555
C49 C50 1_555 1_555
C51 C52 1_555 1_555
C55 C56 1_555 1_555

#END
