
#######################################################################
#
#                 Cambridge Crystallographic Data Centre
#                                CCDC 
#
#######################################################################
#
# If this CIF has been generated from an entry in the Cambridge 
# Structural Database, then it will include bibliographic, chemical, 
# crystal, experimental, refinement or atomic coordinate data resulting 
# from the CCDC's data processing and validation procedures.
#
#######################################################################

data_CADVEL
_chemical_formula_moiety         'C96 H144 Na8 O96 V8 8-,8(Na1 1+),128(H2 O1)'
_chemical_name_systematic        
'octa-sodium bis(\m-\g-cyclodextrin)-octaaqua-octaoxo-octa-sodium-octa-vanadium octacosahectahydrate'
_symmetry_cell_setting           orthorhombic
_symmetry_space_group_name_H-M   'C 2 2 2'
_symmetry_Int_Tables_number      21
_space_group_name_Hall           'C 2 2'
loop_
_symmetry_equiv_pos_site_id
_symmetry_equiv_pos_as_xyz
1 x,y,z
2 -x,-y,z
3 -x,y,-z
4 x,-y,-z
5 1/2+x,1/2+y,z
6 1/2-x,1/2-y,z
7 1/2-x,1/2+y,-z
8 1/2+x,1/2-y,-z
_cell_length_a                   22.3972(11)
_cell_length_b                   37.8780(18)
_cell_length_c                   14.7186(7)
_cell_angle_alpha                90
_cell_angle_beta                 90
_cell_angle_gamma                90
_cell_volume                     12486.7
_exptl_crystal_colour            blue
_exptl_crystal_description       rod
_cell_formula_units_Z            2
loop_
_atom_site_label
_atom_site_type_symbol
_atom_site_fract_x
_atom_site_fract_y
_atom_site_fract_z
V1 V 0.16392(2) 0.417555(12) 0.49733(5)
V2 V 0.35741(2) 0.297119(13) 0.49656(5)
Na1 Na 0.21096(7) 0.5000 0.5000
Na2 Na 0.29240(6) 0.37449(3) 0.50164(13)
Na3 Na 0.5000 0.31934(4) 0.5000
O1 O 0.09534(10) 0.40165(6) 0.4976(3)
O2 O 0.32842(10) 0.25797(5) 0.4942(2)
O3 O 0.31423(19) 0.5000 0.5000
O4 O 0.36834(15) 0.41747(8) 0.5067(3)
O5 O 0.5000 0.38107(11) 0.5000
O6 O 0.16255(11) 0.45464(6) 0.40665(16)
O7 O 0.21806(11) 0.39573(6) 0.41069(16)
O8 O 0.17701(11) 0.54525(6) 0.41411(18)
O9 O 0.20567(12) 0.61104(6) 0.41284(16)
O10 O 0.31361(12) 0.32446(6) 0.40576(17)
O11 O 0.42310(11) 0.30319(7) 0.41263(18)
O12 O 0.32051(12) 0.67226(7) 0.41375(18)
O13 O 0.42196(11) 0.70471(6) 0.40977(17)
O14 O 0.23315(10) 0.49703(7) 0.28722(14)
O15 O 0.22509(12) 0.45289(6) 0.17596(15)
O16 O 0.26759(16) 0.39840(8) 0.06223(19)
H1 H 0.2390 0.4093 0.0380
O17 O 0.31650(11) 0.38352(7) 0.28767(17)
O18 O 0.36206(11) 0.34911(6) 0.17504(15)
O19 O 0.45411(16) 0.32847(10) 0.0574(2)
H2 H 0.4187 0.3237 0.0432
O20 O 0.49195(12) 0.66351(5) 0.28970(14)
O21 O 0.41738(12) 0.67019(7) 0.17803(17)
O22 O 0.33141(19) 0.64516(10) 0.0575(2)
H3 H 0.3166 0.6339 0.0138
O23 O 0.30426(12) 0.61344(6) 0.28850(17)
O24 O 0.24499(11) 0.58521(6) 0.17737(16)
O25 O 0.21189(18) 0.52953(8) 0.0606(2)
H4 H 0.2172 0.5269 0.0046
C1 C 0.19804(16) 0.47075(10) 0.2514(2)
H5 H 0.1597 0.4815 0.2304
C2 C 0.18360(15) 0.44260(8) 0.3250(2)
H6 H 0.1523 0.4267 0.2991
C3 C 0.23743(16) 0.41979(9) 0.3470(2)
H7 H 0.2688 0.4350 0.3752
C4 C 0.26262(17) 0.40338(9) 0.2620(2)
H8 H 0.2326 0.3873 0.2333
C5 C 0.27819(17) 0.43385(9) 0.1977(2)
H9 H 0.3074 0.4500 0.2278
C6 C 0.3031(2) 0.42163(12) 0.1063(3)
H10 H 0.3092 0.4425 0.0670
H11 H 0.3426 0.4105 0.1164
C7 C 0.32029(16) 0.34987(9) 0.2520(3)
H12 H 0.2799 0.3422 0.2309
C8 C 0.34359(14) 0.32377(8) 0.3227(2)
H13 H 0.3393 0.2995 0.2969
C9 C 0.40827(14) 0.32901(9) 0.3466(2)
H14 H 0.4123 0.3527 0.3757
C10 C 0.44824(15) 0.32863(10) 0.2612(2)
H15 H 0.4467 0.3049 0.2314
C11 C 0.42373(16) 0.35635(9) 0.1987(2)
H16 H 0.4254 0.3796 0.2307
C12 C 0.45533(18) 0.36009(10) 0.1076(2)
H17 H 0.4358 0.3790 0.0719
H18 H 0.4973 0.3671 0.1181
C13 C 0.44662(17) 0.68593(11) 0.2554(3)
H19 H 0.4652 0.7087 0.2361
C14 C 0.39981(15) 0.69350(9) 0.3251(2)
H20 H 0.3732 0.7125 0.3008
C15 C 0.36158(15) 0.66178(9) 0.3463(2)
H21 H 0.3881 0.6433 0.3733
C16 C 0.33431(16) 0.64645(10) 0.2599(3)
H22 H 0.3053 0.6633 0.2319
C17 C 0.3843(2) 0.63897(12) 0.1976(3)
H23 H 0.4118 0.6220 0.2286
C18 C 0.3679(3) 0.62362(14) 0.1059(3)
H24 H 0.4049 0.6193 0.0707
H25 H 0.3479 0.6006 0.1150
C19 C 0.24544(17) 0.60860(9) 0.2537(2)
H26 H 0.2295 0.6320 0.2339
C20 C 0.20482(15) 0.59378(8) 0.3253(2)
H27 H 0.1631 0.5952 0.3016
C21 C 0.21750(15) 0.55529(8) 0.3469(2)
H28 H 0.2586 0.5538 0.3732
C22 C 0.21637(14) 0.53381(8) 0.2634(2)
H29 H 0.1757 0.5343 0.2356
C23 C 0.26284(19) 0.54902(9) 0.1967(2)
H30 H 0.3029 0.5492 0.2268
C24 C 0.2677(2) 0.52904(11) 0.1057(3)
H31 H 0.2984 0.5403 0.0670
H32 H 0.2800 0.5043 0.1171
O6A O 0.83745(11) 0.54536(6) 0.40665(16)
O7A O 0.78194(11) 0.60427(6) 0.41069(16)
O10A O 0.68639(12) 0.67554(6) 0.40576(17)
O11A O 0.57690(11) 0.69681(7) 0.41263(18)
O14A O 0.76685(10) 0.50297(7) 0.28722(14)
O15A O 0.77491(12) 0.54711(6) 0.17596(15)
O16A O 0.73241(16) 0.60160(8) 0.06223(19)
H1A H 0.7610 0.5907 0.0380
O17A O 0.68350(11) 0.61648(7) 0.28767(17)
O18A O 0.63794(11) 0.65089(6) 0.17504(15)
O19A O 0.54589(16) 0.67153(10) 0.0574(2)
H2A H 0.5813 0.6763 0.0432
C1A C 0.80196(16) 0.52925(10) 0.2514(2)
H5A H 0.8403 0.5185 0.2304
C2A C 0.81640(15) 0.55740(8) 0.3250(2)
H6A H 0.8477 0.5733 0.2991
C3A C 0.76257(16) 0.58021(9) 0.3470(2)
H7A H 0.7312 0.5650 0.3752
C4A C 0.73738(17) 0.59662(9) 0.2620(2)
H8A H 0.7674 0.6127 0.2333
C5A C 0.72181(17) 0.56615(9) 0.1977(2)
H9A H 0.6926 0.5500 0.2278
C6A C 0.6969(2) 0.57837(12) 0.1063(3)
H10A H 0.6908 0.5575 0.0670
H11A H 0.6574 0.5895 0.1164
C7A C 0.67971(16) 0.65013(9) 0.2520(3)
H12A H 0.7201 0.6578 0.2309
C8A C 0.65641(14) 0.67623(8) 0.3227(2)
H13A H 0.6607 0.7005 0.2969
C9A C 0.59173(14) 0.67099(9) 0.3466(2)
H14A H 0.5877 0.6473 0.3757
C10A C 0.55176(15) 0.67137(10) 0.2612(2)
H15A H 0.5533 0.6951 0.2314
C11A C 0.57627(16) 0.64365(9) 0.1987(2)
H16A H 0.5746 0.6204 0.2307
C12A C 0.54467(18) 0.63991(10) 0.1076(2)
H17A H 0.5642 0.6210 0.0719
H18A H 0.5027 0.6329 0.1181
O8A O 0.82299(11) 0.45475(6) 0.41411(18)
O9A O 0.79433(12) 0.38896(6) 0.41284(16)
O12A O 0.67949(12) 0.32774(7) 0.41375(18)
O13A O 0.57804(11) 0.29529(6) 0.40977(17)
O20A O 0.50805(12) 0.33649(5) 0.28970(14)
O21A O 0.58262(12) 0.32981(7) 0.17803(17)
O22A O 0.66859(19) 0.35484(10) 0.0575(2)
H3A H 0.6834 0.3661 0.0138
O23A O 0.69574(12) 0.38656(6) 0.28850(17)
O24A O 0.75501(11) 0.41479(6) 0.17737(16)
O25A O 0.78811(18) 0.47047(8) 0.0606(2)
H4A H 0.7828 0.4731 0.0046
C13A C 0.55338(17) 0.31407(11) 0.2554(3)
H19A H 0.5348 0.2913 0.2361
C14A C 0.60019(15) 0.30650(9) 0.3251(2)
H20A H 0.6268 0.2875 0.3008
C15A C 0.63842(15) 0.33822(9) 0.3463(2)
H21A H 0.6119 0.3567 0.3733
C16A C 0.66569(16) 0.35355(10) 0.2599(3)
H22A H 0.6947 0.3367 0.2319
C17A C 0.6157(2) 0.36103(12) 0.1976(3)
H23A H 0.5882 0.3780 0.2286
C18A C 0.6321(3) 0.37638(14) 0.1059(3)
H24A H 0.5951 0.3807 0.0707
H25A H 0.6521 0.3994 0.1150
C19A C 0.75456(17) 0.39140(9) 0.2537(2)
H26A H 0.7705 0.3680 0.2339
C20A C 0.79518(15) 0.40622(8) 0.3253(2)
H27A H 0.8369 0.4048 0.3016
C21A C 0.78250(15) 0.44471(8) 0.3469(2)
H28A H 0.7414 0.4462 0.3732
C22A C 0.78363(14) 0.46619(8) 0.2634(2)
H29A H 0.8243 0.4657 0.2356
C23A C 0.73716(19) 0.45098(9) 0.1967(2)
H30A H 0.6971 0.4508 0.2268
C24A C 0.7323(2) 0.47096(11) 0.1057(3)
H31A H 0.7016 0.4597 0.0670
H32A H 0.7200 0.4957 0.1171
V1A V 0.83608(2) 0.582445(12) 0.49733(5)
V2A V 0.64259(2) 0.702881(13) 0.49656(5)
Na1A Na 0.78904(7) 0.5000 0.5000
Na2A Na 0.70760(6) 0.62551(3) 0.50164(13)
Na3A Na 0.5000 0.68066(4) 0.5000
O1A O 0.90466(10) 0.59835(6) 0.4976(3)
O2A O 0.67158(10) 0.74203(5) 0.4942(2)
O3A O 0.68577(19) 0.5000 0.5000
O4A O 0.63166(15) 0.58253(8) 0.5067(3)
O5A O 0.5000 0.61893(11) 0.5000
V1B V 0.83608(2) 0.417555(12) 0.50267(5)
V2B V 0.64259(2) 0.297119(13) 0.50344(5)
Na2B Na 0.70760(6) 0.37449(3) 0.49836(13)
O1B O 0.90466(10) 0.40165(6) 0.5024(3)
O2B O 0.67158(10) 0.25797(5) 0.5058(2)
O4B O 0.63166(15) 0.41747(8) 0.4933(3)
O6B O 0.83745(11) 0.45464(6) 0.59335(16)
O7B O 0.78194(11) 0.39573(6) 0.58931(16)
O8B O 0.82299(11) 0.54525(6) 0.58589(18)
O9B O 0.79433(12) 0.61104(6) 0.58716(16)
O10B O 0.68639(12) 0.32446(6) 0.59424(17)
O11B O 0.57690(11) 0.30319(7) 0.58737(18)
O12B O 0.67949(12) 0.67226(7) 0.58625(18)
O13B O 0.57804(11) 0.70471(6) 0.59023(17)
O14B O 0.76685(10) 0.49703(7) 0.71278(14)
O15B O 0.77491(12) 0.45289(6) 0.82404(15)
O16B O 0.73241(16) 0.39840(8) 0.93777(19)
H1B H 0.7610 0.4093 0.9620
O17B O 0.68350(11) 0.38352(7) 0.71233(17)
O18B O 0.63794(11) 0.34911(6) 0.82496(15)
O19B O 0.54589(16) 0.32847(10) 0.9426(2)
H2B H 0.5813 0.3237 0.9568
O20B O 0.50805(12) 0.66351(5) 0.71030(14)
O21B O 0.58262(12) 0.67019(7) 0.82197(17)
O22B O 0.66859(19) 0.64516(10) 0.9425(2)
H3B H 0.6834 0.6339 0.9862
O23B O 0.69574(12) 0.61344(6) 0.71150(17)
O24B O 0.75501(11) 0.58521(6) 0.82263(16)
O25B O 0.78811(18) 0.52953(8) 0.9394(2)
H4B H 0.7828 0.5269 0.9954
C1B C 0.80196(16) 0.47075(10) 0.7486(2)
H5B H 0.8403 0.4815 0.7696
C2B C 0.81640(15) 0.44260(8) 0.6750(2)
H6B H 0.8477 0.4267 0.7009
C3B C 0.76257(16) 0.41979(9) 0.6530(2)
H7B H 0.7312 0.4350 0.6248
C4B C 0.73738(17) 0.40338(9) 0.7380(2)
H8B H 0.7674 0.3873 0.7667
C5B C 0.72181(17) 0.43385(9) 0.8023(2)
H9B H 0.6926 0.4500 0.7722
C6B C 0.6969(2) 0.42163(12) 0.8937(3)
H10B H 0.6908 0.4425 0.9330
H11B H 0.6574 0.4105 0.8836
C7B C 0.67971(16) 0.34987(9) 0.7480(3)
H12B H 0.7201 0.3422 0.7691
C8B C 0.65641(14) 0.32377(8) 0.6773(2)
H13B H 0.6607 0.2995 0.7031
C9B C 0.59173(14) 0.32901(9) 0.6534(2)
H14B H 0.5877 0.3527 0.6243
C10B C 0.55176(15) 0.32863(10) 0.7388(2)
H15B H 0.5533 0.3049 0.7686
C11B C 0.57627(16) 0.35635(9) 0.8013(2)
H16B H 0.5746 0.3796 0.7693
C12B C 0.54467(18) 0.36009(10) 0.8924(2)
H17B H 0.5642 0.3790 0.9281
H18B H 0.5027 0.3671 0.8819
C13B C 0.55338(17) 0.68593(11) 0.7446(3)
H19B H 0.5348 0.7087 0.7639
C14B C 0.60019(15) 0.69350(9) 0.6749(2)
H20B H 0.6268 0.7125 0.6992
C15B C 0.63842(15) 0.66178(9) 0.6537(2)
H21B H 0.6119 0.6433 0.6267
C16B C 0.66569(16) 0.64645(10) 0.7401(3)
H22B H 0.6947 0.6633 0.7681
C17B C 0.6157(2) 0.63897(12) 0.8024(3)
H23B H 0.5882 0.6220 0.7714
C18B C 0.6321(3) 0.62362(14) 0.8941(3)
H24B H 0.5951 0.6193 0.9293
H25B H 0.6521 0.6006 0.8850
C19B C 0.75456(17) 0.60860(9) 0.7463(2)
H26B H 0.7705 0.6320 0.7661
C20B C 0.79518(15) 0.59378(8) 0.6747(2)
H27B H 0.8369 0.5952 0.6984
C21B C 0.78250(15) 0.55529(8) 0.6531(2)
H28B H 0.7414 0.5538 0.6268
C22B C 0.78363(14) 0.53381(8) 0.7366(2)
H29B H 0.8243 0.5343 0.7644
C23B C 0.73716(19) 0.54902(9) 0.8033(2)
H30B H 0.6971 0.5492 0.7732
C24B C 0.7323(2) 0.52904(11) 0.8943(3)
H31B H 0.7016 0.5403 0.9330
H32B H 0.7200 0.5043 0.8829
O6C O 0.16255(11) 0.54536(6) 0.59335(16)
O7C O 0.21806(11) 0.60427(6) 0.58931(16)
O10C O 0.31361(12) 0.67554(6) 0.59424(17)
O11C O 0.42310(11) 0.69681(7) 0.58737(18)
O14C O 0.23315(10) 0.50297(7) 0.71278(14)
O15C O 0.22509(12) 0.54711(6) 0.82404(15)
O16C O 0.26759(16) 0.60160(8) 0.93777(19)
H1C H 0.2390 0.5907 0.9620
O17C O 0.31650(11) 0.61648(7) 0.71233(17)
O18C O 0.36206(11) 0.65089(6) 0.82496(15)
O19C O 0.45411(16) 0.67153(10) 0.9426(2)
H2C H 0.4187 0.6763 0.9568
C1C C 0.19804(16) 0.52925(10) 0.7486(2)
H5C H 0.1597 0.5185 0.7696
C2C C 0.18360(15) 0.55740(8) 0.6750(2)
H6C H 0.1523 0.5733 0.7009
C3C C 0.23743(16) 0.58021(9) 0.6530(2)
H7C H 0.2688 0.5650 0.6248
C4C C 0.26262(17) 0.59662(9) 0.7380(2)
H8C H 0.2326 0.6127 0.7667
C5C C 0.27819(17) 0.56615(9) 0.8023(2)
H9C H 0.3074 0.5500 0.7722
C6C C 0.3031(2) 0.57837(12) 0.8937(3)
H10C H 0.3092 0.5575 0.9330
H11C H 0.3426 0.5895 0.8836
C7C C 0.32029(16) 0.65013(9) 0.7480(3)
H12C H 0.2799 0.6578 0.7691
C8C C 0.34359(14) 0.67623(8) 0.6773(2)
H13C H 0.3393 0.7005 0.7031
C9C C 0.40827(14) 0.67099(9) 0.6534(2)
H14C H 0.4123 0.6473 0.6243
C10C C 0.44824(15) 0.67137(10) 0.7388(2)
H15C H 0.4467 0.6951 0.7686
C11C C 0.42373(16) 0.64365(9) 0.8013(2)
H16C H 0.4254 0.6204 0.7693
C12C C 0.45533(18) 0.63991(10) 0.8924(2)
H17C H 0.4358 0.6210 0.9281
H18C H 0.4973 0.6329 0.8819
O8C O 0.17701(11) 0.45475(6) 0.58589(18)
O9C O 0.20567(12) 0.38896(6) 0.58716(16)
O12C O 0.32051(12) 0.32774(7) 0.58625(18)
O13C O 0.42196(11) 0.29529(6) 0.59023(17)
O20C O 0.49195(12) 0.33649(5) 0.71030(14)
O21C O 0.41738(12) 0.32981(7) 0.82197(17)
O22C O 0.33141(19) 0.35484(10) 0.9425(2)
H3C H 0.3166 0.3661 0.9862
O23C O 0.30426(12) 0.38656(6) 0.71150(17)
O24C O 0.24499(11) 0.41479(6) 0.82263(16)
O25C O 0.21189(18) 0.47047(8) 0.9394(2)
H4C H 0.2172 0.4731 0.9954
C13C C 0.44662(17) 0.31407(11) 0.7446(3)
H19C H 0.4652 0.2913 0.7639
C14C C 0.39981(15) 0.30650(9) 0.6749(2)
H20C H 0.3732 0.2875 0.6992
C15C C 0.36158(15) 0.33822(9) 0.6537(2)
H21C H 0.3881 0.3567 0.6267
C16C C 0.33431(16) 0.35355(10) 0.7401(3)
H22C H 0.3053 0.3367 0.7681
C17C C 0.3843(2) 0.36103(12) 0.8024(3)
H23C H 0.4118 0.3780 0.7714
C18C C 0.3679(3) 0.37638(14) 0.8941(3)
H24C H 0.4049 0.3807 0.9293
H25C H 0.3479 0.3994 0.8850
C19C C 0.24544(17) 0.39140(9) 0.7463(2)
H26C H 0.2295 0.3680 0.7661
C20C C 0.20482(15) 0.40622(8) 0.6747(2)
H27C H 0.1631 0.4048 0.6984
C21C C 0.21750(15) 0.44471(8) 0.6531(2)
H28C H 0.2586 0.4462 0.6268
C22C C 0.21637(14) 0.46619(8) 0.7366(2)
H29C H 0.1757 0.4657 0.7644
C23C C 0.26284(19) 0.45098(9) 0.8033(2)
H30C H 0.3029 0.4508 0.7732
C24C C 0.2677(2) 0.47096(11) 0.8943(3)
H31C H 0.2984 0.4597 0.9330
H32C H 0.2800 0.4957 0.8829
V1C V 0.16392(2) 0.582445(12) 0.50267(5)
V2C V 0.35741(2) 0.702881(13) 0.50344(5)
Na2C Na 0.29240(6) 0.62551(3) 0.49836(13)
O1C O 0.09534(10) 0.59835(6) 0.5024(3)
O2C O 0.32842(10) 0.74203(5) 0.5058(2)
O4C O 0.36834(15) 0.58253(8) 0.4933(3)
loop_
_geom_bond_atom_site_label_1
_geom_bond_atom_site_label_2
_geom_bond_site_symmetry_1
_geom_bond_site_symmetry_2
V1 O1 1_555 1_555
V2 O2 1_555 1_555
Na1 O3 1_555 1_555
Na2 O4 1_555 1_555
Na3 O5 1_555 1_555
O6 V1 1_555 1_555
O7 V1 1_555 1_555
O8 Na1 1_555 1_555
O9 C20 1_555 1_555
O10 V2 1_555 1_555
O11 V2 1_555 1_555
O12 C15 1_555 1_555
O13 C14 1_555 1_555
O14 C1 1_555 1_555
O15 C1 1_555 1_555
O16 H1 1_555 1_555
O17 C4 1_555 1_555
O18 C7 1_555 1_555
O19 H2 1_555 1_555
O20 C13 1_555 1_555
O21 C13 1_555 1_555
O22 H3 1_555 1_555
O23 C16 1_555 1_555
O24 C19 1_555 1_555
O25 H4 1_555 1_555
C1 H5 1_555 1_555
C2 O6 1_555 1_555
H6 C2 1_555 1_555
C3 O7 1_555 1_555
H7 C3 1_555 1_555
C4 C3 1_555 1_555
H8 C4 1_555 1_555
C5 O15 1_555 1_555
H9 C5 1_555 1_555
C6 O16 1_555 1_555
H10 C6 1_555 1_555
H11 C6 1_555 1_555
C7 O17 1_555 1_555
H12 C7 1_555 1_555
C8 O10 1_555 1_555
H13 C8 1_555 1_555
C9 O11 1_555 1_555
H14 C9 1_555 1_555
C10 C9 1_555 1_555
H15 C10 1_555 1_555
C11 O18 1_555 1_555
H16 C11 1_555 1_555
C12 O19 1_555 1_555
H17 C12 1_555 1_555
H18 C12 1_555 1_555
C13 H19 1_555 1_555
C14 C13 1_555 1_555
H20 C14 1_555 1_555
C15 C14 1_555 1_555
H21 C15 1_555 1_555
C16 C15 1_555 1_555
H22 C16 1_555 1_555
C17 O21 1_555 1_555
H23 C17 1_555 1_555
C18 O22 1_555 1_555
H24 C18 1_555 1_555
H25 C18 1_555 1_555
C19 O23 1_555 1_555
H26 C19 1_555 1_555
C20 C19 1_555 1_555
H27 C20 1_555 1_555
C21 O8 1_555 1_555
H28 C21 1_555 1_555
C22 O14 1_555 1_555
H29 C22 1_555 1_555
C23 O24 1_555 1_555
H30 C23 1_555 1_555
C24 O25 1_555 1_555
H31 C24 1_555 1_555
H32 C24 1_555 1_555
O6A C2A 1_555 1_555
O7A C3A 1_555 1_555
O10A C8A 1_555 1_555
O11A C9A 1_555 1_555
O14A C1A 1_555 1_555
O15A C1A 1_555 1_555
O16A H1A 1_555 1_555
O17A C4A 1_555 1_555
O18A C7A 1_555 1_555
O19A H2A 1_555 1_555
C1A H5A 1_555 1_555
C2A C1A 1_555 1_555
H6A C2A 1_555 1_555
C3A C2A 1_555 1_555
H7A C3A 1_555 1_555
C4A C3A 1_555 1_555
H8A C4A 1_555 1_555
C5A O15A 1_555 1_555
H9A C5A 1_555 1_555
C6A O16A 1_555 1_555
H10A C6A 1_555 1_555
H11A C6A 1_555 1_555
C7A O17A 1_555 1_555
H12A C7A 1_555 1_555
C8A C7A 1_555 1_555
H13A C8A 1_555 1_555
C9A C8A 1_555 1_555
H14A C9A 1_555 1_555
C10A O20 1_555 1_555
H15A C10A 1_555 1_555
C11A O18A 1_555 1_555
H16A C11A 1_555 1_555
C12A O19A 1_555 1_555
H17A C12A 1_555 1_555
H18A C12A 1_555 1_555
O8A C21A 1_555 1_555
O9A C20A 1_555 1_555
O12A C15A 1_555 1_555
O13A Na3 1_555 1_555
O20A C10 1_555 1_555
O21A C13A 1_555 1_555
O22A H3A 1_555 1_555
O23A C16A 1_555 1_555
O24A C19A 1_555 1_555
O25A H4A 1_555 1_555
C13A O20A 1_555 1_555
H19A C13A 1_555 1_555
C14A O13A 1_555 1_555
H20A C14A 1_555 1_555
C15A C14A 1_555 1_555
H21A C15A 1_555 1_555
C16A C15A 1_555 1_555
H22A C16A 1_555 1_555
C17A O21A 1_555 1_555
H23A C17A 1_555 1_555
C18A O22A 1_555 1_555
H24A C18A 1_555 1_555
H25A C18A 1_555 1_555
C19A O23A 1_555 1_555
H26A C19A 1_555 1_555
C20A C19A 1_555 1_555
H27A C20A 1_555 1_555
C21A C20A 1_555 1_555
H28A C21A 1_555 1_555
C22A O14A 1_555 1_555
H29A C22A 1_555 1_555
C23A O24A 1_555 1_555
H30A C23A 1_555 1_555
C24A O25A 1_555 1_555
H31A C24A 1_555 1_555
H32A C24A 1_555 1_555
V1A O6A 1_555 1_555
V2A O10A 1_555 1_555
Na1A O6A 1_555 1_555
Na2A O7A 1_555 1_555
Na3A O13 1_555 1_555
O1A V1A 1_555 1_555
O2A V2A 1_555 1_555
O3A Na1A 1_555 1_555
O4A Na2A 1_555 1_555
O5A Na3A 1_555 1_555
V1B O8A 1_555 1_555
V2B O12A 1_555 1_555
Na2B O9A 1_555 1_555
O1B V1B 1_555 1_555
O2B V2B 1_555 1_555
O4B Na2B 1_555 1_555
O6B Na1A 1_555 1_555
O7B V1B 1_555 1_555
O8B V1A 1_555 1_555
O9B V1A 1_555 1_555
O10B V2B 1_555 1_555
O11B Na3 1_555 1_555
O12B V2A 1_555 1_555
O13B V2A 1_555 1_555
O14B C1B 1_555 1_555
O15B C1B 1_555 1_555
O16B H1B 1_555 1_555
O17B C4B 1_555 1_555
O18B C7B 1_555 1_555
O19B H2B 1_555 1_555
O20B C13B 1_555 1_555
O21B C13B 1_555 1_555
O22B H3B 1_555 1_555
O23B C16B 1_555 1_555
O24B C19B 1_555 1_555
O25B H4B 1_555 1_555
C1B H5B 1_555 1_555
C2B O6B 1_555 1_555
H6B C2B 1_555 1_555
C3B O7B 1_555 1_555
H7B C3B 1_555 1_555
C4B C3B 1_555 1_555
H8B C4B 1_555 1_555
C5B O15B 1_555 1_555
H9B C5B 1_555 1_555
C6B O16B 1_555 1_555
H10B C6B 1_555 1_555
H11B C6B 1_555 1_555
C7B O17B 1_555 1_555
H12B C7B 1_555 1_555
C8B O10B 1_555 1_555
H13B C8B 1_555 1_555
C9B O11B 1_555 1_555
H14B C9B 1_555 1_555
C10B C9B 1_555 1_555
H15B C10B 1_555 1_555
C11B O18B 1_555 1_555
H16B C11B 1_555 1_555
C12B O19B 1_555 1_555
H17B C12B 1_555 1_555
H18B C12B 1_555 1_555
C13B H19B 1_555 1_555
C14B O13B 1_555 1_555
H20B C14B 1_555 1_555
C15B O12B 1_555 1_555
H21B C15B 1_555 1_555
C16B C15B 1_555 1_555
H22B C16B 1_555 1_555
C17B O21B 1_555 1_555
H23B C17B 1_555 1_555
C18B O22B 1_555 1_555
H24B C18B 1_555 1_555
H25B C18B 1_555 1_555
C19B O23B 1_555 1_555
H26B C19B 1_555 1_555
C20B O9B 1_555 1_555
H27B C20B 1_555 1_555
C21B O8B 1_555 1_555
H28B C21B 1_555 1_555
C22B O14B 1_555 1_555
H29B C22B 1_555 1_555
C23B O24B 1_555 1_555
H30B C23B 1_555 1_555
C24B O25B 1_555 1_555
H31B C24B 1_555 1_555
H32B C24B 1_555 1_555
O6C Na1 1_555 1_555
O7C C3C 1_555 1_555
O10C C8C 1_555 1_555
O11C Na3A 1_555 1_555
O14C C1C 1_555 1_555
O15C C1C 1_555 1_555
O16C H1C 1_555 1_555
O17C C4C 1_555 1_555
O18C C7C 1_555 1_555
O19C H2C 1_555 1_555
C1C H5C 1_555 1_555
C2C O6C 1_555 1_555
H6C C2C 1_555 1_555
C3C C2C 1_555 1_555
H7C C3C 1_555 1_555
C4C C3C 1_555 1_555
H8C C4C 1_555 1_555
C5C O15C 1_555 1_555
H9C C5C 1_555 1_555
C6C O16C 1_555 1_555
H10C C6C 1_555 1_555
H11C C6C 1_555 1_555
C7C O17C 1_555 1_555
H12C C7C 1_555 1_555
C8C C7C 1_555 1_555
H13C C8C 1_555 1_555
C9C O11C 1_555 1_555
H14C C9C 1_555 1_555
C10C O20B 1_555 1_555
H15C C10C 1_555 1_555
C11C O18C 1_555 1_555
H16C C11C 1_555 1_555
C12C O19C 1_555 1_555
H17C C12C 1_555 1_555
H18C C12C 1_555 1_555
O8C V1 1_555 1_555
O9C V1 1_555 1_555
O12C V2 1_555 1_555
O13C V2 1_555 1_555
O20C C10B 1_555 1_555
O21C C13C 1_555 1_555
O22C H3C 1_555 1_555
O23C C16C 1_555 1_555
O24C C19C 1_555 1_555
O25C H4C 1_555 1_555
C13C O20C 1_555 1_555
H19C C13C 1_555 1_555
C14C O13C 1_555 1_555
H20C C14C 1_555 1_555
C15C O12C 1_555 1_555
H21C C15C 1_555 1_555
C16C C15C 1_555 1_555
H22C C16C 1_555 1_555
C17C O21C 1_555 1_555
H23C C17C 1_555 1_555
C18C O22C 1_555 1_555
H24C C18C 1_555 1_555
H25C C18C 1_555 1_555
C19C O23C 1_555 1_555
H26C C19C 1_555 1_555
C20C O9C 1_555 1_555
H27C C20C 1_555 1_555
C21C O8C 1_555 1_555
H28C C21C 1_555 1_555
C22C O14C 1_555 1_555
H29C C22C 1_555 1_555
C23C O24C 1_555 1_555
H30C C23C 1_555 1_555
C24C O25C 1_555 1_555
H31C C24C 1_555 1_555
H32C C24C 1_555 1_555
V1C O8 1_555 1_555
V2C O12 1_555 1_555
Na2C O9 1_555 1_555
O1C V1C 1_555 1_555
O2C V2C 1_555 1_555
O4C Na2C 1_555 1_555
Na1 O6 1_555 1_555
Na1 O8C 1_555 1_555
Na2 O7 1_555 1_555
Na2 O10 1_555 1_555
Na2 O9C 1_555 1_555
Na2 O12C 1_555 1_555
Na3 O11 1_555 1_555
Na3 O13C 1_555 1_555
O9 V1C 1_555 1_555
O12 Na2C 1_555 1_555
O13 V2C 1_555 1_555
C1 C2 1_555 1_555
C2 C3 1_555 1_555
C4 C5 1_555 1_555
C5 C6 1_555 1_555
C7 C8 1_555 1_555
C8 C9 1_555 1_555
C10 C11 1_555 1_555
C11 C12 1_555 1_555
C16 C17 1_555 1_555
C17 C18 1_555 1_555
C20 C21 1_555 1_555
C21 C22 1_555 1_555
C22 C23 1_555 1_555
C23 C24 1_555 1_555
O7A V1A 1_555 1_555
O10A Na2A 1_555 1_555
O11A V2A 1_555 1_555
O11A Na3A 1_555 1_555
C4A C5A 1_555 1_555
C5A C6A 1_555 1_555
C9A C10A 1_555 1_555
C10A C11A 1_555 1_555
C11A C12A 1_555 1_555
O8A Na1A 1_555 1_555
O9A V1B 1_555 1_555
O12A Na2B 1_555 1_555
O13A V2B 1_555 1_555
C13A C14A 1_555 1_555
C16A C17A 1_555 1_555
C17A C18A 1_555 1_555
C21A C22A 1_555 1_555
C22A C23A 1_555 1_555
C23A C24A 1_555 1_555
Na1A O8B 1_555 1_555
Na2A O9B 1_555 1_555
Na2A O12B 1_555 1_555
Na3A O13B 1_555 1_555
V1B O6B 1_555 1_555
V2B O11B 1_555 1_555
Na2B O7B 1_555 1_555
Na2B O10B 1_555 1_555
C1B C2B 1_555 1_555
C2B C3B 1_555 1_555
C4B C5B 1_555 1_555
C5B C6B 1_555 1_555
C7B C8B 1_555 1_555
C8B C9B 1_555 1_555
C10B C11B 1_555 1_555
C11B C12B 1_555 1_555
C13B C14B 1_555 1_555
C14B C15B 1_555 1_555
C16B C17B 1_555 1_555
C17B C18B 1_555 1_555
C19B C20B 1_555 1_555
C20B C21B 1_555 1_555
C21B C22B 1_555 1_555
C22B C23B 1_555 1_555
C23B C24B 1_555 1_555
O6C V1C 1_555 1_555
O7C V1C 1_555 1_555
O7C Na2C 1_555 1_555
O10C V2C 1_555 1_555
O10C Na2C 1_555 1_555
O11C V2C 1_555 1_555
C1C C2C 1_555 1_555
C4C C5C 1_555 1_555
C5C C6C 1_555 1_555
C8C C9C 1_555 1_555
C9C C10C 1_555 1_555
C10C C11C 1_555 1_555
C11C C12C 1_555 1_555
C13C C14C 1_555 1_555
C14C C15C 1_555 1_555
C16C C17C 1_555 1_555
C17C C18C 1_555 1_555
C19C C20C 1_555 1_555
C20C C21C 1_555 1_555
C21C C22C 1_555 1_555
C22C C23C 1_555 1_555
C23C C24C 1_555 1_555

#END
