
#######################################################################
#
#                 Cambridge Crystallographic Data Centre
#                                CCDC 
#
#######################################################################
#
# If this CIF has been generated from an entry in the Cambridge 
# Structural Database, then it will include bibliographic, chemical, 
# crystal, experimental, refinement or atomic coordinate data resulting 
# from the CCDC's data processing and validation procedures.
#
#######################################################################

data_CADVAH
_chemical_formula_moiety         'C72 H108 Na6 O72 V6 6-,94(H2 O1),6(Na1 1+)'
_chemical_name_systematic        
'hexa-sodium bis(\m-\a-cyclodextrin)-hexaaqua-hexaoxo-nexa-sodium-hexa-vanadium tetranonacontahydrate'
_symmetry_cell_setting           hexagonal
_symmetry_space_group_name_H-M   'P 6 2 2'
_symmetry_Int_Tables_number      177
_space_group_name_Hall           "P 6 2'"
loop_
_symmetry_equiv_pos_site_id
_symmetry_equiv_pos_as_xyz
1 x,y,z
2 -y,x-y,z
3 -x+y,-x,z
4 -x,-y,z
5 y,-x+y,z
6 x-y,x,z
7 y,x,-z
8 x-y,-y,-z
9 -x,-x+y,-z
10 -y,-x,-z
11 -x+y,y,-z
12 x,x-y,-z
_cell_length_a                   18.0452(10)
_cell_length_b                   18.0452(10)
_cell_length_c                   31.000(2)
_cell_angle_alpha                90
_cell_angle_beta                 90
_cell_angle_gamma                120
_cell_volume                     8742.1
_exptl_crystal_colour            blue
_exptl_crystal_description       plate
_cell_formula_units_Z            2
loop_
_atom_site_label
_atom_site_type_symbol
_atom_site_fract_x
_atom_site_fract_y
_atom_site_fract_z
V1 V 0.31646(3) 0.38763(3) 0.24888(2)
Na1 Na 0.31908(9) 0.20768(9) 0.24899(5)
O1 O 0.39716(16) 0.48551(16) 0.24935(9)
O2 O 0.23507(14) 0.38847(16) 0.29165(7)
O3 O 0.32774(15) 0.31481(16) 0.29177(6)
O4 O 0.34816(15) 0.32742(16) 0.20542(7)
O5 O 0.22865(16) 0.36789(15) 0.20651(8)
O6 O 0.1700(3) 0.1122(2) 0.2472(2)
O7 O 0.3125(3) 0.2842(3) 0.46187(10)
H1 H 0.3502 0.2702 0.4594
O8 O 0.21186(17) 0.31710(18) 0.40393(7)
O9 O 0.10372(16) 0.27973(17) 0.35243(8)
O10 O 0.2047(2) 0.3517(2) 0.03952(9)
H2 H 0.2497 0.3782 0.0541
O11 O 0.27805(15) 0.28385(15) 0.09352(7)
O12 O 0.08866(15) 0.27597(15) 0.14369(7)
C1 C 0.1843(2) 0.3442(2) 0.36712(9)
H3 H 0.1814 0.3967 0.3745
C2 C 0.2527(2) 0.3658(2) 0.33257(10)
H4 H 0.3079 0.4146 0.3433
C3 C 0.2663(2) 0.2902(2) 0.32362(10)
H5 H 0.2116 0.2428 0.3116
C4 C 0.2860(2) 0.2571(2) 0.36419(10)
H6 H 0.3450 0.2983 0.3746
C5 C 0.2188(2) 0.2431(3) 0.39932(10)
H7 H 0.1620 0.1951 0.3898
C6 C 0.2376(3) 0.2218(3) 0.44460(11)
H8 H 0.1900 0.2118 0.4641
H9 H 0.2395 0.1680 0.4431
C7 C 0.3166(2) 0.2723(2) 0.12992(9)
H10 H 0.3778 0.2915 0.1232
C8 C 0.3130(2) 0.3297(2) 0.16577(9)
H11 H 0.3461 0.3900 0.1551
C9 C 0.2229(2) 0.3107(2) 0.17350(10)
H12 H 0.1902 0.2515 0.1856
C10 C 0.1770(2) 0.3125(2) 0.13285(9)
H13 H 0.2006 0.3727 0.1225
C11 C 0.1890(2) 0.2596(2) 0.09903(11)
H14 H 0.1563 0.1982 0.1080
C12 C 0.1590(2) 0.2677(2) 0.05331(10)
H15 H 0.1678 0.2305 0.0330
H16 H 0.0972 0.2487 0.0539
O2D O 0.38847(16) 0.15340(21) 0.29165(7)
O3D O 0.31481(16) -0.01293(22) 0.29177(6)
O7D O 0.2842(3) -0.0283(4) 0.46187(10)
H1D H 0.2702 -0.0800 0.4594
O8D O 0.31710(18) 0.10524(25) 0.40393(7)
O9D O 0.27973(17) 0.17601(23) 0.35243(8)
C1D C 0.3442(2) 0.1599(3) 0.36712(9)
H3D H 0.3967 0.2153 0.3745
C2D C 0.3658(2) 0.1131(3) 0.33257(10)
H4D H 0.4146 0.1067 0.3433
C3D C 0.2902(2) 0.0239(3) 0.32362(10)
H5D H 0.2428 0.0312 0.3116
C4D C 0.2571(2) -0.0289(3) 0.36419(10)
H6D H 0.2983 -0.0467 0.3746
C5D C 0.2431(3) 0.0243(4) 0.39932(10)
H7D H 0.1951 0.0331 0.3898
C6D C 0.2218(3) -0.0158(4) 0.44460(11)
H8D H 0.2118 0.0218 0.4641
H9D H 0.1680 -0.0715 0.4431
O2E O -0.15340(21) 0.23507(14) 0.29165(7)
O3E O 0.01293(22) 0.32774(15) 0.29177(6)
O7E O 0.0283(4) 0.3125(3) 0.46187(10)
H1E H 0.0800 0.3502 0.4594
O8E O -0.10524(25) 0.21186(17) 0.40393(7)
O9E O -0.17601(23) 0.10372(16) 0.35243(8)
C1E C -0.1599(3) 0.1843(2) 0.36712(9)
H3E H -0.2153 0.1814 0.3745
C2E C -0.1131(3) 0.2527(2) 0.33257(10)
H4E H -0.1067 0.3079 0.3433
C3E C -0.0239(3) 0.2663(2) 0.32362(10)
H5E H -0.0312 0.2116 0.3116
C4E C 0.0289(3) 0.2860(2) 0.36419(10)
H6E H 0.0467 0.3450 0.3746
C5E C -0.0243(4) 0.2188(2) 0.39932(10)
H7E H -0.0331 0.1620 0.3898
C6E C 0.0158(4) 0.2376(3) 0.44460(11)
H8E H -0.0218 0.1900 0.4641
H9E H 0.0715 0.2395 0.4431
O2A O -0.38847(16) -0.15340(21) 0.29165(7)
O3A O -0.31481(16) 0.01293(22) 0.29177(6)
O7A O -0.2842(3) 0.0283(4) 0.46187(10)
H1A H -0.2702 0.0800 0.4594
O8A O -0.31710(18) -0.10524(25) 0.40393(7)
O9A O -0.27973(17) -0.17601(23) 0.35243(8)
C1A C -0.3442(2) -0.1599(3) 0.36712(9)
H3A H -0.3967 -0.2153 0.3745
C2A C -0.3658(2) -0.1131(3) 0.33257(10)
H4A H -0.4146 -0.1067 0.3433
C3A C -0.2902(2) -0.0239(3) 0.32362(10)
H5A H -0.2428 -0.0312 0.3116
C4A C -0.2571(2) 0.0289(3) 0.36419(10)
H6A H -0.2983 0.0467 0.3746
C5A C -0.2431(3) -0.0243(4) 0.39932(10)
H7A H -0.1951 -0.0331 0.3898
C6A C -0.2218(3) 0.0158(4) 0.44460(11)
H8A H -0.2118 -0.0218 0.4641
H9A H -0.1680 0.0715 0.4431
O2B O 0.15340(21) -0.23507(14) 0.29165(7)
O3B O -0.01293(22) -0.32774(15) 0.29177(6)
O7B O -0.0283(4) -0.3125(3) 0.46187(10)
H1B H -0.0800 -0.3502 0.4594
O8B O 0.10524(25) -0.21186(17) 0.40393(7)
O9B O 0.17601(23) -0.10372(16) 0.35243(8)
C1B C 0.1599(3) -0.1843(2) 0.36712(9)
H3B H 0.2153 -0.1814 0.3745
C2B C 0.1131(3) -0.2527(2) 0.33257(10)
H4B H 0.1067 -0.3079 0.3433
C3B C 0.0239(3) -0.2663(2) 0.32362(10)
H5B H 0.0312 -0.2116 0.3116
C4B C -0.0289(3) -0.2860(2) 0.36419(10)
H6B H -0.0467 -0.3450 0.3746
C5B C 0.0243(4) -0.2188(2) 0.39932(10)
H7B H 0.0331 -0.1620 0.3898
C6B C -0.0158(4) -0.2376(3) 0.44460(11)
H8B H 0.0218 -0.1900 0.4641
H9B H -0.0715 -0.2395 0.4431
O2C O -0.23507(14) -0.38847(16) 0.29165(7)
O3C O -0.32774(15) -0.31481(16) 0.29177(6)
O7C O -0.3125(3) -0.2842(3) 0.46187(10)
H1C H -0.3502 -0.2702 0.4594
O8C O -0.21186(17) -0.31710(18) 0.40393(7)
O9C O -0.10372(16) -0.27973(17) 0.35243(8)
C1C C -0.1843(2) -0.3442(2) 0.36712(9)
H3C H -0.1814 -0.3967 0.3745
C2C C -0.2527(2) -0.3658(2) 0.33257(10)
H4C H -0.3079 -0.4146 0.3433
C3C C -0.2663(2) -0.2902(2) 0.32362(10)
H5C H -0.2116 -0.2428 0.3116
C4C C -0.2860(2) -0.2571(2) 0.36419(10)
H6C H -0.3450 -0.2983 0.3746
C5C C -0.2188(2) -0.2431(3) 0.39932(10)
H7C H -0.1620 -0.1951 0.3898
C6C C -0.2376(3) -0.2218(3) 0.44460(11)
H8C H -0.1900 -0.2118 0.4641
H9C H -0.2395 -0.1680 0.4431
O4D O 0.32742(16) -0.02074(22) 0.20542(7)
O5D O 0.36789(15) 0.13924(22) 0.20651(8)
O10D O 0.3517(2) 0.1470(3) 0.03952(9)
H2D H 0.3782 0.1285 0.0541
O11D O 0.28385(15) 0.00580(21) 0.09352(7)
O12D O 0.27597(15) 0.18731(21) 0.14369(7)
C7D C 0.2723(2) -0.0443(3) 0.12992(9)
H10D H 0.2915 -0.0863 0.1232
C8D C 0.3297(2) 0.0167(3) 0.16577(9)
H11D H 0.3900 0.0439 0.1551
C9D C 0.3107(2) 0.0878(3) 0.17350(10)
H12D H 0.2515 0.0613 0.1856
C10D C 0.3125(2) 0.1355(3) 0.13285(9)
H13D H 0.3727 0.1721 0.1225
C11D C 0.2596(2) 0.0706(3) 0.09903(11)
H14D H 0.1982 0.0419 0.1080
C12D C 0.2677(2) 0.1087(3) 0.05331(10)
H15D H 0.2305 0.0627 0.0330
H16D H 0.2487 0.1515 0.0539
O4E O 0.02074(22) 0.34816(15) 0.20542(7)
O5E O -0.13924(22) 0.22865(16) 0.20651(8)
O10E O -0.1470(3) 0.2047(2) 0.03952(9)
H2E H -0.1285 0.2497 0.0541
O11E O -0.00580(21) 0.27805(15) 0.09352(7)
O12E O -0.18731(21) 0.08866(15) 0.14369(7)
C7E C 0.0443(3) 0.3166(2) 0.12992(9)
H10E H 0.0863 0.3778 0.1232
C8E C -0.0167(3) 0.3130(2) 0.16577(9)
H11E H -0.0439 0.3461 0.1551
C9E C -0.0878(3) 0.2229(2) 0.17350(10)
H12E H -0.0613 0.1902 0.1856
C10E C -0.1355(3) 0.1770(2) 0.13285(9)
H13E H -0.1721 0.2006 0.1225
C11E C -0.0706(3) 0.1890(2) 0.09903(11)
H14E H -0.0419 0.1563 0.1080
C12E C -0.1087(3) 0.1590(2) 0.05331(10)
H15E H -0.0627 0.1678 0.0330
H16E H -0.1515 0.0972 0.0539
O4A O -0.32742(16) 0.02074(22) 0.20542(7)
O5A O -0.36789(15) -0.13924(22) 0.20651(8)
O10A O -0.3517(2) -0.1470(3) 0.03952(9)
H2A H -0.3782 -0.1285 0.0541
O11A O -0.28385(15) -0.00580(21) 0.09352(7)
O12A O -0.27597(15) -0.18731(21) 0.14369(7)
C7A C -0.2723(2) 0.0443(3) 0.12992(9)
H10A H -0.2915 0.0863 0.1232
C8A C -0.3297(2) -0.0167(3) 0.16577(9)
H11A H -0.3900 -0.0439 0.1551
C9A C -0.3107(2) -0.0878(3) 0.17350(10)
H12A H -0.2515 -0.0613 0.1856
C10A C -0.3125(2) -0.1355(3) 0.13285(9)
H13A H -0.3727 -0.1721 0.1225
C11A C -0.2596(2) -0.0706(3) 0.09903(11)
H14A H -0.1982 -0.0419 0.1080
C12A C -0.2677(2) -0.1087(3) 0.05331(10)
H15A H -0.2305 -0.0627 0.0330
H16A H -0.2487 -0.1515 0.0539
O4B O -0.02074(22) -0.34816(15) 0.20542(7)
O5B O 0.13924(22) -0.22865(16) 0.20651(8)
O10B O 0.1470(3) -0.2047(2) 0.03952(9)
H2B H 0.1285 -0.2497 0.0541
O11B O 0.00580(21) -0.27805(15) 0.09352(7)
O12B O 0.18731(21) -0.08866(15) 0.14369(7)
C7B C -0.0443(3) -0.3166(2) 0.12992(9)
H10B H -0.0863 -0.3778 0.1232
C8B C 0.0167(3) -0.3130(2) 0.16577(9)
H11B H 0.0439 -0.3461 0.1551
C9B C 0.0878(3) -0.2229(2) 0.17350(10)
H12B H 0.0613 -0.1902 0.1856
C10B C 0.1355(3) -0.1770(2) 0.13285(9)
H13B H 0.1721 -0.2006 0.1225
C11B C 0.0706(3) -0.1890(2) 0.09903(11)
H14B H 0.0419 -0.1563 0.1080
C12B C 0.1087(3) -0.1590(2) 0.05331(10)
H15B H 0.0627 -0.1678 0.0330
H16B H 0.1515 -0.0972 0.0539
O4C O -0.34816(15) -0.32742(16) 0.20542(7)
O5C O -0.22865(16) -0.36789(15) 0.20651(8)
O10C O -0.2047(2) -0.3517(2) 0.03952(9)
H2C H -0.2497 -0.3782 0.0541
O11C O -0.27805(15) -0.28385(15) 0.09352(7)
O12C O -0.08866(15) -0.27597(15) 0.14369(7)
C7C C -0.3166(2) -0.2723(2) 0.12992(9)
H10C H -0.3778 -0.2915 0.1232
C8C C -0.3130(2) -0.3297(2) 0.16577(9)
H11C H -0.3461 -0.3900 0.1551
C9C C -0.2229(2) -0.3107(2) 0.17350(10)
H12C H -0.1902 -0.2515 0.1856
C10C C -0.1770(2) -0.3125(2) 0.13285(9)
H13C H -0.2006 -0.3727 0.1225
C11C C -0.1890(2) -0.2596(2) 0.09903(11)
H14C H -0.1563 -0.1982 0.1080
C12C C -0.1590(2) -0.2677(2) 0.05331(10)
H15C H -0.1678 -0.2305 0.0330
H16C H -0.0972 -0.2487 0.0539
V1A V -0.38763(3) -0.07117(4) 0.24888(2)
Na1A Na -0.20768(9) 0.11140(13) 0.24899(5)
O1A O -0.48551(16) -0.08835(23) 0.24935(9)
O6A O -0.1122(2) 0.0578(4) 0.2472(2)
V1B V 0.07117(4) -0.31646(3) 0.24888(2)
Na1B Na -0.11140(13) -0.31908(9) 0.24899(5)
O1B O 0.08835(23) -0.39716(16) 0.24935(9)
O6B O -0.0578(4) -0.1700(3) 0.2472(2)
V1C V -0.31646(3) -0.38763(3) 0.24888(2)
Na1C Na -0.31908(9) -0.20768(9) 0.24899(5)
O1C O -0.39716(16) -0.48551(16) 0.24935(9)
O6C O -0.1700(3) -0.1122(2) 0.2472(2)
V1D V 0.38763(3) 0.07117(4) 0.24888(2)
Na1D Na 0.20768(9) -0.11140(13) 0.24899(5)
O1D O 0.48551(16) 0.08835(23) 0.24935(9)
O6D O 0.1122(2) -0.0578(4) 0.2472(2)
V1E V -0.07117(4) 0.31646(3) 0.24888(2)
Na1E Na 0.11140(13) 0.31908(9) 0.24899(5)
O1E O -0.08835(23) 0.39716(16) 0.24935(9)
O6E O 0.0578(4) 0.1700(3) 0.2472(2)
loop_
_geom_bond_atom_site_label_1
_geom_bond_atom_site_label_2
_geom_bond_site_symmetry_1
_geom_bond_site_symmetry_2
V1 O1 1_555 1_555
Na1 O3 1_555 1_555
O2 V1 1_555 1_555
O3 V1 1_555 1_555
O4 V1 1_555 1_555
O5 V1 1_555 1_555
O6 Na1 1_555 1_555
O7 H1 1_555 1_555
O8 C1 1_555 1_555
O9 C1 1_555 1_555
O10 H2 1_555 1_555
O11 C7 1_555 1_555
O12 C10 1_555 1_555
C1 H3 1_555 1_555
C2 O2 1_555 1_555
H4 C2 1_555 1_555
C3 O3 1_555 1_555
H5 C3 1_555 1_555
C4 C3 1_555 1_555
H6 C4 1_555 1_555
C5 O8 1_555 1_555
H7 C5 1_555 1_555
C6 O7 1_555 1_555
H8 C6 1_555 1_555
H9 C6 1_555 1_555
C7 H10 1_555 1_555
C8 O4 1_555 1_555
H11 C8 1_555 1_555
C9 O5 1_555 1_555
H12 C9 1_555 1_555
C10 C9 1_555 1_555
H13 C10 1_555 1_555
C11 O11 1_555 1_555
H14 C11 1_555 1_555
C12 O10 1_555 1_555
H15 C12 1_555 1_555
H16 C12 1_555 1_555
O2D Na1 1_555 1_555
O3D C3D 1_555 1_555
O7D H1D 1_555 1_555
O8D C1D 1_555 1_555
O9D C4 1_555 1_555
C1D O9D 1_555 1_555
H3D C1D 1_555 1_555
C2D O2D 1_555 1_555
H4D C2D 1_555 1_555
C3D C2D 1_555 1_555
H5D C3D 1_555 1_555
C4D C3D 1_555 1_555
H6D C4D 1_555 1_555
C5D O8D 1_555 1_555
H7D C5D 1_555 1_555
C6D O7D 1_555 1_555
H8D C6D 1_555 1_555
H9D C6D 1_555 1_555
O2E C2E 1_555 1_555
O3E C3E 1_555 1_555
O7E H1E 1_555 1_555
O8E C1E 1_555 1_555
O9E C1E 1_555 1_555
C1E H3E 1_555 1_555
C2E C1E 1_555 1_555
H4E C2E 1_555 1_555
C3E C2E 1_555 1_555
H5E C3E 1_555 1_555
C4E O9 1_555 1_555
H6E C4E 1_555 1_555
C5E O8E 1_555 1_555
H7E C5E 1_555 1_555
C6E O7E 1_555 1_555
H8E C6E 1_555 1_555
H9E C6E 1_555 1_555
O2A C2A 1_555 1_555
O3A C3A 1_555 1_555
O7A H1A 1_555 1_555
O8A C1A 1_555 1_555
O9A C1A 1_555 1_555
C1A H3A 1_555 1_555
C2A C1A 1_555 1_555
H4A C2A 1_555 1_555
C3A C2A 1_555 1_555
H5A C3A 1_555 1_555
C4A O9E 1_555 1_555
H6A C4A 1_555 1_555
C5A O8A 1_555 1_555
H7A C5A 1_555 1_555
C6A O7A 1_555 1_555
H8A C6A 1_555 1_555
H9A C6A 1_555 1_555
O2B C2B 1_555 1_555
O3B C3B 1_555 1_555
O7B H1B 1_555 1_555
O8B C1B 1_555 1_555
O9B C4D 1_555 1_555
C1B O9B 1_555 1_555
H3B C1B 1_555 1_555
C2B C1B 1_555 1_555
H4B C2B 1_555 1_555
C3B C2B 1_555 1_555
H5B C3B 1_555 1_555
C4B C3B 1_555 1_555
H6B C4B 1_555 1_555
C5B O8B 1_555 1_555
H7B C5B 1_555 1_555
C6B O7B 1_555 1_555
H8B C6B 1_555 1_555
H9B C6B 1_555 1_555
O2C C2C 1_555 1_555
O3C C3C 1_555 1_555
O7C H1C 1_555 1_555
O8C C1C 1_555 1_555
O9C C4B 1_555 1_555
C1C O9C 1_555 1_555
H3C C1C 1_555 1_555
C2C C1C 1_555 1_555
H4C C2C 1_555 1_555
C3C C2C 1_555 1_555
H5C C3C 1_555 1_555
C4C O9A 1_555 1_555
H6C C4C 1_555 1_555
C5C O8C 1_555 1_555
H7C C5C 1_555 1_555
C6C O7C 1_555 1_555
H8C C6C 1_555 1_555
H9C C6C 1_555 1_555
O4D C8D 1_555 1_555
O5D Na1 1_555 1_555
O10D H2D 1_555 1_555
O11D C7D 1_555 1_555
O12D C7 1_555 1_555
C7D H10D 1_555 1_555
C8D C7D 1_555 1_555
H11D C8D 1_555 1_555
C9D O5D 1_555 1_555
H12D C9D 1_555 1_555
C10D O12D 1_555 1_555
H13D C10D 1_555 1_555
C11D O11D 1_555 1_555
H14D C11D 1_555 1_555
C12D O10D 1_555 1_555
H15D C12D 1_555 1_555
H16D C12D 1_555 1_555
O4E C8E 1_555 1_555
O5E C9E 1_555 1_555
O10E H2E 1_555 1_555
O11E C7E 1_555 1_555
O12E C10E 1_555 1_555
C7E O12 1_555 1_555
H10E C7E 1_555 1_555
C8E C7E 1_555 1_555
H11E C8E 1_555 1_555
C9E C8E 1_555 1_555
H12E C9E 1_555 1_555
C10E C9E 1_555 1_555
H13E C10E 1_555 1_555
C11E O11E 1_555 1_555
H14E C11E 1_555 1_555
C12E O10E 1_555 1_555
H15E C12E 1_555 1_555
H16E C12E 1_555 1_555
O4A C8A 1_555 1_555
O5A C9A 1_555 1_555
O10A H2A 1_555 1_555
O11A C7A 1_555 1_555
O12A C10A 1_555 1_555
C7A O12E 1_555 1_555
H10A C7A 1_555 1_555
C8A C7A 1_555 1_555
H11A C8A 1_555 1_555
C9A C8A 1_555 1_555
H12A C9A 1_555 1_555
C10A C9A 1_555 1_555
H13A C10A 1_555 1_555
C11A O11A 1_555 1_555
H14A C11A 1_555 1_555
C12A O10A 1_555 1_555
H15A C12A 1_555 1_555
H16A C12A 1_555 1_555
O4B C8B 1_555 1_555
O5B C9B 1_555 1_555
O10B H2B 1_555 1_555
O11B C7B 1_555 1_555
O12B C7D 1_555 1_555
C7B H10B 1_555 1_555
C8B C7B 1_555 1_555
H11B C8B 1_555 1_555
C9B C8B 1_555 1_555
H12B C9B 1_555 1_555
C10B O12B 1_555 1_555
H13B C10B 1_555 1_555
C11B O11B 1_555 1_555
H14B C11B 1_555 1_555
C12B O10B 1_555 1_555
H15B C12B 1_555 1_555
H16B C12B 1_555 1_555
O4C C8C 1_555 1_555
O5C C9C 1_555 1_555
O10C H2C 1_555 1_555
O11C C7C 1_555 1_555
O12C C7B 1_555 1_555
C7C O12A 1_555 1_555
H10C C7C 1_555 1_555
C8C C7C 1_555 1_555
H11C C8C 1_555 1_555
C9C C8C 1_555 1_555
H12C C9C 1_555 1_555
C10C O12C 1_555 1_555
H13C C10C 1_555 1_555
C11C O11C 1_555 1_555
H14C C11C 1_555 1_555
C12C O10C 1_555 1_555
H15C C12C 1_555 1_555
H16C C12C 1_555 1_555
V1A O2A 1_555 1_555
Na1A O2E 1_555 1_555
O1A V1A 1_555 1_555
O6A Na1A 1_555 1_555
V1B O2B 1_555 1_555
Na1B O3B 1_555 1_555
O1B V1B 1_555 1_555
O6B Na1B 1_555 1_555
V1C O2C 1_555 1_555
Na1C O2A 1_555 1_555
O1C V1C 1_555 1_555
O6C Na1C 1_555 1_555
V1D O2D 1_555 1_555
Na1D O3D 1_555 1_555
O1D V1D 1_555 1_555
O6D Na1D 1_555 1_555
V1E O2E 1_555 1_555
Na1E O2 1_555 1_555
O1E V1E 1_555 1_555
O6E Na1E 1_555 1_555
Na1 O4 1_555 1_555
O5 Na1E 1_555 1_555
C1 C2 1_555 1_555
C2 C3 1_555 1_555
C4 C5 1_555 1_555
C5 C6 1_555 1_555
C7 C8 1_555 1_555
C8 C9 1_555 1_555
C10 C11 1_555 1_555
C11 C12 1_555 1_555
O3D V1D 1_555 1_555
C1D C2D 1_555 1_555
C4D C5D 1_555 1_555
C5D C6D 1_555 1_555
O3E V1E 1_555 1_555
O3E Na1E 1_555 1_555
C3E C4E 1_555 1_555
C4E C5E 1_555 1_555
C5E C6E 1_555 1_555
O3A V1A 1_555 1_555
O3A Na1A 1_555 1_555
C3A C4A 1_555 1_555
C4A C5A 1_555 1_555
C5A C6A 1_555 1_555
O2B Na1D 1_555 1_555
O3B V1B 1_555 1_555
C4B C5B 1_555 1_555
C5B C6B 1_555 1_555
O2C Na1B 1_555 1_555
O3C V1C 1_555 1_555
O3C Na1C 1_555 1_555
C3C C4C 1_555 1_555
C4C C5C 1_555 1_555
C5C C6C 1_555 1_555
O4D V1D 1_555 1_555
O4D Na1D 1_555 1_555
O5D V1D 1_555 1_555
C8D C9D 1_555 1_555
C9D C10D 1_555 1_555
C10D C11D 1_555 1_555
C11D C12D 1_555 1_555
O4E V1E 1_555 1_555
O4E Na1E 1_555 1_555
O5E Na1A 1_555 1_555
O5E V1E 1_555 1_555
C10E C11E 1_555 1_555
C11E C12E 1_555 1_555
O4A V1A 1_555 1_555
O4A Na1A 1_555 1_555
O5A V1A 1_555 1_555
O5A Na1C 1_555 1_555
C10A C11A 1_555 1_555
C11A C12A 1_555 1_555
O4B V1B 1_555 1_555
O4B Na1B 1_555 1_555
O5B V1B 1_555 1_555
O5B Na1D 1_555 1_555
C9B C10B 1_555 1_555
C10B C11B 1_555 1_555
C11B C12B 1_555 1_555
O4C V1C 1_555 1_555
O4C Na1C 1_555 1_555
O5C Na1B 1_555 1_555
O5C V1C 1_555 1_555
C9C C10C 1_555 1_555
C10C C11C 1_555 1_555
C11C C12C 1_555 1_555

#END
