# generated using pymatgen
data_Sc15Zn2H134C392N9O4
_symmetry_space_group_name_H-M   'P 1'
_cell_length_a   14.35760000
_cell_length_b   21.16940000
_cell_length_c   45.92060000
_cell_angle_alpha   90.00000000
_cell_angle_beta   90.00000000
_cell_angle_gamma   96.39400000
_symmetry_Int_Tables_number   1
_chemical_formula_structural   Sc15Zn2H134C392N9O4
_chemical_formula_sum   'Sc60 Zn8 H536 C1568 N36 O16'
_cell_volume   13870.36930251
_cell_formula_units_Z   4
loop_
 _symmetry_equiv_pos_site_id
 _symmetry_equiv_pos_as_xyz
  1  'x, y, z'
loop_
 _atom_site_type_symbol
 _atom_site_label
 _atom_site_symmetry_multiplicity
 _atom_site_fract_x
 _atom_site_fract_y
 _atom_site_fract_z
 _atom_site_occupancy
  Sc  Sc1  1  0.441330  0.219020  0.925420  1
  Sc  Sc2  1  0.058670  0.280980  0.425420  1
  Sc  Sc3  1  0.558670  0.780980  0.074580  1
  Sc  Sc4  1  0.941330  0.719020  0.574580  1
  Sc  Sc5  1  0.546300  0.247940  0.993660  1
  Sc  Sc6  1  0.953700  0.252060  0.493660  1
  Sc  Sc7  1  0.453700  0.752060  0.006340  1
  Sc  Sc8  1  0.046300  0.747940  0.506340  1
  Sc  Sc9  1  0.654790  0.311170  0.931980  1
  Sc  Sc10  1  0.845210  0.188830  0.431980  1
  Sc  Sc11  1  0.345210  0.688830  0.068020  1
  Sc  Sc12  1  0.154790  0.811170  0.568020  1
  Sc  Sc13  1  0.412200  0.234100  0.959570  1
  Sc  Sc14  1  0.087800  0.265900  0.459570  1
  Sc  Sc15  1  0.587800  0.765900  0.040430  1
  Sc  Sc16  1  0.912200  0.734100  0.540430  1
  Sc  Sc17  1  0.633500  0.301800  0.982090  1
  Sc  Sc18  1  0.866500  0.198200  0.482090  1
  Sc  Sc19  1  0.366500  0.698200  0.017910  1
  Sc  Sc20  1  0.133500  0.801800  0.517910  1
  Sc  Sc21  1  0.610400  0.211400  0.920230  1
  Sc  Sc22  1  0.889600  0.288600  0.420230  1
  Sc  Sc23  1  0.389600  0.788600  0.079770  1
  Sc  Sc24  1  0.110400  0.711400  0.579770  1
  Sc  Sc25  1  0.450220  0.257900  0.981710  1
  Sc  Sc26  1  0.049780  0.242100  0.481710  1
  Sc  Sc27  1  0.549780  0.742100  0.018290  1
  Sc  Sc28  1  0.950220  0.757900  0.518290  1
  Sc  Sc29  1  0.680600  0.298800  0.957930  1
  Sc  Sc30  1  0.819400  0.201200  0.457930  1
  Sc  Sc31  1  0.319400  0.701200  0.042070  1
  Sc  Sc32  1  0.180600  0.798800  0.542070  1
  Sc  Sc33  1  0.526100  0.204700  0.915470  1
  Sc  Sc34  1  0.973900  0.295300  0.415470  1
  Sc  Sc35  1  0.473900  0.795300  0.084530  1
  Sc  Sc36  1  0.026100  0.704700  0.584530  1
  Sc  Sc37  1  0.604000  0.278800  0.910770  1
  Sc  Sc38  1  0.896000  0.221200  0.410770  1
  Sc  Sc39  1  0.396000  0.721200  0.089230  1
  Sc  Sc40  1  0.104000  0.778800  0.589230  1
  Sc  Sc41  1  0.469400  0.324240  0.969160  1
  Sc  Sc42  1  0.030600  0.175760  0.469160  1
  Sc  Sc43  1  0.530600  0.675760  0.030840  1
  Sc  Sc44  1  0.969400  0.824240  0.530840  1
  Sc  Sc45  1  0.570000  0.185440  0.972640  1
  Sc  Sc46  1  0.930000  0.314560  0.472640  1
  Sc  Sc47  1  0.430000  0.814560  0.027360  1
  Sc  Sc48  1  0.070000  0.685440  0.527360  1
  Sc  Sc49  1  0.408240  0.272100  0.953670  1
  Sc  Sc50  1  0.091760  0.227900  0.453670  1
  Sc  Sc51  1  0.591760  0.727900  0.046330  1
  Sc  Sc52  1  0.908240  0.772100  0.546330  1
  Sc  Sc53  1  0.625120  0.253200  0.985360  1
  Sc  Sc54  1  0.874880  0.246800  0.485360  1
  Sc  Sc55  1  0.374880  0.746800  0.014640  1
  Sc  Sc56  1  0.125120  0.753200  0.514640  1
  Sc  Sc57  1  0.596800  0.240900  0.911240  1
  Sc  Sc58  1  0.903200  0.259100  0.411240  1
  Sc  Sc59  1  0.403200  0.759100  0.088760  1
  Sc  Sc60  1  0.096800  0.740900  0.588760  1
  Zn  Zn61  1  0.584370  0.498311  0.843328  1
  Zn  Zn62  1  0.915630  0.001689  0.343328  1
  Zn  Zn63  1  0.415630  0.501689  0.156672  1
  Zn  Zn64  1  0.084370  0.998311  0.656672  1
  Zn  Zn65  1  0.758890  0.036562  0.866498  1
  Zn  Zn66  1  0.741110  0.463438  0.366498  1
  Zn  Zn67  1  0.241110  0.963438  0.133502  1
  Zn  Zn68  1  0.258890  0.536562  0.633502  1
  H  H69  1  0.795800  0.386100  0.664300  1
  H  H70  1  0.704200  0.113900  0.164300  1
  H  H71  1  0.204200  0.613900  0.335700  1
  H  H72  1  0.295800  0.886100  0.835700  1
  H  H73  1  0.907500  0.354900  0.696900  1
  H  H74  1  0.592500  0.145100  0.196900  1
  H  H75  1  0.092500  0.645100  0.303100  1
  H  H76  1  0.407500  0.854900  0.803100  1
  H  H77  1  0.704500  0.240900  0.738600  1
  H  H78  1  0.795500  0.259100  0.238600  1
  H  H79  1  0.295500  0.759100  0.261400  1
  H  H80  1  0.204500  0.740900  0.761400  1
  H  H81  1  0.592800  0.272100  0.706000  1
  H  H82  1  0.907200  0.227900  0.206000  1
  H  H83  1  0.407200  0.727900  0.294000  1
  H  H84  1  0.092800  0.772100  0.794000  1
  H  H85  1  0.638200  0.352800  0.641800  1
  H  H86  1  0.861800  0.147200  0.141800  1
  H  H87  1  0.361800  0.647200  0.358200  1
  H  H88  1  0.138200  0.852800  0.858200  1
  H  H89  1  0.594100  0.392100  0.667100  1
  H  H90  1  0.905900  0.107900  0.167100  1
  H  H91  1  0.405900  0.607900  0.332900  1
  H  H92  1  0.094100  0.892100  0.832900  1
  H  H93  1  0.557100  0.318800  0.662100  1
  H  H94  1  0.942900  0.181200  0.162100  1
  H  H95  1  0.442900  0.681200  0.337900  1
  H  H96  1  0.057100  0.818800  0.837900  1
  H  H97  1  0.939400  0.308900  0.740000  1
  H  H98  1  0.560600  0.191100  0.240000  1
  H  H99  1  0.060600  0.691100  0.260000  1
  H  H100  1  0.439400  0.808900  0.760000  1
  H  H101  1  0.905100  0.235800  0.733300  1
  H  H102  1  0.594900  0.264200  0.233300  1
  H  H103  1  0.094900  0.764200  0.266700  1
  H  H104  1  0.405100  0.735800  0.766700  1
  H  H105  1  0.859200  0.271200  0.759600  1
  H  H106  1  0.640800  0.228800  0.259600  1
  H  H107  1  0.140800  0.728800  0.240400  1
  H  H108  1  0.359200  0.771200  0.740400  1
  H  H109  1  0.690000  0.905200  0.819700  1
  H  H110  1  0.810000  0.594800  0.319700  1
  H  H111  1  0.310000  0.094800  0.180300  1
  H  H112  1  0.190000  0.405200  0.680300  1
  H  H113  1  0.585100  0.812600  0.816900  1
  H  H114  1  0.914900  0.687400  0.316900  1
  H  H115  1  0.414900  0.187400  0.183100  1
  H  H116  1  0.085100  0.312600  0.683100  1
  H  H117  1  0.795200  0.707500  0.837200  1
  H  H118  1  0.704800  0.792500  0.337200  1
  H  H119  1  0.204800  0.292500  0.162800  1
  H  H120  1  0.295200  0.207500  0.662800  1
  H  H121  1  0.896900  0.800700  0.843400  1
  H  H122  1  0.603100  0.699300  0.343400  1
  H  H123  1  0.103100  0.199300  0.156600  1
  H  H124  1  0.396900  0.300700  0.656600  1
  H  H125  1  0.929600  0.908300  0.826500  1
  H  H126  1  0.570400  0.591700  0.326500  1
  H  H127  1  0.070400  0.091700  0.173500  1
  H  H128  1  0.429600  0.408300  0.673500  1
  H  H129  1  0.879900  0.936100  0.854100  1
  H  H130  1  0.620100  0.563900  0.354100  1
  H  H131  1  0.120100  0.063900  0.145900  1
  H  H132  1  0.379900  0.436100  0.645900  1
  H  H133  1  0.846700  0.952000  0.821900  1
  H  H134  1  0.653300  0.548000  0.321900  1
  H  H135  1  0.153300  0.048000  0.178100  1
  H  H136  1  0.346700  0.452000  0.678100  1
  H  H137  1  0.583900  0.706000  0.801800  1
  H  H138  1  0.916100  0.794000  0.301800  1
  H  H139  1  0.416100  0.294000  0.198200  1
  H  H140  1  0.083900  0.206000  0.698200  1
  H  H141  1  0.580500  0.680600  0.834600  1
  H  H142  1  0.919500  0.819400  0.334600  1
  H  H143  1  0.419500  0.319400  0.165400  1
  H  H144  1  0.080500  0.180600  0.665400  1
  H  H145  1  0.661200  0.662800  0.813100  1
  H  H146  1  0.838800  0.837200  0.313100  1
  H  H147  1  0.338800  0.337200  0.186900  1
  H  H148  1  0.161200  0.162800  0.686900  1
  H  H149  1  0.433100  0.660900  0.904900  1
  H  H150  1  0.066900  0.839100  0.404900  1
  H  H151  1  0.566900  0.339100  0.095100  1
  H  H152  1  0.933100  0.160900  0.595100  1
  H  H153  1  0.600700  0.678700  0.917900  1
  H  H154  1  0.899300  0.821300  0.417900  1
  H  H155  1  0.399300  0.321300  0.082100  1
  H  H156  1  0.100700  0.178700  0.582100  1
  H  H157  1  0.774900  0.720000  0.889100  1
  H  H158  1  0.725100  0.780000  0.389100  1
  H  H159  1  0.225100  0.280000  0.110900  1
  H  H160  1  0.274900  0.220000  0.610900  1
  H  H161  1  0.852200  0.786000  0.924400  1
  H  H162  1  0.647800  0.714000  0.424400  1
  H  H163  1  0.147800  0.214000  0.075600  1
  H  H164  1  0.352200  0.286000  0.575600  1
  H  H165  1  0.897000  0.744700  0.968100  1
  H  H166  1  0.603000  0.755300  0.468100  1
  H  H167  1  0.103000  0.255300  0.031900  1
  H  H168  1  0.397000  0.244700  0.531900  1
  H  H169  1  0.780400  0.569600  0.943400  1
  H  H170  1  0.719600  0.930400  0.443400  1
  H  H171  1  0.219600  0.430400  0.056600  1
  H  H172  1  0.280400  0.069600  0.556600  1
  H  H173  1  0.907300  0.576400  0.887100  1
  H  H174  1  0.592700  0.923600  0.387100  1
  H  H175  1  0.092700  0.423600  0.112900  1
  H  H176  1  0.407300  0.076400  0.612900  1
  H  H177  1  0.944400  0.506100  0.846600  1
  H  H178  1  0.555600  0.993900  0.346600  1
  H  H179  1  0.055600  0.493900  0.153400  1
  H  H180  1  0.444400  0.006100  0.653400  1
  H  H181  1  0.003100  0.455300  0.742700  1
  H  H182  1  0.496900  0.044700  0.242700  1
  H  H183  1  0.996900  0.544700  0.257300  1
  H  H184  1  0.503100  0.955300  0.757300  1
  H  H185  1  0.034500  0.334300  0.808200  1
  H  H186  1  0.465500  0.165700  0.308200  1
  H  H187  1  0.965500  0.665700  0.191800  1
  H  H188  1  0.534500  0.834300  0.691800  1
  H  H189  1  0.806700  0.487700  0.746700  1
  H  H190  1  0.693300  0.012300  0.246700  1
  H  H191  1  0.193300  0.512300  0.253300  1
  H  H192  1  0.306700  0.987700  0.753300  1
  H  H193  1  0.899900  0.536600  0.748500  1
  H  H194  1  0.600100  0.963400  0.248500  1
  H  H195  1  0.100100  0.463400  0.251500  1
  H  H196  1  0.399900  0.036600  0.751500  1
  H  H197  1  0.825400  0.532800  0.774500  1
  H  H198  1  0.674600  0.967200  0.274500  1
  H  H199  1  0.174600  0.467200  0.225500  1
  H  H200  1  0.325400  0.032800  0.725500  1
  H  H201  1  0.101300  0.366800  0.736000  1
  H  H202  1  0.398700  0.133200  0.236000  1
  H  H203  1  0.898700  0.633200  0.264000  1
  H  H204  1  0.601300  0.866800  0.764000  1
  H  H205  1  0.117100  0.321600  0.763000  1
  H  H206  1  0.382900  0.178400  0.263000  1
  H  H207  1  0.882900  0.678400  0.237000  1
  H  H208  1  0.617100  0.821600  0.737000  1
  H  H209  1  0.170500  0.392000  0.761800  1
  H  H210  1  0.329500  0.108000  0.261800  1
  H  H211  1  0.829500  0.608000  0.238200  1
  H  H212  1  0.670500  0.892000  0.738200  1
  H  H213  1  0.829900  0.329300  0.839100  1
  H  H214  1  0.670100  0.170700  0.339100  1
  H  H215  1  0.170100  0.670700  0.160900  1
  H  H216  1  0.329900  0.829300  0.660900  1
  H  H217  1  0.885600  0.386900  0.856700  1
  H  H218  1  0.614400  0.113100  0.356700  1
  H  H219  1  0.114400  0.613100  0.143300  1
  H  H220  1  0.385600  0.886900  0.643300  1
  H  H221  1  0.936600  0.325900  0.848400  1
  H  H222  1  0.563400  0.174100  0.348400  1
  H  H223  1  0.063400  0.674100  0.151600  1
  H  H224  1  0.436600  0.825900  0.651600  1
  H  H225  1  0.740700  0.357200  0.771800  1
  H  H226  1  0.759300  0.142800  0.271800  1
  H  H227  1  0.259300  0.642800  0.228200  1
  H  H228  1  0.240700  0.857200  0.728200  1
  H  H229  1  0.570800  0.325300  0.764800  1
  H  H230  1  0.929200  0.174700  0.264800  1
  H  H231  1  0.429200  0.674700  0.235200  1
  H  H232  1  0.070800  0.825300  0.735200  1
  H  H233  1  0.373100  0.286500  0.820300  1
  H  H234  1  0.126900  0.213500  0.320300  1
  H  H235  1  0.626900  0.713500  0.179700  1
  H  H236  1  0.873100  0.786500  0.679700  1
  H  H237  1  0.254900  0.196200  0.750000  1
  H  H238  1  0.245100  0.303800  0.250000  1
  H  H239  1  0.745100  0.803800  0.250000  1
  H  H240  1  0.754900  0.696200  0.750000  1
  H  H241  1  0.306900  0.283700  0.721900  1
  H  H242  1  0.193100  0.216300  0.221900  1
  H  H243  1  0.693100  0.716300  0.278100  1
  H  H244  1  0.806900  0.783700  0.778100  1
  H  H245  1  0.396300  0.375200  0.742100  1
  H  H246  1  0.103700  0.124800  0.242100  1
  H  H247  1  0.603700  0.624800  0.257900  1
  H  H248  1  0.896300  0.875200  0.757900  1
  H  H249  1  0.258400  0.402400  0.808100  1
  H  H250  1  0.241600  0.097600  0.308100  1
  H  H251  1  0.741600  0.597600  0.191900  1
  H  H252  1  0.758400  0.902400  0.691900  1
  H  H253  1  0.224500  0.490100  0.841000  1
  H  H254  1  0.275500  0.009900  0.341000  1
  H  H255  1  0.775500  0.509900  0.159000  1
  H  H256  1  0.724500  0.990100  0.659000  1
  H  H257  1  0.166800  0.695900  0.850700  1
  H  H258  1  0.333200  0.804100  0.350700  1
  H  H259  1  0.833200  0.304100  0.149300  1
  H  H260  1  0.666800  0.195900  0.649300  1
  H  H261  1  0.148200  0.601500  0.926800  1
  H  H262  1  0.351800  0.898500  0.426800  1
  H  H263  1  0.851800  0.398500  0.073200  1
  H  H264  1  0.648200  0.101500  0.573200  1
  H  H265  1  0.380700  0.661900  0.829700  1
  H  H266  1  0.119300  0.838100  0.329700  1
  H  H267  1  0.619300  0.338100  0.170300  1
  H  H268  1  0.880700  0.161900  0.670300  1
  H  H269  1  0.286800  0.686500  0.817500  1
  H  H270  1  0.213200  0.813500  0.317500  1
  H  H271  1  0.713200  0.313500  0.182500  1
  H  H272  1  0.786800  0.186500  0.682500  1
  H  H273  1  0.303900  0.613600  0.813600  1
  H  H274  1  0.196100  0.886400  0.313600  1
  H  H275  1  0.696100  0.386400  0.186400  1
  H  H276  1  0.803900  0.113600  0.686400  1
  H  H277  1  0.084300  0.734700  0.900400  1
  H  H278  1  0.415700  0.765300  0.400400  1
  H  H279  1  0.915700  0.265300  0.099600  1
  H  H280  1  0.584300  0.234700  0.599600  1
  H  H281  1  0.039600  0.673200  0.917800  1
  H  H282  1  0.460400  0.826800  0.417800  1
  H  H283  1  0.960400  0.326800  0.082200  1
  H  H284  1  0.539600  0.173200  0.582200  1
  H  H285  1  0.013300  0.682300  0.884300  1
  H  H286  1  0.486700  0.817700  0.384300  1
  H  H287  1  0.986700  0.317700  0.115700  1
  H  H288  1  0.513300  0.182300  0.615700  1
  H  H289  1  0.308000  0.494800  0.911800  1
  H  H290  1  0.192000  0.005200  0.411800  1
  H  H291  1  0.692000  0.505200  0.088200  1
  H  H292  1  0.808000  0.994800  0.588200  1
  H  H293  1  0.243800  0.519400  0.937000  1
  H  H294  1  0.256200  0.980600  0.437000  1
  H  H295  1  0.756200  0.480600  0.063000  1
  H  H296  1  0.743800  0.019400  0.563000  1
  H  H297  1  0.348200  0.553000  0.932200  1
  H  H298  1  0.151800  0.947000  0.432200  1
  H  H299  1  0.651800  0.447000  0.067800  1
  H  H300  1  0.848200  0.053000  0.567800  1
  H  H301  1  0.788000  0.553900  0.990900  1
  H  H302  1  0.712000  0.946100  0.490900  1
  H  H303  1  0.212000  0.446100  0.009100  1
  H  H304  1  0.288000  0.053900  0.509100  1
  H  H305  1  0.869500  0.563800  0.014800  1
  H  H306  1  0.630500  0.936200  0.514800  1
  H  H307  1  0.130500  0.436200  0.985200  1
  H  H308  1  0.369500  0.063800  0.485200  1
  H  H309  1  0.086700  0.421800  0.883100  1
  H  H310  1  0.413300  0.078200  0.383100  1
  H  H311  1  0.913300  0.578200  0.116900  1
  H  H312  1  0.586700  0.921800  0.616900  1
  H  H313  1  0.171000  0.417700  0.905800  1
  H  H314  1  0.329000  0.082300  0.405800  1
  H  H315  1  0.829000  0.582300  0.094200  1
  H  H316  1  0.671000  0.917700  0.594200  1
  H  H317  1  0.293300  0.105700  0.782600  1
  H  H318  1  0.206700  0.394300  0.282600  1
  H  H319  1  0.706700  0.894300  0.217400  1
  H  H320  1  0.793300  0.605700  0.717400  1
  H  H321  1  0.188600  0.123600  0.787600  1
  H  H322  1  0.311400  0.376400  0.287600  1
  H  H323  1  0.811400  0.876400  0.212400  1
  H  H324  1  0.688600  0.623600  0.712400  1
  H  H325  1  0.177400  0.962200  0.932600  1
  H  H326  1  0.322600  0.537800  0.432600  1
  H  H327  1  0.822600  0.037800  0.067400  1
  H  H328  1  0.677400  0.462200  0.567400  1
  H  H329  1  0.289500  0.974200  0.932000  1
  H  H330  1  0.210500  0.525800  0.432000  1
  H  H331  1  0.710500  0.025800  0.068000  1
  H  H332  1  0.789500  0.474200  0.568000  1
  H  H333  1  0.745200  0.863700  0.945100  1
  H  H334  1  0.754800  0.636300  0.445100  1
  H  H335  1  0.254800  0.136300  0.054900  1
  H  H336  1  0.245200  0.363700  0.554900  1
  H  H337  1  0.589500  0.846800  0.921500  1
  H  H338  1  0.910500  0.653200  0.421500  1
  H  H339  1  0.410500  0.153200  0.078500  1
  H  H340  1  0.089500  0.346800  0.578500  1
  H  H341  1  0.517100  0.810700  0.866300  1
  H  H342  1  0.982900  0.689300  0.366300  1
  H  H343  1  0.482900  0.189300  0.133700  1
  H  H344  1  0.017100  0.310700  0.633700  1
  H  H345  1  0.381000  0.743600  0.876900  1
  H  H346  1  0.119000  0.756400  0.376900  1
  H  H347  1  0.619000  0.256400  0.123100  1
  H  H348  1  0.881000  0.243600  0.623100  1
  H  H349  1  0.254600  0.782400  0.899300  1
  H  H350  1  0.245400  0.717600  0.399300  1
  H  H351  1  0.745400  0.217600  0.100700  1
  H  H352  1  0.754600  0.282400  0.600700  1
  H  H353  1  0.399500  0.958200  0.901200  1
  H  H354  1  0.100500  0.541800  0.401200  1
  H  H355  1  0.600500  0.041800  0.098800  1
  H  H356  1  0.899500  0.458200  0.598800  1
  H  H357  1  0.422000  0.958500  0.835600  1
  H  H358  1  0.078000  0.541500  0.335600  1
  H  H359  1  0.578000  0.041500  0.164400  1
  H  H360  1  0.922000  0.458500  0.664400  1
  H  H361  1  0.479600  0.035400  0.796500  1
  H  H362  1  0.020400  0.464600  0.296500  1
  H  H363  1  0.520400  0.964600  0.203500  1
  H  H364  1  0.979600  0.535400  0.703500  1
  H  H365  1  0.622100  0.071800  0.705300  1
  H  H366  1  0.877900  0.428200  0.205300  1
  H  H367  1  0.377900  0.928200  0.294700  1
  H  H368  1  0.122100  0.571800  0.794700  1
  H  H369  1  0.477100  0.195500  0.745700  1
  H  H370  1  0.022900  0.304500  0.245700  1
  H  H371  1  0.522900  0.804500  0.254300  1
  H  H372  1  0.977100  0.695500  0.754300  1
  H  H373  1  0.785500  0.056900  0.754100  1
  H  H374  1  0.714500  0.443100  0.254100  1
  H  H375  1  0.214500  0.943100  0.245900  1
  H  H376  1  0.285500  0.556900  0.745900  1
  H  H377  1  0.727400  0.013600  0.730200  1
  H  H378  1  0.772600  0.486400  0.230200  1
  H  H379  1  0.272600  0.986400  0.269800  1
  H  H380  1  0.227400  0.513600  0.769800  1
  H  H381  1  0.707700  0.001200  0.764200  1
  H  H382  1  0.792300  0.498800  0.264200  1
  H  H383  1  0.292300  0.998800  0.235800  1
  H  H384  1  0.207700  0.501200  0.735800  1
  H  H385  1  0.432200  0.115900  0.692600  1
  H  H386  1  0.067800  0.384100  0.192600  1
  H  H387  1  0.567800  0.884100  0.307400  1
  H  H388  1  0.932200  0.615900  0.807400  1
  H  H389  1  0.530700  0.134500  0.676700  1
  H  H390  1  0.969300  0.365500  0.176700  1
  H  H391  1  0.469300  0.865500  0.323300  1
  H  H392  1  0.030700  0.634500  0.823300  1
  H  H393  1  0.477500  0.188400  0.691800  1
  H  H394  1  0.022500  0.311600  0.191800  1
  H  H395  1  0.522500  0.811600  0.308200  1
  H  H396  1  0.977500  0.688400  0.808200  1
  H  H397  1  0.508200  0.225500  0.793600  1
  H  H398  1  0.991800  0.274500  0.293600  1
  H  H399  1  0.491800  0.774500  0.206400  1
  H  H400  1  0.008200  0.725500  0.706400  1
  H  H401  1  0.596700  0.202900  0.810200  1
  H  H402  1  0.903300  0.297100  0.310200  1
  H  H403  1  0.403300  0.797100  0.189800  1
  H  H404  1  0.096700  0.702900  0.689800  1
  H  H405  1  0.497300  0.160400  0.811600  1
  H  H406  1  0.002700  0.339600  0.311600  1
  H  H407  1  0.502700  0.839600  0.188400  1
  H  H408  1  0.997300  0.660400  0.688400  1
  H  H409  1  0.787200  0.192200  0.780600  1
  H  H410  1  0.712800  0.307800  0.280600  1
  H  H411  1  0.212800  0.807800  0.219400  1
  H  H412  1  0.287200  0.692200  0.719400  1
  H  H413  1  0.922800  0.228800  0.811600  1
  H  H414  1  0.577200  0.271200  0.311600  1
  H  H415  1  0.077200  0.771200  0.188400  1
  H  H416  1  0.422800  0.728800  0.688400  1
  H  H417  1  0.090000  0.188300  0.824300  1
  H  H418  1  0.410000  0.311700  0.324300  1
  H  H419  1  0.910000  0.811700  0.175700  1
  H  H420  1  0.590000  0.688300  0.675700  1
  H  H421  1  0.197800  0.279000  0.826600  1
  H  H422  1  0.302200  0.221000  0.326600  1
  H  H423  1  0.802200  0.721000  0.173400  1
  H  H424  1  0.697800  0.779000  0.673400  1
  H  H425  1  0.190200  0.353200  0.863300  1
  H  H426  1  0.309800  0.146800  0.363300  1
  H  H427  1  0.809800  0.646800  0.136700  1
  H  H428  1  0.690200  0.853200  0.636700  1
  H  H429  1  0.976600  0.239600  0.900100  1
  H  H430  1  0.523400  0.260400  0.400100  1
  H  H431  1  0.023400  0.760400  0.099900  1
  H  H432  1  0.476600  0.739600  0.599900  1
  H  H433  1  0.080000  0.132400  0.904900  1
  H  H434  1  0.420000  0.367600  0.404900  1
  H  H435  1  0.920000  0.867600  0.095100  1
  H  H436  1  0.580000  0.632400  0.595100  1
  H  H437  1  0.038700  0.039600  0.936800  1
  H  H438  1  0.461300  0.460400  0.436800  1
  H  H439  1  0.961300  0.960400  0.063200  1
  H  H440  1  0.538700  0.539600  0.563200  1
  H  H441  1  0.046400  0.832600  0.964400  1
  H  H442  1  0.453600  0.667400  0.464400  1
  H  H443  1  0.953600  0.167400  0.035600  1
  H  H444  1  0.546400  0.332600  0.535600  1
  H  H445  1  0.884500  0.919500  0.020200  1
  H  H446  1  0.615500  0.580500  0.520200  1
  H  H447  1  0.115500  0.080500  0.979800  1
  H  H448  1  0.384500  0.419500  0.479800  1
  H  H449  1  0.047500  0.851900  0.914700  1
  H  H450  1  0.452500  0.648100  0.414700  1
  H  H451  1  0.952500  0.148100  0.085300  1
  H  H452  1  0.547500  0.351900  0.585300  1
  H  H453  1  0.034500  0.923700  0.906200  1
  H  H454  1  0.465500  0.576300  0.406200  1
  H  H455  1  0.965500  0.076300  0.093800  1
  H  H456  1  0.534500  0.423700  0.593800  1
  H  H457  1  0.949400  0.868900  0.902100  1
  H  H458  1  0.550600  0.631100  0.402100  1
  H  H459  1  0.050600  0.131100  0.097900  1
  H  H460  1  0.449400  0.368900  0.597900  1
  H  H461  1  0.010200  0.785800  0.012900  1
  H  H462  1  0.489800  0.714200  0.512900  1
  H  H463  1  0.989800  0.214200  0.987100  1
  H  H464  1  0.510200  0.285800  0.487100  1
  H  H465  1  0.937300  0.816500  0.033500  1
  H  H466  1  0.562700  0.683500  0.533500  1
  H  H467  1  0.062700  0.183500  0.966500  1
  H  H468  1  0.437300  0.316500  0.466500  1
  H  H469  1  0.044100  0.847400  0.031900  1
  H  H470  1  0.455900  0.652600  0.531900  1
  H  H471  1  0.955900  0.152600  0.968100  1
  H  H472  1  0.544100  0.347400  0.468100  1
  H  H473  1  0.836700  0.039600  0.976900  1
  H  H474  1  0.663300  0.460400  0.476900  1
  H  H475  1  0.163300  0.960400  0.023100  1
  H  H476  1  0.336700  0.539600  0.523100  1
  H  H477  1  0.804100  0.002100  0.006100  1
  H  H478  1  0.695900  0.497900  0.506100  1
  H  H479  1  0.195900  0.997900  0.993900  1
  H  H480  1  0.304100  0.502100  0.493900  1
  H  H481  1  0.749400  0.985500  0.976200  1
  H  H482  1  0.750600  0.514500  0.476200  1
  H  H483  1  0.250600  0.014500  0.023800  1
  H  H484  1  0.249400  0.485500  0.523800  1
  H  H485  1  0.526900  0.702900  0.784800  1
  H  H486  1  0.973100  0.797100  0.284800  1
  H  H487  1  0.473100  0.297100  0.215200  1
  H  H488  1  0.026900  0.202900  0.715200  1
  H  H489  1  0.459400  0.650400  0.743700  1
  H  H490  1  0.040600  0.849600  0.243700  1
  H  H491  1  0.540600  0.349600  0.256300  1
  H  H492  1  0.959400  0.150400  0.756300  1
  H  H493  1  0.623200  0.509100  0.755000  1
  H  H494  1  0.876800  0.990900  0.255000  1
  H  H495  1  0.376800  0.490900  0.245000  1
  H  H496  1  0.123200  0.009100  0.745000  1
  H  H497  1  0.692500  0.561800  0.795700  1
  H  H498  1  0.807500  0.938200  0.295700  1
  H  H499  1  0.307500  0.438200  0.204300  1
  H  H500  1  0.192500  0.061800  0.704300  1
  H  H501  1  0.677000  0.719100  0.812900  1
  H  H502  1  0.823000  0.780900  0.312900  1
  H  H503  1  0.323000  0.280900  0.187100  1
  H  H504  1  0.177000  0.219100  0.687100  1
  H  H505  1  0.732100  0.658900  0.819400  1
  H  H506  1  0.767900  0.841100  0.319400  1
  H  H507  1  0.267900  0.341100  0.180600  1
  H  H508  1  0.232100  0.158900  0.680600  1
  H  H509  1  0.635500  0.666100  0.835800  1
  H  H510  1  0.864500  0.833900  0.335800  1
  H  H511  1  0.364500  0.333900  0.164200  1
  H  H512  1  0.135500  0.166100  0.664200  1
  H  H513  1  0.524900  0.548700  0.706400  1
  H  H514  1  0.975100  0.951300  0.206400  1
  H  H515  1  0.475100  0.451300  0.293600  1
  H  H516  1  0.024900  0.048700  0.793600  1
  H  H517  1  0.423400  0.555700  0.719500  1
  H  H518  1  0.076600  0.944300  0.219500  1
  H  H519  1  0.576600  0.444300  0.280500  1
  H  H520  1  0.923400  0.055700  0.780500  1
  H  H521  1  0.474100  0.493900  0.726700  1
  H  H522  1  0.025900  0.006100  0.226700  1
  H  H523  1  0.525900  0.506100  0.273300  1
  H  H524  1  0.974100  0.993900  0.773300  1
  H  H525  1  0.792700  0.976000  0.805800  1
  H  H526  1  0.707300  0.524000  0.305800  1
  H  H527  1  0.207300  0.024000  0.194200  1
  H  H528  1  0.292700  0.476000  0.694200  1
  H  H529  1  0.669700  0.895600  0.813700  1
  H  H530  1  0.830300  0.604400  0.313700  1
  H  H531  1  0.330300  0.104400  0.186300  1
  H  H532  1  0.169700  0.395600  0.686300  1
  H  H533  1  0.844700  0.793700  0.858300  1
  H  H534  1  0.655300  0.706300  0.358300  1
  H  H535  1  0.155300  0.206300  0.141700  1
  H  H536  1  0.344700  0.293700  0.641700  1
  H  H537  1  0.967500  0.874400  0.850900  1
  H  H538  1  0.532500  0.625600  0.350900  1
  H  H539  1  0.032500  0.125600  0.149100  1
  H  H540  1  0.467500  0.374400  0.649100  1
  H  H541  1  0.008100  0.992200  0.839300  1
  H  H542  1  0.491900  0.507800  0.339300  1
  H  H543  1  0.991900  0.007800  0.160700  1
  H  H544  1  0.508100  0.492200  0.660700  1
  H  H545  1  0.949500  0.019200  0.813400  1
  H  H546  1  0.550500  0.480800  0.313400  1
  H  H547  1  0.050500  0.980800  0.186600  1
  H  H548  1  0.449500  0.519200  0.686600  1
  H  H549  1  0.011800  0.962400  0.807400  1
  H  H550  1  0.488200  0.537600  0.307400  1
  H  H551  1  0.988200  0.037600  0.192600  1
  H  H552  1  0.511800  0.462400  0.692600  1
  H  H553  1  0.626100  0.787700  0.845600  1
  H  H554  1  0.873900  0.712300  0.345600  1
  H  H555  1  0.373900  0.212300  0.154400  1
  H  H556  1  0.126100  0.287700  0.654400  1
  H  H557  1  0.707300  0.743600  0.839300  1
  H  H558  1  0.792700  0.756400  0.339300  1
  H  H559  1  0.292700  0.256400  0.160700  1
  H  H560  1  0.207300  0.243600  0.660700  1
  H  H561  1  0.658000  0.776100  0.812800  1
  H  H562  1  0.842000  0.723900  0.312800  1
  H  H563  1  0.342000  0.223900  0.187200  1
  H  H564  1  0.158000  0.276100  0.687200  1
  H  H565  1  0.630000  0.485800  0.759300  1
  H  H566  1  0.870000  0.014200  0.259300  1
  H  H567  1  0.370000  0.514200  0.240700  1
  H  H568  1  0.130000  0.985800  0.740700  1
  H  H569  1  0.603000  0.449700  0.711700  1
  H  H570  1  0.897000  0.050300  0.211700  1
  H  H571  1  0.397000  0.550300  0.288300  1
  H  H572  1  0.103000  0.949700  0.788300  1
  H  H573  1  0.436200  0.589000  0.698100  1
  H  H574  1  0.063800  0.911000  0.198100  1
  H  H575  1  0.563800  0.411000  0.301900  1
  H  H576  1  0.936200  0.089000  0.801900  1
  H  H577  1  0.491400  0.637800  0.741600  1
  H  H578  1  0.008600  0.862200  0.241600  1
  H  H579  1  0.508600  0.362200  0.258400  1
  H  H580  1  0.991400  0.137800  0.758400  1
  H  H581  1  0.665400  0.596900  0.783000  1
  H  H582  1  0.834600  0.903100  0.283000  1
  H  H583  1  0.334600  0.403100  0.217000  1
  H  H584  1  0.165400  0.096900  0.717000  1
  H  H585  1  0.569300  0.575000  0.799600  1
  H  H586  1  0.930700  0.925000  0.299600  1
  H  H587  1  0.430700  0.425000  0.200400  1
  H  H588  1  0.069300  0.075000  0.700400  1
  H  H589  1  0.581800  0.640900  0.782200  1
  H  H590  1  0.918200  0.859100  0.282200  1
  H  H591  1  0.418200  0.359100  0.217800  1
  H  H592  1  0.081800  0.140900  0.717800  1
  H  H593  1  0.529510  0.469810  0.659130  1
  H  H594  1  0.970490  0.030190  0.159130  1
  H  H595  1  0.470490  0.530190  0.340870  1
  H  H596  1  0.029510  0.969810  0.840870  1
  H  H597  1  0.471560  0.528110  0.666540  1
  H  H598  1  0.028440  0.971890  0.166540  1
  H  H599  1  0.528440  0.471890  0.333460  1
  H  H600  1  0.971560  0.028110  0.833460  1
  H  H601  1  0.431600  0.457500  0.675970  1
  H  H602  1  0.068400  0.042500  0.175970  1
  H  H603  1  0.568400  0.542500  0.324030  1
  H  H604  1  0.931600  0.957500  0.824030  1
  C  C605  1  0.829040  0.250060  0.949241  1
  C  C606  1  0.670960  0.249940  0.449241  1
  C  C607  1  0.170960  0.749940  0.050759  1
  C  C608  1  0.329040  0.750060  0.550759  1
  C  C609  1  0.798670  0.197180  0.930948  1
  C  C610  1  0.701330  0.302820  0.430948  1
  C  C611  1  0.201330  0.802820  0.069052  1
  C  C612  1  0.298670  0.697180  0.569052  1
  C  C613  1  0.758720  0.145840  0.949210  1
  C  C614  1  0.741280  0.354160  0.449210  1
  C  C615  1  0.241280  0.854160  0.050790  1
  C  C616  1  0.258720  0.645840  0.550790  1
  C  C617  1  0.764140  0.166650  0.978784  1
  C  C618  1  0.735860  0.333350  0.478784  1
  C  C619  1  0.235860  0.833350  0.021216  1
  C  C620  1  0.264140  0.666650  0.521216  1
  C  C621  1  0.807940  0.231730  0.978656  1
  C  C622  1  0.692060  0.268270  0.478656  1
  C  C623  1  0.192060  0.768270  0.021344  1
  C  C624  1  0.307940  0.731730  0.521344  1
  C  C625  1  0.782500  0.276480  0.999011  1
  C  C626  1  0.717500  0.223520  0.499011  1
  C  C627  1  0.217500  0.723520  0.000989  1
  C  C628  1  0.282500  0.776480  0.500989  1
  C  C629  1  0.783630  0.341150  0.989812  1
  C  C630  1  0.716370  0.158850  0.489812  1
  C  C631  1  0.216370  0.658850  0.010188  1
  C  C632  1  0.283630  0.841150  0.510188  1
  C  C633  1  0.806570  0.360690  0.960482  1
  C  C634  1  0.693430  0.139310  0.460482  1
  C  C635  1  0.193430  0.639310  0.039518  1
  C  C636  1  0.306570  0.860690  0.539518  1
  C  C637  1  0.825660  0.313820  0.939602  1
  C  C638  1  0.674340  0.186180  0.439602  1
  C  C639  1  0.174340  0.686180  0.060398  1
  C  C640  1  0.325660  0.813820  0.560398  1
  C  C641  1  0.794790  0.322500  0.910606  1
  C  C642  1  0.705210  0.177500  0.410606  1
  C  C643  1  0.205210  0.677500  0.089394  1
  C  C644  1  0.294790  0.822500  0.589394  1
  C  C645  1  0.763910  0.269680  0.892490  1
  C  C646  1  0.736090  0.230320  0.392490  1
  C  C647  1  0.236090  0.730320  0.107510  1
  C  C648  1  0.263910  0.769680  0.607510  1
  C  C649  1  0.762030  0.206120  0.902528  1
  C  C650  1  0.737970  0.293880  0.402528  1
  C  C651  1  0.237970  0.793880  0.097472  1
  C  C652  1  0.262030  0.706120  0.597472  1
  C  C653  1  0.689530  0.160390  0.892215  1
  C  C654  1  0.810470  0.339610  0.392215  1
  C  C655  1  0.310470  0.839610  0.107785  1
  C  C656  1  0.189530  0.660390  0.607785  1
  C  C657  1  0.650240  0.108970  0.910390  1
  C  C658  1  0.849760  0.391030  0.410390  1
  C  C659  1  0.349760  0.891030  0.089610  1
  C  C660  1  0.150240  0.608970  0.589610  1
  C  C661  1  0.682490  0.102750  0.939570  1
  C  C662  1  0.817510  0.397250  0.439570  1
  C  C663  1  0.317510  0.897250  0.060430  1
  C  C664  1  0.182490  0.602750  0.560430  1
  C  C665  1  0.615780  0.078600  0.961390  1
  C  C666  1  0.884220  0.421400  0.461390  1
  C  C667  1  0.384220  0.921400  0.038610  1
  C  C668  1  0.115780  0.578600  0.538610  1
  C  C669  1  0.624450  0.093070  0.992300  1
  C  C670  1  0.875550  0.406930  0.492300  1
  C  C671  1  0.375550  0.906930  0.007700  1
  C  C672  1  0.124450  0.593070  0.507700  1
  C  C673  1  0.698420  0.142690  0.000664  1
  C  C674  1  0.801580  0.357310  0.500664  1
  C  C675  1  0.301580  0.857310  0.999336  1
  C  C676  1  0.198420  0.642690  0.499336  1
  C  C677  1  0.675380  0.188780  0.021846  1
  C  C678  1  0.824620  0.311220  0.521846  1
  C  C679  1  0.324620  0.811220  0.978154  1
  C  C680  1  0.175380  0.688780  0.478154  1
  C  C681  1  0.717380  0.253870  0.020788  1
  C  C682  1  0.782620  0.246130  0.520788  1
  C  C683  1  0.282620  0.746130  0.979212  1
  C  C684  1  0.217380  0.753870  0.479212  1
  C  C685  1  0.650570  0.293910  0.031719  1
  C  C686  1  0.849430  0.206090  0.531719  1
  C  C687  1  0.349430  0.706090  0.968281  1
  C  C688  1  0.150570  0.793910  0.468281  1
  C  C689  1  0.649340  0.357270  0.021456  1
  C  C690  1  0.850660  0.142730  0.521456  1
  C  C691  1  0.350660  0.642730  0.978544  1
  C  C692  1  0.149340  0.857270  0.478544  1
  C  C693  1  0.719360  0.382170  0.001030  1
  C  C694  1  0.780640  0.117830  0.501030  1
  C  C695  1  0.280640  0.617830  0.998970  1
  C  C696  1  0.219360  0.882170  0.498970  1
  C  C697  1  0.704670  0.429700  0.979260  1
  C  C698  1  0.795330  0.070300  0.479260  1
  C  C699  1  0.295330  0.570300  0.020740  1
  C  C700  1  0.204670  0.929700  0.520740  1
  C  C701  1  0.759430  0.416430  0.953540  1
  C  C702  1  0.740570  0.083570  0.453540  1
  C  C703  1  0.240570  0.583570  0.046460  1
  C  C704  1  0.259430  0.916430  0.546460  1
  C  C705  1  0.723820  0.423450  0.924370  1
  C  C706  1  0.776180  0.076550  0.424370  1
  C  C707  1  0.276180  0.576550  0.075630  1
  C  C708  1  0.223820  0.923450  0.575630  1
  C  C709  1  0.742320  0.375120  0.903690  1
  C  C710  1  0.757680  0.124880  0.403690  1
  C  C711  1  0.257680  0.624880  0.096310  1
  C  C712  1  0.242320  0.875120  0.596310  1
  C  C713  1  0.677810  0.352150  0.881025  1
  C  C714  1  0.822190  0.147850  0.381025  1
  C  C715  1  0.322190  0.647850  0.118975  1
  C  C716  1  0.177810  0.852150  0.618975  1
  C  C717  1  0.691260  0.288570  0.874072  1
  C  C718  1  0.808740  0.211430  0.374072  1
  C  C719  1  0.308740  0.711430  0.125928  1
  C  C720  1  0.191260  0.788570  0.625928  1
  C  C721  1  0.615120  0.243270  0.865455  1
  C  C722  1  0.884880  0.256730  0.365455  1
  C  C723  1  0.384880  0.756730  0.134545  1
  C  C724  1  0.115120  0.743270  0.634545  1
  C  C725  1  0.616630  0.179080  0.873980  1
  C  C726  1  0.883370  0.320920  0.373980  1
  C  C727  1  0.383370  0.820920  0.126020  1
  C  C728  1  0.116630  0.679080  0.626020  1
  C  C729  1  0.531130  0.139330  0.880440  1
  C  C730  1  0.968870  0.360670  0.380440  1
  C  C731  1  0.468870  0.860670  0.119560  1
  C  C732  1  0.031130  0.639330  0.619560  1
  C  C733  1  0.553100  0.096280  0.903280  1
  C  C734  1  0.946900  0.403720  0.403280  1
  C  C735  1  0.446900  0.903720  0.096720  1
  C  C736  1  0.053100  0.596280  0.596720  1
  C  C737  1  0.486140  0.077360  0.924700  1
  C  C738  1  0.013860  0.422640  0.424700  1
  C  C739  1  0.513860  0.922640  0.075300  1
  C  C740  1  0.986140  0.577360  0.575300  1
  C  C741  1  0.518550  0.068060  0.953780  1
  C  C742  1  0.981450  0.431940  0.453780  1
  C  C743  1  0.481450  0.931940  0.046220  1
  C  C744  1  0.018550  0.568060  0.546220  1
  C  C745  1  0.465090  0.078830  0.979320  1
  C  C746  1  0.034910  0.421170  0.479320  1
  C  C747  1  0.534910  0.921170  0.020680  1
  C  C748  1  0.965090  0.578830  0.520680  1
  C  C749  1  0.527990  0.092890  0.003890  1
  C  C750  1  0.972010  0.407110  0.503890  1
  C  C751  1  0.472010  0.907110  0.996110  1
  C  C752  1  0.027990  0.592890  0.496110  1
  C  C753  1  0.505860  0.143280  0.023830  1
  C  C754  1  0.994140  0.356720  0.523830  1
  C  C755  1  0.494140  0.856720  0.976170  1
  C  C756  1  0.005860  0.643280  0.476170  1
  C  C757  1  0.581220  0.188840  0.032998  1
  C  C758  1  0.918780  0.311160  0.532998  1
  C  C759  1  0.418780  0.811160  0.967002  1
  C  C760  1  0.081220  0.688840  0.467002  1
  C  C761  1  0.567460  0.254230  0.038612  1
  C  C762  1  0.932540  0.245770  0.538612  1
  C  C763  1  0.432540  0.745770  0.961388  1
  C  C764  1  0.067460  0.754230  0.461388  1
  C  C765  1  0.478180  0.277120  0.035618  1
  C  C766  1  0.021820  0.222880  0.535618  1
  C  C767  1  0.521820  0.722880  0.964382  1
  C  C768  1  0.978180  0.777120  0.464382  1
  C  C769  1  0.476340  0.342170  0.027110  1
  C  C770  1  0.023660  0.157830  0.527110  1
  C  C771  1  0.523660  0.657830  0.972890  1
  C  C772  1  0.976340  0.842170  0.472890  1
  C  C773  1  0.561320  0.380750  0.020160  1
  C  C774  1  0.938680  0.119250  0.520160  1
  C  C775  1  0.438680  0.619250  0.979840  1
  C  C776  1  0.061320  0.880750  0.479840  1
  C  C777  1  0.542220  0.425380  0.997530  1
  C  C778  1  0.957780  0.074620  0.497530  1
  C  C779  1  0.457780  0.574620  0.002470  1
  C  C780  1  0.042220  0.925380  0.502470  1
  C  C781  1  0.611680  0.450660  0.976630  1
  C  C782  1  0.888320  0.049340  0.476630  1
  C  C783  1  0.388320  0.549340  0.023370  1
  C  C784  1  0.111680  0.950660  0.523370  1
  C  C785  1  0.578910  0.461140  0.947580  1
  C  C786  1  0.921090  0.038860  0.447580  1
  C  C787  1  0.421090  0.538860  0.052420  1
  C  C788  1  0.078910  0.961140  0.552420  1
  C  C789  1  0.633420  0.447530  0.921810  1
  C  C790  1  0.866580  0.052470  0.421810  1
  C  C791  1  0.366580  0.552470  0.078190  1
  C  C792  1  0.133420  0.947530  0.578190  1
  C  C793  1  0.567770  0.420610  0.900060  1
  C  C794  1  0.932230  0.079390  0.400060  1
  C  C795  1  0.432230  0.579390  0.099940  1
  C  C796  1  0.067770  0.920610  0.599940  1
  C  C797  1  0.587100  0.373200  0.879580  1
  C  C798  1  0.912900  0.126800  0.379580  1
  C  C799  1  0.412900  0.626800  0.120420  1
  C  C800  1  0.087100  0.873200  0.620420  1
  C  C801  1  0.512080  0.329560  0.869110  1
  C  C802  1  0.987920  0.170440  0.369110  1
  C  C803  1  0.487920  0.670440  0.130890  1
  C  C804  1  0.012080  0.829560  0.630890  1
  C  C805  1  0.525040  0.265110  0.862136  1
  C  C806  1  0.974960  0.234890  0.362136  1
  C  C807  1  0.474960  0.734890  0.137864  1
  C  C808  1  0.025040  0.765110  0.637864  1
  C  C809  1  0.439620  0.224740  0.867720  1
  C  C810  1  0.060380  0.275260  0.367720  1
  C  C811  1  0.560380  0.775260  0.132280  1
  C  C812  1  0.939620  0.724740  0.632280  1
  C  C813  1  0.440260  0.160610  0.877100  1
  C  C814  1  0.059740  0.339390  0.377100  1
  C  C815  1  0.559740  0.839390  0.122900  1
  C  C816  1  0.940260  0.660610  0.622900  1
  C  C817  1  0.365630  0.135040  0.897150  1
  C  C818  1  0.134370  0.364960  0.397150  1
  C  C819  1  0.634370  0.864960  0.102850  1
  C  C820  1  0.865630  0.635040  0.602850  1
  C  C821  1  0.394200  0.097870  0.921250  1
  C  C822  1  0.105800  0.402130  0.421250  1
  C  C823  1  0.605800  0.902130  0.078750  1
  C  C824  1  0.894200  0.597870  0.578750  1
  C  C825  1  0.343770  0.113420  0.946730  1
  C  C826  1  0.156230  0.386580  0.446730  1
  C  C827  1  0.656230  0.886580  0.053270  1
  C  C828  1  0.843770  0.613420  0.553270  1
  C  C829  1  0.378140  0.105160  0.975790  1
  C  C830  1  0.121860  0.394840  0.475790  1
  C  C831  1  0.621860  0.894840  0.024210  1
  C  C832  1  0.878140  0.605160  0.524210  1
  C  C833  1  0.351720  0.147100  0.997280  1
  C  C834  1  0.148280  0.352900  0.497280  1
  C  C835  1  0.648280  0.852900  0.002720  1
  C  C836  1  0.851720  0.647100  0.502720  1
  C  C837  1  0.416400  0.167690  0.020270  1
  C  C838  1  0.083600  0.332310  0.520270  1
  C  C839  1  0.583600  0.832310  0.979730  1
  C  C840  1  0.916400  0.667690  0.479730  1
  C  C841  1  0.402350  0.232320  0.026870  1
  C  C842  1  0.097650  0.267680  0.526870  1
  C  C843  1  0.597650  0.767680  0.973130  1
  C  C844  1  0.902350  0.732320  0.473130  1
  C  C845  1  0.329250  0.250730  0.008570  1
  C  C846  1  0.170750  0.249270  0.508570  1
  C  C847  1  0.670750  0.749270  0.991430  1
  C  C848  1  0.829250  0.750730  0.491430  1
  C  C849  1  0.330970  0.314420  0.998470  1
  C  C850  1  0.169030  0.185580  0.498470  1
  C  C851  1  0.669030  0.685580  0.001530  1
  C  C852  1  0.830970  0.814420  0.501530  1
  C  C853  1  0.403360  0.360380  0.008650  1
  C  C854  1  0.096640  0.139620  0.508650  1
  C  C855  1  0.596640  0.639620  0.991350  1
  C  C856  1  0.903360  0.860380  0.491350  1
  C  C857  1  0.444240  0.411370  0.990400  1
  C  C858  1  0.055760  0.088630  0.490400  1
  C  C859  1  0.555760  0.588630  0.009600  1
  C  C860  1  0.944240  0.911370  0.509600  1
  C  C861  1  0.411920  0.417640  0.961580  1
  C  C862  1  0.088080  0.082360  0.461580  1
  C  C863  1  0.588080  0.582360  0.038420  1
  C  C864  1  0.911920  0.917640  0.538420  1
  C  C865  1  0.480570  0.442320  0.940610  1
  C  C866  1  0.019430  0.057680  0.440610  1
  C  C867  1  0.519430  0.557680  0.059390  1
  C  C868  1  0.980570  0.942320  0.559390  1
  C  C869  1  0.474600  0.418990  0.911390  1
  C  C870  1  0.025400  0.081010  0.411390  1
  C  C871  1  0.525400  0.581010  0.088610  1
  C  C872  1  0.974600  0.918990  0.588610  1
  C  C873  1  0.399770  0.373380  0.902020  1
  C  C874  1  0.100230  0.126620  0.402020  1
  C  C875  1  0.600230  0.626620  0.097980  1
  C  C876  1  0.899770  0.873380  0.597980  1
  C  C877  1  0.418900  0.329350  0.879850  1
  C  C878  1  0.081100  0.170650  0.379850  1
  C  C879  1  0.581100  0.670650  0.120150  1
  C  C880  1  0.918900  0.829350  0.620150  1
  C  C881  1  0.372400  0.265510  0.878720  1
  C  C882  1  0.127600  0.234490  0.378720  1
  C  C883  1  0.627600  0.734490  0.121280  1
  C  C884  1  0.872400  0.765510  0.621280  1
  C  C885  1  0.302090  0.242810  0.899900  1
  C  C886  1  0.197910  0.257190  0.399900  1
  C  C887  1  0.697910  0.757190  0.100100  1
  C  C888  1  0.802090  0.742810  0.600100  1
  C  C889  1  0.296660  0.175870  0.908340  1
  C  C890  1  0.203340  0.324130  0.408340  1
  C  C891  1  0.703340  0.824130  0.091660  1
  C  C892  1  0.796660  0.675870  0.591660  1
  C  C893  1  0.286910  0.162080  0.939300  1
  C  C894  1  0.213090  0.337920  0.439300  1
  C  C895  1  0.713090  0.837920  0.060700  1
  C  C896  1  0.786910  0.662080  0.560700  1
  C  C897  1  0.267440  0.207340  0.961220  1
  C  C898  1  0.232560  0.292660  0.461220  1
  C  C899  1  0.732560  0.792660  0.038780  1
  C  C900  1  0.767440  0.707340  0.538780  1
  C  C901  1  0.297760  0.197740  0.990180  1
  C  C902  1  0.202240  0.302260  0.490180  1
  C  C903  1  0.702240  0.802260  0.009820  1
  C  C904  1  0.797760  0.697740  0.509820  1
  C  C905  1  0.263190  0.270630  0.951760  1
  C  C906  1  0.236810  0.229370  0.451760  1
  C  C907  1  0.736810  0.729370  0.048240  1
  C  C908  1  0.763190  0.770630  0.548240  1
  C  C909  1  0.284530  0.288090  0.921980  1
  C  C910  1  0.215470  0.211910  0.421980  1
  C  C911  1  0.715470  0.711910  0.078020  1
  C  C912  1  0.784530  0.788090  0.578020  1
  C  C913  1  0.329210  0.352600  0.922220  1
  C  C914  1  0.170790  0.147400  0.422220  1
  C  C915  1  0.670790  0.647400  0.077780  1
  C  C916  1  0.829210  0.852600  0.577780  1
  C  C917  1  0.335370  0.374810  0.951700  1
  C  C918  1  0.164630  0.125190  0.451700  1
  C  C919  1  0.664630  0.625190  0.048300  1
  C  C920  1  0.835370  0.874810  0.548300  1
  C  C921  1  0.294530  0.323720  0.970170  1
  C  C922  1  0.205470  0.176280  0.470170  1
  C  C923  1  0.705470  0.676280  0.029830  1
  C  C924  1  0.794530  0.823720  0.529830  1
  C  C925  1  0.683800  0.332030  0.682100  1
  C  C926  1  0.816200  0.167970  0.182100  1
  C  C927  1  0.316200  0.667970  0.317900  1
  C  C928  1  0.183800  0.832030  0.817900  1
  C  C929  1  0.777260  0.356650  0.679380  1
  C  C930  1  0.722740  0.143350  0.179380  1
  C  C931  1  0.222740  0.643350  0.320620  1
  C  C932  1  0.277260  0.856650  0.820620  1
  C  C933  1  0.843590  0.338120  0.698710  1
  C  C934  1  0.656410  0.161880  0.198710  1
  C  C935  1  0.156410  0.661880  0.301290  1
  C  C936  1  0.343590  0.838120  0.801290  1
  C  C937  1  0.816460  0.294970  0.720760  1
  C  C938  1  0.683540  0.205030  0.220760  1
  C  C939  1  0.183540  0.705030  0.279240  1
  C  C940  1  0.316460  0.794970  0.779240  1
  C  C941  1  0.723000  0.270350  0.723480  1
  C  C942  1  0.777000  0.229650  0.223480  1
  C  C943  1  0.277000  0.729650  0.276520  1
  C  C944  1  0.223000  0.770350  0.776520  1
  C  C945  1  0.656670  0.288880  0.704150  1
  C  C946  1  0.843330  0.211120  0.204150  1
  C  C947  1  0.343330  0.711120  0.295850  1
  C  C948  1  0.156670  0.788880  0.795850  1
  C  C949  1  0.612260  0.350490  0.661550  1
  C  C950  1  0.887740  0.149510  0.161550  1
  C  C951  1  0.387740  0.649510  0.338450  1
  C  C952  1  0.112260  0.850490  0.838450  1
  C  C953  1  0.885310  0.276290  0.739880  1
  C  C954  1  0.614690  0.223710  0.239880  1
  C  C955  1  0.114690  0.723710  0.260120  1
  C  C956  1  0.385310  0.776290  0.760120  1
  C  C957  1  0.800700  0.862200  0.834850  1
  C  C958  1  0.699300  0.637800  0.334850  1
  C  C959  1  0.199300  0.137800  0.165150  1
  C  C960  1  0.300700  0.362200  0.665150  1
  C  C961  1  0.709930  0.865310  0.824770  1
  C  C962  1  0.790070  0.634690  0.324770  1
  C  C963  1  0.290070  0.134690  0.175230  1
  C  C964  1  0.209930  0.365310  0.675230  1
  C  C965  1  0.648530  0.810050  0.822190  1
  C  C966  1  0.851470  0.689950  0.322190  1
  C  C967  1  0.351470  0.189950  0.177810  1
  C  C968  1  0.148530  0.310050  0.677810  1
  C  C969  1  0.679350  0.751070  0.827380  1
  C  C970  1  0.820650  0.748930  0.327380  1
  C  C971  1  0.320650  0.248930  0.172620  1
  C  C972  1  0.179350  0.251070  0.672620  1
  C  C973  1  0.772720  0.747750  0.834710  1
  C  C974  1  0.727280  0.752250  0.334710  1
  C  C975  1  0.227280  0.252250  0.165290  1
  C  C976  1  0.272720  0.247750  0.665290  1
  C  C977  1  0.833120  0.803180  0.838390  1
  C  C978  1  0.666880  0.696820  0.338390  1
  C  C979  1  0.166880  0.196820  0.161610  1
  C  C980  1  0.333120  0.303180  0.661610  1
  C  C981  1  0.870110  0.919520  0.834300  1
  C  C982  1  0.629890  0.580480  0.334300  1
  C  C983  1  0.129890  0.080480  0.165700  1
  C  C984  1  0.370110  0.419520  0.665700  1
  C  C985  1  0.621800  0.695890  0.818530  1
  C  C986  1  0.878200  0.804110  0.318530  1
  C  C987  1  0.378200  0.304110  0.181470  1
  C  C988  1  0.121800  0.195890  0.681470  1
  C  C989  1  0.470210  0.586400  0.877350  1
  C  C990  1  0.029790  0.913600  0.377350  1
  C  C991  1  0.529790  0.413600  0.122650  1
  C  C992  1  0.970210  0.086400  0.622650  1
  C  C993  1  0.481400  0.637870  0.897710  1
  C  C994  1  0.018600  0.862130  0.397710  1
  C  C995  1  0.518600  0.362130  0.102290  1
  C  C996  1  0.981400  0.137870  0.602290  1
  C  C997  1  0.572600  0.647570  0.904810  1
  C  C998  1  0.927400  0.852430  0.404810  1
  C  C999  1  0.427400  0.352430  0.095190  1
  C  C1000  1  0.072600  0.147570  0.595190  1
  C  C1001  1  0.619730  0.602290  0.888940  1
  C  C1002  1  0.880270  0.897710  0.388940  1
  C  C1003  1  0.380270  0.397710  0.111060  1
  C  C1004  1  0.119730  0.102290  0.611060  1
  C  C1005  1  0.715500  0.596260  0.891190  1
  C  C1006  1  0.784500  0.903740  0.391190  1
  C  C1007  1  0.284500  0.403740  0.108810  1
  C  C1008  1  0.215500  0.096260  0.608810  1
  C  C1009  1  0.769400  0.638280  0.912760  1
  C  C1010  1  0.730600  0.861720  0.412760  1
  C  C1011  1  0.230600  0.361720  0.087240  1
  C  C1012  1  0.269400  0.138280  0.587240  1
  C  C1013  1  0.791600  0.702680  0.907160  1
  C  C1014  1  0.708400  0.797320  0.407160  1
  C  C1015  1  0.208400  0.297320  0.092840  1
  C  C1016  1  0.291600  0.202680  0.592840  1
  C  C1017  1  0.838300  0.741790  0.928210  1
  C  C1018  1  0.661700  0.758210  0.428210  1
  C  C1019  1  0.161700  0.258210  0.071790  1
  C  C1020  1  0.338300  0.241790  0.571790  1
  C  C1021  1  0.864100  0.717640  0.954090  1
  C  C1022  1  0.635900  0.782360  0.454090  1
  C  C1023  1  0.135900  0.282360  0.045910  1
  C  C1024  1  0.364100  0.217640  0.545910  1
  C  C1025  1  0.842500  0.653820  0.959880  1
  C  C1026  1  0.657500  0.846180  0.459880  1
  C  C1027  1  0.157500  0.346180  0.040120  1
  C  C1028  1  0.342500  0.153820  0.540120  1
  C  C1029  1  0.795100  0.613540  0.939320  1
  C  C1030  1  0.704900  0.886460  0.439320  1
  C  C1031  1  0.204900  0.386460  0.060680  1
  C  C1032  1  0.295100  0.113540  0.560680  1
  C  C1033  1  0.763330  0.555870  0.873810  1
  C  C1034  1  0.736670  0.944130  0.373810  1
  C  C1035  1  0.236670  0.444130  0.126190  1
  C  C1036  1  0.263330  0.055870  0.626190  1
  C  C1037  1  0.863800  0.554390  0.874040  1
  C  C1038  1  0.636200  0.945610  0.374040  1
  C  C1039  1  0.136200  0.445610  0.125960  1
  C  C1040  1  0.363800  0.054390  0.625960  1
  C  C1041  1  0.883800  0.515720  0.852090  1
  C  C1042  1  0.616200  0.984280  0.352090  1
  C  C1043  1  0.116200  0.484280  0.147910  1
  C  C1044  1  0.383800  0.015720  0.647910  1
  C  C1045  1  0.796100  0.491510  0.838480  1
  C  C1046  1  0.703900  0.008490  0.338480  1
  C  C1047  1  0.203900  0.508490  0.161520  1
  C  C1048  1  0.296100  0.991510  0.661520  1
  C  C1049  1  0.786900  0.449710  0.815160  1
  C  C1050  1  0.713100  0.050290  0.315160  1
  C  C1051  1  0.213100  0.550290  0.184840  1
  C  C1052  1  0.286900  0.949710  0.684840  1
  C  C1053  1  0.873800  0.430900  0.801080  1
  C  C1054  1  0.626200  0.069100  0.301080  1
  C  C1055  1  0.126200  0.569100  0.198920  1
  C  C1056  1  0.373800  0.930900  0.698920  1
  C  C1057  1  0.905100  0.458110  0.774460  1
  C  C1058  1  0.594900  0.041890  0.274460  1
  C  C1059  1  0.094900  0.541890  0.225540  1
  C  C1060  1  0.405100  0.958110  0.725540  1
  C  C1061  1  0.982700  0.437080  0.760830  1
  C  C1062  1  0.517300  0.062920  0.260830  1
  C  C1063  1  0.017300  0.562920  0.239170  1
  C  C1064  1  0.482700  0.937080  0.739170  1
  C  C1065  1  0.031100  0.390410  0.772900  1
  C  C1066  1  0.468900  0.109590  0.272900  1
  C  C1067  1  0.968900  0.609590  0.227100  1
  C  C1068  1  0.531100  0.890410  0.727100  1
  C  C1069  1  0.001200  0.365590  0.799370  1
  C  C1070  1  0.498800  0.134410  0.299370  1
  C  C1071  1  0.998800  0.634410  0.200630  1
  C  C1072  1  0.501200  0.865590  0.700630  1
  C  C1073  1  0.923300  0.384900  0.813750  1
  C  C1074  1  0.576700  0.115100  0.313750  1
  C  C1075  1  0.076700  0.615100  0.186250  1
  C  C1076  1  0.423300  0.884900  0.686250  1
  C  C1077  1  0.854900  0.508200  0.759750  1
  C  C1078  1  0.645100  0.991800  0.259750  1
  C  C1079  1  0.145100  0.491800  0.240250  1
  C  C1080  1  0.354900  0.008200  0.740250  1
  C  C1081  1  0.112200  0.365500  0.757020  1
  C  C1082  1  0.387800  0.134500  0.257020  1
  C  C1083  1  0.887800  0.634500  0.242980  1
  C  C1084  1  0.612200  0.865500  0.742980  1
  C  C1085  1  0.891000  0.354080  0.841900  1
  C  C1086  1  0.609000  0.145920  0.341900  1
  C  C1087  1  0.109000  0.645920  0.158100  1
  C  C1088  1  0.391000  0.854080  0.658100  1
  C  C1089  1  0.700800  0.421990  0.803800  1
  C  C1090  1  0.799200  0.078010  0.303800  1
  C  C1091  1  0.299200  0.578010  0.196200  1
  C  C1092  1  0.200800  0.921990  0.696200  1
  C  C1093  1  0.691100  0.373980  0.781820  1
  C  C1094  1  0.808900  0.126020  0.281820  1
  C  C1095  1  0.308900  0.626020  0.218180  1
  C  C1096  1  0.191100  0.873980  0.718180  1
  C  C1097  1  0.598300  0.356790  0.777890  1
  C  C1098  1  0.901700  0.143210  0.277890  1
  C  C1099  1  0.401700  0.643210  0.222110  1
  C  C1100  1  0.098300  0.856790  0.722110  1
  C  C1101  1  0.549100  0.395120  0.797150  1
  C  C1102  1  0.950900  0.104880  0.297150  1
  C  C1103  1  0.450900  0.604880  0.202850  1
  C  C1104  1  0.049100  0.895120  0.702850  1
  C  C1105  1  0.451900  0.392340  0.799580  1
  C  C1106  1  0.048100  0.107660  0.299580  1
  C  C1107  1  0.548100  0.607660  0.200420  1
  C  C1108  1  0.951900  0.892340  0.700420  1
  C  C1109  1  0.394500  0.339180  0.783600  1
  C  C1110  1  0.105500  0.160820  0.283600  1
  C  C1111  1  0.605500  0.660820  0.216400  1
  C  C1112  1  0.894500  0.839180  0.716400  1
  C  C1113  1  0.361600  0.286310  0.799880  1
  C  C1114  1  0.138400  0.213690  0.299880  1
  C  C1115  1  0.638400  0.713690  0.200120  1
  C  C1116  1  0.861600  0.786310  0.700120  1
  C  C1117  1  0.312100  0.232800  0.787330  1
  C  C1118  1  0.187900  0.267200  0.287330  1
  C  C1119  1  0.687900  0.767200  0.212670  1
  C  C1120  1  0.812100  0.732800  0.712670  1
  C  C1121  1  0.290500  0.232000  0.758540  1
  C  C1122  1  0.209500  0.268000  0.258540  1
  C  C1123  1  0.709500  0.768000  0.241460  1
  C  C1124  1  0.790500  0.732000  0.741460  1
  C  C1125  1  0.321500  0.284200  0.742070  1
  C  C1126  1  0.178500  0.215800  0.242070  1
  C  C1127  1  0.678500  0.715800  0.257930  1
  C  C1128  1  0.821500  0.784200  0.757930  1
  C  C1129  1  0.375100  0.339800  0.753980  1
  C  C1130  1  0.124900  0.160200  0.253980  1
  C  C1131  1  0.624900  0.660200  0.246020  1
  C  C1132  1  0.875100  0.839800  0.746020  1
  C  C1133  1  0.404000  0.431780  0.817040  1
  C  C1134  1  0.096000  0.068220  0.317040  1
  C  C1135  1  0.596000  0.568220  0.182960  1
  C  C1136  1  0.904000  0.931780  0.682960  1
  C  C1137  1  0.303100  0.430880  0.818140  1
  C  C1138  1  0.196900  0.069120  0.318140  1
  C  C1139  1  0.696900  0.569120  0.181860  1
  C  C1140  1  0.803100  0.930880  0.681860  1
  C  C1141  1  0.284700  0.478550  0.836220  1
  C  C1142  1  0.215300  0.021450  0.336220  1
  C  C1143  1  0.715300  0.521450  0.163780  1
  C  C1144  1  0.784700  0.978550  0.663780  1
  C  C1145  1  0.372760  0.508320  0.846760  1
  C  C1146  1  0.127240  0.991680  0.346760  1
  C  C1147  1  0.627240  0.491680  0.153240  1
  C  C1148  1  0.872760  0.008320  0.653240  1
  C  C1149  1  0.384100  0.560020  0.866000  1
  C  C1150  1  0.115900  0.939980  0.366000  1
  C  C1151  1  0.615900  0.439980  0.134000  1
  C  C1152  1  0.884100  0.060020  0.634000  1
  C  C1153  1  0.299400  0.590790  0.874320  1
  C  C1154  1  0.200600  0.909210  0.374320  1
  C  C1155  1  0.700600  0.409210  0.125680  1
  C  C1156  1  0.799400  0.090790  0.625680  1
  C  C1157  1  0.266000  0.635040  0.854990  1
  C  C1158  1  0.234000  0.864960  0.354990  1
  C  C1159  1  0.734000  0.364960  0.145010  1
  C  C1160  1  0.766000  0.135040  0.645010  1
  C  C1161  1  0.189300  0.665740  0.863520  1
  C  C1162  1  0.310700  0.834260  0.363520  1
  C  C1163  1  0.810700  0.334260  0.136480  1
  C  C1164  1  0.689300  0.165740  0.636480  1
  C  C1165  1  0.145300  0.653850  0.889780  1
  C  C1166  1  0.354700  0.846150  0.389780  1
  C  C1167  1  0.854700  0.346150  0.110220  1
  C  C1168  1  0.645300  0.153850  0.610220  1
  C  C1169  1  0.178500  0.610090  0.908570  1
  C  C1170  1  0.321500  0.889910  0.408570  1
  C  C1171  1  0.821500  0.389910  0.091430  1
  C  C1172  1  0.678500  0.110090  0.591430  1
  C  C1173  1  0.255600  0.578430  0.901250  1
  C  C1174  1  0.244400  0.921570  0.401250  1
  C  C1175  1  0.744400  0.421570  0.098750  1
  C  C1176  1  0.755600  0.078430  0.598750  1
  C  C1177  1  0.313400  0.650620  0.826510  1
  C  C1178  1  0.186600  0.849380  0.326510  1
  C  C1179  1  0.686600  0.349380  0.173490  1
  C  C1180  1  0.813400  0.150620  0.673490  1
  C  C1181  1  0.063300  0.689200  0.898900  1
  C  C1182  1  0.436700  0.810800  0.398900  1
  C  C1183  1  0.936700  0.310800  0.101100  1
  C  C1184  1  0.563300  0.189200  0.601100  1
  C  C1185  1  0.292100  0.532370  0.922420  1
  C  C1186  1  0.207900  0.967630  0.422420  1
  C  C1187  1  0.707900  0.467630  0.077580  1
  C  C1188  1  0.792100  0.032370  0.577580  1
  C  C1189  1  0.854700  0.569800  0.993990  1
  C  C1190  1  0.645300  0.930200  0.493990  1
  C  C1191  1  0.145300  0.430200  0.006010  1
  C  C1192  1  0.354700  0.069800  0.506010  1
  C  C1193  1  0.913600  0.533500  0.975970  1
  C  C1194  1  0.586400  0.966500  0.475970  1
  C  C1195  1  0.086400  0.466500  0.024030  1
  C  C1196  1  0.413600  0.033500  0.524030  1
  C  C1197  1  0.960000  0.506450  0.960070  1
  C  C1198  1  0.540000  0.993550  0.460070  1
  C  C1199  1  0.040000  0.493550  0.039930  1
  C  C1200  1  0.460000  0.006450  0.539930  1
  C  C1201  1  0.010700  0.473750  0.941050  1
  C  C1202  1  0.489300  0.026250  0.441050  1
  C  C1203  1  0.989300  0.526250  0.058950  1
  C  C1204  1  0.510700  0.973750  0.558950  1
  C  C1205  1  0.054800  0.445560  0.924100  1
  C  C1206  1  0.445200  0.054440  0.424100  1
  C  C1207  1  0.945200  0.554440  0.075900  1
  C  C1208  1  0.554800  0.945560  0.575900  1
  C  C1209  1  0.102300  0.409420  0.903180  1
  C  C1210  1  0.397700  0.090580  0.403180  1
  C  C1211  1  0.897700  0.590580  0.096820  1
  C  C1212  1  0.602300  0.909420  0.596820  1
  C  C1213  1  0.250400  0.122000  0.796940  1
  C  C1214  1  0.249600  0.378000  0.296940  1
  C  C1215  1  0.749600  0.878000  0.203060  1
  C  C1216  1  0.750400  0.622000  0.703060  1
  C  C1217  1  0.241100  0.079700  0.823550  1
  C  C1218  1  0.258900  0.420300  0.323550  1
  C  C1219  1  0.758900  0.920300  0.176450  1
  C  C1220  1  0.741100  0.579700  0.676450  1
  C  C1221  1  0.234400  0.048700  0.846300  1
  C  C1222  1  0.265600  0.451300  0.346300  1
  C  C1223  1  0.765600  0.951300  0.153700  1
  C  C1224  1  0.734400  0.548700  0.653700  1
  C  C1225  1  0.229800  0.016700  0.872050  1
  C  C1226  1  0.270200  0.483300  0.372050  1
  C  C1227  1  0.770200  0.983300  0.127950  1
  C  C1228  1  0.729800  0.516700  0.627950  1
  C  C1229  1  0.230000  0.989300  0.894470  1
  C  C1230  1  0.270000  0.510700  0.394470  1
  C  C1231  1  0.770000  0.010700  0.105530  1
  C  C1232  1  0.730000  0.489300  0.605530  1
  C  C1233  1  0.233700  0.956300  0.920870  1
  C  C1234  1  0.266300  0.543700  0.420870  1
  C  C1235  1  0.766300  0.043700  0.079130  1
  C  C1236  1  0.733700  0.456300  0.579130  1
  C  C1237  1  0.773800  0.942840  0.916160  1
  C  C1238  1  0.726200  0.557160  0.416160  1
  C  C1239  1  0.226200  0.057160  0.083840  1
  C  C1240  1  0.273800  0.442840  0.583840  1
  C  C1241  1  0.723200  0.888400  0.929800  1
  C  C1242  1  0.776800  0.611600  0.429800  1
  C  C1243  1  0.276800  0.111600  0.070200  1
  C  C1244  1  0.223200  0.388400  0.570200  1
  C  C1245  1  0.638600  0.879090  0.916850  1
  C  C1246  1  0.861400  0.620910  0.416850  1
  C  C1247  1  0.361400  0.120910  0.083150  1
  C  C1248  1  0.138600  0.379090  0.583150  1
  C  C1249  1  0.636100  0.926910  0.894800  1
  C  C1250  1  0.863900  0.573090  0.394800  1
  C  C1251  1  0.363900  0.073090  0.105200  1
  C  C1252  1  0.136100  0.426910  0.605200  1
  C  C1253  1  0.559250  0.934600  0.877100  1
  C  C1254  1  0.940750  0.565400  0.377100  1
  C  C1255  1  0.440750  0.065400  0.122900  1
  C  C1256  1  0.059250  0.434600  0.622900  1
  C  C1257  1  0.471300  0.890800  0.882760  1
  C  C1258  1  0.028700  0.609200  0.382760  1
  C  C1259  1  0.528700  0.109200  0.117240  1
  C  C1260  1  0.971300  0.390800  0.617240  1
  C  C1261  1  0.465800  0.827210  0.875560  1
  C  C1262  1  0.034200  0.672790  0.375560  1
  C  C1263  1  0.534200  0.172790  0.124440  1
  C  C1264  1  0.965800  0.327210  0.624440  1
  C  C1265  1  0.384600  0.787320  0.881920  1
  C  C1266  1  0.115400  0.712680  0.381920  1
  C  C1267  1  0.615400  0.212680  0.118080  1
  C  C1268  1  0.884600  0.287320  0.618080  1
  C  C1269  1  0.309900  0.809950  0.895230  1
  C  C1270  1  0.190100  0.690050  0.395230  1
  C  C1271  1  0.690100  0.190050  0.104770  1
  C  C1272  1  0.809900  0.309950  0.604770  1
  C  C1273  1  0.315800  0.873210  0.902600  1
  C  C1274  1  0.184200  0.626790  0.402600  1
  C  C1275  1  0.684200  0.126790  0.097400  1
  C  C1276  1  0.815800  0.373210  0.597400  1
  C  C1277  1  0.396400  0.914420  0.896280  1
  C  C1278  1  0.103600  0.585580  0.396280  1
  C  C1279  1  0.603600  0.085580  0.103720  1
  C  C1280  1  0.896400  0.414420  0.603720  1
  C  C1281  1  0.559500  0.977410  0.854160  1
  C  C1282  1  0.940500  0.522590  0.354160  1
  C  C1283  1  0.440500  0.022590  0.145840  1
  C  C1284  1  0.059500  0.477410  0.645840  1
  C  C1285  1  0.482800  0.981150  0.834180  1
  C  C1286  1  0.017200  0.518850  0.334180  1
  C  C1287  1  0.517200  0.018850  0.165820  1
  C  C1288  1  0.982800  0.481150  0.665820  1
  C  C1289  1  0.514200  0.023440  0.812880  1
  C  C1290  1  0.985800  0.476560  0.312880  1
  C  C1291  1  0.485800  0.976560  0.187120  1
  C  C1292  1  0.014200  0.523440  0.687120  1
  C  C1293  1  0.609000  0.046280  0.819870  1
  C  C1294  1  0.891000  0.453720  0.319870  1
  C  C1295  1  0.391000  0.953720  0.180130  1
  C  C1296  1  0.109000  0.546280  0.680130  1
  C  C1297  1  0.666600  0.090730  0.803380  1
  C  C1298  1  0.833400  0.409270  0.303380  1
  C  C1299  1  0.333400  0.909270  0.196620  1
  C  C1300  1  0.166600  0.590730  0.696620  1
  C  C1301  1  0.627500  0.108800  0.774350  1
  C  C1302  1  0.872500  0.391200  0.274350  1
  C  C1303  1  0.372500  0.891200  0.225650  1
  C  C1304  1  0.127500  0.608800  0.725650  1
  C  C1305  1  0.653000  0.078540  0.748790  1
  C  C1306  1  0.847000  0.421460  0.248790  1
  C  C1307  1  0.347000  0.921460  0.251210  1
  C  C1308  1  0.153000  0.578540  0.751210  1
  C  C1309  1  0.606700  0.092580  0.722700  1
  C  C1310  1  0.893300  0.407420  0.222700  1
  C  C1311  1  0.393300  0.907420  0.277300  1
  C  C1312  1  0.106700  0.592580  0.777300  1
  C  C1313  1  0.541400  0.134400  0.721330  1
  C  C1314  1  0.958600  0.365600  0.221330  1
  C  C1315  1  0.458600  0.865600  0.278670  1
  C  C1316  1  0.041400  0.634400  0.778670  1
  C  C1317  1  0.521200  0.165300  0.746310  1
  C  C1318  1  0.978800  0.334700  0.246310  1
  C  C1319  1  0.478800  0.834700  0.253690  1
  C  C1320  1  0.021200  0.665300  0.753690  1
  C  C1321  1  0.564200  0.153420  0.772790  1
  C  C1322  1  0.935800  0.346580  0.272790  1
  C  C1323  1  0.435800  0.846580  0.227210  1
  C  C1324  1  0.064200  0.653420  0.727210  1
  C  C1325  1  0.724300  0.033800  0.749370  1
  C  C1326  1  0.775700  0.466200  0.249370  1
  C  C1327  1  0.275700  0.966200  0.250630  1
  C  C1328  1  0.224300  0.533800  0.750630  1
  C  C1329  1  0.491000  0.144100  0.693130  1
  C  C1330  1  0.009000  0.355900  0.193130  1
  C  C1331  1  0.509000  0.855900  0.306870  1
  C  C1332  1  0.991000  0.644100  0.806870  1
  C  C1333  1  0.539500  0.188500  0.799340  1
  C  C1334  1  0.960500  0.311500  0.299340  1
  C  C1335  1  0.460500  0.811500  0.200660  1
  C  C1336  1  0.039500  0.688500  0.700660  1
  C  C1337  1  0.753700  0.119560  0.812460  1
  C  C1338  1  0.746300  0.380440  0.312460  1
  C  C1339  1  0.246300  0.880440  0.187540  1
  C  C1340  1  0.253700  0.619560  0.687540  1
  C  C1341  1  0.803800  0.173570  0.798420  1
  C  C1342  1  0.696200  0.326430  0.298420  1
  C  C1343  1  0.196200  0.826430  0.201580  1
  C  C1344  1  0.303800  0.673570  0.701580  1
  C  C1345  1  0.878400  0.192870  0.815030  1
  C  C1346  1  0.621600  0.307130  0.315030  1
  C  C1347  1  0.121600  0.807130  0.184970  1
  C  C1348  1  0.378400  0.692870  0.684970  1
  C  C1349  1  0.879000  0.149500  0.838940  1
  C  C1350  1  0.621000  0.350500  0.338940  1
  C  C1351  1  0.121000  0.850500  0.161060  1
  C  C1352  1  0.379000  0.649500  0.661060  1
  C  C1353  1  0.947300  0.150660  0.861080  1
  C  C1354  1  0.552700  0.349340  0.361080  1
  C  C1355  1  0.052700  0.849340  0.138920  1
  C  C1356  1  0.447300  0.650660  0.638920  1
  C  C1357  1  0.021300  0.206180  0.861830  1
  C  C1358  1  0.478700  0.293820  0.361830  1
  C  C1359  1  0.978700  0.793820  0.138170  1
  C  C1360  1  0.521300  0.706180  0.638170  1
  C  C1361  1  0.087900  0.217500  0.839970  1
  C  C1362  1  0.412100  0.282500  0.339970  1
  C  C1363  1  0.912100  0.782500  0.160030  1
  C  C1364  1  0.587900  0.717500  0.660030  1
  C  C1365  1  0.151200  0.271820  0.841230  1
  C  C1366  1  0.348800  0.228180  0.341230  1
  C  C1367  1  0.848800  0.728180  0.158770  1
  C  C1368  1  0.651200  0.771820  0.658770  1
  C  C1369  1  0.147800  0.315430  0.863180  1
  C  C1370  1  0.352200  0.184570  0.363180  1
  C  C1371  1  0.852200  0.684570  0.136820  1
  C  C1372  1  0.647800  0.815430  0.636820  1
  C  C1373  1  0.082800  0.303960  0.884970  1
  C  C1374  1  0.417200  0.196040  0.384970  1
  C  C1375  1  0.917200  0.696040  0.115030  1
  C  C1376  1  0.582800  0.803960  0.615030  1
  C  C1377  1  0.020000  0.248280  0.884620  1
  C  C1378  1  0.480000  0.251720  0.384620  1
  C  C1379  1  0.980000  0.751720  0.115380  1
  C  C1380  1  0.520000  0.748280  0.615380  1
  C  C1381  1  0.949200  0.106340  0.883440  1
  C  C1382  1  0.550800  0.393660  0.383440  1
  C  C1383  1  0.050800  0.893660  0.116560  1
  C  C1384  1  0.449200  0.606340  0.616560  1
  C  C1385  1  0.024300  0.103660  0.903860  1
  C  C1386  1  0.475700  0.396340  0.403860  1
  C  C1387  1  0.975700  0.896340  0.096140  1
  C  C1388  1  0.524300  0.603660  0.596140  1
  C  C1389  1  0.002000  0.053270  0.921270  1
  C  C1390  1  0.498000  0.446730  0.421270  1
  C  C1391  1  0.998000  0.946730  0.078730  1
  C  C1392  1  0.502000  0.553270  0.578730  1
  C  C1393  1  0.911180  0.023710  0.911850  1
  C  C1394  1  0.588820  0.476290  0.411850  1
  C  C1395  1  0.088820  0.976290  0.088150  1
  C  C1396  1  0.411180  0.523710  0.588150  1
  C  C1397  1  0.863150  0.970250  0.924840  1
  C  C1398  1  0.636850  0.529750  0.424840  1
  C  C1399  1  0.136850  0.029750  0.075160  1
  C  C1400  1  0.363150  0.470250  0.575160  1
  C  C1401  1  0.906200  0.938920  0.950050  1
  C  C1402  1  0.593800  0.561080  0.450050  1
  C  C1403  1  0.093800  0.061080  0.049950  1
  C  C1404  1  0.406200  0.438920  0.549950  1
  C  C1405  1  0.970800  0.895420  0.944610  1
  C  C1406  1  0.529200  0.604580  0.444610  1
  C  C1407  1  0.029200  0.104580  0.055390  1
  C  C1408  1  0.470800  0.395420  0.555390  1
  C  C1409  1  0.001200  0.861340  0.967800  1
  C  C1410  1  0.498800  0.638660  0.467800  1
  C  C1411  1  0.998800  0.138660  0.032200  1
  C  C1412  1  0.501200  0.361340  0.532200  1
  C  C1413  1  0.967500  0.867930  0.995850  1
  C  C1414  1  0.532500  0.632070  0.495850  1
  C  C1415  1  0.032500  0.132070  0.004150  1
  C  C1416  1  0.467500  0.367930  0.504150  1
  C  C1417  1  0.906100  0.913210  0.001020  1
  C  C1418  1  0.593900  0.586790  0.501020  1
  C  C1419  1  0.093900  0.086790  0.998980  1
  C  C1420  1  0.406100  0.413210  0.498980  1
  C  C1421  1  0.876000  0.949490  0.978180  1
  C  C1422  1  0.624000  0.550510  0.478180  1
  C  C1423  1  0.124000  0.050510  0.021820  1
  C  C1424  1  0.376000  0.449490  0.521820  1
  C  C1425  1  0.003400  0.884000  0.914290  1
  C  C1426  1  0.496600  0.616000  0.414290  1
  C  C1427  1  0.996600  0.116000  0.085710  1
  C  C1428  1  0.503400  0.384000  0.585710  1
  C  C1429  1  0.991900  0.825670  0.020760  1
  C  C1430  1  0.508100  0.674330  0.520760  1
  C  C1431  1  0.008100  0.174330  0.979240  1
  C  C1432  1  0.491900  0.325670  0.479240  1
  C  C1433  1  0.810900  0.998430  0.984900  1
  C  C1434  1  0.689100  0.501570  0.484900  1
  C  C1435  1  0.189100  0.001570  0.015100  1
  C  C1436  1  0.310900  0.498430  0.515100  1
  C  C1437  1  0.617850  0.638080  0.793680  1
  C  C1438  1  0.882150  0.861920  0.293680  1
  C  C1439  1  0.382150  0.361920  0.206320  1
  C  C1440  1  0.117850  0.138080  0.706320  1
  C  C1441  1  0.546450  0.663530  0.778780  1
  C  C1442  1  0.953550  0.836470  0.278780  1
  C  C1443  1  0.453550  0.336470  0.221220  1
  C  C1444  1  0.046450  0.163530  0.721220  1
  C  C1445  1  0.503780  0.631140  0.755110  1
  C  C1446  1  0.996220  0.868860  0.255110  1
  C  C1447  1  0.496220  0.368860  0.244890  1
  C  C1448  1  0.003780  0.131140  0.744890  1
  C  C1449  1  0.525830  0.570650  0.748040  1
  C  C1450  1  0.974170  0.929350  0.248040  1
  C  C1451  1  0.474170  0.429350  0.251960  1
  C  C1452  1  0.025830  0.070650  0.751960  1
  C  C1453  1  0.601270  0.547200  0.761730  1
  C  C1454  1  0.898730  0.952800  0.261730  1
  C  C1455  1  0.398730  0.452800  0.238270  1
  C  C1456  1  0.101270  0.047200  0.738270  1
  C  C1457  1  0.644550  0.579650  0.785280  1
  C  C1458  1  0.855450  0.920350  0.285280  1
  C  C1459  1  0.355450  0.420350  0.214720  1
  C  C1460  1  0.144550  0.079650  0.714720  1
  C  C1461  1  0.670000  0.673530  0.817440  1
  C  C1462  1  0.830000  0.826470  0.317440  1
  C  C1463  1  0.330000  0.326470  0.182560  1
  C  C1464  1  0.170000  0.173530  0.682560  1
  C  C1465  1  0.483900  0.539890  0.723260  1
  C  C1466  1  0.016100  0.960110  0.223260  1
  C  C1467  1  0.516100  0.460110  0.276740  1
  C  C1468  1  0.983900  0.039890  0.776740  1
  C  C1469  1  0.890700  0.934160  0.828870  1
  C  C1470  1  0.609300  0.565840  0.328870  1
  C  C1471  1  0.109300  0.065840  0.171130  1
  C  C1472  1  0.390700  0.434160  0.671130  1
  C  C1473  1  0.803100  0.939300  0.816780  1
  C  C1474  1  0.696900  0.560700  0.316780  1
  C  C1475  1  0.196900  0.060700  0.183220  1
  C  C1476  1  0.303100  0.439300  0.683220  1
  C  C1477  1  0.730600  0.890780  0.820720  1
  C  C1478  1  0.769400  0.609220  0.320720  1
  C  C1479  1  0.269400  0.109220  0.179280  1
  C  C1480  1  0.230600  0.390780  0.679280  1
  C  C1481  1  0.747100  0.835140  0.834970  1
  C  C1482  1  0.752900  0.664860  0.334970  1
  C  C1483  1  0.252900  0.164860  0.165030  1
  C  C1484  1  0.247100  0.335140  0.665030  1
  C  C1485  1  0.834500  0.830250  0.847290  1
  C  C1486  1  0.665500  0.669750  0.347290  1
  C  C1487  1  0.165500  0.169750  0.152710  1
  C  C1488  1  0.334500  0.330250  0.652710  1
  C  C1489  1  0.906800  0.878900  0.843490  1
  C  C1490  1  0.593200  0.621100  0.343490  1
  C  C1491  1  0.093200  0.121100  0.156510  1
  C  C1492  1  0.406800  0.378900  0.656510  1
  C  C1493  1  0.971900  0.980980  0.821640  1
  C  C1494  1  0.528100  0.519020  0.321640  1
  C  C1495  1  0.028100  0.019020  0.178360  1
  C  C1496  1  0.471900  0.480980  0.678360  1
  C  C1497  1  0.679500  0.781530  0.833010  1
  C  C1498  1  0.820500  0.718470  0.333010  1
  C  C1499  1  0.320500  0.218470  0.166990  1
  C  C1500  1  0.179500  0.281530  0.666990  1
  C  C1501  1  0.559710  0.563970  0.755710  1
  C  C1502  1  0.940290  0.936030  0.255710  1
  C  C1503  1  0.440290  0.436030  0.244290  1
  C  C1504  1  0.059710  0.063970  0.744290  1
  C  C1505  1  0.594060  0.508470  0.746430  1
  C  C1506  1  0.905940  0.991530  0.246430  1
  C  C1507  1  0.405940  0.491530  0.253570  1
  C  C1508  1  0.094060  0.008470  0.753570  1
  C  C1509  1  0.576070  0.486030  0.718320  1
  C  C1510  1  0.923930  0.013970  0.218320  1
  C  C1511  1  0.423930  0.513970  0.281680  1
  C  C1512  1  0.076070  0.986030  0.781680  1
  C  C1513  1  0.518680  0.516650  0.699900  1
  C  C1514  1  0.981320  0.983350  0.199900  1
  C  C1515  1  0.481320  0.483350  0.300100  1
  C  C1516  1  0.018680  0.016650  0.800100  1
  C  C1517  1  0.480720  0.570430  0.709700  1
  C  C1518  1  0.019280  0.929570  0.209700  1
  C  C1519  1  0.519280  0.429570  0.290300  1
  C  C1520  1  0.980720  0.070430  0.790300  1
  C  C1521  1  0.508030  0.597020  0.736470  1
  C  C1522  1  0.991970  0.902980  0.236470  1
  C  C1523  1  0.491970  0.402980  0.263530  1
  C  C1524  1  0.008030  0.097020  0.763530  1
  C  C1525  1  0.597200  0.597000  0.782380  1
  C  C1526  1  0.902800  0.903000  0.282380  1
  C  C1527  1  0.402800  0.403000  0.217620  1
  C  C1528  1  0.097200  0.097000  0.717620  1
  C  C1529  1  0.488530  0.487120  0.673449  1
  C  C1530  1  0.011470  0.012880  0.173449  1
  C  C1531  1  0.511470  0.512880  0.326551  1
  C  C1532  1  0.988530  0.987120  0.826551  1
  C  C1533  1  0.543280  0.065920  0.940980  1
  C  C1534  1  0.956720  0.434080  0.440980  1
  C  C1535  1  0.456720  0.934080  0.059020  1
  C  C1536  1  0.043280  0.565920  0.559020  1
  C  C1537  1  0.710520  0.365420  0.007600  1
  C  C1538  1  0.789480  0.134580  0.507600  1
  C  C1539  1  0.289480  0.634580  0.992400  1
  C  C1540  1  0.210520  0.865420  0.492400  1
  C  C1541  1  0.567330  0.086390  0.912140  1
  C  C1542  1  0.932670  0.413610  0.412140  1
  C  C1543  1  0.432670  0.913610  0.087860  1
  C  C1544  1  0.067330  0.586390  0.587860  1
  C  C1545  1  0.672990  0.314320  0.025780  1
  C  C1546  1  0.827010  0.185680  0.525780  1
  C  C1547  1  0.327010  0.685680  0.974220  1
  C  C1548  1  0.172990  0.814320  0.474220  1
  C  C1549  1  0.501910  0.112020  0.893590  1
  C  C1550  1  0.998090  0.387980  0.393590  1
  C  C1551  1  0.498090  0.887980  0.106410  1
  C  C1552  1  0.001910  0.612020  0.606410  1
  C  C1553  1  0.578070  0.307940  0.035050  1
  C  C1554  1  0.921930  0.192060  0.535050  1
  C  C1555  1  0.421930  0.692060  0.964950  1
  C  C1556  1  0.078070  0.807940  0.464950  1
  C  C1557  1  0.536030  0.160680  0.873730  1
  C  C1558  1  0.963970  0.339320  0.373730  1
  C  C1559  1  0.463970  0.839320  0.126270  1
  C  C1560  1  0.036030  0.660680  0.626270  1
  C  C1561  1  0.531100  0.245650  0.038460  1
  C  C1562  1  0.968900  0.254350  0.538460  1
  C  C1563  1  0.468900  0.754350  0.961540  1
  C  C1564  1  0.031100  0.745650  0.461540  1
  C  C1565  1  0.480930  0.210820  0.866087  1
  C  C1566  1  0.019070  0.289180  0.366087  1
  C  C1567  1  0.519070  0.789180  0.133913  1
  C  C1568  1  0.980930  0.710820  0.633913  1
  C  C1569  1  0.432820  0.232040  0.032310  1
  C  C1570  1  0.067180  0.267960  0.532310  1
  C  C1571  1  0.567180  0.767960  0.967690  1
  C  C1572  1  0.932820  0.732040  0.467690  1
  C  C1573  1  0.390250  0.213510  0.878540  1
  C  C1574  1  0.109750  0.286490  0.378540  1
  C  C1575  1  0.609750  0.786490  0.121460  1
  C  C1576  1  0.890250  0.713510  0.621460  1
  C  C1577  1  0.379580  0.280870  0.022280  1
  C  C1578  1  0.120420  0.219130  0.522280  1
  C  C1579  1  0.620420  0.719130  0.977720  1
  C  C1580  1  0.879580  0.780870  0.477720  1
  C  C1581  1  0.360580  0.274940  0.884600  1
  C  C1582  1  0.139420  0.225060  0.384600  1
  C  C1583  1  0.639420  0.725060  0.115400  1
  C  C1584  1  0.860580  0.774940  0.615400  1
  C  C1585  1  0.305240  0.264180  0.001700  1
  C  C1586  1  0.194760  0.235820  0.501700  1
  C  C1587  1  0.694760  0.735820  0.998300  1
  C  C1588  1  0.805240  0.764180  0.498300  1
  C  C1589  1  0.293210  0.287110  0.906990  1
  C  C1590  1  0.206790  0.212890  0.406990  1
  C  C1591  1  0.706790  0.712890  0.093010  1
  C  C1592  1  0.793210  0.787110  0.593010  1
  C  C1593  1  0.271600  0.308020  0.980800  1
  C  C1594  1  0.228400  0.191980  0.480800  1
  C  C1595  1  0.728400  0.691980  0.019200  1
  C  C1596  1  0.771600  0.808020  0.519200  1
  C  C1597  1  0.265430  0.235160  0.927180  1
  C  C1598  1  0.234570  0.264840  0.427180  1
  C  C1599  1  0.734570  0.764840  0.072820  1
  C  C1600  1  0.765430  0.735160  0.572820  1
  C  C1601  1  0.326810  0.369890  0.977910  1
  C  C1602  1  0.173190  0.130110  0.477910  1
  C  C1603  1  0.673190  0.630110  0.022090  1
  C  C1604  1  0.826810  0.869890  0.522090  1
  C  C1605  1  0.260120  0.250750  0.957660  1
  C  C1606  1  0.239880  0.249250  0.457660  1
  C  C1607  1  0.739880  0.749250  0.042340  1
  C  C1608  1  0.760120  0.750750  0.542340  1
  C  C1609  1  0.344550  0.394210  0.948870  1
  C  C1610  1  0.155450  0.105790  0.448870  1
  C  C1611  1  0.655450  0.605790  0.051130  1
  C  C1612  1  0.844550  0.894210  0.551130  1
  C  C1613  1  0.384560  0.092250  0.933370  1
  C  C1614  1  0.115440  0.407750  0.433370  1
  C  C1615  1  0.615440  0.907750  0.066630  1
  C  C1616  1  0.884560  0.592250  0.566630  1
  C  C1617  1  0.560570  0.408560  0.008620  1
  C  C1618  1  0.939430  0.091440  0.508620  1
  C  C1619  1  0.439430  0.591440  0.991380  1
  C  C1620  1  0.060570  0.908560  0.491380  1
  C  C1621  1  0.282920  0.207020  0.979960  1
  C  C1622  1  0.217080  0.292980  0.479960  1
  C  C1623  1  0.717080  0.792980  0.020040  1
  C  C1624  1  0.782920  0.707020  0.520040  1
  C  C1625  1  0.430870  0.432500  0.941620  1
  C  C1626  1  0.069130  0.067500  0.441620  1
  C  C1627  1  0.569130  0.567500  0.058380  1
  C  C1628  1  0.930870  0.932500  0.558380  1
  C  C1629  1  0.322210  0.243250  0.004420  1
  C  C1630  1  0.177790  0.256750  0.504420  1
  C  C1631  1  0.677790  0.756750  0.995580  1
  C  C1632  1  0.822210  0.743250  0.495580  1
  C  C1633  1  0.453410  0.420320  0.911750  1
  C  C1634  1  0.046590  0.079680  0.411750  1
  C  C1635  1  0.546590  0.579680  0.088250  1
  C  C1636  1  0.953410  0.920320  0.588250  1
  C  C1637  1  0.389780  0.219370  0.022910  1
  C  C1638  1  0.110220  0.280630  0.522910  1
  C  C1639  1  0.610220  0.780630  0.977090  1
  C  C1640  1  0.889780  0.719370  0.477090  1
  C  C1641  1  0.548100  0.424740  0.902050  1
  C  C1642  1  0.951900  0.075260  0.402050  1
  C  C1643  1  0.451900  0.575260  0.097950  1
  C  C1644  1  0.048100  0.924740  0.597950  1
  C  C1645  1  0.414850  0.156720  0.017760  1
  C  C1646  1  0.085150  0.343280  0.517760  1
  C  C1647  1  0.585150  0.843280  0.982240  1
  C  C1648  1  0.914850  0.656720  0.482240  1
  C  C1649  1  0.621400  0.444980  0.922250  1
  C  C1650  1  0.878600  0.055020  0.422250  1
  C  C1651  1  0.378600  0.555020  0.077750  1
  C  C1652  1  0.121400  0.944980  0.577750  1
  C  C1653  1  0.506220  0.137280  0.024400  1
  C  C1654  1  0.993780  0.362720  0.524400  1
  C  C1655  1  0.493780  0.862720  0.975600  1
  C  C1656  1  0.006220  0.637280  0.475600  1
  C  C1657  1  0.714640  0.424890  0.920920  1
  C  C1658  1  0.785360  0.075110  0.420920  1
  C  C1659  1  0.285360  0.575110  0.079080  1
  C  C1660  1  0.214640  0.924890  0.579080  1
  C  C1661  1  0.526410  0.090620  0.002440  1
  C  C1662  1  0.973590  0.409380  0.502440  1
  C  C1663  1  0.473590  0.909380  0.997560  1
  C  C1664  1  0.026410  0.590620  0.497560  1
  C  C1665  1  0.748430  0.420860  0.950840  1
  C  C1666  1  0.751570  0.079140  0.450840  1
  C  C1667  1  0.251570  0.579140  0.049160  1
  C  C1668  1  0.248430  0.920860  0.549160  1
  C  C1669  1  0.619500  0.089730  0.990460  1
  C  C1670  1  0.880500  0.410270  0.490460  1
  C  C1671  1  0.380500  0.910270  0.009540  1
  C  C1672  1  0.119500  0.589730  0.509540  1
  C  C1673  1  0.802220  0.370480  0.960000  1
  C  C1674  1  0.697780  0.129520  0.460000  1
  C  C1675  1  0.197780  0.629520  0.040000  1
  C  C1676  1  0.302220  0.870480  0.540000  1
  C  C1677  1  0.624710  0.077810  0.959610  1
  C  C1678  1  0.875290  0.422190  0.459610  1
  C  C1679  1  0.375290  0.922190  0.040390  1
  C  C1680  1  0.124710  0.577810  0.540390  1
  C  C1681  1  0.780370  0.343720  0.988400  1
  C  C1682  1  0.719630  0.156280  0.488400  1
  C  C1683  1  0.219630  0.656280  0.011600  1
  C  C1684  1  0.280370  0.843720  0.511600  1
  C  C1685  1  0.698600  0.106900  0.941160  1
  C  C1686  1  0.801400  0.393100  0.441160  1
  C  C1687  1  0.301400  0.893100  0.058840  1
  C  C1688  1  0.198600  0.606900  0.558840  1
  C  C1689  1  0.783060  0.277550  0.995320  1
  C  C1690  1  0.716940  0.222450  0.495320  1
  C  C1691  1  0.216940  0.722450  0.004680  1
  C  C1692  1  0.283060  0.777550  0.504680  1
  C  C1693  1  0.664230  0.111670  0.912400  1
  C  C1694  1  0.835770  0.388330  0.412400  1
  C  C1695  1  0.335770  0.888330  0.087600  1
  C  C1696  1  0.164230  0.611670  0.587600  1
  C  C1697  1  0.718720  0.259810  0.018070  1
  C  C1698  1  0.781280  0.240190  0.518070  1
  C  C1699  1  0.281280  0.740190  0.981930  1
  C  C1700  1  0.218720  0.759810  0.481930  1
  C  C1701  1  0.408690  0.112320  0.904370  1
  C  C1702  1  0.091310  0.387680  0.404370  1
  C  C1703  1  0.591310  0.887680  0.095630  1
  C  C1704  1  0.908690  0.612320  0.595630  1
  C  C1705  1  0.523330  0.357500  0.027030  1
  C  C1706  1  0.976670  0.142500  0.527030  1
  C  C1707  1  0.476670  0.642500  0.972970  1
  C  C1708  1  0.023330  0.857500  0.472970  1
  C  C1709  1  0.696740  0.163550  0.893815  1
  C  C1710  1  0.803260  0.336450  0.393815  1
  C  C1711  1  0.303260  0.836450  0.106185  1
  C  C1712  1  0.196740  0.663550  0.606185  1
  C  C1713  1  0.668950  0.197650  0.019610  1
  C  C1714  1  0.831050  0.302350  0.519610  1
  C  C1715  1  0.331050  0.802350  0.980390  1
  C  C1716  1  0.168950  0.697650  0.480390  1
  C  C1717  1  0.632500  0.186290  0.874027  1
  C  C1718  1  0.867500  0.313710  0.374027  1
  C  C1719  1  0.367500  0.813710  0.125973  1
  C  C1720  1  0.132500  0.686290  0.625973  1
  C  C1721  1  0.576220  0.191170  0.030630  1
  C  C1722  1  0.923780  0.308830  0.530630  1
  C  C1723  1  0.423780  0.808830  0.969370  1
  C  C1724  1  0.076220  0.691170  0.469370  1
  C  C1725  1  0.638810  0.252610  0.866425  1
  C  C1726  1  0.861190  0.247390  0.366425  1
  C  C1727  1  0.361190  0.747390  0.133575  1
  C  C1728  1  0.138810  0.752610  0.633575  1
  C  C1729  1  0.506600  0.142800  0.019660  1
  C  C1730  1  0.993400  0.357200  0.519660  1
  C  C1731  1  0.493400  0.857200  0.980340  1
  C  C1732  1  0.006600  0.642800  0.480340  1
  C  C1733  1  0.543840  0.267220  0.861756  1
  C  C1734  1  0.956160  0.232780  0.361756  1
  C  C1735  1  0.456160  0.732780  0.138244  1
  C  C1736  1  0.043840  0.767220  0.638244  1
  C  C1737  1  0.417880  0.169160  0.020660  1
  C  C1738  1  0.082120  0.330840  0.520660  1
  C  C1739  1  0.582120  0.830840  0.979340  1
  C  C1740  1  0.917880  0.669160  0.479340  1
  C  C1741  1  0.518770  0.327080  0.869600  1
  C  C1742  1  0.981230  0.172920  0.369600  1
  C  C1743  1  0.481230  0.672920  0.130400  1
  C  C1744  1  0.018770  0.827080  0.630400  1
  C  C1745  1  0.350570  0.153270  0.998980  1
  C  C1746  1  0.149430  0.346730  0.498980  1
  C  C1747  1  0.649430  0.846730  0.001020  1
  C  C1748  1  0.850570  0.653270  0.501020  1
  C  C1749  1  0.426170  0.330440  0.880810  1
  C  C1750  1  0.073830  0.169560  0.380810  1
  C  C1751  1  0.573830  0.669560  0.119190  1
  C  C1752  1  0.926170  0.830440  0.619190  1
  C  C1753  1  0.293780  0.201250  0.989800  1
  C  C1754  1  0.206220  0.298750  0.489800  1
  C  C1755  1  0.706220  0.798750  0.010200  1
  C  C1756  1  0.793780  0.701250  0.510200  1
  C  C1757  1  0.403950  0.376890  0.901650  1
  C  C1758  1  0.096050  0.123110  0.401650  1
  C  C1759  1  0.596050  0.623110  0.098350  1
  C  C1760  1  0.903950  0.876890  0.598350  1
  C  C1761  1  0.257380  0.205090  0.960870  1
  C  C1762  1  0.242620  0.294910  0.460870  1
  C  C1763  1  0.742620  0.794910  0.039130  1
  C  C1764  1  0.757380  0.705090  0.539130  1
  C  C1765  1  0.320490  0.352540  0.917850  1
  C  C1766  1  0.179510  0.147460  0.417850  1
  C  C1767  1  0.679510  0.647460  0.082150  1
  C  C1768  1  0.820490  0.852540  0.582150  1
  C  C1769  1  0.240380  0.270240  0.954680  1
  C  C1770  1  0.259620  0.229760  0.454680  1
  C  C1771  1  0.759620  0.729760  0.045320  1
  C  C1772  1  0.740380  0.770240  0.545320  1
  C  C1773  1  0.320470  0.365540  0.949230  1
  C  C1774  1  0.179530  0.134460  0.449230  1
  C  C1775  1  0.679530  0.634460  0.050770  1
  C  C1776  1  0.820470  0.865540  0.550770  1
  C  C1777  1  0.265580  0.294760  0.925510  1
  C  C1778  1  0.234420  0.205240  0.425510  1
  C  C1779  1  0.734420  0.705240  0.074490  1
  C  C1780  1  0.765580  0.794760  0.574490  1
  C  C1781  1  0.287280  0.314440  0.968260  1
  C  C1782  1  0.212720  0.185560  0.468260  1
  C  C1783  1  0.712720  0.685560  0.031740  1
  C  C1784  1  0.787280  0.814440  0.531740  1
  C  C1785  1  0.314630  0.357220  0.923410  1
  C  C1786  1  0.185370  0.142780  0.423410  1
  C  C1787  1  0.685370  0.642780  0.076590  1
  C  C1788  1  0.814630  0.857220  0.576590  1
  C  C1789  1  0.353820  0.162880  0.896850  1
  C  C1790  1  0.146180  0.337120  0.396850  1
  C  C1791  1  0.646180  0.837120  0.103150  1
  C  C1792  1  0.853820  0.662880  0.603150  1
  C  C1793  1  0.424930  0.343670  0.020680  1
  C  C1794  1  0.075070  0.156330  0.520680  1
  C  C1795  1  0.575070  0.656330  0.979320  1
  C  C1796  1  0.924930  0.843670  0.479320  1
  C  C1797  1  0.326180  0.308410  0.996970  1
  C  C1798  1  0.173820  0.191590  0.496970  1
  C  C1799  1  0.673820  0.691590  0.003030  1
  C  C1800  1  0.826180  0.808410  0.503030  1
  C  C1801  1  0.383440  0.373740  0.900970  1
  C  C1802  1  0.116560  0.126260  0.400970  1
  C  C1803  1  0.616560  0.626260  0.099030  1
  C  C1804  1  0.883440  0.873740  0.599030  1
  C  C1805  1  0.399110  0.353140  0.008150  1
  C  C1806  1  0.100890  0.146860  0.508150  1
  C  C1807  1  0.600890  0.646860  0.991850  1
  C  C1808  1  0.899110  0.853140  0.491850  1
  C  C1809  1  0.405900  0.329170  0.879490  1
  C  C1810  1  0.094100  0.170830  0.379490  1
  C  C1811  1  0.594100  0.670830  0.120510  1
  C  C1812  1  0.905900  0.829170  0.620510  1
  C  C1813  1  0.464090  0.330370  0.028290  1
  C  C1814  1  0.035910  0.169630  0.528290  1
  C  C1815  1  0.535910  0.669630  0.971710  1
  C  C1816  1  0.964090  0.830370  0.471710  1
  C  C1817  1  0.499700  0.335720  0.868180  1
  C  C1818  1  0.000300  0.164280  0.368180  1
  C  C1819  1  0.500300  0.664280  0.131820  1
  C  C1820  1  0.999700  0.835720  0.631820  1
  C  C1821  1  0.458420  0.264350  0.035200  1
  C  C1822  1  0.041580  0.235650  0.535200  1
  C  C1823  1  0.541580  0.735650  0.964800  1
  C  C1824  1  0.958420  0.764350  0.464800  1
  C  C1825  1  0.568600  0.382960  0.879630  1
  C  C1826  1  0.931400  0.117040  0.379630  1
  C  C1827  1  0.431400  0.617040  0.120370  1
  C  C1828  1  0.068600  0.882960  0.620370  1
  C  C1829  1  0.552350  0.247740  0.040456  1
  C  C1830  1  0.947650  0.252260  0.540456  1
  C  C1831  1  0.447650  0.752260  0.959544  1
  C  C1832  1  0.052350  0.747740  0.459544  1
  C  C1833  1  0.659300  0.358770  0.878680  1
  C  C1834  1  0.840700  0.141230  0.378680  1
  C  C1835  1  0.340700  0.641230  0.121320  1
  C  C1836  1  0.159300  0.858770  0.621320  1
  C  C1837  1  0.579080  0.184990  0.035214  1
  C  C1838  1  0.920920  0.315010  0.535214  1
  C  C1839  1  0.420920  0.815010  0.964786  1
  C  C1840  1  0.079080  0.684990  0.464786  1
  C  C1841  1  0.733740  0.378280  0.898960  1
  C  C1842  1  0.766260  0.121720  0.398960  1
  C  C1843  1  0.266260  0.621720  0.101040  1
  C  C1844  1  0.233740  0.878280  0.601040  1
  C  C1845  1  0.672610  0.181540  0.024487  1
  C  C1846  1  0.827390  0.318460  0.524487  1
  C  C1847  1  0.327390  0.818460  0.975513  1
  C  C1848  1  0.172610  0.681540  0.475513  1
  C  C1849  1  0.791880  0.330440  0.907740  1
  C  C1850  1  0.708120  0.169560  0.407740  1
  C  C1851  1  0.208120  0.669560  0.092260  1
  C  C1852  1  0.291880  0.830440  0.592260  1
  C  C1853  1  0.692870  0.135080  0.002375  1
  C  C1854  1  0.807130  0.364920  0.502375  1
  C  C1855  1  0.307130  0.864920  0.997625  1
  C  C1856  1  0.192870  0.635080  0.497625  1
  C  C1857  1  0.825330  0.326130  0.937750  1
  C  C1858  1  0.674670  0.173870  0.437750  1
  C  C1859  1  0.174670  0.673870  0.062250  1
  C  C1860  1  0.325330  0.826130  0.562250  1
  C  C1861  1  0.762600  0.166570  0.982983  1
  C  C1862  1  0.737400  0.333430  0.482983  1
  C  C1863  1  0.237400  0.833430  0.017017  1
  C  C1864  1  0.262600  0.666570  0.517017  1
  C  C1865  1  0.821520  0.259340  0.944850  1
  C  C1866  1  0.678480  0.240660  0.444850  1
  C  C1867  1  0.178480  0.740660  0.055150  1
  C  C1868  1  0.321520  0.759340  0.555150  1
  C  C1869  1  0.767480  0.154040  0.952558  1
  C  C1870  1  0.732520  0.345960  0.452558  1
  C  C1871  1  0.232520  0.845960  0.047442  1
  C  C1872  1  0.267480  0.654040  0.547442  1
  C  C1873  1  0.800540  0.233510  0.973070  1
  C  C1874  1  0.699460  0.266490  0.473070  1
  C  C1875  1  0.199460  0.766490  0.026930  1
  C  C1876  1  0.300540  0.733510  0.526930  1
  C  C1877  1  0.295690  0.174330  0.921060  1
  C  C1878  1  0.204310  0.325670  0.421060  1
  C  C1879  1  0.704310  0.825670  0.078940  1
  C  C1880  1  0.795690  0.674330  0.578940  1
  C  C1881  1  0.400920  0.385940  0.998380  1
  C  C1882  1  0.099080  0.114060  0.498380  1
  C  C1883  1  0.599080  0.614060  0.001620  1
  C  C1884  1  0.900920  0.885940  0.501620  1
  C  C1885  1  0.804810  0.203510  0.933527  1
  C  C1886  1  0.695190  0.296490  0.433527  1
  C  C1887  1  0.195190  0.796490  0.066473  1
  C  C1888  1  0.304810  0.703510  0.566473  1
  C  C1889  1  0.756080  0.170260  0.975550  1
  C  C1890  1  0.743920  0.329740  0.475550  1
  C  C1891  1  0.243920  0.829740  0.024450  1
  C  C1892  1  0.256080  0.670260  0.524450  1
  C  C1893  1  0.770170  0.208820  0.904446  1
  C  C1894  1  0.729830  0.291180  0.404446  1
  C  C1895  1  0.229830  0.791180  0.095554  1
  C  C1896  1  0.270170  0.708820  0.595554  1
  C  C1897  1  0.690640  0.152010  0.998430  1
  C  C1898  1  0.809360  0.347990  0.498430  1
  C  C1899  1  0.309360  0.847990  0.001570  1
  C  C1900  1  0.190640  0.652010  0.501570  1
  C  C1901  1  0.778040  0.274660  0.896114  1
  C  C1902  1  0.721960  0.225340  0.396114  1
  C  C1903  1  0.221960  0.725340  0.103886  1
  C  C1904  1  0.278040  0.774660  0.603886  1
  C  C1905  1  0.621700  0.102520  0.988170  1
  C  C1906  1  0.878300  0.397480  0.488170  1
  C  C1907  1  0.378300  0.897480  0.011830  1
  C  C1908  1  0.121700  0.602520  0.511830  1
  C  C1909  1  0.712350  0.298480  0.876863  1
  C  C1910  1  0.787650  0.201520  0.376863  1
  C  C1911  1  0.287650  0.701520  0.123137  1
  C  C1912  1  0.212350  0.798480  0.623137  1
  C  C1913  1  0.527600  0.096570  0.998490  1
  C  C1914  1  0.972400  0.403430  0.498490  1
  C  C1915  1  0.472400  0.903430  0.001510  1
  C  C1916  1  0.027600  0.596570  0.501510  1
  C  C1917  1  0.690310  0.363800  0.881762  1
  C  C1918  1  0.809690  0.136200  0.381762  1
  C  C1919  1  0.309690  0.636200  0.118238  1
  C  C1920  1  0.190310  0.863800  0.618238  1
  C  C1921  1  0.453500  0.073300  0.977780  1
  C  C1922  1  0.046500  0.426700  0.477780  1
  C  C1923  1  0.546500  0.926700  0.022220  1
  C  C1924  1  0.953500  0.573300  0.522220  1
  C  C1925  1  0.592680  0.373720  0.879740  1
  C  C1926  1  0.907320  0.126280  0.379740  1
  C  C1927  1  0.407320  0.626280  0.120260  1
  C  C1928  1  0.092680  0.873720  0.620260  1
  C  C1929  1  0.370700  0.106140  0.977850  1
  C  C1930  1  0.129300  0.393860  0.477850  1
  C  C1931  1  0.629300  0.893860  0.022150  1
  C  C1932  1  0.870700  0.606140  0.522150  1
  C  C1933  1  0.572100  0.417010  0.902230  1
  C  C1934  1  0.927900  0.082990  0.402230  1
  C  C1935  1  0.427900  0.582990  0.097770  1
  C  C1936  1  0.072100  0.917010  0.597770  1
  C  C1937  1  0.340500  0.112790  0.948350  1
  C  C1938  1  0.159500  0.387210  0.448350  1
  C  C1939  1  0.659500  0.887210  0.051650  1
  C  C1940  1  0.840500  0.612790  0.551650  1
  C  C1941  1  0.479160  0.418900  0.913740  1
  C  C1942  1  0.020840  0.081100  0.413740  1
  C  C1943  1  0.520840  0.581100  0.086260  1
  C  C1944  1  0.979160  0.918900  0.586260  1
  C  C1945  1  0.285290  0.162060  0.939320  1
  C  C1946  1  0.214710  0.337940  0.439320  1
  C  C1947  1  0.714710  0.837940  0.060680  1
  C  C1948  1  0.785290  0.662060  0.560680  1
  C  C1949  1  0.472200  0.437860  0.942960  1
  C  C1950  1  0.027800  0.062140  0.442960  1
  C  C1951  1  0.527800  0.562140  0.057040  1
  C  C1952  1  0.972200  0.937860  0.557040  1
  C  C1953  1  0.297020  0.183860  0.910460  1
  C  C1954  1  0.202980  0.316140  0.410460  1
  C  C1955  1  0.702980  0.816140  0.089540  1
  C  C1956  1  0.797020  0.683860  0.589540  1
  C  C1957  1  0.395850  0.409550  0.960680  1
  C  C1958  1  0.104150  0.090450  0.460680  1
  C  C1959  1  0.604150  0.590450  0.039320  1
  C  C1960  1  0.895850  0.909550  0.539320  1
  C  C1961  1  0.290890  0.249860  0.903960  1
  C  C1962  1  0.209110  0.250140  0.403960  1
  C  C1963  1  0.709110  0.750140  0.096040  1
  C  C1964  1  0.790890  0.749860  0.596040  1
  C  C1965  1  0.315290  0.130180  0.943790  1
  C  C1966  1  0.184710  0.369820  0.443790  1
  C  C1967  1  0.684710  0.869820  0.056210  1
  C  C1968  1  0.815290  0.630180  0.556210  1
  C  C1969  1  0.485850  0.426240  0.990920  1
  C  C1970  1  0.014150  0.073760  0.490920  1
  C  C1971  1  0.514150  0.573760  0.009080  1
  C  C1972  1  0.985850  0.926240  0.509080  1
  C  C1973  1  0.432090  0.404600  0.989670  1
  C  C1974  1  0.067910  0.095400  0.489670  1
  C  C1975  1  0.567910  0.595400  0.010330  1
  C  C1976  1  0.932090  0.904600  0.510330  1
  C  C1977  1  0.357000  0.267150  0.881050  1
  C  C1978  1  0.143000  0.232850  0.381050  1
  C  C1979  1  0.643000  0.732850  0.118950  1
  C  C1980  1  0.857000  0.767150  0.618950  1
  C  C1981  1  0.528630  0.430370  0.989840  1
  C  C1982  1  0.971370  0.069630  0.489840  1
  C  C1983  1  0.471370  0.569630  0.010160  1
  C  C1984  1  0.028630  0.930370  0.510160  1
  C  C1985  1  0.401900  0.212430  0.873290  1
  C  C1986  1  0.098100  0.287570  0.373290  1
  C  C1987  1  0.598100  0.787570  0.126710  1
  C  C1988  1  0.901900  0.712430  0.626710  1
  C  C1989  1  0.594380  0.404750  0.008410  1
  C  C1990  1  0.905620  0.095250  0.508410  1
  C  C1991  1  0.405620  0.595250  0.991590  1
  C  C1992  1  0.094380  0.904750  0.491590  1
  C  C1993  1  0.497100  0.218680  0.864000  1
  C  C1994  1  0.002900  0.281320  0.364000  1
  C  C1995  1  0.502900  0.781320  0.136000  1
  C  C1996  1  0.997100  0.718680  0.636000  1
  C  C1997  1  0.560790  0.356000  0.028290  1
  C  C1998  1  0.939210  0.144000  0.528290  1
  C  C1999  1  0.439210  0.644000  0.971710  1
  C  C2000  1  0.060790  0.856000  0.471710  1
  C  C2001  1  0.544600  0.280830  0.860600  1
  C  C2002  1  0.955400  0.219170  0.360600  1
  C  C2003  1  0.455400  0.719170  0.139400  1
  C  C2004  1  0.044600  0.780830  0.639400  1
  C  C2005  1  0.614890  0.304980  0.035648  1
  C  C2006  1  0.885110  0.195020  0.535648  1
  C  C2007  1  0.385110  0.695020  0.964352  1
  C  C2008  1  0.114890  0.804980  0.464352  1
  C  C2009  1  0.642600  0.295070  0.867210  1
  C  C2010  1  0.857400  0.204930  0.367210  1
  C  C2011  1  0.357400  0.704930  0.132790  1
  C  C2012  1  0.142600  0.795070  0.632790  1
  C  C2013  1  0.704780  0.302570  0.023425  1
  C  C2014  1  0.795220  0.197430  0.523425  1
  C  C2015  1  0.295220  0.697430  0.976575  1
  C  C2016  1  0.204780  0.802570  0.476575  1
  C  C2017  1  0.695300  0.246630  0.876990  1
  C  C2018  1  0.804700  0.253370  0.376990  1
  C  C2019  1  0.304700  0.753370  0.123010  1
  C  C2020  1  0.195300  0.746630  0.623010  1
  C  C2021  1  0.731720  0.240440  0.017954  1
  C  C2022  1  0.768280  0.259560  0.517954  1
  C  C2023  1  0.268280  0.759560  0.982046  1
  C  C2024  1  0.231720  0.740440  0.482046  1
  C  C2025  1  0.769080  0.265470  0.897300  1
  C  C2026  1  0.730920  0.234530  0.397300  1
  C  C2027  1  0.230920  0.734530  0.102700  1
  C  C2028  1  0.269080  0.765470  0.602700  1
  C  C2029  1  0.787640  0.230260  0.992996  1
  C  C2030  1  0.712360  0.269740  0.492996  1
  C  C2031  1  0.212360  0.769740  0.007004  1
  C  C2032  1  0.287640  0.730260  0.507004  1
  C  C2033  1  0.789360  0.222630  0.919900  1
  C  C2034  1  0.710640  0.277370  0.419900  1
  C  C2035  1  0.210640  0.777370  0.080100  1
  C  C2036  1  0.289360  0.722630  0.580100  1
  C  C2037  1  0.820950  0.280930  0.973817  1
  C  C2038  1  0.679050  0.219070  0.473817  1
  C  C2039  1  0.179050  0.719070  0.026183  1
  C  C2040  1  0.320950  0.780930  0.526183  1
  C  C2041  1  0.740600  0.160220  0.922240  1
  C  C2042  1  0.759400  0.339780  0.422240  1
  C  C2043  1  0.259400  0.839780  0.077760  1
  C  C2044  1  0.240600  0.660220  0.577760  1
  C  C2045  1  0.832200  0.266420  0.943748  1
  C  C2046  1  0.667800  0.233580  0.443748  1
  C  C2047  1  0.167800  0.733580  0.056252  1
  C  C2048  1  0.332200  0.766420  0.556252  1
  C  C2049  1  0.726600  0.133240  0.950600  1
  C  C2050  1  0.773400  0.366760  0.450600  1
  C  C2051  1  0.273400  0.866760  0.049400  1
  C  C2052  1  0.226600  0.633240  0.549400  1
  C  C2053  1  0.312350  0.147000  0.973400  1
  C  C2054  1  0.187650  0.353000  0.473400  1
  C  C2055  1  0.687650  0.853000  0.026600  1
  C  C2056  1  0.812350  0.647000  0.526600  1
  C  C2057  1  0.503060  0.447990  0.962250  1
  C  C2058  1  0.996940  0.052010  0.462250  1
  C  C2059  1  0.496940  0.552010  0.037750  1
  C  C2060  1  0.003060  0.947990  0.537750  1
  C  C2061  1  0.817880  0.310960  0.920916  1
  C  C2062  1  0.682120  0.189040  0.420916  1
  C  C2063  1  0.182120  0.689040  0.079084  1
  C  C2064  1  0.317880  0.810960  0.579084  1
  C  C2065  1  0.645000  0.090420  0.957990  1
  C  C2066  1  0.855000  0.409580  0.457990  1
  C  C2067  1  0.355000  0.909580  0.042010  1
  C  C2068  1  0.145000  0.590420  0.542010  1
  C  C2069  1  0.792730  0.373690  0.927330  1
  C  C2070  1  0.707270  0.126310  0.427330  1
  C  C2071  1  0.207270  0.626310  0.072670  1
  C  C2072  1  0.292730  0.873690  0.572670  1
  C  C2073  1  0.573100  0.071470  0.936740  1
  C  C2074  1  0.926900  0.428530  0.436740  1
  C  C2075  1  0.426900  0.928530  0.063260  1
  C  C2076  1  0.073100  0.571470  0.563260  1
  C  C2077  1  0.730740  0.401270  0.906770  1
  C  C2078  1  0.769260  0.098730  0.406770  1
  C  C2079  1  0.269260  0.598730  0.093230  1
  C  C2080  1  0.230740  0.901270  0.593230  1
  C  C2081  1  0.476300  0.060480  0.947120  1
  C  C2082  1  0.023700  0.439520  0.447120  1
  C  C2083  1  0.523700  0.939520  0.052880  1
  C  C2084  1  0.976300  0.560480  0.552880  1
  C  C2085  1  0.654540  0.432250  0.919260  1
  C  C2086  1  0.845460  0.067750  0.419260  1
  C  C2087  1  0.345460  0.567750  0.080740  1
  C  C2088  1  0.154540  0.932250  0.580740  1
  C  C2089  1  0.405900  0.087130  0.929590  1
  C  C2090  1  0.094100  0.412870  0.429590  1
  C  C2091  1  0.594100  0.912870  0.070410  1
  C  C2092  1  0.905900  0.587130  0.570410  1
  C  C2093  1  0.644910  0.446440  0.949680  1
  C  C2094  1  0.855090  0.053560  0.449680  1
  C  C2095  1  0.355090  0.553560  0.050320  1
  C  C2096  1  0.144910  0.946440  0.550320  1
  C  C2097  1  0.421800  0.113980  0.901000  1
  C  C2098  1  0.078200  0.386020  0.401000  1
  C  C2099  1  0.578200  0.886020  0.099000  1
  C  C2100  1  0.921800  0.613980  0.599000  1
  C  C2101  1  0.553570  0.451060  0.960800  1
  C  C2102  1  0.946430  0.048940  0.460800  1
  C  C2103  1  0.446430  0.548940  0.039200  1
  C  C2104  1  0.053570  0.951060  0.539200  1
  C  C2105  1  0.364600  0.160630  0.891570  1
  C  C2106  1  0.135400  0.339370  0.391570  1
  C  C2107  1  0.635400  0.839370  0.108430  1
  C  C2108  1  0.864600  0.660630  0.608430  1
  C  C2109  1  0.712270  0.424950  0.968730  1
  C  C2110  1  0.787730  0.075050  0.468730  1
  C  C2111  1  0.287730  0.575050  0.031270  1
  C  C2112  1  0.212270  0.924950  0.531270  1
  C  C2113  1  0.514700  0.117690  0.890240  1
  C  C2114  1  0.985300  0.382310  0.390240  1
  C  C2115  1  0.485300  0.882310  0.109760  1
  C  C2116  1  0.014700  0.617690  0.609760  1
  C  C2117  1  0.781670  0.386850  0.957760  1
  C  C2118  1  0.718330  0.113150  0.457760  1
  C  C2119  1  0.218330  0.613150  0.042240  1
  C  C2120  1  0.281670  0.886850  0.542240  1
  C  C2121  1  0.589000  0.099490  0.908420  1
  C  C2122  1  0.911000  0.400510  0.408420  1
  C  C2123  1  0.411000  0.900510  0.091580  1
  C  C2124  1  0.089000  0.599490  0.591580  1
  C  C2125  1  0.799510  0.342600  0.980435  1
  C  C2126  1  0.700490  0.157400  0.480435  1
  C  C2127  1  0.200490  0.657400  0.019565  1
  C  C2128  1  0.299510  0.842600  0.519565  1
  C  C2129  1  0.672700  0.140540  0.901050  1
  C  C2130  1  0.827300  0.359460  0.401050  1
  C  C2131  1  0.327300  0.859460  0.098950  1
  C  C2132  1  0.172700  0.640540  0.598950  1
  C  C2133  1  0.742150  0.353140  0.005097  1
  C  C2134  1  0.757850  0.146860  0.505097  1
  C  C2135  1  0.257850  0.646860  0.994903  1
  C  C2136  1  0.242150  0.853140  0.494903  1
  C  C2137  1  0.650700  0.183460  0.878610  1
  C  C2138  1  0.849300  0.316540  0.378610  1
  C  C2139  1  0.349300  0.816540  0.121390  1
  C  C2140  1  0.150700  0.683460  0.621390  1
  C  C2141  1  0.377000  0.122090  0.992880  1
  C  C2142  1  0.123000  0.377910  0.492880  1
  C  C2143  1  0.623000  0.877910  0.007120  1
  C  C2144  1  0.877000  0.622090  0.507120  1
  C  C2145  1  0.597840  0.455220  0.952040  1
  C  C2146  1  0.902160  0.044780  0.452040  1
  C  C2147  1  0.402160  0.544780  0.047960  1
  C  C2148  1  0.097840  0.955220  0.547960  1
  C  C2149  1  0.687440  0.404320  0.997810  1
  C  C2150  1  0.812560  0.095680  0.497810  1
  C  C2151  1  0.312560  0.595680  0.002190  1
  C  C2152  1  0.187440  0.904320  0.502190  1
  C  C2153  1  0.552100  0.169450  0.871900  1
  C  C2154  1  0.947900  0.330550  0.371900  1
  C  C2155  1  0.447900  0.830550  0.128100  1
  C  C2156  1  0.052100  0.669450  0.628100  1
  C  C2157  1  0.445850  0.082780  0.982880  1
  C  C2158  1  0.054150  0.417220  0.482880  1
  C  C2159  1  0.554150  0.917220  0.017120  1
  C  C2160  1  0.945850  0.582780  0.517120  1
  C  C2161  1  0.674110  0.438940  0.969740  1
  C  C2162  1  0.825890  0.061060  0.469740  1
  C  C2163  1  0.325890  0.561060  0.030260  1
  C  C2164  1  0.174110  0.938940  0.530260  1
  C  C2165  1  0.452160  0.069970  0.952460  1
  C  C2166  1  0.047840  0.430030  0.452460  1
  C  C2167  1  0.547840  0.930030  0.047540  1
  C  C2168  1  0.952160  0.569970  0.547540  1
  C  C2169  1  0.654440  0.412660  0.998020  1
  C  C2170  1  0.845560  0.087340  0.498020  1
  C  C2171  1  0.345560  0.587340  0.001980  1
  C  C2172  1  0.154440  0.912660  0.501980  1
  N  N2173  1  0.546090  0.260930  0.950350  1
  N  N2174  1  0.953910  0.239070  0.450350  1
  N  N2175  1  0.453910  0.739070  0.049650  1
  N  N2176  1  0.046090  0.760930  0.549650  1
  N  N2177  1  0.556260  0.565730  0.871850  1
  N  N2178  1  0.943740  0.934270  0.371850  1
  N  N2179  1  0.443740  0.434270  0.128150  1
  N  N2180  1  0.056260  0.065730  0.628150  1
  N  N2181  1  0.723880  0.516850  0.852480  1
  N  N2182  1  0.776120  0.983150  0.352480  1
  N  N2183  1  0.276120  0.483150  0.147520  1
  N  N2184  1  0.223880  0.016850  0.647520  1
  N  N2185  1  0.613600  0.434670  0.812780  1
  N  N2186  1  0.886400  0.065330  0.312780  1
  N  N2187  1  0.386400  0.565330  0.187220  1
  N  N2188  1  0.113600  0.934670  0.687220  1
  N  N2189  1  0.444320  0.478750  0.835030  1
  N  N2190  1  0.055680  0.021250  0.335030  1
  N  N2191  1  0.555680  0.521250  0.164970  1
  N  N2192  1  0.944320  0.978750  0.664970  1
  N  N2193  1  0.719870  0.965040  0.894470  1
  N  N2194  1  0.780130  0.534960  0.394470  1
  N  N2195  1  0.280130  0.034960  0.105530  1
  N  N2196  1  0.219870  0.465040  0.605530  1
  N  N2197  1  0.634900  0.018660  0.845340  1
  N  N2198  1  0.865100  0.481340  0.345340  1
  N  N2199  1  0.365100  0.981340  0.154660  1
  N  N2200  1  0.134900  0.518660  0.654660  1
  N  N2201  1  0.801360  0.104950  0.836960  1
  N  N2202  1  0.698640  0.395050  0.336960  1
  N  N2203  1  0.198640  0.895050  0.163040  1
  N  N2204  1  0.301360  0.604950  0.663040  1
  N  N2205  1  0.881020  0.056730  0.888810  1
  N  N2206  1  0.618980  0.443270  0.388810  1
  N  N2207  1  0.118980  0.943270  0.111190  1
  N  N2208  1  0.381020  0.556730  0.611190  1
  O  O2209  1  0.869230  0.635470  0.987050  1
  O  O2210  1  0.630770  0.864530  0.487050  1
  O  O2211  1  0.130770  0.364530  0.012950  1
  O  O2212  1  0.369230  0.135470  0.512950  1
  O  O2213  1  0.071530  0.343450  0.907970  1
  O  O2214  1  0.428470  0.156550  0.407970  1
  O  O2215  1  0.928470  0.656550  0.092030  1
  O  O2216  1  0.571530  0.843450  0.592030  1
  O  O2217  1  0.287400  0.184080  0.806870  1
  O  O2218  1  0.212600  0.315920  0.306870  1
  O  O2219  1  0.712600  0.815920  0.193130  1
  O  O2220  1  0.787400  0.684080  0.693130  1
  O  O2221  1  0.238050  0.891100  0.916360  1
  O  O2222  1  0.261950  0.608900  0.416360  1
  O  O2223  1  0.761950  0.108900  0.083640  1
  O  O2224  1  0.738050  0.391100  0.583640  1
