# generated using pymatgen
data_Sc16Zn4H304C460N17O8
_symmetry_space_group_name_H-M   'P 1'
_cell_length_a   24.70100000
_cell_length_b   31.38150000
_cell_length_c   34.20520000
_cell_angle_alpha   110.57300000
_cell_angle_beta   90.00000000
_cell_angle_gamma   90.00000000
_symmetry_Int_Tables_number   1
_chemical_formula_structural   Sc16Zn4H304C460N17O8
_chemical_formula_sum   'Sc64 Zn16 H1216 C1840 N68 O32'
_cell_volume   24823.36827456
_cell_formula_units_Z   4
loop_
 _symmetry_equiv_pos_site_id
 _symmetry_equiv_pos_as_xyz
  1  'x, y, z'
loop_
 _atom_site_type_symbol
 _atom_site_label
 _atom_site_symmetry_multiplicity
 _atom_site_fract_x
 _atom_site_fract_y
 _atom_site_fract_z
 _atom_site_occupancy
  Sc  Sc1  1  0.303400  0.262100  0.509500  1
  Sc  Sc2  1  0.303400  0.237900  0.490500  1
  Sc  Sc3  1  0.803400  0.262100  0.009500  1
  Sc  Sc4  1  0.803400  0.237900  0.990500  1
  Sc  Sc5  1  0.696600  0.737900  0.490500  1
  Sc  Sc6  1  0.696600  0.762100  0.509500  1
  Sc  Sc7  1  0.196600  0.737900  0.990500  1
  Sc  Sc8  1  0.196600  0.762100  0.009500  1
  Sc  Sc9  1  0.159900  0.297800  0.524700  1
  Sc  Sc10  1  0.159900  0.202200  0.475300  1
  Sc  Sc11  1  0.659900  0.297800  0.024700  1
  Sc  Sc12  1  0.659900  0.202200  0.975300  1
  Sc  Sc13  1  0.840100  0.702200  0.475300  1
  Sc  Sc14  1  0.840100  0.797800  0.524700  1
  Sc  Sc15  1  0.340100  0.702200  0.975300  1
  Sc  Sc16  1  0.340100  0.797800  0.024700  1
  Sc  Sc17  1  0.202600  0.185900  0.472400  1
  Sc  Sc18  1  0.202600  0.314100  0.527600  1
  Sc  Sc19  1  0.702600  0.185900  0.972400  1
  Sc  Sc20  1  0.702600  0.314100  0.027600  1
  Sc  Sc21  1  0.797400  0.814100  0.527600  1
  Sc  Sc22  1  0.797400  0.685900  0.472400  1
  Sc  Sc23  1  0.297400  0.814100  0.027600  1
  Sc  Sc24  1  0.297400  0.685900  0.972400  1
  Sc  Sc25  1  0.240900  0.191800  0.456600  1
  Sc  Sc26  1  0.240900  0.308200  0.543400  1
  Sc  Sc27  1  0.740900  0.191800  0.956600  1
  Sc  Sc28  1  0.740900  0.308200  0.043400  1
  Sc  Sc29  1  0.759100  0.808200  0.543400  1
  Sc  Sc30  1  0.759100  0.691800  0.456600  1
  Sc  Sc31  1  0.259100  0.808200  0.043400  1
  Sc  Sc32  1  0.259100  0.691800  0.956600  1
  Sc  Sc33  1  0.278400  0.298100  0.528300  1
  Sc  Sc34  1  0.278400  0.201900  0.471700  1
  Sc  Sc35  1  0.778400  0.298100  0.028300  1
  Sc  Sc36  1  0.778400  0.201900  0.971700  1
  Sc  Sc37  1  0.721600  0.701900  0.471700  1
  Sc  Sc38  1  0.721600  0.798100  0.528300  1
  Sc  Sc39  1  0.221600  0.701900  0.971700  1
  Sc  Sc40  1  0.221600  0.798100  0.028300  1
  Sc  Sc41  1  0.143400  0.265900  0.519000  1
  Sc  Sc42  1  0.143400  0.234100  0.481000  1
  Sc  Sc43  1  0.643400  0.265900  0.019000  1
  Sc  Sc44  1  0.643400  0.234100  0.981000  1
  Sc  Sc45  1  0.856600  0.734100  0.481000  1
  Sc  Sc46  1  0.856600  0.765900  0.519000  1
  Sc  Sc47  1  0.356600  0.734100  0.981000  1
  Sc  Sc48  1  0.356600  0.765900  0.019000  1
  Sc  Sc49  1  0.182300  0.307800  0.503300  1.0
  Sc  Sc50  1  0.182300  0.192200  0.496700  1.0
  Sc  Sc51  1  0.682300  0.307800  0.003300  1.0
  Sc  Sc52  1  0.682300  0.192200  0.996700  1.0
  Sc  Sc53  1  0.817700  0.692200  0.496700  1.0
  Sc  Sc54  1  0.817700  0.807800  0.503300  1.0
  Sc  Sc55  1  0.317700  0.692200  0.996700  1.0
  Sc  Sc56  1  0.317700  0.807800  0.003300  1.0
  Sc  Sc57  1  0.296700  0.274600  0.506700  1.0
  Sc  Sc58  1  0.296700  0.225400  0.493300  1.0
  Sc  Sc59  1  0.796700  0.274600  0.006700  1.0
  Sc  Sc60  1  0.796700  0.225400  0.993300  1.0
  Sc  Sc61  1  0.703300  0.725400  0.493300  1.0
  Sc  Sc62  1  0.703300  0.774600  0.506700  1.0
  Sc  Sc63  1  0.203300  0.725400  0.993300  1.0
  Sc  Sc64  1  0.203300  0.774600  0.006700  1.0
  Zn  Zn65  1  0.416670  0.421400  0.515310  1
  Zn  Zn66  1  0.416670  0.078600  0.484690  1
  Zn  Zn67  1  0.916670  0.421400  0.015310  1
  Zn  Zn68  1  0.916670  0.078600  0.984690  1
  Zn  Zn69  1  0.583330  0.578600  0.484690  1
  Zn  Zn70  1  0.583330  0.921400  0.515310  1
  Zn  Zn71  1  0.083330  0.578600  0.984690  1
  Zn  Zn72  1  0.083330  0.921400  0.015310  1
  Zn  Zn73  1  0.021550  0.366220  0.648561  1
  Zn  Zn74  1  0.021550  0.133780  0.351439  1
  Zn  Zn75  1  0.521550  0.366220  0.148561  1
  Zn  Zn76  1  0.521550  0.133780  0.851439  1
  Zn  Zn77  1  0.978450  0.633780  0.351439  1
  Zn  Zn78  1  0.978450  0.866220  0.648561  1
  Zn  Zn79  1  0.478450  0.633780  0.851439  1
  Zn  Zn80  1  0.478450  0.866220  0.148561  1
  H  H81  1  0.095900  0.505900  0.318000  1
  H  H82  1  0.095900  0.994100  0.682000  1
  H  H83  1  0.595900  0.505900  0.818000  1
  H  H84  1  0.595900  0.994100  0.182000  1
  H  H85  1  0.904100  0.494100  0.682000  1
  H  H86  1  0.904100  0.005900  0.318000  1
  H  H87  1  0.404100  0.494100  0.182000  1
  H  H88  1  0.404100  0.005900  0.818000  1
  H  H89  1  0.096900  0.557500  0.349400  1
  H  H90  1  0.096900  0.942500  0.650600  1
  H  H91  1  0.596900  0.557500  0.849400  1
  H  H92  1  0.596900  0.942500  0.150600  1
  H  H93  1  0.903100  0.442500  0.650600  1
  H  H94  1  0.903100  0.057500  0.349400  1
  H  H95  1  0.403100  0.442500  0.150600  1
  H  H96  1  0.403100  0.057500  0.849400  1
  H  H97  1  0.147800  0.537000  0.319900  1
  H  H98  1  0.147800  0.963000  0.680100  1
  H  H99  1  0.647800  0.537000  0.819900  1
  H  H100  1  0.647800  0.963000  0.180100  1
  H  H101  1  0.852200  0.463000  0.680100  1
  H  H102  1  0.852200  0.037000  0.319900  1
  H  H103  1  0.352200  0.463000  0.180100  1
  H  H104  1  0.352200  0.037000  0.819900  1
  H  H105  1  0.010700  0.567600  0.166800  1
  H  H106  1  0.010700  0.932400  0.833200  1
  H  H107  1  0.510700  0.567600  0.666800  1
  H  H108  1  0.510700  0.932400  0.333200  1
  H  H109  1  0.989300  0.432400  0.833200  1
  H  H110  1  0.989300  0.067600  0.166800  1
  H  H111  1  0.489300  0.432400  0.333200  1
  H  H112  1  0.489300  0.067600  0.666800  1
  H  H113  1  0.018700  0.619700  0.195900  1
  H  H114  1  0.018700  0.880300  0.804100  1
  H  H115  1  0.518700  0.619700  0.695900  1
  H  H116  1  0.518700  0.880300  0.304100  1
  H  H117  1  0.981300  0.380300  0.804100  1
  H  H118  1  0.981300  0.119700  0.195900  1
  H  H119  1  0.481300  0.380300  0.304100  1
  H  H120  1  0.481300  0.119700  0.695900  1
  H  H121  1  0.965500  0.592800  0.200600  1
  H  H122  1  0.965500  0.907200  0.799400  1
  H  H123  1  0.465500  0.592800  0.700600  1
  H  H124  1  0.465500  0.907200  0.299400  1
  H  H125  1  0.034500  0.407200  0.799400  1
  H  H126  1  0.034500  0.092800  0.200600  1
  H  H127  1  0.534500  0.407200  0.299400  1
  H  H128  1  0.534500  0.092800  0.700600  1
  H  H129  1  0.070200  0.487000  0.249600  1
  H  H130  1  0.070200  0.013000  0.750400  1
  H  H131  1  0.570200  0.487000  0.749600  1
  H  H132  1  0.570200  0.013000  0.250400  1
  H  H133  1  0.929800  0.513000  0.750400  1
  H  H134  1  0.929800  0.987000  0.249600  1
  H  H135  1  0.429800  0.513000  0.250400  1
  H  H136  1  0.429800  0.987000  0.749600  1
  H  H137  1  0.028100  0.509400  0.199300  1
  H  H138  1  0.028100  0.990600  0.800700  1
  H  H139  1  0.528100  0.509400  0.699300  1
  H  H140  1  0.528100  0.990600  0.300700  1
  H  H141  1  0.971900  0.490600  0.800700  1
  H  H142  1  0.971900  0.009400  0.199300  1
  H  H143  1  0.471900  0.490600  0.300700  1
  H  H144  1  0.471900  0.009400  0.699300  1
  H  H145  1  0.051600  0.638900  0.260300  1
  H  H146  1  0.051600  0.861100  0.739700  1
  H  H147  1  0.551600  0.638900  0.760300  1
  H  H148  1  0.551600  0.861100  0.239700  1
  H  H149  1  0.948400  0.361100  0.739700  1
  H  H150  1  0.948400  0.138900  0.260300  1
  H  H151  1  0.448400  0.361100  0.239700  1
  H  H152  1  0.448400  0.138900  0.760300  1
  H  H153  1  0.094400  0.624000  0.314200  1
  H  H154  1  0.094400  0.876000  0.685800  1
  H  H155  1  0.594400  0.624000  0.814200  1
  H  H156  1  0.594400  0.876000  0.185800  1
  H  H157  1  0.905600  0.376000  0.685800  1
  H  H158  1  0.905600  0.124000  0.314200  1
  H  H159  1  0.405600  0.376000  0.185800  1
  H  H160  1  0.405600  0.124000  0.814200  1
  H  H161  1  0.820800  0.400100  0.589600  1
  H  H162  1  0.820800  0.099900  0.410400  1
  H  H163  1  0.320800  0.400100  0.089600  1
  H  H164  1  0.320800  0.099900  0.910400  1
  H  H165  1  0.179200  0.599900  0.410400  1
  H  H166  1  0.179200  0.900100  0.589600  1
  H  H167  1  0.679200  0.599900  0.910400  1
  H  H168  1  0.679200  0.900100  0.089600  1
  H  H169  1  0.784300  0.329300  0.549600  1
  H  H170  1  0.784300  0.170700  0.450400  1
  H  H171  1  0.284300  0.329300  0.049600  1
  H  H172  1  0.284300  0.170700  0.950400  1
  H  H173  1  0.215700  0.670700  0.450400  1
  H  H174  1  0.215700  0.829300  0.549600  1
  H  H175  1  0.715700  0.670700  0.950400  1
  H  H176  1  0.715700  0.829300  0.049600  1
  H  H177  1  0.633900  0.384500  0.566600  1
  H  H178  1  0.633900  0.115500  0.433400  1
  H  H179  1  0.133900  0.384500  0.066600  1
  H  H180  1  0.133900  0.115500  0.933400  1
  H  H181  1  0.366100  0.615500  0.433400  1
  H  H182  1  0.366100  0.884500  0.566600  1
  H  H183  1  0.866100  0.615500  0.933400  1
  H  H184  1  0.866100  0.884500  0.066600  1
  H  H185  1  0.670400  0.455200  0.606600  1
  H  H186  1  0.670400  0.044800  0.393400  1
  H  H187  1  0.170400  0.455200  0.106600  1
  H  H188  1  0.170400  0.044800  0.893400  1
  H  H189  1  0.329600  0.544800  0.393400  1
  H  H190  1  0.329600  0.955200  0.606600  1
  H  H191  1  0.829600  0.544800  0.893400  1
  H  H192  1  0.829600  0.955200  0.106600  1
  H  H193  1  0.810400  0.478500  0.630300  1
  H  H194  1  0.810400  0.021500  0.369700  1
  H  H195  1  0.310400  0.478500  0.130300  1
  H  H196  1  0.310400  0.021500  0.869700  1
  H  H197  1  0.189600  0.521500  0.369700  1
  H  H198  1  0.189600  0.978500  0.630300  1
  H  H199  1  0.689600  0.521500  0.869700  1
  H  H200  1  0.689600  0.978500  0.130300  1
  H  H201  1  0.754500  0.490600  0.655400  1
  H  H202  1  0.754500  0.009400  0.344600  1
  H  H203  1  0.254500  0.490600  0.155400  1
  H  H204  1  0.254500  0.009400  0.844600  1
  H  H205  1  0.245500  0.509400  0.344600  1
  H  H206  1  0.245500  0.990600  0.655400  1
  H  H207  1  0.745500  0.509400  0.844600  1
  H  H208  1  0.745500  0.990600  0.155400  1
  H  H209  1  0.762600  0.502300  0.613800  1
  H  H210  1  0.762600  0.997700  0.386200  1
  H  H211  1  0.262600  0.502300  0.113800  1
  H  H212  1  0.262600  0.997700  0.886200  1
  H  H213  1  0.237400  0.497700  0.386200  1
  H  H214  1  0.237400  0.002300  0.613800  1
  H  H215  1  0.737400  0.497700  0.886200  1
  H  H216  1  0.737400  0.002300  0.113800  1
  H  H217  1  0.654700  0.297900  0.522300  1
  H  H218  1  0.654700  0.202100  0.477700  1
  H  H219  1  0.154700  0.297900  0.022300  1
  H  H220  1  0.154700  0.202100  0.977700  1
  H  H221  1  0.345300  0.702100  0.477700  1
  H  H222  1  0.345300  0.797900  0.522300  1
  H  H223  1  0.845300  0.702100  0.977700  1
  H  H224  1  0.845300  0.797900  0.022300  1
  H  H225  1  0.705300  0.281300  0.542400  1
  H  H226  1  0.705300  0.218700  0.457600  1
  H  H227  1  0.205300  0.281300  0.042400  1
  H  H228  1  0.205300  0.218700  0.957600  1
  H  H229  1  0.294700  0.718700  0.457600  1
  H  H230  1  0.294700  0.781300  0.542400  1
  H  H231  1  0.794700  0.718700  0.957600  1
  H  H232  1  0.794700  0.781300  0.042400  1
  H  H233  1  0.713200  0.293700  0.501200  1
  H  H234  1  0.713200  0.206300  0.498800  1
  H  H235  1  0.213200  0.293700  0.001200  1
  H  H236  1  0.213200  0.206300  0.998800  1
  H  H237  1  0.286800  0.706300  0.498800  1
  H  H238  1  0.286800  0.793700  0.501200  1
  H  H239  1  0.786800  0.706300  0.998800  1
  H  H240  1  0.786800  0.793700  0.001200  1
  H  H241  1  0.277800  0.495900  0.448000  1
  H  H242  1  0.277800  0.004100  0.552000  1
  H  H243  1  0.777800  0.495900  0.948000  1
  H  H244  1  0.777800  0.004100  0.052000  1
  H  H245  1  0.722200  0.504100  0.552000  1
  H  H246  1  0.722200  0.995900  0.448000  1
  H  H247  1  0.222200  0.504100  0.052000  1
  H  H248  1  0.222200  0.995900  0.948000  1
  H  H249  1  0.267900  0.538100  0.524100  1
  H  H250  1  0.267900  0.961900  0.475900  1
  H  H251  1  0.767900  0.538100  0.024100  1
  H  H252  1  0.767900  0.961900  0.975900  1
  H  H253  1  0.732100  0.461900  0.475900  1
  H  H254  1  0.732100  0.038100  0.524100  1
  H  H255  1  0.232100  0.461900  0.975900  1
  H  H256  1  0.232100  0.038100  0.024100  1
  H  H257  1  0.168900  0.570100  0.632000  1
  H  H258  1  0.168900  0.929900  0.368000  1
  H  H259  1  0.668900  0.570100  0.132000  1
  H  H260  1  0.668900  0.929900  0.868000  1
  H  H261  1  0.831100  0.429900  0.368000  1
  H  H262  1  0.831100  0.070100  0.632000  1
  H  H263  1  0.331100  0.429900  0.868000  1
  H  H264  1  0.331100  0.070100  0.132000  1
  H  H265  1  0.301800  0.646400  0.670100  1
  H  H266  1  0.301800  0.853600  0.329900  1
  H  H267  1  0.801800  0.646400  0.170100  1
  H  H268  1  0.801800  0.853600  0.829900  1
  H  H269  1  0.698200  0.353600  0.329900  1
  H  H270  1  0.698200  0.146400  0.670100  1
  H  H271  1  0.198200  0.353600  0.829900  1
  H  H272  1  0.198200  0.146400  0.170100  1
  H  H273  1  0.175800  0.490900  0.593900  1
  H  H274  1  0.175800  0.009100  0.406100  1
  H  H275  1  0.675800  0.490900  0.093900  1
  H  H276  1  0.675800  0.009100  0.906100  1
  H  H277  1  0.824200  0.509100  0.406100  1
  H  H278  1  0.824200  0.990900  0.593900  1
  H  H279  1  0.324200  0.509100  0.906100  1
  H  H280  1  0.324200  0.990900  0.093900  1
  H  H281  1  0.232800  0.467300  0.577100  1
  H  H282  1  0.232800  0.032700  0.422900  1
  H  H283  1  0.732800  0.467300  0.077100  1
  H  H284  1  0.732800  0.032700  0.922900  1
  H  H285  1  0.767200  0.532700  0.422900  1
  H  H286  1  0.767200  0.967300  0.577100  1
  H  H287  1  0.267200  0.532700  0.922900  1
  H  H288  1  0.267200  0.967300  0.077100  1
  H  H289  1  0.201000  0.494000  0.551900  1
  H  H290  1  0.201000  0.006000  0.448100  1
  H  H291  1  0.701000  0.494000  0.051900  1
  H  H292  1  0.701000  0.006000  0.948100  1
  H  H293  1  0.799000  0.506000  0.448100  1
  H  H294  1  0.799000  0.994000  0.551900  1
  H  H295  1  0.299000  0.506000  0.948100  1
  H  H296  1  0.299000  0.994000  0.051900  1
  H  H297  1  0.216200  0.678000  0.696600  1
  H  H298  1  0.216200  0.822000  0.303400  1
  H  H299  1  0.716200  0.678000  0.196600  1
  H  H300  1  0.716200  0.822000  0.803400  1
  H  H301  1  0.783800  0.322000  0.303400  1
  H  H302  1  0.783800  0.178000  0.696600  1
  H  H303  1  0.283800  0.322000  0.803400  1
  H  H304  1  0.283800  0.178000  0.196600  1
  H  H305  1  0.173000  0.641100  0.699300  1
  H  H306  1  0.173000  0.858900  0.300700  1
  H  H307  1  0.673000  0.641100  0.199300  1
  H  H308  1  0.673000  0.858900  0.800700  1
  H  H309  1  0.827000  0.358900  0.300700  1
  H  H310  1  0.827000  0.141100  0.699300  1
  H  H311  1  0.327000  0.358900  0.800700  1
  H  H312  1  0.327000  0.141100  0.199300  1
  H  H313  1  0.169400  0.661000  0.662200  1
  H  H314  1  0.169400  0.839000  0.337800  1
  H  H315  1  0.669400  0.661000  0.162200  1
  H  H316  1  0.669400  0.839000  0.837800  1
  H  H317  1  0.830600  0.339000  0.337800  1
  H  H318  1  0.830600  0.161000  0.662200  1
  H  H319  1  0.330600  0.339000  0.837800  1
  H  H320  1  0.330600  0.161000  0.162200  1
  H  H321  1  0.396300  0.577900  0.647900  1
  H  H322  1  0.396300  0.922100  0.352100  1
  H  H323  1  0.896300  0.577900  0.147900  1
  H  H324  1  0.896300  0.922100  0.852100  1
  H  H325  1  0.603700  0.422100  0.352100  1
  H  H326  1  0.603700  0.077900  0.647900  1
  H  H327  1  0.103700  0.422100  0.852100  1
  H  H328  1  0.103700  0.077900  0.147900  1
  H  H329  1  0.386700  0.622400  0.636200  1
  H  H330  1  0.386700  0.877600  0.363800  1
  H  H331  1  0.886700  0.622400  0.136200  1
  H  H332  1  0.886700  0.877600  0.863800  1
  H  H333  1  0.613300  0.377600  0.363800  1
  H  H334  1  0.613300  0.122400  0.636200  1
  H  H335  1  0.113300  0.377600  0.863800  1
  H  H336  1  0.113300  0.122400  0.136200  1
  H  H337  1  0.393600  0.573800  0.600000  1
  H  H338  1  0.393600  0.926200  0.400000  1
  H  H339  1  0.893600  0.573800  0.100000  1
  H  H340  1  0.893600  0.926200  0.900000  1
  H  H341  1  0.606400  0.426200  0.400000  1
  H  H342  1  0.606400  0.073800  0.600000  1
  H  H343  1  0.106400  0.426200  0.900000  1
  H  H344  1  0.106400  0.073800  0.100000  1
  H  H345  1  0.340600  0.511400  0.661200  1
  H  H346  1  0.340600  0.988600  0.338800  1
  H  H347  1  0.840600  0.511400  0.161200  1
  H  H348  1  0.840600  0.988600  0.838800  1
  H  H349  1  0.659400  0.488600  0.338800  1
  H  H350  1  0.659400  0.011400  0.661200  1
  H  H351  1  0.159400  0.488600  0.838800  1
  H  H352  1  0.159400  0.011400  0.161200  1
  H  H353  1  0.406900  0.459700  0.674700  1
  H  H354  1  0.406900  0.040300  0.325300  1
  H  H355  1  0.906900  0.459700  0.174700  1
  H  H356  1  0.906900  0.040300  0.825300  1
  H  H357  1  0.593100  0.540300  0.325300  1
  H  H358  1  0.593100  0.959700  0.674700  1
  H  H359  1  0.093100  0.540300  0.825300  1
  H  H360  1  0.093100  0.959700  0.174700  1
  H  H361  1  0.420400  0.356200  0.646800  1
  H  H362  1  0.420400  0.143800  0.353200  1
  H  H363  1  0.920400  0.356200  0.146800  1
  H  H364  1  0.920400  0.143800  0.853200  1
  H  H365  1  0.579600  0.643800  0.353200  1
  H  H366  1  0.579600  0.856200  0.646800  1
  H  H367  1  0.079600  0.643800  0.853200  1
  H  H368  1  0.079600  0.856200  0.146800  1
  H  H369  1  0.548100  0.353000  0.721000  1
  H  H370  1  0.548100  0.147000  0.279000  1
  H  H371  1  0.048100  0.353000  0.221000  1
  H  H372  1  0.048100  0.147000  0.779000  1
  H  H373  1  0.451900  0.647000  0.279000  1
  H  H374  1  0.451900  0.853000  0.721000  1
  H  H375  1  0.951900  0.647000  0.779000  1
  H  H376  1  0.951900  0.853000  0.221000  1
  H  H377  1  0.594300  0.401300  0.694900  1
  H  H378  1  0.594300  0.098700  0.305100  1
  H  H379  1  0.094300  0.401300  0.194900  1
  H  H380  1  0.094300  0.098700  0.805100  1
  H  H381  1  0.405700  0.598700  0.305100  1
  H  H382  1  0.405700  0.901300  0.694900  1
  H  H383  1  0.905700  0.598700  0.805100  1
  H  H384  1  0.905700  0.901300  0.194900  1
  H  H385  1  0.557200  0.425100  0.643100  1
  H  H386  1  0.557200  0.074900  0.356900  1
  H  H387  1  0.057200  0.425100  0.143100  1
  H  H388  1  0.057200  0.074900  0.856900  1
  H  H389  1  0.442800  0.574900  0.356900  1
  H  H390  1  0.442800  0.925100  0.643100  1
  H  H391  1  0.942800  0.574900  0.856900  1
  H  H392  1  0.942800  0.925100  0.143100  1
  H  H393  1  0.541900  0.334200  0.580400  1
  H  H394  1  0.541900  0.165800  0.419600  1
  H  H395  1  0.041900  0.334200  0.080400  1
  H  H396  1  0.041900  0.165800  0.919600  1
  H  H397  1  0.458100  0.665800  0.419600  1
  H  H398  1  0.458100  0.834200  0.580400  1
  H  H399  1  0.958100  0.665800  0.919600  1
  H  H400  1  0.958100  0.834200  0.080400  1
  H  H401  1  0.567800  0.305500  0.504400  1
  H  H402  1  0.567800  0.194500  0.495600  1
  H  H403  1  0.067800  0.305500  0.004400  1
  H  H404  1  0.067800  0.194500  0.995600  1
  H  H405  1  0.432200  0.694500  0.495600  1
  H  H406  1  0.432200  0.805500  0.504400  1
  H  H407  1  0.932200  0.694500  0.995600  1
  H  H408  1  0.932200  0.805500  0.004400  1
  H  H409  1  0.565900  0.204100  0.373800  1
  H  H410  1  0.565900  0.295900  0.626200  1
  H  H411  1  0.065900  0.204100  0.873800  1
  H  H412  1  0.065900  0.295900  0.126200  1
  H  H413  1  0.434100  0.795900  0.626200  1
  H  H414  1  0.434100  0.704100  0.373800  1
  H  H415  1  0.934100  0.795900  0.126200  1
  H  H416  1  0.934100  0.704100  0.873800  1
  H  H417  1  0.682000  0.297500  0.418200  1
  H  H418  1  0.682000  0.202500  0.581800  1
  H  H419  1  0.182000  0.297500  0.918200  1
  H  H420  1  0.182000  0.202500  0.081800  1
  H  H421  1  0.318000  0.702500  0.581800  1
  H  H422  1  0.318000  0.797500  0.418200  1
  H  H423  1  0.818000  0.702500  0.081800  1
  H  H424  1  0.818000  0.797500  0.918200  1
  H  H425  1  0.475700  0.219900  0.386400  1
  H  H426  1  0.475700  0.280100  0.613600  1
  H  H427  1  0.975700  0.219900  0.886400  1
  H  H428  1  0.975700  0.280100  0.113600  1
  H  H429  1  0.524300  0.780100  0.613600  1
  H  H430  1  0.524300  0.719900  0.386400  1
  H  H431  1  0.024300  0.780100  0.113600  1
  H  H432  1  0.024300  0.719900  0.886400  1
  H  H433  1  0.457300  0.271300  0.395200  1
  H  H434  1  0.457300  0.228700  0.604800  1
  H  H435  1  0.957300  0.271300  0.895200  1
  H  H436  1  0.957300  0.228700  0.104800  1
  H  H437  1  0.542700  0.728700  0.604800  1
  H  H438  1  0.542700  0.771300  0.395200  1
  H  H439  1  0.042700  0.728700  0.104800  1
  H  H440  1  0.042700  0.771300  0.895200  1
  H  H441  1  0.466700  0.253800  0.433400  1
  H  H442  1  0.466700  0.246200  0.566600  1
  H  H443  1  0.966700  0.253800  0.933400  1
  H  H444  1  0.966700  0.246200  0.066600  1
  H  H445  1  0.533300  0.746200  0.566600  1
  H  H446  1  0.533300  0.753800  0.433400  1
  H  H447  1  0.033300  0.746200  0.066600  1
  H  H448  1  0.033300  0.753800  0.933400  1
  H  H449  1  0.708900  0.220900  0.379200  1
  H  H450  1  0.708900  0.279100  0.620800  1
  H  H451  1  0.208900  0.220900  0.879200  1
  H  H452  1  0.208900  0.279100  0.120800  1
  H  H453  1  0.291100  0.779100  0.620800  1
  H  H454  1  0.291100  0.720900  0.379200  1
  H  H455  1  0.791100  0.779100  0.120800  1
  H  H456  1  0.791100  0.720900  0.879200  1
  H  H457  1  0.665600  0.193300  0.344800  1
  H  H458  1  0.665600  0.306700  0.655200  1
  H  H459  1  0.165600  0.193300  0.844800  1
  H  H460  1  0.165600  0.306700  0.155200  1
  H  H461  1  0.334400  0.806700  0.655200  1
  H  H462  1  0.334400  0.693300  0.344800  1
  H  H463  1  0.834400  0.806700  0.155200  1
  H  H464  1  0.834400  0.693300  0.844800  1
  H  H465  1  0.668800  0.185500  0.388500  1
  H  H466  1  0.668800  0.314500  0.611500  1
  H  H467  1  0.168800  0.185500  0.888500  1
  H  H468  1  0.168800  0.314500  0.111500  1
  H  H469  1  0.331200  0.814500  0.611500  1
  H  H470  1  0.331200  0.685500  0.388500  1
  H  H471  1  0.831200  0.814500  0.111500  1
  H  H472  1  0.831200  0.685500  0.888500  1
  H  H473  1  0.594200  0.391700  0.459900  1
  H  H474  1  0.594200  0.108300  0.540100  1
  H  H475  1  0.094200  0.391700  0.959900  1
  H  H476  1  0.094200  0.108300  0.040100  1
  H  H477  1  0.405800  0.608300  0.540100  1
  H  H478  1  0.405800  0.891700  0.459900  1
  H  H479  1  0.905800  0.608300  0.040100  1
  H  H480  1  0.905800  0.891700  0.959900  1
  H  H481  1  0.655000  0.378800  0.444000  1
  H  H482  1  0.655000  0.121200  0.556000  1
  H  H483  1  0.155000  0.378800  0.944000  1
  H  H484  1  0.155000  0.121200  0.056000  1
  H  H485  1  0.345000  0.621200  0.556000  1
  H  H486  1  0.345000  0.878800  0.444000  1
  H  H487  1  0.845000  0.621200  0.056000  1
  H  H488  1  0.845000  0.878800  0.944000  1
  H  H489  1  0.634900  0.372000  0.485900  1
  H  H490  1  0.634900  0.128000  0.514100  1
  H  H491  1  0.134900  0.372000  0.985900  1
  H  H492  1  0.134900  0.128000  0.014100  1
  H  H493  1  0.365100  0.628000  0.514100  1
  H  H494  1  0.365100  0.872000  0.485900  1
  H  H495  1  0.865100  0.628000  0.014100  1
  H  H496  1  0.865100  0.872000  0.985900  1
  H  H497  1  0.494900  0.332600  0.369800  1
  H  H498  1  0.494900  0.167400  0.630200  1
  H  H499  1  0.994900  0.332600  0.869800  1
  H  H500  1  0.994900  0.167400  0.130200  1
  H  H501  1  0.505100  0.667400  0.630200  1
  H  H502  1  0.505100  0.832600  0.369800  1
  H  H503  1  0.005100  0.667400  0.130200  1
  H  H504  1  0.005100  0.832600  0.869800  1
  H  H505  1  0.413300  0.369200  0.354900  1
  H  H506  1  0.413300  0.130800  0.645100  1
  H  H507  1  0.913300  0.369200  0.854900  1
  H  H508  1  0.913300  0.130800  0.145100  1
  H  H509  1  0.586700  0.630800  0.645100  1
  H  H510  1  0.586700  0.869200  0.354900  1
  H  H511  1  0.086700  0.630800  0.145100  1
  H  H512  1  0.086700  0.869200  0.854900  1
  H  H513  1  0.390000  0.451300  0.363000  1
  H  H514  1  0.390000  0.048700  0.637000  1
  H  H515  1  0.890000  0.451300  0.863000  1
  H  H516  1  0.890000  0.048700  0.137000  1
  H  H517  1  0.610000  0.548700  0.637000  1
  H  H518  1  0.610000  0.951300  0.363000  1
  H  H519  1  0.110000  0.548700  0.137000  1
  H  H520  1  0.110000  0.951300  0.863000  1
  H  H521  1  0.345600  0.445300  0.300500  1
  H  H522  1  0.345600  0.054700  0.699500  1
  H  H523  1  0.845600  0.445300  0.800500  1
  H  H524  1  0.845600  0.054700  0.199500  1
  H  H525  1  0.654400  0.554700  0.699500  1
  H  H526  1  0.654400  0.945300  0.300500  1
  H  H527  1  0.154400  0.554700  0.199500  1
  H  H528  1  0.154400  0.945300  0.800500  1
  H  H529  1  0.258800  0.414400  0.286900  1
  H  H530  1  0.258800  0.085600  0.713100  1
  H  H531  1  0.758800  0.414400  0.786900  1
  H  H532  1  0.758800  0.085600  0.213100  1
  H  H533  1  0.741200  0.585600  0.713100  1
  H  H534  1  0.741200  0.914400  0.286900  1
  H  H535  1  0.241200  0.585600  0.213100  1
  H  H536  1  0.241200  0.914400  0.786900  1
  H  H537  1  0.258000  0.398700  0.399500  1
  H  H538  1  0.258000  0.101300  0.600500  1
  H  H539  1  0.758000  0.398700  0.899500  1
  H  H540  1  0.758000  0.101300  0.100500  1
  H  H541  1  0.742000  0.601300  0.600500  1
  H  H542  1  0.742000  0.898700  0.399500  1
  H  H543  1  0.242000  0.601300  0.100500  1
  H  H544  1  0.242000  0.898700  0.899500  1
  H  H545  1  0.507300  0.275400  0.695500  1
  H  H546  1  0.507300  0.224600  0.304500  1
  H  H547  1  0.007300  0.275400  0.195500  1
  H  H548  1  0.007300  0.224600  0.804500  1
  H  H549  1  0.492700  0.724600  0.304500  1
  H  H550  1  0.492700  0.775400  0.695500  1
  H  H551  1  0.992700  0.724600  0.804500  1
  H  H552  1  0.992700  0.775400  0.195500  1
  H  H553  1  0.491000  0.305700  0.742400  1
  H  H554  1  0.491000  0.194300  0.257600  1
  H  H555  1  0.991000  0.305700  0.242400  1
  H  H556  1  0.991000  0.194300  0.757600  1
  H  H557  1  0.509000  0.694300  0.257600  1
  H  H558  1  0.509000  0.805700  0.742400  1
  H  H559  1  0.009000  0.694300  0.757600  1
  H  H560  1  0.009000  0.805700  0.242400  1
  H  H561  1  0.460400  0.232100  0.725500  1
  H  H562  1  0.460400  0.267900  0.274500  1
  H  H563  1  0.960400  0.232100  0.225500  1
  H  H564  1  0.960400  0.267900  0.774500  1
  H  H565  1  0.539600  0.767900  0.274500  1
  H  H566  1  0.539600  0.732100  0.725500  1
  H  H567  1  0.039600  0.767900  0.774500  1
  H  H568  1  0.039600  0.732100  0.225500  1
  H  H569  1  0.427000  0.236500  0.687100  1
  H  H570  1  0.427000  0.263500  0.312900  1
  H  H571  1  0.927000  0.236500  0.187100  1
  H  H572  1  0.927000  0.263500  0.812900  1
  H  H573  1  0.573000  0.763500  0.312900  1
  H  H574  1  0.573000  0.736500  0.687100  1
  H  H575  1  0.073000  0.763500  0.812900  1
  H  H576  1  0.073000  0.736500  0.187100  1
  H  H577  1  0.402900  0.288900  0.772200  1
  H  H578  1  0.402900  0.211100  0.227800  1
  H  H579  1  0.902900  0.288900  0.272200  1
  H  H580  1  0.902900  0.211100  0.727800  1
  H  H581  1  0.597100  0.711100  0.227800  1
  H  H582  1  0.597100  0.788900  0.772200  1
  H  H583  1  0.097100  0.711100  0.727800  1
  H  H584  1  0.097100  0.788900  0.272200  1
  H  H585  1  0.368000  0.289100  0.732900  1
  H  H586  1  0.368000  0.210900  0.267100  1
  H  H587  1  0.868000  0.289100  0.232900  1
  H  H588  1  0.868000  0.210900  0.767100  1
  H  H589  1  0.632000  0.710900  0.267100  1
  H  H590  1  0.632000  0.789100  0.732900  1
  H  H591  1  0.132000  0.710900  0.767100  1
  H  H592  1  0.132000  0.789100  0.232900  1
  H  H593  1  0.337000  0.244000  0.773600  1
  H  H594  1  0.337000  0.256000  0.226400  1
  H  H595  1  0.837000  0.244000  0.273600  1
  H  H596  1  0.837000  0.256000  0.726400  1
  H  H597  1  0.663000  0.756000  0.226400  1
  H  H598  1  0.663000  0.744000  0.773600  1
  H  H599  1  0.163000  0.756000  0.726400  1
  H  H600  1  0.163000  0.744000  0.273600  1
  H  H601  1  0.382300  0.208500  0.749200  1
  H  H602  1  0.382300  0.291500  0.250800  1
  H  H603  1  0.882300  0.208500  0.249200  1
  H  H604  1  0.882300  0.291500  0.750800  1
  H  H605  1  0.617700  0.791500  0.250800  1
  H  H606  1  0.617700  0.708500  0.749200  1
  H  H607  1  0.117700  0.791500  0.750800  1
  H  H608  1  0.117700  0.708500  0.249200  1
  H  H609  1  0.307000  0.180700  0.715700  1
  H  H610  1  0.307000  0.319300  0.284300  1
  H  H611  1  0.807000  0.180700  0.215700  1
  H  H612  1  0.807000  0.319300  0.784300  1
  H  H613  1  0.693000  0.819300  0.284300  1
  H  H614  1  0.693000  0.680700  0.715700  1
  H  H615  1  0.193000  0.819300  0.784300  1
  H  H616  1  0.193000  0.680700  0.215700  1
  H  H617  1  0.336400  0.203300  0.686200  1
  H  H618  1  0.336400  0.296700  0.313800  1
  H  H619  1  0.836400  0.203300  0.186200  1
  H  H620  1  0.836400  0.296700  0.813800  1
  H  H621  1  0.663600  0.796700  0.313800  1
  H  H622  1  0.663600  0.703300  0.686200  1
  H  H623  1  0.163600  0.796700  0.813800  1
  H  H624  1  0.163600  0.703300  0.186200  1
  H  H625  1  0.278000  0.269200  0.716100  1
  H  H626  1  0.278000  0.230800  0.283900  1
  H  H627  1  0.778000  0.269200  0.216100  1
  H  H628  1  0.778000  0.230800  0.783900  1
  H  H629  1  0.722000  0.730800  0.283900  1
  H  H630  1  0.722000  0.769200  0.716100  1
  H  H631  1  0.222000  0.730800  0.783900  1
  H  H632  1  0.222000  0.769200  0.216100  1
  H  H633  1  0.246500  0.223800  0.688300  1
  H  H634  1  0.246500  0.276200  0.311700  1
  H  H635  1  0.746500  0.223800  0.188300  1
  H  H636  1  0.746500  0.276200  0.811700  1
  H  H637  1  0.753500  0.776200  0.311700  1
  H  H638  1  0.753500  0.723800  0.688300  1
  H  H639  1  0.253500  0.776200  0.811700  1
  H  H640  1  0.253500  0.723800  0.188300  1
  H  H641  1  0.200400  0.350400  0.275100  1
  H  H642  1  0.200400  0.149600  0.724900  1
  H  H643  1  0.700400  0.350400  0.775100  1
  H  H644  1  0.700400  0.149600  0.224900  1
  H  H645  1  0.799600  0.649600  0.724900  1
  H  H646  1  0.799600  0.850400  0.275100  1
  H  H647  1  0.299600  0.649600  0.224900  1
  H  H648  1  0.299600  0.850400  0.775100  1
  H  H649  1  0.167700  0.397600  0.289400  1
  H  H650  1  0.167700  0.102400  0.710600  1
  H  H651  1  0.667700  0.397600  0.789400  1
  H  H652  1  0.667700  0.102400  0.210600  1
  H  H653  1  0.832300  0.602400  0.710600  1
  H  H654  1  0.832300  0.897600  0.289400  1
  H  H655  1  0.332300  0.602400  0.210600  1
  H  H656  1  0.332300  0.897600  0.789400  1
  H  H657  1  0.111800  0.328800  0.268000  1
  H  H658  1  0.111800  0.171200  0.732000  1
  H  H659  1  0.611800  0.328800  0.768000  1
  H  H660  1  0.611800  0.171200  0.232000  1
  H  H661  1  0.888200  0.671200  0.732000  1
  H  H662  1  0.888200  0.828800  0.268000  1
  H  H663  1  0.388200  0.671200  0.232000  1
  H  H664  1  0.388200  0.828800  0.768000  1
  H  H665  1  0.130900  0.321800  0.310000  1
  H  H666  1  0.130900  0.178200  0.690000  1
  H  H667  1  0.630900  0.321800  0.810000  1
  H  H668  1  0.630900  0.178200  0.190000  1
  H  H669  1  0.869100  0.678200  0.690000  1
  H  H670  1  0.869100  0.821800  0.310000  1
  H  H671  1  0.369100  0.678200  0.190000  1
  H  H672  1  0.369100  0.821800  0.810000  1
  H  H673  1  0.043800  0.360800  0.308900  1
  H  H674  1  0.043800  0.139200  0.691100  1
  H  H675  1  0.543800  0.360800  0.808900  1
  H  H676  1  0.543800  0.139200  0.191100  1
  H  H677  1  0.956200  0.639200  0.691100  1
  H  H678  1  0.956200  0.860800  0.308900  1
  H  H679  1  0.456200  0.639200  0.191100  1
  H  H680  1  0.456200  0.860800  0.808900  1
  H  H681  1  0.081100  0.404500  0.315900  1
  H  H682  1  0.081100  0.095500  0.684100  1
  H  H683  1  0.581100  0.404500  0.815900  1
  H  H684  1  0.581100  0.095500  0.184100  1
  H  H685  1  0.918900  0.595500  0.684100  1
  H  H686  1  0.918900  0.904500  0.315900  1
  H  H687  1  0.418900  0.595500  0.184100  1
  H  H688  1  0.418900  0.904500  0.815900  1
  H  H689  1  0.077100  0.355000  0.372400  1
  H  H690  1  0.077100  0.145000  0.627600  1
  H  H691  1  0.577100  0.355000  0.872400  1
  H  H692  1  0.577100  0.145000  0.127600  1
  H  H693  1  0.922900  0.645000  0.627600  1
  H  H694  1  0.922900  0.855000  0.372400  1
  H  H695  1  0.422900  0.645000  0.127600  1
  H  H696  1  0.422900  0.855000  0.872400  1
  H  H697  1  0.114000  0.399200  0.379500  1
  H  H698  1  0.114000  0.100800  0.620500  1
  H  H699  1  0.614000  0.399200  0.879500  1
  H  H700  1  0.614000  0.100800  0.120500  1
  H  H701  1  0.886000  0.600800  0.620500  1
  H  H702  1  0.886000  0.899200  0.379500  1
  H  H703  1  0.386000  0.600800  0.120500  1
  H  H704  1  0.386000  0.899200  0.879500  1
  H  H705  1  0.998900  0.401200  0.372100  1
  H  H706  1  0.998900  0.098800  0.627900  1
  H  H707  1  0.498900  0.401200  0.872100  1
  H  H708  1  0.498900  0.098800  0.127900  1
  H  H709  1  0.001100  0.598800  0.627900  1
  H  H710  1  0.001100  0.901200  0.372100  1
  H  H711  1  0.501100  0.598800  0.127900  1
  H  H712  1  0.501100  0.901200  0.872100  1
  H  H713  1  0.038000  0.444800  0.385600  1
  H  H714  1  0.038000  0.055200  0.614400  1
  H  H715  1  0.538000  0.444800  0.885600  1
  H  H716  1  0.538000  0.055200  0.114400  1
  H  H717  1  0.962000  0.555200  0.614400  1
  H  H718  1  0.962000  0.944800  0.385600  1
  H  H719  1  0.462000  0.555200  0.114400  1
  H  H720  1  0.462000  0.944800  0.885600  1
  H  H721  1  0.020800  0.388700  0.436100  1
  H  H722  1  0.020800  0.111300  0.563900  1
  H  H723  1  0.520800  0.388700  0.936100  1
  H  H724  1  0.520800  0.111300  0.063900  1
  H  H725  1  0.979200  0.611300  0.563900  1
  H  H726  1  0.979200  0.888700  0.436100  1
  H  H727  1  0.479200  0.611300  0.063900  1
  H  H728  1  0.479200  0.888700  0.936100  1
  H  H729  1  0.058800  0.433200  0.449900  1
  H  H730  1  0.058800  0.066800  0.550100  1
  H  H731  1  0.558800  0.433200  0.949900  1
  H  H732  1  0.558800  0.066800  0.050100  1
  H  H733  1  0.941200  0.566800  0.550100  1
  H  H734  1  0.941200  0.933200  0.449900  1
  H  H735  1  0.441200  0.566800  0.050100  1
  H  H736  1  0.441200  0.933200  0.949900  1
  H  H737  1  0.884100  0.355300  0.533500  1
  H  H738  1  0.884100  0.144700  0.466500  1
  H  H739  1  0.384100  0.355300  0.033500  1
  H  H740  1  0.384100  0.144700  0.966500  1
  H  H741  1  0.115900  0.644700  0.466500  1
  H  H742  1  0.115900  0.855300  0.533500  1
  H  H743  1  0.615900  0.644700  0.966500  1
  H  H744  1  0.615900  0.855300  0.033500  1
  H  H745  1  0.863800  0.286800  0.552700  1
  H  H746  1  0.863800  0.213200  0.447300  1
  H  H747  1  0.363800  0.286800  0.052700  1
  H  H748  1  0.363800  0.213200  0.947300  1
  H  H749  1  0.136200  0.713200  0.447300  1
  H  H750  1  0.136200  0.786800  0.552700  1
  H  H751  1  0.636200  0.713200  0.947300  1
  H  H752  1  0.636200  0.786800  0.052700  1
  H  H753  1  0.876200  0.135500  0.534600  1
  H  H754  1  0.876200  0.364500  0.465400  1
  H  H755  1  0.376200  0.135500  0.034600  1
  H  H756  1  0.376200  0.364500  0.965400  1
  H  H757  1  0.123800  0.864500  0.465400  1
  H  H758  1  0.123800  0.635500  0.534600  1
  H  H759  1  0.623800  0.864500  0.965400  1
  H  H760  1  0.623800  0.635500  0.034600  1
  H  H761  1  0.770300  0.210400  0.619200  1
  H  H762  1  0.770300  0.289600  0.380800  1
  H  H763  1  0.270300  0.210400  0.119200  1
  H  H764  1  0.270300  0.289600  0.880800  1
  H  H765  1  0.229700  0.789600  0.380800  1
  H  H766  1  0.229700  0.710400  0.619200  1
  H  H767  1  0.729700  0.789600  0.880800  1
  H  H768  1  0.729700  0.710400  0.119200  1
  H  H769  1  0.960800  0.164900  0.524800  1
  H  H770  1  0.960800  0.335100  0.475200  1
  H  H771  1  0.460800  0.164900  0.024800  1
  H  H772  1  0.460800  0.335100  0.975200  1
  H  H773  1  0.039200  0.835100  0.475200  1
  H  H774  1  0.039200  0.664900  0.524800  1
  H  H775  1  0.539200  0.835100  0.975200  1
  H  H776  1  0.539200  0.664900  0.024800  1
  H  H777  1  0.987300  0.194900  0.568500  1
  H  H778  1  0.987300  0.305100  0.431500  1
  H  H779  1  0.487300  0.194900  0.068500  1
  H  H780  1  0.487300  0.305100  0.931500  1
  H  H781  1  0.012700  0.805100  0.431500  1
  H  H782  1  0.012700  0.694900  0.568500  1
  H  H783  1  0.512700  0.805100  0.931500  1
  H  H784  1  0.512700  0.694900  0.068500  1
  H  H785  1  0.964100  0.219100  0.537900  1
  H  H786  1  0.964100  0.280900  0.462100  1
  H  H787  1  0.464100  0.219100  0.037900  1
  H  H788  1  0.464100  0.280900  0.962100  1
  H  H789  1  0.035900  0.780900  0.462100  1
  H  H790  1  0.035900  0.719100  0.537900  1
  H  H791  1  0.535900  0.780900  0.962100  1
  H  H792  1  0.535900  0.719100  0.037900  1
  H  H793  1  0.754600  0.127800  0.581300  1
  H  H794  1  0.754600  0.372200  0.418700  1
  H  H795  1  0.254600  0.127800  0.081300  1
  H  H796  1  0.254600  0.372200  0.918700  1
  H  H797  1  0.245400  0.872200  0.418700  1
  H  H798  1  0.245400  0.627800  0.581300  1
  H  H799  1  0.745400  0.872200  0.918700  1
  H  H800  1  0.745400  0.627800  0.081300  1
  H  H801  1  0.796100  0.100300  0.545400  1
  H  H802  1  0.796100  0.399700  0.454600  1
  H  H803  1  0.296100  0.100300  0.045400  1
  H  H804  1  0.296100  0.399700  0.954600  1
  H  H805  1  0.203900  0.899700  0.454600  1
  H  H806  1  0.203900  0.600300  0.545400  1
  H  H807  1  0.703900  0.899700  0.954600  1
  H  H808  1  0.703900  0.600300  0.045400  1
  H  H809  1  0.753300  0.134300  0.537000  1
  H  H810  1  0.753300  0.365700  0.463000  1
  H  H811  1  0.253300  0.134300  0.037000  1
  H  H812  1  0.253300  0.365700  0.963000  1
  H  H813  1  0.246700  0.865700  0.463000  1
  H  H814  1  0.246700  0.634300  0.537000  1
  H  H815  1  0.746700  0.865700  0.963000  1
  H  H816  1  0.746700  0.634300  0.037000  1
  H  H817  1  0.817800  0.310300  0.644700  1
  H  H818  1  0.817800  0.189700  0.355300  1
  H  H819  1  0.317800  0.310300  0.144700  1
  H  H820  1  0.317800  0.189700  0.855300  1
  H  H821  1  0.182200  0.689700  0.355300  1
  H  H822  1  0.182200  0.810300  0.644700  1
  H  H823  1  0.682200  0.689700  0.855300  1
  H  H824  1  0.682200  0.810300  0.144700  1
  H  H825  1  0.856500  0.296100  0.675600  1
  H  H826  1  0.856500  0.203900  0.324400  1
  H  H827  1  0.356500  0.296100  0.175600  1
  H  H828  1  0.356500  0.203900  0.824400  1
  H  H829  1  0.143500  0.703900  0.324400  1
  H  H830  1  0.143500  0.796100  0.675600  1
  H  H831  1  0.643500  0.703900  0.824400  1
  H  H832  1  0.643500  0.796100  0.175600  1
  H  H833  1  0.794300  0.280600  0.670500  1
  H  H834  1  0.794300  0.219400  0.329500  1
  H  H835  1  0.294300  0.280600  0.170500  1
  H  H836  1  0.294300  0.219400  0.829500  1
  H  H837  1  0.205700  0.719400  0.329500  1
  H  H838  1  0.205700  0.780600  0.670500  1
  H  H839  1  0.705700  0.719400  0.829500  1
  H  H840  1  0.705700  0.780600  0.170500  1
  H  H841  1  0.955300  0.213300  0.653900  1
  H  H842  1  0.955300  0.286700  0.346100  1
  H  H843  1  0.455300  0.213300  0.153900  1
  H  H844  1  0.455300  0.286700  0.846100  1
  H  H845  1  0.044700  0.786700  0.346100  1
  H  H846  1  0.044700  0.713300  0.653900  1
  H  H847  1  0.544700  0.786700  0.846100  1
  H  H848  1  0.544700  0.713300  0.153900  1
  H  H849  1  0.034000  0.232000  0.701800  1
  H  H850  1  0.034000  0.268000  0.298200  1
  H  H851  1  0.534000  0.232000  0.201800  1
  H  H852  1  0.534000  0.268000  0.798200  1
  H  H853  1  0.966000  0.768000  0.298200  1
  H  H854  1  0.966000  0.732000  0.701800  1
  H  H855  1  0.466000  0.768000  0.798200  1
  H  H856  1  0.466000  0.732000  0.201800  1
  H  H857  1  0.048100  0.309500  0.785500  1
  H  H858  1  0.048100  0.190500  0.214500  1
  H  H859  1  0.548100  0.309500  0.285500  1
  H  H860  1  0.548100  0.190500  0.714500  1
  H  H861  1  0.951900  0.690500  0.214500  1
  H  H862  1  0.951900  0.809500  0.785500  1
  H  H863  1  0.451900  0.690500  0.714500  1
  H  H864  1  0.451900  0.809500  0.285500  1
  H  H865  1  0.092600  0.277900  0.828600  1
  H  H866  1  0.092600  0.222100  0.171400  1
  H  H867  1  0.592600  0.277900  0.328600  1
  H  H868  1  0.592600  0.222100  0.671400  1
  H  H869  1  0.907400  0.722100  0.171400  1
  H  H870  1  0.907400  0.777900  0.828600  1
  H  H871  1  0.407400  0.722100  0.671400  1
  H  H872  1  0.407400  0.777900  0.328600  1
  H  H873  1  0.179200  0.246900  0.812200  1
  H  H874  1  0.179200  0.253100  0.187800  1
  H  H875  1  0.679200  0.246900  0.312200  1
  H  H876  1  0.679200  0.253100  0.687800  1
  H  H877  1  0.820800  0.753100  0.187800  1
  H  H878  1  0.820800  0.746900  0.812200  1
  H  H879  1  0.320800  0.753100  0.687800  1
  H  H880  1  0.320800  0.746900  0.312200  1
  H  H881  1  0.177100  0.279400  0.707500  1
  H  H882  1  0.177100  0.220600  0.292500  1
  H  H883  1  0.677100  0.279400  0.207500  1
  H  H884  1  0.677100  0.220600  0.792500  1
  H  H885  1  0.822900  0.720600  0.292500  1
  H  H886  1  0.822900  0.779400  0.707500  1
  H  H887  1  0.322900  0.720600  0.792500  1
  H  H888  1  0.322900  0.779400  0.207500  1
  H  H889  1  0.150900  0.383600  0.770700  1
  H  H890  1  0.150900  0.116400  0.229300  1
  H  H891  1  0.650900  0.383600  0.270700  1
  H  H892  1  0.650900  0.116400  0.729300  1
  H  H893  1  0.849100  0.616400  0.229300  1
  H  H894  1  0.849100  0.883600  0.770700  1
  H  H895  1  0.349100  0.616400  0.729300  1
  H  H896  1  0.349100  0.883600  0.270700  1
  H  H897  1  0.158700  0.455900  0.758300  1
  H  H898  1  0.158700  0.044100  0.241700  1
  H  H899  1  0.658700  0.455900  0.258300  1
  H  H900  1  0.658700  0.044100  0.741700  1
  H  H901  1  0.841300  0.544100  0.241700  1
  H  H902  1  0.841300  0.955900  0.758300  1
  H  H903  1  0.341300  0.544100  0.741700  1
  H  H904  1  0.341300  0.955900  0.258300  1
  H  H905  1  0.115200  0.608300  0.768900  1
  H  H906  1  0.115200  0.891700  0.231100  1
  H  H907  1  0.615200  0.608300  0.268900  1
  H  H908  1  0.615200  0.891700  0.731100  1
  H  H909  1  0.884800  0.391700  0.231100  1
  H  H910  1  0.884800  0.108300  0.768900  1
  H  H911  1  0.384800  0.391700  0.731100  1
  H  H912  1  0.384800  0.108300  0.268900  1
  H  H913  1  0.255400  0.547800  0.720100  1
  H  H914  1  0.255400  0.952200  0.279900  1
  H  H915  1  0.755400  0.547800  0.220100  1
  H  H916  1  0.755400  0.952200  0.779900  1
  H  H917  1  0.744600  0.452200  0.279900  1
  H  H918  1  0.744600  0.047800  0.720100  1
  H  H919  1  0.244600  0.452200  0.779900  1
  H  H920  1  0.244600  0.047800  0.220100  1
  H  H921  1  0.034200  0.567800  0.760500  1
  H  H922  1  0.034200  0.932200  0.239500  1
  H  H923  1  0.534200  0.567800  0.260500  1
  H  H924  1  0.534200  0.932200  0.739500  1
  H  H925  1  0.965800  0.432200  0.239500  1
  H  H926  1  0.965800  0.067800  0.760500  1
  H  H927  1  0.465800  0.432200  0.739500  1
  H  H928  1  0.465800  0.067800  0.260500  1
  H  H929  1  0.035600  0.513300  0.742300  1
  H  H930  1  0.035600  0.986700  0.257700  1
  H  H931  1  0.535600  0.513300  0.242300  1
  H  H932  1  0.535600  0.986700  0.757700  1
  H  H933  1  0.964400  0.486700  0.257700  1
  H  H934  1  0.964400  0.013300  0.742300  1
  H  H935  1  0.464400  0.486700  0.757700  1
  H  H936  1  0.464400  0.013300  0.242300  1
  H  H937  1  0.028600  0.541100  0.711300  1
  H  H938  1  0.028600  0.958900  0.288700  1
  H  H939  1  0.528600  0.541100  0.211300  1
  H  H940  1  0.528600  0.958900  0.788700  1
  H  H941  1  0.971400  0.458900  0.288700  1
  H  H942  1  0.971400  0.041100  0.711300  1
  H  H943  1  0.471400  0.458900  0.788700  1
  H  H944  1  0.471400  0.041100  0.211300  1
  H  H945  1  0.249100  0.621300  0.789000  1
  H  H946  1  0.249100  0.878700  0.211000  1
  H  H947  1  0.749100  0.621300  0.289000  1
  H  H948  1  0.749100  0.878700  0.711000  1
  H  H949  1  0.750900  0.378700  0.211000  1
  H  H950  1  0.750900  0.121300  0.789000  1
  H  H951  1  0.250900  0.378700  0.711000  1
  H  H952  1  0.250900  0.121300  0.289000  1
  H  H953  1  0.196300  0.651300  0.789900  1
  H  H954  1  0.196300  0.848700  0.210100  1
  H  H955  1  0.696300  0.651300  0.289900  1
  H  H956  1  0.696300  0.848700  0.710100  1
  H  H957  1  0.803700  0.348700  0.210100  1
  H  H958  1  0.803700  0.151300  0.789900  1
  H  H959  1  0.303700  0.348700  0.710100  1
  H  H960  1  0.303700  0.151300  0.289900  1
  H  H961  1  0.237700  0.639600  0.751600  1
  H  H962  1  0.237700  0.860400  0.248400  1
  H  H963  1  0.737700  0.639600  0.251600  1
  H  H964  1  0.737700  0.860400  0.748400  1
  H  H965  1  0.762300  0.360400  0.248400  1
  H  H966  1  0.762300  0.139600  0.751600  1
  H  H967  1  0.262300  0.360400  0.748400  1
  H  H968  1  0.262300  0.139600  0.251600  1
  H  H969  1  0.212300  0.437600  0.683300  1
  H  H970  1  0.212300  0.062400  0.316700  1
  H  H971  1  0.712300  0.437600  0.183300  1
  H  H972  1  0.712300  0.062400  0.816700  1
  H  H973  1  0.787700  0.562400  0.316700  1
  H  H974  1  0.787700  0.937600  0.683300  1
  H  H975  1  0.287700  0.562400  0.816700  1
  H  H976  1  0.287700  0.937600  0.183300  1
  H  H977  1  0.262000  0.470400  0.683400  1
  H  H978  1  0.262000  0.029600  0.316600  1
  H  H979  1  0.762000  0.470400  0.183400  1
  H  H980  1  0.762000  0.029600  0.816600  1
  H  H981  1  0.738000  0.529600  0.316600  1
  H  H982  1  0.738000  0.970400  0.683400  1
  H  H983  1  0.238000  0.529600  0.816600  1
  H  H984  1  0.238000  0.970400  0.183400  1
  H  H985  1  0.217000  0.459200  0.647500  1
  H  H986  1  0.217000  0.040800  0.352500  1
  H  H987  1  0.717000  0.459200  0.147500  1
  H  H988  1  0.717000  0.040800  0.852500  1
  H  H989  1  0.783000  0.540800  0.352500  1
  H  H990  1  0.783000  0.959200  0.647500  1
  H  H991  1  0.283000  0.540800  0.852500  1
  H  H992  1  0.283000  0.959200  0.147500  1
  H  H993  1  0.092900  0.517100  0.639800  1
  H  H994  1  0.092900  0.982900  0.360200  1
  H  H995  1  0.592900  0.517100  0.139800  1
  H  H996  1  0.592900  0.982900  0.860200  1
  H  H997  1  0.907100  0.482900  0.360200  1
  H  H998  1  0.907100  0.017100  0.639800  1
  H  H999  1  0.407100  0.482900  0.860200  1
  H  H1000  1  0.407100  0.017100  0.139800  1
  H  H1001  1  0.025500  0.490600  0.582900  1
  H  H1002  1  0.025500  0.009400  0.417100  1
  H  H1003  1  0.525500  0.490600  0.082900  1
  H  H1004  1  0.525500  0.009400  0.917100  1
  H  H1005  1  0.974500  0.509400  0.417100  1
  H  H1006  1  0.974500  0.990600  0.582900  1
  H  H1007  1  0.474500  0.509400  0.917100  1
  H  H1008  1  0.474500  0.990600  0.082900  1
  H  H1009  1  0.011300  0.416100  0.507200  1
  H  H1010  1  0.011300  0.083900  0.492800  1
  H  H1011  1  0.511300  0.416100  0.007200  1
  H  H1012  1  0.511300  0.083900  0.992800  1
  H  H1013  1  0.988700  0.583900  0.492800  1
  H  H1014  1  0.988700  0.916100  0.507200  1
  H  H1015  1  0.488700  0.583900  0.992800  1
  H  H1016  1  0.488700  0.916100  0.007200  1
  H  H1017  1  0.891200  0.482800  0.473200  1
  H  H1018  1  0.891200  0.017200  0.526800  1
  H  H1019  1  0.391200  0.482800  0.973200  1
  H  H1020  1  0.391200  0.017200  0.026800  1
  H  H1021  1  0.108800  0.517200  0.526800  1
  H  H1022  1  0.108800  0.982800  0.473200  1
  H  H1023  1  0.608800  0.517200  0.026800  1
  H  H1024  1  0.608800  0.982800  0.973200  1
  H  H1025  1  0.841100  0.484300  0.530500  1
  H  H1026  1  0.841100  0.015700  0.469500  1
  H  H1027  1  0.341100  0.484300  0.030500  1
  H  H1028  1  0.341100  0.015700  0.969500  1
  H  H1029  1  0.158900  0.515700  0.469500  1
  H  H1030  1  0.158900  0.984300  0.530500  1
  H  H1031  1  0.658900  0.515700  0.969500  1
  H  H1032  1  0.658900  0.984300  0.030500  1
  H  H1033  1  0.877000  0.453000  0.578300  1
  H  H1034  1  0.877000  0.047000  0.421700  1
  H  H1035  1  0.377000  0.453000  0.078300  1
  H  H1036  1  0.377000  0.047000  0.921700  1
  H  H1037  1  0.123000  0.547000  0.421700  1
  H  H1038  1  0.123000  0.953000  0.578300  1
  H  H1039  1  0.623000  0.547000  0.921700  1
  H  H1040  1  0.623000  0.953000  0.078300  1
  H  H1041  1  0.486500  0.326400  0.750500  1
  H  H1042  1  0.486500  0.173600  0.249500  1
  H  H1043  1  0.986500  0.326400  0.250500  1
  H  H1044  1  0.986500  0.173600  0.749500  1
  H  H1045  1  0.513500  0.673600  0.249500  1
  H  H1046  1  0.513500  0.826400  0.750500  1
  H  H1047  1  0.013500  0.673600  0.749500  1
  H  H1048  1  0.013500  0.826400  0.250500  1
  H  H1049  1  0.498000  0.279700  0.712700  1
  H  H1050  1  0.498000  0.220300  0.287300  1
  H  H1051  1  0.998000  0.279700  0.212700  1
  H  H1052  1  0.998000  0.220300  0.787300  1
  H  H1053  1  0.502000  0.720300  0.287300  1
  H  H1054  1  0.502000  0.779700  0.712700  1
  H  H1055  1  0.002000  0.720300  0.787300  1
  H  H1056  1  0.002000  0.779700  0.212700  1
  H  H1057  1  0.406400  0.303300  0.763800  1
  H  H1058  1  0.406400  0.196700  0.236200  1
  H  H1059  1  0.906400  0.303300  0.263800  1
  H  H1060  1  0.906400  0.196700  0.736200  1
  H  H1061  1  0.593600  0.696700  0.236200  1
  H  H1062  1  0.593600  0.803300  0.763800  1
  H  H1063  1  0.093600  0.696700  0.736200  1
  H  H1064  1  0.093600  0.803300  0.263800  1
  H  H1065  1  0.445300  0.260600  0.756400  1
  H  H1066  1  0.445300  0.239400  0.243600  1
  H  H1067  1  0.945300  0.260600  0.256400  1
  H  H1068  1  0.945300  0.239400  0.743600  1
  H  H1069  1  0.554700  0.739400  0.243600  1
  H  H1070  1  0.554700  0.760600  0.756400  1
  H  H1071  1  0.054700  0.739400  0.743600  1
  H  H1072  1  0.054700  0.760600  0.256400  1
  H  H1073  1  0.366400  0.269500  0.698900  1
  H  H1074  1  0.366400  0.230500  0.301100  1
  H  H1075  1  0.866400  0.269500  0.198900  1
  H  H1076  1  0.866400  0.230500  0.801100  1
  H  H1077  1  0.633600  0.730500  0.301100  1
  H  H1078  1  0.633600  0.769500  0.698900  1
  H  H1079  1  0.133600  0.730500  0.801100  1
  H  H1080  1  0.133600  0.769500  0.198900  1
  H  H1081  1  0.409900  0.229200  0.686000  1
  H  H1082  1  0.409900  0.270800  0.314000  1
  H  H1083  1  0.909900  0.229200  0.186000  1
  H  H1084  1  0.909900  0.270800  0.814000  1
  H  H1085  1  0.590100  0.770800  0.314000  1
  H  H1086  1  0.590100  0.729200  0.686000  1
  H  H1087  1  0.090100  0.770800  0.814000  1
  H  H1088  1  0.090100  0.729200  0.186000  1
  H  H1089  1  0.340100  0.242400  0.753800  1
  H  H1090  1  0.340100  0.257600  0.246200  1
  H  H1091  1  0.840100  0.242400  0.253800  1
  H  H1092  1  0.840100  0.257600  0.746200  1
  H  H1093  1  0.659900  0.757600  0.246200  1
  H  H1094  1  0.659900  0.742400  0.753800  1
  H  H1095  1  0.159900  0.757600  0.746200  1
  H  H1096  1  0.159900  0.742400  0.253800  1
  H  H1097  1  0.375000  0.198200  0.730100  1
  H  H1098  1  0.375000  0.301800  0.269900  1
  H  H1099  1  0.875000  0.198200  0.230100  1
  H  H1100  1  0.875000  0.301800  0.769900  1
  H  H1101  1  0.625000  0.801800  0.269900  1
  H  H1102  1  0.625000  0.698200  0.730100  1
  H  H1103  1  0.125000  0.801800  0.769900  1
  H  H1104  1  0.125000  0.698200  0.230100  1
  H  H1105  1  0.295100  0.173800  0.708100  1
  H  H1106  1  0.295100  0.326200  0.291900  1
  H  H1107  1  0.795100  0.173800  0.208100  1
  H  H1108  1  0.795100  0.326200  0.791900  1
  H  H1109  1  0.704900  0.826200  0.291900  1
  H  H1110  1  0.704900  0.673800  0.708100  1
  H  H1111  1  0.204900  0.826200  0.791900  1
  H  H1112  1  0.204900  0.673800  0.208100  1
  H  H1113  1  0.314600  0.190100  0.671100  1
  H  H1114  1  0.314600  0.309900  0.328900  1
  H  H1115  1  0.814600  0.190100  0.171100  1
  H  H1116  1  0.814600  0.309900  0.828900  1
  H  H1117  1  0.685400  0.809900  0.328900  1
  H  H1118  1  0.685400  0.690100  0.671100  1
  H  H1119  1  0.185400  0.809900  0.828900  1
  H  H1120  1  0.185400  0.690100  0.171100  1
  H  H1121  1  0.265800  0.260800  0.704800  1
  H  H1122  1  0.265800  0.239200  0.295200  1
  H  H1123  1  0.765800  0.260800  0.204800  1
  H  H1124  1  0.765800  0.239200  0.795200  1
  H  H1125  1  0.734200  0.739200  0.295200  1
  H  H1126  1  0.734200  0.760800  0.704800  1
  H  H1127  1  0.234200  0.739200  0.795200  1
  H  H1128  1  0.234200  0.760800  0.204800  1
  H  H1129  1  0.227300  0.216800  0.687300  1
  H  H1130  1  0.227300  0.283200  0.312700  1
  H  H1131  1  0.727300  0.216800  0.187300  1
  H  H1132  1  0.727300  0.283200  0.812700  1
  H  H1133  1  0.772700  0.783200  0.312700  1
  H  H1134  1  0.772700  0.716800  0.687300  1
  H  H1135  1  0.272700  0.783200  0.812700  1
  H  H1136  1  0.272700  0.716800  0.187300  1
  H  H1137  1  0.690700  0.400100  0.687800  1
  H  H1138  1  0.690700  0.099900  0.312200  1
  H  H1139  1  0.190700  0.400100  0.187800  1
  H  H1140  1  0.190700  0.099900  0.812200  1
  H  H1141  1  0.309300  0.599900  0.312200  1
  H  H1142  1  0.309300  0.900100  0.687800  1
  H  H1143  1  0.809300  0.599900  0.812200  1
  H  H1144  1  0.809300  0.900100  0.187800  1
  H  H1145  1  0.740600  0.386000  0.710500  1
  H  H1146  1  0.740600  0.114000  0.289500  1
  H  H1147  1  0.240600  0.386000  0.210500  1
  H  H1148  1  0.240600  0.114000  0.789500  1
  H  H1149  1  0.259400  0.614000  0.289500  1
  H  H1150  1  0.259400  0.886000  0.710500  1
  H  H1151  1  0.759400  0.614000  0.789500  1
  H  H1152  1  0.759400  0.886000  0.210500  1
  H  H1153  1  0.751000  0.400400  0.670700  1
  H  H1154  1  0.751000  0.099600  0.329300  1
  H  H1155  1  0.251000  0.400400  0.170700  1
  H  H1156  1  0.251000  0.099600  0.829300  1
  H  H1157  1  0.249000  0.599600  0.329300  1
  H  H1158  1  0.249000  0.900400  0.670700  1
  H  H1159  1  0.749000  0.599600  0.829300  1
  H  H1160  1  0.749000  0.900400  0.170700  1
  H  H1161  1  0.819500  0.445700  0.727300  1
  H  H1162  1  0.819500  0.054300  0.272700  1
  H  H1163  1  0.319500  0.445700  0.227300  1
  H  H1164  1  0.319500  0.054300  0.772700  1
  H  H1165  1  0.180500  0.554300  0.272700  1
  H  H1166  1  0.180500  0.945700  0.727300  1
  H  H1167  1  0.680500  0.554300  0.772700  1
  H  H1168  1  0.680500  0.945700  0.227300  1
  H  H1169  1  0.836900  0.523300  0.773300  1
  H  H1170  1  0.836900  0.976700  0.226700  1
  H  H1171  1  0.336900  0.523300  0.273300  1
  H  H1172  1  0.336900  0.976700  0.726700  1
  H  H1173  1  0.163100  0.476700  0.226700  1
  H  H1174  1  0.163100  0.023300  0.773300  1
  H  H1175  1  0.663100  0.476700  0.726700  1
  H  H1176  1  0.663100  0.023300  0.273300  1
  H  H1177  1  0.652800  0.468900  0.667300  1
  H  H1178  1  0.652800  0.031100  0.332700  1
  H  H1179  1  0.152800  0.468900  0.167300  1
  H  H1180  1  0.152800  0.031100  0.832700  1
  H  H1181  1  0.347200  0.531100  0.332700  1
  H  H1182  1  0.347200  0.968900  0.667300  1
  H  H1183  1  0.847200  0.531100  0.832700  1
  H  H1184  1  0.847200  0.968900  0.167300  1
  H  H1185  1  0.780600  0.394600  0.681300  1
  H  H1186  1  0.780600  0.105400  0.318700  1
  H  H1187  1  0.280600  0.394600  0.181300  1
  H  H1188  1  0.280600  0.105400  0.818700  1
  H  H1189  1  0.219400  0.605400  0.318700  1
  H  H1190  1  0.219400  0.894600  0.681300  1
  H  H1191  1  0.719400  0.605400  0.818700  1
  H  H1192  1  0.719400  0.894600  0.181300  1
  H  H1193  1  0.793400  0.366300  0.608900  1
  H  H1194  1  0.793400  0.133700  0.391100  1
  H  H1195  1  0.293400  0.366300  0.108900  1
  H  H1196  1  0.293400  0.133700  0.891100  1
  H  H1197  1  0.206600  0.633700  0.391100  1
  H  H1198  1  0.206600  0.866300  0.608900  1
  H  H1199  1  0.706600  0.633700  0.891100  1
  H  H1200  1  0.706600  0.866300  0.108900  1
  H  H1201  1  0.665600  0.440700  0.594900  1
  H  H1202  1  0.665600  0.059300  0.405100  1
  H  H1203  1  0.165600  0.440700  0.094900  1
  H  H1204  1  0.165600  0.059300  0.905100  1
  H  H1205  1  0.334400  0.559300  0.405100  1
  H  H1206  1  0.334400  0.940700  0.594900  1
  H  H1207  1  0.834400  0.559300  0.905100  1
  H  H1208  1  0.834400  0.940700  0.094900  1
  H  H1209  1  0.669500  0.461000  0.734300  1
  H  H1210  1  0.669500  0.039000  0.265700  1
  H  H1211  1  0.169500  0.461000  0.234300  1
  H  H1212  1  0.169500  0.039000  0.765700  1
  H  H1213  1  0.330500  0.539000  0.265700  1
  H  H1214  1  0.330500  0.961000  0.734300  1
  H  H1215  1  0.830500  0.539000  0.765700  1
  H  H1216  1  0.830500  0.961000  0.234300  1
  H  H1217  1  0.731000  0.452100  0.743900  1
  H  H1218  1  0.731000  0.047900  0.256100  1
  H  H1219  1  0.231000  0.452100  0.243900  1
  H  H1220  1  0.231000  0.047900  0.756100  1
  H  H1221  1  0.269000  0.547900  0.256100  1
  H  H1222  1  0.269000  0.952100  0.743900  1
  H  H1223  1  0.769000  0.547900  0.756100  1
  H  H1224  1  0.769000  0.952100  0.243900  1
  H  H1225  1  0.689800  0.410300  0.726600  1
  H  H1226  1  0.689800  0.089700  0.273400  1
  H  H1227  1  0.189800  0.410300  0.226600  1
  H  H1228  1  0.189800  0.089700  0.773400  1
  H  H1229  1  0.310200  0.589700  0.273400  1
  H  H1230  1  0.310200  0.910300  0.726600  1
  H  H1231  1  0.810200  0.589700  0.773400  1
  H  H1232  1  0.810200  0.910300  0.226600  1
  H  H1233  1  0.722200  0.388100  0.532200  1
  H  H1234  1  0.722200  0.111900  0.467800  1
  H  H1235  1  0.222200  0.388100  0.032200  1
  H  H1236  1  0.222200  0.111900  0.967800  1
  H  H1237  1  0.277800  0.611900  0.467800  1
  H  H1238  1  0.277800  0.888100  0.532200  1
  H  H1239  1  0.777800  0.611900  0.967800  1
  H  H1240  1  0.777800  0.888100  0.032200  1
  H  H1241  1  0.743600  0.344900  0.542300  1
  H  H1242  1  0.743600  0.155100  0.457700  1
  H  H1243  1  0.243600  0.344900  0.042300  1
  H  H1244  1  0.243600  0.155100  0.957700  1
  H  H1245  1  0.256400  0.655100  0.457700  1
  H  H1246  1  0.256400  0.844900  0.542300  1
  H  H1247  1  0.756400  0.655100  0.957700  1
  H  H1248  1  0.756400  0.844900  0.042300  1
  H  H1249  1  0.783800  0.386100  0.545900  1
  H  H1250  1  0.783800  0.113900  0.454100  1
  H  H1251  1  0.283800  0.386100  0.045900  1
  H  H1252  1  0.283800  0.113900  0.954100  1
  H  H1253  1  0.216200  0.613900  0.454100  1
  H  H1254  1  0.216200  0.886100  0.545900  1
  H  H1255  1  0.716200  0.613900  0.954100  1
  H  H1256  1  0.716200  0.886100  0.045900  1
  H  H1257  1  0.470600  0.983400  0.431700  1.0
  H  H1258  1  0.470600  0.516600  0.568300  1.0
  H  H1259  1  0.970600  0.983400  0.931700  1.0
  H  H1260  1  0.970600  0.516600  0.068300  1.0
  H  H1261  1  0.529400  0.016600  0.568300  1.0
  H  H1262  1  0.529400  0.483400  0.431700  1.0
  H  H1263  1  0.029400  0.016600  0.068300  1.0
  H  H1264  1  0.029400  0.483400  0.931700  1.0
  H  H1265  1  0.581600  0.037100  0.519900  1.0
  H  H1266  1  0.581600  0.462900  0.480100  1.0
  H  H1267  1  0.081600  0.037100  0.019900  1.0
  H  H1268  1  0.081600  0.462900  0.980100  1.0
  H  H1269  1  0.418400  0.962900  0.480100  1.0
  H  H1270  1  0.418400  0.537100  0.519900  1.0
  H  H1271  1  0.918400  0.962900  0.980100  1.0
  H  H1272  1  0.918400  0.537100  0.019900  1.0
  H  H1273  1  0.595000  0.045500  0.452300  1.0
  H  H1274  1  0.595000  0.454500  0.547700  1.0
  H  H1275  1  0.095000  0.045500  0.952300  1.0
  H  H1276  1  0.095000  0.454500  0.047700  1.0
  H  H1277  1  0.405000  0.954500  0.547700  1.0
  H  H1278  1  0.405000  0.545500  0.452300  1.0
  H  H1279  1  0.905000  0.954500  0.047700  1.0
  H  H1280  1  0.905000  0.545500  0.952300  1.0
  H  H1281  1  0.538800  0.049100  0.430300  1.0
  H  H1282  1  0.538800  0.450900  0.569700  1.0
  H  H1283  1  0.038800  0.049100  0.930300  1.0
  H  H1284  1  0.038800  0.450900  0.069700  1.0
  H  H1285  1  0.461200  0.950900  0.569700  1.0
  H  H1286  1  0.461200  0.549100  0.430300  1.0
  H  H1287  1  0.961200  0.950900  0.069700  1.0
  H  H1288  1  0.961200  0.549100  0.930300  1.0
  H  H1289  1  0.571500  0.002100  0.415700  1.0
  H  H1290  1  0.571500  0.497900  0.584300  1.0
  H  H1291  1  0.071500  0.002100  0.915700  1.0
  H  H1292  1  0.071500  0.497900  0.084300  1.0
  H  H1293  1  0.428500  0.997900  0.584300  1.0
  H  H1294  1  0.428500  0.502100  0.415700  1.0
  H  H1295  1  0.928500  0.997900  0.084300  1.0
  H  H1296  1  0.928500  0.502100  0.915700  1.0
  C  C1297  1  0.084320  0.551620  0.289150  1
  C  C1298  1  0.084320  0.948380  0.710850  1
  C  C1299  1  0.584320  0.551620  0.789150  1
  C  C1300  1  0.584320  0.948380  0.210850  1
  C  C1301  1  0.915680  0.448380  0.710850  1
  C  C1302  1  0.915680  0.051620  0.289150  1
  C  C1303  1  0.415680  0.448380  0.210850  1
  C  C1304  1  0.415680  0.051620  0.789150  1
  C  C1305  1  0.108260  0.536740  0.321890  1
  C  C1306  1  0.108260  0.963260  0.678110  1
  C  C1307  1  0.608260  0.536740  0.821890  1
  C  C1308  1  0.608260  0.963260  0.178110  1
  C  C1309  1  0.891740  0.463260  0.678110  1
  C  C1310  1  0.891740  0.036740  0.321890  1
  C  C1311  1  0.391740  0.463260  0.178110  1
  C  C1312  1  0.391740  0.036740  0.821890  1
  C  C1313  1  0.032190  0.575620  0.226000  1
  C  C1314  1  0.032190  0.924380  0.774000  1
  C  C1315  1  0.532190  0.575620  0.726000  1
  C  C1316  1  0.532190  0.924380  0.274000  1
  C  C1317  1  0.967810  0.424380  0.774000  1
  C  C1318  1  0.967810  0.075620  0.226000  1
  C  C1319  1  0.467810  0.424380  0.274000  1
  C  C1320  1  0.467810  0.075620  0.726000  1
  C  C1321  1  0.004470  0.590160  0.194710  1
  C  C1322  1  0.004470  0.909840  0.805290  1
  C  C1323  1  0.504470  0.590160  0.694710  1
  C  C1324  1  0.504470  0.909840  0.305290  1
  C  C1325  1  0.995530  0.409840  0.805290  1
  C  C1326  1  0.995530  0.090160  0.194710  1
  C  C1327  1  0.495530  0.409840  0.305290  1
  C  C1328  1  0.495530  0.090160  0.694710  1
  C  C1329  1  0.065950  0.518340  0.253710  1
  C  C1330  1  0.065950  0.981660  0.746290  1
  C  C1331  1  0.565950  0.518340  0.753710  1
  C  C1332  1  0.565950  0.981660  0.246290  1
  C  C1333  1  0.934050  0.481660  0.746290  1
  C  C1334  1  0.934050  0.018340  0.253710  1
  C  C1335  1  0.434050  0.481660  0.246290  1
  C  C1336  1  0.434050  0.018340  0.753710  1
  C  C1337  1  0.040620  0.532640  0.223770  1
  C  C1338  1  0.040620  0.967360  0.776230  1
  C  C1339  1  0.540620  0.532640  0.723770  1
  C  C1340  1  0.540620  0.967360  0.276230  1
  C  C1341  1  0.959380  0.467360  0.776230  1
  C  C1342  1  0.959380  0.032640  0.223770  1
  C  C1343  1  0.459380  0.467360  0.276230  1
  C  C1344  1  0.459380  0.032640  0.723770  1
  C  C1345  1  0.054100  0.608240  0.259110  1
  C  C1346  1  0.054100  0.891760  0.740890  1
  C  C1347  1  0.554100  0.608240  0.759110  1
  C  C1348  1  0.554100  0.891760  0.240890  1
  C  C1349  1  0.945900  0.391760  0.740890  1
  C  C1350  1  0.945900  0.108240  0.259110  1
  C  C1351  1  0.445900  0.391760  0.240890  1
  C  C1352  1  0.445900  0.108240  0.759110  1
  C  C1353  1  0.079850  0.599830  0.291280  1
  C  C1354  1  0.079850  0.900170  0.708720  1
  C  C1355  1  0.579850  0.599830  0.791280  1
  C  C1356  1  0.579850  0.900170  0.208720  1
  C  C1357  1  0.920150  0.400170  0.708720  1
  C  C1358  1  0.920150  0.099830  0.291280  1
  C  C1359  1  0.420150  0.400170  0.208720  1
  C  C1360  1  0.420150  0.099830  0.791280  1
  C  C1361  1  0.749100  0.434280  0.601900  1
  C  C1362  1  0.749100  0.065720  0.398100  1
  C  C1363  1  0.249100  0.434280  0.101900  1
  C  C1364  1  0.249100  0.065720  0.898100  1
  C  C1365  1  0.250900  0.565720  0.398100  1
  C  C1366  1  0.250900  0.934280  0.601900  1
  C  C1367  1  0.750900  0.565720  0.898100  1
  C  C1368  1  0.750900  0.934280  0.101900  1
  C  C1369  1  0.782900  0.396900  0.584900  1
  C  C1370  1  0.782900  0.103100  0.415100  1
  C  C1371  1  0.282900  0.396900  0.084900  1
  C  C1372  1  0.282900  0.103100  0.915100  1
  C  C1373  1  0.217100  0.603100  0.415100  1
  C  C1374  1  0.217100  0.896900  0.584900  1
  C  C1375  1  0.717100  0.603100  0.915100  1
  C  C1376  1  0.717100  0.896900  0.084900  1
  C  C1377  1  0.761200  0.354900  0.561200  1
  C  C1378  1  0.761200  0.145100  0.438800  1
  C  C1379  1  0.261200  0.354900  0.061200  1
  C  C1380  1  0.261200  0.145100  0.938800  1
  C  C1381  1  0.238800  0.645100  0.438800  1
  C  C1382  1  0.238800  0.854900  0.561200  1
  C  C1383  1  0.738800  0.645100  0.938800  1
  C  C1384  1  0.738800  0.854900  0.061200  1
  C  C1385  1  0.705700  0.350300  0.554400  1
  C  C1386  1  0.705700  0.149700  0.445600  1
  C  C1387  1  0.205700  0.350300  0.054400  1
  C  C1388  1  0.205700  0.149700  0.945600  1
  C  C1389  1  0.294300  0.649700  0.445600  1
  C  C1390  1  0.294300  0.850300  0.554400  1
  C  C1391  1  0.794300  0.649700  0.945600  1
  C  C1392  1  0.794300  0.850300  0.054400  1
  C  C1393  1  0.671900  0.387600  0.571300  1
  C  C1394  1  0.671900  0.112400  0.428700  1
  C  C1395  1  0.171900  0.387600  0.071300  1
  C  C1396  1  0.171900  0.112400  0.928700  1
  C  C1397  1  0.328100  0.612400  0.428700  1
  C  C1398  1  0.328100  0.887600  0.571300  1
  C  C1399  1  0.828100  0.612400  0.928700  1
  C  C1400  1  0.828100  0.887600  0.071300  1
  C  C1401  1  0.693500  0.429600  0.595000  1
  C  C1402  1  0.693500  0.070400  0.405000  1
  C  C1403  1  0.193500  0.429600  0.095000  1
  C  C1404  1  0.193500  0.070400  0.905000  1
  C  C1405  1  0.306500  0.570400  0.405000  1
  C  C1406  1  0.306500  0.929600  0.595000  1
  C  C1407  1  0.806500  0.570400  0.905000  1
  C  C1408  1  0.806500  0.929600  0.095000  1
  C  C1409  1  0.771100  0.480500  0.627600  1
  C  C1410  1  0.771100  0.019500  0.372400  1
  C  C1411  1  0.271100  0.480500  0.127600  1
  C  C1412  1  0.271100  0.019500  0.872400  1
  C  C1413  1  0.228900  0.519500  0.372400  1
  C  C1414  1  0.228900  0.980500  0.627600  1
  C  C1415  1  0.728900  0.519500  0.872400  1
  C  C1416  1  0.728900  0.980500  0.127600  1
  C  C1417  1  0.693700  0.301500  0.527700  1
  C  C1418  1  0.693700  0.198500  0.472300  1
  C  C1419  1  0.193700  0.301500  0.027700  1
  C  C1420  1  0.193700  0.198500  0.972300  1
  C  C1421  1  0.306300  0.698500  0.472300  1
  C  C1422  1  0.306300  0.801500  0.527700  1
  C  C1423  1  0.806300  0.698500  0.972300  1
  C  C1424  1  0.806300  0.801500  0.027700  1
  C  C1425  1  0.336100  0.454620  0.464790  1
  C  C1426  1  0.336100  0.045380  0.535210  1
  C  C1427  1  0.836100  0.454620  0.964790  1
  C  C1428  1  0.836100  0.045380  0.035210  1
  C  C1429  1  0.663900  0.545380  0.535210  1
  C  C1430  1  0.663900  0.954620  0.464790  1
  C  C1431  1  0.163900  0.545380  0.035210  1
  C  C1432  1  0.163900  0.954620  0.964790  1
  C  C1433  1  0.296400  0.489780  0.469780  1
  C  C1434  1  0.296400  0.010220  0.530220  1
  C  C1435  1  0.796400  0.489780  0.969780  1
  C  C1436  1  0.796400  0.010220  0.030220  1
  C  C1437  1  0.703600  0.510220  0.530220  1
  C  C1438  1  0.703600  0.989780  0.469780  1
  C  C1439  1  0.203600  0.510220  0.030220  1
  C  C1440  1  0.203600  0.989780  0.969780  1
  C  C1441  1  0.290500  0.512480  0.511390  1
  C  C1442  1  0.290500  0.987520  0.488610  1
  C  C1443  1  0.790500  0.512480  0.011390  1
  C  C1444  1  0.790500  0.987520  0.988610  1
  C  C1445  1  0.709500  0.487520  0.488610  1
  C  C1446  1  0.709500  0.012480  0.511390  1
  C  C1447  1  0.209500  0.487520  0.988610  1
  C  C1448  1  0.209500  0.012480  0.011390  1
  C  C1449  1  0.324900  0.490600  0.532710  1
  C  C1450  1  0.324900  0.009400  0.467290  1
  C  C1451  1  0.824900  0.490600  0.032710  1
  C  C1452  1  0.824900  0.009400  0.967290  1
  C  C1453  1  0.675100  0.509400  0.467290  1
  C  C1454  1  0.675100  0.990600  0.532710  1
  C  C1455  1  0.175100  0.509400  0.967290  1
  C  C1456  1  0.175100  0.990600  0.032710  1
  C  C1457  1  0.327800  0.502470  0.576100  1
  C  C1458  1  0.327800  0.997530  0.423900  1
  C  C1459  1  0.827800  0.502470  0.076100  1
  C  C1460  1  0.827800  0.997530  0.923900  1
  C  C1461  1  0.672200  0.497530  0.423900  1
  C  C1462  1  0.672200  0.002470  0.576100  1
  C  C1463  1  0.172200  0.497530  0.923900  1
  C  C1464  1  0.172200  0.002470  0.076100  1
  C  C1465  1  0.293800  0.541550  0.603230  1
  C  C1466  1  0.293800  0.958450  0.396770  1
  C  C1467  1  0.793800  0.541550  0.103230  1
  C  C1468  1  0.793800  0.958450  0.896770  1
  C  C1469  1  0.706200  0.458450  0.396770  1
  C  C1470  1  0.706200  0.041550  0.603230  1
  C  C1471  1  0.206200  0.458450  0.896770  1
  C  C1472  1  0.206200  0.041550  0.103230  1
  C  C1473  1  0.238200  0.536700  0.604820  1
  C  C1474  1  0.238200  0.963300  0.395180  1
  C  C1475  1  0.738200  0.536700  0.104820  1
  C  C1476  1  0.738200  0.963300  0.895180  1
  C  C1477  1  0.761800  0.463300  0.395180  1
  C  C1478  1  0.761800  0.036700  0.604820  1
  C  C1479  1  0.261800  0.463300  0.895180  1
  C  C1480  1  0.261800  0.036700  0.104820  1
  C  C1481  1  0.207000  0.573600  0.630930  1
  C  C1482  1  0.207000  0.926400  0.369070  1
  C  C1483  1  0.707000  0.573600  0.130930  1
  C  C1484  1  0.707000  0.926400  0.869070  1
  C  C1485  1  0.793000  0.426400  0.369070  1
  C  C1486  1  0.793000  0.073600  0.630930  1
  C  C1487  1  0.293000  0.426400  0.869070  1
  C  C1488  1  0.293000  0.073600  0.130930  1
  C  C1489  1  0.230100  0.614200  0.654750  1
  C  C1490  1  0.230100  0.885800  0.345250  1
  C  C1491  1  0.730100  0.614200  0.154750  1
  C  C1492  1  0.730100  0.885800  0.845250  1
  C  C1493  1  0.769900  0.385800  0.345250  1
  C  C1494  1  0.769900  0.114200  0.654750  1
  C  C1495  1  0.269900  0.385800  0.845250  1
  C  C1496  1  0.269900  0.114200  0.154750  1
  C  C1497  1  0.285400  0.618500  0.653500  1
  C  C1498  1  0.285400  0.881500  0.346500  1
  C  C1499  1  0.785400  0.618500  0.153500  1
  C  C1500  1  0.785400  0.881500  0.846500  1
  C  C1501  1  0.714600  0.381500  0.346500  1
  C  C1502  1  0.714600  0.118500  0.653500  1
  C  C1503  1  0.214600  0.381500  0.846500  1
  C  C1504  1  0.214600  0.118500  0.153500  1
  C  C1505  1  0.318700  0.582400  0.627970  1
  C  C1506  1  0.318700  0.917600  0.372030  1
  C  C1507  1  0.818700  0.582400  0.127970  1
  C  C1508  1  0.818700  0.917600  0.872030  1
  C  C1509  1  0.681300  0.417600  0.372030  1
  C  C1510  1  0.681300  0.082400  0.627970  1
  C  C1511  1  0.181300  0.417600  0.872030  1
  C  C1512  1  0.181300  0.082400  0.127970  1
  C  C1513  1  0.209400  0.493500  0.579800  1
  C  C1514  1  0.209400  0.006500  0.420200  1
  C  C1515  1  0.709400  0.493500  0.079800  1
  C  C1516  1  0.709400  0.006500  0.920200  1
  C  C1517  1  0.790600  0.506500  0.420200  1
  C  C1518  1  0.790600  0.993500  0.579800  1
  C  C1519  1  0.290600  0.506500  0.920200  1
  C  C1520  1  0.290600  0.993500  0.079800  1
  C  C1521  1  0.194100  0.651900  0.680300  1
  C  C1522  1  0.194100  0.848100  0.319700  1
  C  C1523  1  0.694100  0.651900  0.180300  1
  C  C1524  1  0.694100  0.848100  0.819700  1
  C  C1525  1  0.805900  0.348100  0.319700  1
  C  C1526  1  0.805900  0.151900  0.680300  1
  C  C1527  1  0.305900  0.348100  0.819700  1
  C  C1528  1  0.305900  0.151900  0.180300  1
  C  C1529  1  0.379200  0.589800  0.628000  1
  C  C1530  1  0.379200  0.910200  0.372000  1
  C  C1531  1  0.879200  0.589800  0.128000  1
  C  C1532  1  0.879200  0.910200  0.872000  1
  C  C1533  1  0.620800  0.410200  0.372000  1
  C  C1534  1  0.620800  0.089800  0.628000  1
  C  C1535  1  0.120800  0.410200  0.872000  1
  C  C1536  1  0.120800  0.089800  0.128000  1
  C  C1537  1  0.361100  0.479990  0.596080  1
  C  C1538  1  0.361100  0.020010  0.403920  1
  C  C1539  1  0.861100  0.479990  0.096080  1
  C  C1540  1  0.861100  0.020010  0.903920  1
  C  C1541  1  0.638900  0.520010  0.403920  1
  C  C1542  1  0.638900  0.979990  0.596080  1
  C  C1543  1  0.138900  0.520010  0.903920  1
  C  C1544  1  0.138900  0.979990  0.096080  1
  C  C1545  1  0.361900  0.489400  0.640850  1
  C  C1546  1  0.361900  0.010600  0.359150  1
  C  C1547  1  0.861900  0.489400  0.140850  1
  C  C1548  1  0.861900  0.010600  0.859150  1
  C  C1549  1  0.638100  0.510600  0.359150  1
  C  C1550  1  0.638100  0.989400  0.640850  1
  C  C1551  1  0.138100  0.510600  0.859150  1
  C  C1552  1  0.138100  0.989400  0.140850  1
  C  C1553  1  0.398100  0.461440  0.648210  1
  C  C1554  1  0.398100  0.038560  0.351790  1
  C  C1555  1  0.898100  0.461440  0.148210  1
  C  C1556  1  0.898100  0.038560  0.851790  1
  C  C1557  1  0.601900  0.538560  0.351790  1
  C  C1558  1  0.601900  0.961440  0.648210  1
  C  C1559  1  0.101900  0.538560  0.851790  1
  C  C1560  1  0.101900  0.961440  0.148210  1
  C  C1561  1  0.421200  0.434380  0.608560  1
  C  C1562  1  0.421200  0.065620  0.391440  1
  C  C1563  1  0.921200  0.434380  0.108560  1
  C  C1564  1  0.921200  0.065620  0.891440  1
  C  C1565  1  0.578800  0.565620  0.391440  1
  C  C1566  1  0.578800  0.934380  0.608560  1
  C  C1567  1  0.078800  0.565620  0.891440  1
  C  C1568  1  0.078800  0.934380  0.108560  1
  C  C1569  1  0.462700  0.402060  0.602920  1
  C  C1570  1  0.462700  0.097940  0.397080  1
  C  C1571  1  0.962700  0.402060  0.102920  1
  C  C1572  1  0.962700  0.097940  0.897080  1
  C  C1573  1  0.537300  0.597940  0.397080  1
  C  C1574  1  0.537300  0.902060  0.602920  1
  C  C1575  1  0.037300  0.597940  0.897080  1
  C  C1576  1  0.037300  0.902060  0.102920  1
  C  C1577  1  0.484800  0.392060  0.639590  1
  C  C1578  1  0.484800  0.107940  0.360410  1
  C  C1579  1  0.984800  0.392060  0.139590  1
  C  C1580  1  0.984800  0.107940  0.860410  1
  C  C1581  1  0.515200  0.607940  0.360410  1
  C  C1582  1  0.515200  0.892060  0.639590  1
  C  C1583  1  0.015200  0.607940  0.860410  1
  C  C1584  1  0.015200  0.892060  0.139590  1
  C  C1585  1  0.456400  0.364830  0.655970  1
  C  C1586  1  0.456400  0.135170  0.344030  1
  C  C1587  1  0.956400  0.364830  0.155970  1
  C  C1588  1  0.956400  0.135170  0.844030  1
  C  C1589  1  0.543600  0.635170  0.344030  1
  C  C1590  1  0.543600  0.864830  0.655970  1
  C  C1591  1  0.043600  0.635170  0.844030  1
  C  C1592  1  0.043600  0.864830  0.155970  1
  C  C1593  1  0.479500  0.349400  0.685960  1
  C  C1594  1  0.479500  0.150600  0.314040  1
  C  C1595  1  0.979500  0.349400  0.185960  1
  C  C1596  1  0.979500  0.150600  0.814040  1
  C  C1597  1  0.520500  0.650600  0.314040  1
  C  C1598  1  0.520500  0.849400  0.685960  1
  C  C1599  1  0.020500  0.650600  0.814040  1
  C  C1600  1  0.020500  0.849400  0.185960  1
  C  C1601  1  0.531900  0.363000  0.700600  1
  C  C1602  1  0.531900  0.137000  0.299400  1
  C  C1603  1  0.031900  0.363000  0.200600  1
  C  C1604  1  0.031900  0.137000  0.799400  1
  C  C1605  1  0.468100  0.637000  0.299400  1
  C  C1606  1  0.468100  0.863000  0.700600  1
  C  C1607  1  0.968100  0.637000  0.799400  1
  C  C1608  1  0.968100  0.863000  0.200600  1
  C  C1609  1  0.559100  0.391300  0.684700  1
  C  C1610  1  0.559100  0.108700  0.315300  1
  C  C1611  1  0.059100  0.391300  0.184700  1
  C  C1612  1  0.059100  0.108700  0.815300  1
  C  C1613  1  0.440900  0.608700  0.315300  1
  C  C1614  1  0.440900  0.891300  0.684700  1
  C  C1615  1  0.940900  0.608700  0.815300  1
  C  C1616  1  0.940900  0.891300  0.184700  1
  C  C1617  1  0.537000  0.406000  0.654000  1
  C  C1618  1  0.537000  0.094000  0.346000  1
  C  C1619  1  0.037000  0.406000  0.154000  1
  C  C1620  1  0.037000  0.094000  0.846000  1
  C  C1621  1  0.463000  0.594000  0.346000  1
  C  C1622  1  0.463000  0.906000  0.654000  1
  C  C1623  1  0.963000  0.594000  0.846000  1
  C  C1624  1  0.963000  0.906000  0.154000  1
  C  C1625  1  0.486500  0.376710  0.564000  1
  C  C1626  1  0.486500  0.123290  0.436000  1
  C  C1627  1  0.986500  0.376710  0.064000  1
  C  C1628  1  0.986500  0.123290  0.936000  1
  C  C1629  1  0.513500  0.623290  0.436000  1
  C  C1630  1  0.513500  0.876710  0.564000  1
  C  C1631  1  0.013500  0.623290  0.936000  1
  C  C1632  1  0.013500  0.876710  0.064000  1
  C  C1633  1  0.527100  0.343700  0.559150  1
  C  C1634  1  0.527100  0.156300  0.440850  1
  C  C1635  1  0.027100  0.343700  0.059150  1
  C  C1636  1  0.027100  0.156300  0.940850  1
  C  C1637  1  0.472900  0.656300  0.440850  1
  C  C1638  1  0.472900  0.843700  0.559150  1
  C  C1639  1  0.972900  0.656300  0.940850  1
  C  C1640  1  0.972900  0.843700  0.059150  1
  C  C1641  1  0.541100  0.327800  0.517470  1
  C  C1642  1  0.541100  0.172200  0.482530  1
  C  C1643  1  0.041100  0.327800  0.017470  1
  C  C1644  1  0.041100  0.172200  0.982530  1
  C  C1645  1  0.458900  0.672200  0.482530  1
  C  C1646  1  0.458900  0.827800  0.517470  1
  C  C1647  1  0.958900  0.672200  0.982530  1
  C  C1648  1  0.958900  0.827800  0.017470  1
  C  C1649  1  0.507900  0.351200  0.497910  1
  C  C1650  1  0.507900  0.148800  0.502090  1
  C  C1651  1  0.007900  0.351200  0.997910  1
  C  C1652  1  0.007900  0.148800  0.002090  1
  C  C1653  1  0.492100  0.648800  0.502090  1
  C  C1654  1  0.492100  0.851200  0.497910  1
  C  C1655  1  0.992100  0.648800  0.002090  1
  C  C1656  1  0.992100  0.851200  0.997910  1
  C  C1657  1  0.510400  0.344550  0.455220  1
  C  C1658  1  0.510400  0.155450  0.544780  1
  C  C1659  1  0.010400  0.344550  0.955220  1
  C  C1660  1  0.010400  0.155450  0.044780  1
  C  C1661  1  0.489600  0.655450  0.544780  1
  C  C1662  1  0.489600  0.844550  0.455220  1
  C  C1663  1  0.989600  0.655450  0.044780  1
  C  C1664  1  0.989600  0.844550  0.955220  1
  C  C1665  1  0.552300  0.310900  0.430410  1
  C  C1666  1  0.552300  0.189100  0.569590  1
  C  C1667  1  0.052300  0.310900  0.930410  1
  C  C1668  1  0.052300  0.189100  0.069590  1
  C  C1669  1  0.447700  0.689100  0.569590  1
  C  C1670  1  0.447700  0.810900  0.430410  1
  C  C1671  1  0.947700  0.689100  0.069590  1
  C  C1672  1  0.947700  0.810900  0.930410  1
  C  C1673  1  0.537300  0.265640  0.407710  1
  C  C1674  1  0.537300  0.234360  0.592290  1
  C  C1675  1  0.037300  0.265640  0.907710  1
  C  C1676  1  0.037300  0.234360  0.092290  1
  C  C1677  1  0.462700  0.734360  0.592290  1
  C  C1678  1  0.462700  0.765640  0.407710  1
  C  C1679  1  0.962700  0.734360  0.092290  1
  C  C1680  1  0.962700  0.765640  0.907710  1
  C  C1681  1  0.576500  0.234400  0.389400  1
  C  C1682  1  0.576500  0.265600  0.610600  1
  C  C1683  1  0.076500  0.234400  0.889400  1
  C  C1684  1  0.076500  0.265600  0.110600  1
  C  C1685  1  0.423500  0.765600  0.610600  1
  C  C1686  1  0.423500  0.734400  0.389400  1
  C  C1687  1  0.923500  0.765600  0.110600  1
  C  C1688  1  0.923500  0.734400  0.889400  1
  C  C1689  1  0.632000  0.245100  0.392810  1
  C  C1690  1  0.632000  0.254900  0.607190  1
  C  C1691  1  0.132000  0.245100  0.892810  1
  C  C1692  1  0.132000  0.254900  0.107190  1
  C  C1693  1  0.368000  0.754900  0.607190  1
  C  C1694  1  0.368000  0.745100  0.392810  1
  C  C1695  1  0.868000  0.754900  0.107190  1
  C  C1696  1  0.868000  0.745100  0.892810  1
  C  C1697  1  0.644900  0.289300  0.414900  1
  C  C1698  1  0.644900  0.210700  0.585100  1
  C  C1699  1  0.144900  0.289300  0.914900  1
  C  C1700  1  0.144900  0.210700  0.085100  1
  C  C1701  1  0.355100  0.710700  0.585100  1
  C  C1702  1  0.355100  0.789300  0.414900  1
  C  C1703  1  0.855100  0.710700  0.085100  1
  C  C1704  1  0.855100  0.789300  0.914900  1
  C  C1705  1  0.606400  0.323100  0.433000  1
  C  C1706  1  0.606400  0.176900  0.567000  1
  C  C1707  1  0.106400  0.323100  0.933000  1
  C  C1708  1  0.106400  0.176900  0.067000  1
  C  C1709  1  0.393600  0.676900  0.567000  1
  C  C1710  1  0.393600  0.823100  0.433000  1
  C  C1711  1  0.893600  0.676900  0.067000  1
  C  C1712  1  0.893600  0.823100  0.933000  1
  C  C1713  1  0.479200  0.251500  0.405500  1
  C  C1714  1  0.479200  0.248500  0.594500  1
  C  C1715  1  0.979200  0.251500  0.905500  1
  C  C1716  1  0.979200  0.248500  0.094500  1
  C  C1717  1  0.520800  0.748500  0.594500  1
  C  C1718  1  0.520800  0.751500  0.405500  1
  C  C1719  1  0.020800  0.748500  0.094500  1
  C  C1720  1  0.020800  0.751500  0.905500  1
  C  C1721  1  0.672300  0.208000  0.374800  1
  C  C1722  1  0.672300  0.292000  0.625200  1
  C  C1723  1  0.172300  0.208000  0.874800  1
  C  C1724  1  0.172300  0.292000  0.125200  1
  C  C1725  1  0.327700  0.792000  0.625200  1
  C  C1726  1  0.327700  0.708000  0.374800  1
  C  C1727  1  0.827700  0.792000  0.125200  1
  C  C1728  1  0.827700  0.708000  0.874800  1
  C  C1729  1  0.624200  0.370500  0.457900  1
  C  C1730  1  0.624200  0.129500  0.542100  1
  C  C1731  1  0.124200  0.370500  0.957900  1
  C  C1732  1  0.124200  0.129500  0.042100  1
  C  C1733  1  0.375800  0.629500  0.542100  1
  C  C1734  1  0.375800  0.870500  0.457900  1
  C  C1735  1  0.875800  0.629500  0.042100  1
  C  C1736  1  0.875800  0.870500  0.957900  1
  C  C1737  1  0.475000  0.363290  0.434490  1
  C  C1738  1  0.475000  0.136710  0.565510  1
  C  C1739  1  0.975000  0.363290  0.934490  1
  C  C1740  1  0.975000  0.136710  0.065510  1
  C  C1741  1  0.525000  0.636710  0.565510  1
  C  C1742  1  0.525000  0.863290  0.434490  1
  C  C1743  1  0.025000  0.636710  0.065510  1
  C  C1744  1  0.025000  0.863290  0.934490  1
  C  C1745  1  0.470600  0.351600  0.389950  1
  C  C1746  1  0.470600  0.148400  0.610050  1
  C  C1747  1  0.970600  0.351600  0.889950  1
  C  C1748  1  0.970600  0.148400  0.110050  1
  C  C1749  1  0.529400  0.648400  0.610050  1
  C  C1750  1  0.529400  0.851600  0.389950  1
  C  C1751  1  0.029400  0.648400  0.110050  1
  C  C1752  1  0.029400  0.851600  0.889950  1
  C  C1753  1  0.426400  0.371800  0.381760  1
  C  C1754  1  0.426400  0.128200  0.618240  1
  C  C1755  1  0.926400  0.371800  0.881760  1
  C  C1756  1  0.926400  0.128200  0.118240  1
  C  C1757  1  0.573600  0.628200  0.618240  1
  C  C1758  1  0.573600  0.871800  0.381760  1
  C  C1759  1  0.073600  0.628200  0.118240  1
  C  C1760  1  0.073600  0.871800  0.881760  1
  C  C1761  1  0.402600  0.398450  0.421320  1
  C  C1762  1  0.402600  0.101550  0.578680  1
  C  C1763  1  0.902600  0.398450  0.921320  1
  C  C1764  1  0.902600  0.101550  0.078680  1
  C  C1765  1  0.597400  0.601550  0.578680  1
  C  C1766  1  0.597400  0.898450  0.421320  1
  C  C1767  1  0.097400  0.601550  0.078680  1
  C  C1768  1  0.097400  0.898450  0.921320  1
  C  C1769  1  0.356500  0.426400  0.426200  1
  C  C1770  1  0.356500  0.073600  0.573800  1
  C  C1771  1  0.856500  0.426400  0.926200  1
  C  C1772  1  0.856500  0.073600  0.073800  1
  C  C1773  1  0.643500  0.573600  0.573800  1
  C  C1774  1  0.643500  0.926400  0.426200  1
  C  C1775  1  0.143500  0.573600  0.073800  1
  C  C1776  1  0.143500  0.926400  0.926200  1
  C  C1777  1  0.327400  0.426300  0.387960  1
  C  C1778  1  0.327400  0.073700  0.612040  1
  C  C1779  1  0.827400  0.426300  0.887960  1
  C  C1780  1  0.827400  0.073700  0.112040  1
  C  C1781  1  0.672600  0.573700  0.612040  1
  C  C1782  1  0.672600  0.926300  0.387960  1
  C  C1783  1  0.172600  0.573700  0.112040  1
  C  C1784  1  0.172600  0.926300  0.887960  1
  C  C1785  1  0.354200  0.439600  0.357900  1
  C  C1786  1  0.354200  0.060400  0.642100  1
  C  C1787  1  0.854200  0.439600  0.857900  1
  C  C1788  1  0.854200  0.060400  0.142100  1
  C  C1789  1  0.645800  0.560400  0.642100  1
  C  C1790  1  0.645800  0.939600  0.357900  1
  C  C1791  1  0.145800  0.560400  0.142100  1
  C  C1792  1  0.145800  0.939600  0.857900  1
  C  C1793  1  0.327900  0.435500  0.320500  1
  C  C1794  1  0.327900  0.064500  0.679500  1
  C  C1795  1  0.827900  0.435500  0.820500  1
  C  C1796  1  0.827900  0.064500  0.179500  1
  C  C1797  1  0.672100  0.564500  0.679500  1
  C  C1798  1  0.672100  0.935500  0.320500  1
  C  C1799  1  0.172100  0.564500  0.179500  1
  C  C1800  1  0.172100  0.935500  0.820500  1
  C  C1801  1  0.276300  0.417300  0.312500  1
  C  C1802  1  0.276300  0.082700  0.687500  1
  C  C1803  1  0.776300  0.417300  0.812500  1
  C  C1804  1  0.776300  0.082700  0.187500  1
  C  C1805  1  0.723700  0.582700  0.687500  1
  C  C1806  1  0.723700  0.917300  0.312500  1
  C  C1807  1  0.223700  0.582700  0.187500  1
  C  C1808  1  0.223700  0.917300  0.812500  1
  C  C1809  1  0.250100  0.403200  0.342200  1
  C  C1810  1  0.250100  0.096800  0.657800  1
  C  C1811  1  0.750100  0.403200  0.842200  1
  C  C1812  1  0.750100  0.096800  0.157800  1
  C  C1813  1  0.749900  0.596800  0.657800  1
  C  C1814  1  0.749900  0.903200  0.342200  1
  C  C1815  1  0.249900  0.596800  0.157800  1
  C  C1816  1  0.249900  0.903200  0.842200  1
  C  C1817  1  0.276000  0.408100  0.379340  1
  C  C1818  1  0.276000  0.091900  0.620660  1
  C  C1819  1  0.776000  0.408100  0.879340  1
  C  C1820  1  0.776000  0.091900  0.120660  1
  C  C1821  1  0.724000  0.591900  0.620660  1
  C  C1822  1  0.724000  0.908100  0.379340  1
  C  C1823  1  0.224000  0.591900  0.120660  1
  C  C1824  1  0.224000  0.908100  0.879340  1
  C  C1825  1  0.476470  0.289120  0.714150  1
  C  C1826  1  0.476470  0.210880  0.285850  1
  C  C1827  1  0.976470  0.289120  0.214150  1
  C  C1828  1  0.976470  0.210880  0.785850  1
  C  C1829  1  0.523530  0.710880  0.285850  1
  C  C1830  1  0.523530  0.789120  0.714150  1
  C  C1831  1  0.023530  0.710880  0.785850  1
  C  C1832  1  0.023530  0.789120  0.214150  1
  C  C1833  1  0.439820  0.253550  0.715800  1
  C  C1834  1  0.439820  0.246450  0.284200  1
  C  C1835  1  0.939820  0.253550  0.215800  1
  C  C1836  1  0.939820  0.246450  0.784200  1
  C  C1837  1  0.560180  0.746450  0.284200  1
  C  C1838  1  0.560180  0.753550  0.715800  1
  C  C1839  1  0.060180  0.746450  0.784200  1
  C  C1840  1  0.060180  0.753550  0.215800  1
  C  C1841  1  0.390610  0.269840  0.743900  1
  C  C1842  1  0.390610  0.230160  0.256100  1
  C  C1843  1  0.890610  0.269840  0.243900  1
  C  C1844  1  0.890610  0.230160  0.756100  1
  C  C1845  1  0.609390  0.730160  0.256100  1
  C  C1846  1  0.609390  0.769840  0.743900  1
  C  C1847  1  0.109390  0.730160  0.756100  1
  C  C1848  1  0.109390  0.769840  0.243900  1
  C  C1849  1  0.357340  0.232280  0.747040  1
  C  C1850  1  0.357340  0.267720  0.252960  1
  C  C1851  1  0.857340  0.232280  0.247040  1
  C  C1852  1  0.857340  0.267720  0.752960  1
  C  C1853  1  0.642660  0.767720  0.252960  1
  C  C1854  1  0.642660  0.732280  0.747040  1
  C  C1855  1  0.142660  0.767720  0.752960  1
  C  C1856  1  0.142660  0.732280  0.247040  1
  C  C1857  1  0.318110  0.210060  0.713460  1
  C  C1858  1  0.318110  0.289940  0.286540  1
  C  C1859  1  0.818110  0.210060  0.213460  1
  C  C1860  1  0.818110  0.289940  0.786540  1
  C  C1861  1  0.681890  0.789940  0.286540  1
  C  C1862  1  0.681890  0.710060  0.713460  1
  C  C1863  1  0.181890  0.789940  0.786540  1
  C  C1864  1  0.181890  0.710060  0.213460  1
  C  C1865  1  0.267840  0.237900  0.714110  1
  C  C1866  1  0.267840  0.262100  0.285890  1
  C  C1867  1  0.767840  0.237900  0.214110  1
  C  C1868  1  0.767840  0.262100  0.785890  1
  C  C1869  1  0.732160  0.762100  0.285890  1
  C  C1870  1  0.732160  0.737900  0.714110  1
  C  C1871  1  0.232160  0.762100  0.785890  1
  C  C1872  1  0.232160  0.737900  0.214110  1
  C  C1873  1  0.175500  0.370200  0.296500  1
  C  C1874  1  0.175500  0.129800  0.703500  1
  C  C1875  1  0.675500  0.370200  0.796500  1
  C  C1876  1  0.675500  0.129800  0.203500  1
  C  C1877  1  0.824500  0.629800  0.703500  1
  C  C1878  1  0.824500  0.870200  0.296500  1
  C  C1879  1  0.324500  0.629800  0.203500  1
  C  C1880  1  0.324500  0.870200  0.796500  1
  C  C1881  1  0.123600  0.345000  0.297100  1
  C  C1882  1  0.123600  0.155000  0.702900  1
  C  C1883  1  0.623600  0.345000  0.797100  1
  C  C1884  1  0.623600  0.155000  0.202900  1
  C  C1885  1  0.876400  0.655000  0.702900  1
  C  C1886  1  0.876400  0.845000  0.297100  1
  C  C1887  1  0.376400  0.655000  0.202900  1
  C  C1888  1  0.376400  0.845000  0.797100  1
  C  C1889  1  0.078800  0.375000  0.320400  1
  C  C1890  1  0.078800  0.125000  0.679600  1
  C  C1891  1  0.578800  0.375000  0.820400  1
  C  C1892  1  0.578800  0.125000  0.179600  1
  C  C1893  1  0.921200  0.625000  0.679600  1
  C  C1894  1  0.921200  0.875000  0.320400  1
  C  C1895  1  0.421200  0.625000  0.179600  1
  C  C1896  1  0.421200  0.875000  0.820400  1
  C  C1897  1  0.079700  0.384100  0.367300  1
  C  C1898  1  0.079700  0.115900  0.632700  1
  C  C1899  1  0.579700  0.384100  0.867300  1
  C  C1900  1  0.579700  0.115900  0.132700  1
  C  C1901  1  0.920300  0.615900  0.632700  1
  C  C1902  1  0.920300  0.884100  0.367300  1
  C  C1903  1  0.420300  0.615900  0.132700  1
  C  C1904  1  0.420300  0.884100  0.867300  1
  C  C1905  1  0.032500  0.414200  0.387400  1
  C  C1906  1  0.032500  0.085800  0.612600  1
  C  C1907  1  0.532500  0.414200  0.887400  1
  C  C1908  1  0.532500  0.085800  0.112600  1
  C  C1909  1  0.967500  0.585800  0.612600  1
  C  C1910  1  0.967500  0.914200  0.387400  1
  C  C1911  1  0.467500  0.585800  0.112600  1
  C  C1912  1  0.467500  0.914200  0.887400  1
  C  C1913  1  0.026300  0.418900  0.433600  1
  C  C1914  1  0.026300  0.081100  0.566400  1
  C  C1915  1  0.526300  0.418900  0.933600  1
  C  C1916  1  0.526300  0.081100  0.066400  1
  C  C1917  1  0.973700  0.581100  0.566400  1
  C  C1918  1  0.973700  0.918900  0.433600  1
  C  C1919  1  0.473700  0.581100  0.066400  1
  C  C1920  1  0.473700  0.918900  0.933600  1
  C  C1921  1  0.945800  0.369910  0.578820  1
  C  C1922  1  0.945800  0.130090  0.421180  1
  C  C1923  1  0.445800  0.369910  0.078820  1
  C  C1924  1  0.445800  0.130090  0.921180  1
  C  C1925  1  0.054200  0.630090  0.421180  1
  C  C1926  1  0.054200  0.869910  0.578820  1
  C  C1927  1  0.554200  0.630090  0.921180  1
  C  C1928  1  0.554200  0.869910  0.078820  1
  C  C1929  1  0.902400  0.346600  0.554000  1
  C  C1930  1  0.902400  0.153400  0.446000  1
  C  C1931  1  0.402400  0.346600  0.054000  1
  C  C1932  1  0.402400  0.153400  0.946000  1
  C  C1933  1  0.097600  0.653400  0.446000  1
  C  C1934  1  0.097600  0.846600  0.554000  1
  C  C1935  1  0.597600  0.653400  0.946000  1
  C  C1936  1  0.597600  0.846600  0.054000  1
  C  C1937  1  0.891100  0.309000  0.564500  1
  C  C1938  1  0.891100  0.191000  0.435500  1
  C  C1939  1  0.391100  0.309000  0.064500  1
  C  C1940  1  0.391100  0.191000  0.935500  1
  C  C1941  1  0.108900  0.691000  0.435500  1
  C  C1942  1  0.108900  0.809000  0.564500  1
  C  C1943  1  0.608900  0.691000  0.935500  1
  C  C1944  1  0.608900  0.809000  0.064500  1
  C  C1945  1  0.928900  0.310000  0.596960  1
  C  C1946  1  0.928900  0.190000  0.403040  1
  C  C1947  1  0.428900  0.310000  0.096960  1
  C  C1948  1  0.428900  0.190000  0.903040  1
  C  C1949  1  0.071100  0.690000  0.403040  1
  C  C1950  1  0.071100  0.810000  0.596960  1
  C  C1951  1  0.571100  0.690000  0.903040  1
  C  C1952  1  0.571100  0.810000  0.096960  1
  C  C1953  1  0.932600  0.276720  0.614910  1
  C  C1954  1  0.932600  0.223280  0.385090  1
  C  C1955  1  0.432600  0.276720  0.114910  1
  C  C1956  1  0.432600  0.223280  0.885090  1
  C  C1957  1  0.067400  0.723280  0.385090  1
  C  C1958  1  0.067400  0.776720  0.614910  1
  C  C1959  1  0.567400  0.723280  0.885090  1
  C  C1960  1  0.567400  0.776720  0.114910  1
  C  C1961  1  0.891900  0.238700  0.600980  1
  C  C1962  1  0.891900  0.261300  0.399020  1
  C  C1963  1  0.391900  0.238700  0.100980  1
  C  C1964  1  0.391900  0.261300  0.899020  1
  C  C1965  1  0.108100  0.761300  0.399020  1
  C  C1966  1  0.108100  0.738700  0.600980  1
  C  C1967  1  0.608100  0.761300  0.899020  1
  C  C1968  1  0.608100  0.738700  0.100980  1
  C  C1969  1  0.904500  0.198400  0.568910  1
  C  C1970  1  0.904500  0.301600  0.431090  1
  C  C1971  1  0.404500  0.198400  0.068910  1
  C  C1972  1  0.404500  0.301600  0.931090  1
  C  C1973  1  0.095500  0.801600  0.431090  1
  C  C1974  1  0.095500  0.698400  0.568910  1
  C  C1975  1  0.595500  0.801600  0.931090  1
  C  C1976  1  0.595500  0.698400  0.068910  1
  C  C1977  1  0.866600  0.163100  0.556100  1
  C  C1978  1  0.866600  0.336900  0.443900  1
  C  C1979  1  0.366600  0.163100  0.056100  1
  C  C1980  1  0.366600  0.336900  0.943900  1
  C  C1981  1  0.133400  0.836900  0.443900  1
  C  C1982  1  0.133400  0.663100  0.556100  1
  C  C1983  1  0.633400  0.836900  0.943900  1
  C  C1984  1  0.633400  0.663100  0.056100  1
  C  C1985  1  0.816600  0.167200  0.573600  1
  C  C1986  1  0.816600  0.332800  0.426400  1
  C  C1987  1  0.316600  0.167200  0.073600  1
  C  C1988  1  0.316600  0.332800  0.926400  1
  C  C1989  1  0.183400  0.832800  0.426400  1
  C  C1990  1  0.183400  0.667200  0.573600  1
  C  C1991  1  0.683400  0.832800  0.926400  1
  C  C1992  1  0.683400  0.667200  0.073600  1
  C  C1993  1  0.804700  0.207300  0.606200  1
  C  C1994  1  0.804700  0.292700  0.393800  1
  C  C1995  1  0.304700  0.207300  0.106200  1
  C  C1996  1  0.304700  0.292700  0.893800  1
  C  C1997  1  0.195300  0.792700  0.393800  1
  C  C1998  1  0.195300  0.707300  0.606200  1
  C  C1999  1  0.695300  0.792700  0.893800  1
  C  C2000  1  0.695300  0.707300  0.106200  1
  C  C2001  1  0.841400  0.243000  0.620400  1
  C  C2002  1  0.841400  0.257000  0.379600  1
  C  C2003  1  0.341400  0.243000  0.120400  1
  C  C2004  1  0.341400  0.257000  0.879600  1
  C  C2005  1  0.158600  0.757000  0.379600  1
  C  C2006  1  0.158600  0.743000  0.620400  1
  C  C2007  1  0.658600  0.757000  0.879600  1
  C  C2008  1  0.658600  0.743000  0.120400  1
  C  C2009  1  0.958900  0.193900  0.548200  1
  C  C2010  1  0.958900  0.306100  0.451800  1
  C  C2011  1  0.458900  0.193900  0.048200  1
  C  C2012  1  0.458900  0.306100  0.951800  1
  C  C2013  1  0.041100  0.806100  0.451800  1
  C  C2014  1  0.041100  0.693900  0.548200  1
  C  C2015  1  0.541100  0.806100  0.951800  1
  C  C2016  1  0.541100  0.693900  0.048200  1
  C  C2017  1  0.776700  0.129100  0.558000  1
  C  C2018  1  0.776700  0.370900  0.442000  1
  C  C2019  1  0.276700  0.129100  0.058000  1
  C  C2020  1  0.276700  0.370900  0.942000  1
  C  C2021  1  0.223300  0.870900  0.442000  1
  C  C2022  1  0.223300  0.629100  0.558000  1
  C  C2023  1  0.723300  0.870900  0.942000  1
  C  C2024  1  0.723300  0.629100  0.058000  1
  C  C2025  1  0.826100  0.286400  0.656000  1
  C  C2026  1  0.826100  0.213600  0.344000  1
  C  C2027  1  0.326100  0.286400  0.156000  1
  C  C2028  1  0.326100  0.213600  0.844000  1
  C  C2029  1  0.173900  0.713600  0.344000  1
  C  C2030  1  0.173900  0.786400  0.656000  1
  C  C2031  1  0.673900  0.713600  0.844000  1
  C  C2032  1  0.673900  0.786400  0.156000  1
  C  C2033  1  0.971500  0.274990  0.644040  1
  C  C2034  1  0.971500  0.225010  0.355960  1
  C  C2035  1  0.471500  0.274990  0.144040  1
  C  C2036  1  0.471500  0.225010  0.855960  1
  C  C2037  1  0.028500  0.725010  0.355960  1
  C  C2038  1  0.028500  0.774990  0.644040  1
  C  C2039  1  0.528500  0.725010  0.855960  1
  C  C2040  1  0.528500  0.774990  0.144040  1
  C  C2041  1  0.977400  0.239640  0.660390  1
  C  C2042  1  0.977400  0.260360  0.339610  1
  C  C2043  1  0.477400  0.239640  0.160390  1
  C  C2044  1  0.477400  0.260360  0.839610  1
  C  C2045  1  0.022600  0.760360  0.339610  1
  C  C2046  1  0.022600  0.739640  0.660390  1
  C  C2047  1  0.522600  0.760360  0.839610  1
  C  C2048  1  0.522600  0.739640  0.160390  1
  C  C2049  1  0.020000  0.250100  0.686870  1
  C  C2050  1  0.020000  0.249900  0.313130  1
  C  C2051  1  0.520000  0.250100  0.186870  1
  C  C2052  1  0.520000  0.249900  0.813130  1
  C  C2053  1  0.980000  0.749900  0.313130  1
  C  C2054  1  0.980000  0.750100  0.686870  1
  C  C2055  1  0.480000  0.749900  0.813130  1
  C  C2056  1  0.480000  0.750100  0.186870  1
  C  C2057  1  0.040100  0.293660  0.688270  1
  C  C2058  1  0.040100  0.206340  0.311730  1
  C  C2059  1  0.540100  0.293660  0.188270  1
  C  C2060  1  0.540100  0.206340  0.811730  1
  C  C2061  1  0.959900  0.706340  0.311730  1
  C  C2062  1  0.959900  0.793660  0.688270  1
  C  C2063  1  0.459900  0.706340  0.811730  1
  C  C2064  1  0.459900  0.793660  0.188270  1
  C  C2065  1  0.081400  0.318200  0.714110  1
  C  C2066  1  0.081400  0.181800  0.285890  1
  C  C2067  1  0.581400  0.318200  0.214110  1
  C  C2068  1  0.581400  0.181800  0.785890  1
  C  C2069  1  0.918600  0.681800  0.285890  1
  C  C2070  1  0.918600  0.818200  0.714110  1
  C  C2071  1  0.418600  0.681800  0.785890  1
  C  C2072  1  0.418600  0.818200  0.214110  1
  C  C2073  1  0.108100  0.297560  0.742290  1
  C  C2074  1  0.108100  0.202440  0.257710  1
  C  C2075  1  0.608100  0.297560  0.242290  1
  C  C2076  1  0.608100  0.202440  0.757710  1
  C  C2077  1  0.891900  0.702440  0.257710  1
  C  C2078  1  0.891900  0.797560  0.742290  1
  C  C2079  1  0.391900  0.702440  0.757710  1
  C  C2080  1  0.391900  0.797560  0.242290  1
  C  C2081  1  0.083300  0.297000  0.778320  1
  C  C2082  1  0.083300  0.203000  0.221680  1
  C  C2083  1  0.583300  0.297000  0.278320  1
  C  C2084  1  0.583300  0.203000  0.721680  1
  C  C2085  1  0.916700  0.703000  0.221680  1
  C  C2086  1  0.916700  0.797000  0.778320  1
  C  C2087  1  0.416700  0.703000  0.721680  1
  C  C2088  1  0.416700  0.797000  0.278320  1
  C  C2089  1  0.109900  0.278100  0.803830  1
  C  C2090  1  0.109900  0.221900  0.196170  1
  C  C2091  1  0.609900  0.278100  0.303830  1
  C  C2092  1  0.609900  0.221900  0.696170  1
  C  C2093  1  0.890100  0.721900  0.196170  1
  C  C2094  1  0.890100  0.778100  0.803830  1
  C  C2095  1  0.390100  0.721900  0.696170  1
  C  C2096  1  0.390100  0.778100  0.303830  1
  C  C2097  1  0.161300  0.259400  0.794100  1
  C  C2098  1  0.161300  0.240600  0.205900  1
  C  C2099  1  0.661300  0.259400  0.294100  1
  C  C2100  1  0.661300  0.240600  0.705900  1
  C  C2101  1  0.838700  0.740600  0.205900  1
  C  C2102  1  0.838700  0.759400  0.794100  1
  C  C2103  1  0.338700  0.740600  0.705900  1
  C  C2104  1  0.338700  0.759400  0.294100  1
  C  C2105  1  0.186300  0.259300  0.757500  1
  C  C2106  1  0.186300  0.240700  0.242500  1
  C  C2107  1  0.686300  0.259300  0.257500  1
  C  C2108  1  0.686300  0.240700  0.742500  1
  C  C2109  1  0.813700  0.740700  0.242500  1
  C  C2110  1  0.813700  0.759300  0.757500  1
  C  C2111  1  0.313700  0.740700  0.742500  1
  C  C2112  1  0.313700  0.759300  0.257500  1
  C  C2113  1  0.159800  0.278790  0.732160  1
  C  C2114  1  0.159800  0.221210  0.267840  1
  C  C2115  1  0.659800  0.278790  0.232160  1
  C  C2116  1  0.659800  0.221210  0.767840  1
  C  C2117  1  0.840200  0.721210  0.267840  1
  C  C2118  1  0.840200  0.778790  0.732160  1
  C  C2119  1  0.340200  0.721210  0.767840  1
  C  C2120  1  0.340200  0.778790  0.232160  1
  C  C2121  1  0.097600  0.362170  0.717340  1
  C  C2122  1  0.097600  0.137830  0.282660  1
  C  C2123  1  0.597600  0.362170  0.217340  1
  C  C2124  1  0.597600  0.137830  0.782660  1
  C  C2125  1  0.902400  0.637830  0.282660  1
  C  C2126  1  0.902400  0.862170  0.717340  1
  C  C2127  1  0.402400  0.637830  0.782660  1
  C  C2128  1  0.402400  0.862170  0.217340  1
  C  C2129  1  0.133700  0.391110  0.749110  1
  C  C2130  1  0.133700  0.108890  0.250890  1
  C  C2131  1  0.633700  0.391110  0.249110  1
  C  C2132  1  0.633700  0.108890  0.750890  1
  C  C2133  1  0.866300  0.608890  0.250890  1
  C  C2134  1  0.866300  0.891110  0.749110  1
  C  C2135  1  0.366300  0.608890  0.750890  1
  C  C2136  1  0.366300  0.891110  0.249110  1
  C  C2137  1  0.138100  0.430210  0.742140  1
  C  C2138  1  0.138100  0.069790  0.257860  1
  C  C2139  1  0.638100  0.430210  0.242140  1
  C  C2140  1  0.638100  0.069790  0.757860  1
  C  C2141  1  0.861900  0.569790  0.257860  1
  C  C2142  1  0.861900  0.930210  0.742140  1
  C  C2143  1  0.361900  0.569790  0.757860  1
  C  C2144  1  0.361900  0.930210  0.242140  1
  C  C2145  1  0.106500  0.426740  0.706360  1
  C  C2146  1  0.106500  0.073260  0.293640  1
  C  C2147  1  0.606500  0.426740  0.206360  1
  C  C2148  1  0.606500  0.073260  0.793640  1
  C  C2149  1  0.893500  0.573260  0.293640  1
  C  C2150  1  0.893500  0.926740  0.706360  1
  C  C2151  1  0.393500  0.573260  0.793640  1
  C  C2152  1  0.393500  0.926740  0.206360  1
  C  C2153  1  0.103600  0.459980  0.687820  1
  C  C2154  1  0.103600  0.040020  0.312180  1
  C  C2155  1  0.603600  0.459980  0.187820  1
  C  C2156  1  0.603600  0.040020  0.812180  1
  C  C2157  1  0.896400  0.540020  0.312180  1
  C  C2158  1  0.896400  0.959980  0.687820  1
  C  C2159  1  0.396400  0.540020  0.812180  1
  C  C2160  1  0.396400  0.959980  0.187820  1
  C  C2161  1  0.134900  0.503340  0.708310  1
  C  C2162  1  0.134900  0.996660  0.291690  1
  C  C2163  1  0.634900  0.503340  0.208310  1
  C  C2164  1  0.634900  0.996660  0.791690  1
  C  C2165  1  0.865100  0.496660  0.291690  1
  C  C2166  1  0.865100  0.003340  0.708310  1
  C  C2167  1  0.365100  0.496660  0.791690  1
  C  C2168  1  0.365100  0.003340  0.208310  1
  C  C2169  1  0.107000  0.542100  0.732410  1
  C  C2170  1  0.107000  0.957900  0.267590  1
  C  C2171  1  0.607000  0.542100  0.232410  1
  C  C2172  1  0.607000  0.957900  0.767590  1
  C  C2173  1  0.893000  0.457900  0.267590  1
  C  C2174  1  0.893000  0.042100  0.732410  1
  C  C2175  1  0.393000  0.457900  0.767590  1
  C  C2176  1  0.393000  0.042100  0.232410  1
  C  C2177  1  0.134800  0.582100  0.752460  1
  C  C2178  1  0.134800  0.917900  0.247540  1
  C  C2179  1  0.634800  0.582100  0.252460  1
  C  C2180  1  0.634800  0.917900  0.747540  1
  C  C2181  1  0.865200  0.417900  0.247540  1
  C  C2182  1  0.865200  0.082100  0.752460  1
  C  C2183  1  0.365200  0.417900  0.747540  1
  C  C2184  1  0.365200  0.082100  0.252460  1
  C  C2185  1  0.190400  0.584830  0.749120  1
  C  C2186  1  0.190400  0.915170  0.250880  1
  C  C2187  1  0.690400  0.584830  0.249120  1
  C  C2188  1  0.690400  0.915170  0.750880  1
  C  C2189  1  0.809600  0.415170  0.250880  1
  C  C2190  1  0.809600  0.084830  0.749120  1
  C  C2191  1  0.309600  0.415170  0.750880  1
  C  C2192  1  0.309600  0.084830  0.249120  1
  C  C2193  1  0.217400  0.546320  0.723840  1
  C  C2194  1  0.217400  0.953680  0.276160  1
  C  C2195  1  0.717400  0.546320  0.223840  1
  C  C2196  1  0.717400  0.953680  0.776160  1
  C  C2197  1  0.782600  0.453680  0.276160  1
  C  C2198  1  0.782600  0.046320  0.723840  1
  C  C2199  1  0.282600  0.453680  0.776160  1
  C  C2200  1  0.282600  0.046320  0.223840  1
  C  C2201  1  0.190500  0.505450  0.703720  1
  C  C2202  1  0.190500  0.994550  0.296280  1
  C  C2203  1  0.690500  0.505450  0.203720  1
  C  C2204  1  0.690500  0.994550  0.796280  1
  C  C2205  1  0.809500  0.494550  0.296280  1
  C  C2206  1  0.809500  0.005450  0.703720  1
  C  C2207  1  0.309500  0.494550  0.796280  1
  C  C2208  1  0.309500  0.005450  0.203720  1
  C  C2209  1  0.045900  0.541000  0.737000  1
  C  C2210  1  0.045900  0.959000  0.263000  1
  C  C2211  1  0.545900  0.541000  0.237000  1
  C  C2212  1  0.545900  0.959000  0.763000  1
  C  C2213  1  0.954100  0.459000  0.263000  1
  C  C2214  1  0.954100  0.041000  0.737000  1
  C  C2215  1  0.454100  0.459000  0.763000  1
  C  C2216  1  0.454100  0.041000  0.237000  1
  C  C2217  1  0.220900  0.628200  0.771900  1
  C  C2218  1  0.220900  0.871800  0.228100  1
  C  C2219  1  0.720900  0.628200  0.271900  1
  C  C2220  1  0.720900  0.871800  0.728100  1
  C  C2221  1  0.779100  0.371800  0.228100  1
  C  C2222  1  0.779100  0.128200  0.771900  1
  C  C2223  1  0.279100  0.371800  0.728100  1
  C  C2224  1  0.279100  0.128200  0.271900  1
  C  C2225  1  0.223400  0.464500  0.677100  1
  C  C2226  1  0.223400  0.035500  0.322900  1
  C  C2227  1  0.723400  0.464500  0.177100  1
  C  C2228  1  0.723400  0.035500  0.822900  1
  C  C2229  1  0.776600  0.535500  0.322900  1
  C  C2230  1  0.776600  0.964500  0.677100  1
  C  C2231  1  0.276600  0.535500  0.822900  1
  C  C2232  1  0.276600  0.964500  0.177100  1
  C  C2233  1  0.072900  0.456450  0.652330  1
  C  C2234  1  0.072900  0.043550  0.347670  1
  C  C2235  1  0.572900  0.456450  0.152330  1
  C  C2236  1  0.572900  0.043550  0.847670  1
  C  C2237  1  0.927100  0.543550  0.347670  1
  C  C2238  1  0.927100  0.956450  0.652330  1
  C  C2239  1  0.427100  0.543550  0.847670  1
  C  C2240  1  0.427100  0.956450  0.152330  1
  C  C2241  1  0.071800  0.490150  0.632550  1
  C  C2242  1  0.071800  0.009850  0.367450  1
  C  C2243  1  0.571800  0.490150  0.132550  1
  C  C2244  1  0.571800  0.009850  0.867450  1
  C  C2245  1  0.928200  0.509850  0.367450  1
  C  C2246  1  0.928200  0.990150  0.632550  1
  C  C2247  1  0.428200  0.509850  0.867450  1
  C  C2248  1  0.428200  0.990150  0.132550  1
  C  C2249  1  0.034900  0.475750  0.601810  1
  C  C2250  1  0.034900  0.024250  0.398190  1
  C  C2251  1  0.534900  0.475750  0.101810  1
  C  C2252  1  0.534900  0.024250  0.898190  1
  C  C2253  1  0.965100  0.524250  0.398190  1
  C  C2254  1  0.965100  0.975750  0.601810  1
  C  C2255  1  0.465100  0.524250  0.898190  1
  C  C2256  1  0.465100  0.975750  0.101810  1
  C  C2257  1  0.012200  0.433850  0.602520  1
  C  C2258  1  0.012200  0.066150  0.397480  1
  C  C2259  1  0.512200  0.433850  0.102520  1
  C  C2260  1  0.512200  0.066150  0.897480  1
  C  C2261  1  0.987800  0.566150  0.397480  1
  C  C2262  1  0.987800  0.933850  0.602520  1
  C  C2263  1  0.487800  0.566150  0.897480  1
  C  C2264  1  0.487800  0.933850  0.102520  1
  C  C2265  1  0.969700  0.409860  0.576910  1
  C  C2266  1  0.969700  0.090140  0.423090  1
  C  C2267  1  0.469700  0.409860  0.076910  1
  C  C2268  1  0.469700  0.090140  0.923090  1
  C  C2269  1  0.030300  0.590140  0.423090  1
  C  C2270  1  0.030300  0.909860  0.576910  1
  C  C2271  1  0.530300  0.590140  0.923090  1
  C  C2272  1  0.530300  0.909860  0.076910  1
  C  C2273  1  0.947000  0.429800  0.546420  1
  C  C2274  1  0.947000  0.070200  0.453580  1
  C  C2275  1  0.447000  0.429800  0.046420  1
  C  C2276  1  0.447000  0.070200  0.953580  1
  C  C2277  1  0.053000  0.570200  0.453580  1
  C  C2278  1  0.053000  0.929800  0.546420  1
  C  C2279  1  0.553000  0.570200  0.953580  1
  C  C2280  1  0.553000  0.929800  0.046420  1
  C  C2281  1  0.976100  0.429150  0.511740  1
  C  C2282  1  0.976100  0.070850  0.488260  1
  C  C2283  1  0.476100  0.429150  0.011740  1
  C  C2284  1  0.476100  0.070850  0.988260  1
  C  C2285  1  0.023900  0.570850  0.488260  1
  C  C2286  1  0.023900  0.929150  0.511740  1
  C  C2287  1  0.523900  0.570850  0.988260  1
  C  C2288  1  0.523900  0.929150  0.011740  1
  C  C2289  1  0.954900  0.447200  0.483560  1
  C  C2290  1  0.954900  0.052800  0.516440  1
  C  C2291  1  0.454900  0.447200  0.983560  1
  C  C2292  1  0.454900  0.052800  0.016440  1
  C  C2293  1  0.045100  0.552800  0.516440  1
  C  C2294  1  0.045100  0.947200  0.483560  1
  C  C2295  1  0.545100  0.552800  0.016440  1
  C  C2296  1  0.545100  0.947200  0.983560  1
  C  C2297  1  0.905100  0.468800  0.491700  1
  C  C2298  1  0.905100  0.031200  0.508300  1
  C  C2299  1  0.405100  0.468800  0.991700  1
  C  C2300  1  0.405100  0.031200  0.008300  1
  C  C2301  1  0.094900  0.531200  0.508300  1
  C  C2302  1  0.094900  0.968800  0.491700  1
  C  C2303  1  0.594900  0.531200  0.008300  1
  C  C2304  1  0.594900  0.968800  0.991700  1
  C  C2305  1  0.875800  0.470400  0.525800  1
  C  C2306  1  0.875800  0.029600  0.474200  1
  C  C2307  1  0.375800  0.470400  0.025800  1
  C  C2308  1  0.375800  0.029600  0.974200  1
  C  C2309  1  0.124200  0.529600  0.474200  1
  C  C2310  1  0.124200  0.970400  0.525800  1
  C  C2311  1  0.624200  0.529600  0.974200  1
  C  C2312  1  0.624200  0.970400  0.025800  1
  C  C2313  1  0.896950  0.451250  0.553990  1
  C  C2314  1  0.896950  0.048750  0.446010  1
  C  C2315  1  0.396950  0.451250  0.053990  1
  C  C2316  1  0.396950  0.048750  0.946010  1
  C  C2317  1  0.103050  0.548750  0.446010  1
  C  C2318  1  0.103050  0.951250  0.553990  1
  C  C2319  1  0.603050  0.548750  0.946010  1
  C  C2320  1  0.603050  0.951250  0.053990  1
  C  C2321  1  0.469600  0.302000  0.726900  1
  C  C2322  1  0.469600  0.198000  0.273100  1
  C  C2323  1  0.969600  0.302000  0.226900  1
  C  C2324  1  0.969600  0.198000  0.773100  1
  C  C2325  1  0.530400  0.698000  0.273100  1
  C  C2326  1  0.530400  0.802000  0.726900  1
  C  C2327  1  0.030400  0.698000  0.773100  1
  C  C2328  1  0.030400  0.802000  0.226900  1
  C  C2329  1  0.427700  0.279700  0.742420  1
  C  C2330  1  0.427700  0.220300  0.257580  1
  C  C2331  1  0.927700  0.279700  0.242420  1
  C  C2332  1  0.927700  0.220300  0.757580  1
  C  C2333  1  0.572300  0.720300  0.257580  1
  C  C2334  1  0.572300  0.779700  0.742420  1
  C  C2335  1  0.072300  0.720300  0.757580  1
  C  C2336  1  0.072300  0.779700  0.242420  1
  C  C2337  1  0.388780  0.249900  0.709630  1
  C  C2338  1  0.388780  0.250100  0.290370  1
  C  C2339  1  0.888780  0.249900  0.209630  1
  C  C2340  1  0.888780  0.250100  0.790370  1
  C  C2341  1  0.611220  0.750100  0.290370  1
  C  C2342  1  0.611220  0.749900  0.709630  1
  C  C2343  1  0.111220  0.750100  0.790370  1
  C  C2344  1  0.111220  0.749900  0.209630  1
  C  C2345  1  0.352890  0.222550  0.725890  1
  C  C2346  1  0.352890  0.277450  0.274110  1
  C  C2347  1  0.852890  0.222550  0.225890  1
  C  C2348  1  0.852890  0.277450  0.774110  1
  C  C2349  1  0.647110  0.777450  0.274110  1
  C  C2350  1  0.647110  0.722550  0.725890  1
  C  C2351  1  0.147110  0.777450  0.774110  1
  C  C2352  1  0.147110  0.722550  0.225890  1
  C  C2353  1  0.304880  0.200840  0.701100  1
  C  C2354  1  0.304880  0.299160  0.298900  1
  C  C2355  1  0.804880  0.200840  0.201100  1
  C  C2356  1  0.804880  0.299160  0.798900  1
  C  C2357  1  0.695120  0.799160  0.298900  1
  C  C2358  1  0.695120  0.700840  0.701100  1
  C  C2359  1  0.195120  0.799160  0.798900  1
  C  C2360  1  0.195120  0.700840  0.201100  1
  C  C2361  1  0.255800  0.231500  0.707900  1
  C  C2362  1  0.255800  0.268500  0.292100  1
  C  C2363  1  0.755800  0.231500  0.207900  1
  C  C2364  1  0.755800  0.268500  0.792100  1
  C  C2365  1  0.744200  0.768500  0.292100  1
  C  C2366  1  0.744200  0.731500  0.707900  1
  C  C2367  1  0.244200  0.768500  0.792100  1
  C  C2368  1  0.244200  0.731500  0.207900  1
  C  C2369  1  0.728800  0.406100  0.695800  1
  C  C2370  1  0.728800  0.093900  0.304200  1
  C  C2371  1  0.228800  0.406100  0.195800  1
  C  C2372  1  0.228800  0.093900  0.804200  1
  C  C2373  1  0.271200  0.593900  0.304200  1
  C  C2374  1  0.271200  0.906100  0.695800  1
  C  C2375  1  0.771200  0.593900  0.804200  1
  C  C2376  1  0.771200  0.906100  0.195800  1
  C  C2377  1  0.735700  0.457500  0.725500  1
  C  C2378  1  0.735700  0.042500  0.274500  1
  C  C2379  1  0.235700  0.457500  0.225500  1
  C  C2380  1  0.235700  0.042500  0.774500  1
  C  C2381  1  0.264300  0.542500  0.274500  1
  C  C2382  1  0.264300  0.957500  0.725500  1
  C  C2383  1  0.764300  0.542500  0.774500  1
  C  C2384  1  0.764300  0.957500  0.225500  1
  C  C2385  1  0.791400  0.467700  0.736700  1
  C  C2386  1  0.791400  0.032300  0.263300  1
  C  C2387  1  0.291400  0.467700  0.236700  1
  C  C2388  1  0.291400  0.032300  0.763300  1
  C  C2389  1  0.208600  0.532300  0.263300  1
  C  C2390  1  0.208600  0.967700  0.736700  1
  C  C2391  1  0.708600  0.532300  0.763300  1
  C  C2392  1  0.708600  0.967700  0.236700  1
  C  C2393  1  0.801200  0.514300  0.763700  1
  C  C2394  1  0.801200  0.985700  0.236300  1
  C  C2395  1  0.301200  0.514300  0.263700  1
  C  C2396  1  0.301200  0.985700  0.736300  1
  C  C2397  1  0.198800  0.485700  0.236300  1
  C  C2398  1  0.198800  0.014300  0.763700  1
  C  C2399  1  0.698800  0.485700  0.736300  1
  C  C2400  1  0.698800  0.014300  0.263700  1
  C  C2401  1  0.681300  0.448100  0.655460  1
  C  C2402  1  0.681300  0.051900  0.344540  1
  C  C2403  1  0.181300  0.448100  0.155460  1
  C  C2404  1  0.181300  0.051900  0.844540  1
  C  C2405  1  0.318700  0.551900  0.344540  1
  C  C2406  1  0.318700  0.948100  0.655460  1
  C  C2407  1  0.818700  0.551900  0.844540  1
  C  C2408  1  0.818700  0.948100  0.155460  1
  C  C2409  1  0.715500  0.434400  0.681100  1
  C  C2410  1  0.715500  0.065600  0.318900  1
  C  C2411  1  0.215500  0.434400  0.181100  1
  C  C2412  1  0.215500  0.065600  0.818900  1
  C  C2413  1  0.284500  0.565600  0.318900  1
  C  C2414  1  0.284500  0.934400  0.681100  1
  C  C2415  1  0.784500  0.565600  0.818900  1
  C  C2416  1  0.784500  0.934400  0.181100  1
  C  C2417  1  0.757200  0.403900  0.663800  1
  C  C2418  1  0.757200  0.096100  0.336200  1
  C  C2419  1  0.257200  0.403900  0.163800  1
  C  C2420  1  0.257200  0.096100  0.836200  1
  C  C2421  1  0.242800  0.596100  0.336200  1
  C  C2422  1  0.242800  0.903900  0.663800  1
  C  C2423  1  0.742800  0.596100  0.836200  1
  C  C2424  1  0.742800  0.903900  0.163800  1
  C  C2425  1  0.764800  0.387200  0.620800  1
  C  C2426  1  0.764800  0.112800  0.379200  1
  C  C2427  1  0.264800  0.387200  0.120800  1
  C  C2428  1  0.264800  0.112800  0.879200  1
  C  C2429  1  0.235200  0.612800  0.379200  1
  C  C2430  1  0.235200  0.887200  0.620800  1
  C  C2431  1  0.735200  0.612800  0.879200  1
  C  C2432  1  0.735200  0.887200  0.120800  1
  C  C2433  1  0.730700  0.400900  0.595100  1
  C  C2434  1  0.730700  0.099100  0.404900  1
  C  C2435  1  0.230700  0.400900  0.095100  1
  C  C2436  1  0.230700  0.099100  0.904900  1
  C  C2437  1  0.269300  0.599100  0.404900  1
  C  C2438  1  0.269300  0.900900  0.595100  1
  C  C2439  1  0.769300  0.599100  0.904900  1
  C  C2440  1  0.769300  0.900900  0.095100  1
  C  C2441  1  0.688900  0.431400  0.612450  1
  C  C2442  1  0.688900  0.068600  0.387550  1
  C  C2443  1  0.188900  0.431400  0.112450  1
  C  C2444  1  0.188900  0.068600  0.887550  1
  C  C2445  1  0.311100  0.568600  0.387550  1
  C  C2446  1  0.311100  0.931400  0.612450  1
  C  C2447  1  0.811100  0.568600  0.887550  1
  C  C2448  1  0.811100  0.931400  0.112450  1
  C  C2449  1  0.700100  0.439900  0.725300  1
  C  C2450  1  0.700100  0.060100  0.274700  1
  C  C2451  1  0.200100  0.439900  0.225300  1
  C  C2452  1  0.200100  0.060100  0.774700  1
  C  C2453  1  0.299900  0.560100  0.274700  1
  C  C2454  1  0.299900  0.939900  0.725300  1
  C  C2455  1  0.799900  0.560100  0.774700  1
  C  C2456  1  0.799900  0.939900  0.225300  1
  C  C2457  1  0.746500  0.378000  0.549900  1
  C  C2458  1  0.746500  0.122000  0.450100  1
  C  C2459  1  0.246500  0.378000  0.049900  1
  C  C2460  1  0.246500  0.122000  0.950100  1
  C  C2461  1  0.253500  0.622000  0.450100  1
  C  C2462  1  0.253500  0.878000  0.549900  1
  C  C2463  1  0.753500  0.622000  0.950100  1
  C  C2464  1  0.753500  0.878000  0.049900  1
  C  C2465  1  0.186490  0.354139  0.608313  1.0
  C  C2466  1  0.186490  0.145861  0.391687  1.0
  C  C2467  1  0.686490  0.354139  0.108313  1.0
  C  C2468  1  0.686490  0.145861  0.891687  1.0
  C  C2469  1  0.813510  0.645861  0.391687  1.0
  C  C2470  1  0.813510  0.854139  0.608313  1.0
  C  C2471  1  0.313510  0.645861  0.891687  1.0
  C  C2472  1  0.313510  0.854139  0.108313  1.0
  C  C2473  1  0.239660  0.343619  0.617711  1.0
  C  C2474  1  0.239660  0.156381  0.382289  1.0
  C  C2475  1  0.739660  0.343619  0.117711  1.0
  C  C2476  1  0.739660  0.156381  0.882289  1.0
  C  C2477  1  0.760340  0.656381  0.382289  1.0
  C  C2478  1  0.760340  0.843619  0.617711  1.0
  C  C2479  1  0.260340  0.656381  0.882289  1.0
  C  C2480  1  0.260340  0.843619  0.117711  1.0
  C  C2481  1  0.281460  0.358533  0.596285  1.0
  C  C2482  1  0.281460  0.141467  0.403715  1.0
  C  C2483  1  0.781460  0.358533  0.096285  1.0
  C  C2484  1  0.781460  0.141467  0.903715  1.0
  C  C2485  1  0.718540  0.641467  0.403715  1.0
  C  C2486  1  0.718540  0.858533  0.596285  1.0
  C  C2487  1  0.218540  0.641467  0.903715  1.0
  C  C2488  1  0.218540  0.858533  0.096285  1.0
  C  C2489  1  0.250250  0.381962  0.575060  1.0
  C  C2490  1  0.250250  0.118038  0.424940  1.0
  C  C2491  1  0.750250  0.381962  0.075060  1.0
  C  C2492  1  0.750250  0.118038  0.924940  1.0
  C  C2493  1  0.749750  0.618038  0.424940  1.0
  C  C2494  1  0.749750  0.881962  0.575060  1.0
  C  C2495  1  0.249750  0.618038  0.924940  1.0
  C  C2496  1  0.249750  0.881962  0.075060  1.0
  C  C2497  1  0.191950  0.381249  0.580641  1.0
  C  C2498  1  0.191950  0.118751  0.419359  1.0
  C  C2499  1  0.691950  0.381249  0.080641  1.0
  C  C2500  1  0.691950  0.118751  0.919359  1.0
  C  C2501  1  0.808050  0.618751  0.419359  1.0
  C  C2502  1  0.808050  0.881249  0.580641  1.0
  C  C2503  1  0.308050  0.618751  0.919359  1.0
  C  C2504  1  0.308050  0.881249  0.080641  1.0
  C  C2505  1  0.154610  0.377074  0.549928  1.0
  C  C2506  1  0.154610  0.122926  0.450072  1.0
  C  C2507  1  0.654610  0.377074  0.049928  1.0
  C  C2508  1  0.654610  0.122926  0.950072  1.0
  C  C2509  1  0.845390  0.622926  0.450072  1.0
  C  C2510  1  0.845390  0.877074  0.549928  1.0
  C  C2511  1  0.345390  0.622926  0.950072  1.0
  C  C2512  1  0.345390  0.877074  0.049928  1.0
  C  C2513  1  0.105960  0.350052  0.550097  1.0
  C  C2514  1  0.105960  0.149948  0.449903  1.0
  C  C2515  1  0.605960  0.350052  0.050097  1.0
  C  C2516  1  0.605960  0.149948  0.949903  1.0
  C  C2517  1  0.894040  0.649948  0.449903  1.0
  C  C2518  1  0.894040  0.850052  0.550097  1.0
  C  C2519  1  0.394040  0.649948  0.949903  1.0
  C  C2520  1  0.394040  0.850052  0.050097  1.0
  C  C2521  1  0.099350  0.324900  0.575538  1.0
  C  C2522  1  0.099350  0.175100  0.424462  1.0
  C  C2523  1  0.599350  0.324900  0.075538  1.0
  C  C2524  1  0.599350  0.175100  0.924462  1.0
  C  C2525  1  0.900650  0.675100  0.424462  1.0
  C  C2526  1  0.900650  0.824900  0.575538  1.0
  C  C2527  1  0.400650  0.675100  0.924462  1.0
  C  C2528  1  0.400650  0.824900  0.075538  1.0
  C  C2529  1  0.140510  0.329024  0.605180  1.0
  C  C2530  1  0.140510  0.170976  0.394820  1.0
  C  C2531  1  0.640510  0.329024  0.105180  1.0
  C  C2532  1  0.640510  0.170976  0.894820  1.0
  C  C2533  1  0.859490  0.670976  0.394820  1.0
  C  C2534  1  0.859490  0.829024  0.605180  1.0
  C  C2535  1  0.359490  0.670976  0.894820  1.0
  C  C2536  1  0.359490  0.829024  0.105180  1.0
  C  C2537  1  0.148130  0.286856  0.615612  1.0
  C  C2538  1  0.148130  0.213144  0.384388  1.0
  C  C2539  1  0.648130  0.286856  0.115612  1.0
  C  C2540  1  0.648130  0.213144  0.884388  1.0
  C  C2541  1  0.851870  0.713144  0.384388  1.0
  C  C2542  1  0.851870  0.786856  0.615612  1.0
  C  C2543  1  0.351870  0.713144  0.884388  1.0
  C  C2544  1  0.351870  0.786856  0.115612  1.0
  C  C2545  1  0.202240  0.276143  0.625310  1.0
  C  C2546  1  0.202240  0.223857  0.374690  1.0
  C  C2547  1  0.702240  0.276143  0.125310  1.0
  C  C2548  1  0.702240  0.223857  0.874690  1.0
  C  C2549  1  0.797760  0.723857  0.374690  1.0
  C  C2550  1  0.797760  0.776143  0.625310  1.0
  C  C2551  1  0.297760  0.723857  0.874690  1.0
  C  C2552  1  0.297760  0.776143  0.125310  1.0
  C  C2553  1  0.248690  0.301388  0.626213  1.0
  C  C2554  1  0.248690  0.198612  0.373787  1.0
  C  C2555  1  0.748690  0.301388  0.126213  1.0
  C  C2556  1  0.748690  0.198612  0.873787  1.0
  C  C2557  1  0.751310  0.698612  0.373787  1.0
  C  C2558  1  0.751310  0.801388  0.626213  1.0
  C  C2559  1  0.251310  0.698612  0.873787  1.0
  C  C2560  1  0.251310  0.801388  0.126213  1.0
  C  C2561  1  0.297480  0.280940  0.613280  1.0
  C  C2562  1  0.297480  0.219060  0.386720  1.0
  C  C2563  1  0.797480  0.280940  0.113280  1.0
  C  C2564  1  0.797480  0.219060  0.886720  1.0
  C  C2565  1  0.702520  0.719060  0.386720  1.0
  C  C2566  1  0.702520  0.780940  0.613280  1.0
  C  C2567  1  0.202520  0.719060  0.886720  1.0
  C  C2568  1  0.202520  0.780940  0.113280  1.0
  C  C2569  1  0.337060  0.294807  0.590430  1.0
  C  C2570  1  0.337060  0.205193  0.409570  1.0
  C  C2571  1  0.837060  0.294807  0.090430  1.0
  C  C2572  1  0.837060  0.205193  0.909570  1.0
  C  C2573  1  0.662940  0.705193  0.409570  1.0
  C  C2574  1  0.662940  0.794807  0.590430  1.0
  C  C2575  1  0.162940  0.705193  0.909570  1.0
  C  C2576  1  0.162940  0.794807  0.090430  1.0
  C  C2577  1  0.328520  0.334769  0.581622  1.0
  C  C2578  1  0.328520  0.165231  0.418378  1.0
  C  C2579  1  0.828520  0.334769  0.081622  1.0
  C  C2580  1  0.828520  0.165231  0.918378  1.0
  C  C2581  1  0.671480  0.665231  0.418378  1.0
  C  C2582  1  0.671480  0.834769  0.581622  1.0
  C  C2583  1  0.171480  0.665231  0.918378  1.0
  C  C2584  1  0.171480  0.834769  0.081622  1.0
  C  C2585  1  0.347930  0.336010  0.548395  1.0
  C  C2586  1  0.347930  0.163990  0.451605  1.0
  C  C2587  1  0.847930  0.336010  0.048395  1.0
  C  C2588  1  0.847930  0.163990  0.951605  1.0
  C  C2589  1  0.652070  0.663990  0.451605  1.0
  C  C2590  1  0.652070  0.836010  0.548395  1.0
  C  C2591  1  0.152070  0.663990  0.951605  1.0
  C  C2592  1  0.152070  0.836010  0.048395  1.0
  C  C2593  1  0.315130  0.362710  0.522581  1.0
  C  C2594  1  0.315130  0.137290  0.477419  1.0
  C  C2595  1  0.815130  0.362710  0.022581  1.0
  C  C2596  1  0.815130  0.137290  0.977419  1.0
  C  C2597  1  0.684870  0.637290  0.477419  1.0
  C  C2598  1  0.684870  0.862710  0.522581  1.0
  C  C2599  1  0.184870  0.637290  0.977419  1.0
  C  C2600  1  0.184870  0.862710  0.022581  1.0
  C  C2601  1  0.267480  0.382426  0.536127  1.0
  C  C2602  1  0.267480  0.117574  0.463873  1.0
  C  C2603  1  0.767480  0.382426  0.036127  1.0
  C  C2604  1  0.767480  0.117574  0.963873  1.0
  C  C2605  1  0.732520  0.617574  0.463873  1.0
  C  C2606  1  0.732520  0.882426  0.536127  1.0
  C  C2607  1  0.232520  0.617574  0.963873  1.0
  C  C2608  1  0.232520  0.882426  0.036127  1.0
  C  C2609  1  0.226660  0.380470  0.503730  1.0
  C  C2610  1  0.226660  0.119530  0.496270  1.0
  C  C2611  1  0.726660  0.380470  0.003730  1.0
  C  C2612  1  0.726660  0.119530  0.996270  1.0
  C  C2613  1  0.773340  0.619530  0.496270  1.0
  C  C2614  1  0.773340  0.880470  0.503730  1.0
  C  C2615  1  0.273340  0.619530  0.996270  1.0
  C  C2616  1  0.273340  0.880470  0.003730  1.0
  C  C2617  1  0.171050  0.378180  0.511816  1.0
  C  C2618  1  0.171050  0.121820  0.488184  1.0
  C  C2619  1  0.671050  0.378180  0.011816  1.0
  C  C2620  1  0.671050  0.121820  0.988184  1.0
  C  C2621  1  0.828950  0.621820  0.488184  1.0
  C  C2622  1  0.828950  0.878180  0.511816  1.0
  C  C2623  1  0.328950  0.621820  0.988184  1.0
  C  C2624  1  0.328950  0.878180  0.011816  1.0
  C  C2625  1  0.147540  0.353260  0.473417  1.0
  C  C2626  1  0.147540  0.146740  0.526583  1.0
  C  C2627  1  0.647540  0.353260  0.973417  1.0
  C  C2628  1  0.647540  0.146740  0.026583  1.0
  C  C2629  1  0.852460  0.646740  0.526583  1.0
  C  C2630  1  0.852460  0.853260  0.473417  1.0
  C  C2631  1  0.352460  0.646740  0.026583  1.0
  C  C2632  1  0.352460  0.853260  0.973417  1.0
  C  C2633  1  0.189590  0.339940  0.438629  1.0
  C  C2634  1  0.189590  0.160060  0.561371  1.0
  C  C2635  1  0.689590  0.339940  0.938629  1.0
  C  C2636  1  0.689590  0.160060  0.061371  1.0
  C  C2637  1  0.810410  0.660060  0.561371  1.0
  C  C2638  1  0.810410  0.839940  0.438629  1.0
  C  C2639  1  0.310410  0.660060  0.061371  1.0
  C  C2640  1  0.310410  0.839940  0.938629  1.0
  C  C2641  1  0.240030  0.358640  0.459304  1.0
  C  C2642  1  0.240030  0.141360  0.540696  1.0
  C  C2643  1  0.740030  0.358640  0.959304  1.0
  C  C2644  1  0.740030  0.141360  0.040696  1.0
  C  C2645  1  0.759970  0.641360  0.540696  1.0
  C  C2646  1  0.759970  0.858640  0.459304  1.0
  C  C2647  1  0.259970  0.641360  0.040696  1.0
  C  C2648  1  0.259970  0.858640  0.959304  1.0
  C  C2649  1  0.286740  0.334680  0.445835  1.0
  C  C2650  1  0.286740  0.165320  0.554165  1.0
  C  C2651  1  0.786740  0.334680  0.945835  1.0
  C  C2652  1  0.786740  0.165320  0.054165  1.0
  C  C2653  1  0.713260  0.665320  0.554165  1.0
  C  C2654  1  0.713260  0.834680  0.445835  1.0
  C  C2655  1  0.213260  0.665320  0.054165  1.0
  C  C2656  1  0.213260  0.834680  0.945835  1.0
  C  C2657  1  0.326680  0.337920  0.476025  1.0
  C  C2658  1  0.326680  0.162080  0.523975  1.0
  C  C2659  1  0.826680  0.337920  0.976025  1.0
  C  C2660  1  0.826680  0.162080  0.023975  1.0
  C  C2661  1  0.673320  0.662080  0.523975  1.0
  C  C2662  1  0.673320  0.837920  0.476025  1.0
  C  C2663  1  0.173320  0.662080  0.023975  1.0
  C  C2664  1  0.173320  0.837920  0.976025  1.0
  C  C2665  1  0.363090  0.300780  0.475382  1.0
  C  C2666  1  0.363090  0.199220  0.524618  1.0
  C  C2667  1  0.863090  0.300780  0.975382  1.0
  C  C2668  1  0.863090  0.199220  0.024618  1.0
  C  C2669  1  0.636910  0.699220  0.524618  1.0
  C  C2670  1  0.636910  0.800780  0.475382  1.0
  C  C2671  1  0.136910  0.699220  0.024618  1.0
  C  C2672  1  0.136910  0.800780  0.975382  1.0
  C  C2673  1  0.375660  0.299100  0.514710  1.0
  C  C2674  1  0.375660  0.200900  0.485290  1.0
  C  C2675  1  0.875660  0.299100  0.014710  1.0
  C  C2676  1  0.875660  0.200900  0.985290  1.0
  C  C2677  1  0.624340  0.700900  0.485290  1.0
  C  C2678  1  0.624340  0.799100  0.514710  1.0
  C  C2679  1  0.124340  0.700900  0.985290  1.0
  C  C2680  1  0.124340  0.799100  0.014710  1.0
  C  C2681  1  0.382740  0.260080  0.522850  1.0
  C  C2682  1  0.382740  0.239920  0.477150  1.0
  C  C2683  1  0.882740  0.260080  0.022850  1.0
  C  C2684  1  0.882740  0.239920  0.977150  1.0
  C  C2685  1  0.617260  0.739920  0.477150  1.0
  C  C2686  1  0.617260  0.760080  0.522850  1.0
  C  C2687  1  0.117260  0.739920  0.977150  1.0
  C  C2688  1  0.117260  0.760080  0.022850  1.0
  C  C2689  1  0.364820  0.256140  0.561780  1.0
  C  C2690  1  0.364820  0.243860  0.438220  1.0
  C  C2691  1  0.864820  0.256140  0.061780  1.0
  C  C2692  1  0.864820  0.243860  0.938220  1.0
  C  C2693  1  0.635180  0.743860  0.438220  1.0
  C  C2694  1  0.635180  0.756140  0.561780  1.0
  C  C2695  1  0.135180  0.743860  0.938220  1.0
  C  C2696  1  0.135180  0.756140  0.061780  1.0
  C  C2697  1  0.299490  0.231130  0.598030  1.0
  C  C2698  1  0.299490  0.268870  0.401970  1.0
  C  C2699  1  0.799490  0.231130  0.098030  1.0
  C  C2700  1  0.799490  0.268870  0.901970  1.0
  C  C2701  1  0.700510  0.768870  0.401970  1.0
  C  C2702  1  0.700510  0.731130  0.598030  1.0
  C  C2703  1  0.200510  0.768870  0.901970  1.0
  C  C2704  1  0.200510  0.731130  0.098030  1.0
  C  C2705  1  0.342540  0.283050  0.434760  1.0
  C  C2706  1  0.342540  0.216950  0.565240  1.0
  C  C2707  1  0.842540  0.283050  0.934760  1.0
  C  C2708  1  0.842540  0.216950  0.065240  1.0
  C  C2709  1  0.657460  0.716950  0.565240  1.0
  C  C2710  1  0.657460  0.783050  0.434760  1.0
  C  C2711  1  0.157460  0.716950  0.065240  1.0
  C  C2712  1  0.157460  0.783050  0.934760  1.0
  C  C2713  1  0.103570  0.326030  0.471358  1.0
  C  C2714  1  0.103570  0.173970  0.528642  1.0
  C  C2715  1  0.603570  0.326030  0.971358  1.0
  C  C2716  1  0.603570  0.173970  0.028642  1.0
  C  C2717  1  0.896430  0.673970  0.528642  1.0
  C  C2718  1  0.896430  0.826030  0.471358  1.0
  C  C2719  1  0.396430  0.673970  0.028642  1.0
  C  C2720  1  0.396430  0.826030  0.971358  1.0
  C  C2721  1  0.081340  0.324210  0.507465  1.0
  C  C2722  1  0.081340  0.175790  0.492535  1.0
  C  C2723  1  0.581340  0.324210  0.007465  1.0
  C  C2724  1  0.581340  0.175790  0.992535  1.0
  C  C2725  1  0.918660  0.675790  0.492535  1.0
  C  C2726  1  0.918660  0.824210  0.507465  1.0
  C  C2727  1  0.418660  0.675790  0.992535  1.0
  C  C2728  1  0.418660  0.824210  0.007465  1.0
  C  C2729  1  0.058790  0.281090  0.512739  1.0
  C  C2730  1  0.058790  0.218910  0.487261  1.0
  C  C2731  1  0.558790  0.281090  0.012739  1.0
  C  C2732  1  0.558790  0.218910  0.987261  1.0
  C  C2733  1  0.941210  0.718910  0.487261  1.0
  C  C2734  1  0.941210  0.781090  0.512739  1.0
  C  C2735  1  0.441210  0.718910  0.987261  1.0
  C  C2736  1  0.441210  0.781090  0.012739  1.0
  C  C2737  1  0.070310  0.283248  0.552212  1.0
  C  C2738  1  0.070310  0.216752  0.447788  1.0
  C  C2739  1  0.570310  0.283248  0.052212  1.0
  C  C2740  1  0.570310  0.216752  0.947788  1.0
  C  C2741  1  0.929690  0.716752  0.447788  1.0
  C  C2742  1  0.929690  0.783248  0.552212  1.0
  C  C2743  1  0.429690  0.716752  0.947788  1.0
  C  C2744  1  0.429690  0.783248  0.052212  1.0
  C  C2745  1  0.080610  0.240994  0.560340  1.0
  C  C2746  1  0.080610  0.259006  0.439660  1.0
  C  C2747  1  0.580610  0.240994  0.060340  1.0
  C  C2748  1  0.580610  0.259006  0.939660  1.0
  C  C2749  1  0.919390  0.759006  0.439660  1.0
  C  C2750  1  0.919390  0.740994  0.560340  1.0
  C  C2751  1  0.419390  0.759006  0.939660  1.0
  C  C2752  1  0.419390  0.740994  0.060340  1.0
  C  C2753  1  0.119060  0.243917  0.594110  1.0
  C  C2754  1  0.119060  0.256083  0.405890  1.0
  C  C2755  1  0.619060  0.243917  0.094110  1.0
  C  C2756  1  0.619060  0.256083  0.905890  1.0
  C  C2757  1  0.880940  0.756083  0.405890  1.0
  C  C2758  1  0.880940  0.743917  0.594110  1.0
  C  C2759  1  0.380940  0.756083  0.905890  1.0
  C  C2760  1  0.380940  0.743917  0.094110  1.0
  C  C2761  1  0.155460  0.293070  0.410530  1.0
  C  C2762  1  0.155460  0.206930  0.589470  1.0
  C  C2763  1  0.655460  0.293070  0.910530  1.0
  C  C2764  1  0.655460  0.206930  0.089470  1.0
  C  C2765  1  0.844540  0.706930  0.589470  1.0
  C  C2766  1  0.844540  0.793070  0.410530  1.0
  C  C2767  1  0.344540  0.706930  0.089470  1.0
  C  C2768  1  0.344540  0.793070  0.910530  1.0
  C  C2769  1  0.206110  0.226687  0.608920  1.0
  C  C2770  1  0.206110  0.273313  0.391080  1.0
  C  C2771  1  0.706110  0.226687  0.108920  1.0
  C  C2772  1  0.706110  0.273313  0.891080  1.0
  C  C2773  1  0.793890  0.773313  0.391080  1.0
  C  C2774  1  0.793890  0.726687  0.608920  1.0
  C  C2775  1  0.293890  0.773313  0.891080  1.0
  C  C2776  1  0.293890  0.726687  0.108920  1.0
  C  C2777  1  0.187370  0.295820  0.404951  1.0
  C  C2778  1  0.187370  0.204180  0.595049  1.0
  C  C2779  1  0.687370  0.295820  0.904951  1.0
  C  C2780  1  0.687370  0.204180  0.095049  1.0
  C  C2781  1  0.812630  0.704180  0.595049  1.0
  C  C2782  1  0.812630  0.795820  0.404951  1.0
  C  C2783  1  0.312630  0.704180  0.095049  1.0
  C  C2784  1  0.312630  0.795820  0.904951  1.0
  C  C2785  1  0.254500  0.354450  0.608090  1.0
  C  C2786  1  0.254500  0.145550  0.391910  1.0
  C  C2787  1  0.754500  0.354450  0.108090  1.0
  C  C2788  1  0.754500  0.145550  0.891910  1.0
  C  C2789  1  0.745500  0.645550  0.391910  1.0
  C  C2790  1  0.745500  0.854450  0.608090  1.0
  C  C2791  1  0.245500  0.645550  0.891910  1.0
  C  C2792  1  0.245500  0.854450  0.108090  1.0
  C  C2793  1  0.201340  0.343930  0.617490  1.0
  C  C2794  1  0.201340  0.156070  0.382510  1.0
  C  C2795  1  0.701340  0.343930  0.117490  1.0
  C  C2796  1  0.701340  0.156070  0.882510  1.0
  C  C2797  1  0.798660  0.656070  0.382510  1.0
  C  C2798  1  0.798660  0.843930  0.617490  1.0
  C  C2799  1  0.298660  0.656070  0.882510  1.0
  C  C2800  1  0.298660  0.843930  0.117490  1.0
  C  C2801  1  0.159520  0.358840  0.596060  1.0
  C  C2802  1  0.159520  0.141160  0.403940  1.0
  C  C2803  1  0.659520  0.358840  0.096060  1.0
  C  C2804  1  0.659520  0.141160  0.903940  1.0
  C  C2805  1  0.840480  0.641160  0.403940  1.0
  C  C2806  1  0.840480  0.858840  0.596060  1.0
  C  C2807  1  0.340480  0.641160  0.903940  1.0
  C  C2808  1  0.340480  0.858840  0.096060  1.0
  C  C2809  1  0.190740  0.382270  0.574830  1.0
  C  C2810  1  0.190740  0.117730  0.425170  1.0
  C  C2811  1  0.690740  0.382270  0.074830  1.0
  C  C2812  1  0.690740  0.117730  0.925170  1.0
  C  C2813  1  0.809260  0.617730  0.425170  1.0
  C  C2814  1  0.809260  0.882270  0.574830  1.0
  C  C2815  1  0.309260  0.617730  0.925170  1.0
  C  C2816  1  0.309260  0.882270  0.074830  1.0
  C  C2817  1  0.249030  0.381560  0.580410  1.0
  C  C2818  1  0.249030  0.118440  0.419590  1.0
  C  C2819  1  0.749030  0.381560  0.080410  1.0
  C  C2820  1  0.749030  0.118440  0.919590  1.0
  C  C2821  1  0.750970  0.618440  0.419590  1.0
  C  C2822  1  0.750970  0.881560  0.580410  1.0
  C  C2823  1  0.250970  0.618440  0.919590  1.0
  C  C2824  1  0.250970  0.881560  0.080410  1.0
  C  C2825  1  0.286380  0.377380  0.549710  1.0
  C  C2826  1  0.286380  0.122620  0.450290  1.0
  C  C2827  1  0.786380  0.377380  0.049710  1.0
  C  C2828  1  0.786380  0.122620  0.950290  1.0
  C  C2829  1  0.713620  0.622620  0.450290  1.0
  C  C2830  1  0.713620  0.877380  0.549710  1.0
  C  C2831  1  0.213620  0.622620  0.950290  1.0
  C  C2832  1  0.213620  0.877380  0.049710  1.0
  C  C2833  1  0.335030  0.350360  0.549870  1.0
  C  C2834  1  0.335030  0.149640  0.450130  1.0
  C  C2835  1  0.835030  0.350360  0.049870  1.0
  C  C2836  1  0.835030  0.149640  0.950130  1.0
  C  C2837  1  0.664970  0.649640  0.450130  1.0
  C  C2838  1  0.664970  0.850360  0.549870  1.0
  C  C2839  1  0.164970  0.649640  0.950130  1.0
  C  C2840  1  0.164970  0.850360  0.049870  1.0
  C  C2841  1  0.341640  0.325200  0.575310  1.0
  C  C2842  1  0.341640  0.174800  0.424690  1.0
  C  C2843  1  0.841640  0.325200  0.075310  1.0
  C  C2844  1  0.841640  0.174800  0.924690  1.0
  C  C2845  1  0.658360  0.674800  0.424690  1.0
  C  C2846  1  0.658360  0.825200  0.575310  1.0
  C  C2847  1  0.158360  0.674800  0.924690  1.0
  C  C2848  1  0.158360  0.825200  0.075310  1.0
  C  C2849  1  0.300470  0.329330  0.604950  1.0
  C  C2850  1  0.300470  0.170670  0.395050  1.0
  C  C2851  1  0.800470  0.329330  0.104950  1.0
  C  C2852  1  0.800470  0.170670  0.895050  1.0
  C  C2853  1  0.699530  0.670670  0.395050  1.0
  C  C2854  1  0.699530  0.829330  0.604950  1.0
  C  C2855  1  0.199530  0.670670  0.895050  1.0
  C  C2856  1  0.199530  0.829330  0.104950  1.0
  C  C2857  1  0.292870  0.287160  0.615390  1.0
  C  C2858  1  0.292870  0.212840  0.384610  1.0
  C  C2859  1  0.792870  0.287160  0.115390  1.0
  C  C2860  1  0.792870  0.212840  0.884610  1.0
  C  C2861  1  0.707130  0.712840  0.384610  1.0
  C  C2862  1  0.707130  0.787160  0.615390  1.0
  C  C2863  1  0.207130  0.712840  0.884610  1.0
  C  C2864  1  0.207130  0.787160  0.115390  1.0
  C  C2865  1  0.238750  0.276450  0.625080  1.0
  C  C2866  1  0.238750  0.223550  0.374920  1.0
  C  C2867  1  0.738750  0.276450  0.125080  1.0
  C  C2868  1  0.738750  0.223550  0.874920  1.0
  C  C2869  1  0.761250  0.723550  0.374920  1.0
  C  C2870  1  0.761250  0.776450  0.625080  1.0
  C  C2871  1  0.261250  0.723550  0.874920  1.0
  C  C2872  1  0.261250  0.776450  0.125080  1.0
  C  C2873  1  0.192300  0.301690  0.625990  1.0
  C  C2874  1  0.192300  0.198310  0.374010  1.0
  C  C2875  1  0.692300  0.301690  0.125990  1.0
  C  C2876  1  0.692300  0.198310  0.874010  1.0
  C  C2877  1  0.807700  0.698310  0.374010  1.0
  C  C2878  1  0.807700  0.801690  0.625990  1.0
  C  C2879  1  0.307700  0.698310  0.874010  1.0
  C  C2880  1  0.307700  0.801690  0.125990  1.0
  C  C2881  1  0.143510  0.281240  0.613050  1.0
  C  C2882  1  0.143510  0.218760  0.386950  1.0
  C  C2883  1  0.643510  0.281240  0.113050  1.0
  C  C2884  1  0.643510  0.218760  0.886950  1.0
  C  C2885  1  0.856490  0.718760  0.386950  1.0
  C  C2886  1  0.856490  0.781240  0.613050  1.0
  C  C2887  1  0.356490  0.718760  0.886950  1.0
  C  C2888  1  0.356490  0.781240  0.113050  1.0
  C  C2889  1  0.103930  0.295110  0.590210  1.0
  C  C2890  1  0.103930  0.204890  0.409790  1.0
  C  C2891  1  0.603930  0.295110  0.090210  1.0
  C  C2892  1  0.603930  0.204890  0.909790  1.0
  C  C2893  1  0.896070  0.704890  0.409790  1.0
  C  C2894  1  0.896070  0.795110  0.590210  1.0
  C  C2895  1  0.396070  0.704890  0.909790  1.0
  C  C2896  1  0.396070  0.795110  0.090210  1.0
  C  C2897  1  0.112480  0.335070  0.581390  1.0
  C  C2898  1  0.112480  0.164930  0.418610  1.0
  C  C2899  1  0.612480  0.335070  0.081390  1.0
  C  C2900  1  0.612480  0.164930  0.918610  1.0
  C  C2901  1  0.887520  0.664930  0.418610  1.0
  C  C2902  1  0.887520  0.835070  0.581390  1.0
  C  C2903  1  0.387520  0.664930  0.918610  1.0
  C  C2904  1  0.387520  0.835070  0.081390  1.0
  C  C2905  1  0.093060  0.336310  0.548170  1.0
  C  C2906  1  0.093060  0.163690  0.451830  1.0
  C  C2907  1  0.593060  0.336310  0.048170  1.0
  C  C2908  1  0.593060  0.163690  0.951830  1.0
  C  C2909  1  0.906940  0.663690  0.451830  1.0
  C  C2910  1  0.906940  0.836310  0.548170  1.0
  C  C2911  1  0.406940  0.663690  0.951830  1.0
  C  C2912  1  0.406940  0.836310  0.048170  1.0
  C  C2913  1  0.125860  0.363010  0.522360  1.0
  C  C2914  1  0.125860  0.136990  0.477640  1.0
  C  C2915  1  0.625860  0.363010  0.022360  1.0
  C  C2916  1  0.625860  0.136990  0.977640  1.0
  C  C2917  1  0.874140  0.636990  0.477640  1.0
  C  C2918  1  0.874140  0.863010  0.522360  1.0
  C  C2919  1  0.374140  0.636990  0.977640  1.0
  C  C2920  1  0.374140  0.863010  0.022360  1.0
  C  C2921  1  0.173510  0.382730  0.535900  1.0
  C  C2922  1  0.173510  0.117270  0.464100  1.0
  C  C2923  1  0.673510  0.382730  0.035900  1.0
  C  C2924  1  0.673510  0.117270  0.964100  1.0
  C  C2925  1  0.826490  0.617270  0.464100  1.0
  C  C2926  1  0.826490  0.882730  0.535900  1.0
  C  C2927  1  0.326490  0.617270  0.964100  1.0
  C  C2928  1  0.326490  0.882730  0.035900  1.0
  C  C2929  1  0.214330  0.380780  0.503510  1.0
  C  C2930  1  0.214330  0.119220  0.496490  1.0
  C  C2931  1  0.714330  0.380780  0.003510  1.0
  C  C2932  1  0.714330  0.119220  0.996490  1.0
  C  C2933  1  0.785670  0.619220  0.496490  1.0
  C  C2934  1  0.785670  0.880780  0.503510  1.0
  C  C2935  1  0.285670  0.619220  0.996490  1.0
  C  C2936  1  0.285670  0.880780  0.003510  1.0
  C  C2937  1  0.269940  0.378480  0.511590  1.0
  C  C2938  1  0.269940  0.121520  0.488410  1.0
  C  C2939  1  0.769940  0.378480  0.011590  1.0
  C  C2940  1  0.769940  0.121520  0.988410  1.0
  C  C2941  1  0.730060  0.621520  0.488410  1.0
  C  C2942  1  0.730060  0.878480  0.511590  1.0
  C  C2943  1  0.230060  0.621520  0.988410  1.0
  C  C2944  1  0.230060  0.878480  0.011590  1.0
  C  C2945  1  0.293450  0.353550  0.473200  1.0
  C  C2946  1  0.293450  0.146450  0.526800  1.0
  C  C2947  1  0.793450  0.353550  0.973200  1.0
  C  C2948  1  0.793450  0.146450  0.026800  1.0
  C  C2949  1  0.706550  0.646450  0.526800  1.0
  C  C2950  1  0.706550  0.853550  0.473200  1.0
  C  C2951  1  0.206550  0.646450  0.026800  1.0
  C  C2952  1  0.206550  0.853550  0.973200  1.0
  C  C2953  1  0.251410  0.340240  0.438410  1.0
  C  C2954  1  0.251410  0.159760  0.561590  1.0
  C  C2955  1  0.751410  0.340240  0.938410  1.0
  C  C2956  1  0.751410  0.159760  0.061590  1.0
  C  C2957  1  0.748590  0.659760  0.561590  1.0
  C  C2958  1  0.748590  0.840240  0.438410  1.0
  C  C2959  1  0.248590  0.659760  0.061590  1.0
  C  C2960  1  0.248590  0.840240  0.938410  1.0
  C  C2961  1  0.200970  0.358940  0.459080  1.0
  C  C2962  1  0.200970  0.141060  0.540920  1.0
  C  C2963  1  0.700970  0.358940  0.959080  1.0
  C  C2964  1  0.700970  0.141060  0.040920  1.0
  C  C2965  1  0.799030  0.641060  0.540920  1.0
  C  C2966  1  0.799030  0.858940  0.459080  1.0
  C  C2967  1  0.299030  0.641060  0.040920  1.0
  C  C2968  1  0.299030  0.858940  0.959080  1.0
  C  C2969  1  0.154250  0.334980  0.445610  1.0
  C  C2970  1  0.154250  0.165020  0.554390  1.0
  C  C2971  1  0.654250  0.334980  0.945610  1.0
  C  C2972  1  0.654250  0.165020  0.054390  1.0
  C  C2973  1  0.845750  0.665020  0.554390  1.0
  C  C2974  1  0.845750  0.834980  0.445610  1.0
  C  C2975  1  0.345750  0.665020  0.054390  1.0
  C  C2976  1  0.345750  0.834980  0.945610  1.0
  C  C2977  1  0.114310  0.338220  0.475800  1.0
  C  C2978  1  0.114310  0.161780  0.524200  1.0
  C  C2979  1  0.614310  0.338220  0.975800  1.0
  C  C2980  1  0.614310  0.161780  0.024200  1.0
  C  C2981  1  0.885690  0.661780  0.524200  1.0
  C  C2982  1  0.885690  0.838220  0.475800  1.0
  C  C2983  1  0.385690  0.661780  0.024200  1.0
  C  C2984  1  0.385690  0.838220  0.975800  1.0
  C  C2985  1  0.077900  0.301090  0.475160  1.0
  C  C2986  1  0.077900  0.198910  0.524840  1.0
  C  C2987  1  0.577900  0.301090  0.975160  1.0
  C  C2988  1  0.577900  0.198910  0.024840  1.0
  C  C2989  1  0.922100  0.698910  0.524840  1.0
  C  C2990  1  0.922100  0.801090  0.475160  1.0
  C  C2991  1  0.422100  0.698910  0.024840  1.0
  C  C2992  1  0.422100  0.801090  0.975160  1.0
  C  C2993  1  0.065330  0.299410  0.514490  1.0
  C  C2994  1  0.065330  0.200590  0.485510  1.0
  C  C2995  1  0.565330  0.299410  0.014490  1.0
  C  C2996  1  0.565330  0.200590  0.985510  1.0
  C  C2997  1  0.934670  0.700590  0.485510  1.0
  C  C2998  1  0.934670  0.799410  0.514490  1.0
  C  C2999  1  0.434670  0.700590  0.985510  1.0
  C  C3000  1  0.434670  0.799410  0.014490  1.0
  C  C3001  1  0.058250  0.239620  0.477370  1.0
  C  C3002  1  0.058250  0.260380  0.522630  1.0
  C  C3003  1  0.558250  0.239620  0.977370  1.0
  C  C3004  1  0.558250  0.260380  0.022630  1.0
  C  C3005  1  0.941750  0.760380  0.522630  1.0
  C  C3006  1  0.941750  0.739620  0.477370  1.0
  C  C3007  1  0.441750  0.760380  0.022630  1.0
  C  C3008  1  0.441750  0.739620  0.977370  1.0
  C  C3009  1  0.076170  0.256440  0.561550  1.0
  C  C3010  1  0.076170  0.243560  0.438450  1.0
  C  C3011  1  0.576170  0.256440  0.061550  1.0
  C  C3012  1  0.576170  0.243560  0.938450  1.0
  C  C3013  1  0.923830  0.743560  0.438450  1.0
  C  C3014  1  0.923830  0.756440  0.561550  1.0
  C  C3015  1  0.423830  0.743560  0.938450  1.0
  C  C3016  1  0.423830  0.756440  0.061550  1.0
  C  C3017  1  0.141500  0.231440  0.597800  1.0
  C  C3018  1  0.141500  0.268560  0.402200  1.0
  C  C3019  1  0.641500  0.231440  0.097800  1.0
  C  C3020  1  0.641500  0.268560  0.902200  1.0
  C  C3021  1  0.858500  0.768560  0.402200  1.0
  C  C3022  1  0.858500  0.731440  0.597800  1.0
  C  C3023  1  0.358500  0.768560  0.902200  1.0
  C  C3024  1  0.358500  0.731440  0.097800  1.0
  C  C3025  1  0.098450  0.282740  0.434982  1.0
  C  C3026  1  0.098450  0.217260  0.565018  1.0
  C  C3027  1  0.598450  0.282740  0.934982  1.0
  C  C3028  1  0.598450  0.217260  0.065018  1.0
  C  C3029  1  0.901550  0.717260  0.565018  1.0
  C  C3030  1  0.901550  0.782740  0.434982  1.0
  C  C3031  1  0.401550  0.717260  0.065018  1.0
  C  C3032  1  0.401550  0.782740  0.934982  1.0
  C  C3033  1  0.337410  0.326340  0.471130  1.0
  C  C3034  1  0.337410  0.173660  0.528870  1.0
  C  C3035  1  0.837410  0.326340  0.971130  1.0
  C  C3036  1  0.837410  0.173660  0.028870  1.0
  C  C3037  1  0.662590  0.673660  0.528870  1.0
  C  C3038  1  0.662590  0.826340  0.471130  1.0
  C  C3039  1  0.162590  0.673660  0.028870  1.0
  C  C3040  1  0.162590  0.826340  0.971130  1.0
  C  C3041  1  0.359660  0.324510  0.507240  1.0
  C  C3042  1  0.359660  0.175490  0.492760  1.0
  C  C3043  1  0.859660  0.324510  0.007240  1.0
  C  C3044  1  0.859660  0.175490  0.992760  1.0
  C  C3045  1  0.640340  0.675490  0.492760  1.0
  C  C3046  1  0.640340  0.824510  0.507240  1.0
  C  C3047  1  0.140340  0.675490  0.992760  1.0
  C  C3048  1  0.140340  0.824510  0.007240  1.0
  C  C3049  1  0.382210  0.281390  0.512520  1.0
  C  C3050  1  0.382210  0.218610  0.487480  1.0
  C  C3051  1  0.882210  0.281390  0.012520  1.0
  C  C3052  1  0.882210  0.218610  0.987480  1.0
  C  C3053  1  0.617790  0.718610  0.487480  1.0
  C  C3054  1  0.617790  0.781390  0.512520  1.0
  C  C3055  1  0.117790  0.718610  0.987480  1.0
  C  C3056  1  0.117790  0.781390  0.012520  1.0
  C  C3057  1  0.370680  0.283550  0.552000  1.0
  C  C3058  1  0.370680  0.216450  0.448000  1.0
  C  C3059  1  0.870680  0.283550  0.052000  1.0
  C  C3060  1  0.870680  0.216450  0.948000  1.0
  C  C3061  1  0.629320  0.716450  0.448000  1.0
  C  C3062  1  0.629320  0.783550  0.552000  1.0
  C  C3063  1  0.129320  0.716450  0.948000  1.0
  C  C3064  1  0.129320  0.783550  0.052000  1.0
  C  C3065  1  0.360380  0.241290  0.560110  1.0
  C  C3066  1  0.360380  0.258710  0.439890  1.0
  C  C3067  1  0.860380  0.241290  0.060110  1.0
  C  C3068  1  0.860380  0.258710  0.939890  1.0
  C  C3069  1  0.639620  0.758710  0.439890  1.0
  C  C3070  1  0.639620  0.741290  0.560110  1.0
  C  C3071  1  0.139620  0.758710  0.939890  1.0
  C  C3072  1  0.139620  0.741290  0.060110  1.0
  C  C3073  1  0.321930  0.244220  0.593890  1.0
  C  C3074  1  0.321930  0.255780  0.406110  1.0
  C  C3075  1  0.821930  0.244220  0.093890  1.0
  C  C3076  1  0.821930  0.255780  0.906110  1.0
  C  C3077  1  0.678070  0.755780  0.406110  1.0
  C  C3078  1  0.678070  0.744220  0.593890  1.0
  C  C3079  1  0.178070  0.755780  0.906110  1.0
  C  C3080  1  0.178070  0.744220  0.093890  1.0
  C  C3081  1  0.285530  0.292770  0.410751  1.0
  C  C3082  1  0.285530  0.207230  0.589249  1.0
  C  C3083  1  0.785530  0.292770  0.910751  1.0
  C  C3084  1  0.785530  0.207230  0.089249  1.0
  C  C3085  1  0.714470  0.707230  0.589249  1.0
  C  C3086  1  0.714470  0.792770  0.410751  1.0
  C  C3087  1  0.214470  0.707230  0.089249  1.0
  C  C3088  1  0.214470  0.792770  0.910751  1.0
  C  C3089  1  0.234880  0.226990  0.608690  1.0
  C  C3090  1  0.234880  0.273010  0.391310  1.0
  C  C3091  1  0.734880  0.226990  0.108690  1.0
  C  C3092  1  0.734880  0.273010  0.891310  1.0
  C  C3093  1  0.765120  0.773010  0.391310  1.0
  C  C3094  1  0.765120  0.726990  0.608690  1.0
  C  C3095  1  0.265120  0.773010  0.891310  1.0
  C  C3096  1  0.265120  0.726990  0.108690  1.0
  C  C3097  1  0.253620  0.296130  0.404730  1.0
  C  C3098  1  0.253620  0.203870  0.595270  1.0
  C  C3099  1  0.753620  0.296130  0.904730  1.0
  C  C3100  1  0.753620  0.203870  0.095270  1.0
  C  C3101  1  0.746380  0.703870  0.595270  1.0
  C  C3102  1  0.746380  0.796130  0.404730  1.0
  C  C3103  1  0.246380  0.703870  0.095270  1.0
  C  C3104  1  0.246380  0.796130  0.904730  1.0
  C  C3105  1  0.530460  0.014240  0.472880  1.0
  C  C3106  1  0.530460  0.485760  0.527120  1.0
  C  C3107  1  0.030460  0.014240  0.972880  1.0
  C  C3108  1  0.030460  0.485760  0.027120  1.0
  C  C3109  1  0.469540  0.985760  0.527120  1.0
  C  C3110  1  0.469540  0.514240  0.472880  1.0
  C  C3111  1  0.969540  0.985760  0.027120  1.0
  C  C3112  1  0.969540  0.514240  0.972880  1.0
  C  C3113  1  0.482690  0.990740  0.459710  1.0
  C  C3114  1  0.482690  0.509260  0.540290  1.0
  C  C3115  1  0.982690  0.990740  0.959710  1.0
  C  C3116  1  0.982690  0.509260  0.040290  1.0
  C  C3117  1  0.517310  0.009260  0.540290  1.0
  C  C3118  1  0.517310  0.490740  0.459710  1.0
  C  C3119  1  0.017310  0.009260  0.040290  1.0
  C  C3120  1  0.017310  0.490740  0.959710  1.0
  C  C3121  1  0.547830  0.022250  0.511470  1.0
  C  C3122  1  0.547830  0.477750  0.488530  1.0
  C  C3123  1  0.047830  0.022250  0.011470  1.0
  C  C3124  1  0.047830  0.477750  0.988530  1.0
  C  C3125  1  0.452170  0.977750  0.488530  1.0
  C  C3126  1  0.452170  0.522250  0.511470  1.0
  C  C3127  1  0.952170  0.977750  0.988530  1.0
  C  C3128  1  0.952170  0.522250  0.011470  1.0
  C  C3129  1  0.561930  0.029150  0.439650  1.0
  C  C3130  1  0.561930  0.470850  0.560350  1.0
  C  C3131  1  0.061930  0.029150  0.939650  1.0
  C  C3132  1  0.061930  0.470850  0.060350  1.0
  C  C3133  1  0.438070  0.970850  0.560350  1.0
  C  C3134  1  0.438070  0.529150  0.439650  1.0
  C  C3135  1  0.938070  0.970850  0.060350  1.0
  C  C3136  1  0.938070  0.529150  0.939650  1.0
  N  N3137  1  0.220400  0.250000  0.500000  1
  N  N3138  1  0.720400  0.250000  0.000000  1
  N  N3139  1  0.779600  0.750000  0.500000  1
  N  N3140  1  0.279600  0.750000  1.000000  1
  N  N3141  1  0.352590  0.455870  0.503620  1
  N  N3142  1  0.352590  0.044130  0.496380  1
  N  N3143  1  0.852590  0.455870  0.003620  1
  N  N3144  1  0.852590  0.044130  0.996380  1
  N  N3145  1  0.647410  0.544130  0.496380  1
  N  N3146  1  0.647410  0.955870  0.503620  1
  N  N3147  1  0.147410  0.544130  0.996380  1
  N  N3148  1  0.147410  0.955870  0.003620  1
  N  N3149  1  0.398230  0.446360  0.577080  1
  N  N3150  1  0.398230  0.053640  0.422920  1
  N  N3151  1  0.898230  0.446360  0.077080  1
  N  N3152  1  0.898230  0.053640  0.922920  1
  N  N3153  1  0.601770  0.553640  0.422920  1
  N  N3154  1  0.601770  0.946360  0.577080  1
  N  N3155  1  0.101770  0.553640  0.922920  1
  N  N3156  1  0.101770  0.946360  0.077080  1
  N  N3157  1  0.474840  0.381610  0.527010  1
  N  N3158  1  0.474840  0.118390  0.472990  1
  N  N3159  1  0.974840  0.381610  0.027010  1
  N  N3160  1  0.974840  0.118390  0.972990  1
  N  N3161  1  0.525160  0.618390  0.472990  1
  N  N3162  1  0.525160  0.881610  0.527010  1
  N  N3163  1  0.025160  0.618390  0.972990  1
  N  N3164  1  0.025160  0.881610  0.027010  1
  N  N3165  1  0.432140  0.393050  0.452980  1
  N  N3166  1  0.432140  0.106950  0.547020  1
  N  N3167  1  0.932140  0.393050  0.952980  1
  N  N3168  1  0.932140  0.106950  0.047020  1
  N  N3169  1  0.567860  0.606950  0.547020  1
  N  N3170  1  0.567860  0.893050  0.452980  1
  N  N3171  1  0.067860  0.606950  0.047020  1
  N  N3172  1  0.067860  0.893050  0.952980  1
  N  N3173  1  0.962040  0.347600  0.605090  1
  N  N3174  1  0.962040  0.152400  0.394910  1
  N  N3175  1  0.462040  0.347600  0.105090  1
  N  N3176  1  0.462040  0.152400  0.894910  1
  N  N3177  1  0.037960  0.652400  0.394910  1
  N  N3178  1  0.037960  0.847600  0.605090  1
  N  N3179  1  0.537960  0.652400  0.894910  1
  N  N3180  1  0.537960  0.847600  0.105090  1
  N  N3181  1  0.010140  0.308220  0.661140  1
  N  N3182  1  0.010140  0.191780  0.338860  1
  N  N3183  1  0.510140  0.308220  0.161140  1
  N  N3184  1  0.510140  0.191780  0.838860  1
  N  N3185  1  0.989860  0.691780  0.338860  1
  N  N3186  1  0.989860  0.808220  0.661140  1
  N  N3187  1  0.489860  0.691780  0.838860  1
  N  N3188  1  0.489860  0.808220  0.161140  1
  N  N3189  1  0.080060  0.385240  0.692040  1
  N  N3190  1  0.080060  0.114760  0.307960  1
  N  N3191  1  0.580060  0.385240  0.192040  1
  N  N3192  1  0.580060  0.114760  0.807960  1
  N  N3193  1  0.919940  0.614760  0.307960  1
  N  N3194  1  0.919940  0.885240  0.692040  1
  N  N3195  1  0.419940  0.614760  0.807960  1
  N  N3196  1  0.419940  0.885240  0.192040  1
  N  N3197  1  0.036090  0.421820  0.632700  1
  N  N3198  1  0.036090  0.078180  0.367300  1
  N  N3199  1  0.536090  0.421820  0.132700  1
  N  N3200  1  0.536090  0.078180  0.867300  1
  N  N3201  1  0.963910  0.578180  0.367300  1
  N  N3202  1  0.963910  0.921820  0.632700  1
  N  N3203  1  0.463910  0.578180  0.867300  1
  N  N3204  1  0.463910  0.921820  0.132700  1
  O  O3205  1  0.447620  0.320960  0.698610  1
  O  O3206  1  0.447620  0.179040  0.301390  1
  O  O3207  1  0.947620  0.320960  0.198610  1
  O  O3208  1  0.947620  0.179040  0.801390  1
  O  O3209  1  0.552380  0.679040  0.301390  1
  O  O3210  1  0.552380  0.820960  0.698610  1
  O  O3211  1  0.052380  0.679040  0.801390  1
  O  O3212  1  0.052380  0.820960  0.198610  1
  O  O3213  1  0.236690  0.239260  0.749940  1
  O  O3214  1  0.236690  0.260740  0.250060  1
  O  O3215  1  0.736690  0.239260  0.249940  1
  O  O3216  1  0.736690  0.260740  0.750060  1
  O  O3217  1  0.763310  0.760740  0.250060  1
  O  O3218  1  0.763310  0.739260  0.749940  1
  O  O3219  1  0.263310  0.760740  0.750060  1
  O  O3220  1  0.263310  0.739260  0.249940  1
  O  O3221  1  0.200000  0.383210  0.336650  1
  O  O3222  1  0.200000  0.116790  0.663350  1
  O  O3223  1  0.700000  0.383210  0.836650  1
  O  O3224  1  0.700000  0.116790  0.163350  1
  O  O3225  1  0.800000  0.616790  0.663350  1
  O  O3226  1  0.800000  0.883210  0.336650  1
  O  O3227  1  0.300000  0.616790  0.163350  1
  O  O3228  1  0.300000  0.883210  0.836650  1
  O  O3229  1  0.979790  0.447050  0.448130  1
  O  O3230  1  0.979790  0.052950  0.551870  1
  O  O3231  1  0.479790  0.447050  0.948130  1
  O  O3232  1  0.479790  0.052950  0.051870  1
  O  O3233  1  0.020210  0.552950  0.551870  1
  O  O3234  1  0.020210  0.947050  0.448130  1
  O  O3235  1  0.520210  0.552950  0.051870  1
  O  O3236  1  0.520210  0.947050  0.948130  1
