
#######################################################################
#
#                 Cambridge Crystallographic Data Centre
#                                CCDC 
#
#######################################################################
#
# If this CIF has been generated from an entry in the Cambridge 
# Structural Database, then it will include bibliographic, chemical, 
# crystal, experimental, refinement or atomic coordinate data resulting 
# from the CCDC's data processing and validation procedures.
#
#######################################################################

data_CAFQUX
_chemical_formula_moiety         'C112 H84 N8 O4 Zn2,C80,N1 Sc3,2(C8 H10)'
_chemical_name_systematic        
"C80Fullerene (\m~3~-nitrido)-tri-scandium (\m~2~-5,5':15,15'-bis(hexa-2,4-diyne-1,6-dioxybis(1,3-phenylene))-10,10',20,20'-tetramesitylporphyrin)-di-zinc p-xylene solvate"
_symmetry_cell_setting           monoclinic
_symmetry_space_group_name_H-M   'P 21/n'
_symmetry_Int_Tables_number      14
_space_group_name_Hall           '-P 2yn'
loop_
_symmetry_equiv_pos_site_id
_symmetry_equiv_pos_as_xyz
1 x,y,z
2 1/2-x,1/2+y,1/2-z
3 -x,-y,-z
4 1/2+x,1/2-y,1/2+z
_cell_length_a                   14.3576(5)
_cell_length_b                   45.9206(15)
_cell_length_c                   21.1694(5)
_cell_angle_alpha                90
_cell_angle_beta                 96.3940(10)
_cell_angle_gamma                90
_cell_volume                     13870.4
_exptl_crystal_colour            black
_exptl_crystal_description       block
_cell_formula_units_Z            4
loop_
_atom_site_label
_atom_site_type_symbol
_atom_site_fract_x
_atom_site_fract_y
_atom_site_fract_z
C113 C 0.17096(5) 0.050759(16) 0.74994(4)
C114 C 0.20133(5) 0.069052(17) 0.80282(4)
C115 C 0.24128(5) 0.050790(19) 0.85416(3)
C116 C 0.23586(5) 0.021216(18) 0.83335(4)
C117 C 0.19206(5) 0.021344(16) 0.76827(4)
C118 C 0.21750(5) 0.000989(16) 0.72352(4)
C119 C 0.21637(5) 0.010188(18) 0.65885(4)
C120 C 0.19343(5) 0.039518(19) 0.63931(3)
C121 C 0.17434(5) 0.060398(17) 0.68618(4)
C122 C 0.20521(5) 0.089394(17) 0.67750(4)
C123 C 0.23609(5) 0.107510(16) 0.73032(4)
C124 C 0.23797(5) 0.097472(16) 0.79388(4)
C125 C 0.31047(5) 0.107785(18) 0.83961(4)
C126 C 0.34976(6) 0.08961(2) 0.89103(4)
C127 C 0.31751(5) 0.06043(2) 0.89725(3)
C128 C 0.38422(6) 0.03861(2) 0.92140(4)
C129 C 0.37555(6) 0.00770(2) 0.90693(4)
C130 C 0.30158(6) -0.000664(19) 0.85731(4)
C131 C 0.32462(6) -0.021846(17) 0.81122(5)
C132 C 0.28262(6) -0.020788(16) 0.74613(5)
C133 C 0.34943(6) -0.031719(17) 0.70609(5)
C134 C 0.35066(6) -0.021456(19) 0.64273(5)
C135 C 0.28064(6) -0.00103(2) 0.61783(4)
C136 C 0.29533(6) 0.02074(2) 0.57030(4)
C137 C 0.24057(6) 0.04646(2) 0.58357(3)
C138 C 0.27618(6) 0.07563(2) 0.57655(4)
C139 C 0.25768(6) 0.09631(2) 0.62488(4)
C140 C 0.32219(6) 0.118975(19) 0.64785(5)
C141 C 0.30874(6) 0.125928(16) 0.71143(5)
C142 C 0.38488(6) 0.134545(16) 0.75673(5)
C143 C 0.38337(6) 0.126020(18) 0.82092(5)
C144 C 0.46887(6) 0.11956(2) 0.86067(5)
C145 C 0.44690(6) 0.09672(2) 0.90372(4)
C146 C 0.51386(6) 0.07530(3) 0.92264(4)
C147 C 0.48145(6) 0.04622(3) 0.93194(4)
C148 C 0.53491(6) 0.02068(3) 0.92117(4)
C149 C 0.47201(6) -0.00389(2) 0.90711(5)
C150 C 0.49414(6) -0.02383(2) 0.85672(5)
C151 C 0.41878(6) -0.032998(18) 0.81116(5)
C152 C 0.43254(6) -0.038612(17) 0.74577(6)
C153 C 0.52182(6) -0.035618(19) 0.72288(6)
C154 C 0.52366(6) -0.02711(2) 0.65783(6)
C155 C 0.43868(6) -0.02016(2) 0.61925(5)
C156 C 0.45778(6) 0.00247(2) 0.57462(5)
C157 C 0.38832(6) 0.02337(3) 0.54934(4)
C158 C 0.42109(6) 0.05242(3) 0.53886(4)
C159 C 0.36658(6) 0.07819(3) 0.55247(4)
C160 C 0.43223(6) 0.09994(2) 0.57939(4)
C161 C 0.41290(6) 0.12042(2) 0.62680(5)
C162 C 0.48792(6) 0.13089(2) 0.67044(5)
C163 C 0.47496(6) 0.137864(18) 0.73489(6)
C164 C 0.56038(6) 0.13228(2) 0.77526(6)
C165 C 0.55974(6) 0.12290(2) 0.83939(5)
C166 C 0.63437(5) 0.10285(2) 0.86496(5)
C167 C 0.60580(5) 0.07875(3) 0.90213(5)
C168 C 0.65623(5) 0.05327(3) 0.88658(5)
C169 C 0.62186(5) 0.02421(3) 0.89484(5)
C170 C 0.64828(5) 0.00272(2) 0.85290(5)
C171 C 0.58360(6) -0.02027(2) 0.83231(6)
C172 C 0.59765(6) -0.02687(2) 0.76768(6)
C173 C 0.67075(5) -0.00857(2) 0.74927(6)
C174 C 0.66903(5) 0.00153(2) 0.68558(6)
C175 C 0.59664(6) -0.00865(2) 0.63962(6)
C176 C 0.55576(6) 0.00960(3) 0.58863(5)
C177 C 0.58808(6) 0.03842(3) 0.58236(5)
C178 C 0.51943(6) 0.05939(3) 0.55768(4)
C179 C 0.52540(6) 0.08861(3) 0.58101(5)
C180 C 0.60023(6) 0.09798(2) 0.62662(5)
C181 C 0.58110(6) 0.12015(2) 0.67065(6)
C182 C 0.62760(6) 0.12128(2) 0.73449(6)
C183 C 0.69791(5) 0.10010(2) 0.75719(6)
C184 C 0.70334(5) 0.09166(3) 0.82413(6)
C185 C 0.71309(5) 0.06070(3) 0.83792(5)
C186 C 0.73256(5) 0.03878(3) 0.79266(6)
C187 C 0.70224(5) 0.00982(3) 0.80226(6)
C188 C 0.73681(5) 0.04824(3) 0.72937(6)
C189 C 0.71547(5) 0.07802(3) 0.71191(6)
C190 C 0.67079(5) 0.07778(3) 0.64740(5)
C191 C 0.66463(6) 0.04830(3) 0.62519(5)
C192 C 0.70547(5) 0.02983(3) 0.67628(6)
N9 N 0.45391(16) 0.04965(5) 0.73907(12)
Sc1 Sc 0.55867(11) 0.07458(4) 0.78098(12)
Sc2 Sc 0.45370(16) 0.00634(3) 0.75206(13)
Sc3 Sc 0.34521(13) 0.06802(4) 0.68883(14)
C193 C 0.31620(8) 0.31790(3) 0.66797(8)
C194 C 0.22274(9) 0.32062(4) 0.64335(10)
H85 H 0.2042 0.3357 0.6139
C195 C 0.15641(9) 0.30129(5) 0.66188(13)
H86 H 0.0925 0.3031 0.6451
C196 C 0.18354(14) 0.27924(4) 0.70503(13)
C197 C 0.27700(15) 0.27652(4) 0.72965(12)
H87 H 0.2955 0.2614 0.7591
C198 C 0.34333(11) 0.29585(4) 0.71112(10)
H88 H 0.4072 0.2940 0.7279
C199 C 0.38774(9) 0.33845(4) 0.64951(5)
H89 H 0.3618 0.3582 0.6472
H90 H 0.4059 0.3329 0.6079
H91 H 0.4429 0.3379 0.6812
C200 C 0.11469(13) 0.26012(5) 0.72371(16)
H92 H 0.0606 0.2600 0.6911
H93 H 0.0949 0.2667 0.7642
H94 H 0.1408 0.2404 0.7288
C225 C 0.19930(9) 0.16515(10) 0.13780(6)
C226 C 0.29007(10) 0.17523(11) 0.13469(7)
H125 H 0.3100 0.1803 0.0948
C227 C 0.35147(13) 0.17781(14) 0.18995(6)
H126 H 0.4149 0.1831 0.1874
C228 C 0.32065(9) 0.17262(9) 0.24893(6)
C229 C 0.22728(10) 0.16529(12) 0.25225(7)
H127 H 0.2048 0.1628 0.2925
C230 C 0.16688(13) 0.16161(16) 0.19682(6)
H128 H 0.1031 0.1566 0.1993
C231 C 0.12989(16) 0.1657(3) 0.08048(10)
H129 H 0.0704 0.1735 0.0917
H130 H 0.1201 0.1459 0.0639
H131 H 0.1533 0.1781 0.0480
C232 C 0.3782(2) 0.18147(14) 0.30411(11)
H132 H 0.4161 0.1982 0.2940
H133 H 0.4195 0.1654 0.3194
H134 H 0.3388 0.1869 0.3372
C1 C 0.52979(19) 0.12265(6) 0.41360(14)
C2 C 0.5186(2) 0.10229(7) 0.36213(15)
H1 H 0.5669 0.0951 0.3391
C3 C 0.4274(2) 0.09519(7) 0.35243(15)
H2 H 0.3993 0.0821 0.3213
C4 C 0.38027(19) 0.11106(6) 0.39771(14)
C5 C 0.2845(2) 0.10881(6) 0.40374(14)
C6 C 0.2306(2) 0.08724(7) 0.36172(14)
C7 C 0.2084(2) 0.09284(9) 0.29732(16)
H3 H 0.2251 0.1109 0.2800
C8 C 0.1617(2) 0.07179(10) 0.25821(17)
H4 H 0.1478 0.0756 0.2140
C9 C 0.1359(2) 0.04591(9) 0.28236(17)
H5 H 0.1030 0.0319 0.2553
C10 C 0.1575(2) 0.04012(8) 0.34618(17)
C11 C 0.2049(2) 0.06068(7) 0.38646(15)
H6 H 0.2196 0.0566 0.4304
C12 C 0.23667(19) 0.12619(6) 0.44413(14)
C13 C 0.1362(2) 0.12596(7) 0.44561(15)
H7 H 0.0927 0.1129 0.4236
C14 C 0.1162(2) 0.14791(7) 0.48428(15)
H8 H 0.0556 0.1534 0.4939
C15 C 0.2039(2) 0.16152(6) 0.50849(14)
C16 C 0.2131(2) 0.18484(6) 0.55029(14)
C17 C 0.1262(2) 0.19892(7) 0.56910(15)
C18 C 0.0949(2) 0.22554(7) 0.54189(16)
C19 C 0.0173(2) 0.23917(7) 0.56292(18)
H9 H -0.0031 0.2573 0.5447
C20 C -0.0311(2) 0.22710(8) 0.60959(18)
C21 C -0.0012(2) 0.20063(8) 0.63441(17)
H10 H -0.0345 0.1918 0.6657
C22 C 0.0767(2) 0.18625(7) 0.61510(16)
C23 C 0.1451(3) 0.24025(8) 0.49180(19)
H11 H 0.1933 0.2533 0.5123
H12 H 0.1001 0.2515 0.4634
H13 H 0.1746 0.2255 0.4672
C24 C -0.1122(3) 0.24298(10) 0.6345(2)
H14 H -0.1013 0.2640 0.6332
H15 H -0.1171 0.2370 0.6784
H16 H -0.1705 0.2382 0.6080
C25 C 0.1090(3) 0.15810(8) 0.64592(19)
H17 H 0.1701 0.1609 0.6707
H18 H 0.1144 0.1433 0.6131
H19 H 0.0634 0.1516 0.6741
C26 C 0.2992(2) 0.19620(6) 0.57801(15)
C27 C 0.3089(2) 0.21818(7) 0.62602(17)
H20 H 0.2593 0.2282 0.6428
C28 C 0.4017(2) 0.22211(7) 0.64321(17)
H21 H 0.4292 0.2352 0.6747
C29 C 0.4509(2) 0.20285(6) 0.60488(15)
C30 C 0.5481(2) 0.20042(6) 0.60766(15)
C31 C 0.6055(2) 0.21640(7) 0.66082(17)
C32 C 0.6384(2) 0.20012(8) 0.71369(16)
H22 H 0.6269 0.1797 0.7135
C33 C 0.6879(3) 0.21267(10) 0.7672(2)
C34 C 0.7095(3) 0.24146(10) 0.7680(2)
H23 H 0.7451 0.2500 0.8038
C35 C 0.6785(3) 0.25793(9) 0.7158(3)
H24 H 0.6931 0.2781 0.7163
C36 C 0.6249(3) 0.24602(9) 0.6602(2)
H25 H 0.6037 0.2579 0.6248
C37 C 0.5960(2) 0.18296(6) 0.56822(14)
C38 C 0.6969(2) 0.18186(7) 0.56912(15)
H26 H 0.7416 0.1919 0.5976
C39 C 0.7153(2) 0.16378(7) 0.52145(15)
H27 H 0.7755 0.1590 0.5099
C40 C 0.62724(19) 0.15324(6) 0.49168(14)
C41 C 0.6159(2) 0.13400(7) 0.43998(14)
C42 C 0.7006(2) 0.12568(7) 0.40921(14)
C43 C 0.7340(2) 0.14501(8) 0.36496(15)
C44 C 0.8107(2) 0.13648(11) 0.33426(17)
H28 H 0.8332 0.1493 0.3041
C45 C 0.8547(2) 0.11022(11) 0.34615(16)
C46 C 0.8215(2) 0.09143(9) 0.38991(16)
H29 H 0.8518 0.0732 0.3985
C47 C 0.7444(2) 0.09875(8) 0.42157(15)
C48 C 0.6866(3) 0.17349(9) 0.34938(19)
H30 H 0.6193 0.1703 0.3381
H31 H 0.7132 0.1825 0.3135
H32 H 0.6961 0.1864 0.3864
C49 C 0.9367(3) 0.10110(15) 0.3108(2)
H33 H 0.9157 0.0996 0.2653
H34 H 0.9604 0.0822 0.3268
H35 H 0.9867 0.1157 0.3177
C50 C 0.7079(2) 0.07758(8) 0.46763(17)
H36 H 0.6920 0.0882 0.5052
H37 H 0.7562 0.0630 0.4806
H38 H 0.6518 0.0678 0.4470
C51 C 0.1453(3) 0.00601(8) 0.4302(2)
H39 H 0.2120 0.0091 0.4461
H40 H 0.1305 -0.0148 0.4362
C52 C 0.0864(3) 0.02403(9) 0.4665(2)
C53 C 0.0400(3) 0.03993(9) 0.49355(19)
C54 C -0.0107(3) 0.05895(10) 0.52625(19)
C55 C -0.0548(3) 0.07590(11) 0.55444(18)
C56 C -0.1023(3) 0.09682(12) 0.59058(17)
H41 H -0.0867 0.1169 0.5782
H42 H -0.1710 0.0942 0.5823
C57 C 0.7496(3) 0.20306(14) 0.8780(2)
H43 H 0.7067 0.2174 0.8943
H44 H 0.8114 0.2124 0.8764
C58 C 0.7589(3) 0.17645(15) 0.9203(2)
C59 C 0.7656(3) 0.15370(15) 0.9513(2)
C60 C 0.7702(3) 0.12795(13) 0.9833(2)
C61 C 0.7700(3) 0.10553(14) 1.0107(2)
C62 C 0.7663(3) 0.07913(14) 1.0437(2)
H45 H 0.8226 0.0674 1.0378
H46 H 0.7105 0.0680 1.0258
C63 C 0.2262(2) 0.08384(7) 1.05716(14)
C64 C 0.2768(2) 0.07020(7) 1.11160(15)
H47 H 0.2548 0.0549 1.1363
C65 C 0.3614(2) 0.08315(7) 1.12091(15)
H48 H 0.4105 0.0785 1.1532
C66 C 0.3639(2) 0.10520(7) 1.07309(14)
C67 C 0.44075(19) 0.12290(6) 1.06540(14)
C68 C 0.5287(2) 0.11724(7) 1.10920(14)
C69 C 0.5342(2) 0.12444(8) 1.17279(16)
H49 H 0.4829 0.1337 1.1893
C70 C 0.6154(2) 0.11808(9) 1.21268(17)
H50 H 0.6190 0.1231 1.2564
C71 C 0.6901(2) 0.10477(9) 1.19005(17)
H51 H 0.7454 0.1007 1.2176
C72 C 0.6842(2) 0.09740(9) 1.12679(18)
C73 C 0.6036(2) 0.10372(8) 1.08558(16)
H52 H 0.6005 0.0988 1.0418
C74 C 0.4405(2) 0.14584(6) 1.02259(14)
C75 C 0.5172(2) 0.16582(7) 1.01885(16)
H53 H 0.5780 0.1644 1.0415
C76 C 0.4858(2) 0.18712(7) 0.97656(16)
H54 H 0.5204 0.2035 0.9646
C77 C 0.3910(2) 0.18013(6) 0.95372(14)
C78 C 0.3334(2) 0.19662(6) 0.90927(14)
C79 C 0.3725(2) 0.22565(6) 0.89120(16)
C80 C 0.3470(3) 0.25121(8) 0.92146(18)
C81 C 0.3933(3) 0.27730(7) 0.90742(19)
H55 H 0.3779 0.2947 0.9282
C82 C 0.4586(3) 0.27867(8) 0.8656(2)
C83 C 0.4788(2) 0.25369(7) 0.8347(2)
H56 H 0.5229 0.2543 0.8045
C84 C 0.4358(2) 0.22721(7) 0.84658(17)
C85 C 0.2757(4) 0.25063(10) 0.9662(2)
H57 H 0.2145 0.2459 0.9431
H58 H 0.2726 0.2698 0.9864
H59 H 0.2923 0.2358 0.9988
C86 C 0.5090(4) 0.30687(9) 0.8559(3)
H60 H 0.5678 0.3074 0.8841
H61 H 0.4693 0.3233 0.8655
H62 H 0.5225 0.3082 0.8116
C87 C 0.4605(3) 0.20066(8) 0.8115(2)
H63 H 0.4918 0.2064 0.7745
H64 H 0.4033 0.1898 0.7971
H65 H 0.5027 0.1884 0.8396
C88 C 0.2463(2) 0.18754(7) 0.88044(15)
C89 C 0.1962(2) 0.20158(9) 0.82643(18)
H66 H 0.2128 0.2194 0.8078
C90 C 0.1216(2) 0.18497(9) 0.80713(17)
H67 H 0.0772 0.1884 0.7712
C91 C 0.1210(2) 0.16106(8) 0.85050(15)
C92 C 0.0527(2) 0.13892(8) 0.84934(15)
C93 C -0.0213(2) 0.13817(8) 0.79382(16)
C94 C -0.0879(2) 0.16003(9) 0.78250(18)
H68 H -0.0900 0.1757 0.8117
C95 C -0.1512(2) 0.15877(9) 0.72818(18)
H69 H -0.1978 0.1734 0.7210
C96 C -0.1478(2) 0.13682(9) 0.68457(16)
H70 H -0.1902 0.1367 0.6468
C97 C -0.0828(2) 0.11503(9) 0.69604(16)
C98 C -0.0200(2) 0.11538(8) 0.75172(15)
H71 H 0.0234 0.0999 0.7604
C99 C 0.0508(2) 0.11656(8) 0.89366(15)
C100 C -0.0243(2) 0.09614(8) 0.89634(16)
H72 H -0.0800 0.0951 0.8676
C101 C -0.0020(2) 0.07873(8) 0.94673(15)
H73 H -0.0387 0.0632 0.9604
C102 C 0.08882(19) 0.08815(7) 0.97629(15)
C103 C 0.13685(19) 0.07516(7) 1.02975(14)
C104 C 0.0938(2) 0.04995(8) 1.06108(14)
C105 C 0.0292(2) 0.05539(8) 1.10458(15)
C106 C -0.0012(2) 0.03220(9) 1.13866(16)
H74 H -0.0464 0.0356 1.1674
C107 C 0.0325(2) 0.00415(8) 1.13207(16)
C108 C 0.0939(2) -0.00102(8) 1.08679(16)
H75 H 0.1155 -0.0202 1.0805
C109 C 0.1240(2) 0.02182(7) 1.05051(15)
C110 C -0.0034(2) 0.08571(9) 1.11600(18)
H76 H -0.0475 0.0853 1.1481
H77 H -0.0345 0.0938 1.0763
H78 H 0.0506 0.0979 1.1311
C111 C 0.0081(3) -0.02076(10) 1.17433(19)
H79 H -0.0102 -0.0129 1.2142
H80 H 0.0627 -0.0335 1.1835
H81 H -0.0441 -0.0319 1.1526
C112 C 0.1891(2) 0.01510(8) 1.00157(16)
H82 H 0.1633 0.0231 0.9604
H83 H 0.1959 -0.0061 0.9979
H84 H 0.2506 0.0238 1.0145
N1 N 0.44374(16) 0.12815(5) 0.43427(11)
N2 N 0.27612(16) 0.14752(5) 0.48315(12)
N3 N 0.38640(16) 0.18722(5) 0.56533(12)
N4 N 0.55568(16) 0.16497(5) 0.52125(12)
N5 N 0.28013(16) 0.10553(5) 1.03496(11)
N6 N 0.36510(16) 0.15466(5) 0.98134(12)
N7 N 0.19864(17) 0.16304(6) 0.89505(12)
N8 N 0.11898(16) 0.11119(6) 0.94327(12)
O1 O 0.13077(19) 0.01295(6) 0.36453(14)
O2 O -0.07153(19) 0.09203(7) 0.65655(12)
O3 O 0.7126(2) 0.19313(8) 0.81592(14)
O4 O 0.76195(18) 0.08364(8) 1.10890(14)
Zn1 Zn 0.41563(2) 0.156672(7) 0.501689(16)
Zn2 Zn 0.24111(2) 0.133502(8) 0.963438(17)
Sc4? Sc 0.5878(3) 0.04043(13) 0.7659(3)
Sc5? Sc 0.3665(4) 0.01791(7) 0.6982(2)
Sc6? Sc 0.3896(4) 0.07977(8) 0.7886(3)
Sc7? Sc 0.54978(18) 0.01829(6) 0.7421(2)
Sc8? Sc 0.31940(18) 0.04207(9) 0.7012(2)
Sc9? Sc 0.4739(3) 0.08453(7) 0.7953(2)
Sc10? Sc 0.3960(3) 0.08923(6) 0.72120(18)
Sc11? Sc 0.5306(3) 0.03084(9) 0.67576(15)
Sc12? Sc 0.4300(4) 0.02736(8) 0.81456(16)
Sc13? Sc 0.59176(14) 0.04633(7) 0.7279(3)
Sc14? Sc 0.37488(19) 0.01464(5) 0.7468(3)
Sc15? Sc 0.4032(2) 0.08876(5) 0.7591(3)
C201? C 0.38215(10) 0.20632(3) 0.36192(6)
C202? C 0.45355(11) 0.22122(4) 0.33647(9)
H95? H 0.4731 0.2152 0.2971
C203? C 0.49622(16) 0.24489(4) 0.36886(7)
H96? H 0.5406 0.2563 0.3496
C204? C 0.47417(11) 0.25196(3) 0.42935(7)
C205? C 0.39873(11) 0.23827(4) 0.45280(9)
H97? H 0.3768 0.2450 0.4909
C206? C 0.35545(15) 0.21472(4) 0.42035(7)
H98? H 0.3075 0.2043 0.4382
C207? C 0.3300(2) 0.18256(5) 0.32647(15)
H99? H 0.3230 0.1871 0.2809
H100? H 0.2679 0.1806 0.3411
H101? H 0.3645 0.1642 0.3339
C208? C 0.5161(2) 0.27674(5) 0.46011(15)
H102? H 0.4751 0.2936 0.4513
H103? H 0.5766 0.2805 0.4443
H104? H 0.5259 0.2733 0.5061
C209? C 0.1093(3) 0.17113(5) 0.06584(17)
C210? C 0.1969(3) 0.18322(5) 0.06070(16)
H105? H 0.2073 0.1942 0.0240
C211? C 0.2694(3) 0.17928(5) 0.10922(15)
H106? H 0.3303 0.1863 0.1044
C212? C 0.2529(3) 0.16503(5) 0.16486(15)
C213? C 0.1655(3) 0.15271(5) 0.16975(17)
H107? H 0.1553 0.1417 0.2063
C214? C 0.0932(3) 0.15651(5) 0.12110(18)
H108? H 0.0325 0.1491 0.1256
C215? C 0.0281(3) 0.17836(5) 0.01902(17)
H109? H -0.0081 0.1607 0.0078
H110? H 0.0505 0.1866 -0.0192
H111? H -0.0118 0.1926 0.0376
C216? C 0.3205(3) 0.16699(6) 0.21847(15)
H112? H 0.3739 0.1544 0.2123
H113? H 0.2927 0.1607 0.2564
H114? H 0.3420 0.1872 0.2239
C217? C 0.44029(13) 0.24429(3) 0.43603(7)
C218? C 0.40594(19) 0.25357(3) 0.49153(8)
H115? H 0.3700 0.2407 0.5142
C219? C 0.42393(14) 0.28168(3) 0.51397(10)
H116? H 0.3970 0.2883 0.5503
C220? C 0.48132(14) 0.30010(3) 0.48335(7)
C221? C 0.51928(17) 0.29030(3) 0.42957(8)
H117? H 0.5638 0.3019 0.4110
C222? C 0.49197(16) 0.26353(3) 0.40298(9)
H118? H 0.5086 0.2584 0.3622
C223? C 0.4028(3) 0.21762(4) 0.40300(15)
H119? H 0.3346 0.2170 0.4031
H120? H 0.4307 0.2004 0.4250
H121? H 0.4182 0.2178 0.3591
C224? C 0.51147(4) 0.326551(17) 0.51288(3)
H122? H 0.47049(4) 0.34087(2) 0.53019(3)
H123? H 0.52844(7) 0.33346(3) 0.47189(2)
H124? H 0.56840(4) 0.32403(3) 0.54250(3)
C233? C 0.45672(6) 0.05902(3) 0.93408(4)
C234? C 0.28948(14) -0.00760(5) 0.63458(10)
C235? C 0.43267(6) 0.08786(2) 0.91361(4)
C236? C 0.32701(15) -0.02578(4) 0.68568(10)
C237? C 0.49809(6) 0.10641(2) 0.88798(5)
C238? C 0.42193(16) -0.03505(4) 0.69206(10)
C239? C 0.46397(6) 0.12627(2) 0.83932(5)
C240? C 0.46890(17) -0.03846(4) 0.75435(10)
C241? C 0.51907(6) 0.133913(19) 0.78918(6)
C242? C 0.56718(17) -0.03231(5) 0.76796(10)
C243? C 0.60975(6) 0.12146(2) 0.78649(6)
C244? C 0.62042(15) -0.02228(5) 0.71913(10)
C245? C 0.63942(5) 0.11540(2) 0.72506(6)
C246? C 0.69476(14) -0.00170(5) 0.73582(11)
C247? C 0.70679(5) 0.09301(3) 0.71289(6)
C248? C 0.72840(14) 0.01920(6) 0.69198(12)
C249? C 0.73457(5) 0.07282(3) 0.76484(6)
C250? C 0.67319(14) 0.02209(5) 0.63011(11)
C251? C 0.73988(5) 0.04234(3) 0.74925(6)
C252? C 0.65545(15) 0.05113(5) 0.60579(11)
C253? C 0.61544(5) 0.06663(3) 0.90775(5)
C254? C 0.43943(14) -0.00862(4) 0.59144(9)
C255? C 0.71708(5) 0.02004(3) 0.79298(6)
C256? C 0.56913(16) 0.05838(5) 0.56750(10)
C257? C 0.67779(5) -0.00442(2) 0.75675(6)
C258? C 0.54659(18) 0.08825(4) 0.57968(11)
C259? C 0.61022(6) -0.02291(2) 0.78063(6)
C260? C 0.45190(18) 0.09795(4) 0.57526(11)
C261? C 0.58515(6) -0.01776(2) 0.84328(6)
C262? C 0.37860(17) 0.07775(4) 0.55502(10)
C263? C 0.49378(6) -0.02440(2) 0.86272(5)
C264? C 0.28536(17) 0.07908(5) 0.57511(11)
C265? C 0.47359(6) -0.00244(2) 0.90938(5)
C266? C 0.25157(15) 0.04916(5) 0.57914(11)
C267? C 0.38050(6) 0.00954(2) 0.91027(4)
C268? C 0.19778(14) 0.04000(5) 0.62952(12)
C269? C 0.37529(6) 0.04039(2) 0.92219(4)
C270? C 0.21963(14) 0.01160(5) 0.65628(11)
C271? C 0.30140(5) 0.05884(2) 0.89310(3)
C272? C 0.21694(15) 0.00468(5) 0.72245(11)
C273? C 0.33577(6) 0.08760(2) 0.88833(4)
C274? C 0.28128(16) -0.01807(5) 0.74019(11)
C275? C 0.59131(5) 0.09563(2) 0.88768(5)
C276? C 0.47667(15) -0.02703(4) 0.64250(10)
C277? C 0.30326(5) 0.106185(18) 0.83645(4)
C278? C 0.33105(18) -0.01961(5) 0.80235(10)
C279? C 0.36750(6) 0.125973(17) 0.81371(5)
C280? C 0.42378(18) -0.03063(5) 0.80883(10)
C281? C 0.36119(6) 0.133575(16) 0.74739(5)
C282? C 0.4934(2) -0.01966(5) 0.85720(9)
C283? C 0.45616(6) 0.138244(18) 0.73278(6)
C284? C 0.58212(18) -0.02066(5) 0.83084(10)
C285? C 0.48123(6) 0.13040(2) 0.67292(5)
C286? C 0.64943(18) 0.00102(6) 0.84673(10)
C287? C 0.57383(6) 0.11919(2) 0.66956(6)
C288? C 0.70622(16) 0.01020(6) 0.79875(11)
C289? C 0.59605(6) 0.09835(2) 0.62311(5)
C290? C 0.74262(16) 0.03913(6) 0.79491(12)
C291? C 0.67951(5) 0.08215(3) 0.64746(6)
C292? C 0.75962(14) 0.04532(6) 0.72976(13)
C293? C 0.67953(5) 0.05077(3) 0.63446(5)
C294? C 0.73442(16) 0.07449(6) 0.70524(13)
C295? C 0.71272(5) 0.03174(3) 0.68556(6)
C296? C 0.68537(16) 0.07659(5) 0.64278(12)
C297? C 0.64618(5) 0.10315(2) 0.83712(5)
C298? C 0.57507(14) -0.02068(4) 0.65633(10)
C299? C 0.67382(5) 0.00303(2) 0.69159(6)
C300? C 0.61656(18) 0.09903(5) 0.62626(12)
C301? C 0.60089(6) -0.00815(2) 0.64686(6)
C302? C 0.5941(2) 0.12051(5) 0.67083(13)
C303? C 0.53591(6) -0.02829(2) 0.66963(6)
C304? C 0.5003(2) 0.13182(4) 0.66428(13)
C305? C 0.54158(6) -0.03520(2) 0.73565(6)
C306? C 0.4314(2) 0.12037(4) 0.61704(12)
C307? C 0.44765(6) -0.040456(17) 0.75226(6)
C308? C 0.3407(2) 0.12132(4) 0.64123(13)
C309? C 0.42092(6) -0.035214(18) 0.81501(5)
C310? C 0.26626(18) 0.10104(5) 0.62172(12)
C311? C 0.32739(6) -0.024487(17) 0.81846(5)
C312? C 0.20812(17) 0.09226(5) 0.66956(13)
C313? C 0.30713(6) -0.002375(19) 0.86492(4)
C314? C 0.17467(15) 0.06225(6) 0.67387(13)
C315? C 0.23740(5) 0.017017(18) 0.83343(4)
C316? C 0.17848(16) 0.05515(6) 0.74066(13)
C317? C 0.23252(5) 0.047442(18) 0.84596(3)
C318? C 0.19946(16) 0.02693(6) 0.76649(12)
C319? C 0.70431(5) 0.07894(3) 0.82567(5)
C320? C 0.59908(14) 0.00162(5) 0.61406(10)
C321? C 0.19519(5) 0.066473(17) 0.79649(4)
C322? C 0.24392(18) 0.02445(6) 0.82974(11)
C323? C 0.22983(5) 0.095554(16) 0.79118(4)
C324? C 0.30936(19) 0.00157(6) 0.84799(10)
C325? C 0.22196(5) 0.103886(16) 0.72534(4)
C326? C 0.3783(2) 0.01183(6) 0.89748(10)
C327? C 0.28765(6) 0.123137(16) 0.70152(5)
C328? C 0.4724(2) 0.00151(6) 0.90343(9)
C329? C 0.30969(6) 0.118238(19) 0.63620(5)
C330? C 0.5465(2) 0.02222(6) 0.92670(9)
C331? C 0.40732(6) 0.12026(2) 0.62628(5)
C332? C 0.6293(2) 0.02215(6) 0.89386(10)
C333? C 0.42790(6) 0.09777(2) 0.58299(4)
C334? C 0.6595(2) 0.05165(6) 0.88721(11)
C335? C 0.52084(6) 0.08626(3) 0.58110(5)
C336? C 0.71471(18) 0.06068(6) 0.83794(12)
C337? C 0.52780(6) 0.05704(3) 0.56214(4)
C338? C 0.70298(19) 0.08954(6) 0.81614(13)
C339? C 0.60415(6) 0.03932(3) 0.59045(5)
C340? C 0.70911(18) 0.09604(6) 0.75014(13)
C341? C 0.68471(5) 0.05621(3) 0.86982(5)
C342? C 0.51415(14) 0.00908(4) 0.57376(9)
C343? C 0.56791(6) 0.01033(3) 0.59540(5)
C344? C 0.6430(2) 0.11895(5) 0.73285(13)
C345? C 0.47137(6) 0.01016(3) 0.56963(5)
C346? C 0.5981(2) 0.12671(5) 0.78757(13)
C347? C 0.40562(6) -0.00841(2) 0.59525(5)
C348? C 0.5029(2) 0.13600(5) 0.78132(13)
C349? C 0.43921(6) -0.02829(2) 0.64400(5)
C350? C 0.4554(2) 0.13940(4) 0.71917(13)
C351? C 0.38511(6) -0.035648(17) 0.69502(5)
C352? C 0.3574(2) 0.13279(4) 0.70493(13)
C353? C 0.29522(6) -0.023425(16) 0.69743(5)
C354? C 0.3047(2) 0.12301(5) 0.75337(13)
C355? C 0.26828(6) -0.017954(16) 0.75956(5)
C356? C 0.23092(19) 0.10270(5) 0.73453(13)
C357? C 0.21236(5) 0.007004(16) 0.76974(4)
C358? C 0.21064(18) 0.08010(6) 0.77737(13)
C359? C 0.17905(5) 0.026183(16) 0.71907(4)
C360? C 0.2594(2) 0.07776(6) 0.83978(12)
C361? C 0.16780(5) 0.056252(16) 0.73358(4)
C362? C 0.2734(2) 0.04940(6) 0.86676(11)
C363? C 0.68765(5) 0.02660(3) 0.85300(5)
C364? C 0.49694(15) 0.03775(4) 0.55201(9)
C365? C 0.18212(5) 0.079084(17) 0.68904(4)
C366? C 0.3550(2) 0.04201(6) 0.90958(10)
C367? C 0.20727(5) 0.07267(2) 0.62631(4)
C368? C 0.4269(2) 0.06326(6) 0.92853(10)
C369? C 0.26926(6) 0.09323(2) 0.59873(4)
C370? C 0.5237(2) 0.05288(6) 0.93952(10)
C371? C 0.34546(6) 0.08074(2) 0.56775(4)
C372? C 0.5941(2) 0.07041(6) 0.91287(10)
C373? C 0.35509(6) 0.05032(2) 0.55356(4)
C374? C 0.5782(2) 0.09900(6) 0.88602(12)
C375? C 0.44643(6) 0.03920(3) 0.54894(4)
C376? C 0.6354(2) 0.10843(6) 0.83937(13)
C377? C 0.28773(6) 0.03127(2) 0.57505(4)
C378? C 0.4853(2) 0.10976(6) 0.88231(12)
C379? C 0.21833(5) 0.04224(2) 0.61315(3)
C380? C 0.4110(2) 0.09158(6) 0.90051(11)
C381? C 0.20049(5) 0.019565(18) 0.65740(4)
C382? C 0.3273(2) 0.09895(6) 0.85946(12)
C383? C 0.25785(6) -0.005097(18) 0.64686(4)
C384? C 0.3493(2) 0.12139(5) 0.81654(13)
C385? C 0.62300(5) 0.00712(3) 0.87791(5)
C386? C 0.40216(16) 0.04796(4) 0.54478(9)
C387? C 0.31256(6) 0.00219(2) 0.59568(4)
C388? C 0.4479(2) 0.12810(5) 0.83055(13)
C389? C 0.55415(6) 0.01712(3) 0.91722(5)
C390? C 0.32589(14) 0.03026(5) 0.56106(10)
C391? C 0.54784(6) 0.04754(3) 0.93003(4)
C392? C 0.34556(14) 0.00198(4) 0.58734(9)
loop_
_geom_bond_atom_site_label_1
_geom_bond_atom_site_label_2
_geom_bond_site_symmetry_1
_geom_bond_site_symmetry_2
C1 C2 1_555 1_555
C2 H1 1_555 1_555
C3 C2 1_555 1_555
H2 C3 1_555 1_555
C4 C3 1_555 1_555
C5 C4 1_555 1_555
C6 C5 1_555 1_555
C7 C6 1_555 1_555
H3 C7 1_555 1_555
C8 C7 1_555 1_555
H4 C8 1_555 1_555
C9 C8 1_555 1_555
H5 C9 1_555 1_555
C10 C9 1_555 1_555
C11 C6 1_555 1_555
H6 C11 1_555 1_555
C12 C5 1_555 1_555
C13 C12 1_555 1_555
H7 C13 1_555 1_555
C14 C13 1_555 1_555
H8 C14 1_555 1_555
C15 C14 1_555 1_555
C16 C15 1_555 1_555
C17 C16 1_555 1_555
C18 C17 1_555 1_555
C19 C18 1_555 1_555
H9 C19 1_555 1_555
C20 C19 1_555 1_555
C21 C20 1_555 1_555
H10 C21 1_555 1_555
C22 C17 1_555 1_555
C23 C18 1_555 1_555
H11 C23 1_555 1_555
H12 C23 1_555 1_555
H13 C23 1_555 1_555
C24 C20 1_555 1_555
H14 C24 1_555 1_555
H15 C24 1_555 1_555
H16 C24 1_555 1_555
C25 C22 1_555 1_555
H17 C25 1_555 1_555
H18 C25 1_555 1_555
H19 C25 1_555 1_555
C26 C16 1_555 1_555
C27 C26 1_555 1_555
H20 C27 1_555 1_555
C28 C27 1_555 1_555
H21 C28 1_555 1_555
C29 C28 1_555 1_555
C30 C29 1_555 1_555
C31 C30 1_555 1_555
C32 C31 1_555 1_555
H22 C32 1_555 1_555
C33 C32 1_555 1_555
C34 C33 1_555 1_555
H23 C34 1_555 1_555
C35 C34 1_555 1_555
H24 C35 1_555 1_555
C36 C31 1_555 1_555
H25 C36 1_555 1_555
C37 C30 1_555 1_555
C38 C37 1_555 1_555
H26 C38 1_555 1_555
C39 C38 1_555 1_555
H27 C39 1_555 1_555
C40 C39 1_555 1_555
C41 C1 1_555 1_555
C42 C41 1_555 1_555
C43 C42 1_555 1_555
C44 C43 1_555 1_555
H28 C44 1_555 1_555
C45 C44 1_555 1_555
C46 C45 1_555 1_555
H29 C46 1_555 1_555
C47 C42 1_555 1_555
C48 C43 1_555 1_555
H30 C48 1_555 1_555
H31 C48 1_555 1_555
H32 C48 1_555 1_555
C49 C45 1_555 1_555
H33 C49 1_555 1_555
H34 C49 1_555 1_555
H35 C49 1_555 1_555
C50 C47 1_555 1_555
H36 C50 1_555 1_555
H37 C50 1_555 1_555
H38 C50 1_555 1_555
C51 H39 1_555 1_555
H40 C51 1_555 1_555
C52 C51 1_555 1_555
C53 C52 1_555 1_555
C54 C53 1_555 1_555
C55 C54 1_555 1_555
C56 C55 1_555 1_555
H41 C56 1_555 1_555
H42 C56 1_555 1_555
C57 H43 1_555 1_555
H44 C57 1_555 1_555
C58 C57 1_555 1_555
C59 C58 1_555 1_555
C60 C59 1_555 1_555
C61 C60 1_555 1_555
C62 C61 1_555 1_555
H45 C62 1_555 1_555
H46 C62 1_555 1_555
C63 C64 1_555 1_555
C64 H47 1_555 1_555
C65 C64 1_555 1_555
H48 C65 1_555 1_555
C66 C65 1_555 1_555
C67 C66 1_555 1_555
C68 C67 1_555 1_555
C69 C68 1_555 1_555
H49 C69 1_555 1_555
C70 C69 1_555 1_555
H50 C70 1_555 1_555
C71 C70 1_555 1_555
H51 C71 1_555 1_555
C72 C71 1_555 1_555
C73 C68 1_555 1_555
H52 C73 1_555 1_555
C74 C67 1_555 1_555
C75 C74 1_555 1_555
H53 C75 1_555 1_555
C76 C75 1_555 1_555
H54 C76 1_555 1_555
C77 C76 1_555 1_555
C78 C77 1_555 1_555
C79 C78 1_555 1_555
C80 C79 1_555 1_555
C81 C80 1_555 1_555
H55 C81 1_555 1_555
C82 C81 1_555 1_555
C83 C82 1_555 1_555
H56 C83 1_555 1_555
C84 C79 1_555 1_555
C85 C80 1_555 1_555
H57 C85 1_555 1_555
H58 C85 1_555 1_555
H59 C85 1_555 1_555
C86 C82 1_555 1_555
H60 C86 1_555 1_555
H61 C86 1_555 1_555
H62 C86 1_555 1_555
C87 C84 1_555 1_555
H63 C87 1_555 1_555
H64 C87 1_555 1_555
H65 C87 1_555 1_555
C88 C78 1_555 1_555
C89 C88 1_555 1_555
H66 C89 1_555 1_555
C90 C89 1_555 1_555
H67 C90 1_555 1_555
C91 C90 1_555 1_555
C92 C91 1_555 1_555
C93 C92 1_555 1_555
C94 C93 1_555 1_555
H68 C94 1_555 1_555
C95 C94 1_555 1_555
H69 C95 1_555 1_555
C96 C95 1_555 1_555
H70 C96 1_555 1_555
C97 C96 1_555 1_555
C98 C93 1_555 1_555
H71 C98 1_555 1_555
C99 C92 1_555 1_555
C100 C99 1_555 1_555
H72 C100 1_555 1_555
C101 C100 1_555 1_555
H73 C101 1_555 1_555
C102 C101 1_555 1_555
C103 C63 1_555 1_555
C104 C103 1_555 1_555
C105 C104 1_555 1_555
C106 C105 1_555 1_555
H74 C106 1_555 1_555
C107 C106 1_555 1_555
C108 C107 1_555 1_555
H75 C108 1_555 1_555
C109 C104 1_555 1_555
C110 C105 1_555 1_555
H76 C110 1_555 1_555
H77 C110 1_555 1_555
H78 C110 1_555 1_555
C111 C107 1_555 1_555
H79 C111 1_555 1_555
H80 C111 1_555 1_555
H81 C111 1_555 1_555
C112 C109 1_555 1_555
H82 C112 1_555 1_555
H83 C112 1_555 1_555
H84 C112 1_555 1_555
N1 C1 1_555 1_555
N2 C12 1_555 1_555
N3 C26 1_555 1_555
N4 C37 1_555 1_555
N5 C63 1_555 1_555
N6 C74 1_555 1_555
N7 C88 1_555 1_555
N8 C99 1_555 1_555
O1 C10 1_555 1_555
O2 C56 1_555 1_555
O3 C33 1_555 1_555
O4 C62 1_555 1_555
Zn1 N1 1_555 1_555
Zn2 N5 1_555 1_555
C113 C114 1_555 1_555
C114 C115 1_555 1_555
C115 C116 1_555 1_555
C116 C117 1_555 1_555
C117 C113 1_555 1_555
C118 C117 1_555 1_555
C119 C118 1_555 1_555
C120 C119 1_555 1_555
C121 C113 1_555 1_555
C122 C121 1_555 1_555
C123 C122 1_555 1_555
C124 C114 1_555 1_555
C125 C124 1_555 1_555
C126 C125 1_555 1_555
C127 C115 1_555 1_555
C128 C127 1_555 1_555
C129 C128 1_555 1_555
C130 C116 1_555 1_555
C131 C130 1_555 1_555
C132 C118 1_555 1_555
C133 C132 1_555 1_555
C134 C133 1_555 1_555
C135 C119 1_555 1_555
C136 C135 1_555 1_555
C137 C120 1_555 1_555
C138 C137 1_555 1_555
C139 C122 1_555 1_555
C140 C139 1_555 1_555
C141 C123 1_555 1_555
C142 C141 1_555 1_555
C143 C125 1_555 1_555
C144 C143 1_555 1_555
C145 C126 1_555 1_555
C146 C145 1_555 1_555
C147 C128 1_555 1_555
C148 C147 1_555 1_555
C149 C129 1_555 1_555
C150 C149 1_555 1_555
C151 C131 1_555 1_555
C152 C133 1_555 1_555
C153 C152 1_555 1_555
C154 C153 1_555 1_555
C155 C134 1_555 1_555
C156 C155 1_555 1_555
C157 C136 1_555 1_555
C158 C157 1_555 1_555
C159 C138 1_555 1_555
C160 C159 1_555 1_555
C161 C140 1_555 1_555
C162 C161 1_555 1_555
C163 C142 1_555 1_555
C164 C163 1_555 1_555
C165 C144 1_555 1_555
C166 C165 1_555 1_555
C167 C146 1_555 1_555
C168 C167 1_555 1_555
C169 C148 1_555 1_555
C170 C169 1_555 1_555
C171 C150 1_555 1_555
C172 C153 1_555 1_555
C173 C172 1_555 1_555
C174 C173 1_555 1_555
C175 C154 1_555 1_555
C176 C156 1_555 1_555
C177 C176 1_555 1_555
C178 C158 1_555 1_555
C179 C160 1_555 1_555
C180 C179 1_555 1_555
C181 C162 1_555 1_555
C182 C164 1_555 1_555
C183 C182 1_555 1_555
C184 C166 1_555 1_555
C185 C168 1_555 1_555
C186 C185 1_555 1_555
C187 C170 1_555 1_555
C188 C186 1_555 1_555
C189 C183 1_555 1_555
C190 C180 1_555 1_555
C191 C177 1_555 1_555
C192 C174 1_555 1_555
N9 Sc1 1_555 1_555
Sc2 C152 1_555 1_555
Sc3 N9 1_555 1_555
C193 C194 1_555 1_555
C194 H85 1_555 1_555
C195 C194 1_555 1_555
H86 C195 1_555 1_555
C196 C195 1_555 1_555
C197 C196 1_555 1_555
H87 C197 1_555 1_555
C198 C193 1_555 1_555
H88 C198 1_555 1_555
C199 C193 1_555 1_555
H89 C199 1_555 1_555
H90 C199 1_555 1_555
H91 C199 1_555 1_555
C200 C196 1_555 1_555
H92 C200 1_555 1_555
H93 C200 1_555 1_555
H94 C200 1_555 1_555
C225 C226 1_555 1_555
C226 H125 1_555 1_555
C227 C226 1_555 1_555
H126 C227 1_555 1_555
C228 C227 1_555 1_555
C229 C228 1_555 1_555
H127 C229 1_555 1_555
C230 C225 1_555 1_555
H128 C230 1_555 1_555
C231 C225 1_555 1_555
H129 C231 1_555 1_555
H130 C231 1_555 1_555
H131 C231 1_555 1_555
C232 C228 1_555 1_555
H132 C232 1_555 1_555
H133 C232 1_555 1_555
H134 C232 1_555 1_555
C4 N1 1_555 1_555
C10 C11 1_555 1_555
C15 N2 1_555 1_555
C21 C22 1_555 1_555
C29 N3 1_555 1_555
C35 C36 1_555 1_555
C40 C41 1_555 1_555
C40 N4 1_555 1_555
C46 C47 1_555 1_555
C51 O1 1_555 1_555
C57 O3 1_555 1_555
C66 N5 1_555 1_555
C72 C73 1_555 1_555
C72 O4 1_555 1_555
C77 N6 1_555 1_555
C83 C84 1_555 1_555
C91 N7 1_555 1_555
C97 C98 1_555 1_555
C97 O2 1_555 1_555
C102 C103 1_555 1_555
C102 N8 1_555 1_555
C108 C109 1_555 1_555
N2 Zn1 1_555 1_555
N3 Zn1 1_555 1_555
N4 Zn1 1_555 1_555
N6 Zn2 1_555 1_555
N7 Zn2 1_555 1_555
N8 Zn2 1_555 1_555
C120 C121 1_555 1_555
C123 C124 1_555 1_555
C126 C127 1_555 1_555
C129 C130 1_555 1_555
C131 C132 1_555 1_555
C134 C135 1_555 1_555
C136 C137 1_555 1_555
C138 C139 1_555 1_555
C140 C141 1_555 1_555
C142 C143 1_555 1_555
C144 C145 1_555 1_555
C146 C147 1_555 1_555
C148 C149 1_555 1_555
C150 C151 1_555 1_555
C151 C152 1_555 1_555
C154 C155 1_555 1_555
C156 C157 1_555 1_555
C158 C159 1_555 1_555
C160 C161 1_555 1_555
C162 C163 1_555 1_555
C164 C165 1_555 1_555
C166 C167 1_555 1_555
C168 C169 1_555 1_555
C170 C171 1_555 1_555
C171 C172 1_555 1_555
C173 C187 1_555 1_555
C174 C175 1_555 1_555
C175 C176 1_555 1_555
C177 C178 1_555 1_555
C178 C179 1_555 1_555
C180 C181 1_555 1_555
C181 C182 1_555 1_555
C183 C184 1_555 1_555
C184 C185 1_555 1_555
C186 C187 1_555 1_555
C188 C189 1_555 1_555
C188 C192 1_555 1_555
C189 C190 1_555 1_555
C190 C191 1_555 1_555
C191 C192 1_555 1_555
N9 Sc2 1_555 1_555
C197 C198 1_555 1_555
C229 C230 1_555 1_555

#END
