
#######################################################################
#
#                 Cambridge Crystallographic Data Centre
#                                CCDC 
#
#######################################################################
#
# If this CIF has been generated from an entry in the Cambridge 
# Structural Database, then it will include bibliographic, chemical, 
# crystal, experimental, refinement or atomic coordinate data resulting 
# from the CCDC's data processing and validation procedures.
#
#######################################################################

data_CAFQOR
_chemical_formula_moiety         
'C112 H100 N8 O4 Zn2,0.5(C80),0.5(N1 Sc3),2.25(C8 H10)'
_chemical_name_systematic        
"hemikis(C80Fullerene (\m~3~-nitrido)-tri-scandium) (\m~2~-5,5':15,15'-bis(hexylene-1,6-dioxybis(1,3-phenylene))-10,10',20,20'-tetramesitylporphyrin)-di-zinc p-xylene solvate"
_symmetry_cell_setting           monoclinic
_symmetry_space_group_name_H-M   'C 2/c'
_symmetry_Int_Tables_number      15
_space_group_name_Hall           '-C 2yn'
loop_
_symmetry_equiv_pos_site_id
_symmetry_equiv_pos_as_xyz
1 x,y,z
2 -x,y,1/2-z
3 1/2+x,1/2+y,z
4 1/2-x,1/2+y,1/2-z
5 -x,-y,-z
6 x,-y,1/2+z
7 1/2-x,1/2-y,-z
8 1/2+x,1/2-y,1/2+z
_cell_length_a                   34.2052(14)
_cell_length_b                   24.7010(12)
_cell_length_c                   31.3815(14)
_cell_angle_alpha                90
_cell_angle_beta                 110.573(2)
_cell_angle_gamma                90
_cell_volume                     24823.4
_exptl_crystal_colour            purple
_exptl_crystal_description       needle
_cell_formula_units_Z            8
loop_
_atom_site_label
_atom_site_type_symbol
_atom_site_fract_x
_atom_site_fract_y
_atom_site_fract_z
C119 C 0.28915(4) 0.08432(6) 0.55162(4)
C120 C 0.32189(4) 0.10826(6) 0.53674(4)
H113 H 0.3180 0.0959 0.5059
H114 H 0.3494 0.0969 0.5575
H115 H 0.3199 0.1478 0.5370
C121 C 0.22600(4) 0.03219(6) 0.57562(4)
C122 C 0.19471(4) 0.00447(6) 0.59016(4)
H116 H 0.1668 0.0107 0.5676
H117 H 0.1959 0.0187 0.6197
H118 H 0.2006 -0.0345 0.5928
C123 C 0.25371(4) 0.06595(6) 0.51834(4)
H119 H 0.2496 0.0702 0.4870
C124 C 0.22377(4) 0.04062(6) 0.53264(4)
H120 H 0.1993 0.0281 0.5094
C125 C 0.25911(4) 0.05410(6) 0.60824(4)
H121 H 0.2603 0.0516 0.6389
C126 C 0.29128(4) 0.07985(6) 0.59983(4)
H122 H 0.3142 0.0944 0.6240
N9 N 0.5000 0.2204 0.2500
Sc1 Sc 0.5033 0.1823 0.3078
Sc4 Sc 0.5067 0.2967 0.2746
Sc1A Sc 0.4967 0.1823 0.1922
Sc4A Sc 0.4933 0.2967 0.2254
C127 C 0.608313(14) 0.18649(2) 0.354139(15)
C128 C 0.617711(15) 0.23966(2) 0.343619(17)
C129 C 0.596285(15) 0.28146(2) 0.358533(16)
C130 C 0.575060(15) 0.25025(2) 0.381962(16)
C131 C 0.580641(14) 0.19195(2) 0.381249(15)
C132 C 0.549928(15) 0.15461(2) 0.377074(18)
C133 C 0.550097(15) 0.10596(2) 0.350052(19)
C134 C 0.575538(16) 0.09935(2) 0.324900(17)
C135 C 0.605180(15) 0.14051(2) 0.329024(16)
C136 C 0.615612(19) 0.14813(2) 0.286856(17)
C137 C 0.62531(2) 0.20224(2) 0.276143(18)
C138 C 0.626213(19) 0.24869(2) 0.301388(19)
C139 C 0.61328(2) 0.29748(2) 0.28094(2)
C140 C 0.59043(2) 0.33706(2) 0.294807(19)
C141 C 0.581622(17) 0.32852(2) 0.334769(18)
C142 C 0.548395(18) 0.34793(2) 0.336010(19)
C143 C 0.522581(16) 0.31513(2) 0.36271(2)
C144 C 0.536127(15) 0.26748(2) 0.382426(18)
C145 C 0.503730(16) 0.22666(2) 0.38047(2)
C146 C 0.511816(16) 0.17105(2) 0.37818(2)
C147 C 0.473417(15) 0.14754(2) 0.35326(3)
C148 C 0.438629(15) 0.18959(3) 0.33994(3)
C149 C 0.459304(15) 0.24003(3) 0.35864(3)
C150 C 0.445835(15) 0.28674(3) 0.33468(3)
C151 C 0.476025(16) 0.32668(2) 0.33792(2)
C152 C 0.475382(19) 0.36309(2) 0.30078(2)
C153 C 0.51471(2) 0.37566(2) 0.29910(2)
C154 C 0.52285(2) 0.38274(2) 0.26008(2)
C155 C 0.56178(2) 0.36482(2) 0.25614(2)
C156 C 0.59803(3) 0.29949(3) 0.23113(2)
C157 C 0.43476(3) 0.34254(3) 0.28305(2)
C158 C 0.471358(16) 0.10357(2) 0.32603(3)
C159 C 0.507465(16) 0.08134(2) 0.32421(2)
C160 C 0.512739(18) 0.05879(2) 0.28109(2)
C161 C 0.552212(18) 0.07031(2) 0.283248(19)
C162 C 0.56034(2) 0.08061(3) 0.240994(17)
C163 C 0.59411(2) 0.11906(3) 0.243917(17)
C164 C 0.41053(3) 0.15546(3) 0.293070(17)
C165 C 0.60892(3) 0.20611(3) 0.226687(18)
C166 C 0.404951(14) 0.18737(3) 0.29582(3)
C167 C 0.60809(3) 0.25450(4) 0.35445(3)
C168 C 0.61749(2) 0.20134(4) 0.34393(3)
C169 C 0.59606(3) 0.15952(4) 0.35884(3)
C170 C 0.57483(3) 0.19074(4) 0.38227(2)
C171 C 0.58041(3) 0.24903(4) 0.38156(2)
C172 C 0.54971(3) 0.28638(4) 0.377380(19)
C173 C 0.54987(3) 0.33503(3) 0.35036(2)
C174 C 0.57531(3) 0.34164(3) 0.32520(2)
C175 C 0.60495(3) 0.30047(3) 0.32933(3)
C176 C 0.61539(2) 0.29287(3) 0.28716(3)
C177 C 0.625080(17) 0.23875(3) 0.27645(3)
C178 C 0.625990(19) 0.19230(3) 0.30169(3)
C179 C 0.613050(17) 0.14351(3) 0.28124(3)
C180 C 0.59021(2) 0.10393(3) 0.29511(3)
C181 C 0.58139(2) 0.11248(3) 0.33507(3)
C182 C 0.54817(3) 0.09306(3) 0.33631(2)
C183 C 0.52236(3) 0.12586(3) 0.363010(19)
C184 C 0.53590(3) 0.17351(4) 0.382730(18)
C185 C 0.50351(3) 0.21433(3) 0.380780(15)
C186 C 0.51159(4) 0.26994(3) 0.378480(16)
C187 C 0.47320(3) 0.29345(3) 0.353550(17)
C188 C 0.43841(3) 0.25141(3) 0.340240(17)
C189 C 0.45908(3) 0.20097(3) 0.358940(15)
C190 C 0.44561(3) 0.15425(3) 0.334980(16)
C191 C 0.47580(3) 0.11431(3) 0.338220(17)
C192 C 0.47516(3) 0.07790(3) 0.301090(19)
C193 C 0.51449(2) 0.06533(3) 0.29941(2)
C194 C 0.47737(2) 0.05825(3) 0.23962(3)
C195 C 0.561550(18) 0.07617(3) 0.25644(3)
C196 C 0.597800(15) 0.14150(3) 0.23144(3)
C197 C 0.434982(16) 0.09845(3) 0.28274(3)
C198 C 0.47113(3) 0.33741(3) 0.326340(18)
C199 C 0.50724(3) 0.35966(3) 0.324510(19)
C200 C 0.51252(3) 0.38221(3) 0.28139(2)
C201 C 0.55200(2) 0.37068(3) 0.28355(2)
C202 C 0.56011(2) 0.36038(3) 0.24129(3)
C203 C 0.593890(18) 0.32193(3) 0.24422(3)
C204 C 0.410751(15) 0.28553(3) 0.29277(3)
C205 C 0.608690(14) 0.23488(3) 0.22699(3)
C206 C 0.40473(3) 0.25362(3) 0.296130(19)
C127A C 0.391687(14) 0.18649(2) 0.145861(15)
C128A C 0.382289(15) 0.23966(2) 0.156381(17)
C129A C 0.403715(15) 0.28146(2) 0.141467(16)
C130A C 0.424940(15) 0.25025(2) 0.118038(16)
C131A C 0.419359(14) 0.19195(2) 0.118751(15)
C132A C 0.450072(15) 0.15461(2) 0.122926(18)
C133A C 0.449903(15) 0.10596(2) 0.149948(19)
C134A C 0.424462(16) 0.09935(2) 0.175100(17)
C135A C 0.394820(15) 0.14051(2) 0.170976(16)
C136A C 0.384388(19) 0.14813(2) 0.213144(17)
C137A C 0.37469(2) 0.20224(2) 0.223857(18)
C138A C 0.373787(19) 0.24869(2) 0.198612(19)
C139A C 0.38672(2) 0.29748(2) 0.21906(2)
C140A C 0.40957(2) 0.33706(2) 0.205193(19)
C141A C 0.418378(17) 0.32852(2) 0.165231(18)
C142A C 0.451605(18) 0.34793(2) 0.163990(19)
C143A C 0.477419(16) 0.31513(2) 0.13729(2)
C144A C 0.463873(15) 0.26748(2) 0.117574(18)
C145A C 0.496270(16) 0.22666(2) 0.11953(2)
C146A C 0.488184(16) 0.17105(2) 0.12182(2)
C147A C 0.526583(15) 0.14754(2) 0.14674(3)
C148A C 0.561371(15) 0.18959(3) 0.16006(3)
C149A C 0.540696(15) 0.24003(3) 0.14136(3)
C150A C 0.554165(15) 0.28674(3) 0.16532(3)
C151A C 0.523975(16) 0.32668(2) 0.16208(2)
C152A C 0.524618(19) 0.36309(2) 0.19922(2)
C153A C 0.48529(2) 0.37566(2) 0.20090(2)
C154A C 0.47715(2) 0.38274(2) 0.23992(2)
C155A C 0.43822(2) 0.36482(2) 0.24386(2)
C156A C 0.40197(3) 0.29949(3) 0.26887(2)
C157A C 0.56524(3) 0.34254(3) 0.21695(2)
C158A C 0.528642(16) 0.10357(2) 0.17397(3)
C159A C 0.492535(16) 0.08134(2) 0.17579(2)
C160A C 0.487261(18) 0.05879(2) 0.21891(2)
C161A C 0.447788(18) 0.07031(2) 0.216752(19)
C162A C 0.43966(2) 0.08061(3) 0.259006(17)
C163A C 0.40589(2) 0.11906(3) 0.256083(17)
C164A C 0.58947(3) 0.15546(3) 0.206930(17)
C165A C 0.39108(3) 0.20611(3) 0.273313(18)
C166A C 0.595049(14) 0.18737(3) 0.20418(3)
C167A C 0.39191(3) 0.25450(4) 0.14555(3)
C168A C 0.38251(2) 0.20134(4) 0.15607(3)
C169A C 0.40394(3) 0.15952(4) 0.14116(3)
C170A C 0.42517(3) 0.19074(4) 0.11773(2)
C171A C 0.41959(3) 0.24903(4) 0.11844(2)
C172A C 0.45029(3) 0.28638(4) 0.122620(19)
C173A C 0.45013(3) 0.33503(3) 0.14964(2)
C174A C 0.42469(3) 0.34164(3) 0.17480(2)
C175A C 0.39505(3) 0.30047(3) 0.17067(3)
C176A C 0.38461(2) 0.29287(3) 0.21284(3)
C177A C 0.374920(17) 0.23875(3) 0.22355(3)
C178A C 0.374010(19) 0.19230(3) 0.19831(3)
C179A C 0.386950(17) 0.14351(3) 0.21876(3)
C180A C 0.40979(2) 0.10393(3) 0.20489(3)
C181A C 0.41861(2) 0.11248(3) 0.16493(3)
C182A C 0.45183(3) 0.09306(3) 0.16369(2)
C183A C 0.47764(3) 0.12586(3) 0.136990(19)
C184A C 0.46410(3) 0.17351(4) 0.117270(18)
C185A C 0.49649(3) 0.21433(3) 0.119220(15)
C186A C 0.48841(4) 0.26994(3) 0.121520(16)
C187A C 0.52680(3) 0.29345(3) 0.146450(17)
C188A C 0.56159(3) 0.25141(3) 0.159760(17)
C189A C 0.54092(3) 0.20097(3) 0.141060(15)
C190A C 0.55439(3) 0.15425(3) 0.165020(16)
C191A C 0.52420(3) 0.11431(3) 0.161780(17)
C192A C 0.52484(3) 0.07790(3) 0.198910(19)
C193A C 0.48551(2) 0.06533(3) 0.20059(2)
C194A C 0.52263(2) 0.05825(3) 0.26038(3)
C195A C 0.438450(18) 0.07617(3) 0.24356(3)
C196A C 0.402200(15) 0.14150(3) 0.26856(3)
C197A C 0.565018(16) 0.09845(3) 0.21726(3)
C198A C 0.52887(3) 0.33741(3) 0.173660(18)
C199A C 0.49276(3) 0.35966(3) 0.175490(19)
C200A C 0.48748(3) 0.38221(3) 0.21861(2)
C201A C 0.44800(2) 0.37068(3) 0.21645(2)
C202A C 0.43989(2) 0.36038(3) 0.25871(3)
C203A C 0.406110(18) 0.32193(3) 0.25578(3)
C204A C 0.589249(15) 0.28553(3) 0.20723(3)
C205A C 0.391310(14) 0.23488(3) 0.27301(3)
C206A C 0.59527(3) 0.25362(3) 0.203870(19)
C207 C 0.47288(6) 0.53046(4) 0.01424(3)
C208 C 0.45971(6) 0.48269(5) -0.00926(3)
H123 H 0.4317 0.4706 -0.0166
C209 C 0.51147(6) 0.54783(5) 0.02225(3)
H124 H 0.5199 0.5816 0.0371
C210 C 0.43965(6) 0.56193(4) 0.02915(3)
H125 H 0.4523 0.5950 0.0455
H126 H 0.4303 0.5388 0.0491
H127 H 0.4157 0.5715 0.0021
C207D C 0.52712(6) 0.46954(4) -0.01424(3)
C208D C 0.54029(6) 0.51731(5) 0.00926(3)
H123D H 0.5683 0.5294 0.0166
C209D C 0.48853(6) 0.45217(5) -0.02225(3)
H124D H 0.4801 0.4184 -0.0371
C210D C 0.56035(6) 0.43807(4) -0.02915(3)
H125D H 0.5477 0.4050 -0.0455
H126D H 0.5697 0.4612 -0.0491
H127D H 0.5843 0.4285 -0.0021
C223 C 0.6019(2) 0.7491(3) 0.43428(16)
C224 C 0.5849(4) 0.7829(4) 0.3969(2)
H143 H 0.5896 0.8208 0.4001
C225 C 0.5612(4) 0.7612(5) 0.3549(2)
H144 H 0.5496 0.7843 0.3293
C226 C 0.5544(5) 0.7057(6) 0.3503(3)
C227 C 0.5713(5) 0.6719(4) 0.3876(4)
H145 H 0.5666 0.6339 0.3845
C228 C 0.5950(4) 0.6935(3) 0.4296(3)
H146 H 0.6066 0.6704 0.4552
C229 C 0.6276(4) 0.7711(6) 0.4805(3)
H147 H 0.6303 0.8104 0.4785
H148 H 0.6554 0.7545 0.4906
H149 H 0.6138 0.7626 0.5023
C230 C 0.5277(5) 0.6937(9) 0.3015(3)
H150 H 0.5223 0.6547 0.2979
H151 H 0.5424 0.7053 0.2813
H152 H 0.5012 0.7132 0.2937
C1 C 0.46479(17) 0.3361(3) 0.45462(19)
C2 C 0.46978(18) 0.2964(3) 0.48978(19)
H1 H 0.4480 0.2778 0.4959
C3 C 0.51139(18) 0.2905(3) 0.51248(19)
H2 H 0.5241 0.2679 0.5381
C4 C 0.53271(18) 0.3249(3) 0.49060(19)
C5 C 0.57610(18) 0.3278(3) 0.50247(19)
C6 C 0.60323(18) 0.2938(3) 0.54155(19)
C7 C 0.60482(19) 0.2382(3) 0.5367(2)
C8 C 0.63093(19) 0.2070(3) 0.57360(19)
H3 H 0.6320 0.1689 0.5701
C9 C 0.65475(19) 0.2301(3) 0.6142(2)
C10 C 0.65350(19) 0.2854(3) 0.6185(2)
H4 H 0.6701 0.3018 0.6464
C11 C 0.62797(19) 0.3187(3) 0.5824(2)
C12 C 0.5798(2) 0.2094(3) 0.4935(2)
H5 H 0.5939 0.1758 0.4909
H6 H 0.5771 0.2328 0.4673
H7 H 0.5519 0.2010 0.4940
C13 C 0.6803(2) 0.1941(3) 0.6519(2)
H8 H 0.6966 0.2162 0.6780
H9 H 0.6993 0.1730 0.6411
H10 H 0.6622 0.1694 0.6610
C14 C 0.6280(2) 0.3792(3) 0.5898(2)
H11 H 0.6479 0.3963 0.5779
H12 H 0.6362 0.3867 0.6224
H13 H 0.6000 0.3936 0.5738
C15 C 0.59608(18) 0.3611(3) 0.47999(19)
C16 C 0.64085(18) 0.3619(3) 0.4894(2)
H14 H 0.6612 0.3406 0.5114
C17 C 0.64821(18) 0.3981(3) 0.46144(19)
H15 H 0.6747 0.4069 0.4597
C18 C 0.60856(17) 0.4212(3) 0.43438(19)
C19 C 0.60292(17) 0.4627(3) 0.40206(19)
C20 C 0.63959(18) 0.4848(3) 0.39206(19)
C21 C 0.65597(17) 0.4564(3) 0.36483(19)
H16 H 0.6468 0.4204 0.3562
C22 C 0.68596(18) 0.4795(3) 0.3494(2)
C23 C 0.70060(19) 0.5319(3) 0.3630(2)
H17 H 0.7210 0.5481 0.3530
C24 C 0.6847(2) 0.5591(3) 0.3913(2)
H18 H 0.6949 0.5943 0.4013
C25 C 0.6540(2) 0.5370(3) 0.4060(2)
H19 H 0.6431 0.5572 0.4251
C26 C 0.56400(17) 0.4865(3) 0.37671(19)
C27 C 0.55915(19) 0.5271(3) 0.3437(2)
H20 H 0.5804 0.5419 0.3342
C28 C 0.51747(19) 0.5411(3) 0.3278(2)
H21 H 0.5044 0.5678 0.3055
C29 C 0.49791(18) 0.5079(3) 0.3512(2)
C30 C 0.45522(19) 0.5104(3) 0.34455(19)
C31 C 0.43041(18) 0.5523(3) 0.3109(2)
C32 C 0.40771(18) 0.5373(3) 0.26564(19)
C33 C 0.3894(2) 0.5765(3) 0.2344(2)
H22 H 0.3738 0.5659 0.2041
C34 C 0.39281(19) 0.6320(3) 0.2451(2)
C35 C 0.4149(2) 0.6449(3) 0.2893(2)
H23 H 0.4182 0.6820 0.2975
C36 C 0.4330(2) 0.6064(3) 0.3231(2)
C37 C 0.4055(2) 0.4792(3) 0.2515(2)
H24 H 0.3864 0.4757 0.2199
H25 H 0.3952 0.4573 0.2713
H26 H 0.4334 0.4667 0.2538
C38 C 0.3748(3) 0.6723(3) 0.2080(3)
H27 H 0.3792 0.7089 0.2209
H28 H 0.3448 0.6656 0.1933
H29 H 0.3885 0.6688 0.1855
C39 C 0.4579(2) 0.6242(3) 0.3705(2)
H30 H 0.4599 0.5942 0.3917
H31 H 0.4440 0.6550 0.3788
H32 H 0.4859 0.6349 0.3720
C40 C 0.43449(19) 0.4750(3) 0.36329(19)
C41 C 0.38995(18) 0.4706(3) 0.3516(2)
H33 H 0.3698 0.4949 0.3326
C42 C 0.38176(19) 0.4264(3) 0.3718(2)
H34 H 0.3549 0.4133 0.3692
C43 C 0.42132(18) 0.4026(3) 0.39845(19)
C44 C 0.42620(18) 0.3565(3) 0.4264(2)
C45 C 0.38796(17) 0.3274(3) 0.4263(2)
C46 C 0.3579(2) 0.3542(3) 0.4396(2)
H35 H 0.3630 0.3900 0.4513
C47 C 0.3205(2) 0.3279(3) 0.4355(3)
H36 H 0.3005 0.3456 0.4453
C48 C 0.3125(2) 0.2763(4) 0.4173(3)
H37 H 0.2869 0.2588 0.4144
C49 C 0.3422(2) 0.2501(4) 0.4032(3)
C50 C 0.37934(18) 0.2760(3) 0.4081(2)
H38 H 0.3995 0.2580 0.3987
C51 C 0.71415(14) 0.47647(14) 0.28912(12)
H39 H 0.6955 0.5073 0.2754
H40 H 0.7424 0.4910 0.3057
C52 C 0.71580(9) 0.43982(11) 0.25355(12)
H41 H 0.7255 0.4604 0.2321
H42 H 0.6871 0.4270 0.2365
C53 C 0.74390(10) 0.39061(11) 0.26984(8)
H43 H 0.7722 0.4029 0.2889
H44 H 0.7329 0.3680 0.2891
C54 C 0.74704(8) 0.35734(9) 0.23228(11)
H45 H 0.7736 0.3370 0.2440
H46 H 0.7492 0.3823 0.2085
C55 C 0.71346(12) 0.31811(9) 0.21006(10)
H47 H 0.7157 0.3070 0.1807
H48 H 0.6862 0.3364 0.2033
C56 C 0.71411(19) 0.26784(15) 0.2379(2)
H49 H 0.7161 0.2780 0.2692
H50 H 0.6883 0.2465 0.2238
C63 C 0.2965(2) 0.1755(4) 0.3702(3)
H63 H 0.2751 0.2004 0.3504
H64 H 0.2894 0.1677 0.3976
C64 C 0.2971(3) 0.1236(4) 0.3450(3)
H65 H 0.2680 0.1118 0.3288
H66 H 0.3100 0.1309 0.3218
C65 C 0.3204(2) 0.0788(4) 0.3750(3)
H67 H 0.3089 0.0438 0.3608
H68 H 0.3159 0.0811 0.4045
C66 C 0.3673(2) 0.0797(4) 0.3841(3)
H69 H 0.3724 0.0771 0.3550
H70 H 0.3795 0.1140 0.3992
C67 C 0.3874(2) 0.0325(4) 0.4142(3)
H71 H 0.3721 -0.0011 0.4012
H72 H 0.3856 0.0380 0.4448
C68 C 0.4336(2) 0.0263(4) 0.4189(2)
H73 H 0.4361 0.0208 0.3887
H74 H 0.4499 0.0588 0.4332
C69 C 0.57882(18) -0.0542(3) 0.36991(19)
C70 C 0.5540(2) -0.0976(3) 0.3466(2)
H75 H 0.5335 -0.1159 0.3553
C71 C 0.5645(2) -0.1089(3) 0.3090(2)
H76 H 0.5527 -0.1362 0.2868
C72 C 0.59696(19) -0.0711(3) 0.3100(2)
C73 C 0.61491(18) -0.0674(3) 0.27672(18)
C74 C 0.60098(18) -0.1081(3) 0.2387(2)
C75 C 0.56891(19) -0.0955(3) 0.1984(2)
C76 C 0.5561(2) -0.1334(3) 0.1631(2)
H77 H 0.5346 -0.1238 0.1355
C77 C 0.57360(19) -0.1834(3) 0.1672(2)
C78 C 0.6062(2) -0.1953(3) 0.2073(2)
H78 H 0.6192 -0.2297 0.2104
C79 C 0.6204(2) -0.1586(3) 0.2430(2)
C80 C 0.5482(2) -0.0411(3) 0.1939(2)
H79 H 0.5248 -0.0392 0.1649
H80 H 0.5685 -0.0127 0.1949
H81 H 0.5379 -0.0359 0.2191
C81 C 0.5580(2) -0.2233(3) 0.1291(2)
H82 H 0.5813 -0.2454 0.1278
H83 H 0.5454 -0.2039 0.1003
H84 H 0.5370 -0.2467 0.1343
C82 C 0.6560(2) -0.1739(3) 0.2864(3)
H85 H 0.6447 -0.1822 0.3103
H86 H 0.6756 -0.1435 0.2961
H87 H 0.6705 -0.2057 0.2806
C83 C 0.64404(17) -0.0285(3) 0.27499(18)
C84 C 0.66039(18) -0.0226(3) 0.23964(19)
H88 H 0.6539 -0.0447 0.2133
C85 C 0.68687(18) 0.0200(3) 0.2501(2)
H89 H 0.7018 0.0340 0.2320
C86 C 0.68827(17) 0.0401(2) 0.29366(19)
C87 C 0.71411(18) 0.0814(3) 0.3182(2)
C88 C 0.74229(18) 0.1081(3) 0.29756(18)
C89 C 0.77832(18) 0.0833(3) 0.2970(2)
H90 H 0.7855 0.0481 0.3095
C90 C 0.80383(18) 0.1099(3) 0.2781(2)
H91 H 0.8286 0.0926 0.2779
C91 C 0.7941(2) 0.1613(3) 0.2594(2)
H92 H 0.8122 0.1792 0.2469
C92 C 0.7575(2) 0.1863(3) 0.2593(2)
C93 C 0.73216(18) 0.1598(3) 0.27879(19)
H93 H 0.7075 0.1771 0.2794
C94 C 0.71734(17) 0.0976(3) 0.36217(19)
C95 C 0.74911(18) 0.1337(3) 0.39111(19)
H94 H 0.7707 0.1509 0.3836
C96 C 0.74214(17) 0.1381(3) 0.43021(19)
H95 H 0.7583 0.1587 0.4559
C97 C 0.70636(17) 0.1065(3) 0.42674(18)
C98 C 0.68782(17) 0.1036(3) 0.45998(18)
C99 C 0.70831(17) 0.1349(3) 0.50334(18)
C100 C 0.73241(19) 0.1070(3) 0.5421(2)
C101 C 0.75246(19) 0.1348(3) 0.5821(2)
H96 H 0.7689 0.1152 0.6083
C102 C 0.74912(18) 0.1904(3) 0.58483(19)
C103 C 0.72384(17) 0.2174(3) 0.54632(18)
H97 H 0.7201 0.2554 0.5478
C104 C 0.70372(17) 0.1905(3) 0.50545(19)
C105 C 0.7370(2) 0.0459(3) 0.5410(2)
H98 H 0.7605 0.0342 0.5678
H99 H 0.7423 0.0356 0.5133
H100 H 0.7113 0.0286 0.5411
C106 C 0.7719(2) 0.2209(3) 0.6282(2)
H101 H 0.7890 0.2491 0.6213
H102 H 0.7899 0.1963 0.6513
H103 H 0.7516 0.2377 0.6396
C107 C 0.6771(2) 0.2234(3) 0.4645(2)
H104 H 0.6833 0.2123 0.4376
H105 H 0.6834 0.2620 0.4704
H106 H 0.6475 0.2170 0.4592
C108 C 0.65233(18) 0.0729(3) 0.45645(19)
C109 C 0.63255(17) 0.0718(3) 0.49015(19)
H107 H 0.6398 0.0929 0.5171
C110 C 0.60181(18) 0.0349(3) 0.47575(19)
H108 H 0.5829 0.0255 0.4906
C111 C 0.60252(17) 0.0122(3) 0.43385(18)
C112 C 0.57691(17) -0.0303(3) 0.40986(19)
C113 C 0.54642(18) -0.0530(3) 0.42980(19)
C114 C 0.51174(18) -0.0239(3) 0.42915(19)
H109 H 0.5072 0.0113 0.4161
C115 C 0.48356(19) -0.0451(3) 0.4472(2)
C116 C 0.4917(2) -0.0949(3) 0.4688(2)
H110 H 0.4732 -0.1088 0.4828
C117 C 0.5258(2) -0.1242(3) 0.4704(2)
H111 H 0.5305 -0.1589 0.4843
C118 C 0.55399(4) -0.10305(6) 0.45125(4)
H112 H 0.5783 -0.1230 0.4530
N1 N 0.50362(4) 0.35259(6) 0.45587(4)
N2 N 0.57708(4) 0.39823(6) 0.44636(4)
N3 N 0.52701(4) 0.47484(6) 0.38161(4)
N4 N 0.45298(4) 0.43214(6) 0.39305(4)
N5 N 0.60509(4) -0.03796(6) 0.34760(4)
N6 N 0.66114(4) 0.01014(6) 0.30822(4)
N7 N 0.69204(4) 0.08006(6) 0.38524(4)
N8 N 0.63270(4) 0.03609(6) 0.42182(4)
O1 O 0.69861(4) 0.44762(6) 0.32096(4)
O2 O 0.74994(4) 0.23669(6) 0.23926(4)
O3 O 0.33665(4) 0.20000(6) 0.38321(4)
O4 O 0.44813(4) -0.02021(6) 0.44705(4)
Zn1 Zn 0.51531(2) 0.41667(2) 0.42140(2)
Zn2 Zn 0.648561(18) 0.02155(2) 0.36622(2)
C57? C 0.7269(2) 0.4696(2) 0.3020(3)
H51? H 0.7505 0.4865 0.3264
H52? H 0.7127 0.4980 0.2797
C58? C 0.74242(13) 0.4277(2) 0.2797(2)
H53? H 0.7638 0.4064 0.3033
H54? H 0.7564 0.4453 0.2606
C59? C 0.70963(12) 0.38878(17) 0.2499(2)
H55? H 0.6989 0.3664 0.2695
H56? H 0.6860 0.4099 0.2292
C60? C 0.72589(15) 0.35289(14) 0.22255(19)
H57? H 0.7538 0.3401 0.2424
H58? H 0.7301 0.3750 0.1982
C61? C 0.7011(2) 0.30488(15) 0.20084(17)
H59? H 0.7081 0.2951 0.1738
H60? H 0.6711 0.3146 0.1901
C62? C 0.7079(4) 0.2558(2) 0.2315(3)
H61? H 0.7048 0.2658 0.2608
H62? H 0.6873 0.2273 0.2168
C211? C 0.6958(3) 0.7288(4) 0.4061(3)
H128? H 0.6878 0.6907 0.4001
H129? H 0.7105 0.7406 0.3860
H130? H 0.6707 0.7510 0.4004
C212? C 0.7255(3) 0.7357(4) 0.4575(3)
C213? C 0.7367(4) 0.7914(4) 0.4677(3)
H131? H 0.7273 0.8195 0.4457
C214? C 0.7637(4) 0.8012(6) 0.5143(4)
H132? H 0.7733 0.8369 0.5233
C215? C 0.65546(17) 0.6813(5) 0.4481(4)
H133? H 0.6673 0.6528 0.4689
C216? C 0.6811(2) 0.7155(5) 0.4344(4)
C217? C 0.6638(3) 0.7572(6) 0.4039(5)
H134? H 0.6813 0.7806 0.3946
C218? C 0.6208(4) 0.7648(6) 0.3872(5)
H135? H 0.6089 0.7934 0.3663
C219? C 0.5951(2) 0.7307(6) 0.4009(5)
C220? C 0.61245(16) 0.6889(5) 0.4314(4)
H136? H 0.5949 0.6656 0.4407
C221? C 0.7253(2) 0.7001(12) 0.4399(10)
H137? H 0.7343 0.6695 0.4610
H138? H 0.7439 0.7310 0.4521
H139? H 0.7266 0.6898 0.4103
C222? C 0.5499(2) 0.7465(10) 0.3780(10)
H140? H 0.5322 0.7222 0.3881
H141? H 0.5423 0.7436 0.3449
H142? H 0.5459 0.7838 0.3861
Sc2? Sc 0.5095 0.3034 0.2621
Sc3? Sc 0.5247 0.1599 0.2978
Sc5? Sc 0.4724 0.2026 0.1859
Sc6? Sc 0.4566 0.2409 0.1918
Sc7? Sc 0.5283 0.2784 0.2981
Sc8? Sc 0.5190 0.1434 0.2659
loop_
_geom_bond_atom_site_label_1
_geom_bond_atom_site_label_2
_geom_bond_site_symmetry_1
_geom_bond_site_symmetry_2
C1 C2 1_555 1_555
C2 H1 1_555 1_555
C3 C2 1_555 1_555
H2 C3 1_555 1_555
C4 C3 1_555 1_555
C5 C4 1_555 1_555
C6 C5 1_555 1_555
C7 C6 1_555 1_555
C8 C7 1_555 1_555
H3 C8 1_555 1_555
C9 C8 1_555 1_555
C10 C9 1_555 1_555
H4 C10 1_555 1_555
C11 C6 1_555 1_555
C12 C7 1_555 1_555
H5 C12 1_555 1_555
H6 C12 1_555 1_555
H7 C12 1_555 1_555
C13 C9 1_555 1_555
H8 C13 1_555 1_555
H9 C13 1_555 1_555
H10 C13 1_555 1_555
C14 C11 1_555 1_555
H11 C14 1_555 1_555
H12 C14 1_555 1_555
H13 C14 1_555 1_555
C15 C5 1_555 1_555
C16 C15 1_555 1_555
H14 C16 1_555 1_555
C17 C16 1_555 1_555
H15 C17 1_555 1_555
C18 C17 1_555 1_555
C19 C18 1_555 1_555
C20 C19 1_555 1_555
C21 C20 1_555 1_555
H16 C21 1_555 1_555
C22 C21 1_555 1_555
C23 C22 1_555 1_555
H17 C23 1_555 1_555
C24 C23 1_555 1_555
H18 C24 1_555 1_555
C25 C20 1_555 1_555
H19 C25 1_555 1_555
C26 C19 1_555 1_555
C27 C26 1_555 1_555
H20 C27 1_555 1_555
C28 C27 1_555 1_555
H21 C28 1_555 1_555
C29 C28 1_555 1_555
C30 C29 1_555 1_555
C31 C30 1_555 1_555
C32 C31 1_555 1_555
C33 C32 1_555 1_555
H22 C33 1_555 1_555
C34 C33 1_555 1_555
C35 C34 1_555 1_555
H23 C35 1_555 1_555
C36 C31 1_555 1_555
C37 C32 1_555 1_555
H24 C37 1_555 1_555
H25 C37 1_555 1_555
H26 C37 1_555 1_555
C38 C34 1_555 1_555
H27 C38 1_555 1_555
H28 C38 1_555 1_555
H29 C38 1_555 1_555
C39 C36 1_555 1_555
H30 C39 1_555 1_555
H31 C39 1_555 1_555
H32 C39 1_555 1_555
C40 C30 1_555 1_555
C41 C40 1_555 1_555
H33 C41 1_555 1_555
C42 C41 1_555 1_555
H34 C42 1_555 1_555
C43 C42 1_555 1_555
C44 C1 1_555 1_555
C45 C44 1_555 1_555
C46 C45 1_555 1_555
H35 C46 1_555 1_555
C47 C46 1_555 1_555
H36 C47 1_555 1_555
C48 C47 1_555 1_555
H37 C48 1_555 1_555
C49 C48 1_555 1_555
C50 C45 1_555 1_555
H38 C50 1_555 1_555
C51 H39 1_555 1_555
H40 C51 1_555 1_555
C52 C51 1_555 1_555
H41 C52 1_555 1_555
H42 C52 1_555 1_555
C53 C52 1_555 1_555
H43 C53 1_555 1_555
H44 C53 1_555 1_555
C54 C53 1_555 1_555
H45 C54 1_555 1_555
H46 C54 1_555 1_555
C55 C54 1_555 1_555
H47 C55 1_555 1_555
H48 C55 1_555 1_555
C56 C55 1_555 1_555
H49 C56 1_555 1_555
H50 C56 1_555 1_555
C63 H63 1_555 1_555
H64 C63 1_555 1_555
C64 C63 1_555 1_555
H65 C64 1_555 1_555
H66 C64 1_555 1_555
C65 C64 1_555 1_555
H67 C65 1_555 1_555
H68 C65 1_555 1_555
C66 C65 1_555 1_555
H69 C66 1_555 1_555
H70 C66 1_555 1_555
C67 C66 1_555 1_555
H71 C67 1_555 1_555
H72 C67 1_555 1_555
C68 C67 1_555 1_555
H73 C68 1_555 1_555
H74 C68 1_555 1_555
C69 C70 1_555 1_555
C70 H75 1_555 1_555
C71 C70 1_555 1_555
H76 C71 1_555 1_555
C72 C71 1_555 1_555
C73 C72 1_555 1_555
C74 C73 1_555 1_555
C75 C74 1_555 1_555
C76 C75 1_555 1_555
H77 C76 1_555 1_555
C77 C76 1_555 1_555
C78 C77 1_555 1_555
H78 C78 1_555 1_555
C79 C74 1_555 1_555
C80 C75 1_555 1_555
H79 C80 1_555 1_555
H80 C80 1_555 1_555
H81 C80 1_555 1_555
C81 C77 1_555 1_555
H82 C81 1_555 1_555
H83 C81 1_555 1_555
H84 C81 1_555 1_555
C82 C79 1_555 1_555
H85 C82 1_555 1_555
H86 C82 1_555 1_555
H87 C82 1_555 1_555
C83 C73 1_555 1_555
C84 C83 1_555 1_555
H88 C84 1_555 1_555
C85 C84 1_555 1_555
H89 C85 1_555 1_555
C86 C85 1_555 1_555
C87 C86 1_555 1_555
C88 C87 1_555 1_555
C89 C88 1_555 1_555
H90 C89 1_555 1_555
C90 C89 1_555 1_555
H91 C90 1_555 1_555
C91 C90 1_555 1_555
H92 C91 1_555 1_555
C92 C91 1_555 1_555
C93 C88 1_555 1_555
H93 C93 1_555 1_555
C94 C87 1_555 1_555
C95 C94 1_555 1_555
H94 C95 1_555 1_555
C96 C95 1_555 1_555
H95 C96 1_555 1_555
C97 C96 1_555 1_555
C98 C97 1_555 1_555
C99 C98 1_555 1_555
C100 C99 1_555 1_555
C101 C100 1_555 1_555
H96 C101 1_555 1_555
C102 C101 1_555 1_555
C103 C102 1_555 1_555
H97 C103 1_555 1_555
C104 C99 1_555 1_555
C105 C100 1_555 1_555
H98 C105 1_555 1_555
H99 C105 1_555 1_555
H100 C105 1_555 1_555
C106 C102 1_555 1_555
H101 C106 1_555 1_555
H102 C106 1_555 1_555
H103 C106 1_555 1_555
C107 C104 1_555 1_555
H104 C107 1_555 1_555
H105 C107 1_555 1_555
H106 C107 1_555 1_555
C108 C98 1_555 1_555
C109 C108 1_555 1_555
H107 C109 1_555 1_555
C110 C109 1_555 1_555
H108 C110 1_555 1_555
C111 C110 1_555 1_555
C112 C69 1_555 1_555
C113 C112 1_555 1_555
C114 C113 1_555 1_555
H109 C114 1_555 1_555
C115 C114 1_555 1_555
C116 C115 1_555 1_555
H110 C116 1_555 1_555
C117 C116 1_555 1_555
H111 C117 1_555 1_555
C118 C113 1_555 1_555
H112 C118 1_555 1_555
C119 C120 1_555 1_555
C120 H113 1_555 1_555
H114 C120 1_555 1_555
H115 C120 1_555 1_555
C121 C122 1_555 1_555
C122 H116 1_555 1_555
H117 C122 1_555 1_555
H118 C122 1_555 1_555
C123 C119 1_555 1_555
H119 C123 1_555 1_555
C124 C121 1_555 1_555
H120 C124 1_555 1_555
C125 C121 1_555 1_555
H121 C125 1_555 1_555
C126 C119 1_555 1_555
H122 C126 1_555 1_555
N1 C1 1_555 1_555
N2 C15 1_555 1_555
N3 C26 1_555 1_555
N4 C40 1_555 1_555
N5 C69 1_555 1_555
N6 C83 1_555 1_555
N7 C94 1_555 1_555
N8 C108 1_555 1_555
O1 C22 1_555 1_555
O2 C56 1_555 1_555
O3 C49 1_555 1_555
O4 C68 1_555 1_555
N9 Sc1 1_555 1_555
C127 C128 1_555 1_555
C128 C129 1_555 1_555
C129 C130 1_555 1_555
C130 C131 1_555 1_555
C131 C127 1_555 1_555
C132 C131 1_555 1_555
C133 C132 1_555 1_555
C134 C133 1_555 1_555
C135 C127 1_555 1_555
C136 C135 1_555 1_555
C137 C136 1_555 1_555
C138 C128 1_555 1_555
C139 C138 1_555 1_555
C140 C139 1_555 1_555
C141 C129 1_555 1_555
C142 C141 1_555 1_555
C143 C142 1_555 1_555
C144 C130 1_555 1_555
C145 C144 1_555 1_555
C146 C132 1_555 1_555
C147 C146 1_555 1_555
C148 C147 1_555 1_555
C149 C145 1_555 1_555
C150 C149 1_555 1_555
C151 C143 1_555 1_555
C152 C151 1_555 1_555
C153 C142 1_555 1_555
C154 C153 1_555 1_555
C155 C140 1_555 1_555
C156 C139 1_555 1_555
C157 C152 1_555 1_555
C158 C147 1_555 1_555
C159 C133 1_555 1_555
C160 C159 1_555 1_555
C161 C134 1_555 1_555
C162 C161 1_555 1_555
C163 C136 1_555 1_555
C164 C148 1_555 1_555
C165 C137 1_555 1_555
C166 C148 1_555 1_555
C167 C127 1_555 1_555
C168 C127 1_555 1_555
C169 C127 1_555 1_555
C170 C127 1_555 1_555
C171 C129 1_555 1_555
C172 C130 1_555 1_555
C173 C141 1_555 1_555
C174 C140 1_555 1_555
C175 C128 1_555 1_555
C176 C138 1_555 1_555
C177 C137 1_555 1_555
C178 C136 1_555 1_555
C179 C135 1_555 1_555
C180 C134 1_555 1_555
C181 C133 1_555 1_555
C182 C133 1_555 1_555
C183 C132 1_555 1_555
C184 C131 1_555 1_555
C185 C144 1_555 1_555
C186 C143 1_555 1_555
C187 C143 1_555 1_555
C188 C148 1_555 1_555
C189 C145 1_555 1_555
C190 C147 1_555 1_555
C191 C147 1_555 1_555
C192 C158 1_555 1_555
C193 C159 1_555 1_555
C194 C160 1_555 1_555
C195 C161 1_555 1_555
C196 C136 1_555 1_555
C197 C158 1_555 1_555
C198 C150 1_555 1_555
C199 C142 1_555 1_555
C200 C152 1_555 1_555
C201 C140 1_555 1_555
C202 C140 1_555 1_555
C203 C139 1_555 1_555
C204 C150 1_555 1_555
C205 C137 1_555 1_555
C206 C150 1_555 1_555
C207 C208 1_555 1_555
C208 H123 1_555 1_555
C209 C207 1_555 1_555
H124 C209 1_555 1_555
C210 C207 1_555 1_555
H125 C210 1_555 1_555
H126 C210 1_555 1_555
H127 C210 1_555 1_555
Zn1 N1 1_555 1_555
Zn2 N5 1_555 1_555
C223 C224 1_555 1_555
C224 H143 1_555 1_555
C225 C224 1_555 1_555
H144 C225 1_555 1_555
C226 C225 1_555 1_555
C227 C226 1_555 1_555
H145 C227 1_555 1_555
C228 C223 1_555 1_555
H146 C228 1_555 1_555
C229 C223 1_555 1_555
H147 C229 1_555 1_555
H148 C229 1_555 1_555
H149 C229 1_555 1_555
C230 C226 1_555 1_555
H150 C230 1_555 1_555
H151 C230 1_555 1_555
H152 C230 1_555 1_555
Sc4 N9 1_555 1_555
C127A C128A 1_555 1_555
C128A C129A 1_555 1_555
C129A C130A 1_555 1_555
C130A C131A 1_555 1_555
C131A C127A 1_555 1_555
C132A C131A 1_555 1_555
C133A C132A 1_555 1_555
C134A C133A 1_555 1_555
C135A C127A 1_555 1_555
C136A C135A 1_555 1_555
C137A C136A 1_555 1_555
C138A C128A 1_555 1_555
C139A C138A 1_555 1_555
C140A C139A 1_555 1_555
C141A C129A 1_555 1_555
C142A C141A 1_555 1_555
C143A C142A 1_555 1_555
C144A C130A 1_555 1_555
C145A C144A 1_555 1_555
C146A C132A 1_555 1_555
C147A C146A 1_555 1_555
C148A C147A 1_555 1_555
C149A C145A 1_555 1_555
C150A C149A 1_555 1_555
C151A C143A 1_555 1_555
C152A C202 1_555 1_555
C153A C142A 1_555 1_555
C154A C154 1_555 1_555
C155A C157 1_555 1_555
C156A C157 1_555 1_555
C157A C155 1_555 1_555
C158A C147A 1_555 1_555
C159A C133A 1_555 1_555
C160A C194 1_555 1_555
C161A C194 1_555 1_555
C162A C192 1_555 1_555
C163A C164 1_555 1_555
C164A C163 1_555 1_555
C165A C164 1_555 1_555
C166A C165 1_555 1_555
C167A C127A 1_555 1_555
C168A C127A 1_555 1_555
C169A C127A 1_555 1_555
C170A C127A 1_555 1_555
C171A C129A 1_555 1_555
C172A C130A 1_555 1_555
C173A C141A 1_555 1_555
C174A C140A 1_555 1_555
C175A C128A 1_555 1_555
C176A C138A 1_555 1_555
C177A C137A 1_555 1_555
C178A C136A 1_555 1_555
C179A C135A 1_555 1_555
C180A C134A 1_555 1_555
C181A C133A 1_555 1_555
C182A C133A 1_555 1_555
C183A C132A 1_555 1_555
C184A C131A 1_555 1_555
C185A C144A 1_555 1_555
C186A C143A 1_555 1_555
C187A C143A 1_555 1_555
C188A C148A 1_555 1_555
C189A C145A 1_555 1_555
C190A C147A 1_555 1_555
C191A C147A 1_555 1_555
C192A C162 1_555 1_555
C193A C194 1_555 1_555
C194A C160 1_555 1_555
C195A C194 1_555 1_555
C196A C164 1_555 1_555
C197A C162 1_555 1_555
C198A C150A 1_555 1_555
C199A C142A 1_555 1_555
C200A C154 1_555 1_555
C201A C140A 1_555 1_555
C202A C152 1_555 1_555
C203A C157 1_555 1_555
C204A C156 1_555 1_555
C205A C166 1_555 1_555
C206A C156 1_555 1_555
C207D C208D 1_555 1_555
C208D C209 1_555 1_555
H123D C208D 1_555 1_555
C209D C208 1_555 1_555
H124D C209D 1_555 1_555
C210D C207D 1_555 1_555
H125D C210D 1_555 1_555
H126D C210D 1_555 1_555
H127D C210D 1_555 1_555
Sc1A N9 1_555 1_555
Sc4A N9 1_555 1_555
C4 N1 1_555 1_555
C10 C11 1_555 1_555
C18 N2 1_555 1_555
C24 C25 1_555 1_555
C29 N3 1_555 1_555
C35 C36 1_555 1_555
C43 C44 1_555 1_555
C43 N4 1_555 1_555
C49 C50 1_555 1_555
C51 O1 1_555 1_555
C63 O3 1_555 1_555
C72 N5 1_555 1_555
C78 C79 1_555 1_555
C86 N6 1_555 1_555
C92 C93 1_555 1_555
C92 O2 1_555 1_555
C97 N7 1_555 1_555
C103 C104 1_555 1_555
C111 C112 1_555 1_555
C111 N8 1_555 1_555
C115 O4 1_555 1_555
C117 C118 1_555 1_555
C123 C124 1_555 1_555
C125 C126 1_555 1_555
N2 Zn1 1_555 1_555
N3 Zn1 1_555 1_555
N4 Zn1 1_555 1_555
N6 Zn2 1_555 1_555
N7 Zn2 1_555 1_555
N8 Zn2 1_555 1_555
C128 C167 1_555 1_555
C128 C168 1_555 1_555
C129 C167 1_555 1_555
C129 C175 1_555 1_555
C130 C167 1_555 1_555
C130 C170 1_555 1_555
C130 C171 1_555 1_555
C131 C169 1_555 1_555
C131 C170 1_555 1_555
C131 C171 1_555 1_555
C132 C170 1_555 1_555
C132 C184 1_555 1_555
C133 C183 1_555 1_555
C134 C135 1_555 1_555
C134 C181 1_555 1_555
C134 C182 1_555 1_555
C135 C168 1_555 1_555
C135 C169 1_555 1_555
C135 C180 1_555 1_555
C135 C181 1_555 1_555
C136 C179 1_555 1_555
C136 C180 1_555 1_555
C137 C138 1_555 1_555
C137 C178 1_555 1_555
C137 C179 1_555 1_555
C138 C177 1_555 1_555
C138 C178 1_555 1_555
C139 C175 1_555 1_555
C139 C176 1_555 1_555
C139 C177 1_555 1_555
C140 C141 1_555 1_555
C140 C175 1_555 1_555
C140 C176 1_555 1_555
C140 C203 1_555 1_555
C141 C174 1_555 1_555
C141 C175 1_555 1_555
C142 C173 1_555 1_555
C142 C174 1_555 1_555
C143 C144 1_555 1_555
C143 C172 1_555 1_555
C143 C173 1_555 1_555
C143 C199 1_555 1_555
C144 C171 1_555 1_555
C144 C172 1_555 1_555
C144 C186 1_555 1_555
C145 C146 1_555 1_555
C145 C184 1_555 1_555
C145 C185 1_555 1_555
C145 C186 1_555 1_555
C146 C183 1_555 1_555
C146 C184 1_555 1_555
C146 C185 1_555 1_555
C147 C183 1_555 1_555
C147 C189 1_555 1_555
C148 C149 1_555 1_555
C148 C189 1_555 1_555
C148 C190 1_555 1_555
C149 C185 1_555 1_555
C149 C187 1_555 1_555
C149 C188 1_555 1_555
C149 C189 1_555 1_555
C150 C151 1_555 1_555
C150 C187 1_555 1_555
C150 C188 1_555 1_555
C151 C187 1_555 1_555
C151 C198 1_555 1_555
C151 C199 1_555 1_555
C152 C153 1_555 1_555
C152 C198 1_555 1_555
C152 C199 1_555 1_555
C153 C199 1_555 1_555
C153 C200 1_555 1_555
C153 C201 1_555 1_555
C154 C155 1_555 1_555
C154 C200 1_555 1_555
C154 C201 1_555 1_555
C154 C202 1_555 1_555
C155 C201 1_555 1_555
C155 C202 1_555 1_555
C155 C203 1_555 1_555
C156 C176 1_555 1_555
C156 C203 1_555 1_555
C156 C205 1_555 1_555
C156 C157A 1_555 1_555
C157 C198 1_555 1_555
C157 C204 1_555 1_555
C157 C202A 1_555 1_555
C158 C159 1_555 1_555
C158 C190 1_555 1_555
C158 C191 1_555 1_555
C159 C182 1_555 1_555
C159 C183 1_555 1_555
C159 C191 1_555 1_555
C159 C192 1_555 1_555
C160 C161 1_555 1_555
C160 C192 1_555 1_555
C160 C193 1_555 1_555
C161 C180 1_555 1_555
C161 C193 1_555 1_555
C161 C194A 1_555 1_555
C162 C163 1_555 1_555
C162 C180 1_555 1_555
C162 C195 1_555 1_555
C162 C194A 1_555 1_555
C163 C179 1_555 1_555
C163 C180 1_555 1_555
C163 C195 1_555 1_555
C163 C196 1_555 1_555
C163 C197A 1_555 1_555
C164 C166 1_555 1_555
C164 C190 1_555 1_555
C164 C197 1_555 1_555
C165 C177 1_555 1_555
C165 C196 1_555 1_555
C165 C205 1_555 1_555
C165 C164A 1_555 1_555
C165 C206A 1_555 1_555
C166 C190 1_555 1_555
C166 C206 1_555 1_555
C166 C165A 1_555 1_555
C166 C196A 1_555 1_555
C167 C168 1_555 1_555
C167 C171 1_555 1_555
C167 C175 1_555 1_555
C168 C169 1_555 1_555
C168 C178 1_555 1_555
C169 C170 1_555 1_555
C169 C181 1_555 1_555
C170 C171 1_555 1_555
C170 C184 1_555 1_555
C171 C172 1_555 1_555
C172 C173 1_555 1_555
C172 C186 1_555 1_555
C173 C174 1_555 1_555
C173 C199 1_555 1_555
C174 C175 1_555 1_555
C174 C201 1_555 1_555
C175 C176 1_555 1_555
C176 C177 1_555 1_555
C176 C203 1_555 1_555
C177 C178 1_555 1_555
C177 C205 1_555 1_555
C178 C179 1_555 1_555
C179 C180 1_555 1_555
C179 C196 1_555 1_555
C180 C181 1_555 1_555
C180 C195 1_555 1_555
C181 C182 1_555 1_555
C182 C183 1_555 1_555
C182 C193 1_555 1_555
C183 C184 1_555 1_555
C183 C191 1_555 1_555
C184 C185 1_555 1_555
C185 C186 1_555 1_555
C185 C189 1_555 1_555
C186 C187 1_555 1_555
C187 C188 1_555 1_555
C187 C198 1_555 1_555
C188 C189 1_555 1_555
C188 C204 1_555 1_555
C188 C206 1_555 1_555
C189 C190 1_555 1_555
C190 C191 1_555 1_555
C191 C192 1_555 1_555
C192 C193 1_555 1_555
C192 C197 1_555 1_555
C193 C194A 1_555 1_555
C194 C162A 1_555 1_555
C194 C194A 1_555 1_555
C195 C194A 1_555 1_555
C195 C197A 1_555 1_555
C196 C164A 1_555 1_555
C196 C166A 1_555 1_555
C196 C197A 1_555 1_555
C197 C162A 1_555 1_555
C197 C163A 1_555 1_555
C197 C195A 1_555 1_555
C197 C196A 1_555 1_555
C198 C199 1_555 1_555
C199 C200 1_555 1_555
C200 C201 1_555 1_555
C200 C154A 1_555 1_555
C201 C202 1_555 1_555
C202 C203 1_555 1_555
C202 C157A 1_555 1_555
C203 C157A 1_555 1_555
C203 C204A 1_555 1_555
C204 C206 1_555 1_555
C204 C156A 1_555 1_555
C204 C203A 1_555 1_555
C204 C205A 1_555 1_555
C205 C166A 1_555 1_555
C205 C204A 1_555 1_555
C205 C206A 1_555 1_555
C206 C156A 1_555 1_555
C206 C165A 1_555 1_555
C206 C205A 1_555 1_555
C227 C228 1_555 1_555
Sc4 Sc4A 1_555 1_555
C128A C167A 1_555 1_555
C128A C168A 1_555 1_555
C129A C167A 1_555 1_555
C129A C175A 1_555 1_555
C130A C167A 1_555 1_555
C130A C170A 1_555 1_555
C130A C171A 1_555 1_555
C131A C169A 1_555 1_555
C131A C170A 1_555 1_555
C131A C171A 1_555 1_555
C132A C170A 1_555 1_555
C132A C184A 1_555 1_555
C133A C183A 1_555 1_555
C134A C135A 1_555 1_555
C134A C161A 1_555 1_555
C134A C181A 1_555 1_555
C134A C182A 1_555 1_555
C135A C168A 1_555 1_555
C135A C169A 1_555 1_555
C135A C180A 1_555 1_555
C135A C181A 1_555 1_555
C136A C163A 1_555 1_555
C136A C179A 1_555 1_555
C136A C180A 1_555 1_555
C136A C196A 1_555 1_555
C137A C138A 1_555 1_555
C137A C165A 1_555 1_555
C137A C178A 1_555 1_555
C137A C179A 1_555 1_555
C137A C205A 1_555 1_555
C138A C177A 1_555 1_555
C138A C178A 1_555 1_555
C139A C156A 1_555 1_555
C139A C175A 1_555 1_555
C139A C176A 1_555 1_555
C139A C177A 1_555 1_555
C139A C203A 1_555 1_555
C140A C141A 1_555 1_555
C140A C155A 1_555 1_555
C140A C175A 1_555 1_555
C140A C176A 1_555 1_555
C140A C202A 1_555 1_555
C140A C203A 1_555 1_555
C141A C174A 1_555 1_555
C141A C175A 1_555 1_555
C142A C173A 1_555 1_555
C142A C174A 1_555 1_555
C143A C144A 1_555 1_555
C143A C172A 1_555 1_555
C143A C173A 1_555 1_555
C143A C199A 1_555 1_555
C144A C171A 1_555 1_555
C144A C172A 1_555 1_555
C144A C186A 1_555 1_555
C145A C146A 1_555 1_555
C145A C184A 1_555 1_555
C145A C185A 1_555 1_555
C145A C186A 1_555 1_555
C146A C183A 1_555 1_555
C146A C184A 1_555 1_555
C146A C185A 1_555 1_555
C147A C183A 1_555 1_555
C147A C189A 1_555 1_555
C148A C149A 1_555 1_555
C148A C164A 1_555 1_555
C148A C166A 1_555 1_555
C148A C189A 1_555 1_555
C148A C190A 1_555 1_555
C149A C185A 1_555 1_555
C149A C187A 1_555 1_555
C149A C188A 1_555 1_555
C149A C189A 1_555 1_555
C150A C151A 1_555 1_555
C150A C187A 1_555 1_555
C150A C188A 1_555 1_555
C150A C204A 1_555 1_555
C150A C206A 1_555 1_555
C151A C152A 1_555 1_555
C151A C187A 1_555 1_555
C151A C198A 1_555 1_555
C151A C199A 1_555 1_555
C152A C153A 1_555 1_555
C152A C157A 1_555 1_555
C152A C198A 1_555 1_555
C152A C199A 1_555 1_555
C152A C200A 1_555 1_555
C153A C154A 1_555 1_555
C153A C199A 1_555 1_555
C153A C200A 1_555 1_555
C153A C201A 1_555 1_555
C154A C155A 1_555 1_555
C154A C200A 1_555 1_555
C154A C201A 1_555 1_555
C154A C202A 1_555 1_555
C155A C201A 1_555 1_555
C155A C202A 1_555 1_555
C155A C203A 1_555 1_555
C156A C176A 1_555 1_555
C156A C203A 1_555 1_555
C156A C205A 1_555 1_555
C157A C198A 1_555 1_555
C157A C204A 1_555 1_555
C158A C159A 1_555 1_555
C158A C190A 1_555 1_555
C158A C191A 1_555 1_555
C158A C192A 1_555 1_555
C158A C197A 1_555 1_555
C159A C160A 1_555 1_555
C159A C182A 1_555 1_555
C159A C183A 1_555 1_555
C159A C191A 1_555 1_555
C159A C192A 1_555 1_555
C159A C193A 1_555 1_555
C160A C161A 1_555 1_555
C160A C192A 1_555 1_555
C160A C193A 1_555 1_555
C160A C194A 1_555 1_555
C161A C162A 1_555 1_555
C161A C180A 1_555 1_555
C161A C193A 1_555 1_555
C161A C195A 1_555 1_555
C162A C163A 1_555 1_555
C162A C180A 1_555 1_555
C162A C195A 1_555 1_555
C163A C179A 1_555 1_555
C163A C180A 1_555 1_555
C163A C195A 1_555 1_555
C163A C196A 1_555 1_555
C164A C166A 1_555 1_555
C164A C190A 1_555 1_555
C164A C197A 1_555 1_555
C165A C177A 1_555 1_555
C165A C196A 1_555 1_555
C165A C205A 1_555 1_555
C166A C190A 1_555 1_555
C166A C206A 1_555 1_555
C167A C168A 1_555 1_555
C167A C171A 1_555 1_555
C167A C175A 1_555 1_555
C168A C169A 1_555 1_555
C168A C178A 1_555 1_555
C169A C170A 1_555 1_555
C169A C181A 1_555 1_555
C170A C171A 1_555 1_555
C170A C184A 1_555 1_555
C171A C172A 1_555 1_555
C172A C173A 1_555 1_555
C172A C186A 1_555 1_555
C173A C174A 1_555 1_555
C173A C199A 1_555 1_555
C174A C175A 1_555 1_555
C174A C201A 1_555 1_555
C175A C176A 1_555 1_555
C176A C177A 1_555 1_555
C176A C203A 1_555 1_555
C177A C178A 1_555 1_555
C177A C205A 1_555 1_555
C178A C179A 1_555 1_555
C179A C180A 1_555 1_555
C179A C196A 1_555 1_555
C180A C181A 1_555 1_555
C180A C195A 1_555 1_555
C181A C182A 1_555 1_555
C182A C183A 1_555 1_555
C182A C193A 1_555 1_555
C183A C184A 1_555 1_555
C183A C191A 1_555 1_555
C184A C185A 1_555 1_555
C185A C186A 1_555 1_555
C185A C189A 1_555 1_555
C186A C187A 1_555 1_555
C187A C188A 1_555 1_555
C187A C198A 1_555 1_555
C188A C189A 1_555 1_555
C188A C204A 1_555 1_555
C188A C206A 1_555 1_555
C189A C190A 1_555 1_555
C190A C191A 1_555 1_555
C191A C192A 1_555 1_555
C192A C193A 1_555 1_555
C192A C197A 1_555 1_555
C198A C199A 1_555 1_555
C199A C200A 1_555 1_555
C200A C201A 1_555 1_555
C201A C202A 1_555 1_555
C202A C203A 1_555 1_555
C204A C206A 1_555 1_555
C207D C209D 1_555 1_555

#END
