
#######################################################################
#
#                 Cambridge Crystallographic Data Centre
#                                CCDC 
#
#######################################################################
#
# If this CIF has been generated from an entry in the Cambridge 
# Structural Database, then it will include bibliographic, chemical, 
# crystal, experimental, refinement or atomic coordinate data resulting 
# from the CCDC's data processing and validation procedures.
#
#######################################################################

data_CAFRAE
_chemical_formula_moiety         'C118 H100 N10 O4 Zn2,2(H2 O1)'
_chemical_name_systematic        
"(\m~2~-5,5':15,15'-bis(Hexa-2,4-diyne-1,6-dioxybis(1,3-phenylene))-10,10',20,20'-tetramesitylporphyrin)-(\m~2~-N,N,N',N'-tetramethylethylenediamine)-di-zinc(ii) dihydrate"
_symmetry_cell_setting           monoclinic
_symmetry_space_group_name_H-M   'P 21/c'
_symmetry_Int_Tables_number      14
_space_group_name_Hall           '-P 2ybc'
loop_
_symmetry_equiv_pos_site_id
_symmetry_equiv_pos_as_xyz
1 x,y,z
2 -x,1/2+y,1/2-z
3 -x,-y,-z
4 x,1/2-y,1/2+z
_cell_length_a                   12.803(8)
_cell_length_b                   23.382(13)
_cell_length_c                   33.72(3)
_cell_angle_alpha                90
_cell_angle_beta                 94.558(14)
_cell_angle_gamma                90
_cell_volume                     10062.5
_exptl_crystal_colour            purple
_exptl_crystal_description       needle
_cell_formula_units_Z            4
loop_
_atom_site_label
_atom_site_type_symbol
_atom_site_fract_x
_atom_site_fract_y
_atom_site_fract_z
N1 N -0.0906(6) 0.3646(4) 0.2715(3)
N2 N 0.0478(6) 0.4206(4) 0.3322(3)
C1 C -0.1394(9) 0.3399(5) 0.2400(4)
C2 C -0.2504(9) 0.3390(5) 0.2440(4)
H1 H -0.3042 0.3238 0.2260
C3 C -0.2602(9) 0.3645(5) 0.2792(4)
H2 H -0.3245 0.3695 0.2910
C4 C -0.1634(8) 0.3826(5) 0.2959(4)
C5 C -0.1454(8) 0.4118(5) 0.3308(4)
C6 C -0.2364(8) 0.4288(5) 0.3527(4)
C7 C -0.3018(8) 0.4688(5) 0.3383(4)
H3 H -0.2924 0.4863 0.3134
C8 C -0.3849(8) 0.4849(5) 0.3603(4)
H4 H -0.4311 0.5146 0.3508
C9 C -0.3997(8) 0.4587(5) 0.3947(4)
H5 H -0.4575 0.4699 0.4090
C10 C -0.3364(9) 0.4174(6) 0.4097(4)
C11 C -0.2500(8) 0.3997(5) 0.3881(4)
H6 H -0.2043 0.3698 0.3975
C12 C -0.0449(8) 0.4326(5) 0.3481(4)
C13 C -0.0283(8) 0.4706(5) 0.3803(4)
H7 H -0.0812 0.4855 0.3956
C14 C 0.0735(8) 0.4824(5) 0.3857(4)
H8 H 0.1076 0.5063 0.4055
C15 C 0.1209(8) 0.4507(5) 0.3548(4)
C16 C 0.2329(8) 0.4526(5) 0.3503(4)
C17 C 0.2989(8) 0.4869(5) 0.3790(4)
C18 C 0.3193(8) 0.4696(5) 0.4175(4)
C19 C 0.3773(8) 0.5055(5) 0.4431(4)
H9 H 0.3904 0.4942 0.4701
C20 C 0.4166(8) 0.5562(5) 0.4316(4)
C21 C 0.3985(8) 0.5705(5) 0.3926(4)
H10 H 0.4301 0.6044 0.3835
C22 C 0.3383(8) 0.5394(5) 0.3658(4)
C23 C 0.2803(9) 0.4135(5) 0.4320(4)
H11 H 0.3193 0.4034 0.4572
H12 H 0.2906 0.3838 0.4122
H13 H 0.2056 0.4167 0.4360
C24 C 0.4870(9) 0.5918(5) 0.4600(4)
H14 H 0.5602 0.5860 0.4545
H15 H 0.4775 0.5802 0.4874
H16 H 0.4688 0.6323 0.4566
C25 C 0.3169(9) 0.5615(5) 0.3228(4)
H17 H 0.3262 0.6031 0.3223
H18 H 0.2449 0.5519 0.3129
H19 H 0.3660 0.5434 0.3057
N3 N 0.2292(6) 0.3894(4) 0.2912(3)
N4 N 0.0901(7) 0.3335(4) 0.2299(3)
C26 C 0.2785(8) 0.4200(5) 0.3219(4)
C27 C 0.3928(8) 0.4200(5) 0.3176(4)
H20 H 0.4469 0.4386 0.3337
C28 C 0.4008(8) 0.3869(5) 0.2852(4)
H21 H 0.4663 0.3769 0.2758
C29 C 0.3006(8) 0.3676(5) 0.2658(4)
C30 C 0.2811(8) 0.3352(6) 0.2334(4)
C31 C 0.3768(4) 0.3131(3) 0.2156(2)
C32 C 0.4245(5) 0.2641(3) 0.2319(2)
H22 H 0.3992 0.2471 0.2549
C33 C 0.5092(6) 0.2401(3) 0.2146(3)
C34 C 0.5462(5) 0.2650(4) 0.1810(3)
H23 H 0.6041 0.2486 0.1692
C35 C 0.4985(6) 0.3140(4) 0.1647(2)
H24 H 0.5238 0.3310 0.1418
C36 C 0.4138(5) 0.3380(3) 0.1820(2)
H25 H 0.3812 0.3715 0.1709
C37 C 0.1825(9) 0.3212(5) 0.2148(4)
C38 C 0.1663(9) 0.2940(6) 0.1780(4)
H26 H 0.2184 0.2816 0.1614
C39 C 0.0630(9) 0.2891(5) 0.1709(4)
H27 H 0.0271 0.2722 0.1481
C40 C 0.0160(9) 0.3140(6) 0.2038(4)
C41 C -0.0934(9) 0.3147(6) 0.2063(4)
C42 C -0.1610(9) 0.2938(6) 0.1731(4)
C43 C -0.1722(9) 0.2363(6) 0.1687(4)
C44 C -0.2245(8) 0.2145(6) 0.1364(4)
H28 H -0.2304 0.1742 0.1337
C45 C -0.2706(9) 0.2495(6) 0.1068(4)
C46 C -0.2621(9) 0.3081(6) 0.1126(4)
H29 H -0.2958 0.3337 0.0939
C47 C -0.2063(9) 0.3281(6) 0.1446(4)
C48 C -0.1283(9) 0.1963(6) 0.1982(4)
H30 H -0.1487 0.1573 0.1902
H31 H -0.1547 0.2051 0.2240
H32 H -0.0517 0.1995 0.2003
C49 C -0.3384(10) 0.2279(6) 0.0686(4)
H33 H -0.3237 0.1874 0.0642
H34 H -0.3206 0.2501 0.0454
H35 H -0.4129 0.2328 0.0724
C50 C -0.1995(10) 0.3928(6) 0.1481(4)
H36 H -0.1687 0.4084 0.1247
H37 H -0.1556 0.4030 0.1721
H38 H -0.2700 0.4086 0.1496
O1 O -0.3552(6) 0.3919(4) 0.4450(3)
O2 O 0.1998(6) 0.4407(4) 0.5755(2)
C51 C -0.2872(9) 0.3478(6) 0.4628(4)
H39 H -0.2729 0.3189 0.4425
H40 H -0.3225 0.3283 0.4841
C52 C -0.1858(10) 0.3731(6) 0.4800(4)
C53 C -0.1087(10) 0.3919(6) 0.4921(4)
C54 C -0.0142(10) 0.4165(6) 0.5083(4)
C55 C 0.0645(10) 0.4332(6) 0.5206(4)
C56 C 0.1660(10) 0.4566(6) 0.5373(4)
H41 H 0.2203 0.4452 0.5195
H42 H 0.1613 0.4989 0.5365
O3 O 0.5583(6) 0.1930(4) 0.2272(3)
O4 O -0.0359(8) 0.0783(4) 0.2284(3)
C57 C 0.5201(10) 0.1632(7) 0.2570(5)
H43 H 0.5184 0.1888 0.2804
H44 H 0.5696 0.1318 0.2646
C58 C 0.4219(12) 0.1400(7) 0.2493(5)
C59 C 0.3424(12) 0.1202(7) 0.2408(5)
C60 C 0.2407(13) 0.1001(7) 0.2287(5)
C61 C 0.1524(13) 0.0834(7) 0.2166(5)
C62 C 0.0426(12) 0.0646(7) 0.2028(5)
H45 H 0.0233 0.0821 0.1765
H46 H 0.0430 0.0226 0.1990
C63 C -0.0115(10) 0.0849(6) 0.4005(4)
C64 C -0.1178(10) 0.0614(6) 0.4003(5)
H47 H -0.1559 0.0423 0.3789
C65 C -0.1507(10) 0.0726(6) 0.4368(4)
H48 H -0.2157 0.0602 0.4455
C66 C -0.0749(10) 0.1053(6) 0.4602(4)
C67 C -0.0787(9) 0.1291(6) 0.4976(4)
C68 C -0.1859(10) 0.1128(6) 0.5134(5)
C69 C -0.2734(10) 0.1461(6) 0.5028(5)
C70 C -0.3722(11) 0.1291(6) 0.5147(5)
H49 H -0.4335 0.1503 0.5066
C71 C -0.3778(11) 0.0824(7) 0.5377(5)
C72 C -0.2960(10) 0.0502(6) 0.5466(5)
H50 H -0.3038 0.0152 0.5603
C73 C -0.1918(11) 0.0676(6) 0.5355(5)
C74 C -0.2706(9) 0.1973(6) 0.4775(5)
H51 H -0.2244 0.2260 0.4908
H52 H -0.3415 0.2131 0.4728
H53 H -0.2442 0.1870 0.4519
C75 C -0.4863(11) 0.0654(7) 0.5542(5)
H54 H -0.5046 0.0262 0.5461
H55 H -0.5411 0.0916 0.5434
H56 H -0.4802 0.0679 0.5833
C76 C -0.0961(10) 0.0323(6) 0.5492(5)
H57 H -0.0774 0.0074 0.5275
H58 H -0.1118 0.0088 0.5721
H59 H -0.0373 0.0579 0.5569
C77 C -0.0120(9) 0.1634(6) 0.5174(4)
C78 C -0.0266(9) 0.1906(5) 0.5545(4)
H60 H -0.0845 0.1859 0.5701
C79 C 0.0562(9) 0.2239(5) 0.5630(4)
H61 H 0.0668 0.2491 0.5851
C80 C 0.1263(9) 0.2148(6) 0.5327(4)
C81 C 0.2257(9) 0.2430(5) 0.5320(4)
C82 C 0.2504(9) 0.2859(6) 0.5614(4)
C83 C 0.3027(9) 0.2766(6) 0.5976(4)
H62 H 0.3288 0.2394 0.6040
C84 C 0.3187(9) 0.3196(5) 0.6248(4)
H63 H 0.3556 0.3118 0.6498
C85 C 0.2825(9) 0.3734(6) 0.6168(4)
H64 H 0.2920 0.4029 0.6361
C86 C 0.2337(9) 0.3836(6) 0.5815(4)
C87 C 0.2189(8) 0.3413(5) 0.5537(4)
H65 H 0.1860 0.3504 0.5282
C88 C 0.2945(9) 0.2317(6) 0.5041(4)
C89 C 0.3955(9) 0.2591(6) 0.5030(4)
H66 H 0.4266 0.2856 0.5217
C90 C 0.4366(9) 0.2394(5) 0.4699(4)
H67 H 0.5042 0.2489 0.4622
C91 C 0.3666(9) 0.2033(6) 0.4486(4)
C92 C 0.3799(9) 0.1782(6) 0.4133(4)
C93 C 0.4792(10) 0.1881(6) 0.3939(4)
C94 C 0.5491(10) 0.1419(6) 0.3939(4)
C95 C 0.6405(10) 0.1539(6) 0.3731(4)
H68 H 0.6914 0.1246 0.3716
C96 C 0.6582(10) 0.2057(7) 0.3553(5)
C97 C 0.5873(10) 0.2488(7) 0.3566(4)
H69 H 0.5988 0.2846 0.3443
C98 C 0.4981(10) 0.2396(7) 0.3764(5)
C99 C 0.5338(10) 0.0873(6) 0.4126(4)
H70 H 0.4727 0.0806 0.4261
H71 H 0.5849 0.0580 0.4113
C100 C 0.7537(10) 0.2143(7) 0.3324(4)
H72 H 0.8160 0.2006 0.3484
H73 H 0.7618 0.2550 0.3266
H74 H 0.7453 0.1928 0.3074
C101 C 0.4265(10) 0.2898(6) 0.3787(5)
H75 H 0.3551 0.2763 0.3816
H76 H 0.4275 0.3125 0.3543
H77 H 0.4501 0.3134 0.4017
C102 C 0.3080(10) 0.1441(6) 0.3927(4)
C103 C 0.3150(10) 0.1164(6) 0.3530(4)
H78 H 0.3747 0.1182 0.3380
C104 C 0.2254(9) 0.0885(6) 0.3412(4)
H79 H 0.2112 0.0667 0.3176
C105 C 0.1567(10) 0.0988(6) 0.3718(4)
C106 C 0.0545(10) 0.0797(6) 0.3694(5)
C107 C 0.0161(5) 0.0472(4) 0.3363(2)
C108 C 0.0150(7) 0.0758(4) 0.3001(3)
H80 H 0.0426 0.1134 0.2991
C109 C -0.0264(8) 0.0494(5) 0.2654(2)
C110 C -0.0668(8) -0.0057(5) 0.2669(3)
H81 H -0.0951 -0.0237 0.2432
C111 C -0.0658(8) -0.0343(4) 0.3030(3)
H82 H -0.0934 -0.0720 0.3040
C112 C -0.0243(7) -0.0079(4) 0.3377(3)
H83 H -0.0236 -0.0275 0.3624
C113 C -0.0007(11) 0.2454(6) 0.2974(5)
H84 H 0.0100 0.2370 0.2696
H85 H -0.0688 0.2641 0.2990
H86 H 0.0008 0.2096 0.3126
C114 C 0.1795(11) 0.2531(6) 0.3063(5)
H87 H 0.1880 0.2536 0.2776
H88 H 0.1751 0.2134 0.3153
H89 H 0.2398 0.2718 0.3205
C115 C 0.0813(11) 0.2924(6) 0.3573(4)
H90 H 0.1374 0.3199 0.3658
H91 H 0.0136 0.3104 0.3622
C116 C 0.0945(11) 0.2415(6) 0.3825(4)
H92 H 0.0517 0.2105 0.3696
H93 H 0.1687 0.2295 0.3829
C117 C -0.0524(10) 0.2431(6) 0.4230(4)
H94 H -0.0733 0.2447 0.4504
H95 H -0.0775 0.2073 0.4106
H96 H -0.0829 0.2755 0.4078
C118 C 0.1014(10) 0.2989(6) 0.4433(4)
H97 H 0.1756 0.3055 0.4397
H98 H 0.0914 0.2962 0.4718
H99 H 0.0596 0.3307 0.4317
N5 N 0.0114(8) 0.1125(4) 0.4366(4)
N6 N 0.0843(7) 0.1792(4) 0.5050(3)
N7 N 0.2817(7) 0.1992(4) 0.4707(3)
N8 N 0.2072(8) 0.1310(5) 0.4033(3)
N9 N 0.0832(8) 0.2836(5) 0.3141(4)
N10 N 0.0677(9) 0.2457(5) 0.4237(4)
Zn1 Zn 0.07123(10) 0.36472(7) 0.28599(5)
Zn2 Zn 0.13585(12) 0.16540(7) 0.45029(5)
O5 O 0.212(2) 0.4104(11) 0.0910(8)
O6 O 0.670(3) -0.0097(17) 0.3444(13)
O7 O 0.427(4) -0.017(2) 0.3012(18)
loop_
_geom_bond_atom_site_label_1
_geom_bond_atom_site_label_2
_geom_bond_site_symmetry_1
_geom_bond_site_symmetry_2
N1 C1 1_555 1_555
N2 C12 1_555 1_555
C1 C2 1_555 1_555
C2 H1 1_555 1_555
C3 C2 1_555 1_555
H2 C3 1_555 1_555
C4 N1 1_555 1_555
C5 C4 1_555 1_555
C6 C5 1_555 1_555
C7 C6 1_555 1_555
H3 C7 1_555 1_555
C8 C7 1_555 1_555
H4 C8 1_555 1_555
C9 C8 1_555 1_555
H5 C9 1_555 1_555
C10 C9 1_555 1_555
C11 C6 1_555 1_555
H6 C11 1_555 1_555
C12 C5 1_555 1_555
C13 C12 1_555 1_555
H7 C13 1_555 1_555
C14 C13 1_555 1_555
H8 C14 1_555 1_555
C15 N2 1_555 1_555
C16 C15 1_555 1_555
C17 C16 1_555 1_555
C18 C17 1_555 1_555
C19 C18 1_555 1_555
H9 C19 1_555 1_555
C20 C19 1_555 1_555
C21 C20 1_555 1_555
H10 C21 1_555 1_555
C22 C17 1_555 1_555
C23 C18 1_555 1_555
H11 C23 1_555 1_555
H12 C23 1_555 1_555
H13 C23 1_555 1_555
C24 C20 1_555 1_555
H14 C24 1_555 1_555
H15 C24 1_555 1_555
H16 C24 1_555 1_555
C25 C22 1_555 1_555
H17 C25 1_555 1_555
H18 C25 1_555 1_555
H19 C25 1_555 1_555
N3 C26 1_555 1_555
N4 C37 1_555 1_555
C26 C16 1_555 1_555
C27 C26 1_555 1_555
H20 C27 1_555 1_555
C28 C27 1_555 1_555
H21 C28 1_555 1_555
C29 N3 1_555 1_555
C30 C29 1_555 1_555
C31 C30 1_555 1_555
C32 C31 1_555 1_555
H22 C32 1_555 1_555
C33 C32 1_555 1_555
C34 C33 1_555 1_555
H23 C34 1_555 1_555
C35 C34 1_555 1_555
H24 C35 1_555 1_555
C36 C31 1_555 1_555
H25 C36 1_555 1_555
C37 C30 1_555 1_555
C38 C37 1_555 1_555
H26 C38 1_555 1_555
C39 C38 1_555 1_555
H27 C39 1_555 1_555
C40 N4 1_555 1_555
C41 C1 1_555 1_555
C42 C41 1_555 1_555
C43 C42 1_555 1_555
C44 C43 1_555 1_555
H28 C44 1_555 1_555
C45 C44 1_555 1_555
C46 C45 1_555 1_555
H29 C46 1_555 1_555
C47 C42 1_555 1_555
C48 C43 1_555 1_555
H30 C48 1_555 1_555
H31 C48 1_555 1_555
H32 C48 1_555 1_555
C49 C45 1_555 1_555
H33 C49 1_555 1_555
H34 C49 1_555 1_555
H35 C49 1_555 1_555
C50 C47 1_555 1_555
H36 C50 1_555 1_555
H37 C50 1_555 1_555
H38 C50 1_555 1_555
O1 C10 1_555 1_555
O2 C56 1_555 1_555
C51 O1 1_555 1_555
H39 C51 1_555 1_555
H40 C51 1_555 1_555
C52 C51 1_555 1_555
C53 C52 1_555 1_555
C54 C53 1_555 1_555
C55 C54 1_555 1_555
C56 C55 1_555 1_555
H41 C56 1_555 1_555
H42 C56 1_555 1_555
O3 C33 1_555 1_555
O4 C62 1_555 1_555
C57 O3 1_555 1_555
H43 C57 1_555 1_555
H44 C57 1_555 1_555
C58 C57 1_555 1_555
C59 C58 1_555 1_555
C60 C59 1_555 1_555
C61 C60 1_555 1_555
C62 C61 1_555 1_555
H45 C62 1_555 1_555
H46 C62 1_555 1_555
C63 C64 1_555 1_555
C64 H47 1_555 1_555
C65 C64 1_555 1_555
H48 C65 1_555 1_555
C66 C65 1_555 1_555
C67 C66 1_555 1_555
C68 C67 1_555 1_555
C69 C68 1_555 1_555
C70 C69 1_555 1_555
H49 C70 1_555 1_555
C71 C70 1_555 1_555
C72 C71 1_555 1_555
H50 C72 1_555 1_555
C73 C68 1_555 1_555
C74 C69 1_555 1_555
H51 C74 1_555 1_555
H52 C74 1_555 1_555
H53 C74 1_555 1_555
C75 C71 1_555 1_555
H54 C75 1_555 1_555
H55 C75 1_555 1_555
H56 C75 1_555 1_555
C76 C73 1_555 1_555
H57 C76 1_555 1_555
H58 C76 1_555 1_555
H59 C76 1_555 1_555
C77 C67 1_555 1_555
C78 C77 1_555 1_555
H60 C78 1_555 1_555
C79 C78 1_555 1_555
H61 C79 1_555 1_555
C80 C79 1_555 1_555
C81 C80 1_555 1_555
C82 C81 1_555 1_555
C83 C82 1_555 1_555
H62 C83 1_555 1_555
C84 C83 1_555 1_555
H63 C84 1_555 1_555
C85 C84 1_555 1_555
H64 C85 1_555 1_555
C86 O2 1_555 1_555
C87 C82 1_555 1_555
H65 C87 1_555 1_555
C88 C81 1_555 1_555
C89 C88 1_555 1_555
H66 C89 1_555 1_555
C90 C89 1_555 1_555
H67 C90 1_555 1_555
C91 C90 1_555 1_555
C92 C91 1_555 1_555
C93 C92 1_555 1_555
C94 C93 1_555 1_555
C95 C94 1_555 1_555
H68 C95 1_555 1_555
C96 C95 1_555 1_555
C97 C96 1_555 1_555
H69 C97 1_555 1_555
C98 C93 1_555 1_555
C99 C94 1_555 1_555
H70 C99 1_555 1_555
H71 C99 1_555 1_555
C100 C96 1_555 1_555
H72 C100 1_555 1_555
H73 C100 1_555 1_555
H74 C100 1_555 1_555
C101 C98 1_555 1_555
H75 C101 1_555 1_555
H76 C101 1_555 1_555
H77 C101 1_555 1_555
C102 C92 1_555 1_555
C103 C102 1_555 1_555
H78 C103 1_555 1_555
C104 C103 1_555 1_555
H79 C104 1_555 1_555
C105 C104 1_555 1_555
C106 C63 1_555 1_555
C107 C106 1_555 1_555
C108 C107 1_555 1_555
H80 C108 1_555 1_555
C109 O4 1_555 1_555
C110 C109 1_555 1_555
H81 C110 1_555 1_555
C111 C110 1_555 1_555
H82 C111 1_555 1_555
C112 C107 1_555 1_555
H83 C112 1_555 1_555
C113 H84 1_555 1_555
H85 C113 1_555 1_555
H86 C113 1_555 1_555
C114 H87 1_555 1_555
H88 C114 1_555 1_555
H89 C114 1_555 1_555
C115 H90 1_555 1_555
H91 C115 1_555 1_555
C116 C115 1_555 1_555
H92 C116 1_555 1_555
H93 C116 1_555 1_555
C117 H94 1_555 1_555
H95 C117 1_555 1_555
H96 C117 1_555 1_555
C118 H97 1_555 1_555
H98 C118 1_555 1_555
H99 C118 1_555 1_555
N5 C63 1_555 1_555
N6 C77 1_555 1_555
N7 C88 1_555 1_555
N8 C102 1_555 1_555
N9 C113 1_555 1_555
N10 C116 1_555 1_555
Zn1 N1 1_555 1_555
Zn2 N5 1_555 1_555
N2 Zn1 1_555 1_555
C3 C4 1_555 1_555
C10 C11 1_555 1_555
C14 C15 1_555 1_555
C21 C22 1_555 1_555
N3 Zn1 1_555 1_555
N4 Zn1 1_555 1_555
C28 C29 1_555 1_555
C35 C36 1_555 1_555
C39 C40 1_555 1_555
C40 C41 1_555 1_555
C46 C47 1_555 1_555
C66 N5 1_555 1_555
C72 C73 1_555 1_555
C80 N6 1_555 1_555
C85 C86 1_555 1_555
C86 C87 1_555 1_555
C91 N7 1_555 1_555
C97 C98 1_555 1_555
C105 C106 1_555 1_555
C105 N8 1_555 1_555
C108 C109 1_555 1_555
C111 C112 1_555 1_555
C114 N9 1_555 1_555
C115 N9 1_555 1_555
C117 N10 1_555 1_555
C118 N10 1_555 1_555
N6 Zn2 1_555 1_555
N7 Zn2 1_555 1_555
N8 Zn2 1_555 1_555
N9 Zn1 1_555 1_555
N10 Zn2 1_555 1_555

#END
