# generated using pymatgen
data_Zn2H99C118(N5O4)2
_symmetry_space_group_name_H-M   'P 1'
_cell_length_a   12.80300000
_cell_length_b   23.38200000
_cell_length_c   33.72000000
_cell_angle_alpha   90.00000000
_cell_angle_beta   94.55800000
_cell_angle_gamma   90.00000000
_symmetry_Int_Tables_number   1
_chemical_formula_structural   Zn2H99C118(N5O4)2
_chemical_formula_sum   'Zn8 H396 C472 N40 O32'
_cell_volume   10062.48604726
_cell_formula_units_Z   4
loop_
 _symmetry_equiv_pos_site_id
 _symmetry_equiv_pos_as_xyz
  1  'x, y, z'
loop_
 _atom_site_type_symbol
 _atom_site_label
 _atom_site_symmetry_multiplicity
 _atom_site_fract_x
 _atom_site_fract_y
 _atom_site_fract_z
 _atom_site_occupancy
  Zn  Zn1  1  0.071230  0.364720  0.285990  1
  Zn  Zn2  1  0.928770  0.864720  0.214010  1
  Zn  Zn3  1  0.928770  0.635280  0.714010  1
  Zn  Zn4  1  0.071230  0.135280  0.785990  1
  Zn  Zn5  1  0.135850  0.165400  0.450290  1
  Zn  Zn6  1  0.864150  0.665400  0.049710  1
  Zn  Zn7  1  0.864150  0.834600  0.549710  1
  Zn  Zn8  1  0.135850  0.334600  0.950290  1
  H  H9  1  0.695800  0.323800  0.226000  1
  H  H10  1  0.304200  0.823800  0.274000  1
  H  H11  1  0.304200  0.676200  0.774000  1
  H  H12  1  0.695800  0.176200  0.726000  1
  H  H13  1  0.675500  0.369500  0.291000  1
  H  H14  1  0.324500  0.869500  0.209000  1
  H  H15  1  0.324500  0.630500  0.709000  1
  H  H16  1  0.675500  0.130500  0.791000  1
  H  H17  1  0.707600  0.486300  0.313400  1
  H  H18  1  0.292400  0.986300  0.186600  1
  H  H19  1  0.292400  0.513700  0.686600  1
  H  H20  1  0.707600  0.013700  0.813400  1
  H  H21  1  0.568900  0.514600  0.350800  1
  H  H22  1  0.431100  0.014600  0.149200  1
  H  H23  1  0.431100  0.485400  0.649200  1
  H  H24  1  0.568900  0.985400  0.850800  1
  H  H25  1  0.542500  0.469900  0.409000  1
  H  H26  1  0.457500  0.969900  0.091000  1
  H  H27  1  0.457500  0.530100  0.591000  1
  H  H28  1  0.542500  0.030100  0.909000  1
  H  H29  1  0.795700  0.369800  0.397500  1
  H  H30  1  0.204300  0.869800  0.102500  1
  H  H31  1  0.204300  0.630200  0.602500  1
  H  H32  1  0.795700  0.130200  0.897500  1
  H  H33  1  0.918800  0.485500  0.395600  1
  H  H34  1  0.081200  0.985500  0.104400  1
  H  H35  1  0.081200  0.514500  0.604400  1
  H  H36  1  0.918800  0.014500  0.895600  1
  H  H37  1  0.107600  0.506300  0.405500  1
  H  H38  1  0.892400  0.006300  0.094500  1
  H  H39  1  0.892400  0.493700  0.594500  1
  H  H40  1  0.107600  0.993700  0.905500  1
  H  H41  1  0.390400  0.494200  0.470100  1
  H  H42  1  0.609600  0.994200  0.029900  1
  H  H43  1  0.609600  0.505800  0.529900  1
  H  H44  1  0.390400  0.005800  0.970100  1
  H  H45  1  0.430100  0.604400  0.383500  1
  H  H46  1  0.569900  0.104400  0.116500  1
  H  H47  1  0.569900  0.395600  0.616500  1
  H  H48  1  0.430100  0.895600  0.883500  1
  H  H49  1  0.319300  0.403400  0.457200  1
  H  H50  1  0.680700  0.903400  0.042800  1
  H  H51  1  0.680700  0.596600  0.542800  1
  H  H52  1  0.319300  0.096600  0.957200  1
  H  H53  1  0.290600  0.383800  0.412200  1
  H  H54  1  0.709400  0.883800  0.087800  1
  H  H55  1  0.709400  0.616200  0.587800  1
  H  H56  1  0.290600  0.116200  0.912200  1
  H  H57  1  0.205600  0.416700  0.436000  1
  H  H58  1  0.794400  0.916700  0.064000  1
  H  H59  1  0.794400  0.583300  0.564000  1
  H  H60  1  0.205600  0.083300  0.936000  1
  H  H61  1  0.560200  0.586000  0.454500  1
  H  H62  1  0.439800  0.086000  0.045500  1
  H  H63  1  0.439800  0.414000  0.545500  1
  H  H64  1  0.560200  0.914000  0.954500  1
  H  H65  1  0.477500  0.580200  0.487400  1
  H  H66  1  0.522500  0.080200  0.012600  1
  H  H67  1  0.522500  0.419800  0.512600  1
  H  H68  1  0.477500  0.919800  0.987400  1
  H  H69  1  0.468800  0.632300  0.456600  1
  H  H70  1  0.531200  0.132300  0.043400  1
  H  H71  1  0.531200  0.367700  0.543400  1
  H  H72  1  0.468800  0.867700  0.956600  1
  H  H73  1  0.326200  0.603100  0.322300  1
  H  H74  1  0.673800  0.103100  0.177700  1
  H  H75  1  0.673800  0.396900  0.677700  1
  H  H76  1  0.326200  0.896900  0.822300  1
  H  H77  1  0.244900  0.551900  0.312900  1
  H  H78  1  0.755100  0.051900  0.187100  1
  H  H79  1  0.755100  0.448100  0.687100  1
  H  H80  1  0.244900  0.948100  0.812900  1
  H  H81  1  0.366000  0.543400  0.305700  1
  H  H82  1  0.634000  0.043400  0.194300  1
  H  H83  1  0.634000  0.456600  0.694300  1
  H  H84  1  0.366000  0.956600  0.805700  1
  H  H85  1  0.446900  0.438600  0.333700  1
  H  H86  1  0.553100  0.938600  0.166300  1
  H  H87  1  0.553100  0.561400  0.666300  1
  H  H88  1  0.446900  0.061400  0.833700  1
  H  H89  1  0.466300  0.376900  0.275800  1
  H  H90  1  0.533700  0.876900  0.224200  1
  H  H91  1  0.533700  0.623100  0.724200  1
  H  H92  1  0.466300  0.123100  0.775800  1
  H  H93  1  0.399200  0.247100  0.254900  1
  H  H94  1  0.600800  0.747100  0.245100  1
  H  H95  1  0.600800  0.752900  0.745100  1
  H  H96  1  0.399200  0.252900  0.754900  1
  H  H97  1  0.604100  0.248600  0.169200  1
  H  H98  1  0.395900  0.748600  0.330800  1
  H  H99  1  0.395900  0.751400  0.830800  1
  H  H100  1  0.604100  0.251400  0.669200  1
  H  H101  1  0.523800  0.331000  0.141800  1
  H  H102  1  0.476200  0.831000  0.358200  1
  H  H103  1  0.476200  0.669000  0.858200  1
  H  H104  1  0.523800  0.169000  0.641800  1
  H  H105  1  0.381200  0.371500  0.170900  1
  H  H106  1  0.618800  0.871500  0.329100  1
  H  H107  1  0.618800  0.628500  0.829100  1
  H  H108  1  0.381200  0.128500  0.670900  1
  H  H109  1  0.218400  0.281600  0.161400  1
  H  H110  1  0.781600  0.781600  0.338600  1
  H  H111  1  0.781600  0.718400  0.838600  1
  H  H112  1  0.218400  0.218400  0.661400  1
  H  H113  1  0.027100  0.272200  0.148100  1
  H  H114  1  0.972900  0.772200  0.351900  1
  H  H115  1  0.972900  0.727800  0.851900  1
  H  H116  1  0.027100  0.227800  0.648100  1
  H  H117  1  0.769600  0.174200  0.133700  1
  H  H118  1  0.230400  0.674200  0.366300  1
  H  H119  1  0.230400  0.825800  0.866300  1
  H  H120  1  0.769600  0.325800  0.633700  1
  H  H121  1  0.704200  0.333700  0.093900  1
  H  H122  1  0.295800  0.833700  0.406100  1
  H  H123  1  0.295800  0.666300  0.906100  1
  H  H124  1  0.704200  0.166300  0.593900  1
  H  H125  1  0.851300  0.157300  0.190200  1
  H  H126  1  0.148700  0.657300  0.309800  1
  H  H127  1  0.148700  0.842700  0.809800  1
  H  H128  1  0.851300  0.342700  0.690200  1
  H  H129  1  0.845300  0.205100  0.224000  1
  H  H130  1  0.154700  0.705100  0.276000  1
  H  H131  1  0.154700  0.794900  0.776000  1
  H  H132  1  0.845300  0.294900  0.724000  1
  H  H133  1  0.948300  0.199500  0.200300  1
  H  H134  1  0.051700  0.699500  0.299700  1
  H  H135  1  0.051700  0.800500  0.799700  1
  H  H136  1  0.948300  0.300500  0.700300  1
  H  H137  1  0.676300  0.187400  0.064200  1
  H  H138  1  0.323700  0.687400  0.435800  1
  H  H139  1  0.323700  0.812600  0.935800  1
  H  H140  1  0.676300  0.312600  0.564200  1
  H  H141  1  0.679400  0.250100  0.045400  1
  H  H142  1  0.320600  0.750100  0.454600  1
  H  H143  1  0.320600  0.749900  0.954600  1
  H  H144  1  0.679400  0.249900  0.545400  1
  H  H145  1  0.587100  0.232800  0.072400  1
  H  H146  1  0.412900  0.732800  0.427600  1
  H  H147  1  0.412900  0.767200  0.927600  1
  H  H148  1  0.587100  0.267200  0.572400  1
  H  H149  1  0.831300  0.408400  0.124700  1
  H  H150  1  0.168700  0.908400  0.375300  1
  H  H151  1  0.168700  0.591600  0.875300  1
  H  H152  1  0.831300  0.091600  0.624700  1
  H  H153  1  0.844400  0.403000  0.172100  1
  H  H154  1  0.155600  0.903000  0.327900  1
  H  H155  1  0.155600  0.597000  0.827900  1
  H  H156  1  0.844400  0.097000  0.672100  1
  H  H157  1  0.730000  0.408600  0.149600  1
  H  H158  1  0.270000  0.908600  0.350400  1
  H  H159  1  0.270000  0.591400  0.850400  1
  H  H160  1  0.730000  0.091400  0.649600  1
  H  H161  1  0.727100  0.318900  0.442500  1
  H  H162  1  0.272900  0.818900  0.057500  1
  H  H163  1  0.272900  0.681100  0.557500  1
  H  H164  1  0.727100  0.181100  0.942500  1
  H  H165  1  0.677500  0.328300  0.484100  1
  H  H166  1  0.322500  0.828300  0.015900  1
  H  H167  1  0.322500  0.671700  0.515900  1
  H  H168  1  0.677500  0.171700  0.984100  1
  H  H169  1  0.220300  0.445200  0.519500  1
  H  H170  1  0.779700  0.945200  0.980500  1
  H  H171  1  0.779700  0.554800  0.480500  1
  H  H172  1  0.220300  0.054800  0.019500  1
  H  H173  1  0.161300  0.498900  0.536500  1
  H  H174  1  0.838700  0.998900  0.963500  1
  H  H175  1  0.838700  0.501100  0.463500  1
  H  H176  1  0.161300  0.001100  0.036500  1
  H  H177  1  0.518400  0.188800  0.280400  1
  H  H178  1  0.481600  0.688800  0.219600  1
  H  H179  1  0.481600  0.811200  0.719600  1
  H  H180  1  0.518400  0.311200  0.780400  1
  H  H181  1  0.569600  0.131800  0.264600  1
  H  H182  1  0.430400  0.631800  0.235400  1
  H  H183  1  0.430400  0.868200  0.735400  1
  H  H184  1  0.569600  0.368200  0.764600  1
  H  H185  1  0.023300  0.082100  0.176500  1
  H  H186  1  0.976700  0.582100  0.323500  1
  H  H187  1  0.976700  0.917900  0.823500  1
  H  H188  1  0.023300  0.417900  0.676500  1
  H  H189  1  0.043000  0.022600  0.199000  1
  H  H190  1  0.957000  0.522600  0.301000  1
  H  H191  1  0.957000  0.977400  0.801000  1
  H  H192  1  0.043000  0.477400  0.699000  1
  H  H193  1  0.844100  0.042300  0.378900  1
  H  H194  1  0.155900  0.542300  0.121100  1
  H  H195  1  0.155900  0.957700  0.621100  1
  H  H196  1  0.844100  0.457700  0.878900  1
  H  H197  1  0.784300  0.060200  0.445500  1
  H  H198  1  0.215700  0.560200  0.054500  1
  H  H199  1  0.215700  0.939800  0.554500  1
  H  H200  1  0.784300  0.439800  0.945500  1
  H  H201  1  0.566500  0.150300  0.506600  1
  H  H202  1  0.433500  0.650300  0.993400  1
  H  H203  1  0.433500  0.849700  0.493400  1
  H  H204  1  0.566500  0.349700  0.006600  1
  H  H205  1  0.696200  0.015200  0.560300  1
  H  H206  1  0.303800  0.515200  0.939700  1
  H  H207  1  0.303800  0.984800  0.439700  1
  H  H208  1  0.696200  0.484800  0.060300  1
  H  H209  1  0.775600  0.226000  0.490800  1
  H  H210  1  0.224400  0.726000  0.009200  1
  H  H211  1  0.224400  0.774000  0.509200  1
  H  H212  1  0.775600  0.274000  0.990800  1
  H  H213  1  0.658500  0.213100  0.472800  1
  H  H214  1  0.341500  0.713100  0.027200  1
  H  H215  1  0.341500  0.786900  0.527200  1
  H  H216  1  0.658500  0.286900  0.972800  1
  H  H217  1  0.755800  0.187000  0.451900  1
  H  H218  1  0.244200  0.687000  0.048100  1
  H  H219  1  0.244200  0.813000  0.548100  1
  H  H220  1  0.755800  0.313000  0.951900  1
  H  H221  1  0.495400  0.026200  0.546100  1
  H  H222  1  0.504600  0.526200  0.953900  1
  H  H223  1  0.504600  0.973800  0.453900  1
  H  H224  1  0.495400  0.473800  0.046100  1
  H  H225  1  0.458900  0.091600  0.543400  1
  H  H226  1  0.541100  0.591600  0.956600  1
  H  H227  1  0.541100  0.908400  0.456600  1
  H  H228  1  0.458900  0.408400  0.043400  1
  H  H229  1  0.519800  0.067900  0.583300  1
  H  H230  1  0.480200  0.567900  0.916700  1
  H  H231  1  0.480200  0.932100  0.416700  1
  H  H232  1  0.519800  0.432100  0.083300  1
  H  H233  1  0.922600  0.007400  0.527500  1
  H  H234  1  0.077400  0.507400  0.972500  1
  H  H235  1  0.077400  0.992600  0.472500  1
  H  H236  1  0.922600  0.492600  0.027500  1
  H  H237  1  0.888200  0.008800  0.572100  1
  H  H238  1  0.111800  0.508800  0.927900  1
  H  H239  1  0.111800  0.991200  0.427900  1
  H  H240  1  0.888200  0.491200  0.072100  1
  H  H241  1  0.962700  0.057900  0.556900  1
  H  H242  1  0.037300  0.557900  0.943100  1
  H  H243  1  0.037300  0.942100  0.443100  1
  H  H244  1  0.962700  0.442100  0.056900  1
  H  H245  1  0.915500  0.185900  0.570100  1
  H  H246  1  0.084500  0.685900  0.929900  1
  H  H247  1  0.084500  0.814100  0.429900  1
  H  H248  1  0.915500  0.314100  0.070100  1
  H  H249  1  0.066800  0.249100  0.585100  1
  H  H250  1  0.933200  0.749100  0.914900  1
  H  H251  1  0.933200  0.750900  0.414900  1
  H  H252  1  0.066800  0.250900  0.085100  1
  H  H253  1  0.328800  0.239400  0.604000  1
  H  H254  1  0.671200  0.739400  0.896000  1
  H  H255  1  0.671200  0.760600  0.396000  1
  H  H256  1  0.328800  0.260600  0.104000  1
  H  H257  1  0.355600  0.311800  0.649800  1
  H  H258  1  0.644400  0.811800  0.850200  1
  H  H259  1  0.644400  0.688200  0.350200  1
  H  H260  1  0.355600  0.188200  0.149800  1
  H  H261  1  0.292000  0.402900  0.636100  1
  H  H262  1  0.708000  0.902900  0.863900  1
  H  H263  1  0.708000  0.597100  0.363900  1
  H  H264  1  0.292000  0.097100  0.136100  1
  H  H265  1  0.186000  0.350400  0.528200  1
  H  H266  1  0.814000  0.850400  0.971800  1
  H  H267  1  0.814000  0.649600  0.471800  1
  H  H268  1  0.186000  0.149600  0.028200  1
  H  H269  1  0.426600  0.285600  0.521700  1
  H  H270  1  0.573400  0.785600  0.978300  1
  H  H271  1  0.573400  0.714400  0.478300  1
  H  H272  1  0.426600  0.214400  0.021700  1
  H  H273  1  0.504200  0.248900  0.462200  1
  H  H274  1  0.495800  0.748900  0.037800  1
  H  H275  1  0.495800  0.751100  0.537800  1
  H  H276  1  0.504200  0.251100  0.962200  1
  H  H277  1  0.691400  0.124600  0.371600  1
  H  H278  1  0.308600  0.624600  0.128400  1
  H  H279  1  0.308600  0.875400  0.628400  1
  H  H280  1  0.691400  0.375400  0.871600  1
  H  H281  1  0.598800  0.284600  0.344300  1
  H  H282  1  0.401200  0.784600  0.155700  1
  H  H283  1  0.401200  0.715400  0.655700  1
  H  H284  1  0.598800  0.215400  0.844300  1
  H  H285  1  0.472700  0.080600  0.426100  1
  H  H286  1  0.527300  0.580600  0.073900  1
  H  H287  1  0.527300  0.919400  0.573900  1
  H  H288  1  0.472700  0.419400  0.926100  1
  H  H289  1  0.584900  0.058000  0.411300  1
  H  H290  1  0.415100  0.558000  0.088700  1
  H  H291  1  0.415100  0.942000  0.588700  1
  H  H292  1  0.584900  0.442000  0.911300  1
  H  H293  1  0.816000  0.200600  0.348400  1
  H  H294  1  0.184000  0.700600  0.151600  1
  H  H295  1  0.184000  0.799400  0.651600  1
  H  H296  1  0.816000  0.299400  0.848400  1
  H  H297  1  0.761800  0.255000  0.326600  1
  H  H298  1  0.238200  0.755000  0.173400  1
  H  H299  1  0.238200  0.745000  0.673400  1
  H  H300  1  0.761800  0.245000  0.826600  1
  H  H301  1  0.745300  0.192800  0.307400  1
  H  H302  1  0.254700  0.692800  0.192600  1
  H  H303  1  0.254700  0.807200  0.692600  1
  H  H304  1  0.745300  0.307200  0.807400  1
  H  H305  1  0.355100  0.276300  0.381600  1
  H  H306  1  0.644900  0.776300  0.118400  1
  H  H307  1  0.644900  0.723700  0.618400  1
  H  H308  1  0.355100  0.223700  0.881600  1
  H  H309  1  0.427500  0.312500  0.354300  1
  H  H310  1  0.572500  0.812500  0.145700  1
  H  H311  1  0.572500  0.687500  0.645700  1
  H  H312  1  0.427500  0.187500  0.854300  1
  H  H313  1  0.450100  0.313400  0.401700  1
  H  H314  1  0.549900  0.813400  0.098300  1
  H  H315  1  0.549900  0.686600  0.598300  1
  H  H316  1  0.450100  0.186600  0.901700  1
  H  H317  1  0.374700  0.118200  0.338000  1
  H  H318  1  0.625300  0.618200  0.162000  1
  H  H319  1  0.625300  0.881800  0.662000  1
  H  H320  1  0.374700  0.381800  0.838000  1
  H  H321  1  0.211200  0.066700  0.317600  1
  H  H322  1  0.788800  0.566700  0.182400  1
  H  H323  1  0.788800  0.933300  0.682400  1
  H  H324  1  0.211200  0.433300  0.817600  1
  H  H325  1  0.042600  0.113400  0.299100  1
  H  H326  1  0.957400  0.613400  0.200900  1
  H  H327  1  0.957400  0.886600  0.700900  1
  H  H328  1  0.042600  0.386600  0.799100  1
  H  H329  1  0.904900  0.976300  0.243200  1
  H  H330  1  0.095100  0.476300  0.256800  1
  H  H331  1  0.095100  0.023700  0.756800  1
  H  H332  1  0.904900  0.523700  0.743200  1
  H  H333  1  0.906600  0.928000  0.304000  1
  H  H334  1  0.093400  0.428000  0.196000  1
  H  H335  1  0.093400  0.072000  0.696000  1
  H  H336  1  0.906600  0.572000  0.804000  1
  H  H337  1  0.976400  0.972500  0.362400  1
  H  H338  1  0.023600  0.472500  0.137600  1
  H  H339  1  0.023600  0.027500  0.637600  1
  H  H340  1  0.976400  0.527500  0.862400  1
  H  H341  1  0.010000  0.237000  0.269600  1
  H  H342  1  0.990000  0.737000  0.230400  1
  H  H343  1  0.990000  0.763000  0.730400  1
  H  H344  1  0.010000  0.263000  0.769600  1
  H  H345  1  0.931200  0.264100  0.299000  1
  H  H346  1  0.068800  0.764100  0.201000  1
  H  H347  1  0.068800  0.735900  0.701000  1
  H  H348  1  0.931200  0.235900  0.799000  1
  H  H349  1  0.000800  0.209600  0.312600  1
  H  H350  1  0.999200  0.709600  0.187400  1
  H  H351  1  0.999200  0.790400  0.687400  1
  H  H352  1  0.000800  0.290400  0.812600  1
  H  H353  1  0.188000  0.253600  0.277600  1
  H  H354  1  0.812000  0.753600  0.222400  1
  H  H355  1  0.812000  0.746400  0.722400  1
  H  H356  1  0.188000  0.246400  0.777600  1
  H  H357  1  0.175100  0.213400  0.315300  1
  H  H358  1  0.824900  0.713400  0.184700  1
  H  H359  1  0.824900  0.786600  0.684700  1
  H  H360  1  0.175100  0.286600  0.815300  1
  H  H361  1  0.239800  0.271800  0.320500  1
  H  H362  1  0.760200  0.771800  0.179500  1
  H  H363  1  0.760200  0.728200  0.679500  1
  H  H364  1  0.239800  0.228200  0.820500  1
  H  H365  1  0.137400  0.319900  0.365800  1
  H  H366  1  0.862600  0.819900  0.134200  1
  H  H367  1  0.862600  0.680100  0.634200  1
  H  H368  1  0.137400  0.180100  0.865800  1
  H  H369  1  0.013600  0.310400  0.362200  1
  H  H370  1  0.986400  0.810400  0.137800  1
  H  H371  1  0.986400  0.689600  0.637800  1
  H  H372  1  0.013600  0.189600  0.862200  1
  H  H373  1  0.051700  0.210500  0.369600  1
  H  H374  1  0.948300  0.710500  0.130400  1
  H  H375  1  0.948300  0.789500  0.630400  1
  H  H376  1  0.051700  0.289500  0.869600  1
  H  H377  1  0.168700  0.229500  0.382900  1
  H  H378  1  0.831300  0.729500  0.117100  1
  H  H379  1  0.831300  0.770500  0.617100  1
  H  H380  1  0.168700  0.270500  0.882900  1
  H  H381  1  0.926700  0.244700  0.450400  1
  H  H382  1  0.073300  0.744700  0.049600  1
  H  H383  1  0.073300  0.755300  0.549600  1
  H  H384  1  0.926700  0.255300  0.950400  1
  H  H385  1  0.922500  0.207300  0.410600  1
  H  H386  1  0.077500  0.707300  0.089400  1
  H  H387  1  0.077500  0.792700  0.589400  1
  H  H388  1  0.922500  0.292700  0.910600  1
  H  H389  1  0.917100  0.275500  0.407800  1
  H  H390  1  0.082900  0.775500  0.092200  1
  H  H391  1  0.082900  0.724500  0.592200  1
  H  H392  1  0.917100  0.224500  0.907800  1
  H  H393  1  0.175600  0.305500  0.439700  1
  H  H394  1  0.824400  0.805500  0.060300  1
  H  H395  1  0.824400  0.694500  0.560300  1
  H  H396  1  0.175600  0.194500  0.939700  1
  H  H397  1  0.091400  0.296200  0.471800  1
  H  H398  1  0.908600  0.796200  0.028200  1
  H  H399  1  0.908600  0.703800  0.528200  1
  H  H400  1  0.091400  0.203800  0.971800  1
  H  H401  1  0.059600  0.330700  0.431700  1
  H  H402  1  0.940400  0.830700  0.068300  1
  H  H403  1  0.940400  0.669300  0.568300  1
  H  H404  1  0.059600  0.169300  0.931700  1
  C  C405  1  0.860600  0.339900  0.240000  1
  C  C406  1  0.139400  0.839900  0.260000  1
  C  C407  1  0.139400  0.660100  0.760000  1
  C  C408  1  0.860600  0.160100  0.740000  1
  C  C409  1  0.749600  0.339000  0.244000  1
  C  C410  1  0.250400  0.839000  0.256000  1
  C  C411  1  0.250400  0.661000  0.756000  1
  C  C412  1  0.749600  0.161000  0.744000  1
  C  C413  1  0.739800  0.364500  0.279200  1
  C  C414  1  0.260200  0.864500  0.220800  1
  C  C415  1  0.260200  0.635500  0.720800  1
  C  C416  1  0.739800  0.135500  0.779200  1
  C  C417  1  0.836600  0.382600  0.295900  1
  C  C418  1  0.163400  0.882600  0.204100  1
  C  C419  1  0.163400  0.617400  0.704100  1
  C  C420  1  0.836600  0.117400  0.795900  1
  C  C421  1  0.854600  0.411800  0.330800  1
  C  C422  1  0.145400  0.911800  0.169200  1
  C  C423  1  0.145400  0.588200  0.669200  1
  C  C424  1  0.854600  0.088200  0.830800  1
  C  C425  1  0.763600  0.428800  0.352700  1
  C  C426  1  0.236400  0.928800  0.147300  1
  C  C427  1  0.236400  0.571200  0.647300  1
  C  C428  1  0.763600  0.071200  0.852700  1
  C  C429  1  0.698200  0.468800  0.338300  1
  C  C430  1  0.301800  0.968800  0.161700  1
  C  C431  1  0.301800  0.531200  0.661700  1
  C  C432  1  0.698200  0.031200  0.838300  1
  C  C433  1  0.615100  0.484900  0.360300  1
  C  C434  1  0.384900  0.984900  0.139700  1
  C  C435  1  0.384900  0.515100  0.639700  1
  C  C436  1  0.615100  0.015100  0.860300  1
  C  C437  1  0.600300  0.458700  0.394700  1
  C  C438  1  0.399700  0.958700  0.105300  1
  C  C439  1  0.399700  0.541300  0.605300  1
  C  C440  1  0.600300  0.041300  0.894700  1
  C  C441  1  0.663600  0.417400  0.409700  1
  C  C442  1  0.336400  0.917400  0.090300  1
  C  C443  1  0.336400  0.582600  0.590300  1
  C  C444  1  0.663600  0.082600  0.909700  1
  C  C445  1  0.750000  0.399700  0.388100  1
  C  C446  1  0.250000  0.899700  0.111900  1
  C  C447  1  0.250000  0.600300  0.611900  1
  C  C448  1  0.750000  0.100300  0.888100  1
  C  C449  1  0.955100  0.432600  0.348100  1
  C  C450  1  0.044900  0.932600  0.151900  1
  C  C451  1  0.044900  0.567400  0.651900  1
  C  C452  1  0.955100  0.067400  0.848100  1
  C  C453  1  0.971700  0.470600  0.380300  1
  C  C454  1  0.028300  0.970600  0.119700  1
  C  C455  1  0.028300  0.529400  0.619700  1
  C  C456  1  0.971700  0.029400  0.880300  1
  C  C457  1  0.073500  0.482400  0.385700  1
  C  C458  1  0.926500  0.982400  0.114300  1
  C  C459  1  0.926500  0.517600  0.614300  1
  C  C460  1  0.073500  0.017600  0.885700  1
  C  C461  1  0.120900  0.450700  0.354800  1
  C  C462  1  0.879100  0.950700  0.145200  1
  C  C463  1  0.879100  0.549300  0.645200  1
  C  C464  1  0.120900  0.049300  0.854800  1
  C  C465  1  0.232900  0.452600  0.350300  1
  C  C466  1  0.767100  0.952600  0.149700  1
  C  C467  1  0.767100  0.547400  0.649700  1
  C  C468  1  0.232900  0.047400  0.850300  1
  C  C469  1  0.298900  0.486900  0.379000  1
  C  C470  1  0.701100  0.986900  0.121000  1
  C  C471  1  0.701100  0.513100  0.621000  1
  C  C472  1  0.298900  0.013100  0.879000  1
  C  C473  1  0.319300  0.469600  0.417500  1
  C  C474  1  0.680700  0.969600  0.082500  1
  C  C475  1  0.680700  0.530400  0.582500  1
  C  C476  1  0.319300  0.030400  0.917500  1
  C  C477  1  0.377300  0.505500  0.443100  1
  C  C478  1  0.622700  0.005500  0.056900  1
  C  C479  1  0.622700  0.494500  0.556900  1
  C  C480  1  0.377300  0.994500  0.943100  1
  C  C481  1  0.416600  0.556200  0.431600  1
  C  C482  1  0.583400  0.056200  0.068400  1
  C  C483  1  0.583400  0.443800  0.568400  1
  C  C484  1  0.416600  0.943800  0.931600  1
  C  C485  1  0.398500  0.570500  0.392600  1
  C  C486  1  0.601500  0.070500  0.107400  1
  C  C487  1  0.601500  0.429500  0.607400  1
  C  C488  1  0.398500  0.929500  0.892600  1
  C  C489  1  0.338300  0.539400  0.365800  1
  C  C490  1  0.661700  0.039400  0.134200  1
  C  C491  1  0.661700  0.460600  0.634200  1
  C  C492  1  0.338300  0.960600  0.865800  1
  C  C493  1  0.280300  0.413500  0.432000  1
  C  C494  1  0.719700  0.913500  0.068000  1
  C  C495  1  0.719700  0.586500  0.568000  1
  C  C496  1  0.280300  0.086500  0.932000  1
  C  C497  1  0.487000  0.591800  0.460000  1
  C  C498  1  0.513000  0.091800  0.040000  1
  C  C499  1  0.513000  0.408200  0.540000  1
  C  C500  1  0.487000  0.908200  0.960000  1
  C  C501  1  0.316900  0.561500  0.322800  1
  C  C502  1  0.683100  0.061500  0.177200  1
  C  C503  1  0.683100  0.438500  0.677200  1
  C  C504  1  0.316900  0.938500  0.822800  1
  C  C505  1  0.278500  0.420000  0.321900  1
  C  C506  1  0.721500  0.920000  0.178100  1
  C  C507  1  0.721500  0.580000  0.678100  1
  C  C508  1  0.278500  0.080000  0.821900  1
  C  C509  1  0.392800  0.420000  0.317600  1
  C  C510  1  0.607200  0.920000  0.182400  1
  C  C511  1  0.607200  0.580000  0.682400  1
  C  C512  1  0.392800  0.080000  0.817600  1
  C  C513  1  0.400800  0.386900  0.285200  1
  C  C514  1  0.599200  0.886900  0.214800  1
  C  C515  1  0.599200  0.613100  0.714800  1
  C  C516  1  0.400800  0.113100  0.785200  1
  C  C517  1  0.300600  0.367600  0.265800  1
  C  C518  1  0.699400  0.867600  0.234200  1
  C  C519  1  0.699400  0.632400  0.734200  1
  C  C520  1  0.300600  0.132400  0.765800  1
  C  C521  1  0.281100  0.335200  0.233400  1
  C  C522  1  0.718900  0.835200  0.266600  1
  C  C523  1  0.718900  0.664800  0.766600  1
  C  C524  1  0.281100  0.164800  0.733400  1
  C  C525  1  0.376800  0.313100  0.215600  1
  C  C526  1  0.623200  0.813100  0.284400  1
  C  C527  1  0.623200  0.686900  0.784400  1
  C  C528  1  0.376800  0.186900  0.715600  1
  C  C529  1  0.424500  0.264100  0.231900  1
  C  C530  1  0.575500  0.764100  0.268100  1
  C  C531  1  0.575500  0.735900  0.768100  1
  C  C532  1  0.424500  0.235900  0.731900  1
  C  C533  1  0.509200  0.240100  0.214600  1
  C  C534  1  0.490800  0.740100  0.285400  1
  C  C535  1  0.490800  0.759900  0.785400  1
  C  C536  1  0.509200  0.259900  0.714600  1
  C  C537  1  0.546200  0.265000  0.181000  1
  C  C538  1  0.453800  0.765000  0.319000  1
  C  C539  1  0.453800  0.735000  0.819000  1
  C  C540  1  0.546200  0.235000  0.681000  1
  C  C541  1  0.498500  0.314000  0.164700  1
  C  C542  1  0.501500  0.814000  0.335300  1
  C  C543  1  0.501500  0.686000  0.835300  1
  C  C544  1  0.498500  0.186000  0.664700  1
  C  C545  1  0.413800  0.338000  0.182000  1
  C  C546  1  0.586200  0.838000  0.318000  1
  C  C547  1  0.586200  0.662000  0.818000  1
  C  C548  1  0.413800  0.162000  0.682000  1
  C  C549  1  0.182500  0.321200  0.214800  1
  C  C550  1  0.817500  0.821200  0.285200  1
  C  C551  1  0.817500  0.678800  0.785200  1
  C  C552  1  0.182500  0.178800  0.714800  1
  C  C553  1  0.166300  0.294000  0.178000  1
  C  C554  1  0.833700  0.794000  0.322000  1
  C  C555  1  0.833700  0.706000  0.822000  1
  C  C556  1  0.166300  0.206000  0.678000  1
  C  C557  1  0.063000  0.289100  0.170900  1
  C  C558  1  0.937000  0.789100  0.329100  1
  C  C559  1  0.937000  0.710900  0.829100  1
  C  C560  1  0.063000  0.210900  0.670900  1
  C  C561  1  0.016000  0.314000  0.203800  1
  C  C562  1  0.984000  0.814000  0.296200  1
  C  C563  1  0.984000  0.686000  0.796200  1
  C  C564  1  0.016000  0.186000  0.703800  1
  C  C565  1  0.906600  0.314700  0.206300  1
  C  C566  1  0.093400  0.814700  0.293700  1
  C  C567  1  0.093400  0.685300  0.793700  1
  C  C568  1  0.906600  0.185300  0.706300  1
  C  C569  1  0.839000  0.293800  0.173100  1
  C  C570  1  0.161000  0.793800  0.326900  1
  C  C571  1  0.161000  0.706200  0.826900  1
  C  C572  1  0.839000  0.206200  0.673100  1
  C  C573  1  0.827800  0.236300  0.168700  1
  C  C574  1  0.172200  0.736300  0.331300  1
  C  C575  1  0.172200  0.763700  0.831300  1
  C  C576  1  0.827800  0.263700  0.668700  1
  C  C577  1  0.775500  0.214500  0.136400  1
  C  C578  1  0.224500  0.714500  0.363600  1
  C  C579  1  0.224500  0.785500  0.863600  1
  C  C580  1  0.775500  0.285500  0.636400  1
  C  C581  1  0.729400  0.249500  0.106800  1
  C  C582  1  0.270600  0.749500  0.393200  1
  C  C583  1  0.270600  0.750500  0.893200  1
  C  C584  1  0.729400  0.250500  0.606800  1
  C  C585  1  0.737900  0.308100  0.112600  1
  C  C586  1  0.262100  0.808100  0.387400  1
  C  C587  1  0.262100  0.691900  0.887400  1
  C  C588  1  0.737900  0.191900  0.612600  1
  C  C589  1  0.793700  0.328100  0.144600  1
  C  C590  1  0.206300  0.828100  0.355400  1
  C  C591  1  0.206300  0.671900  0.855400  1
  C  C592  1  0.793700  0.171900  0.644600  1
  C  C593  1  0.871700  0.196300  0.198200  1
  C  C594  1  0.128300  0.696300  0.301800  1
  C  C595  1  0.128300  0.803700  0.801800  1
  C  C596  1  0.871700  0.303700  0.698200  1
  C  C597  1  0.661600  0.227900  0.068600  1
  C  C598  1  0.338400  0.727900  0.431400  1
  C  C599  1  0.338400  0.772100  0.931400  1
  C  C600  1  0.661600  0.272100  0.568600  1
  C  C601  1  0.800500  0.392800  0.148100  1
  C  C602  1  0.199500  0.892800  0.351900  1
  C  C603  1  0.199500  0.607200  0.851900  1
  C  C604  1  0.800500  0.107200  0.648100  1
  C  C605  1  0.712800  0.347800  0.462800  1
  C  C606  1  0.287200  0.847800  0.037200  1
  C  C607  1  0.287200  0.652200  0.537200  1
  C  C608  1  0.712800  0.152200  0.962800  1
  C  C609  1  0.814200  0.373100  0.480000  1
  C  C610  1  0.185800  0.873100  0.020000  1
  C  C611  1  0.185800  0.626900  0.520000  1
  C  C612  1  0.814200  0.126900  0.980000  1
  C  C613  1  0.891300  0.391900  0.492100  1
  C  C614  1  0.108700  0.891900  0.007900  1
  C  C615  1  0.108700  0.608100  0.507900  1
  C  C616  1  0.891300  0.108100  0.992100  1
  C  C617  1  0.985800  0.416500  0.508300  1
  C  C618  1  0.014200  0.916500  0.991700  1
  C  C619  1  0.014200  0.583500  0.491700  1
  C  C620  1  0.985800  0.083500  0.008300  1
  C  C621  1  0.064500  0.433200  0.520600  1
  C  C622  1  0.935500  0.933200  0.979400  1
  C  C623  1  0.935500  0.566800  0.479400  1
  C  C624  1  0.064500  0.066800  0.020600  1
  C  C625  1  0.166000  0.456600  0.537300  1
  C  C626  1  0.834000  0.956600  0.962700  1
  C  C627  1  0.834000  0.543400  0.462700  1
  C  C628  1  0.166000  0.043400  0.037300  1
  C  C629  1  0.520100  0.163200  0.257000  1
  C  C630  1  0.479900  0.663200  0.243000  1
  C  C631  1  0.479900  0.836800  0.743000  1
  C  C632  1  0.520100  0.336800  0.757000  1
  C  C633  1  0.421900  0.140000  0.249300  1
  C  C634  1  0.578100  0.640000  0.250700  1
  C  C635  1  0.578100  0.860000  0.750700  1
  C  C636  1  0.421900  0.360000  0.749300  1
  C  C637  1  0.342400  0.120200  0.240800  1
  C  C638  1  0.657600  0.620200  0.259200  1
  C  C639  1  0.657600  0.879800  0.759200  1
  C  C640  1  0.342400  0.379800  0.740800  1
  C  C641  1  0.240700  0.100100  0.228700  1
  C  C642  1  0.759300  0.600100  0.271300  1
  C  C643  1  0.759300  0.899900  0.771300  1
  C  C644  1  0.240700  0.399900  0.728700  1
  C  C645  1  0.152400  0.083400  0.216600  1
  C  C646  1  0.847600  0.583400  0.283400  1
  C  C647  1  0.847600  0.916600  0.783400  1
  C  C648  1  0.152400  0.416600  0.716600  1
  C  C649  1  0.042600  0.064600  0.202800  1
  C  C650  1  0.957400  0.564600  0.297200  1
  C  C651  1  0.957400  0.935400  0.797200  1
  C  C652  1  0.042600  0.435400  0.702800  1
  C  C653  1  0.988500  0.084900  0.400500  1
  C  C654  1  0.011500  0.584900  0.099500  1
  C  C655  1  0.011500  0.915100  0.599500  1
  C  C656  1  0.988500  0.415100  0.900500  1
  C  C657  1  0.882200  0.061400  0.400300  1
  C  C658  1  0.117800  0.561400  0.099700  1
  C  C659  1  0.117800  0.938600  0.599700  1
  C  C660  1  0.882200  0.438600  0.900300  1
  C  C661  1  0.849300  0.072600  0.436800  1
  C  C662  1  0.150700  0.572600  0.063200  1
  C  C663  1  0.150700  0.927400  0.563200  1
  C  C664  1  0.849300  0.427400  0.936800  1
  C  C665  1  0.925100  0.105300  0.460200  1
  C  C666  1  0.074900  0.605300  0.039800  1
  C  C667  1  0.074900  0.894700  0.539800  1
  C  C668  1  0.925100  0.394700  0.960200  1
  C  C669  1  0.921300  0.129100  0.497600  1
  C  C670  1  0.078700  0.629100  0.002400  1
  C  C671  1  0.078700  0.870900  0.502400  1
  C  C672  1  0.921300  0.370900  0.997600  1
  C  C673  1  0.814100  0.112800  0.513400  1
  C  C674  1  0.185900  0.612800  0.986600  1
  C  C675  1  0.185900  0.887200  0.486600  1
  C  C676  1  0.814100  0.387200  0.013400  1
  C  C677  1  0.726600  0.146100  0.502800  1
  C  C678  1  0.273400  0.646100  0.997200  1
  C  C679  1  0.273400  0.853900  0.497200  1
  C  C680  1  0.726600  0.353900  0.002800  1
  C  C681  1  0.627800  0.129100  0.514700  1
  C  C682  1  0.372200  0.629100  0.985300  1
  C  C683  1  0.372200  0.870900  0.485300  1
  C  C684  1  0.627800  0.370900  0.014700  1
  C  C685  1  0.622200  0.082400  0.537700  1
  C  C686  1  0.377800  0.582400  0.962300  1
  C  C687  1  0.377800  0.917600  0.462300  1
  C  C688  1  0.622200  0.417600  0.037700  1
  C  C689  1  0.704000  0.050200  0.546600  1
  C  C690  1  0.296000  0.550200  0.953400  1
  C  C691  1  0.296000  0.949800  0.453400  1
  C  C692  1  0.704000  0.449800  0.046600  1
  C  C693  1  0.808200  0.067600  0.535500  1
  C  C694  1  0.191800  0.567600  0.964500  1
  C  C695  1  0.191800  0.932400  0.464500  1
  C  C696  1  0.808200  0.432400  0.035500  1
  C  C697  1  0.729400  0.197300  0.477500  1
  C  C698  1  0.270600  0.697300  0.022500  1
  C  C699  1  0.270600  0.802700  0.522500  1
  C  C700  1  0.729400  0.302700  0.977500  1
  C  C701  1  0.513700  0.065400  0.554200  1
  C  C702  1  0.486300  0.565400  0.945800  1
  C  C703  1  0.486300  0.934600  0.445800  1
  C  C704  1  0.513700  0.434600  0.054200  1
  C  C705  1  0.903900  0.032300  0.549200  1
  C  C706  1  0.096100  0.532300  0.950800  1
  C  C707  1  0.096100  0.967700  0.450800  1
  C  C708  1  0.903900  0.467700  0.049200  1
  C  C709  1  0.988000  0.163400  0.517400  1
  C  C710  1  0.012000  0.663400  0.982600  1
  C  C711  1  0.012000  0.836600  0.482600  1
  C  C712  1  0.988000  0.336600  0.017400  1
  C  C713  1  0.973400  0.190600  0.554500  1
  C  C714  1  0.026600  0.690600  0.945500  1
  C  C715  1  0.026600  0.809400  0.445500  1
  C  C716  1  0.973400  0.309400  0.054500  1
  C  C717  1  0.056200  0.223900  0.563000  1
  C  C718  1  0.943800  0.723900  0.937000  1
  C  C719  1  0.943800  0.776100  0.437000  1
  C  C720  1  0.056200  0.276100  0.063000  1
  C  C721  1  0.126300  0.214800  0.532700  1
  C  C722  1  0.873700  0.714800  0.967300  1
  C  C723  1  0.873700  0.785200  0.467300  1
  C  C724  1  0.126300  0.285200  0.032700  1
  C  C725  1  0.225700  0.243000  0.532000  1
  C  C726  1  0.774300  0.743000  0.968000  1
  C  C727  1  0.774300  0.757000  0.468000  1
  C  C728  1  0.225700  0.257000  0.032000  1
  C  C729  1  0.250400  0.285900  0.561400  1
  C  C730  1  0.749600  0.785900  0.938600  1
  C  C731  1  0.749600  0.714100  0.438600  1
  C  C732  1  0.250400  0.214100  0.061400  1
  C  C733  1  0.302700  0.276600  0.597600  1
  C  C734  1  0.697300  0.776600  0.902400  1
  C  C735  1  0.697300  0.723400  0.402400  1
  C  C736  1  0.302700  0.223400  0.097600  1
  C  C737  1  0.318700  0.319600  0.624800  1
  C  C738  1  0.681300  0.819600  0.875200  1
  C  C739  1  0.681300  0.680400  0.375200  1
  C  C740  1  0.318700  0.180400  0.124800  1
  C  C741  1  0.282500  0.373400  0.616800  1
  C  C742  1  0.717500  0.873400  0.883200  1
  C  C743  1  0.717500  0.626600  0.383200  1
  C  C744  1  0.282500  0.126600  0.116800  1
  C  C745  1  0.233700  0.383600  0.581500  1
  C  C746  1  0.766300  0.883600  0.918500  1
  C  C747  1  0.766300  0.616400  0.418500  1
  C  C748  1  0.233700  0.116400  0.081500  1
  C  C749  1  0.218900  0.341300  0.553700  1
  C  C750  1  0.781100  0.841300  0.946300  1
  C  C751  1  0.781100  0.658700  0.446300  1
  C  C752  1  0.218900  0.158700  0.053700  1
  C  C753  1  0.294500  0.231700  0.504100  1
  C  C754  1  0.705500  0.731700  0.995900  1
  C  C755  1  0.705500  0.768300  0.495900  1
  C  C756  1  0.294500  0.268300  0.004100  1
  C  C757  1  0.395500  0.259100  0.503000  1
  C  C758  1  0.604500  0.759100  0.997000  1
  C  C759  1  0.604500  0.740900  0.497000  1
  C  C760  1  0.395500  0.240900  0.003000  1
  C  C761  1  0.436600  0.239400  0.469900  1
  C  C762  1  0.563400  0.739400  0.030100  1
  C  C763  1  0.563400  0.760600  0.530100  1
  C  C764  1  0.436600  0.260600  0.969900  1
  C  C765  1  0.366600  0.203300  0.448600  1
  C  C766  1  0.633400  0.703300  0.051400  1
  C  C767  1  0.633400  0.796700  0.551400  1
  C  C768  1  0.366600  0.296700  0.948600  1
  C  C769  1  0.379900  0.178200  0.413300  1
  C  C770  1  0.620100  0.678200  0.086700  1
  C  C771  1  0.620100  0.821800  0.586700  1
  C  C772  1  0.379900  0.321800  0.913300  1
  C  C773  1  0.479200  0.188100  0.393900  1
  C  C774  1  0.520800  0.688100  0.106100  1
  C  C775  1  0.520800  0.811900  0.606100  1
  C  C776  1  0.479200  0.311900  0.893900  1
  C  C777  1  0.549100  0.141900  0.393900  1
  C  C778  1  0.450900  0.641900  0.106100  1
  C  C779  1  0.450900  0.858100  0.606100  1
  C  C780  1  0.549100  0.358100  0.893900  1
  C  C781  1  0.640500  0.153900  0.373100  1
  C  C782  1  0.359500  0.653900  0.126900  1
  C  C783  1  0.359500  0.846100  0.626900  1
  C  C784  1  0.640500  0.346100  0.873100  1
  C  C785  1  0.658200  0.205700  0.355300  1
  C  C786  1  0.341800  0.705700  0.144700  1
  C  C787  1  0.341800  0.794300  0.644700  1
  C  C788  1  0.658200  0.294300  0.855300  1
  C  C789  1  0.587300  0.248800  0.356600  1
  C  C790  1  0.412700  0.748800  0.143400  1
  C  C791  1  0.412700  0.751200  0.643400  1
  C  C792  1  0.587300  0.251200  0.856600  1
  C  C793  1  0.498100  0.239600  0.376400  1
  C  C794  1  0.501900  0.739600  0.123600  1
  C  C795  1  0.501900  0.760400  0.623600  1
  C  C796  1  0.498100  0.260400  0.876400  1
  C  C797  1  0.533800  0.087300  0.412600  1
  C  C798  1  0.466200  0.587300  0.087400  1
  C  C799  1  0.466200  0.912700  0.587400  1
  C  C800  1  0.533800  0.412700  0.912600  1
  C  C801  1  0.753700  0.214300  0.332400  1
  C  C802  1  0.246300  0.714300  0.167600  1
  C  C803  1  0.246300  0.785700  0.667600  1
  C  C804  1  0.753700  0.285700  0.832400  1
  C  C805  1  0.426500  0.289800  0.378700  1
  C  C806  1  0.573500  0.789800  0.121300  1
  C  C807  1  0.573500  0.710200  0.621300  1
  C  C808  1  0.426500  0.210200  0.878700  1
  C  C809  1  0.308000  0.144100  0.392700  1
  C  C810  1  0.692000  0.644100  0.107300  1
  C  C811  1  0.692000  0.855900  0.607300  1
  C  C812  1  0.308000  0.355900  0.892700  1
  C  C813  1  0.315000  0.116400  0.353000  1
  C  C814  1  0.685000  0.616400  0.147000  1
  C  C815  1  0.685000  0.883600  0.647000  1
  C  C816  1  0.315000  0.383600  0.853000  1
  C  C817  1  0.225400  0.088500  0.341200  1
  C  C818  1  0.774600  0.588500  0.158800  1
  C  C819  1  0.774600  0.911500  0.658800  1
  C  C820  1  0.225400  0.411500  0.841200  1
  C  C821  1  0.156700  0.098800  0.371800  1
  C  C822  1  0.843300  0.598800  0.128200  1
  C  C823  1  0.843300  0.901200  0.628200  1
  C  C824  1  0.156700  0.401200  0.871800  1
  C  C825  1  0.054500  0.079700  0.369400  1
  C  C826  1  0.945500  0.579700  0.130600  1
  C  C827  1  0.945500  0.920300  0.630600  1
  C  C828  1  0.054500  0.420300  0.869400  1
  C  C829  1  0.016100  0.047200  0.336300  1
  C  C830  1  0.983900  0.547200  0.163700  1
  C  C831  1  0.983900  0.952800  0.663700  1
  C  C832  1  0.016100  0.452800  0.836300  1
  C  C833  1  0.015000  0.075800  0.300100  1
  C  C834  1  0.985000  0.575800  0.199900  1
  C  C835  1  0.985000  0.924200  0.699900  1
  C  C836  1  0.015000  0.424200  0.800100  1
  C  C837  1  0.973600  0.049400  0.265400  1
  C  C838  1  0.026400  0.549400  0.234600  1
  C  C839  1  0.026400  0.950600  0.734600  1
  C  C840  1  0.973600  0.450600  0.765400  1
  C  C841  1  0.933200  0.994300  0.266900  1
  C  C842  1  0.066800  0.494300  0.233100  1
  C  C843  1  0.066800  0.005700  0.733100  1
  C  C844  1  0.933200  0.505700  0.766900  1
  C  C845  1  0.934200  0.965700  0.303000  1
  C  C846  1  0.065800  0.465700  0.197000  1
  C  C847  1  0.065800  0.034300  0.697000  1
  C  C848  1  0.934200  0.534300  0.803000  1
  C  C849  1  0.975700  0.992100  0.337700  1
  C  C850  1  0.024300  0.492100  0.162300  1
  C  C851  1  0.024300  0.007900  0.662300  1
  C  C852  1  0.975700  0.507900  0.837700  1
  C  C853  1  0.999300  0.245400  0.297400  1
  C  C854  1  0.000700  0.745400  0.202600  1
  C  C855  1  0.000700  0.754600  0.702600  1
  C  C856  1  0.999300  0.254600  0.797400  1
  C  C857  1  0.179500  0.253100  0.306300  1
  C  C858  1  0.820500  0.753100  0.193700  1
  C  C859  1  0.820500  0.746900  0.693700  1
  C  C860  1  0.179500  0.246900  0.806300  1
  C  C861  1  0.081300  0.292400  0.357300  1
  C  C862  1  0.918700  0.792400  0.142700  1
  C  C863  1  0.918700  0.707600  0.642700  1
  C  C864  1  0.081300  0.207600  0.857300  1
  C  C865  1  0.094500  0.241500  0.382500  1
  C  C866  1  0.905500  0.741500  0.117500  1
  C  C867  1  0.905500  0.758500  0.617500  1
  C  C868  1  0.094500  0.258500  0.882500  1
  C  C869  1  0.947600  0.243100  0.423000  1
  C  C870  1  0.052400  0.743100  0.077000  1
  C  C871  1  0.052400  0.756900  0.577000  1
  C  C872  1  0.947600  0.256900  0.923000  1
  C  C873  1  0.101400  0.298900  0.443300  1
  C  C874  1  0.898600  0.798900  0.056700  1
  C  C875  1  0.898600  0.701100  0.556700  1
  C  C876  1  0.101400  0.201100  0.943300  1
  N  N877  1  0.909400  0.364600  0.271500  1
  N  N878  1  0.090600  0.864600  0.228500  1
  N  N879  1  0.090600  0.635400  0.728500  1
  N  N880  1  0.909400  0.135400  0.771500  1
  N  N881  1  0.047800  0.420600  0.332200  1
  N  N882  1  0.952200  0.920600  0.167800  1
  N  N883  1  0.952200  0.579400  0.667800  1
  N  N884  1  0.047800  0.079400  0.832200  1
  N  N885  1  0.229200  0.389400  0.291200  1
  N  N886  1  0.770800  0.889400  0.208800  1
  N  N887  1  0.770800  0.610600  0.708800  1
  N  N888  1  0.229200  0.110600  0.791200  1
  N  N889  1  0.090100  0.333500  0.229900  1
  N  N890  1  0.909900  0.833500  0.270100  1
  N  N891  1  0.909900  0.666500  0.770100  1
  N  N892  1  0.090100  0.166500  0.729900  1
  N  N893  1  0.011400  0.112500  0.436600  1
  N  N894  1  0.988600  0.612500  0.063400  1
  N  N895  1  0.988600  0.887500  0.563400  1
  N  N896  1  0.011400  0.387500  0.936600  1
  N  N897  1  0.084300  0.179200  0.505000  1
  N  N898  1  0.915700  0.679200  0.995000  1
  N  N899  1  0.915700  0.820800  0.495000  1
  N  N900  1  0.084300  0.320800  0.005000  1
  N  N901  1  0.281700  0.199200  0.470700  1
  N  N902  1  0.718300  0.699200  0.029300  1
  N  N903  1  0.718300  0.800800  0.529300  1
  N  N904  1  0.281700  0.300800  0.970700  1
  N  N905  1  0.207200  0.131000  0.403300  1
  N  N906  1  0.792800  0.631000  0.096700  1
  N  N907  1  0.792800  0.869000  0.596700  1
  N  N908  1  0.207200  0.369000  0.903300  1
  N  N909  1  0.083200  0.283600  0.314100  1
  N  N910  1  0.916800  0.783600  0.185900  1
  N  N911  1  0.916800  0.716400  0.685900  1
  N  N912  1  0.083200  0.216400  0.814100  1
  N  N913  1  0.067700  0.245700  0.423700  1
  N  N914  1  0.932300  0.745700  0.076300  1
  N  N915  1  0.932300  0.754300  0.576300  1
  N  N916  1  0.067700  0.254300  0.923700  1
  O  O917  1  0.644800  0.391900  0.445000  1
  O  O918  1  0.355200  0.891900  0.055000  1
  O  O919  1  0.355200  0.608100  0.555000  1
  O  O920  1  0.644800  0.108100  0.945000  1
  O  O921  1  0.199800  0.440700  0.575500  1
  O  O922  1  0.800200  0.940700  0.924500  1
  O  O923  1  0.800200  0.559300  0.424500  1
  O  O924  1  0.199800  0.059300  0.075500  1
  O  O925  1  0.558300  0.193000  0.227200  1
  O  O926  1  0.441700  0.693000  0.272800  1
  O  O927  1  0.441700  0.807000  0.772800  1
  O  O928  1  0.558300  0.307000  0.727200  1
  O  O929  1  0.964100  0.078300  0.228400  1
  O  O930  1  0.035900  0.578300  0.271600  1
  O  O931  1  0.035900  0.921700  0.771600  1
  O  O932  1  0.964100  0.421700  0.728400  1
  O  O933  1  0.212000  0.410400  0.091000  1
  O  O934  1  0.788000  0.910400  0.409000  1
  O  O935  1  0.788000  0.589600  0.909000  1
  O  O936  1  0.212000  0.089600  0.591000  1
  O  O937  1  0.670000  0.990300  0.344400  1
  O  O938  1  0.330000  0.490300  0.155600  1
  O  O939  1  0.330000  0.009700  0.655600  1
  O  O940  1  0.670000  0.509700  0.844400  1
  O  O941  1  0.427000  0.983000  0.301200  1
  O  O942  1  0.573000  0.483000  0.198800  1
  O  O943  1  0.573000  0.017000  0.698800  1
  O  O944  1  0.427000  0.517000  0.801200  1
  O  O945  1  0.488000  0.022000  0.300000  1
  O  O946  1  0.512000  0.522000  0.200000  1
  O  O947  1  0.512000  0.978000  0.700000  1
  O  O948  1  0.488000  0.478000  0.800000  1
