
#######################################################################
#
#                 Cambridge Crystallographic Data Centre
#                                CCDC 
#
#######################################################################
#
# If this CIF has been generated from an entry in the Cambridge 
# Structural Database, then it will include bibliographic, chemical, 
# crystal, experimental, refinement or atomic coordinate data resulting 
# from the CCDC's data processing and validation procedures.
#
#######################################################################

data_CAWSOL
_chemical_formula_moiety         'C68 H48 Cl4 N8 O8 Zn2,6(C2 H3 N1)'
_chemical_name_systematic        
"bis(\m-{N,N'-[naphthalene-2,3-diylbis(oxy-4,1-phenylene)]bis(pyridine-3-carboxamide)})-tetrachloro-di-zinc(ii) acetonitrile solvate"
_symmetry_cell_setting           orthorhombic
_symmetry_space_group_name_H-M   'C m c a'
_symmetry_Int_Tables_number      64
_space_group_name_Hall           '-C 2ac 2'
loop_
_symmetry_equiv_pos_site_id
_symmetry_equiv_pos_as_xyz
1 x,y,z
2 -x,1/2-y,1/2+z
3 x,-y,-z
4 -x,1/2+y,1/2-z
5 1/2+x,1/2+y,z
6 1/2-x,-y,1/2+z
7 1/2+x,1/2-y,-z
8 1/2-x,y,1/2-z
9 -x,-y,-z
10 x,1/2+y,1/2-z
11 -x,y,z
12 x,1/2-y,1/2+z
13 1/2-x,1/2-y,-z
14 1/2+x,y,1/2-z
15 1/2-x,1/2+y,z
16 1/2+x,-y,1/2+z
_cell_length_a                   32.2944(8)
_cell_length_b                   9.5094(2)
_cell_length_c                   25.2060(6)
_cell_angle_alpha                90
_cell_angle_beta                 90
_cell_angle_gamma                90
_cell_volume                     7740.77
_exptl_crystal_colour            yellow
_exptl_crystal_description       block
_cell_formula_units_Z            4
loop_
_atom_site_label
_atom_site_type_symbol
_atom_site_fract_x
_atom_site_fract_y
_atom_site_fract_z
Zn1 Zn 0.0000 0.61728(7) 0.36789(3)
Cl1 Cl 0.0000 0.7223(2) 0.29029(8)
Cl2 Cl 0.0000 0.71112(19) 0.44869(7)
O1 O 0.10702(11) 0.0865(3) 0.28178(11)
O2 O 0.14596(9) 0.1052(3) 0.03327(11)
N1 N 0.04750(11) 0.4697(4) 0.36984(12)
N2 N 0.10750(10) 0.2930(3) 0.23629(12)
C1 C 0.06176(15) 0.4262(5) 0.41685(17)
H1 H 0.0530 0.4743 0.4479
C2 C 0.08823(18) 0.3161(5) 0.42196(18)
H2 H 0.0976 0.2877 0.4560
C3 C 0.10129(16) 0.2460(5) 0.37722(16)
H3 H 0.1196 0.1680 0.3800
C4 C 0.08733(13) 0.2910(4) 0.32801(15)
C5 C 0.06078(12) 0.4048(4) 0.32589(15)
H4 H 0.0517 0.4379 0.2923
C6 C 0.10151(12) 0.2137(4) 0.27920(15)
C7 C 0.11848(12) 0.2399(4) 0.18512(14)
C8 C 0.14544(13) 0.1288(4) 0.17869(16)
H5 H 0.1570 0.0838 0.2089
C9 C 0.15564(13) 0.0828(5) 0.12840(15)
H6 H 0.1738 0.0050 0.1238
C10 C 0.13921(12) 0.1512(5) 0.08467(15)
C11 C 0.11303(12) 0.2638(4) 0.09065(16)
H7 H 0.1026 0.3116 0.0603
C12 C 0.10185(13) 0.3076(4) 0.14117(16)
H8 H 0.0830 0.3832 0.1457
C13 C 0.18452(12) 0.0540(4) 0.01913(15)
C14 C 0.22081(13) 0.1068(4) 0.03804(16)
H9 H 0.2205 0.1796 0.0639
C15 C 0.25892(12) 0.0534(4) 0.01926(15)
C16 C 0.29722(14) 0.1049(5) 0.03846(18)
H10 H 0.2977 0.1760 0.0649
C17 C 0.33316(14) 0.0529(5) 0.01911(18)
H11 H 0.3587 0.0891 0.0317
O1B O 0.10702(11) -0.0865(3) -0.28178(11)
O2B O 0.14596(9) -0.1052(3) -0.03327(11)
N1B N 0.04750(11) -0.4697(4) -0.36984(12)
N2B N 0.10750(10) -0.2930(3) -0.23629(12)
C1B C 0.06176(15) -0.4262(5) -0.41685(17)
H1B H 0.0530 -0.4743 -0.4479
C2B C 0.08823(18) -0.3161(5) -0.42196(18)
H2B H 0.0976 -0.2877 -0.4560
C3B C 0.10129(16) -0.2460(5) -0.37722(16)
H3B H 0.1196 -0.1680 -0.3800
C4B C 0.08733(13) -0.2910(4) -0.32801(15)
C5B C 0.06078(12) -0.4048(4) -0.32589(15)
H4B H 0.0517 -0.4379 -0.2923
C6B C 0.10151(12) -0.2137(4) -0.27920(15)
C7B C 0.11848(12) -0.2399(4) -0.18512(14)
C8B C 0.14544(13) -0.1288(4) -0.17869(16)
H5B H 0.1570 -0.0838 -0.2089
C9B C 0.15564(13) -0.0828(5) -0.12840(15)
H6B H 0.1738 -0.0050 -0.1238
C10B C 0.13921(12) -0.1512(5) -0.08467(15)
C11B C 0.11303(12) -0.2638(4) -0.09065(16)
H7B H 0.1026 -0.3116 -0.0603
C12B C 0.10185(13) -0.3076(4) -0.14117(16)
H8B H 0.0830 -0.3832 -0.1457
C13B C 0.18452(12) -0.0540(4) -0.01913(15)
C14B C 0.22081(13) -0.1068(4) -0.03804(16)
H9B H 0.2205 -0.1796 -0.0639
C15B C 0.25892(12) -0.0534(4) -0.01926(15)
C16B C 0.29722(14) -0.1049(5) -0.03846(18)
H10B H 0.2977 -0.1760 -0.0649
C17B C 0.33316(14) -0.0529(5) -0.01911(18)
H11B H 0.3587 -0.0891 -0.0317
Zn1B Zn 0.0000 -0.61728(7) -0.36789(3)
Cl1B Cl 0.0000 -0.7223(2) -0.29029(8)
Cl2B Cl 0.0000 -0.71112(19) -0.44869(7)
O1H O -0.10702(11) -0.0865(3) -0.28178(11)
O2H O -0.14596(9) -0.1052(3) -0.03327(11)
N1H N -0.04750(11) -0.4697(4) -0.36984(12)
N2H N -0.10750(10) -0.2930(3) -0.23629(12)
C1H C -0.06176(15) -0.4262(5) -0.41685(17)
H1H H -0.0530 -0.4743 -0.4479
C2H C -0.08823(18) -0.3161(5) -0.42196(18)
H2H H -0.0976 -0.2877 -0.4560
C3H C -0.10129(16) -0.2460(5) -0.37722(16)
H3H H -0.1196 -0.1680 -0.3800
C4H C -0.08733(13) -0.2910(4) -0.32801(15)
C5H C -0.06078(12) -0.4048(4) -0.32589(15)
H4H H -0.0517 -0.4379 -0.2923
C6H C -0.10151(12) -0.2137(4) -0.27920(15)
C7H C -0.11848(12) -0.2399(4) -0.18512(14)
C8H C -0.14544(13) -0.1288(4) -0.17869(16)
H5H H -0.1570 -0.0838 -0.2089
C9H C -0.15564(13) -0.0828(5) -0.12840(15)
H6H H -0.1738 -0.0050 -0.1238
C10H C -0.13921(12) -0.1512(5) -0.08467(15)
C11H C -0.11303(12) -0.2638(4) -0.09065(16)
H7H H -0.1026 -0.3116 -0.0603
C12H C -0.10185(13) -0.3076(4) -0.14117(16)
H8H H -0.0830 -0.3832 -0.1457
C13H C -0.18452(12) -0.0540(4) -0.01913(15)
C14H C -0.22081(13) -0.1068(4) -0.03804(16)
H9H H -0.2205 -0.1796 -0.0639
C15H C -0.25892(12) -0.0534(4) -0.01926(15)
C16H C -0.29722(14) -0.1049(5) -0.03846(18)
H10H H -0.2977 -0.1760 -0.0649
C17H C -0.33316(14) -0.0529(5) -0.01911(18)
H11H H -0.3587 -0.0891 -0.0317
O1J O -0.10702(11) 0.0865(3) 0.28178(11)
O2J O -0.14596(9) 0.1052(3) 0.03327(11)
N1J N -0.04750(11) 0.4697(4) 0.36984(12)
N2J N -0.10750(10) 0.2930(3) 0.23629(12)
C1J C -0.06176(15) 0.4262(5) 0.41685(17)
H1J H -0.0530 0.4743 0.4479
C2J C -0.08823(18) 0.3161(5) 0.42196(18)
H2J H -0.0976 0.2877 0.4560
C3J C -0.10129(16) 0.2460(5) 0.37722(16)
H3J H -0.1196 0.1680 0.3800
C4J C -0.08733(13) 0.2910(4) 0.32801(15)
C5J C -0.06078(12) 0.4048(4) 0.32589(15)
H4J H -0.0517 0.4379 0.2923
C6J C -0.10151(12) 0.2137(4) 0.27920(15)
C7J C -0.11848(12) 0.2399(4) 0.18512(14)
C8J C -0.14544(13) 0.1288(4) 0.17869(16)
H5J H -0.1570 0.0838 0.2089
C9J C -0.15564(13) 0.0828(5) 0.12840(15)
H6J H -0.1738 0.0050 0.1238
C10J C -0.13921(12) 0.1512(5) 0.08467(15)
C11J C -0.11303(12) 0.2638(4) 0.09065(16)
H7J H -0.1026 0.3116 0.0603
C12J C -0.10185(13) 0.3076(4) 0.14117(16)
H8J H -0.0830 0.3832 0.1457
C13J C -0.18452(12) 0.0540(4) 0.01913(15)
C14J C -0.22081(13) 0.1068(4) 0.03804(16)
H9J H -0.2205 0.1796 0.0639
C15J C -0.25892(12) 0.0534(4) 0.01926(15)
C16J C -0.29722(14) 0.1049(5) 0.03846(18)
H10J H -0.2977 0.1760 0.0649
C17J C -0.33316(14) 0.0529(5) 0.01911(18)
H11J H -0.3587 0.0891 0.0317
N3 N 0.2184(7) 0.7891(14) 0.1819(6)
C18 C 0.2106(5) 0.4657(14) 0.1774(6)
H12 H 0.1866 0.4245 0.1953
H13 H 0.2098 0.4412 0.1397
H14 H 0.2361 0.4287 0.1933
C19 C 0.2095(3) 0.6404(17) 0.1841(4)
loop_
_geom_bond_atom_site_label_1
_geom_bond_atom_site_label_2
_geom_bond_site_symmetry_1
_geom_bond_site_symmetry_2
Zn1 Cl1 1_555 1_555
Cl2 Zn1 1_555 1_555
O1 C6 1_555 1_555
O2 C10 1_555 1_555
N1 Zn1 1_555 1_555
N2 C6 1_555 1_555
C1 N1 1_555 1_555
H1 C1 1_555 1_555
C2 C1 1_555 1_555
H2 C2 1_555 1_555
C3 C2 1_555 1_555
H3 C3 1_555 1_555
C4 C3 1_555 1_555
C5 N1 1_555 1_555
H4 C5 1_555 1_555
C6 C4 1_555 1_555
C7 N2 1_555 1_555
C8 C7 1_555 1_555
H5 C8 1_555 1_555
C9 C8 1_555 1_555
H6 C9 1_555 1_555
C10 C9 1_555 1_555
C11 C10 1_555 1_555
H7 C11 1_555 1_555
C12 C7 1_555 1_555
H8 C12 1_555 1_555
C13 O2 1_555 1_555
C14 C13 1_555 1_555
H9 C14 1_555 1_555
C15 C14 1_555 1_555
C16 C15 1_555 1_555
H10 C16 1_555 1_555
C17 C16 1_555 1_555
H11 C17 1_555 1_555
N3 C19 1_555 1_555
C18 H12 1_555 1_555
H13 C18 1_555 1_555
H14 C18 1_555 1_555
C19 C18 1_555 1_555
O1B C6B 1_555 1_555
O2B C10B 1_555 1_555
N1B C1B 1_555 1_555
N2B C6B 1_555 1_555
C1B H1B 1_555 1_555
C2B C1B 1_555 1_555
H2B C2B 1_555 1_555
C3B C2B 1_555 1_555
H3B C3B 1_555 1_555
C4B C3B 1_555 1_555
C5B N1B 1_555 1_555
H4B C5B 1_555 1_555
C6B C4B 1_555 1_555
C7B N2B 1_555 1_555
C8B C7B 1_555 1_555
H5B C8B 1_555 1_555
C9B C8B 1_555 1_555
H6B C9B 1_555 1_555
C10B C9B 1_555 1_555
C11B C10B 1_555 1_555
H7B C11B 1_555 1_555
C12B C7B 1_555 1_555
H8B C12B 1_555 1_555
C13B C13 1_555 1_555
C14B C13B 1_555 1_555
H9B C14B 1_555 1_555
C15B C15 1_555 1_555
C16B C15B 1_555 1_555
H10B C16B 1_555 1_555
C17B C17 1_555 1_555
H11B C17B 1_555 1_555
Zn1B N1B 1_555 1_555
Cl1B Zn1B 1_555 1_555
Cl2B Zn1B 1_555 1_555
O1H C6H 1_555 1_555
O2H C10H 1_555 1_555
N1H Zn1B 1_555 1_555
N2H C6H 1_555 1_555
C1H N1H 1_555 1_555
H1H C1H 1_555 1_555
C2H C1H 1_555 1_555
H2H C2H 1_555 1_555
C3H C2H 1_555 1_555
H3H C3H 1_555 1_555
C4H C3H 1_555 1_555
C5H N1H 1_555 1_555
H4H C5H 1_555 1_555
C6H C4H 1_555 1_555
C7H N2H 1_555 1_555
C8H C7H 1_555 1_555
H5H C8H 1_555 1_555
C9H C8H 1_555 1_555
H6H C9H 1_555 1_555
C10H C9H 1_555 1_555
C11H C10H 1_555 1_555
H7H C11H 1_555 1_555
C12H C7H 1_555 1_555
H8H C12H 1_555 1_555
C13H O2H 1_555 1_555
C14H C13H 1_555 1_555
H9H C14H 1_555 1_555
C15H C14H 1_555 1_555
C16H C15H 1_555 1_555
H10H C16H 1_555 1_555
C17H C16H 1_555 1_555
H11H C17H 1_555 1_555
O1J C6J 1_555 1_555
O2J C10J 1_555 1_555
N1J Zn1 1_555 1_555
N2J C6J 1_555 1_555
C1J N1J 1_555 1_555
H1J C1J 1_555 1_555
C2J C1J 1_555 1_555
H2J C2J 1_555 1_555
C3J C2J 1_555 1_555
H3J C3J 1_555 1_555
C4J C3J 1_555 1_555
C5J N1J 1_555 1_555
H4J C5J 1_555 1_555
C6J C4J 1_555 1_555
C7J N2J 1_555 1_555
C8J C7J 1_555 1_555
H5J C8J 1_555 1_555
C9J C8J 1_555 1_555
H6J C9J 1_555 1_555
C10J C9J 1_555 1_555
C11J C10J 1_555 1_555
H7J C11J 1_555 1_555
C12J C7J 1_555 1_555
H8J C12J 1_555 1_555
C13J C13H 1_555 1_555
C14J C13J 1_555 1_555
H9J C14J 1_555 1_555
C15J C15H 1_555 1_555
C16J C15J 1_555 1_555
H10J C16J 1_555 1_555
C17J C17H 1_555 1_555
H11J C17J 1_555 1_555
C4 C5 1_555 1_555
C11 C12 1_555 1_555
O2B C13B 1_555 1_555
C4B C5B 1_555 1_555
C11B C12B 1_555 1_555
C14B C15B 1_555 1_555
C16B C17B 1_555 1_555
C4H C5H 1_555 1_555
C11H C12H 1_555 1_555
O2J C13J 1_555 1_555
C4J C5J 1_555 1_555
C11J C12J 1_555 1_555
C14J C15J 1_555 1_555
C16J C17J 1_555 1_555

#END
