
#######################################################################
#
#                 Cambridge Crystallographic Data Centre
#                                CCDC 
#
#######################################################################
#
# If this CIF has been generated from an entry in the Cambridge 
# Structural Database, then it will include bibliographic, chemical, 
# crystal, experimental, refinement or atomic coordinate data resulting 
# from the CCDC's data processing and validation procedures.
#
#######################################################################

data_CAWSIF
_chemical_formula_moiety         'C68 H48 I4 N8 O8 Zn2,4(C2 H3 N1)'
_chemical_name_systematic        
"bis(\m-{N,N'-[naphthalene-2,3-diylbis(oxy-4,1-phenylene)]bis(pyridine-3-carboxamide)})-tetrakis(iodo)-di-zinc acetonitrile solvate"
_symmetry_cell_setting           orthorhombic
_symmetry_space_group_name_H-M   'C m c a'
_symmetry_Int_Tables_number      64
_space_group_name_Hall           '-C 2ac 2'
loop_
_symmetry_equiv_pos_site_id
_symmetry_equiv_pos_as_xyz
1 x,y,z
2 -x,1/2-y,1/2+z
3 x,-y,-z
4 -x,1/2+y,1/2-z
5 1/2+x,1/2+y,z
6 1/2-x,-y,1/2+z
7 1/2+x,1/2-y,-z
8 1/2-x,y,1/2-z
9 -x,-y,-z
10 x,1/2+y,1/2-z
11 -x,y,z
12 x,1/2-y,1/2+z
13 1/2-x,1/2-y,-z
14 1/2+x,y,1/2-z
15 1/2-x,1/2+y,z
16 1/2+x,-y,1/2+z
_cell_length_a                   32.2573(4)
_cell_length_b                   9.35470(10)
_cell_length_c                   25.2417(3)
_cell_angle_alpha                90
_cell_angle_beta                 90
_cell_angle_gamma                90
_cell_volume                     7616.87
_exptl_crystal_colour            yellow
_exptl_crystal_description       BLOCK
_cell_formula_units_Z            4
loop_
_atom_site_label
_atom_site_type_symbol
_atom_site_fract_x
_atom_site_fract_y
_atom_site_fract_z
Zn1 Zn 0.0000 -0.12924(12) 0.13256(4)
I1 I 0.0000 -0.27024(9) 0.04617(3)
I2 I 0.0000 -0.23926(9) 0.22308(3)
O1 O 0.11246(18) 0.4020(5) 0.21606(19)
O2 O 0.14701(16) 0.4001(6) 0.46432(18)
N1 N 0.04771(18) 0.0193(6) 0.12914(19)
N2 N 0.11306(17) 0.1945(6) 0.26176(19)
H1 H 0.1107 0.1012 0.2587
C1 C 0.0592(3) 0.0717(9) 0.0815(3)
H2 H 0.0484 0.0283 0.0504
C2 C 0.0856(3) 0.1846(10) 0.0762(3)
H3 H 0.0935 0.2181 0.0421
C3 C 0.1008(4) 0.2492(12) 0.1215(4)
H4 H 0.1187 0.3298 0.1188
C4 C 0.0900(5) 0.1962(15) 0.1705(5)
C5 C 0.0636(2) 0.0807(7) 0.1726(2)
H5 H 0.0564 0.0428 0.2063
C6 C 0.1061(2) 0.2739(7) 0.2185(3)
C7 C 0.1230(2) 0.2500(7) 0.3131(2)
C8 C 0.1504(2) 0.3635(8) 0.3187(3)
H6 H 0.1631 0.4055 0.2885
C9 C 0.1590(2) 0.4147(9) 0.3692(3)
H7 H 0.1763 0.4959 0.3736
C10 C 0.1421(2) 0.3471(8) 0.4131(2)
C11 C 0.1152(2) 0.2339(8) 0.4069(3)
H8 H 0.1031 0.1899 0.4372
C12 C 0.1057(2) 0.1843(8) 0.3569(3)
H9 H 0.0874 0.1055 0.3525
C13 C 0.1857(2) 0.4472(8) 0.4802(2)
C14 C 0.2217(2) 0.3963(8) 0.4603(3)
H10 H 0.2213 0.3264 0.4330
C15 C 0.2605(2) 0.4476(8) 0.4805(3)
C16 C 0.2991(2) 0.3939(10) 0.4616(3)
H11 H 0.2994 0.3208 0.4355
C17 C 0.3353(2) 0.4462(10) 0.4805(3)
H12 H 0.3609 0.4101 0.4674
O1B O 0.11246(18) 0.5980(5) 0.78394(19)
O2B O 0.14701(16) 0.5999(6) 0.53568(18)
N1B N 0.04771(18) 0.9807(6) 0.87086(19)
N2B N 0.11306(17) 0.8055(6) 0.73824(19)
H1B H 0.1107 0.8988 0.7413
C1B C 0.0592(3) 0.9283(9) 0.9185(3)
H2B H 0.0484 0.9717 0.9496
C2B C 0.0856(3) 0.8154(10) 0.9238(3)
H3B H 0.0935 0.7819 0.9579
C3B C 0.1008(4) 0.7508(12) 0.8785(4)
H4B H 0.1187 0.6702 0.8812
C4B C 0.0900(5) 0.8038(15) 0.8295(5)
C5B C 0.0636(2) 0.9193(7) 0.8274(2)
H5B H 0.0564 0.9572 0.7937
C6B C 0.1061(2) 0.7261(7) 0.7815(3)
C7B C 0.1230(2) 0.7500(7) 0.6869(2)
C8B C 0.1504(2) 0.6365(8) 0.6813(3)
H6B H 0.1631 0.5945 0.7115
C9B C 0.1590(2) 0.5853(9) 0.6308(3)
H7B H 0.1763 0.5041 0.6264
C10B C 0.1421(2) 0.6529(8) 0.5869(2)
C11B C 0.1152(2) 0.7661(8) 0.5931(3)
H8B H 0.1031 0.8101 0.5628
C12B C 0.1057(2) 0.8157(8) 0.6431(3)
H9B H 0.0874 0.8945 0.6475
C13B C 0.1857(2) 0.5528(8) 0.5198(2)
C14B C 0.2217(2) 0.6037(8) 0.5397(3)
H10B H 0.2213 0.6736 0.5670
C15B C 0.2605(2) 0.5524(8) 0.5195(3)
C16B C 0.2991(2) 0.6061(10) 0.5384(3)
H11B H 0.2994 0.6792 0.5645
C17B C 0.3353(2) 0.5538(10) 0.5195(3)
H12B H 0.3609 0.5899 0.5326
Zn1B Zn 0.0000 1.12924(12) 0.86744(4)
I1B I 0.0000 1.27024(9) 0.95383(3)
I2B I 0.0000 1.23926(9) 0.77692(3)
O1H O -0.11246(18) 0.5980(5) 0.78394(19)
O2H O -0.14701(16) 0.5999(6) 0.53568(18)
N1H N -0.04771(18) 0.9807(6) 0.87086(19)
N2H N -0.11306(17) 0.8055(6) 0.73824(19)
H1H H -0.1107 0.8988 0.7413
C1H C -0.0592(3) 0.9283(9) 0.9185(3)
H2H H -0.0484 0.9717 0.9496
C2H C -0.0856(3) 0.8154(10) 0.9238(3)
H3H H -0.0935 0.7819 0.9579
C3H C -0.1008(4) 0.7508(12) 0.8785(4)
H4H H -0.1187 0.6702 0.8812
C4H C -0.0900(5) 0.8038(15) 0.8295(5)
C5H C -0.0636(2) 0.9193(7) 0.8274(2)
H5H H -0.0564 0.9572 0.7937
C6H C -0.1061(2) 0.7261(7) 0.7815(3)
C7H C -0.1230(2) 0.7500(7) 0.6869(2)
C8H C -0.1504(2) 0.6365(8) 0.6813(3)
H6H H -0.1631 0.5945 0.7115
C9H C -0.1590(2) 0.5853(9) 0.6308(3)
H7H H -0.1763 0.5041 0.6264
C10H C -0.1421(2) 0.6529(8) 0.5869(2)
C11H C -0.1152(2) 0.7661(8) 0.5931(3)
H8H H -0.1031 0.8101 0.5628
C12H C -0.1057(2) 0.8157(8) 0.6431(3)
H9H H -0.0874 0.8945 0.6475
C13H C -0.1857(2) 0.5528(8) 0.5198(2)
C14H C -0.2217(2) 0.6037(8) 0.5397(3)
H10H H -0.2213 0.6736 0.5670
C15H C -0.2605(2) 0.5524(8) 0.5195(3)
C16H C -0.2991(2) 0.6061(10) 0.5384(3)
H11H H -0.2994 0.6792 0.5645
C17H C -0.3353(2) 0.5538(10) 0.5195(3)
H12H H -0.3609 0.5899 0.5326
O1J O -0.11246(18) 0.4020(5) 0.21606(19)
O2J O -0.14701(16) 0.4001(6) 0.46432(18)
N1J N -0.04771(18) 0.0193(6) 0.12914(19)
N2J N -0.11306(17) 0.1945(6) 0.26176(19)
H1J H -0.1107 0.1012 0.2587
C1J C -0.0592(3) 0.0717(9) 0.0815(3)
H2J H -0.0484 0.0283 0.0504
C2J C -0.0856(3) 0.1846(10) 0.0762(3)
H3J H -0.0935 0.2181 0.0421
C3J C -0.1008(4) 0.2492(12) 0.1215(4)
H4J H -0.1187 0.3298 0.1188
C4J C -0.0900(5) 0.1962(15) 0.1705(5)
C5J C -0.0636(2) 0.0807(7) 0.1726(2)
H5J H -0.0564 0.0428 0.2063
C6J C -0.1061(2) 0.2739(7) 0.2185(3)
C7J C -0.1230(2) 0.2500(7) 0.3131(2)
C8J C -0.1504(2) 0.3635(8) 0.3187(3)
H6J H -0.1631 0.4055 0.2885
C9J C -0.1590(2) 0.4147(9) 0.3692(3)
H7J H -0.1763 0.4959 0.3736
C10J C -0.1421(2) 0.3471(8) 0.4131(2)
C11J C -0.1152(2) 0.2339(8) 0.4069(3)
H8J H -0.1031 0.1899 0.4372
C12J C -0.1057(2) 0.1843(8) 0.3569(3)
H9J H -0.0874 0.1055 0.3525
C13J C -0.1857(2) 0.4472(8) 0.4802(2)
C14J C -0.2217(2) 0.3963(8) 0.4603(3)
H10J H -0.2213 0.3264 0.4330
C15J C -0.2605(2) 0.4476(8) 0.4805(3)
C16J C -0.2991(2) 0.3939(10) 0.4616(3)
H11J H -0.2994 0.3208 0.4355
C17J C -0.3353(2) 0.4462(10) 0.4805(3)
H12J H -0.3609 0.4101 0.4674
N3 N 0.2127(3) 0.5081(11) 0.1806(4)
C18 C 0.2223(3) 0.3438(12) 0.1866(3)
C19 C 0.2350(7) 0.200(2) 0.1803(5)
H13 H 0.2614 0.1991 0.1611
H14 H 0.2143 0.1457 0.1603
H15 H 0.2389 0.1559 0.2152
loop_
_geom_bond_atom_site_label_1
_geom_bond_atom_site_label_2
_geom_bond_site_symmetry_1
_geom_bond_site_symmetry_2
Zn1 I1 1_555 1_555
I2 Zn1 1_555 1_555
O1 C6 1_555 1_555
O2 C10 1_555 1_555
N1 Zn1 1_555 1_555
N2 H1 1_555 1_555
C1 N1 1_555 1_555
H2 C1 1_555 1_555
C2 C1 1_555 1_555
H3 C2 1_555 1_555
C3 C2 1_555 1_555
H4 C3 1_555 1_555
C4 C3 1_555 1_555
C5 N1 1_555 1_555
H5 C5 1_555 1_555
C6 N2 1_555 1_555
C7 N2 1_555 1_555
C8 C7 1_555 1_555
H6 C8 1_555 1_555
C9 C8 1_555 1_555
H7 C9 1_555 1_555
C10 C9 1_555 1_555
C11 C10 1_555 1_555
H8 C11 1_555 1_555
C12 C7 1_555 1_555
H9 C12 1_555 1_555
C13 O2 1_555 1_555
C14 C13 1_555 1_555
H10 C14 1_555 1_555
C15 C14 1_555 1_555
C16 C15 1_555 1_555
H11 C16 1_555 1_555
C17 C16 1_555 1_555
H12 C17 1_555 1_555
N3 C18 1_555 1_555
C18 C19 1_555 1_555
C19 H13 1_555 1_555
H14 C19 1_555 1_555
H15 C19 1_555 1_555
O1B C6B 1_555 1_555
O2B C10B 1_555 1_555
N1B C1B 1_555 1_555
N2B H1B 1_555 1_555
C1B H2B 1_555 1_555
C2B C1B 1_555 1_555
H3B C2B 1_555 1_555
C3B C2B 1_555 1_555
H4B C3B 1_555 1_555
C4B C3B 1_555 1_555
C5B N1B 1_555 1_555
H5B C5B 1_555 1_555
C6B N2B 1_555 1_555
C7B N2B 1_555 1_555
C8B C7B 1_555 1_555
H6B C8B 1_555 1_555
C9B C8B 1_555 1_555
H7B C9B 1_555 1_555
C10B C9B 1_555 1_555
C11B C10B 1_555 1_555
H8B C11B 1_555 1_555
C12B C7B 1_555 1_555
H9B C12B 1_555 1_555
C13B C13 1_555 1_555
C14B C13B 1_555 1_555
H10B C14B 1_555 1_555
C15B C15 1_555 1_555
C16B C15B 1_555 1_555
H11B C16B 1_555 1_555
C17B C17 1_555 1_555
H12B C17B 1_555 1_555
Zn1B N1B 1_555 1_555
I1B Zn1B 1_555 1_555
I2B Zn1B 1_555 1_555
O1H C6H 1_555 1_555
O2H C10H 1_555 1_555
N1H Zn1B 1_555 1_555
N2H H1H 1_555 1_555
C1H N1H 1_555 1_555
H2H C1H 1_555 1_555
C2H C1H 1_555 1_555
H3H C2H 1_555 1_555
C3H C2H 1_555 1_555
H4H C3H 1_555 1_555
C4H C3H 1_555 1_555
C5H N1H 1_555 1_555
H5H C5H 1_555 1_555
C6H N2H 1_555 1_555
C7H N2H 1_555 1_555
C8H C7H 1_555 1_555
H6H C8H 1_555 1_555
C9H C8H 1_555 1_555
H7H C9H 1_555 1_555
C10H C9H 1_555 1_555
C11H C10H 1_555 1_555
H8H C11H 1_555 1_555
C12H C7H 1_555 1_555
H9H C12H 1_555 1_555
C13H O2H 1_555 1_555
C14H C13H 1_555 1_555
H10H C14H 1_555 1_555
C15H C14H 1_555 1_555
C16H C15H 1_555 1_555
H11H C16H 1_555 1_555
C17H C16H 1_555 1_555
H12H C17H 1_555 1_555
O1J C6J 1_555 1_555
O2J C10J 1_555 1_555
N1J Zn1 1_555 1_555
N2J H1J 1_555 1_555
C1J N1J 1_555 1_555
H2J C1J 1_555 1_555
C2J C1J 1_555 1_555
H3J C2J 1_555 1_555
C3J C2J 1_555 1_555
H4J C3J 1_555 1_555
C4J C3J 1_555 1_555
C5J N1J 1_555 1_555
H5J C5J 1_555 1_555
C6J N2J 1_555 1_555
C7J N2J 1_555 1_555
C8J C7J 1_555 1_555
H6J C8J 1_555 1_555
C9J C8J 1_555 1_555
H7J C9J 1_555 1_555
C10J C9J 1_555 1_555
C11J C10J 1_555 1_555
H8J C11J 1_555 1_555
C12J C7J 1_555 1_555
H9J C12J 1_555 1_555
C13J C13H 1_555 1_555
C14J C13J 1_555 1_555
H10J C14J 1_555 1_555
C15J C15H 1_555 1_555
C16J C15J 1_555 1_555
H11J C16J 1_555 1_555
C17J C17H 1_555 1_555
H12J C17J 1_555 1_555
C4 C5 1_555 1_555
C4 C6 1_555 1_555
C11 C12 1_555 1_555
O2B C13B 1_555 1_555
C4B C5B 1_555 1_555
C4B C6B 1_555 1_555
C11B C12B 1_555 1_555
C14B C15B 1_555 1_555
C16B C17B 1_555 1_555
C4H C5H 1_555 1_555
C4H C6H 1_555 1_555
C11H C12H 1_555 1_555
O2J C13J 1_555 1_555
C4J C5J 1_555 1_555
C4J C6J 1_555 1_555
C11J C12J 1_555 1_555
C14J C15J 1_555 1_555
C16J C17J 1_555 1_555

#END
