
#######################################################################
#
#                 Cambridge Crystallographic Data Centre
#                                CCDC 
#
#######################################################################
#
# If this CIF has been generated from an entry in the Cambridge 
# Structural Database, then it will include bibliographic, chemical, 
# crystal, experimental, refinement or atomic coordinate data resulting 
# from the CCDC's data processing and validation procedures.
#
#######################################################################

data_CAWSEB
_chemical_formula_moiety         'C68 H48 Br4 N8 O8 Zn2,6(C2 H3 N1)'
_chemical_name_systematic        
"bis(\m-N,N'-[naphthalene-2,3-diylbis(oxy-4,1-phenylene)]bis(pyridine-3-carboxamide))-tetrabromo-di-zinc(ii) acetonitrile solvate"
_symmetry_cell_setting           orthorhombic
_symmetry_space_group_name_H-M   'C m c a'
_symmetry_Int_Tables_number      64
_space_group_name_Hall           '-C 2ac 2'
loop_
_symmetry_equiv_pos_site_id
_symmetry_equiv_pos_as_xyz
1 x,y,z
2 -x,1/2-y,1/2+z
3 x,-y,-z
4 -x,1/2+y,1/2-z
5 1/2+x,1/2+y,z
6 1/2-x,-y,1/2+z
7 1/2+x,1/2-y,-z
8 1/2-x,y,1/2-z
9 -x,-y,-z
10 x,1/2+y,1/2-z
11 -x,y,z
12 x,1/2-y,1/2+z
13 1/2-x,1/2-y,-z
14 1/2+x,y,1/2-z
15 1/2-x,1/2+y,z
16 1/2+x,-y,1/2+z
_cell_length_a                   32.4215(6)
_cell_length_b                   9.5567(2)
_cell_length_c                   25.2788(4)
_cell_angle_alpha                90
_cell_angle_beta                 90
_cell_angle_gamma                90
_cell_volume                     7832.45
_exptl_crystal_colour            yellow
_exptl_crystal_description       block
_cell_formula_units_Z            4
loop_
_atom_site_label
_atom_site_type_symbol
_atom_site_fract_x
_atom_site_fract_y
_atom_site_fract_z
Zn1 Zn 0.0000 -0.10405(13) 0.36816(5)
Br1 Br 0.0000 -0.20745(14) 0.45282(5)
Br2 Br 0.0000 -0.21595(15) 0.28600(5)
O1 O 0.1090(2) 0.4163(6) 0.2815(2)
O2 O 0.14597(17) 0.3968(6) 0.0335(2)
N1 N 0.0478(2) 0.0386(7) 0.3698(2)
N2 N 0.10911(19) 0.2114(6) 0.2362(2)
H1 H 0.1061 0.1203 0.2396
C1 C 0.0625(3) 0.0822(9) 0.4167(3)
H2 H 0.0532 0.0366 0.4479
C2 C 0.0901(3) 0.1885(10) 0.4218(3)
H3 H 0.1000 0.2151 0.4556
C3 C 0.1036(3) 0.2577(10) 0.3765(3)
H4 H 0.1221 0.3346 0.3791
C4 C 0.0897(2) 0.2126(7) 0.3282(3)
C5 C 0.0618(2) 0.1033(8) 0.3261(3)
H5 H 0.0521 0.0728 0.2925
C6 C 0.1036(2) 0.2896(8) 0.2797(3)
C7 C 0.1197(2) 0.2622(8) 0.1850(3)
C8 C 0.1036(3) 0.1944(8) 0.1417(3)
H6 H 0.0856 0.1171 0.1467
C9 C 0.1134(2) 0.2374(9) 0.0912(3)
H7 H 0.1021 0.1904 0.0614
C10 C 0.1398(2) 0.3505(8) 0.0845(3)
C11 C 0.1561(2) 0.4192(9) 0.1278(3)
H8 H 0.1741 0.4967 0.1230
C12 C 0.1461(2) 0.3739(8) 0.1781(3)
H9 H 0.1574 0.4200 0.2080
C13 C 0.1844(2) 0.4465(8) 0.0194(3)
C14 C 0.2208(2) 0.3945(9) 0.0374(3)
H10 H 0.2203 0.3214 0.0628
C15 C 0.2587(5) 0.4444(15) 0.0200(5)
C16 C 0.2965(3) 0.3955(10) 0.0376(3)
H11 H 0.2972 0.3228 0.0632
C17 C 0.3321(5) 0.4475(16) 0.0196(5)
H12 H 0.3575 0.4136 0.0332
O1B O 0.1090(2) 0.5837(6) -0.2815(2)
O2B O 0.14597(17) 0.6032(6) -0.0335(2)
N1B N 0.0478(2) 0.9614(7) -0.3698(2)
N2B N 0.10911(19) 0.7886(6) -0.2362(2)
H1B H 0.1061 0.8797 -0.2396
C1B C 0.0625(3) 0.9178(9) -0.4167(3)
H2B H 0.0532 0.9634 -0.4479
C2B C 0.0901(3) 0.8115(10) -0.4218(3)
H3B H 0.1000 0.7849 -0.4556
C3B C 0.1036(3) 0.7423(10) -0.3765(3)
H4B H 0.1221 0.6654 -0.3791
C4B C 0.0897(2) 0.7874(7) -0.3282(3)
C5B C 0.0618(2) 0.8967(8) -0.3261(3)
H5B H 0.0521 0.9272 -0.2925
C6B C 0.1036(2) 0.7104(8) -0.2797(3)
C7B C 0.1197(2) 0.7378(8) -0.1850(3)
C8B C 0.1036(3) 0.8056(8) -0.1417(3)
H6B H 0.0856 0.8829 -0.1467
C9B C 0.1134(2) 0.7626(9) -0.0912(3)
H7B H 0.1021 0.8096 -0.0614
C10B C 0.1398(2) 0.6495(8) -0.0845(3)
C11B C 0.1561(2) 0.5808(9) -0.1278(3)
H8B H 0.1741 0.5033 -0.1230
C12B C 0.1461(2) 0.6261(8) -0.1781(3)
H9B H 0.1574 0.5800 -0.2080
C13B C 0.1844(2) 0.5535(8) -0.0194(3)
C14B C 0.2208(2) 0.6055(9) -0.0374(3)
H10B H 0.2203 0.6786 -0.0628
C15B C 0.2587(5) 0.5556(15) -0.0200(5)
C16B C 0.2965(3) 0.6045(10) -0.0376(3)
H11B H 0.2972 0.6772 -0.0632
C17B C 0.3321(5) 0.5525(16) -0.0196(5)
H12B H 0.3575 0.5864 -0.0332
Zn1B Zn 0.0000 1.10405(13) -0.36816(5)
Br1B Br 0.0000 1.20745(14) -0.45282(5)
Br2B Br 0.0000 1.21595(15) -0.28600(5)
O1H O -0.1090(2) 0.5837(6) -0.2815(2)
O2H O -0.14597(17) 0.6032(6) -0.0335(2)
N1H N -0.0478(2) 0.9614(7) -0.3698(2)
N2H N -0.10911(19) 0.7886(6) -0.2362(2)
H1H H -0.1061 0.8797 -0.2396
C1H C -0.0625(3) 0.9178(9) -0.4167(3)
H2H H -0.0532 0.9634 -0.4479
C2H C -0.0901(3) 0.8115(10) -0.4218(3)
H3H H -0.1000 0.7849 -0.4556
C3H C -0.1036(3) 0.7423(10) -0.3765(3)
H4H H -0.1221 0.6654 -0.3791
C4H C -0.0897(2) 0.7874(7) -0.3282(3)
C5H C -0.0618(2) 0.8967(8) -0.3261(3)
H5H H -0.0521 0.9272 -0.2925
C6H C -0.1036(2) 0.7104(8) -0.2797(3)
C7H C -0.1197(2) 0.7378(8) -0.1850(3)
C8H C -0.1036(3) 0.8056(8) -0.1417(3)
H6H H -0.0856 0.8829 -0.1467
C9H C -0.1134(2) 0.7626(9) -0.0912(3)
H7H H -0.1021 0.8096 -0.0614
C10H C -0.1398(2) 0.6495(8) -0.0845(3)
C11H C -0.1561(2) 0.5808(9) -0.1278(3)
H8H H -0.1741 0.5033 -0.1230
C12H C -0.1461(2) 0.6261(8) -0.1781(3)
H9H H -0.1574 0.5800 -0.2080
C13H C -0.1844(2) 0.5535(8) -0.0194(3)
C14H C -0.2208(2) 0.6055(9) -0.0374(3)
H10H H -0.2203 0.6786 -0.0628
C15H C -0.2587(5) 0.5556(15) -0.0200(5)
C16H C -0.2965(3) 0.6045(10) -0.0376(3)
H11H H -0.2972 0.6772 -0.0632
C17H C -0.3321(5) 0.5525(16) -0.0196(5)
H12H H -0.3575 0.5864 -0.0332
O1J O -0.1090(2) 0.4163(6) 0.2815(2)
O2J O -0.14597(17) 0.3968(6) 0.0335(2)
N1J N -0.0478(2) 0.0386(7) 0.3698(2)
N2J N -0.10911(19) 0.2114(6) 0.2362(2)
H1J H -0.1061 0.1203 0.2396
C1J C -0.0625(3) 0.0822(9) 0.4167(3)
H2J H -0.0532 0.0366 0.4479
C2J C -0.0901(3) 0.1885(10) 0.4218(3)
H3J H -0.1000 0.2151 0.4556
C3J C -0.1036(3) 0.2577(10) 0.3765(3)
H4J H -0.1221 0.3346 0.3791
C4J C -0.0897(2) 0.2126(7) 0.3282(3)
C5J C -0.0618(2) 0.1033(8) 0.3261(3)
H5J H -0.0521 0.0728 0.2925
C6J C -0.1036(2) 0.2896(8) 0.2797(3)
C7J C -0.1197(2) 0.2622(8) 0.1850(3)
C8J C -0.1036(3) 0.1944(8) 0.1417(3)
H6J H -0.0856 0.1171 0.1467
C9J C -0.1134(2) 0.2374(9) 0.0912(3)
H7J H -0.1021 0.1904 0.0614
C10J C -0.1398(2) 0.3505(8) 0.0845(3)
C11J C -0.1561(2) 0.4192(9) 0.1278(3)
H8J H -0.1741 0.4967 0.1230
C12J C -0.1461(2) 0.3739(8) 0.1781(3)
H9J H -0.1574 0.4200 0.2080
C13J C -0.1844(2) 0.4465(8) 0.0194(3)
C14J C -0.2208(2) 0.3945(9) 0.0374(3)
H10J H -0.2203 0.3214 0.0628
C15J C -0.2587(5) 0.4444(15) 0.0200(5)
C16J C -0.2965(3) 0.3955(10) 0.0376(3)
H11J H -0.2972 0.3228 0.0632
C17J C -0.3321(5) 0.4475(16) 0.0196(5)
H12J H -0.3575 0.4136 0.0332
N3 N 0.2865(4) 0.2135(12) 0.1813(4)
C18 C 0.2899(5) 0.3715(16) 0.1833(6)
C19 C 0.2887(6) 0.5377(17) 0.1770(7)
H13 H 0.3045 0.5780 0.2053
H14 H 0.3011 0.5620 0.1437
H15 H 0.2610 0.5732 0.1782
N4? N 0.0638(6) 1.0000 0.0000
C20? C 0.0398(8) 0.962(2) 0.0461(11)
C21? C 0.0000 0.934(2) 0.0869(11)
H16? H 0.0103 0.9001 0.1202
H17? H -0.0148 1.0196 0.0923
H18? H -0.0182 0.8652 0.0718
loop_
_geom_bond_atom_site_label_1
_geom_bond_atom_site_label_2
_geom_bond_site_symmetry_1
_geom_bond_site_symmetry_2
Zn1 Br1 1_555 1_555
Br2 Zn1 1_555 1_555
O1 C6 1_555 1_555
O2 C10 1_555 1_555
N1 Zn1 1_555 1_555
N2 H1 1_555 1_555
C1 N1 1_555 1_555
H2 C1 1_555 1_555
C2 C1 1_555 1_555
H3 C2 1_555 1_555
C3 C2 1_555 1_555
H4 C3 1_555 1_555
C4 C3 1_555 1_555
C5 N1 1_555 1_555
H5 C5 1_555 1_555
C6 N2 1_555 1_555
C7 N2 1_555 1_555
C8 C7 1_555 1_555
H6 C8 1_555 1_555
C9 C8 1_555 1_555
H7 C9 1_555 1_555
C10 C9 1_555 1_555
C11 C10 1_555 1_555
H8 C11 1_555 1_555
C12 C7 1_555 1_555
H9 C12 1_555 1_555
C13 O2 1_555 1_555
C14 C13 1_555 1_555
H10 C14 1_555 1_555
C15 C14 1_555 1_555
C16 C15 1_555 1_555
H11 C16 1_555 1_555
C17 C16 1_555 1_555
H12 C17 1_555 1_555
N3 C18 1_555 1_555
C18 C19 1_555 1_555
C19 H13 1_555 1_555
H14 C19 1_555 1_555
H15 C19 1_555 1_555
O1B C6B 1_555 1_555
O2B C10B 1_555 1_555
N1B C1B 1_555 1_555
N2B H1B 1_555 1_555
C1B H2B 1_555 1_555
C2B C1B 1_555 1_555
H3B C2B 1_555 1_555
C3B C2B 1_555 1_555
H4B C3B 1_555 1_555
C4B C3B 1_555 1_555
C5B N1B 1_555 1_555
H5B C5B 1_555 1_555
C6B N2B 1_555 1_555
C7B N2B 1_555 1_555
C8B C7B 1_555 1_555
H6B C8B 1_555 1_555
C9B C8B 1_555 1_555
H7B C9B 1_555 1_555
C10B C9B 1_555 1_555
C11B C10B 1_555 1_555
H8B C11B 1_555 1_555
C12B C7B 1_555 1_555
H9B C12B 1_555 1_555
C13B C13 1_555 1_555
C14B C13B 1_555 1_555
H10B C14B 1_555 1_555
C15B C15 1_555 1_555
C16B C15B 1_555 1_555
H11B C16B 1_555 1_555
C17B C17 1_555 1_555
H12B C17B 1_555 1_555
Zn1B N1B 1_555 1_555
Br1B Zn1B 1_555 1_555
Br2B Zn1B 1_555 1_555
O1H C6H 1_555 1_555
O2H C10H 1_555 1_555
N1H Zn1B 1_555 1_555
N2H H1H 1_555 1_555
C1H N1H 1_555 1_555
H2H C1H 1_555 1_555
C2H C1H 1_555 1_555
H3H C2H 1_555 1_555
C3H C2H 1_555 1_555
H4H C3H 1_555 1_555
C4H C3H 1_555 1_555
C5H N1H 1_555 1_555
H5H C5H 1_555 1_555
C6H N2H 1_555 1_555
C7H N2H 1_555 1_555
C8H C7H 1_555 1_555
H6H C8H 1_555 1_555
C9H C8H 1_555 1_555
H7H C9H 1_555 1_555
C10H C9H 1_555 1_555
C11H C10H 1_555 1_555
H8H C11H 1_555 1_555
C12H C7H 1_555 1_555
H9H C12H 1_555 1_555
C13H O2H 1_555 1_555
C14H C13H 1_555 1_555
H10H C14H 1_555 1_555
C15H C14H 1_555 1_555
C16H C15H 1_555 1_555
H11H C16H 1_555 1_555
C17H C16H 1_555 1_555
H12H C17H 1_555 1_555
O1J C6J 1_555 1_555
O2J C10J 1_555 1_555
N1J Zn1 1_555 1_555
N2J H1J 1_555 1_555
C1J N1J 1_555 1_555
H2J C1J 1_555 1_555
C2J C1J 1_555 1_555
H3J C2J 1_555 1_555
C3J C2J 1_555 1_555
H4J C3J 1_555 1_555
C4J C3J 1_555 1_555
C5J N1J 1_555 1_555
H5J C5J 1_555 1_555
C6J N2J 1_555 1_555
C7J N2J 1_555 1_555
C8J C7J 1_555 1_555
H6J C8J 1_555 1_555
C9J C8J 1_555 1_555
H7J C9J 1_555 1_555
C10J C9J 1_555 1_555
C11J C10J 1_555 1_555
H8J C11J 1_555 1_555
C12J C7J 1_555 1_555
H9J C12J 1_555 1_555
C13J C13H 1_555 1_555
C14J C13J 1_555 1_555
H10J C14J 1_555 1_555
C15J C15H 1_555 1_555
C16J C15J 1_555 1_555
H11J C16J 1_555 1_555
C17J C17H 1_555 1_555
H12J C17J 1_555 1_555
C4 C5 1_555 1_555
C4 C6 1_555 1_555
C11 C12 1_555 1_555
O2B C13B 1_555 1_555
C4B C5B 1_555 1_555
C4B C6B 1_555 1_555
C11B C12B 1_555 1_555
C14B C15B 1_555 1_555
C16B C17B 1_555 1_555
C4H C5H 1_555 1_555
C4H C6H 1_555 1_555
C11H C12H 1_555 1_555
O2J C13J 1_555 1_555
C4J C5J 1_555 1_555
C4J C6J 1_555 1_555
C11J C12J 1_555 1_555
C14J C15J 1_555 1_555
C16J C17J 1_555 1_555

#END
