
#######################################################################
#
#                 Cambridge Crystallographic Data Centre
#                                CCDC 
#
#######################################################################
#
# If this CIF has been generated from an entry in the Cambridge 
# Structural Database, then it will include bibliographic, chemical, 
# crystal, experimental, refinement or atomic coordinate data resulting 
# from the CCDC's data processing and validation procedures.
#
#######################################################################

data_CEKDEC
_chemical_formula_moiety         
'C108 H144 N36 Pd6 12+,12(N1 O3 1-),C25 H25 N1 O3,x(H2 O1)'
_chemical_name_systematic        
"tetrakis(\m~3~-2,4,6-tris(4-Pyridyl)-1,3,5-triazine)-hexakis(N,N,N',N'-tetramethylethylenediamine)-hexa-palladium 2-cyclohexyl-5-(hydroxymethyl)-3a,4,11,11a-tetrahydro-1H-4,11-ethenonaphtho(2,3-f)isoindole-1,3(2H)-dione clathrate dodecanitrate hydrate"
_symmetry_cell_setting           tetragonal
_symmetry_space_group_name_H-M   'I 41/a'
_symmetry_Int_Tables_number      88
_space_group_name_Hall           '-I 4ad'
loop_
_symmetry_equiv_pos_site_id
_symmetry_equiv_pos_as_xyz
1 x,y,z
2 3/4-y,1/4+x,1/4+z
3 1/2+x,1/2+y,1/2+z
4 1/4-y,3/4+x,3/4+z
5 1/4+y,1/4-x,1/4+z
6 1/2-x,-y,1/2+z
7 3/4+y,3/4-x,3/4+z
8 -x,1/2-y,z
9 -x,-y,-z
10 1/4+y,3/4-x,3/4-z
11 1/2-x,1/2-y,1/2-z
12 3/4+y,1/4-x,1/4-z
13 3/4-y,3/4+x,3/4-z
14 1/2+x,y,1/2-z
15 1/4-y,1/4+x,1/4-z
16 x,1/2+y,-z
_cell_length_a                   26.2963(11)
_cell_length_b                   26.2963(11)
_cell_length_c                   31.951(3)
_cell_angle_alpha                90
_cell_angle_beta                 90
_cell_angle_gamma                90
_cell_volume                     22094
_exptl_crystal_colour            'pale yellow'
_exptl_crystal_description       block
_cell_formula_units_Z            4
loop_
_atom_site_label
_atom_site_type_symbol
_atom_site_fract_x
_atom_site_fract_y
_atom_site_fract_z
O4 O 0.4213(5) 0.9721(5) 0.4667(4)
O5 O 0.3555(7) 0.8950(7) 0.3852(7)
O6 O 0.3277(7) 0.9301(7) 0.4641(6)
O7 O 0.2879(8) 0.8880(9) 0.5307(7)
O8 O 0.3179(17) 0.8498(18) 0.4831(14)
N2 N 0.314(3) 0.907(3) 0.496(3)
O9 O 0.4389(10) 0.0945(10) 0.3548(9)
O10 O 0.4358(7) 0.0753(7) 0.4436(6)
O11 O 0.5284(3) 0.1256(3) 0.1616(3)
O12 O 0.4914(10) 0.0781(10) 0.2076(9)
O13 O 0.5751(9) 0.0919(8) 0.2226(8)
N3 N 0.5408(12) 0.1095(11) 0.1938(10)
O14 O 0.6379(4) 0.0875(4) 0.0440(3)
O15 O 0.3849(7) 0.1472(7) 0.3243(5)
O16 O 0.4652(7) 1.0260(8) 0.2800(6)
O17 O 0.4575(7) 0.9313(7) 0.5395(6)
O18 O 0.4487(7) 0.9291(6) 0.3950(5)
O19 O 0.5117(6) 0.9889(6) 0.3489(5)
O20 O 0.4261(13) 0.9691(12) 0.3535(11)
N4 N 0.4737(12) 0.9622(11) 0.3659(9)
O21 O 0.5938(6) 0.1270(6) 0.2965(5)
O22 O 0.5019(6) 0.1629(6) 0.3310(5)
O23 O 0.5000 0.2500 0.3750
O24 O 0.5507(14) 0.0403(15) 0.2883(12)
O25 O 0.6274(12) 0.0124(13) -0.0341(10)
O26 O 0.3261(17) 0.7853(17) 0.2792(15)
O27 O 0.4768(15) 0.9043(15) 0.5903(12)
Pd1 Pd 0.5000 0.7500 0.418541(19)
Pd2 Pd 0.707125(17) 1.032582(16) 0.124623(13)
N5 N 0.49174(18) 0.8018(2) 0.37186(15)
N6 N 0.64457(19) 1.00763(19) 0.15634(16)
N7 N 0.7038(2) 0.96539(19) 0.09350(15)
N8 N 0.51976(19) 0.9173(2) 0.24902(17)
N9 N 0.4689(2) 0.9538(2) 0.19598(17)
N10 N 0.43061(19) 0.9041(2) 0.24943(17)
N11 N 0.5088(2) 0.6975(2) 0.46596(17)
N12 N 0.7702(2) 1.0583(2) 0.09287(19)
N13 N 0.7100(2) 1.1009(2) 0.15574(19)
C26 C 0.5329(2) 0.8239(3) 0.35432(19)
H26 H 0.5648 0.8177 0.3658
C27 C 0.5292(2) 0.8551(3) 0.32018(19)
H27 H 0.5582 0.8697 0.3087
C28 C 0.4820(2) 0.8649(2) 0.30271(19)
C29 C 0.4398(2) 0.8423(3) 0.3204(2)
H28 H 0.4075 0.8481 0.3094
C30 C 0.4462(2) 0.8107(3) 0.3549(2)
H29 H 0.4178 0.7951 0.3665
C31 C 0.5981(2) 1.0168(3) 0.1409(2)
H30 H 0.5949 1.0372 0.1173
C32 C 0.5550(2) 0.9968(3) 0.1590(2)
H31 H 0.5232 1.0032 0.1474
C33 C 0.5593(2) 0.9670(2) 0.19454(19)
C34 C 0.6078(2) 0.9576(3) 0.2105(2)
H32 H 0.6121 0.9374 0.2341
C35 C 0.6490(2) 0.9787(3) 0.1905(2)
H33 H 0.6813 0.9725 0.2012
C36 C 0.7252(3) 0.9241(3) 0.1093(2)
H34 H 0.7448 0.9270 0.1334
C37 C 0.7191(3) 0.8764(3) 0.0910(2)
H35 H 0.7345 0.8480 0.1028
C38 C 0.6903(2) 0.8717(3) 0.0553(2)
C39 C 0.6680(3) 0.9152(2) 0.0386(2)
H36 H 0.6484 0.9134 0.0144
C40 C 0.6754(3) 0.9607(3) 0.0584(2)
H37 H 0.6602 0.9897 0.0474
C41 C 0.4773(2) 0.8979(3) 0.26508(19)
C42 C 0.5131(2) 0.9450(2) 0.2145(2)
C43 C 0.4289(2) 0.9324(3) 0.2148(2)
C44 C 0.5635(3) 0.6821(4) 0.4688(3)
H38 H 0.5676 0.6578 0.4910
H39 H 0.5840 0.7115 0.4746
H40 H 0.5740 0.6672 0.4428
C45 C 0.4909(4) 0.7227(4) 0.5052(2)
H41 H 0.5043 0.7049 0.5294
H42 H 0.4541 0.7217 0.5065
C46 C 0.4782(3) 0.6504(3) 0.4596(2)
H43 H 0.4836 0.6276 0.4826
H44 H 0.4885 0.6341 0.4340
H45 H 0.4428 0.6591 0.4579
C47 C 0.7648(4) 1.0562(4) 0.0476(2)
H46 H 0.7953 1.0688 0.0347
H47 H 0.7365 1.0768 0.0392
H48 H 0.7591 1.0217 0.0391
C48 C 0.8155(3) 1.0303(5) 0.1066(4)
H49 H 0.8447 1.0426 0.0918
H50 H 0.8110 0.9948 0.1010
H51 H 0.8203 1.0353 0.1361
C49 C 0.7060(6) 1.0946(4) 0.2027(3)
H52 H 0.7077 1.1273 0.2159
H53 H 0.7335 1.0737 0.2124
H54 H 0.6742 1.0786 0.2095
C50 C 0.6680(3) 1.1337(3) 0.1433(3)
H55 H 0.6702 1.1654 0.1580
H56 H 0.6363 1.1174 0.1499
H57 H 0.6697 1.1398 0.1137
C51 C 0.7752(5) 1.1128(4) 0.1057(3)
H58 H 0.8106 1.1227 0.1032
H59 H 0.7558 1.1335 0.0863
C52 C 0.7594(4) 1.1236(4) 0.1452(4)
H60 H 0.7571 1.1602 0.1484
H61 H 0.7847 1.1113 0.1649
Pd1N Pd 0.5000 0.7500 -0.168541(19)
Pd2N Pd 0.217418(16) 0.957125(17) 0.125377(13)
Pd2G Pd 0.292875(17) 0.467418(16) 0.124623(13)
Pd2K Pd 0.782582(16) 0.542875(17) 0.125377(13)
N5K N 0.5518(2) 0.75826(18) -0.12186(15)
N5N N 0.4482(2) 0.74174(18) -0.12186(15)
N5G N 0.50826(18) 0.6982(2) 0.37186(15)
N6N N 0.24237(19) 0.89457(19) 0.09366(16)
N6G N 0.35543(19) 0.49237(19) 0.15634(16)
N6K N 0.75763(19) 0.60543(19) 0.09366(16)
N7N N 0.28461(19) 0.9538(2) 0.15650(15)
N7G N 0.2962(2) 0.53461(19) 0.09350(15)
N7K N 0.71539(19) 0.5462(2) 0.15650(15)
N8N N 0.3327(2) 0.76976(19) 0.00098(17)
N8G N 0.48024(19) 0.5827(2) 0.24902(17)
N8K N 0.6673(2) 0.73024(19) 0.00098(17)
N9N N 0.2962(2) 0.7189(2) 0.05402(17)
N9G N 0.5311(2) 0.5462(2) 0.19598(17)
N9K N 0.7038(2) 0.7811(2) 0.05402(17)
N10N N 0.3459(2) 0.68061(19) 0.00057(17)
N10G N 0.56939(19) 0.5959(2) 0.24943(17)
N10K N 0.6541(2) 0.81939(19) 0.00057(17)
N11K N 0.4475(2) 0.7412(2) -0.21596(17)
N11N N 0.5525(2) 0.7588(2) -0.21596(17)
N11G N 0.4912(2) 0.8025(2) 0.46596(17)
N12K N 0.8083(2) 0.4798(2) 0.15713(19)
N12G N 0.2298(2) 0.4417(2) 0.09287(19)
N12N N 0.1917(2) 1.0202(2) 0.15713(19)
N13K N 0.8509(2) 0.5400(2) 0.09426(19)
N13G N 0.2900(2) 0.3991(2) 0.15574(19)
N13N N 0.1491(2) 0.9600(2) 0.09426(19)
C26K C 0.5739(3) 0.7171(2) -0.10432(19)
C26N C 0.4261(3) 0.7829(2) -0.10432(19)
C26G C 0.4671(2) 0.6761(3) 0.35432(19)
H26N H 0.4323 0.8148 -0.1158
H26K H 0.5677 0.6852 -0.1158
H26G H 0.4352 0.6823 0.3658
C27K C 0.6051(3) 0.7208(2) -0.07018(19)
C27N C 0.3949(3) 0.7792(2) -0.07018(19)
C27G C 0.4708(2) 0.6449(3) 0.32018(19)
H27N H 0.3803 0.8082 -0.0587
H27K H 0.6197 0.6918 -0.0587
H27G H 0.4418 0.6303 0.3087
C28K C 0.6149(2) 0.7680(2) -0.05271(19)
C28N C 0.3851(2) 0.7320(2) -0.05271(19)
C28G C 0.5180(2) 0.6351(2) 0.30271(19)
C29N C 0.4077(3) 0.6898(2) -0.0704(2)
C29K C 0.5923(3) 0.8102(2) -0.0704(2)
C29G C 0.5602(2) 0.6577(3) 0.3204(2)
H28N H 0.4019 0.6575 -0.0594
H28K H 0.5981 0.8425 -0.0594
H28G H 0.5925 0.6519 0.3094
C30N C 0.4393(3) 0.6962(2) -0.1049(2)
C30K C 0.5607(3) 0.8038(2) -0.1049(2)
C30G C 0.5538(2) 0.6893(3) 0.3549(2)
H29N H 0.4549 0.6678 -0.1165
H29K H 0.5451 0.8322 -0.1165
H29G H 0.5822 0.7049 0.3665
C31N C 0.2332(3) 0.8481(2) 0.1091(2)
C31G C 0.4019(2) 0.4832(3) 0.1409(2)
C31K C 0.7668(3) 0.6519(2) 0.1091(2)
H30N H 0.2128 0.8449 0.1327
H30G H 0.4051 0.4628 0.1173
H30K H 0.7872 0.6551 0.1327
C32N C 0.2532(3) 0.8050(2) 0.0910(2)
C32G C 0.4450(2) 0.5032(3) 0.1590(2)
C32K C 0.7468(3) 0.6950(2) 0.0910(2)
H31N H 0.2468 0.7732 0.1026
H31G H 0.4768 0.4968 0.1474
H31K H 0.7532 0.7268 0.1026
C33N C 0.2830(2) 0.8093(2) 0.05546(19)
C33G C 0.4407(2) 0.5330(2) 0.19454(19)
C33K C 0.7170(2) 0.6907(2) 0.05546(19)
C34N C 0.2924(3) 0.8578(2) 0.0395(2)
C34G C 0.3922(2) 0.5424(3) 0.2105(2)
C34K C 0.7076(3) 0.6422(2) 0.0395(2)
H32N H 0.3126 0.8621 0.0159
H32G H 0.3879 0.5626 0.2341
H32K H 0.6874 0.6379 0.0159
C35N C 0.2713(3) 0.8990(2) 0.0595(2)
C35G C 0.3510(2) 0.5213(3) 0.1905(2)
C35K C 0.7287(3) 0.6010(2) 0.0595(2)
H33N H 0.2775 0.9313 0.0488
H33G H 0.3187 0.5275 0.2012
H33K H 0.7225 0.5687 0.0488
C36N C 0.3259(3) 0.9752(3) 0.1407(2)
C36G C 0.2748(3) 0.5759(3) 0.1093(2)
C36K C 0.6741(3) 0.5248(3) 0.1407(2)
H34K H 0.6770 0.5052 0.1166
H34G H 0.2552 0.5730 0.1334
H34N H 0.3230 0.9948 0.1166
C37N C 0.3736(3) 0.9691(3) 0.1590(2)
C37G C 0.2809(3) 0.6236(3) 0.0910(2)
C37K C 0.6264(3) 0.5309(3) 0.1590(2)
H35K H 0.5980 0.5155 0.1472
H35G H 0.2655 0.6520 0.1028
H35N H 0.4020 0.9845 0.1472
C38N C 0.3783(3) 0.9403(2) 0.1947(2)
C38G C 0.3097(2) 0.6283(3) 0.0553(2)
C38K C 0.6217(3) 0.5597(2) 0.1947(2)
C39K C 0.6652(2) 0.5820(3) 0.2114(2)
C39G C 0.3320(3) 0.5848(2) 0.0386(2)
C39N C 0.3348(2) 0.9180(3) 0.2114(2)
H36K H 0.6634 0.6016 0.2356
H36G H 0.3516 0.5866 0.0144
H36N H 0.3366 0.8984 0.2356
C40K C 0.7107(3) 0.5746(3) 0.1916(2)
C40G C 0.3246(3) 0.5393(3) 0.0584(2)
C40N C 0.2893(3) 0.9254(3) 0.1916(2)
H37K H 0.7397 0.5898 0.2026
H37G H 0.3398 0.5103 0.0474
H37N H 0.2603 0.9102 0.2026
C41N C 0.3521(3) 0.7273(2) -0.01508(19)
C41G C 0.5227(2) 0.6021(3) 0.26508(19)
C41K C 0.6479(3) 0.7727(2) -0.01508(19)
C42N C 0.3050(2) 0.7631(2) 0.0355(2)
C42G C 0.4869(2) 0.5550(2) 0.2145(2)
C42K C 0.6950(2) 0.7369(2) 0.0355(2)
C43N C 0.3176(3) 0.6789(2) 0.0352(2)
C43G C 0.5711(2) 0.5676(3) 0.2148(2)
C43K C 0.6824(3) 0.8211(2) 0.0352(2)
C44K C 0.4321(4) 0.6865(3) -0.2188(3)
C44N C 0.5679(4) 0.8135(3) -0.2188(3)
C44G C 0.4365(3) 0.8179(4) 0.4688(3)
H38K H 0.4078 0.6824 -0.2410
H38N H 0.5922 0.8176 -0.2410
H38G H 0.4324 0.8422 0.4910
H39K H 0.4615 0.6660 -0.2246
H39N H 0.5385 0.8340 -0.2246
H39G H 0.4160 0.7885 0.4746
H40K H 0.4172 0.6760 -0.1928
H40N H 0.5828 0.8240 -0.1928
H40G H 0.4260 0.8328 0.4428
C45K C 0.4727(4) 0.7591(4) -0.2552(2)
C45N C 0.5273(4) 0.7409(4) -0.2552(2)
C45G C 0.5091(4) 0.7773(4) 0.5052(2)
H41N H 0.5451 0.7543 -0.2794
H41K H 0.4549 0.7457 -0.2794
H41G H 0.4957 0.7951 0.5294
H42N H 0.5283 0.7041 -0.2565
H42K H 0.4717 0.7959 -0.2565
H42G H 0.5459 0.7783 0.5065
C46N C 0.5996(3) 0.7282(3) -0.2096(2)
C46K C 0.4004(3) 0.7718(3) -0.2096(2)
C46G C 0.5218(3) 0.8496(3) 0.4596(2)
H43N H 0.6224 0.7336 -0.2326
H43K H 0.3776 0.7664 -0.2326
H43G H 0.5164 0.8724 0.4826
H44N H 0.6159 0.7385 -0.1840
H44K H 0.3841 0.7615 -0.1840
H44G H 0.5115 0.8659 0.4340
H45N H 0.5909 0.6928 -0.2079
H45K H 0.4091 0.8072 -0.2079
H45G H 0.5572 0.8409 0.4579
C47K C 0.8062(4) 0.4852(4) 0.2024(2)
C47G C 0.2352(4) 0.4438(4) 0.0476(2)
C47N C 0.1938(4) 1.0148(4) 0.2024(2)
H46K H 0.8188 0.4547 0.2153
H46G H 0.2047 0.4312 0.0347
H46N H 0.1812 1.0453 0.2153
H47K H 0.8268 0.5135 0.2108
H47G H 0.2635 0.4232 0.0392
H47N H 0.1732 0.9865 0.2108
H48K H 0.7717 0.4909 0.2109
H48G H 0.2409 0.4783 0.0391
H48N H 0.2283 1.0091 0.2109
C48K C 0.7803(5) 0.4345(3) 0.1434(4)
C48G C 0.1845(3) 0.4697(5) 0.1066(4)
C48N C 0.2197(5) 1.0655(3) 0.1434(4)
H49K H 0.7926 0.4053 0.1582
H49G H 0.1553 0.4574 0.0918
H49N H 0.2074 1.0947 0.1582
H50K H 0.7448 0.4390 0.1490
H50G H 0.1890 0.5052 0.1010
H50N H 0.2552 1.0610 0.1490
H51K H 0.7853 0.4297 0.1139
H51G H 0.1797 0.4647 0.1361
H51N H 0.2147 1.0703 0.1139
C49K C 0.8446(4) 0.5440(6) 0.0473(3)
C49G C 0.2940(6) 0.4054(4) 0.2027(3)
C49N C 0.1554(4) 0.9560(6) 0.0473(3)
H52K H 0.8773 0.5423 0.0341
H52G H 0.2923 0.3727 0.2159
H52N H 0.1227 0.9577 0.0341
H53K H 0.8237 0.5165 0.0376
H53G H 0.2665 0.4263 0.2124
H53N H 0.1763 0.9835 0.0376
H54K H 0.8286 0.5758 0.0405
H54G H 0.3258 0.4214 0.2095
H54N H 0.1714 0.9242 0.0405
C50K C 0.8837(3) 0.5820(3) 0.1067(3)
C50G C 0.3320(3) 0.3663(3) 0.1433(3)
C50N C 0.1163(3) 0.9180(3) 0.1067(3)
H55K H 0.9154 0.5798 0.0920
H55G H 0.3298 0.3346 0.1580
H55N H 0.0846 0.9202 0.0920
H56K H 0.8674 0.6137 0.1001
H56G H 0.3637 0.3826 0.1499
H56N H 0.1326 0.8863 0.1001
H57K H 0.8898 0.5803 0.1363
H57G H 0.3303 0.3602 0.1137
H57N H 0.1102 0.9197 0.1363
C51K C 0.8628(4) 0.4748(5) 0.1443(3)
C51G C 0.2248(5) 0.3872(4) 0.1057(3)
C51N C 0.1372(4) 1.0252(5) 0.1443(3)
H58K H 0.8727 0.4394 0.1468
H58G H 0.1894 0.3773 0.1032
H58N H 0.1273 1.0606 0.1468
H59K H 0.8835 0.4942 0.1637
H59G H 0.2442 0.3665 0.0863
H59N H 0.1165 1.0058 0.1637
C52K C 0.8736(4) 0.4906(4) 0.1048(4)
C52G C 0.2406(4) 0.3764(4) 0.1452(4)
C52N C 0.1264(4) 1.0094(4) 0.1048(4)
H60K H 0.9102 0.4929 0.1016
H60G H 0.2429 0.3398 0.1484
H60N H 0.0898 1.0071 0.1016
H61K H 0.8613 0.4653 0.0851
H61G H 0.2153 0.3887 0.1649
H61N H 0.1387 1.0347 0.0851
C1 C 0.4026(9) 0.7087(11) 0.1330(8)
C2 C 0.4291(8) 0.6832(10) 0.1014(8)
C3 C 0.4480(8) 0.7117(11) 0.0679(8)
C4 C 0.4374(11) 0.7640(11) 0.0673(8)
C5 C 0.4120(12) 0.7904(12) 0.0992(8)
H1 H 0.4076 0.8255 0.0982
C6 C 0.3936(12) 0.7613(11) 0.1326(8)
C7 C 0.3665(11) 0.7780(19) 0.1727(8)
H2 H 0.3604 0.8148 0.1723
C8 C 0.3173(15) 0.7494(19) 0.1825(11)
H3 H 0.2858 0.7640 0.1880
C9 C 0.3277(14) 0.699(2) 0.1818(10)
H4 H 0.3025 0.6751 0.1864
C10 C 0.3826(12) 0.6836(17) 0.1729(9)
H5 H 0.3871 0.6466 0.1727
C11 C 0.4565(14) 0.7926(17) 0.0338(9)
H6 H 0.4498 0.8272 0.0312
C12 C 0.4863(14) 0.767(2) 0.0044(11)
H7 H 0.5003 0.7857 -0.0172
C13 C 0.5033(15) 0.7856(19) 0.0047(12)
H8 H 0.4822 0.8004 -0.0153
C14 C 0.4739(13) 0.6856(15) 0.0363(10)
H9 H 0.4759 0.6502 0.0363
C15 C 0.4410(14) 0.6274(11) 0.0999(19)
H10 H 0.4163 0.6088 0.1165
H11 H 0.3654 0.8112 0.1787
O1 O 0.3683(11) 0.7595(15) 0.1342(15)
H12 H 0.3499 0.7613 0.1136
N1 N 0.5000 0.7500 0.0568(5)
O2 O 0.4191(15) 0.7180(12) 0.0580(9)
O3 O 0.4165(14) 0.7522(13) 0.0514(10)
C16 C 0.4659(9) 0.7107(11) 0.0528(12)
C17 C 0.4078(12) 0.7647(17) 0.2048(10)
H13 H 0.4740 0.6466 0.0175
C18 C 0.4159(12) 0.7096(17) 0.2060(10)
H14 H 0.4466 0.8430 0.0162
C19 C 0.4567(12) 0.7777(9) 0.0501(12)
C20 C 0.4780(10) 0.800(2) 0.0648(10)
H15 H 0.4410 0.7986 0.0668
C21 C 0.4950(14) 0.834(3) 0.0283(14)
H16 H 0.4702 0.6733 0.0207
H17 H 0.4735 0.8281 0.0041
C22 C 0.3608(16) 0.740(4) 0.2068(16)
H18 H 0.3488 0.7070 0.2165
H19 H 0.3413 0.7653 0.2218
C23 C 0.346(3) 0.744(4) 0.1608(15)
H20 H 0.3373 0.7793 0.1550
H21 H 0.3150 0.7243 0.1565
C24 C 0.385(2) 0.727(4) 0.129(2)
H22 H 0.3764 0.7377 0.1009
H23 H 0.3887 0.6900 0.1290
C25 C 0.435(2) 0.752(3) 0.1431(15)
H24 H 0.4617 0.6804 0.1039
H25 H 0.4617 0.7460 0.1226
C1K C 0.4587(11) 0.8474(9) 0.1170(8)
C1N C 0.5413(11) 0.6526(9) 0.1170(8)
C1G C 0.5974(9) 0.7913(11) 0.1330(8)
C2K C 0.4332(10) 0.8209(8) 0.1486(8)
C2N C 0.5668(10) 0.6791(8) 0.1486(8)
C2G C 0.5709(8) 0.8168(10) 0.1014(8)
C3K C 0.4617(11) 0.8020(8) 0.1821(8)
C3N C 0.5383(11) 0.6980(8) 0.1821(8)
C3G C 0.5520(8) 0.7883(11) 0.0679(8)
C4K C 0.5140(11) 0.8126(11) 0.1827(8)
C4N C 0.4860(11) 0.6874(11) 0.1827(8)
C4G C 0.5626(11) 0.7360(11) 0.0673(8)
C5K C 0.5404(12) 0.8380(12) 0.1508(8)
C5N C 0.4596(12) 0.6620(12) 0.1508(8)
C5G C 0.5880(12) 0.7096(12) 0.0992(8)
H1G H 0.5924 0.6745 0.0982
H1N H 0.4245 0.6576 0.1518
H1K H 0.5755 0.8424 0.1518
C6K C 0.5113(11) 0.8564(12) 0.1174(8)
C6N C 0.4887(11) 0.6436(12) 0.1174(8)
C6G C 0.6064(12) 0.7387(11) 0.1326(8)
C7G C 0.6335(11) 0.7220(19) 0.1727(8)
C7N C 0.4720(19) 0.6165(11) 0.0773(8)
C7K C 0.5280(19) 0.8835(11) 0.0773(8)
H2G H 0.6396 0.6852 0.1723
H2N H 0.4352 0.6104 0.0777
H2K H 0.5648 0.8896 0.0777
C8G C 0.6827(15) 0.7506(19) 0.1825(11)
C8K C 0.4994(19) 0.9327(15) 0.0675(11)
C8N C 0.5006(19) 0.5673(15) 0.0675(11)
H3G H 0.7142 0.7360 0.1880
H3K H 0.5140 0.9642 0.0620
H3N H 0.4860 0.5358 0.0620
C9G C 0.6723(14) 0.801(2) 0.1818(10)
C9K C 0.449(2) 0.9223(14) 0.0682(10)
C9N C 0.551(2) 0.5777(14) 0.0682(10)
H4G H 0.6975 0.8249 0.1864
H4K H 0.4251 0.9475 0.0636
H4N H 0.5749 0.5525 0.0636
C10G C 0.6174(12) 0.8164(17) 0.1729(9)
C10N C 0.5664(17) 0.6326(12) 0.0771(9)
C10K C 0.4336(17) 0.8674(12) 0.0771(9)
H5G H 0.6129 0.8534 0.1727
H5K H 0.3966 0.8629 0.0773
H5N H 0.6034 0.6371 0.0773
C11N C 0.4574(17) 0.7065(14) 0.2162(9)
C11K C 0.5426(17) 0.7935(14) 0.2162(9)
C11G C 0.5435(14) 0.7074(17) 0.0338(9)
H6K H 0.5772 0.8002 0.2188
H6N H 0.4228 0.6998 0.2188
H6G H 0.5502 0.6728 0.0312
C12N C 0.483(2) 0.7363(14) 0.2456(11)
C12K C 0.517(2) 0.7637(14) 0.2456(11)
C12G C 0.5137(14) 0.733(2) 0.0044(11)
H7K H 0.5357 0.7497 0.2672
H7N H 0.4643 0.7503 0.2672
H7G H 0.4997 0.7143 -0.0172
C13N C 0.4644(19) 0.7533(15) 0.2453(12)
C13K C 0.5356(19) 0.7467(15) 0.2453(12)
C13G C 0.4967(15) 0.7144(19) 0.0047(12)
H8K H 0.5504 0.7678 0.2653
H8N H 0.4496 0.7322 0.2653
H8G H 0.5178 0.6996 -0.0153
C14K C 0.4356(15) 0.7761(13) 0.2137(10)
C14N C 0.5644(15) 0.7239(13) 0.2137(10)
C14G C 0.5261(13) 0.8144(15) 0.0363(10)
H9N H 0.5998 0.7259 0.2137
H9K H 0.4002 0.7741 0.2137
H9G H 0.5241 0.8498 0.0363
C15K C 0.3774(11) 0.8090(14) 0.1501(19)
C15N C 0.6226(11) 0.6910(14) 0.1501(19)
C15G C 0.5590(14) 0.8726(11) 0.0999(19)
H10N H 0.6412 0.6663 0.1335
H10K H 0.3588 0.8337 0.1335
H10G H 0.5837 0.8912 0.1165
H11G H 0.6346 0.6888 0.1787
H11K H 0.5612 0.8846 0.0713
H11N H 0.4388 0.6154 0.0713
O1G O 0.6317(11) 0.7405(15) 0.1342(15)
O1N O 0.4905(15) 0.6183(11) 0.1158(15)
O1K O 0.5095(15) 0.8817(11) 0.1158(15)
H12G H 0.6501 0.7387 0.1136
H12K H 0.5113 0.9001 0.1364
H12N H 0.4887 0.5999 0.1364
N1N N 0.5000 0.7500 0.1932(5)
O2K O 0.4680(12) 0.8309(15) 0.1920(9)
O2N O 0.5320(12) 0.6691(15) 0.1920(9)
O2G O 0.5809(15) 0.7820(12) 0.0580(9)
O3K O 0.5022(13) 0.8335(14) 0.1986(10)
O3N O 0.4978(13) 0.6665(14) 0.1986(10)
O3G O 0.5835(14) 0.7478(13) 0.0514(10)
C16N C 0.5393(11) 0.7159(9) 0.1972(12)
C16K C 0.4607(11) 0.7841(9) 0.1972(12)
C16G C 0.5341(9) 0.7893(11) 0.0528(12)
C17G C 0.5922(12) 0.7353(17) 0.2048(10)
C17K C 0.5147(17) 0.8422(12) 0.0452(10)
C17N C 0.4853(17) 0.6578(12) 0.0452(10)
H13N H 0.6034 0.7240 0.2325
H13K H 0.3966 0.7760 0.2325
H13G H 0.5260 0.8534 0.0175
C18G C 0.5841(12) 0.7904(17) 0.2060(10)
C18N C 0.5404(17) 0.6659(12) 0.0440(10)
C18K C 0.4596(17) 0.8341(12) 0.0440(10)
H14N H 0.4070 0.6966 0.2338
H14K H 0.5930 0.8034 0.2338
H14G H 0.5534 0.6570 0.0162
C19N C 0.4723(9) 0.7067(12) 0.1999(12)
C19K C 0.5277(9) 0.7933(12) 0.1999(12)
C19G C 0.5433(12) 0.7223(9) 0.0501(12)
C20N C 0.450(2) 0.7280(10) 0.1852(10)
C20K C 0.550(2) 0.7720(10) 0.1852(10)
C20G C 0.5220(10) 0.700(2) 0.0648(10)
H15N H 0.4514 0.6910 0.1832
H15K H 0.5486 0.8090 0.1832
H15G H 0.5590 0.7014 0.0668
C21N C 0.416(3) 0.7450(14) 0.2217(14)
C21K C 0.584(3) 0.7550(14) 0.2217(14)
C21G C 0.5050(14) 0.666(3) 0.0283(14)
H16K H 0.4233 0.7798 0.2293
H16N H 0.5767 0.7202 0.2293
H16G H 0.5298 0.8267 0.0207
H17N H 0.4219 0.7235 0.2459
H17K H 0.5781 0.7765 0.2459
H17G H 0.5265 0.6719 0.0041
C22G C 0.6392(16) 0.760(4) 0.2068(16)
C22K C 0.490(4) 0.8892(16) 0.0432(16)
C22N C 0.510(4) 0.6108(16) 0.0432(16)
H18G H 0.6512 0.7930 0.2165
H18K H 0.4570 0.9012 0.0335
H18N H 0.5430 0.5988 0.0335
H19G H 0.6587 0.7347 0.2218
H19K H 0.5153 0.9087 0.0282
H19N H 0.4847 0.5913 0.0282
C23G C 0.654(3) 0.756(4) 0.1608(15)
C23K C 0.494(4) 0.904(3) 0.0892(15)
C23N C 0.506(4) 0.596(3) 0.0892(15)
H20G H 0.6627 0.7207 0.1550
H20K H 0.5293 0.9127 0.0950
H20N H 0.4707 0.5873 0.0950
H21G H 0.6850 0.7757 0.1565
H21K H 0.4743 0.9350 0.0935
H21N H 0.5257 0.5650 0.0935
C24G C 0.615(2) 0.773(4) 0.129(2)
C24K C 0.477(4) 0.865(2) 0.121(2)
C24N C 0.523(4) 0.635(2) 0.121(2)
H22G H 0.6236 0.7623 0.1009
H22K H 0.4877 0.8736 0.1491
H22N H 0.5123 0.6264 0.1491
H23G H 0.6113 0.8100 0.1290
H23K H 0.4400 0.8613 0.1210
H23N H 0.5600 0.6387 0.1210
C25G C 0.565(2) 0.748(3) 0.1431(15)
C25K C 0.502(3) 0.815(2) 0.1069(15)
C25N C 0.498(3) 0.685(2) 0.1069(15)
H24K H 0.4304 0.7883 0.1461
H24N H 0.5696 0.7117 0.1461
H24G H 0.5383 0.8196 0.1039
H25G H 0.5383 0.7540 0.1226
H25K H 0.4960 0.7883 0.1274
H25N H 0.5040 0.7117 0.1274
O28? O 0.5760(6) 0.0381(7) 0.0322(5)
O29? O 0.5645(8) 0.1049(7) 0.0625(6)
O30? O 0.7340(7) 0.9760(6) 0.9557(5)
O31? O 0.5302(11) 0.1527(11) 0.3508(9)
O32? O 0.5060(18) 0.0587(17) 0.2417(15)
O33? O 0.6030(17) 0.0961(14) 0.2451(14)
O34? O 0.4705(17) 0.0568(17) 0.0861(15)
O35? O 0.7048(11) 0.9655(11) 0.9475(8)
O36? O 0.6337(17) 0.1463(16) 0.2984(12)
O37? O 0.3445(14) -0.0156(16) 0.2965(12)
O38? O 0.6353(12) 0.0580(12) -0.0029(10)
O39? O 0.603(2) -0.031(2) -0.0486(16)
O40? O 0.3191(10) 0.8014(10) 0.3722(9)
O41? O 0.670(2) 0.900(2) 0.8983(19)
O42? O 0.3386(15) 0.7481(16) 0.3262(12)
O43? O 0.3337(12) 0.8276(13) 0.4078(11)
O44? O 0.4559(12) 0.9960(12) 0.3202(11)
O45? O 0.4846(9) 0.9405(9) 0.3983(7)
O46? O 0.385(3) 0.911(3) 0.415(2)
O47? O 0.649(2) 0.936(2) 0.9306(16)
O48? O 0.760(3) 0.952(3) 0.978(2)
O49? O 0.467(3) 0.008(4) 0.476(3)
N14? N 0.5588(15) 0.0927(13) 0.2503(12)
N15? N 0.6039(7) 0.0847(6) 0.0389(5)
N16? N 0.6964(17) 0.9211(16) 0.9354(13)
loop_
_geom_bond_atom_site_label_1
_geom_bond_atom_site_label_2
_geom_bond_site_symmetry_1
_geom_bond_site_symmetry_2
C1 C2 1_555 1_555
C2 C3 1_555 1_555
C3 C4 1_555 1_555
C4 C5 1_555 1_555
C5 H1 1_555 1_555
C6 C1 1_555 1_555
C7 C6 1_555 1_555
H2 C7 1_555 1_555
C8 C7 1_555 1_555
H3 C8 1_555 1_555
C9 C8 1_555 1_555
H4 C9 1_555 1_555
C10 C1 1_555 1_555
H5 C10 1_555 1_555
C11 C4 1_555 1_555
H6 C11 1_555 1_555
C12 C11 1_555 1_555
H7 C12 1_555 1_555
C13 C11 1_555 1_555
H8 C12 1_555 1_555
C14 C3 1_555 1_555
H9 C14 1_555 1_555
C15 C2 1_555 1_555
H10 C15 1_555 1_555
H11 C7 1_555 1_555
O1 C1 1_555 1_555
H12 C6 1_555 1_555
N1 C3 1_555 1_555
O2 C2 1_555 1_555
O3 C3 1_555 1_555
C16 C3 1_555 1_555
C17 C7 1_555 1_555
H13 C14 1_555 1_555
C18 C10 1_555 1_555
H14 H6 1_555 1_555
C19 C4 1_555 1_555
C20 C4 1_555 1_555
H15 C4 1_555 1_555
C21 C11 1_555 1_555
H16 C14 1_555 1_555
H17 C21 1_555 1_555
C22 C7 1_555 1_555
H18 C9 1_555 1_555
H19 C22 1_555 1_555
C23 C6 1_555 1_555
H20 C7 1_555 1_555
H21 C8 1_555 1_555
C24 C1 1_555 1_555
H22 C6 1_555 1_555
H23 C1 1_555 1_555
C25 C1 1_555 1_555
H24 C2 1_555 1_555
H25 C25 1_555 1_555
O6 N2 1_555 1_555
O7 N2 1_555 1_555
O8 N2 1_555 1_555
O11 N3 1_555 1_555
O12 N3 1_555 1_555
O13 N3 1_555 1_555
O18 N4 1_555 1_555
O19 N4 1_555 1_555
O20 N4 1_555 1_555
Pd1 N5 1_555 1_555
Pd2 N6 1_555 1_555
N5 C26 1_555 1_555
N6 C31 1_555 1_555
N7 Pd2 1_555 1_555
N8 C41 1_555 1_555
N9 C42 1_555 1_555
N10 C41 1_555 1_555
N11 Pd1 1_555 1_555
N12 Pd2 1_555 1_555
N13 Pd2 1_555 1_555
C26 H26 1_555 1_555
C27 C26 1_555 1_555
H27 C27 1_555 1_555
C28 C27 1_555 1_555
C29 C28 1_555 1_555
H28 C29 1_555 1_555
C30 N5 1_555 1_555
H29 C30 1_555 1_555
C31 H30 1_555 1_555
C32 C31 1_555 1_555
H31 C32 1_555 1_555
C33 C32 1_555 1_555
C34 C33 1_555 1_555
H32 C34 1_555 1_555
C35 N6 1_555 1_555
H33 C35 1_555 1_555
C36 N7 1_555 1_555
H34 C36 1_555 1_555
C37 C36 1_555 1_555
H35 C37 1_555 1_555
C38 C37 1_555 1_555
C39 C38 1_555 1_555
H36 C39 1_555 1_555
C40 N7 1_555 1_555
H37 C40 1_555 1_555
C41 C28 1_555 1_555
C42 N8 1_555 1_555
C43 N9 1_555 1_555
C44 N11 1_555 1_555
H38 C44 1_555 1_555
H39 C44 1_555 1_555
H40 C44 1_555 1_555
C45 N11 1_555 1_555
H41 C45 1_555 1_555
H42 C45 1_555 1_555
C46 N11 1_555 1_555
H43 C46 1_555 1_555
H44 C46 1_555 1_555
H45 C46 1_555 1_555
C47 N12 1_555 1_555
H46 C47 1_555 1_555
H47 C47 1_555 1_555
H48 C47 1_555 1_555
C48 N12 1_555 1_555
H49 C48 1_555 1_555
H50 C48 1_555 1_555
H51 C48 1_555 1_555
C49 N13 1_555 1_555
H52 C49 1_555 1_555
H53 C49 1_555 1_555
H54 C49 1_555 1_555
C50 N13 1_555 1_555
H55 C50 1_555 1_555
H56 C50 1_555 1_555
H57 C50 1_555 1_555
C51 N12 1_555 1_555
H58 C51 1_555 1_555
H59 C51 1_555 1_555
C52 N13 1_555 1_555
H60 C52 1_555 1_555
H61 C52 1_555 1_555
C1K C2K 1_555 1_555
C1N C2N 1_555 1_555
C1G C2G 1_555 1_555
C2K C3K 1_555 1_555
C2N C3N 1_555 1_555
C2G C3G 1_555 1_555
C3K C4K 1_555 1_555
C3N C4N 1_555 1_555
C3G N1 1_555 1_555
C4K C5K 1_555 1_555
C4N C5N 1_555 1_555
C4G N1 1_555 1_555
C5K H1K 1_555 1_555
C5N H1N 1_555 1_555
C5G C4G 1_555 1_555
H1G C5G 1_555 1_555
C6K C1K 1_555 1_555
C6N C15 1_555 1_555
C6G C1G 1_555 1_555
C7G C6G 1_555 1_555
C7N C15 1_555 1_555
C7K C6K 1_555 1_555
H2G C7G 1_555 1_555
H2N C15 1_555 1_555
H2K C7K 1_555 1_555
C8G C7G 1_555 1_555
C8K C7K 1_555 1_555
C8N C7N 1_555 1_555
H3G C8G 1_555 1_555
H3K C8K 1_555 1_555
H3N C8N 1_555 1_555
C9G C8G 1_555 1_555
C9K C8K 1_555 1_555
C9N C8N 1_555 1_555
H4G C9G 1_555 1_555
H4K C9K 1_555 1_555
H4N C9N 1_555 1_555
C10G C1G 1_555 1_555
C10N C1N 1_555 1_555
C10K C1K 1_555 1_555
H5G C10G 1_555 1_555
H5K C10K 1_555 1_555
H5N C10N 1_555 1_555
C11N C18 1_555 1_555
C11K C4K 1_555 1_555
C11G C4G 1_555 1_555
H6K C11K 1_555 1_555
H6N C18 1_555 1_555
H6G C11G 1_555 1_555
C12N C11N 1_555 1_555
C12K C11K 1_555 1_555
C12G C12 1_555 1_555
H7K C12K 1_555 1_555
H7N C12N 1_555 1_555
H7G C12G 1_555 1_555
C13N C11N 1_555 1_555
C13K C11K 1_555 1_555
C13G C12 1_555 1_555
H8K C12K 1_555 1_555
H8N C12N 1_555 1_555
H8G C12G 1_555 1_555
C14K C17 1_555 1_555
C14N C3N 1_555 1_555
C14G C13 1_555 1_555
H9N C14N 1_555 1_555
H9K C17 1_555 1_555
H9G C21 1_555 1_555
C15K C6 1_555 1_555
C15N C2N 1_555 1_555
C15G C2G 1_555 1_555
H10N C15N 1_555 1_555
H10K C15K 1_555 1_555
H10G C15G 1_555 1_555
H11G C7G 1_555 1_555
H11K C7K 1_555 1_555
H11N C15 1_555 1_555
O1G C1G 1_555 1_555
O1N C15 1_555 1_555
O1K C1K 1_555 1_555
H12G C6G 1_555 1_555
H12K C6K 1_555 1_555
H12N C6N 1_555 1_555
N1N C3K 1_555 1_555
O2K C2K 1_555 1_555
O2N C2N 1_555 1_555
O2G C2G 1_555 1_555
O3K C3K 1_555 1_555
O3N C3N 1_555 1_555
O3G C3G 1_555 1_555
C16N C3N 1_555 1_555
C16K C17 1_555 1_555
C16G C13 1_555 1_555
C17G C7G 1_555 1_555
C17K C20 1_555 1_555
C17N C14 1_555 1_555
H13N C14N 1_555 1_555
H13K C17 1_555 1_555
H13G C21 1_555 1_555
C18G C10G 1_555 1_555
C18N C10N 1_555 1_555
C18K C11 1_555 1_555
H14N C18 1_555 1_555
H14K H6K 1_555 1_555
H14G H6G 1_555 1_555
C19N C18 1_555 1_555
C19K C4K 1_555 1_555
C19G N1 1_555 1_555
C20N C17 1_555 1_555
C20K C4K 1_555 1_555
C20G C14 1_555 1_555
H15N C18 1_555 1_555
H15K C4K 1_555 1_555
H15G C4G 1_555 1_555
C21N C17 1_555 1_555
C21K C11K 1_555 1_555
C21G C14 1_555 1_555
H16K C17 1_555 1_555
H16N C14N 1_555 1_555
H16G C21 1_555 1_555
H17N C21N 1_555 1_555
H17K C21K 1_555 1_555
H17G C21G 1_555 1_555
C22G C7G 1_555 1_555
C22K C21 1_555 1_555
C22N C7N 1_555 1_555
H18G C9G 1_555 1_555
H18K C9K 1_555 1_555
H18N C9N 1_555 1_555
H19G C22G 1_555 1_555
H19K C22K 1_555 1_555
H19N C22N 1_555 1_555
C23G C6G 1_555 1_555
C23K C6K 1_555 1_555
C23N C6N 1_555 1_555
H20G C7G 1_555 1_555
H20K C7K 1_555 1_555
H20N C7N 1_555 1_555
H21G C8G 1_555 1_555
H21K C8K 1_555 1_555
H21N C8N 1_555 1_555
C24G C1G 1_555 1_555
C24K C1K 1_555 1_555
C24N C1N 1_555 1_555
H22G C6G 1_555 1_555
H22K C6K 1_555 1_555
H22N C6N 1_555 1_555
H23G C1G 1_555 1_555
H23K C1K 1_555 1_555
H23N C1N 1_555 1_555
C25G C1G 1_555 1_555
C25K C20 1_555 1_555
C25N H24 1_555 1_555
H24K C6 1_555 1_555
H24N C2N 1_555 1_555
H24G C2G 1_555 1_555
H25G C25G 1_555 1_555
H25K C25K 1_555 1_555
H25N C25N 1_555 1_555
Pd1N N5K 1_555 1_555
Pd2N N6N 1_555 1_555
Pd2G N6G 1_555 1_555
Pd2K N6K 1_555 1_555
N5K C26K 1_555 1_555
N5N Pd1N 1_555 1_555
N5G Pd1 1_555 1_555
N6N C31N 1_555 1_555
N6G C31G 1_555 1_555
N6K C31K 1_555 1_555
N7N Pd2N 1_555 1_555
N7G Pd2G 1_555 1_555
N7K Pd2K 1_555 1_555
N8N C41N 1_555 1_555
N8G C41G 1_555 1_555
N8K C41K 1_555 1_555
N9N C42N 1_555 1_555
N9G C42G 1_555 1_555
N9K C42K 1_555 1_555
N10N C41N 1_555 1_555
N10G C41G 1_555 1_555
N10K C41K 1_555 1_555
N11K Pd1N 1_555 1_555
N11N Pd1N 1_555 1_555
N11G Pd1 1_555 1_555
N12K Pd2K 1_555 1_555
N12G Pd2G 1_555 1_555
N12N Pd2N 1_555 1_555
N13K Pd2K 1_555 1_555
N13G Pd2G 1_555 1_555
N13N Pd2N 1_555 1_555
C26K H26K 1_555 1_555
C26N N5N 1_555 1_555
C26G N5G 1_555 1_555
H26N C26N 1_555 1_555
H26G C26G 1_555 1_555
C27K C26K 1_555 1_555
C27N C26N 1_555 1_555
C27G C26G 1_555 1_555
H27N C27N 1_555 1_555
H27K C27K 1_555 1_555
H27G C27G 1_555 1_555
C28K C27K 1_555 1_555
C28N C27N 1_555 1_555
C28G C27G 1_555 1_555
C29N C28N 1_555 1_555
C29K C28K 1_555 1_555
C29G C28G 1_555 1_555
H28N C29N 1_555 1_555
H28K C29K 1_555 1_555
H28G C29G 1_555 1_555
C30N N5N 1_555 1_555
C30K N5K 1_555 1_555
C30G N5G 1_555 1_555
H29N C30N 1_555 1_555
H29K C30K 1_555 1_555
H29G C30G 1_555 1_555
C31N H30N 1_555 1_555
C31G H30G 1_555 1_555
C31K H30K 1_555 1_555
C32N C31N 1_555 1_555
C32G C31G 1_555 1_555
C32K C31K 1_555 1_555
H31N C32N 1_555 1_555
H31G C32G 1_555 1_555
H31K C32K 1_555 1_555
C33N C32N 1_555 1_555
C33G C32G 1_555 1_555
C33K C32K 1_555 1_555
C34N C33N 1_555 1_555
C34G C33G 1_555 1_555
C34K C33K 1_555 1_555
H32N C34N 1_555 1_555
H32G C34G 1_555 1_555
H32K C34K 1_555 1_555
C35N N6N 1_555 1_555
C35G N6G 1_555 1_555
C35K N6K 1_555 1_555
H33N C35N 1_555 1_555
H33G C35G 1_555 1_555
H33K C35K 1_555 1_555
C36N N7N 1_555 1_555
C36G N7G 1_555 1_555
C36K N7K 1_555 1_555
H34K C36K 1_555 1_555
H34G C36G 1_555 1_555
H34N C36N 1_555 1_555
C37N C36N 1_555 1_555
C37G C36G 1_555 1_555
C37K C36K 1_555 1_555
H35K C37K 1_555 1_555
H35G C37G 1_555 1_555
H35N C37N 1_555 1_555
C38N C43 1_555 1_555
C38G C37G 1_555 1_555
C38K C37K 1_555 1_555
C39K C38K 1_555 1_555
C39G C38G 1_555 1_555
C39N C38N 1_555 1_555
H36K C39K 1_555 1_555
H36G C39G 1_555 1_555
H36N C39N 1_555 1_555
C40K N7K 1_555 1_555
C40G N7G 1_555 1_555
C40N N7N 1_555 1_555
H37K C40K 1_555 1_555
H37G C40G 1_555 1_555
H37N C40N 1_555 1_555
C41N C28N 1_555 1_555
C41G C28G 1_555 1_555
C41K C28K 1_555 1_555
C42N N8N 1_555 1_555
C42G N8G 1_555 1_555
C42K N8K 1_555 1_555
C43N N9N 1_555 1_555
C43G N9G 1_555 1_555
C43K C38 1_555 1_555
C44K N11K 1_555 1_555
C44N N11N 1_555 1_555
C44G N11G 1_555 1_555
H38K C44K 1_555 1_555
H38N C44N 1_555 1_555
H38G C44G 1_555 1_555
H39K C44K 1_555 1_555
H39N C44N 1_555 1_555
H39G C44G 1_555 1_555
H40K C44K 1_555 1_555
H40N C44N 1_555 1_555
H40G C44G 1_555 1_555
C45K N11K 1_555 1_555
C45N N11N 1_555 1_555
C45G C45 1_555 1_555
H41N C45N 1_555 1_555
H41K C45K 1_555 1_555
H41G C45G 1_555 1_555
H42N C45N 1_555 1_555
H42K C45K 1_555 1_555
H42G C45G 1_555 1_555
C46N N11N 1_555 1_555
C46K N11K 1_555 1_555
C46G N11G 1_555 1_555
H43N C46N 1_555 1_555
H43K C46K 1_555 1_555
H43G C46G 1_555 1_555
H44N C46N 1_555 1_555
H44K C46K 1_555 1_555
H44G C46G 1_555 1_555
H45N C46N 1_555 1_555
H45K C46K 1_555 1_555
H45G C46G 1_555 1_555
C47K N12K 1_555 1_555
C47G N12G 1_555 1_555
C47N N12N 1_555 1_555
H46K C47K 1_555 1_555
H46G C47G 1_555 1_555
H46N C47N 1_555 1_555
H47K C47K 1_555 1_555
H47G C47G 1_555 1_555
H47N C47N 1_555 1_555
H48K C47K 1_555 1_555
H48G C47G 1_555 1_555
H48N C47N 1_555 1_555
C48K N12K 1_555 1_555
C48G N12G 1_555 1_555
C48N N12N 1_555 1_555
H49K C48K 1_555 1_555
H49G C48G 1_555 1_555
H49N C48N 1_555 1_555
H50K C48K 1_555 1_555
H50G C48G 1_555 1_555
H50N C48N 1_555 1_555
H51K C48K 1_555 1_555
H51G C48G 1_555 1_555
H51N C48N 1_555 1_555
C49K N13K 1_555 1_555
C49G N13G 1_555 1_555
C49N N13N 1_555 1_555
H52K C49K 1_555 1_555
H52G C49G 1_555 1_555
H52N C49N 1_555 1_555
H53K C49K 1_555 1_555
H53G C49G 1_555 1_555
H53N C49N 1_555 1_555
H54K C49K 1_555 1_555
H54G C49G 1_555 1_555
H54N C49N 1_555 1_555
C50K N13K 1_555 1_555
C50G N13G 1_555 1_555
C50N N13N 1_555 1_555
H55K C50K 1_555 1_555
H55G C50G 1_555 1_555
H55N C50N 1_555 1_555
H56K C50K 1_555 1_555
H56G C50G 1_555 1_555
H56N C50N 1_555 1_555
H57K C50K 1_555 1_555
H57G C50G 1_555 1_555
H57N C50N 1_555 1_555
C51K N12K 1_555 1_555
C51G N12G 1_555 1_555
C51N N12N 1_555 1_555
H58K C51K 1_555 1_555
H58G C51G 1_555 1_555
H58N C51N 1_555 1_555
H59K C51K 1_555 1_555
H59G C51G 1_555 1_555
H59N C51N 1_555 1_555
C52K N13K 1_555 1_555
C52G N13G 1_555 1_555
C52N N13N 1_555 1_555
H60K C52K 1_555 1_555
H60G C52G 1_555 1_555
H60N C52N 1_555 1_555
H61K C52K 1_555 1_555
H61G C52G 1_555 1_555
H61N C52N 1_555 1_555
C3 O2 1_555 1_555
C4 N1 1_555 1_555
C4 O2 1_555 1_555
C4 O3 1_555 1_555
C4 C16 1_555 1_555
C5 C6 1_555 1_555
C5 H15 1_555 1_555
C6 O1 1_555 1_555
C6 C24 1_555 1_555
C6 C25 1_555 1_555
C7 O1 1_555 1_555
C7 C23 1_555 1_555
C7 C15K 1_555 1_555
H2 H11 1_555 1_555
H2 C15K 1_555 1_555
C8 C22 1_555 1_555
C8 C23 1_555 1_555
C8 H20 1_555 1_555
C9 C10 1_555 1_555
C9 C22 1_555 1_555
C9 C23 1_555 1_555
C9 H21 1_555 1_555
C11 O3 1_555 1_555
C11 C19 1_555 1_555
C11 C20 1_555 1_555
C11 H15 1_555 1_555
H6 C21 1_555 1_555
H6 C18K 1_555 1_555
C12 C13 1_555 1_555
C12 C19 1_555 1_555
H7 C13 1_555 1_555
H7 H8 1_555 1_555
C13 H8 1_555 1_555
C13 C21 1_555 1_555
C13 C12G 1_555 1_555
C14 C16 1_555 1_555
C14 C13G 1_555 1_555
H9 H13 1_555 1_555
H9 H16 1_555 1_555
H9 C17N 1_555 1_555
H9 C21G 1_555 1_555
H11 C15K 1_555 1_555
O1 H12 1_555 1_555
O1 C23 1_555 1_555
O1 H20 1_555 1_555
O1 C24 1_555 1_555
O1 H22 1_555 1_555
O1 C15K 1_555 1_555
N1 C16 1_555 1_555
N1 C19 1_555 1_555
N1 C20 1_555 1_555
N1 C16G 1_555 1_555
N1 C20G 1_555 1_555
O2 O3 1_555 1_555
O2 C16 1_555 1_555
O3 C16 1_555 1_555
O3 C19 1_555 1_555
C16 C13G 1_555 1_555
C16 C17N 1_555 1_555
C16 C20G 1_555 1_555
C16 C21G 1_555 1_555
C17 C18 1_555 1_555
C17 C22 1_555 1_555
H13 H16 1_555 1_555
H13 C17N 1_555 1_555
H13 C21G 1_555 1_555
C18 C22 1_555 1_555
C18 C20N 1_555 1_555
C18 C21N 1_555 1_555
H14 C18K 1_555 1_555
C19 C20 1_555 1_555
C19 H15 1_555 1_555
C19 C18K 1_555 1_555
C20 H15 1_555 1_555
C20 C21 1_555 1_555
C20 C14G 1_555 1_555
C20 C16G 1_555 1_555
C20 C18K 1_555 1_555
H15 C18K 1_555 1_555
C21 C14G 1_555 1_555
C21 C16G 1_555 1_555
C21 C17K 1_555 1_555
C21 C18K 1_555 1_555
H16 C17N 1_555 1_555
H16 C21G 1_555 1_555
C22 H18 1_555 1_555
C22 C23 1_555 1_555
C22 C21N 1_555 1_555
C23 H20 1_555 1_555
C23 H21 1_555 1_555
C23 C24 1_555 1_555
C24 H22 1_555 1_555
C24 H23 1_555 1_555
C24 C25 1_555 1_555
C25 C20N 1_555 1_555
C25 H24K 1_555 1_555
H24 C6N 1_555 1_555
N10 C43 1_555 1_555
C29 C30 1_555 1_555
C33 C42 1_555 1_555
C34 C35 1_555 1_555
C39 C40 1_555 1_555
C51 C52 1_555 1_555
C1K C25K 1_555 1_555
C1N C6N 1_555 1_555
C1N O1N 1_555 1_555
C1N C25N 1_555 1_555
C2K C15K 1_555 1_555
C2K H24K 1_555 1_555
C3K C14K 1_555 1_555
C3K O2K 1_555 1_555
C3K C16K 1_555 1_555
C3N N1N 1_555 1_555
C3N O2N 1_555 1_555
C3G C4G 1_555 1_555
C3G C14G 1_555 1_555
C3G O2G 1_555 1_555
C3G C16G 1_555 1_555
C4K N1N 1_555 1_555
C4K O2K 1_555 1_555
C4K O3K 1_555 1_555
C4K C16K 1_555 1_555
C4N C11N 1_555 1_555
C4N N1N 1_555 1_555
C4N O2N 1_555 1_555
C4N O3N 1_555 1_555
C4N C16N 1_555 1_555
C4N C19N 1_555 1_555
C4N C20N 1_555 1_555
C4N H15N 1_555 1_555
C4G O2G 1_555 1_555
C4G O3G 1_555 1_555
C4G C16G 1_555 1_555
C4G C19G 1_555 1_555
C4G C20G 1_555 1_555
C5K C6K 1_555 1_555
C5K H15K 1_555 1_555
C5N C6N 1_555 1_555
C5N H15N 1_555 1_555
C5G C6G 1_555 1_555
C5G H15G 1_555 1_555
C6K C15G 1_555 1_555
C6K O1K 1_555 1_555
C6K C24K 1_555 1_555
C6K C25K 1_555 1_555
C6K H24G 1_555 1_555
C6N C7N 1_555 1_555
C6N O1N 1_555 1_555
C6N C24N 1_555 1_555
C6N C25N 1_555 1_555
C6G C15N 1_555 1_555
C6G O1G 1_555 1_555
C6G C24G 1_555 1_555
C6G C25G 1_555 1_555
C6G H24N 1_555 1_555
C7G C15N 1_555 1_555
C7G O1G 1_555 1_555
C7G C23G 1_555 1_555
C7N H2N 1_555 1_555
C7N H11N 1_555 1_555
C7N O1N 1_555 1_555
C7N C17N 1_555 1_555
C7N C23N 1_555 1_555
C7K C15G 1_555 1_555
C7K O1K 1_555 1_555
C7K C17K 1_555 1_555
C7K C22K 1_555 1_555
C7K C23K 1_555 1_555
H2G C15N 1_555 1_555
H2G H11G 1_555 1_555
H2N H11N 1_555 1_555
H2K C15G 1_555 1_555
H2K H11K 1_555 1_555
C8G C22G 1_555 1_555
C8G C23G 1_555 1_555
C8G H20G 1_555 1_555
C8K C22K 1_555 1_555
C8K C23K 1_555 1_555
C8K H20K 1_555 1_555
C8N C22N 1_555 1_555
C8N C23N 1_555 1_555
C8N H20N 1_555 1_555
C9G C10G 1_555 1_555
C9G C22G 1_555 1_555
C9G C23G 1_555 1_555
C9G H21G 1_555 1_555
C9K C10K 1_555 1_555
C9K C22K 1_555 1_555
C9K C23K 1_555 1_555
C9K H21K 1_555 1_555
C9N C10N 1_555 1_555
C9N C22N 1_555 1_555
C9N C23N 1_555 1_555
C9N H21N 1_555 1_555
C10K C18K 1_555 1_555
C11N H6N 1_555 1_555
C11N O3N 1_555 1_555
C11N C19N 1_555 1_555
C11N C20N 1_555 1_555
C11N H15N 1_555 1_555
C11N C21N 1_555 1_555
C11K O3K 1_555 1_555
C11K C18G 1_555 1_555
C11K C19K 1_555 1_555
C11K C20K 1_555 1_555
C11K H15K 1_555 1_555
C11G C12G 1_555 1_555
C11G C13G 1_555 1_555
C11G O3G 1_555 1_555
C11G C18N 1_555 1_555
C11G C19G 1_555 1_555
C11G C20G 1_555 1_555
C11G H15G 1_555 1_555
C11G C21G 1_555 1_555
H6K C18G 1_555 1_555
H6K C21K 1_555 1_555
H6N H14N 1_555 1_555
H6N C21N 1_555 1_555
H6G C18N 1_555 1_555
H6G C21G 1_555 1_555
C12N C12K 1_555 1_555
C12N C13N 1_555 1_555
C12N C13K 1_555 1_555
C12N C19N 1_555 1_555
C12K C13N 1_555 1_555
C12K C13K 1_555 1_555
C12K C19K 1_555 1_555
C12G C13G 1_555 1_555
C12G C19G 1_555 1_555
H7K C13K 1_555 1_555
H7K H8K 1_555 1_555
H7N C13N 1_555 1_555
H7N H8N 1_555 1_555
H7G C13G 1_555 1_555
H7G H8G 1_555 1_555
C13N H8N 1_555 1_555
C13N C14K 1_555 1_555
C13N C16K 1_555 1_555
C13N C21N 1_555 1_555
C13K H8K 1_555 1_555
C13K C14N 1_555 1_555
C13K C16N 1_555 1_555
C13K C21K 1_555 1_555
C13G H8G 1_555 1_555
C13G C21G 1_555 1_555
C14K H9K 1_555 1_555
C14K C16K 1_555 1_555
C14K H13K 1_555 1_555
C14K C20N 1_555 1_555
C14K C21N 1_555 1_555
C14K H16K 1_555 1_555
C14N C16N 1_555 1_555
C14N C17G 1_555 1_555
C14N C20K 1_555 1_555
C14N C21K 1_555 1_555
C14G H9G 1_555 1_555
C14G C16G 1_555 1_555
C14G C17K 1_555 1_555
C14G H13G 1_555 1_555
C14G H16G 1_555 1_555
H9N C17G 1_555 1_555
H9N H13N 1_555 1_555
H9N C21K 1_555 1_555
H9N H16N 1_555 1_555
H9K H13K 1_555 1_555
H9K C21N 1_555 1_555
H9K H16K 1_555 1_555
H9G C17K 1_555 1_555
H9G H13G 1_555 1_555
H9G H16G 1_555 1_555
C15N H11G 1_555 1_555
C15N O1G 1_555 1_555
C15G H11K 1_555 1_555
C15G O1K 1_555 1_555
O1G H12G 1_555 1_555
O1G C23G 1_555 1_555
O1G H20G 1_555 1_555
O1G C24G 1_555 1_555
O1G H22G 1_555 1_555
O1N H12N 1_555 1_555
O1N C23N 1_555 1_555
O1N H20N 1_555 1_555
O1N C24N 1_555 1_555
O1N H22N 1_555 1_555
O1K H12K 1_555 1_555
O1K C23K 1_555 1_555
O1K H20K 1_555 1_555
O1K C24K 1_555 1_555
O1K H22K 1_555 1_555
N1N C16N 1_555 1_555
N1N C16K 1_555 1_555
N1N C19N 1_555 1_555
N1N C19K 1_555 1_555
N1N C20N 1_555 1_555
N1N C20K 1_555 1_555
O2K O3K 1_555 1_555
O2K C16K 1_555 1_555
O2N O3N 1_555 1_555
O2N C16N 1_555 1_555
O2G O3G 1_555 1_555
O2G C16G 1_555 1_555
O3K C16K 1_555 1_555
O3K C19K 1_555 1_555
O3N C16N 1_555 1_555
O3N C19N 1_555 1_555
O3G C16G 1_555 1_555
O3G C19G 1_555 1_555
C16N C17G 1_555 1_555
C16N C20K 1_555 1_555
C16N C21K 1_555 1_555
C16K C20N 1_555 1_555
C16K C21N 1_555 1_555
C16G C17K 1_555 1_555
C17G H13N 1_555 1_555
C17G C18G 1_555 1_555
C17G C20K 1_555 1_555
C17G C21K 1_555 1_555
C17G H16N 1_555 1_555
C17G C22G 1_555 1_555
C17K H13G 1_555 1_555
C17K C18K 1_555 1_555
C17K H16G 1_555 1_555
C17K C22K 1_555 1_555
C17N C18N 1_555 1_555
C17N C20G 1_555 1_555
C17N C21G 1_555 1_555
C17N C22N 1_555 1_555
H13N C21K 1_555 1_555
H13N H16N 1_555 1_555
H13K C21N 1_555 1_555
H13K H16K 1_555 1_555
H13G H16G 1_555 1_555
C18G H14K 1_555 1_555
C18G C19K 1_555 1_555
C18G C20K 1_555 1_555
C18G H15K 1_555 1_555
C18G C21K 1_555 1_555
C18G C22G 1_555 1_555
C18N H14G 1_555 1_555
C18N C19G 1_555 1_555
C18N C20G 1_555 1_555
C18N H15G 1_555 1_555
C18N C21G 1_555 1_555
C18N C22N 1_555 1_555
C18K C22K 1_555 1_555
C19N C20N 1_555 1_555
C19N H15N 1_555 1_555
C19K C20K 1_555 1_555
C19K H15K 1_555 1_555
C19G C20G 1_555 1_555
C19G H15G 1_555 1_555
C20N H15N 1_555 1_555
C20N C21N 1_555 1_555
C20K H15K 1_555 1_555
C20K C21K 1_555 1_555
C20K C25G 1_555 1_555
C20G H15G 1_555 1_555
C20G C21G 1_555 1_555
C20G C25N 1_555 1_555
C21N H16K 1_555 1_555
C21K H16N 1_555 1_555
C21K C22G 1_555 1_555
C21G C22N 1_555 1_555
C22G H18G 1_555 1_555
C22G C23G 1_555 1_555
C22K H18K 1_555 1_555
C22K C23K 1_555 1_555
C22N H18N 1_555 1_555
C22N C23N 1_555 1_555
C23G H20G 1_555 1_555
C23G H21G 1_555 1_555
C23G C24G 1_555 1_555
C23K H20K 1_555 1_555
C23K H21K 1_555 1_555
C23K C24K 1_555 1_555
C23N H20N 1_555 1_555
C23N H21N 1_555 1_555
C23N C24N 1_555 1_555
C24G H22G 1_555 1_555
C24G H23G 1_555 1_555
C24G C25G 1_555 1_555
C24K H22K 1_555 1_555
C24K H23K 1_555 1_555
C24K C25K 1_555 1_555
C24N H22N 1_555 1_555
C24N H23N 1_555 1_555
C24N C25N 1_555 1_555
C25G H24N 1_555 1_555
C25K H24G 1_555 1_555
N9K C43K 1_555 1_555
N10N C43N 1_555 1_555
N10G C43G 1_555 1_555
N10K C43K 1_555 1_555
N11G C45G 1_555 1_555
C29N C30N 1_555 1_555
C29K C30K 1_555 1_555
C29G C30G 1_555 1_555
C33N C42N 1_555 1_555
C33G C42G 1_555 1_555
C33K C42K 1_555 1_555
C34N C35N 1_555 1_555
C34G C35G 1_555 1_555
C34K C35K 1_555 1_555
C37N C38N 1_555 1_555
C38G C43N 1_555 1_555
C38K C43G 1_555 1_555
C39K C40K 1_555 1_555
C39G C40G 1_555 1_555
C39N C40N 1_555 1_555
C45K C45N 1_555 1_555
C51K C52K 1_555 1_555
C51G C52G 1_555 1_555
C51N C52N 1_555 1_555

#END
