# generated using pymatgen
data_H244Pd6C208N62O193
_symmetry_space_group_name_H-M   'P 1'
_cell_length_a   26.29630000
_cell_length_b   26.29630000
_cell_length_c   31.95100000
_cell_angle_alpha   90.00000000
_cell_angle_beta   90.00000000
_cell_angle_gamma   90.00000000
_symmetry_Int_Tables_number   1
_chemical_formula_structural   H244Pd6C208N62O193
_chemical_formula_sum   'H976 Pd24 C832 N248 O772'
_cell_volume   22093.96932379
_cell_formula_units_Z   4
loop_
 _symmetry_equiv_pos_site_id
 _symmetry_equiv_pos_as_xyz
  1  'x, y, z'
loop_
 _atom_site_type_symbol
 _atom_site_label
 _atom_site_symmetry_multiplicity
 _atom_site_fract_x
 _atom_site_fract_y
 _atom_site_fract_z
 _atom_site_occupancy
  H  H1  1  0.564800  0.817700  0.365800  1.0
  H  H2  1  0.932300  0.814800  0.615800  1.0
  H  H3  1  0.064800  0.317700  0.865800  1.0
  H  H4  1  0.432300  0.314800  0.115800  1.0
  H  H5  1  0.067700  0.685200  0.615800  1.0
  H  H6  1  0.935200  0.182300  0.865800  1.0
  H  H7  1  0.567700  0.185200  0.115800  1.0
  H  H8  1  0.435200  0.682300  0.365800  1.0
  H  H9  1  0.435200  0.182300  0.634200  1.0
  H  H10  1  0.067700  0.185200  0.384200  1.0
  H  H11  1  0.935200  0.682300  0.134200  1.0
  H  H12  1  0.567700  0.685200  0.884200  1.0
  H  H13  1  0.932300  0.314800  0.384200  1.0
  H  H14  1  0.064800  0.817700  0.134200  1.0
  H  H15  1  0.432300  0.814800  0.884200  1.0
  H  H16  1  0.564800  0.317700  0.634200  1.0
  H  H17  1  0.558200  0.869700  0.308700  1.0
  H  H18  1  0.880300  0.808200  0.558700  1.0
  H  H19  1  0.058200  0.369700  0.808700  1.0
  H  H20  1  0.380300  0.308200  0.058700  1.0
  H  H21  1  0.119700  0.691800  0.558700  1.0
  H  H22  1  0.941800  0.130300  0.808700  1.0
  H  H23  1  0.619700  0.191800  0.058700  1.0
  H  H24  1  0.441800  0.630300  0.308700  1.0
  H  H25  1  0.441800  0.130300  0.691300  1.0
  H  H26  1  0.119700  0.191800  0.441300  1.0
  H  H27  1  0.941800  0.630300  0.191300  1.0
  H  H28  1  0.619700  0.691800  0.941300  1.0
  H  H29  1  0.880300  0.308200  0.441300  1.0
  H  H30  1  0.058200  0.869700  0.191300  1.0
  H  H31  1  0.380300  0.808200  0.941300  1.0
  H  H32  1  0.558200  0.369700  0.691300  1.0
  H  H33  1  0.407500  0.848100  0.309400  1.0
  H  H34  1  0.901900  0.657500  0.559400  1.0
  H  H35  1  0.907500  0.348100  0.809400  1.0
  H  H36  1  0.401900  0.157500  0.059400  1.0
  H  H37  1  0.098100  0.842500  0.559400  1.0
  H  H38  1  0.092500  0.151900  0.809400  1.0
  H  H39  1  0.598100  0.342500  0.059400  1.0
  H  H40  1  0.592500  0.651900  0.309400  1.0
  H  H41  1  0.592500  0.151900  0.690600  1.0
  H  H42  1  0.098100  0.342500  0.440600  1.0
  H  H43  1  0.092500  0.651900  0.190600  1.0
  H  H44  1  0.598100  0.842500  0.940600  1.0
  H  H45  1  0.901900  0.157500  0.440600  1.0
  H  H46  1  0.907500  0.848100  0.190600  1.0
  H  H47  1  0.401900  0.657500  0.940600  1.0
  H  H48  1  0.407500  0.348100  0.690600  1.0
  H  H49  1  0.417800  0.795100  0.366500  1.0
  H  H50  1  0.954900  0.667800  0.616500  1.0
  H  H51  1  0.917800  0.295100  0.866500  1.0
  H  H52  1  0.454900  0.167800  0.116500  1.0
  H  H53  1  0.045100  0.832200  0.616500  1.0
  H  H54  1  0.082200  0.204900  0.866500  1.0
  H  H55  1  0.545100  0.332200  0.116500  1.0
  H  H56  1  0.582200  0.704900  0.366500  1.0
  H  H57  1  0.582200  0.204900  0.633500  1.0
  H  H58  1  0.045100  0.332200  0.383500  1.0
  H  H59  1  0.082200  0.704900  0.133500  1.0
  H  H60  1  0.545100  0.832200  0.883500  1.0
  H  H61  1  0.954900  0.167800  0.383500  1.0
  H  H62  1  0.917800  0.795100  0.133500  1.0
  H  H63  1  0.454900  0.667800  0.883500  1.0
  H  H64  1  0.417800  0.295100  0.633500  1.0
  H  H65  1  0.594900  0.037200  0.117300  1.0
  H  H66  1  0.712800  0.844900  0.367300  1.0
  H  H67  1  0.094900  0.537200  0.617300  1.0
  H  H68  1  0.212800  0.344900  0.867300  1.0
  H  H69  1  0.287200  0.655100  0.367300  1.0
  H  H70  1  0.905100  0.962800  0.617300  1.0
  H  H71  1  0.787200  0.155100  0.867300  1.0
  H  H72  1  0.405100  0.462800  0.117300  1.0
  H  H73  1  0.405100  0.962800  0.882700  1.0
  H  H74  1  0.287200  0.155100  0.632700  1.0
  H  H75  1  0.905100  0.462800  0.382700  1.0
  H  H76  1  0.787200  0.655100  0.132700  1.0
  H  H77  1  0.712800  0.344900  0.632700  1.0
  H  H78  1  0.094900  0.037200  0.382700  1.0
  H  H79  1  0.212800  0.844900  0.132700  1.0
  H  H80  1  0.594900  0.537200  0.882700  1.0
  H  H81  1  0.523200  0.003200  0.147400  1.0
  H  H82  1  0.746800  0.773200  0.397400  1.0
  H  H83  1  0.023200  0.503200  0.647400  1.0
  H  H84  1  0.246800  0.273200  0.897400  1.0
  H  H85  1  0.253200  0.726800  0.397400  1.0
  H  H86  1  0.976800  0.996800  0.647400  1.0
  H  H87  1  0.753200  0.226800  0.897400  1.0
  H  H88  1  0.476800  0.496800  0.147400  1.0
  H  H89  1  0.476800  0.996800  0.852600  1.0
  H  H90  1  0.253200  0.226800  0.602600  1.0
  H  H91  1  0.976800  0.496800  0.352600  1.0
  H  H92  1  0.753200  0.726800  0.102600  1.0
  H  H93  1  0.746800  0.273200  0.602600  1.0
  H  H94  1  0.023200  0.003200  0.352600  1.0
  H  H95  1  0.246800  0.773200  0.102600  1.0
  H  H96  1  0.523200  0.503200  0.852600  1.0
  H  H97  1  0.612100  0.937400  0.234100  1.0
  H  H98  1  0.812600  0.862100  0.484100  1.0
  H  H99  1  0.112100  0.437400  0.734100  1.0
  H  H100  1  0.312600  0.362100  0.984100  1.0
  H  H101  1  0.187400  0.637900  0.484100  1.0
  H  H102  1  0.887900  0.062600  0.734100  1.0
  H  H103  1  0.687400  0.137900  0.984100  1.0
  H  H104  1  0.387900  0.562600  0.234100  1.0
  H  H105  1  0.387900  0.062600  0.765900  1.0
  H  H106  1  0.187400  0.137900  0.515900  1.0
  H  H107  1  0.887900  0.562600  0.265900  1.0
  H  H108  1  0.687400  0.637900  0.015900  1.0
  H  H109  1  0.812600  0.362100  0.515900  1.0
  H  H110  1  0.112100  0.937400  0.265900  1.0
  H  H111  1  0.312600  0.862100  0.015900  1.0
  H  H112  1  0.612100  0.437400  0.765900  1.0
  H  H113  1  0.681300  0.972500  0.201200  1.0
  H  H114  1  0.777500  0.931300  0.451200  1.0
  H  H115  1  0.181300  0.472500  0.701200  1.0
  H  H116  1  0.277500  0.431300  0.951200  1.0
  H  H117  1  0.222500  0.568700  0.451200  1.0
  H  H118  1  0.818700  0.027500  0.701200  1.0
  H  H119  1  0.722500  0.068700  0.951200  1.0
  H  H120  1  0.318700  0.527500  0.201200  1.0
  H  H121  1  0.318700  0.027500  0.798800  1.0
  H  H122  1  0.222500  0.068700  0.548800  1.0
  H  H123  1  0.818700  0.527500  0.298800  1.0
  H  H124  1  0.722500  0.568700  0.048800  1.0
  H  H125  1  0.777500  0.431300  0.548800  1.0
  H  H126  1  0.181300  0.972500  0.298800  1.0
  H  H127  1  0.277500  0.931300  0.048800  1.0
  H  H128  1  0.681300  0.472500  0.798800  1.0
  H  H129  1  0.744800  0.927000  0.133400  1.0
  H  H130  1  0.823000  0.994800  0.383400  1.0
  H  H131  1  0.244800  0.427000  0.633400  1.0
  H  H132  1  0.323000  0.494800  0.883400  1.0
  H  H133  1  0.177000  0.505200  0.383400  1.0
  H  H134  1  0.755200  0.073000  0.633400  1.0
  H  H135  1  0.677000  0.005200  0.883400  1.0
  H  H136  1  0.255200  0.573000  0.133400  1.0
  H  H137  1  0.255200  0.073000  0.866600  1.0
  H  H138  1  0.177000  0.005200  0.616600  1.0
  H  H139  1  0.755200  0.573000  0.366600  1.0
  H  H140  1  0.677000  0.505200  0.116600  1.0
  H  H141  1  0.823000  0.494800  0.616600  1.0
  H  H142  1  0.244800  0.927000  0.366600  1.0
  H  H143  1  0.323000  0.994800  0.116600  1.0
  H  H144  1  0.744800  0.427000  0.866600  1.0
  H  H145  1  0.734500  0.848000  0.102800  1.0
  H  H146  1  0.902000  0.984500  0.352800  1.0
  H  H147  1  0.234500  0.348000  0.602800  1.0
  H  H148  1  0.402000  0.484500  0.852800  1.0
  H  H149  1  0.098000  0.515500  0.352800  1.0
  H  H150  1  0.765500  0.152000  0.602800  1.0
  H  H151  1  0.598000  0.015500  0.852800  1.0
  H  H152  1  0.265500  0.652000  0.102800  1.0
  H  H153  1  0.265500  0.152000  0.897200  1.0
  H  H154  1  0.098000  0.015500  0.647200  1.0
  H  H155  1  0.765500  0.652000  0.397200  1.0
  H  H156  1  0.598000  0.515500  0.147200  1.0
  H  H157  1  0.902000  0.484500  0.647200  1.0
  H  H158  1  0.234500  0.848000  0.397200  1.0
  H  H159  1  0.402000  0.984500  0.147200  1.0
  H  H160  1  0.734500  0.348000  0.897200  1.0
  H  H161  1  0.648400  0.913400  0.014400  1.0
  H  H162  1  0.836600  0.898400  0.264400  1.0
  H  H163  1  0.148400  0.413400  0.514400  1.0
  H  H164  1  0.336600  0.398400  0.764400  1.0
  H  H165  1  0.163400  0.601600  0.264400  1.0
  H  H166  1  0.851600  0.086600  0.514400  1.0
  H  H167  1  0.663400  0.101600  0.764400  1.0
  H  H168  1  0.351600  0.586600  0.014400  1.0
  H  H169  1  0.351600  0.086600  0.985600  1.0
  H  H170  1  0.163400  0.101600  0.735600  1.0
  H  H171  1  0.851600  0.586600  0.485600  1.0
  H  H172  1  0.663400  0.601600  0.235600  1.0
  H  H173  1  0.836600  0.398400  0.735600  1.0
  H  H174  1  0.148400  0.913400  0.485600  1.0
  H  H175  1  0.336600  0.898400  0.235600  1.0
  H  H176  1  0.648400  0.413400  0.985600  1.0
  H  H177  1  0.660200  0.989700  0.047400  1.0
  H  H178  1  0.760300  0.910200  0.297400  1.0
  H  H179  1  0.160200  0.489700  0.547400  1.0
  H  H180  1  0.260300  0.410200  0.797400  1.0
  H  H181  1  0.239700  0.589800  0.297400  1.0
  H  H182  1  0.839800  0.010300  0.547400  1.0
  H  H183  1  0.739700  0.089800  0.797400  1.0
  H  H184  1  0.339800  0.510300  0.047400  1.0
  H  H185  1  0.339800  0.010300  0.952600  1.0
  H  H186  1  0.239700  0.089800  0.702600  1.0
  H  H187  1  0.839800  0.510300  0.452600  1.0
  H  H188  1  0.739700  0.589800  0.202600  1.0
  H  H189  1  0.760300  0.410200  0.702600  1.0
  H  H190  1  0.160200  0.989700  0.452600  1.0
  H  H191  1  0.260300  0.910200  0.202600  1.0
  H  H192  1  0.660200  0.489700  0.952600  1.0
  H  H193  1  0.567600  0.657800  0.491000  1.0
  H  H194  1  0.092200  0.817600  0.741000  1.0
  H  H195  1  0.067600  0.157800  0.991000  1.0
  H  H196  1  0.592200  0.317600  0.241000  1.0
  H  H197  1  0.907800  0.682400  0.741000  1.0
  H  H198  1  0.932400  0.342200  0.991000  1.0
  H  H199  1  0.407800  0.182400  0.241000  1.0
  H  H200  1  0.432400  0.842200  0.491000  1.0
  H  H201  1  0.432400  0.342200  0.509000  1.0
  H  H202  1  0.907800  0.182400  0.259000  1.0
  H  H203  1  0.932400  0.842200  0.009000  1.0
  H  H204  1  0.407800  0.682400  0.759000  1.0
  H  H205  1  0.092200  0.317600  0.259000  1.0
  H  H206  1  0.067600  0.657800  0.009000  1.0
  H  H207  1  0.592200  0.817600  0.759000  1.0
  H  H208  1  0.567600  0.157800  0.509000  1.0
  H  H209  1  0.584000  0.711500  0.474600  1.0
  H  H210  1  0.038500  0.834000  0.724600  1.0
  H  H211  1  0.084000  0.211500  0.974600  1.0
  H  H212  1  0.538500  0.334000  0.224600  1.0
  H  H213  1  0.961500  0.666000  0.724600  1.0
  H  H214  1  0.916000  0.288500  0.974600  1.0
  H  H215  1  0.461500  0.166000  0.224600  1.0
  H  H216  1  0.416000  0.788500  0.474600  1.0
  H  H217  1  0.416000  0.288500  0.525400  1.0
  H  H218  1  0.961500  0.166000  0.275400  1.0
  H  H219  1  0.916000  0.788500  0.025400  1.0
  H  H220  1  0.461500  0.666000  0.775400  1.0
  H  H221  1  0.038500  0.334000  0.275400  1.0
  H  H222  1  0.084000  0.711500  0.025400  1.0
  H  H223  1  0.538500  0.834000  0.775400  1.0
  H  H224  1  0.584000  0.211500  0.525400  1.0
  H  H225  1  0.574000  0.667200  0.442800  1.0
  H  H226  1  0.082800  0.824000  0.692800  1.0
  H  H227  1  0.074000  0.167200  0.942800  1.0
  H  H228  1  0.582800  0.324000  0.192800  1.0
  H  H229  1  0.917200  0.676000  0.692800  1.0
  H  H230  1  0.926000  0.332800  0.942800  1.0
  H  H231  1  0.417200  0.176000  0.192800  1.0
  H  H232  1  0.426000  0.832800  0.442800  1.0
  H  H233  1  0.426000  0.332800  0.557200  1.0
  H  H234  1  0.917200  0.176000  0.307200  1.0
  H  H235  1  0.926000  0.832800  0.057200  1.0
  H  H236  1  0.417200  0.676000  0.807200  1.0
  H  H237  1  0.082800  0.324000  0.307200  1.0
  H  H238  1  0.074000  0.667200  0.057200  1.0
  H  H239  1  0.582800  0.824000  0.807200  1.0
  H  H240  1  0.574000  0.167200  0.557200  1.0
  H  H241  1  0.504300  0.704900  0.529400  1.0
  H  H242  1  0.045100  0.754300  0.779400  1.0
  H  H243  1  0.004300  0.204900  0.029400  1.0
  H  H244  1  0.545100  0.254300  0.279400  1.0
  H  H245  1  0.954900  0.745700  0.779400  1.0
  H  H246  1  0.995700  0.295100  0.029400  1.0
  H  H247  1  0.454900  0.245700  0.279400  1.0
  H  H248  1  0.495700  0.795100  0.529400  1.0
  H  H249  1  0.495700  0.295100  0.470600  1.0
  H  H250  1  0.954900  0.245700  0.220600  1.0
  H  H251  1  0.995700  0.795100  0.970600  1.0
  H  H252  1  0.454900  0.745700  0.720600  1.0
  H  H253  1  0.045100  0.254300  0.220600  1.0
  H  H254  1  0.004300  0.704900  0.970600  1.0
  H  H255  1  0.545100  0.754300  0.720600  1.0
  H  H256  1  0.504300  0.204900  0.470600  1.0
  H  H257  1  0.454100  0.721700  0.506500  1.0
  H  H258  1  0.028300  0.704100  0.756500  1.0
  H  H259  1  0.954100  0.221700  0.006500  1.0
  H  H260  1  0.528300  0.204100  0.256500  1.0
  H  H261  1  0.971700  0.795900  0.756500  1.0
  H  H262  1  0.045900  0.278300  0.006500  1.0
  H  H263  1  0.471700  0.295900  0.256500  1.0
  H  H264  1  0.545900  0.778300  0.506500  1.0
  H  H265  1  0.545900  0.278300  0.493500  1.0
  H  H266  1  0.971700  0.295900  0.243500  1.0
  H  H267  1  0.045900  0.778300  0.993500  1.0
  H  H268  1  0.471700  0.795900  0.743500  1.0
  H  H269  1  0.028300  0.204100  0.243500  1.0
  H  H270  1  0.954100  0.721700  0.993500  1.0
  H  H271  1  0.528300  0.704100  0.743500  1.0
  H  H272  1  0.454100  0.221700  0.493500  1.0
  H  H273  1  0.483600  0.627600  0.482600  1.0
  H  H274  1  0.122400  0.733600  0.732600  1.0
  H  H275  1  0.983600  0.127600  0.982600  1.0
  H  H276  1  0.622400  0.233600  0.232600  1.0
  H  H277  1  0.877600  0.766400  0.732600  1.0
  H  H278  1  0.016400  0.372400  0.982600  1.0
  H  H279  1  0.377600  0.266400  0.232600  1.0
  H  H280  1  0.516400  0.872400  0.482600  1.0
  H  H281  1  0.516400  0.372400  0.517400  1.0
  H  H282  1  0.877600  0.266400  0.267400  1.0
  H  H283  1  0.016400  0.872400  0.017400  1.0
  H  H284  1  0.377600  0.766400  0.767400  1.0
  H  H285  1  0.122400  0.233600  0.267400  1.0
  H  H286  1  0.983600  0.627600  0.017400  1.0
  H  H287  1  0.622400  0.733600  0.767400  1.0
  H  H288  1  0.483600  0.127600  0.517400  1.0
  H  H289  1  0.488500  0.634100  0.434000  1.0
  H  H290  1  0.115900  0.738500  0.684000  1.0
  H  H291  1  0.988500  0.134100  0.934000  1.0
  H  H292  1  0.615900  0.238500  0.184000  1.0
  H  H293  1  0.884100  0.761500  0.684000  1.0
  H  H294  1  0.011500  0.365900  0.934000  1.0
  H  H295  1  0.384100  0.261500  0.184000  1.0
  H  H296  1  0.511500  0.865900  0.434000  1.0
  H  H297  1  0.511500  0.365900  0.566000  1.0
  H  H298  1  0.884100  0.261500  0.316000  1.0
  H  H299  1  0.011500  0.865900  0.066000  1.0
  H  H300  1  0.384100  0.761500  0.816000  1.0
  H  H301  1  0.115900  0.238500  0.316000  1.0
  H  H302  1  0.988500  0.634100  0.066000  1.0
  H  H303  1  0.615900  0.738500  0.816000  1.0
  H  H304  1  0.488500  0.134100  0.566000  1.0
  H  H305  1  0.442800  0.659100  0.457900  1.0
  H  H306  1  0.090900  0.692800  0.707900  1.0
  H  H307  1  0.942800  0.159100  0.957900  1.0
  H  H308  1  0.590900  0.192800  0.207900  1.0
  H  H309  1  0.909100  0.807200  0.707900  1.0
  H  H310  1  0.057200  0.340900  0.957900  1.0
  H  H311  1  0.409100  0.307200  0.207900  1.0
  H  H312  1  0.557200  0.840900  0.457900  1.0
  H  H313  1  0.557200  0.340900  0.542100  1.0
  H  H314  1  0.909100  0.307200  0.292100  1.0
  H  H315  1  0.057200  0.840900  0.042100  1.0
  H  H316  1  0.409100  0.807200  0.792100  1.0
  H  H317  1  0.090900  0.192800  0.292100  1.0
  H  H318  1  0.942800  0.659100  0.042100  1.0
  H  H319  1  0.590900  0.692800  0.792100  1.0
  H  H320  1  0.442800  0.159100  0.542100  1.0
  H  H321  1  0.795300  0.068800  0.034700  1.0
  H  H322  1  0.681200  0.045300  0.284700  1.0
  H  H323  1  0.295300  0.568800  0.534700  1.0
  H  H324  1  0.181200  0.545300  0.784700  1.0
  H  H325  1  0.318800  0.454700  0.284700  1.0
  H  H326  1  0.704700  0.931200  0.534700  1.0
  H  H327  1  0.818800  0.954700  0.784700  1.0
  H  H328  1  0.204700  0.431200  0.034700  1.0
  H  H329  1  0.204700  0.931200  0.965300  1.0
  H  H330  1  0.318800  0.954700  0.715300  1.0
  H  H331  1  0.704700  0.431200  0.465300  1.0
  H  H332  1  0.818800  0.454700  0.215300  1.0
  H  H333  1  0.681200  0.545300  0.715300  1.0
  H  H334  1  0.295300  0.068800  0.465300  1.0
  H  H335  1  0.181200  0.045300  0.215300  1.0
  H  H336  1  0.795300  0.568800  0.965300  1.0
  H  H337  1  0.736500  0.076800  0.039200  1.0
  H  H338  1  0.673200  0.986500  0.289200  1.0
  H  H339  1  0.236500  0.576800  0.539200  1.0
  H  H340  1  0.173200  0.486500  0.789200  1.0
  H  H341  1  0.326800  0.513500  0.289200  1.0
  H  H342  1  0.763500  0.923200  0.539200  1.0
  H  H343  1  0.826800  0.013500  0.789200  1.0
  H  H344  1  0.263500  0.423200  0.039200  1.0
  H  H345  1  0.263500  0.923200  0.960800  1.0
  H  H346  1  0.326800  0.013500  0.710800  1.0
  H  H347  1  0.763500  0.423200  0.460800  1.0
  H  H348  1  0.826800  0.513500  0.210800  1.0
  H  H349  1  0.673200  0.486500  0.710800  1.0
  H  H350  1  0.236500  0.076800  0.460800  1.0
  H  H351  1  0.173200  0.986500  0.210800  1.0
  H  H352  1  0.736500  0.576800  0.960800  1.0
  H  H353  1  0.759100  0.021700  0.039100  1.0
  H  H354  1  0.728300  0.009100  0.289100  1.0
  H  H355  1  0.259100  0.521700  0.539100  1.0
  H  H356  1  0.228300  0.509100  0.789100  1.0
  H  H357  1  0.271700  0.490900  0.289100  1.0
  H  H358  1  0.740900  0.978300  0.539100  1.0
  H  H359  1  0.771700  0.990900  0.789100  1.0
  H  H360  1  0.240900  0.478300  0.039100  1.0
  H  H361  1  0.240900  0.978300  0.960900  1.0
  H  H362  1  0.271700  0.990900  0.710900  1.0
  H  H363  1  0.740900  0.478300  0.460900  1.0
  H  H364  1  0.771700  0.490900  0.210900  1.0
  H  H365  1  0.728300  0.509100  0.710900  1.0
  H  H366  1  0.259100  0.021700  0.460900  1.0
  H  H367  1  0.228300  0.009100  0.210900  1.0
  H  H368  1  0.759100  0.521700  0.960900  1.0
  H  H369  1  0.844700  0.042600  0.091800  1.0
  H  H370  1  0.707400  0.094700  0.341800  1.0
  H  H371  1  0.344700  0.542600  0.591800  1.0
  H  H372  1  0.207400  0.594700  0.841800  1.0
  H  H373  1  0.292600  0.405300  0.341800  1.0
  H  H374  1  0.655300  0.957400  0.591800  1.0
  H  H375  1  0.792600  0.905300  0.841800  1.0
  H  H376  1  0.155300  0.457400  0.091800  1.0
  H  H377  1  0.155300  0.957400  0.908200  1.0
  H  H378  1  0.292600  0.905300  0.658200  1.0
  H  H379  1  0.655300  0.457400  0.408200  1.0
  H  H380  1  0.792600  0.405300  0.158200  1.0
  H  H381  1  0.707400  0.594700  0.658200  1.0
  H  H382  1  0.344700  0.042600  0.408200  1.0
  H  H383  1  0.207400  0.094700  0.158200  1.0
  H  H384  1  0.844700  0.542600  0.908200  1.0
  H  H385  1  0.811000  0.994800  0.101000  1.0
  H  H386  1  0.755200  0.061000  0.351000  1.0
  H  H387  1  0.311000  0.494800  0.601000  1.0
  H  H388  1  0.255200  0.561000  0.851000  1.0
  H  H389  1  0.244800  0.439000  0.351000  1.0
  H  H390  1  0.689000  0.005200  0.601000  1.0
  H  H391  1  0.744800  0.939000  0.851000  1.0
  H  H392  1  0.189000  0.505200  0.101000  1.0
  H  H393  1  0.189000  0.005200  0.899000  1.0
  H  H394  1  0.244800  0.939000  0.649000  1.0
  H  H395  1  0.689000  0.505200  0.399000  1.0
  H  H396  1  0.744800  0.439000  0.149000  1.0
  H  H397  1  0.755200  0.561000  0.649000  1.0
  H  H398  1  0.311000  0.994800  0.399000  1.0
  H  H399  1  0.255200  0.061000  0.149000  1.0
  H  H400  1  0.811000  0.494800  0.899000  1.0
  H  H401  1  0.820300  0.035300  0.136100  1.0
  H  H402  1  0.714700  0.070300  0.386100  1.0
  H  H403  1  0.320300  0.535300  0.636100  1.0
  H  H404  1  0.214700  0.570300  0.886100  1.0
  H  H405  1  0.285300  0.429700  0.386100  1.0
  H  H406  1  0.679700  0.964700  0.636100  1.0
  H  H407  1  0.785300  0.929700  0.886100  1.0
  H  H408  1  0.179700  0.464700  0.136100  1.0
  H  H409  1  0.179700  0.964700  0.863900  1.0
  H  H410  1  0.285300  0.929700  0.613900  1.0
  H  H411  1  0.679700  0.464700  0.363900  1.0
  H  H412  1  0.785300  0.429700  0.113900  1.0
  H  H413  1  0.714700  0.570300  0.613900  1.0
  H  H414  1  0.320300  0.035300  0.363900  1.0
  H  H415  1  0.214700  0.070300  0.113900  1.0
  H  H416  1  0.820300  0.535300  0.863900  1.0
  H  H417  1  0.707700  0.127300  0.215900  1.0
  H  H418  1  0.622700  0.957700  0.465900  1.0
  H  H419  1  0.207700  0.627300  0.715900  1.0
  H  H420  1  0.122700  0.457700  0.965900  1.0
  H  H421  1  0.377300  0.542300  0.465900  1.0
  H  H422  1  0.792300  0.872700  0.715900  1.0
  H  H423  1  0.877300  0.042300  0.965900  1.0
  H  H424  1  0.292300  0.372700  0.215900  1.0
  H  H425  1  0.292300  0.872700  0.784100  1.0
  H  H426  1  0.377300  0.042300  0.534100  1.0
  H  H427  1  0.792300  0.372700  0.284100  1.0
  H  H428  1  0.877300  0.542300  0.034100  1.0
  H  H429  1  0.622700  0.457700  0.534100  1.0
  H  H430  1  0.207700  0.127300  0.284100  1.0
  H  H431  1  0.122700  0.957700  0.034100  1.0
  H  H432  1  0.707700  0.627300  0.784100  1.0
  H  H433  1  0.733500  0.073700  0.212400  1.0
  H  H434  1  0.676300  0.983500  0.462400  1.0
  H  H435  1  0.233500  0.573700  0.712400  1.0
  H  H436  1  0.176300  0.483500  0.962400  1.0
  H  H437  1  0.323700  0.516500  0.462400  1.0
  H  H438  1  0.766500  0.926300  0.712400  1.0
  H  H439  1  0.823700  0.016500  0.962400  1.0
  H  H440  1  0.266500  0.426300  0.212400  1.0
  H  H441  1  0.266500  0.926300  0.787600  1.0
  H  H442  1  0.323700  0.016500  0.537600  1.0
  H  H443  1  0.766500  0.426300  0.287600  1.0
  H  H444  1  0.823700  0.516500  0.037600  1.0
  H  H445  1  0.676300  0.483500  0.537600  1.0
  H  H446  1  0.233500  0.073700  0.287600  1.0
  H  H447  1  0.176300  0.983500  0.037600  1.0
  H  H448  1  0.733500  0.573700  0.787600  1.0
  H  H449  1  0.674200  0.078600  0.209500  1.0
  H  H450  1  0.671400  0.924200  0.459500  1.0
  H  H451  1  0.174200  0.578600  0.709500  1.0
  H  H452  1  0.171400  0.424200  0.959500  1.0
  H  H453  1  0.328600  0.575800  0.459500  1.0
  H  H454  1  0.825800  0.921400  0.709500  1.0
  H  H455  1  0.828600  0.075800  0.959500  1.0
  H  H456  1  0.325800  0.421400  0.209500  1.0
  H  H457  1  0.325800  0.921400  0.790500  1.0
  H  H458  1  0.328600  0.075800  0.540500  1.0
  H  H459  1  0.825800  0.421400  0.290500  1.0
  H  H460  1  0.828600  0.575800  0.040500  1.0
  H  H461  1  0.671400  0.424200  0.540500  1.0
  H  H462  1  0.174200  0.078600  0.290500  1.0
  H  H463  1  0.171400  0.924200  0.040500  1.0
  H  H464  1  0.674200  0.578600  0.790500  1.0
  H  H465  1  0.670200  0.165400  0.158000  1.0
  H  H466  1  0.584600  0.920200  0.408000  1.0
  H  H467  1  0.170200  0.665400  0.658000  1.0
  H  H468  1  0.084600  0.420200  0.908000  1.0
  H  H469  1  0.415400  0.579800  0.408000  1.0
  H  H470  1  0.829800  0.834600  0.658000  1.0
  H  H471  1  0.915400  0.079800  0.908000  1.0
  H  H472  1  0.329800  0.334600  0.158000  1.0
  H  H473  1  0.329800  0.834600  0.842000  1.0
  H  H474  1  0.415400  0.079800  0.592000  1.0
  H  H475  1  0.829800  0.334600  0.342000  1.0
  H  H476  1  0.915400  0.579800  0.092000  1.0
  H  H477  1  0.584600  0.420200  0.592000  1.0
  H  H478  1  0.170200  0.165400  0.342000  1.0
  H  H479  1  0.084600  0.920200  0.092000  1.0
  H  H480  1  0.670200  0.665400  0.842000  1.0
  H  H481  1  0.636300  0.117400  0.149900  1.0
  H  H482  1  0.632600  0.886300  0.399900  1.0
  H  H483  1  0.136300  0.617400  0.649900  1.0
  H  H484  1  0.132600  0.386300  0.899900  1.0
  H  H485  1  0.367400  0.613700  0.399900  1.0
  H  H486  1  0.863700  0.882600  0.649900  1.0
  H  H487  1  0.867400  0.113700  0.899900  1.0
  H  H488  1  0.363700  0.382600  0.149900  1.0
  H  H489  1  0.363700  0.882600  0.850100  1.0
  H  H490  1  0.367400  0.113700  0.600100  1.0
  H  H491  1  0.863700  0.382600  0.350100  1.0
  H  H492  1  0.867400  0.613700  0.100100  1.0
  H  H493  1  0.632600  0.386300  0.600100  1.0
  H  H494  1  0.136300  0.117400  0.350100  1.0
  H  H495  1  0.132600  0.886300  0.100100  1.0
  H  H496  1  0.636300  0.617400  0.850100  1.0
  H  H497  1  0.669700  0.139800  0.113700  1.0
  H  H498  1  0.610200  0.919700  0.363700  1.0
  H  H499  1  0.169700  0.639800  0.613700  1.0
  H  H500  1  0.110200  0.419700  0.863700  1.0
  H  H501  1  0.389800  0.580300  0.363700  1.0
  H  H502  1  0.830300  0.860200  0.613700  1.0
  H  H503  1  0.889800  0.080300  0.863700  1.0
  H  H504  1  0.330300  0.360200  0.113700  1.0
  H  H505  1  0.330300  0.860200  0.886300  1.0
  H  H506  1  0.389800  0.080300  0.636300  1.0
  H  H507  1  0.830300  0.360200  0.386300  1.0
  H  H508  1  0.889800  0.580300  0.136300  1.0
  H  H509  1  0.610200  0.419700  0.636300  1.0
  H  H510  1  0.169700  0.139800  0.386300  1.0
  H  H511  1  0.110200  0.919700  0.136300  1.0
  H  H512  1  0.669700  0.639800  0.886300  1.0
  H  H513  1  0.810600  0.122700  0.103200  1.0
  H  H514  1  0.627300  0.060600  0.353200  1.0
  H  H515  1  0.310600  0.622700  0.603200  1.0
  H  H516  1  0.127300  0.560600  0.853200  1.0
  H  H517  1  0.372700  0.439400  0.353200  1.0
  H  H518  1  0.689400  0.877300  0.603200  1.0
  H  H519  1  0.872700  0.939400  0.853200  1.0
  H  H520  1  0.189400  0.377300  0.103200  1.0
  H  H521  1  0.189400  0.877300  0.896800  1.0
  H  H522  1  0.372700  0.939400  0.646800  1.0
  H  H523  1  0.689400  0.377300  0.396800  1.0
  H  H524  1  0.872700  0.439400  0.146800  1.0
  H  H525  1  0.627300  0.560600  0.646800  1.0
  H  H526  1  0.310600  0.122700  0.396800  1.0
  H  H527  1  0.127300  0.060600  0.146800  1.0
  H  H528  1  0.810600  0.622700  0.896800  1.0
  H  H529  1  0.755800  0.133500  0.086300  1.0
  H  H530  1  0.616500  0.005800  0.336300  1.0
  H  H531  1  0.255800  0.633500  0.586300  1.0
  H  H532  1  0.116500  0.505800  0.836300  1.0
  H  H533  1  0.383500  0.494200  0.336300  1.0
  H  H534  1  0.744200  0.866500  0.586300  1.0
  H  H535  1  0.883500  0.994200  0.836300  1.0
  H  H536  1  0.244200  0.366500  0.086300  1.0
  H  H537  1  0.244200  0.866500  0.913700  1.0
  H  H538  1  0.383500  0.994200  0.663700  1.0
  H  H539  1  0.744200  0.366500  0.413700  1.0
  H  H540  1  0.883500  0.494200  0.163700  1.0
  H  H541  1  0.616500  0.505800  0.663700  1.0
  H  H542  1  0.255800  0.133500  0.413700  1.0
  H  H543  1  0.116500  0.005800  0.163700  1.0
  H  H544  1  0.755800  0.633500  0.913700  1.0
  H  H545  1  0.757100  0.160200  0.148400  1.0
  H  H546  1  0.589800  0.007100  0.398400  1.0
  H  H547  1  0.257100  0.660200  0.648400  1.0
  H  H548  1  0.089800  0.507100  0.898400  1.0
  H  H549  1  0.410200  0.492900  0.398400  1.0
  H  H550  1  0.742900  0.839800  0.648400  1.0
  H  H551  1  0.910200  0.992900  0.898400  1.0
  H  H552  1  0.242900  0.339800  0.148400  1.0
  H  H553  1  0.242900  0.839800  0.851600  1.0
  H  H554  1  0.410200  0.992900  0.601600  1.0
  H  H555  1  0.742900  0.339800  0.351600  1.0
  H  H556  1  0.910200  0.492900  0.101600  1.0
  H  H557  1  0.589800  0.507100  0.601600  1.0
  H  H558  1  0.257100  0.160200  0.351600  1.0
  H  H559  1  0.089800  0.007100  0.101600  1.0
  H  H560  1  0.757100  0.660200  0.851600  1.0
  H  H561  1  0.784700  0.111300  0.164900  1.0
  H  H562  1  0.638700  0.034700  0.414900  1.0
  H  H563  1  0.284700  0.611300  0.664900  1.0
  H  H564  1  0.138700  0.534700  0.914900  1.0
  H  H565  1  0.361300  0.465300  0.414900  1.0
  H  H566  1  0.715300  0.888700  0.664900  1.0
  H  H567  1  0.861300  0.965300  0.914900  1.0
  H  H568  1  0.215300  0.388700  0.164900  1.0
  H  H569  1  0.215300  0.888700  0.835100  1.0
  H  H570  1  0.361300  0.965300  0.585100  1.0
  H  H571  1  0.715300  0.388700  0.335100  1.0
  H  H572  1  0.861300  0.465300  0.085100  1.0
  H  H573  1  0.638700  0.534700  0.585100  1.0
  H  H574  1  0.284700  0.111300  0.335100  1.0
  H  H575  1  0.138700  0.034700  0.085100  1.0
  H  H576  1  0.784700  0.611300  0.835100  1.0
  H  H577  1  0.407600  0.825500  0.098200  1.0
  H  H578  1  0.924500  0.657600  0.348200  1.0
  H  H579  1  0.907600  0.325500  0.598200  1.0
  H  H580  1  0.424500  0.157600  0.848200  1.0
  H  H581  1  0.075500  0.842400  0.348200  1.0
  H  H582  1  0.092400  0.174500  0.598200  1.0
  H  H583  1  0.575500  0.342400  0.848200  1.0
  H  H584  1  0.592400  0.674500  0.098200  1.0
  H  H585  1  0.592400  0.174500  0.901800  1.0
  H  H586  1  0.075500  0.342400  0.651800  1.0
  H  H587  1  0.092400  0.674500  0.401800  1.0
  H  H588  1  0.575500  0.842400  0.151800  1.0
  H  H589  1  0.924500  0.157600  0.651800  1.0
  H  H590  1  0.907600  0.825500  0.401800  1.0
  H  H591  1  0.424500  0.657600  0.151800  1.0
  H  H592  1  0.407600  0.325500  0.901800  1.0
  H  H593  1  0.360400  0.814800  0.172300  1.0
  H  H594  1  0.935200  0.610400  0.422300  1.0
  H  H595  1  0.860400  0.314800  0.672300  1.0
  H  H596  1  0.435200  0.110400  0.922300  1.0
  H  H597  1  0.064800  0.889600  0.422300  1.0
  H  H598  1  0.139600  0.185200  0.672300  1.0
  H  H599  1  0.564800  0.389600  0.922300  1.0
  H  H600  1  0.639600  0.685200  0.172300  1.0
  H  H601  1  0.639600  0.185200  0.827700  1.0
  H  H602  1  0.064800  0.389600  0.577700  1.0
  H  H603  1  0.139600  0.685200  0.327700  1.0
  H  H604  1  0.564800  0.889600  0.077700  1.0
  H  H605  1  0.935200  0.110400  0.577700  1.0
  H  H606  1  0.860400  0.814800  0.327700  1.0
  H  H607  1  0.435200  0.610400  0.077700  1.0
  H  H608  1  0.360400  0.314800  0.827700  1.0
  H  H609  1  0.285800  0.764000  0.188000  1.0
  H  H610  1  0.986000  0.535800  0.438000  1.0
  H  H611  1  0.785800  0.264000  0.688000  1.0
  H  H612  1  0.486000  0.035800  0.938000  1.0
  H  H613  1  0.014000  0.964200  0.438000  1.0
  H  H614  1  0.214200  0.236000  0.688000  1.0
  H  H615  1  0.514000  0.464200  0.938000  1.0
  H  H616  1  0.714200  0.736000  0.188000  1.0
  H  H617  1  0.714200  0.236000  0.812000  1.0
  H  H618  1  0.014000  0.464200  0.562000  1.0
  H  H619  1  0.214200  0.736000  0.312000  1.0
  H  H620  1  0.514000  0.964200  0.062000  1.0
  H  H621  1  0.986000  0.035800  0.562000  1.0
  H  H622  1  0.785800  0.764000  0.312000  1.0
  H  H623  1  0.486000  0.535800  0.062000  1.0
  H  H624  1  0.285800  0.264000  0.812000  1.0
  H  H625  1  0.302500  0.675100  0.186400  1.0
  H  H626  1  0.074900  0.552500  0.436400  1.0
  H  H627  1  0.802500  0.175100  0.686400  1.0
  H  H628  1  0.574900  0.052500  0.936400  1.0
  H  H629  1  0.925100  0.947500  0.436400  1.0
  H  H630  1  0.197500  0.324900  0.686400  1.0
  H  H631  1  0.425100  0.447500  0.936400  1.0
  H  H632  1  0.697500  0.824900  0.186400  1.0
  H  H633  1  0.697500  0.324900  0.813600  1.0
  H  H634  1  0.925100  0.447500  0.563600  1.0
  H  H635  1  0.197500  0.824900  0.313600  1.0
  H  H636  1  0.425100  0.947500  0.063600  1.0
  H  H637  1  0.074900  0.052500  0.563600  1.0
  H  H638  1  0.802500  0.675100  0.313600  1.0
  H  H639  1  0.574900  0.552500  0.063600  1.0
  H  H640  1  0.302500  0.175100  0.813600  1.0
  H  H641  1  0.387100  0.646600  0.172700  1.0
  H  H642  1  0.103400  0.637100  0.422700  1.0
  H  H643  1  0.887100  0.146600  0.672700  1.0
  H  H644  1  0.603400  0.137100  0.922700  1.0
  H  H645  1  0.896600  0.862900  0.422700  1.0
  H  H646  1  0.112900  0.353400  0.672700  1.0
  H  H647  1  0.396600  0.362900  0.922700  1.0
  H  H648  1  0.612900  0.853400  0.172700  1.0
  H  H649  1  0.612900  0.353400  0.827300  1.0
  H  H650  1  0.896600  0.362900  0.577300  1.0
  H  H651  1  0.112900  0.853400  0.327300  1.0
  H  H652  1  0.396600  0.862900  0.077300  1.0
  H  H653  1  0.103400  0.137100  0.577300  1.0
  H  H654  1  0.887100  0.646600  0.327300  1.0
  H  H655  1  0.603400  0.637100  0.077300  1.0
  H  H656  1  0.387100  0.146600  0.827300  1.0
  H  H657  1  0.449800  0.827200  0.031200  1.0
  H  H658  1  0.922800  0.699800  0.281200  1.0
  H  H659  1  0.949800  0.327200  0.531200  1.0
  H  H660  1  0.422800  0.199800  0.781200  1.0
  H  H661  1  0.077200  0.800200  0.281200  1.0
  H  H662  1  0.050200  0.172800  0.531200  1.0
  H  H663  1  0.577200  0.300200  0.781200  1.0
  H  H664  1  0.550200  0.672800  0.031200  1.0
  H  H665  1  0.550200  0.172800  0.968800  1.0
  H  H666  1  0.077200  0.300200  0.718800  1.0
  H  H667  1  0.050200  0.672800  0.468800  1.0
  H  H668  1  0.577200  0.800200  0.218800  1.0
  H  H669  1  0.922800  0.199800  0.718800  1.0
  H  H670  1  0.949800  0.827200  0.468800  1.0
  H  H671  1  0.422800  0.699800  0.218800  1.0
  H  H672  1  0.449800  0.327200  0.968800  1.0
  H  H673  1  0.500300  0.785700  0.982800  1.0
  H  H674  1  0.964300  0.750300  0.232800  1.0
  H  H675  1  0.000300  0.285700  0.482800  1.0
  H  H676  1  0.464300  0.250300  0.732800  1.0
  H  H677  1  0.035700  0.749700  0.232800  1.0
  H  H678  1  0.999700  0.214300  0.482800  1.0
  H  H679  1  0.535700  0.249700  0.732800  1.0
  H  H680  1  0.499700  0.714300  0.982800  1.0
  H  H681  1  0.499700  0.214300  0.017200  1.0
  H  H682  1  0.035700  0.249700  0.767200  1.0
  H  H683  1  0.999700  0.714300  0.517200  1.0
  H  H684  1  0.535700  0.749700  0.267200  1.0
  H  H685  1  0.964300  0.250300  0.767200  1.0
  H  H686  1  0.000300  0.785700  0.517200  1.0
  H  H687  1  0.464300  0.750300  0.267200  1.0
  H  H688  1  0.500300  0.285700  0.017200  1.0
  H  H689  1  0.482200  0.800400  0.984700  1.0
  H  H690  1  0.949600  0.732200  0.234700  1.0
  H  H691  1  0.982200  0.300400  0.484700  1.0
  H  H692  1  0.449600  0.232200  0.734700  1.0
  H  H693  1  0.050400  0.767800  0.234700  1.0
  H  H694  1  0.017800  0.199600  0.484700  1.0
  H  H695  1  0.550400  0.267800  0.734700  1.0
  H  H696  1  0.517800  0.699600  0.984700  1.0
  H  H697  1  0.517800  0.199600  0.015300  1.0
  H  H698  1  0.050400  0.267800  0.765300  1.0
  H  H699  1  0.017800  0.699600  0.515300  1.0
  H  H700  1  0.550400  0.767800  0.265300  1.0
  H  H701  1  0.949600  0.232200  0.765300  1.0
  H  H702  1  0.982200  0.800400  0.515300  1.0
  H  H703  1  0.449600  0.732200  0.265300  1.0
  H  H704  1  0.482200  0.300400  0.015300  1.0
  H  H705  1  0.475900  0.650200  0.036300  1.0
  H  H706  1  0.099800  0.725900  0.286300  1.0
  H  H707  1  0.975900  0.150200  0.536300  1.0
  H  H708  1  0.599800  0.225900  0.786300  1.0
  H  H709  1  0.900200  0.774100  0.286300  1.0
  H  H710  1  0.024100  0.349800  0.536300  1.0
  H  H711  1  0.400200  0.274100  0.786300  1.0
  H  H712  1  0.524100  0.849800  0.036300  1.0
  H  H713  1  0.524100  0.349800  0.963700  1.0
  H  H714  1  0.900200  0.274100  0.713700  1.0
  H  H715  1  0.024100  0.849800  0.463700  1.0
  H  H716  1  0.400200  0.774100  0.213700  1.0
  H  H717  1  0.099800  0.225900  0.713700  1.0
  H  H718  1  0.975900  0.650200  0.463700  1.0
  H  H719  1  0.599800  0.725900  0.213700  1.0
  H  H720  1  0.475900  0.150200  0.963700  1.0
  H  H721  1  0.416300  0.608800  0.116500  1.0
  H  H722  1  0.141200  0.666300  0.366500  1.0
  H  H723  1  0.916300  0.108800  0.616500  1.0
  H  H724  1  0.641200  0.166300  0.866500  1.0
  H  H725  1  0.858800  0.833700  0.366500  1.0
  H  H726  1  0.083700  0.391200  0.616500  1.0
  H  H727  1  0.358800  0.333700  0.866500  1.0
  H  H728  1  0.583700  0.891200  0.116500  1.0
  H  H729  1  0.583700  0.391200  0.883500  1.0
  H  H730  1  0.858800  0.333700  0.633500  1.0
  H  H731  1  0.083700  0.891200  0.383500  1.0
  H  H732  1  0.358800  0.833700  0.133500  1.0
  H  H733  1  0.141200  0.166300  0.633500  1.0
  H  H734  1  0.916300  0.608800  0.383500  1.0
  H  H735  1  0.641200  0.666300  0.133500  1.0
  H  H736  1  0.416300  0.108800  0.883500  1.0
  H  H737  1  0.365400  0.811200  0.178700  1.0
  H  H738  1  0.938800  0.615400  0.428700  1.0
  H  H739  1  0.865400  0.311200  0.678700  1.0
  H  H740  1  0.438800  0.115400  0.928700  1.0
  H  H741  1  0.061200  0.884600  0.428700  1.0
  H  H742  1  0.134600  0.188800  0.678700  1.0
  H  H743  1  0.561200  0.384600  0.928700  1.0
  H  H744  1  0.634600  0.688800  0.178700  1.0
  H  H745  1  0.634600  0.188800  0.821300  1.0
  H  H746  1  0.061200  0.384600  0.571300  1.0
  H  H747  1  0.134600  0.688800  0.321300  1.0
  H  H748  1  0.561200  0.884600  0.071300  1.0
  H  H749  1  0.938800  0.115400  0.571300  1.0
  H  H750  1  0.865400  0.811200  0.321300  1.0
  H  H751  1  0.438800  0.615400  0.071300  1.0
  H  H752  1  0.365400  0.311200  0.821300  1.0
  H  H753  1  0.349900  0.761300  0.113600  1.0
  H  H754  1  0.988700  0.599900  0.363600  1.0
  H  H755  1  0.849900  0.261300  0.613600  1.0
  H  H756  1  0.488700  0.099900  0.863600  1.0
  H  H757  1  0.011300  0.900100  0.363600  1.0
  H  H758  1  0.150100  0.238700  0.613600  1.0
  H  H759  1  0.511300  0.400100  0.863600  1.0
  H  H760  1  0.650100  0.738700  0.113600  1.0
  H  H761  1  0.650100  0.238700  0.886400  1.0
  H  H762  1  0.011300  0.400100  0.636400  1.0
  H  H763  1  0.150100  0.738700  0.386400  1.0
  H  H764  1  0.511300  0.900100  0.136400  1.0
  H  H765  1  0.988700  0.099900  0.636400  1.0
  H  H766  1  0.849900  0.761300  0.386400  1.0
  H  H767  1  0.488700  0.599900  0.136400  1.0
  H  H768  1  0.349900  0.261300  0.886400  1.0
  H  H769  1  0.474000  0.646600  0.017500  1.0
  H  H770  1  0.103400  0.724000  0.267500  1.0
  H  H771  1  0.974000  0.146600  0.517500  1.0
  H  H772  1  0.603400  0.224000  0.767500  1.0
  H  H773  1  0.896600  0.776000  0.267500  1.0
  H  H774  1  0.026000  0.353400  0.517500  1.0
  H  H775  1  0.396600  0.276000  0.767500  1.0
  H  H776  1  0.526000  0.853400  0.017500  1.0
  H  H777  1  0.526000  0.353400  0.982500  1.0
  H  H778  1  0.896600  0.276000  0.732500  1.0
  H  H779  1  0.026000  0.853400  0.482500  1.0
  H  H780  1  0.396600  0.776000  0.232500  1.0
  H  H781  1  0.103400  0.224000  0.732500  1.0
  H  H782  1  0.974000  0.646600  0.482500  1.0
  H  H783  1  0.603400  0.724000  0.232500  1.0
  H  H784  1  0.474000  0.146600  0.982500  1.0
  H  H785  1  0.446600  0.843000  0.016200  1.0
  H  H786  1  0.907000  0.696600  0.266200  1.0
  H  H787  1  0.946600  0.343000  0.516200  1.0
  H  H788  1  0.407000  0.196600  0.766200  1.0
  H  H789  1  0.093000  0.803400  0.266200  1.0
  H  H790  1  0.053400  0.157000  0.516200  1.0
  H  H791  1  0.593000  0.303400  0.766200  1.0
  H  H792  1  0.553400  0.657000  0.016200  1.0
  H  H793  1  0.553400  0.157000  0.983800  1.0
  H  H794  1  0.093000  0.303400  0.733800  1.0
  H  H795  1  0.053400  0.657000  0.483800  1.0
  H  H796  1  0.593000  0.803400  0.233800  1.0
  H  H797  1  0.907000  0.196600  0.733800  1.0
  H  H798  1  0.946600  0.843000  0.483800  1.0
  H  H799  1  0.407000  0.696600  0.233800  1.0
  H  H800  1  0.446600  0.343000  0.983800  1.0
  H  H801  1  0.441000  0.798600  0.066800  1.0
  H  H802  1  0.951400  0.691000  0.316800  1.0
  H  H803  1  0.941000  0.298600  0.566800  1.0
  H  H804  1  0.451400  0.191000  0.816800  1.0
  H  H805  1  0.048600  0.809000  0.316800  1.0
  H  H806  1  0.059000  0.201400  0.566800  1.0
  H  H807  1  0.548600  0.309000  0.816800  1.0
  H  H808  1  0.559000  0.701400  0.066800  1.0
  H  H809  1  0.559000  0.201400  0.933200  1.0
  H  H810  1  0.048600  0.309000  0.683200  1.0
  H  H811  1  0.059000  0.701400  0.433200  1.0
  H  H812  1  0.548600  0.809000  0.183200  1.0
  H  H813  1  0.951400  0.191000  0.683200  1.0
  H  H814  1  0.941000  0.798600  0.433200  1.0
  H  H815  1  0.451400  0.691000  0.183200  1.0
  H  H816  1  0.441000  0.298600  0.933200  1.0
  H  H817  1  0.470200  0.673300  0.020700  1.0
  H  H818  1  0.076700  0.720200  0.270700  1.0
  H  H819  1  0.970200  0.173300  0.520700  1.0
  H  H820  1  0.576700  0.220200  0.770700  1.0
  H  H821  1  0.923300  0.779800  0.270700  1.0
  H  H822  1  0.029800  0.326700  0.520700  1.0
  H  H823  1  0.423300  0.279800  0.770700  1.0
  H  H824  1  0.529800  0.826700  0.020700  1.0
  H  H825  1  0.529800  0.326700  0.979300  1.0
  H  H826  1  0.923300  0.279800  0.729300  1.0
  H  H827  1  0.029800  0.826700  0.479300  1.0
  H  H828  1  0.423300  0.779800  0.229300  1.0
  H  H829  1  0.076700  0.220200  0.729300  1.0
  H  H830  1  0.970200  0.673300  0.479300  1.0
  H  H831  1  0.576700  0.720200  0.229300  1.0
  H  H832  1  0.470200  0.173300  0.979300  1.0
  H  H833  1  0.473500  0.828100  0.004100  1.0
  H  H834  1  0.921900  0.723500  0.254100  1.0
  H  H835  1  0.973500  0.328100  0.504100  1.0
  H  H836  1  0.421900  0.223500  0.754100  1.0
  H  H837  1  0.078100  0.776500  0.254100  1.0
  H  H838  1  0.026500  0.171900  0.504100  1.0
  H  H839  1  0.578100  0.276500  0.754100  1.0
  H  H840  1  0.526500  0.671900  0.004100  1.0
  H  H841  1  0.526500  0.171900  0.995900  1.0
  H  H842  1  0.078100  0.276500  0.745900  1.0
  H  H843  1  0.026500  0.671900  0.495900  1.0
  H  H844  1  0.578100  0.776500  0.245900  1.0
  H  H845  1  0.921900  0.223500  0.745900  1.0
  H  H846  1  0.973500  0.828100  0.495900  1.0
  H  H847  1  0.421900  0.723500  0.245900  1.0
  H  H848  1  0.473500  0.328100  0.995900  1.0
  H  H849  1  0.348800  0.707000  0.216500  1.0
  H  H850  1  0.043000  0.598800  0.466500  1.0
  H  H851  1  0.848800  0.207000  0.716500  1.0
  H  H852  1  0.543000  0.098800  0.966500  1.0
  H  H853  1  0.957000  0.901200  0.466500  1.0
  H  H854  1  0.151200  0.293000  0.716500  1.0
  H  H855  1  0.457000  0.401200  0.966500  1.0
  H  H856  1  0.651200  0.793000  0.216500  1.0
  H  H857  1  0.651200  0.293000  0.783500  1.0
  H  H858  1  0.957000  0.401200  0.533500  1.0
  H  H859  1  0.151200  0.793000  0.283500  1.0
  H  H860  1  0.457000  0.901200  0.033500  1.0
  H  H861  1  0.043000  0.098800  0.533500  1.0
  H  H862  1  0.848800  0.707000  0.283500  1.0
  H  H863  1  0.543000  0.598800  0.033500  1.0
  H  H864  1  0.348800  0.207000  0.783500  1.0
  H  H865  1  0.341300  0.765300  0.221800  1.0
  H  H866  1  0.984700  0.591300  0.471800  1.0
  H  H867  1  0.841300  0.265300  0.721800  1.0
  H  H868  1  0.484700  0.091300  0.971800  1.0
  H  H869  1  0.015300  0.908700  0.471800  1.0
  H  H870  1  0.158700  0.234700  0.721800  1.0
  H  H871  1  0.515300  0.408700  0.971800  1.0
  H  H872  1  0.658700  0.734700  0.221800  1.0
  H  H873  1  0.658700  0.234700  0.778200  1.0
  H  H874  1  0.015300  0.408700  0.528200  1.0
  H  H875  1  0.158700  0.734700  0.278200  1.0
  H  H876  1  0.515300  0.908700  0.028200  1.0
  H  H877  1  0.984700  0.091300  0.528200  1.0
  H  H878  1  0.841300  0.765300  0.278200  1.0
  H  H879  1  0.484700  0.591300  0.028200  1.0
  H  H880  1  0.341300  0.265300  0.778200  1.0
  H  H881  1  0.337300  0.779300  0.155000  1.0
  H  H882  1  0.970700  0.587300  0.405000  1.0
  H  H883  1  0.837300  0.279300  0.655000  1.0
  H  H884  1  0.470700  0.087300  0.905000  1.0
  H  H885  1  0.029300  0.912700  0.405000  1.0
  H  H886  1  0.162700  0.220700  0.655000  1.0
  H  H887  1  0.529300  0.412700  0.905000  1.0
  H  H888  1  0.662700  0.720700  0.155000  1.0
  H  H889  1  0.662700  0.220700  0.845000  1.0
  H  H890  1  0.029300  0.412700  0.595000  1.0
  H  H891  1  0.162700  0.720700  0.345000  1.0
  H  H892  1  0.529300  0.912700  0.095000  1.0
  H  H893  1  0.970700  0.087300  0.595000  1.0
  H  H894  1  0.837300  0.779300  0.345000  1.0
  H  H895  1  0.470700  0.587300  0.095000  1.0
  H  H896  1  0.337300  0.279300  0.845000  1.0
  H  H897  1  0.315000  0.724300  0.156500  1.0
  H  H898  1  0.025700  0.565000  0.406500  1.0
  H  H899  1  0.815000  0.224300  0.656500  1.0
  H  H900  1  0.525700  0.065000  0.906500  1.0
  H  H901  1  0.974300  0.935000  0.406500  1.0
  H  H902  1  0.185000  0.275700  0.656500  1.0
  H  H903  1  0.474300  0.435000  0.906500  1.0
  H  H904  1  0.685000  0.775700  0.156500  1.0
  H  H905  1  0.685000  0.275700  0.843500  1.0
  H  H906  1  0.974300  0.435000  0.593500  1.0
  H  H907  1  0.185000  0.775700  0.343500  1.0
  H  H908  1  0.474300  0.935000  0.093500  1.0
  H  H909  1  0.025700  0.065000  0.593500  1.0
  H  H910  1  0.815000  0.724300  0.343500  1.0
  H  H911  1  0.525700  0.565000  0.093500  1.0
  H  H912  1  0.315000  0.224300  0.843500  1.0
  H  H913  1  0.376400  0.737700  0.100900  1.0
  H  H914  1  0.012300  0.626400  0.350900  1.0
  H  H915  1  0.876400  0.237700  0.600900  1.0
  H  H916  1  0.512300  0.126400  0.850900  1.0
  H  H917  1  0.987700  0.873600  0.350900  1.0
  H  H918  1  0.123600  0.262300  0.600900  1.0
  H  H919  1  0.487700  0.373600  0.850900  1.0
  H  H920  1  0.623600  0.762300  0.100900  1.0
  H  H921  1  0.623600  0.262300  0.899100  1.0
  H  H922  1  0.987700  0.373600  0.649100  1.0
  H  H923  1  0.123600  0.762300  0.399100  1.0
  H  H924  1  0.487700  0.873600  0.149100  1.0
  H  H925  1  0.012300  0.126400  0.649100  1.0
  H  H926  1  0.876400  0.737700  0.399100  1.0
  H  H927  1  0.512300  0.626400  0.149100  1.0
  H  H928  1  0.376400  0.237700  0.899100  1.0
  H  H929  1  0.388700  0.690000  0.129000  1.0
  H  H930  1  0.060000  0.638700  0.379000  1.0
  H  H931  1  0.888700  0.190000  0.629000  1.0
  H  H932  1  0.560000  0.138700  0.879000  1.0
  H  H933  1  0.940000  0.861300  0.379000  1.0
  H  H934  1  0.111300  0.310000  0.629000  1.0
  H  H935  1  0.440000  0.361300  0.879000  1.0
  H  H936  1  0.611300  0.810000  0.129000  1.0
  H  H937  1  0.611300  0.310000  0.871000  1.0
  H  H938  1  0.940000  0.361300  0.621000  1.0
  H  H939  1  0.111300  0.810000  0.371000  1.0
  H  H940  1  0.440000  0.861300  0.121000  1.0
  H  H941  1  0.060000  0.138700  0.621000  1.0
  H  H942  1  0.888700  0.690000  0.371000  1.0
  H  H943  1  0.560000  0.638700  0.121000  1.0
  H  H944  1  0.388700  0.190000  0.871000  1.0
  H  H945  1  0.461700  0.680400  0.103900  1.0
  H  H946  1  0.069600  0.711700  0.353900  1.0
  H  H947  1  0.961700  0.180400  0.603900  1.0
  H  H948  1  0.569600  0.211700  0.853900  1.0
  H  H949  1  0.930400  0.788300  0.353900  1.0
  H  H950  1  0.038300  0.319600  0.603900  1.0
  H  H951  1  0.430400  0.288300  0.853900  1.0
  H  H952  1  0.538300  0.819600  0.103900  1.0
  H  H953  1  0.538300  0.319600  0.896100  1.0
  H  H954  1  0.930400  0.288300  0.646100  1.0
  H  H955  1  0.038300  0.819600  0.396100  1.0
  H  H956  1  0.430400  0.788300  0.146100  1.0
  H  H957  1  0.069600  0.211700  0.646100  1.0
  H  H958  1  0.961700  0.680400  0.396100  1.0
  H  H959  1  0.569600  0.711700  0.146100  1.0
  H  H960  1  0.461700  0.180400  0.896100  1.0
  H  H961  1  0.461700  0.746000  0.122600  1.0
  H  H962  1  0.004000  0.711700  0.372600  1.0
  H  H963  1  0.961700  0.246000  0.622600  1.0
  H  H964  1  0.504000  0.211700  0.872600  1.0
  H  H965  1  0.996000  0.788300  0.372600  1.0
  H  H966  1  0.038300  0.254000  0.622600  1.0
  H  H967  1  0.496000  0.288300  0.872600  1.0
  H  H968  1  0.538300  0.754000  0.122600  1.0
  H  H969  1  0.538300  0.254000  0.877400  1.0
  H  H970  1  0.996000  0.288300  0.627400  1.0
  H  H971  1  0.038300  0.754000  0.377400  1.0
  H  H972  1  0.496000  0.788300  0.127400  1.0
  H  H973  1  0.004000  0.211700  0.627400  1.0
  H  H974  1  0.961700  0.746000  0.377400  1.0
  H  H975  1  0.504000  0.711700  0.127400  1.0
  H  H976  1  0.461700  0.246000  0.877400  1.0
  Pd  Pd977  1  0.500000  0.750000  0.418541  1.0
  Pd  Pd978  1  0.000000  0.750000  0.668541  1.0
  Pd  Pd979  1  0.000000  0.250000  0.918541  1.0
  Pd  Pd980  1  0.500000  0.250000  0.168541  1.0
  Pd  Pd981  1  0.500000  0.250000  0.581459  1.0
  Pd  Pd982  1  0.000000  0.250000  0.331459  1.0
  Pd  Pd983  1  0.000000  0.750000  0.081459  1.0
  Pd  Pd984  1  0.500000  0.750000  0.831459  1.0
  Pd  Pd985  1  0.707125  0.032582  0.124623  1.0
  Pd  Pd986  1  0.717418  0.957125  0.374623  1.0
  Pd  Pd987  1  0.207125  0.532582  0.624623  1.0
  Pd  Pd988  1  0.217418  0.457125  0.874623  1.0
  Pd  Pd989  1  0.282582  0.542875  0.374623  1.0
  Pd  Pd990  1  0.792875  0.967418  0.624623  1.0
  Pd  Pd991  1  0.782582  0.042875  0.874623  1.0
  Pd  Pd992  1  0.292875  0.467418  0.124623  1.0
  Pd  Pd993  1  0.292875  0.967418  0.875377  1.0
  Pd  Pd994  1  0.282582  0.042875  0.625377  1.0
  Pd  Pd995  1  0.792875  0.467418  0.375377  1.0
  Pd  Pd996  1  0.782582  0.542875  0.125377  1.0
  Pd  Pd997  1  0.717418  0.457125  0.625377  1.0
  Pd  Pd998  1  0.207125  0.032582  0.375377  1.0
  Pd  Pd999  1  0.217418  0.957125  0.125377  1.0
  Pd  Pd1000  1  0.707125  0.532582  0.875377  1.0
  C  C1001  1  0.532900  0.823900  0.354320  1.0
  C  C1002  1  0.926100  0.782900  0.604320  1.0
  C  C1003  1  0.032900  0.323900  0.854320  1.0
  C  C1004  1  0.426100  0.282900  0.104320  1.0
  C  C1005  1  0.073900  0.717100  0.604320  1.0
  C  C1006  1  0.967100  0.176100  0.854320  1.0
  C  C1007  1  0.573900  0.217100  0.104320  1.0
  C  C1008  1  0.467100  0.676100  0.354320  1.0
  C  C1009  1  0.467100  0.176100  0.645680  1.0
  C  C1010  1  0.073900  0.217100  0.395680  1.0
  C  C1011  1  0.967100  0.676100  0.145680  1.0
  C  C1012  1  0.573900  0.717100  0.895680  1.0
  C  C1013  1  0.926100  0.282900  0.395680  1.0
  C  C1014  1  0.032900  0.823900  0.145680  1.0
  C  C1015  1  0.426100  0.782900  0.895680  1.0
  C  C1016  1  0.532900  0.323900  0.645680  1.0
  C  C1017  1  0.529200  0.855100  0.320180  1.0
  C  C1018  1  0.894900  0.779200  0.570180  1.0
  C  C1019  1  0.029200  0.355100  0.820180  1.0
  C  C1020  1  0.394900  0.279200  0.070180  1.0
  C  C1021  1  0.105100  0.720800  0.570180  1.0
  C  C1022  1  0.970800  0.144900  0.820180  1.0
  C  C1023  1  0.605100  0.220800  0.070180  1.0
  C  C1024  1  0.470800  0.644900  0.320180  1.0
  C  C1025  1  0.470800  0.144900  0.679820  1.0
  C  C1026  1  0.105100  0.220800  0.429820  1.0
  C  C1027  1  0.970800  0.644900  0.179820  1.0
  C  C1028  1  0.605100  0.720800  0.929820  1.0
  C  C1029  1  0.894900  0.279200  0.429820  1.0
  C  C1030  1  0.029200  0.855100  0.179820  1.0
  C  C1031  1  0.394900  0.779200  0.929820  1.0
  C  C1032  1  0.529200  0.355100  0.679820  1.0
  C  C1033  1  0.482000  0.864900  0.302710  1.0
  C  C1034  1  0.885100  0.732000  0.552710  1.0
  C  C1035  1  0.982000  0.364900  0.802710  1.0
  C  C1036  1  0.385100  0.232000  0.052710  1.0
  C  C1037  1  0.114900  0.768000  0.552710  1.0
  C  C1038  1  0.018000  0.135100  0.802710  1.0
  C  C1039  1  0.614900  0.268000  0.052710  1.0
  C  C1040  1  0.518000  0.635100  0.302710  1.0
  C  C1041  1  0.518000  0.135100  0.697290  1.0
  C  C1042  1  0.114900  0.268000  0.447290  1.0
  C  C1043  1  0.018000  0.635100  0.197290  1.0
  C  C1044  1  0.614900  0.768000  0.947290  1.0
  C  C1045  1  0.885100  0.232000  0.447290  1.0
  C  C1046  1  0.982000  0.864900  0.197290  1.0
  C  C1047  1  0.385100  0.732000  0.947290  1.0
  C  C1048  1  0.482000  0.364900  0.697290  1.0
  C  C1049  1  0.439800  0.842300  0.320400  1.0
  C  C1050  1  0.907700  0.689800  0.570400  1.0
  C  C1051  1  0.939800  0.342300  0.820400  1.0
  C  C1052  1  0.407700  0.189800  0.070400  1.0
  C  C1053  1  0.092300  0.810200  0.570400  1.0
  C  C1054  1  0.060200  0.157700  0.820400  1.0
  C  C1055  1  0.592300  0.310200  0.070400  1.0
  C  C1056  1  0.560200  0.657700  0.320400  1.0
  C  C1057  1  0.560200  0.157700  0.679600  1.0
  C  C1058  1  0.092300  0.310200  0.429600  1.0
  C  C1059  1  0.060200  0.657700  0.179600  1.0
  C  C1060  1  0.592300  0.810200  0.929600  1.0
  C  C1061  1  0.907700  0.189800  0.429600  1.0
  C  C1062  1  0.939800  0.842300  0.179600  1.0
  C  C1063  1  0.407700  0.689800  0.929600  1.0
  C  C1064  1  0.439800  0.342300  0.679600  1.0
  C  C1065  1  0.446200  0.810700  0.354900  1.0
  C  C1066  1  0.939300  0.696200  0.604900  1.0
  C  C1067  1  0.946200  0.310700  0.854900  1.0
  C  C1068  1  0.439300  0.196200  0.104900  1.0
  C  C1069  1  0.060700  0.803800  0.604900  1.0
  C  C1070  1  0.053800  0.189300  0.854900  1.0
  C  C1071  1  0.560700  0.303800  0.104900  1.0
  C  C1072  1  0.553800  0.689300  0.354900  1.0
  C  C1073  1  0.553800  0.189300  0.645100  1.0
  C  C1074  1  0.060700  0.303800  0.395100  1.0
  C  C1075  1  0.053800  0.689300  0.145100  1.0
  C  C1076  1  0.560700  0.803800  0.895100  1.0
  C  C1077  1  0.939300  0.196200  0.395100  1.0
  C  C1078  1  0.946200  0.810700  0.145100  1.0
  C  C1079  1  0.439300  0.696200  0.895100  1.0
  C  C1080  1  0.446200  0.310700  0.645100  1.0
  C  C1081  1  0.598100  0.016800  0.140900  1.0
  C  C1082  1  0.733200  0.848100  0.390900  1.0
  C  C1083  1  0.098100  0.516800  0.640900  1.0
  C  C1084  1  0.233200  0.348100  0.890900  1.0
  C  C1085  1  0.266800  0.651900  0.390900  1.0
  C  C1086  1  0.901900  0.983200  0.640900  1.0
  C  C1087  1  0.766800  0.151900  0.890900  1.0
  C  C1088  1  0.401900  0.483200  0.140900  1.0
  C  C1089  1  0.401900  0.983200  0.859100  1.0
  C  C1090  1  0.266800  0.151900  0.609100  1.0
  C  C1091  1  0.901900  0.483200  0.359100  1.0
  C  C1092  1  0.766800  0.651900  0.109100  1.0
  C  C1093  1  0.733200  0.348100  0.609100  1.0
  C  C1094  1  0.098100  0.016800  0.359100  1.0
  C  C1095  1  0.233200  0.848100  0.109100  1.0
  C  C1096  1  0.598100  0.516800  0.859100  1.0
  C  C1097  1  0.555000  0.996800  0.159000  1.0
  C  C1098  1  0.753200  0.805000  0.409000  1.0
  C  C1099  1  0.055000  0.496800  0.659000  1.0
  C  C1100  1  0.253200  0.305000  0.909000  1.0
  C  C1101  1  0.246800  0.695000  0.409000  1.0
  C  C1102  1  0.945000  0.003200  0.659000  1.0
  C  C1103  1  0.746800  0.195000  0.909000  1.0
  C  C1104  1  0.445000  0.503200  0.159000  1.0
  C  C1105  1  0.445000  0.003200  0.841000  1.0
  C  C1106  1  0.246800  0.195000  0.591000  1.0
  C  C1107  1  0.945000  0.503200  0.341000  1.0
  C  C1108  1  0.746800  0.695000  0.091000  1.0
  C  C1109  1  0.753200  0.305000  0.591000  1.0
  C  C1110  1  0.055000  0.996800  0.341000  1.0
  C  C1111  1  0.253200  0.805000  0.091000  1.0
  C  C1112  1  0.555000  0.496800  0.841000  1.0
  C  C1113  1  0.559300  0.967000  0.194540  1.0
  C  C1114  1  0.783000  0.809300  0.444540  1.0
  C  C1115  1  0.059300  0.467000  0.694540  1.0
  C  C1116  1  0.283000  0.309300  0.944540  1.0
  C  C1117  1  0.217000  0.690700  0.444540  1.0
  C  C1118  1  0.940700  0.033000  0.694540  1.0
  C  C1119  1  0.717000  0.190700  0.944540  1.0
  C  C1120  1  0.440700  0.533000  0.194540  1.0
  C  C1121  1  0.440700  0.033000  0.805460  1.0
  C  C1122  1  0.217000  0.190700  0.555460  1.0
  C  C1123  1  0.940700  0.533000  0.305460  1.0
  C  C1124  1  0.717000  0.690700  0.055460  1.0
  C  C1125  1  0.783000  0.309300  0.555460  1.0
  C  C1126  1  0.059300  0.967000  0.305460  1.0
  C  C1127  1  0.283000  0.809300  0.055460  1.0
  C  C1128  1  0.559300  0.467000  0.805460  1.0
  C  C1129  1  0.607800  0.957600  0.210500  1.0
  C  C1130  1  0.792400  0.857800  0.460500  1.0
  C  C1131  1  0.107800  0.457600  0.710500  1.0
  C  C1132  1  0.292400  0.357800  0.960500  1.0
  C  C1133  1  0.207600  0.642200  0.460500  1.0
  C  C1134  1  0.892200  0.042400  0.710500  1.0
  C  C1135  1  0.707600  0.142200  0.960500  1.0
  C  C1136  1  0.392200  0.542400  0.210500  1.0
  C  C1137  1  0.392200  0.042400  0.789500  1.0
  C  C1138  1  0.207600  0.142200  0.539500  1.0
  C  C1139  1  0.892200  0.542400  0.289500  1.0
  C  C1140  1  0.707600  0.642200  0.039500  1.0
  C  C1141  1  0.792400  0.357800  0.539500  1.0
  C  C1142  1  0.107800  0.957600  0.289500  1.0
  C  C1143  1  0.292400  0.857800  0.039500  1.0
  C  C1144  1  0.607800  0.457600  0.789500  1.0
  C  C1145  1  0.649000  0.978700  0.190500  1.0
  C  C1146  1  0.771300  0.899000  0.440500  1.0
  C  C1147  1  0.149000  0.478700  0.690500  1.0
  C  C1148  1  0.271300  0.399000  0.940500  1.0
  C  C1149  1  0.228700  0.601000  0.440500  1.0
  C  C1150  1  0.851000  0.021300  0.690500  1.0
  C  C1151  1  0.728700  0.101000  0.940500  1.0
  C  C1152  1  0.351000  0.521300  0.190500  1.0
  C  C1153  1  0.351000  0.021300  0.809500  1.0
  C  C1154  1  0.228700  0.101000  0.559500  1.0
  C  C1155  1  0.851000  0.521300  0.309500  1.0
  C  C1156  1  0.728700  0.601000  0.059500  1.0
  C  C1157  1  0.771300  0.399000  0.559500  1.0
  C  C1158  1  0.149000  0.978700  0.309500  1.0
  C  C1159  1  0.271300  0.899000  0.059500  1.0
  C  C1160  1  0.649000  0.478700  0.809500  1.0
  C  C1161  1  0.725200  0.924100  0.109300  1.0
  C  C1162  1  0.825900  0.975200  0.359300  1.0
  C  C1163  1  0.225200  0.424100  0.609300  1.0
  C  C1164  1  0.325900  0.475200  0.859300  1.0
  C  C1165  1  0.174100  0.524800  0.359300  1.0
  C  C1166  1  0.774800  0.075900  0.609300  1.0
  C  C1167  1  0.674100  0.024800  0.859300  1.0
  C  C1168  1  0.274800  0.575900  0.109300  1.0
  C  C1169  1  0.274800  0.075900  0.890700  1.0
  C  C1170  1  0.174100  0.024800  0.640700  1.0
  C  C1171  1  0.774800  0.575900  0.390700  1.0
  C  C1172  1  0.674100  0.524800  0.140700  1.0
  C  C1173  1  0.825900  0.475200  0.640700  1.0
  C  C1174  1  0.225200  0.924100  0.390700  1.0
  C  C1175  1  0.325900  0.975200  0.140700  1.0
  C  C1176  1  0.725200  0.424100  0.890700  1.0
  C  C1177  1  0.719100  0.876400  0.091000  1.0
  C  C1178  1  0.873600  0.969100  0.341000  1.0
  C  C1179  1  0.219100  0.376400  0.591000  1.0
  C  C1180  1  0.373600  0.469100  0.841000  1.0
  C  C1181  1  0.126400  0.530900  0.341000  1.0
  C  C1182  1  0.780900  0.123600  0.591000  1.0
  C  C1183  1  0.626400  0.030900  0.841000  1.0
  C  C1184  1  0.280900  0.623600  0.091000  1.0
  C  C1185  1  0.280900  0.123600  0.909000  1.0
  C  C1186  1  0.126400  0.030900  0.659000  1.0
  C  C1187  1  0.780900  0.623600  0.409000  1.0
  C  C1188  1  0.626400  0.530900  0.159000  1.0
  C  C1189  1  0.873600  0.469100  0.659000  1.0
  C  C1190  1  0.219100  0.876400  0.409000  1.0
  C  C1191  1  0.373600  0.969100  0.159000  1.0
  C  C1192  1  0.719100  0.376400  0.909000  1.0
  C  C1193  1  0.690300  0.871700  0.055300  1.0
  C  C1194  1  0.878300  0.940300  0.305300  1.0
  C  C1195  1  0.190300  0.371700  0.555300  1.0
  C  C1196  1  0.378300  0.440300  0.805300  1.0
  C  C1197  1  0.121700  0.559700  0.305300  1.0
  C  C1198  1  0.809700  0.128300  0.555300  1.0
  C  C1199  1  0.621700  0.059700  0.805300  1.0
  C  C1200  1  0.309700  0.628300  0.055300  1.0
  C  C1201  1  0.309700  0.128300  0.944700  1.0
  C  C1202  1  0.121700  0.059700  0.694700  1.0
  C  C1203  1  0.809700  0.628300  0.444700  1.0
  C  C1204  1  0.621700  0.559700  0.194700  1.0
  C  C1205  1  0.878300  0.440300  0.694700  1.0
  C  C1206  1  0.190300  0.871700  0.444700  1.0
  C  C1207  1  0.378300  0.940300  0.194700  1.0
  C  C1208  1  0.690300  0.371700  0.944700  1.0
  C  C1209  1  0.668000  0.915200  0.038600  1.0
  C  C1210  1  0.834800  0.918000  0.288600  1.0
  C  C1211  1  0.168000  0.415200  0.538600  1.0
  C  C1212  1  0.334800  0.418000  0.788600  1.0
  C  C1213  1  0.165200  0.582000  0.288600  1.0
  C  C1214  1  0.832000  0.084800  0.538600  1.0
  C  C1215  1  0.665200  0.082000  0.788600  1.0
  C  C1216  1  0.332000  0.584800  0.038600  1.0
  C  C1217  1  0.332000  0.084800  0.961400  1.0
  C  C1218  1  0.165200  0.082000  0.711400  1.0
  C  C1219  1  0.832000  0.584800  0.461400  1.0
  C  C1220  1  0.665200  0.582000  0.211400  1.0
  C  C1221  1  0.834800  0.418000  0.711400  1.0
  C  C1222  1  0.168000  0.915200  0.461400  1.0
  C  C1223  1  0.334800  0.918000  0.211400  1.0
  C  C1224  1  0.668000  0.415200  0.961400  1.0
  C  C1225  1  0.675400  0.960700  0.058400  1.0
  C  C1226  1  0.789300  0.925400  0.308400  1.0
  C  C1227  1  0.175400  0.460700  0.558400  1.0
  C  C1228  1  0.289300  0.425400  0.808400  1.0
  C  C1229  1  0.210700  0.574600  0.308400  1.0
  C  C1230  1  0.824600  0.039300  0.558400  1.0
  C  C1231  1  0.710700  0.074600  0.808400  1.0
  C  C1232  1  0.324600  0.539300  0.058400  1.0
  C  C1233  1  0.324600  0.039300  0.941600  1.0
  C  C1234  1  0.210700  0.074600  0.691600  1.0
  C  C1235  1  0.824600  0.539300  0.441600  1.0
  C  C1236  1  0.710700  0.574600  0.191600  1.0
  C  C1237  1  0.789300  0.425400  0.691600  1.0
  C  C1238  1  0.175400  0.960700  0.441600  1.0
  C  C1239  1  0.289300  0.925400  0.191600  1.0
  C  C1240  1  0.675400  0.460700  0.941600  1.0
  C  C1241  1  0.477300  0.897900  0.265080  1.0
  C  C1242  1  0.852100  0.727300  0.515080  1.0
  C  C1243  1  0.977300  0.397900  0.765080  1.0
  C  C1244  1  0.352100  0.227300  0.015080  1.0
  C  C1245  1  0.147900  0.772700  0.515080  1.0
  C  C1246  1  0.022700  0.102100  0.765080  1.0
  C  C1247  1  0.647900  0.272700  0.015080  1.0
  C  C1248  1  0.522700  0.602100  0.265080  1.0
  C  C1249  1  0.522700  0.102100  0.734920  1.0
  C  C1250  1  0.147900  0.272700  0.484920  1.0
  C  C1251  1  0.022700  0.602100  0.234920  1.0
  C  C1252  1  0.647900  0.772700  0.984920  1.0
  C  C1253  1  0.852100  0.227300  0.484920  1.0
  C  C1254  1  0.977300  0.897900  0.234920  1.0
  C  C1255  1  0.352100  0.727300  0.984920  1.0
  C  C1256  1  0.477300  0.397900  0.734920  1.0
  C  C1257  1  0.513100  0.945000  0.214500  1.0
  C  C1258  1  0.805000  0.763100  0.464500  1.0
  C  C1259  1  0.013100  0.445000  0.714500  1.0
  C  C1260  1  0.305000  0.263100  0.964500  1.0
  C  C1261  1  0.195000  0.736900  0.464500  1.0
  C  C1262  1  0.986900  0.055000  0.714500  1.0
  C  C1263  1  0.695000  0.236900  0.964500  1.0
  C  C1264  1  0.486900  0.555000  0.214500  1.0
  C  C1265  1  0.486900  0.055000  0.785500  1.0
  C  C1266  1  0.195000  0.236900  0.535500  1.0
  C  C1267  1  0.986900  0.555000  0.285500  1.0
  C  C1268  1  0.695000  0.736900  0.035500  1.0
  C  C1269  1  0.805000  0.263100  0.535500  1.0
  C  C1270  1  0.013100  0.945000  0.285500  1.0
  C  C1271  1  0.305000  0.763100  0.035500  1.0
  C  C1272  1  0.513100  0.445000  0.785500  1.0
  C  C1273  1  0.428900  0.932400  0.214800  1.0
  C  C1274  1  0.817600  0.678900  0.464800  1.0
  C  C1275  1  0.928900  0.432400  0.714800  1.0
  C  C1276  1  0.317600  0.178900  0.964800  1.0
  C  C1277  1  0.182400  0.821100  0.464800  1.0
  C  C1278  1  0.071100  0.067600  0.714800  1.0
  C  C1279  1  0.682400  0.321100  0.964800  1.0
  C  C1280  1  0.571100  0.567600  0.214800  1.0
  C  C1281  1  0.571100  0.067600  0.785200  1.0
  C  C1282  1  0.182400  0.321100  0.535200  1.0
  C  C1283  1  0.071100  0.567600  0.285200  1.0
  C  C1284  1  0.682400  0.821100  0.035200  1.0
  C  C1285  1  0.817600  0.178900  0.535200  1.0
  C  C1286  1  0.928900  0.932400  0.285200  1.0
  C  C1287  1  0.317600  0.678900  0.035200  1.0
  C  C1288  1  0.428900  0.432400  0.785200  1.0
  C  C1289  1  0.563500  0.682100  0.468800  1.0
  C  C1290  1  0.067900  0.813500  0.718800  1.0
  C  C1291  1  0.063500  0.182100  0.968800  1.0
  C  C1292  1  0.567900  0.313500  0.218800  1.0
  C  C1293  1  0.932100  0.686500  0.718800  1.0
  C  C1294  1  0.936500  0.317900  0.968800  1.0
  C  C1295  1  0.432100  0.186500  0.218800  1.0
  C  C1296  1  0.436500  0.817900  0.468800  1.0
  C  C1297  1  0.436500  0.317900  0.531200  1.0
  C  C1298  1  0.932100  0.186500  0.281200  1.0
  C  C1299  1  0.936500  0.817900  0.031200  1.0
  C  C1300  1  0.432100  0.686500  0.781200  1.0
  C  C1301  1  0.067900  0.313500  0.281200  1.0
  C  C1302  1  0.063500  0.682100  0.031200  1.0
  C  C1303  1  0.567900  0.813500  0.781200  1.0
  C  C1304  1  0.563500  0.182100  0.531200  1.0
  C  C1305  1  0.490900  0.722700  0.505200  1.0
  C  C1306  1  0.027300  0.740900  0.755200  1.0
  C  C1307  1  0.990900  0.222700  0.005200  1.0
  C  C1308  1  0.527300  0.240900  0.255200  1.0
  C  C1309  1  0.972700  0.759100  0.755200  1.0
  C  C1310  1  0.009100  0.277300  0.005200  1.0
  C  C1311  1  0.472700  0.259100  0.255200  1.0
  C  C1312  1  0.509100  0.777300  0.505200  1.0
  C  C1313  1  0.509100  0.277300  0.494800  1.0
  C  C1314  1  0.972700  0.259100  0.244800  1.0
  C  C1315  1  0.009100  0.777300  0.994800  1.0
  C  C1316  1  0.472700  0.759100  0.744800  1.0
  C  C1317  1  0.027300  0.240900  0.244800  1.0
  C  C1318  1  0.990900  0.722700  0.994800  1.0
  C  C1319  1  0.527300  0.740900  0.744800  1.0
  C  C1320  1  0.490900  0.222700  0.494800  1.0
  C  C1321  1  0.478200  0.650400  0.459600  1.0
  C  C1322  1  0.099600  0.728200  0.709600  1.0
  C  C1323  1  0.978200  0.150400  0.959600  1.0
  C  C1324  1  0.599600  0.228200  0.209600  1.0
  C  C1325  1  0.900400  0.771800  0.709600  1.0
  C  C1326  1  0.021800  0.349600  0.959600  1.0
  C  C1327  1  0.400400  0.271800  0.209600  1.0
  C  C1328  1  0.521800  0.849600  0.459600  1.0
  C  C1329  1  0.521800  0.349600  0.540400  1.0
  C  C1330  1  0.900400  0.271800  0.290400  1.0
  C  C1331  1  0.021800  0.849600  0.040400  1.0
  C  C1332  1  0.400400  0.771800  0.790400  1.0
  C  C1333  1  0.099600  0.228200  0.290400  1.0
  C  C1334  1  0.978200  0.650400  0.040400  1.0
  C  C1335  1  0.599600  0.728200  0.790400  1.0
  C  C1336  1  0.478200  0.150400  0.540400  1.0
  C  C1337  1  0.764800  0.056200  0.047600  1.0
  C  C1338  1  0.693800  0.014800  0.297600  1.0
  C  C1339  1  0.264800  0.556200  0.547600  1.0
  C  C1340  1  0.193800  0.514800  0.797600  1.0
  C  C1341  1  0.306200  0.485200  0.297600  1.0
  C  C1342  1  0.735200  0.943800  0.547600  1.0
  C  C1343  1  0.806200  0.985200  0.797600  1.0
  C  C1344  1  0.235200  0.443800  0.047600  1.0
  C  C1345  1  0.235200  0.943800  0.952400  1.0
  C  C1346  1  0.306200  0.985200  0.702400  1.0
  C  C1347  1  0.735200  0.443800  0.452400  1.0
  C  C1348  1  0.806200  0.485200  0.202400  1.0
  C  C1349  1  0.693800  0.514800  0.702400  1.0
  C  C1350  1  0.264800  0.056200  0.452400  1.0
  C  C1351  1  0.193800  0.014800  0.202400  1.0
  C  C1352  1  0.764800  0.556200  0.952400  1.0
  C  C1353  1  0.815500  0.030300  0.106600  1.0
  C  C1354  1  0.719700  0.065500  0.356600  1.0
  C  C1355  1  0.315500  0.530300  0.606600  1.0
  C  C1356  1  0.219700  0.565500  0.856600  1.0
  C  C1357  1  0.280300  0.434500  0.356600  1.0
  C  C1358  1  0.684500  0.969700  0.606600  1.0
  C  C1359  1  0.780300  0.934500  0.856600  1.0
  C  C1360  1  0.184500  0.469700  0.106600  1.0
  C  C1361  1  0.184500  0.969700  0.893400  1.0
  C  C1362  1  0.280300  0.934500  0.643400  1.0
  C  C1363  1  0.684500  0.469700  0.393400  1.0
  C  C1364  1  0.780300  0.434500  0.143400  1.0
  C  C1365  1  0.719700  0.565500  0.643400  1.0
  C  C1366  1  0.315500  0.030300  0.393400  1.0
  C  C1367  1  0.219700  0.065500  0.143400  1.0
  C  C1368  1  0.815500  0.530300  0.893400  1.0
  C  C1369  1  0.706000  0.094600  0.202700  1.0
  C  C1370  1  0.655400  0.956000  0.452700  1.0
  C  C1371  1  0.206000  0.594600  0.702700  1.0
  C  C1372  1  0.155400  0.456000  0.952700  1.0
  C  C1373  1  0.344600  0.544000  0.452700  1.0
  C  C1374  1  0.794000  0.905400  0.702700  1.0
  C  C1375  1  0.844600  0.044000  0.952700  1.0
  C  C1376  1  0.294000  0.405400  0.202700  1.0
  C  C1377  1  0.294000  0.905400  0.797300  1.0
  C  C1378  1  0.344600  0.044000  0.547300  1.0
  C  C1379  1  0.794000  0.405400  0.297300  1.0
  C  C1380  1  0.844600  0.544000  0.047300  1.0
  C  C1381  1  0.655400  0.456000  0.547300  1.0
  C  C1382  1  0.206000  0.094600  0.297300  1.0
  C  C1383  1  0.155400  0.956000  0.047300  1.0
  C  C1384  1  0.706000  0.594600  0.797300  1.0
  C  C1385  1  0.668000  0.133700  0.143300  1.0
  C  C1386  1  0.616300  0.918000  0.393300  1.0
  C  C1387  1  0.168000  0.633700  0.643300  1.0
  C  C1388  1  0.116300  0.418000  0.893300  1.0
  C  C1389  1  0.383700  0.582000  0.393300  1.0
  C  C1390  1  0.832000  0.866300  0.643300  1.0
  C  C1391  1  0.883700  0.082000  0.893300  1.0
  C  C1392  1  0.332000  0.366300  0.143300  1.0
  C  C1393  1  0.332000  0.866300  0.856700  1.0
  C  C1394  1  0.383700  0.082000  0.606700  1.0
  C  C1395  1  0.832000  0.366300  0.356700  1.0
  C  C1396  1  0.883700  0.582000  0.106700  1.0
  C  C1397  1  0.616300  0.418000  0.606700  1.0
  C  C1398  1  0.168000  0.133700  0.356700  1.0
  C  C1399  1  0.116300  0.918000  0.106700  1.0
  C  C1400  1  0.668000  0.633700  0.856700  1.0
  C  C1401  1  0.775200  0.112800  0.105700  1.0
  C  C1402  1  0.637200  0.025200  0.355700  1.0
  C  C1403  1  0.275200  0.612800  0.605700  1.0
  C  C1404  1  0.137200  0.525200  0.855700  1.0
  C  C1405  1  0.362800  0.474800  0.355700  1.0
  C  C1406  1  0.724800  0.887200  0.605700  1.0
  C  C1407  1  0.862800  0.974800  0.855700  1.0
  C  C1408  1  0.224800  0.387200  0.105700  1.0
  C  C1409  1  0.224800  0.887200  0.894300  1.0
  C  C1410  1  0.362800  0.974800  0.644300  1.0
  C  C1411  1  0.724800  0.387200  0.394300  1.0
  C  C1412  1  0.862800  0.474800  0.144300  1.0
  C  C1413  1  0.637200  0.525200  0.644300  1.0
  C  C1414  1  0.275200  0.112800  0.394300  1.0
  C  C1415  1  0.137200  0.025200  0.144300  1.0
  C  C1416  1  0.775200  0.612800  0.894300  1.0
  C  C1417  1  0.759400  0.123600  0.145200  1.0
  C  C1418  1  0.626400  0.009400  0.395200  1.0
  C  C1419  1  0.259400  0.623600  0.645200  1.0
  C  C1420  1  0.126400  0.509400  0.895200  1.0
  C  C1421  1  0.373600  0.490600  0.395200  1.0
  C  C1422  1  0.740600  0.876400  0.645200  1.0
  C  C1423  1  0.873600  0.990600  0.895200  1.0
  C  C1424  1  0.240600  0.376400  0.145200  1.0
  C  C1425  1  0.240600  0.876400  0.854800  1.0
  C  C1426  1  0.373600  0.990600  0.604800  1.0
  C  C1427  1  0.740600  0.376400  0.354800  1.0
  C  C1428  1  0.873600  0.490600  0.104800  1.0
  C  C1429  1  0.626400  0.509400  0.604800  1.0
  C  C1430  1  0.259400  0.123600  0.354800  1.0
  C  C1431  1  0.126400  0.009400  0.104800  1.0
  C  C1432  1  0.759400  0.623600  0.854800  1.0
  C  C1433  1  0.402600  0.708700  0.133000  1.0
  C  C1434  1  0.041300  0.652600  0.383000  1.0
  C  C1435  1  0.902600  0.208700  0.633000  1.0
  C  C1436  1  0.541300  0.152600  0.883000  1.0
  C  C1437  1  0.958700  0.847400  0.383000  1.0
  C  C1438  1  0.097400  0.291300  0.633000  1.0
  C  C1439  1  0.458700  0.347400  0.883000  1.0
  C  C1440  1  0.597400  0.791300  0.133000  1.0
  C  C1441  1  0.597400  0.291300  0.867000  1.0
  C  C1442  1  0.958700  0.347400  0.617000  1.0
  C  C1443  1  0.097400  0.791300  0.367000  1.0
  C  C1444  1  0.458700  0.847400  0.117000  1.0
  C  C1445  1  0.041300  0.152600  0.617000  1.0
  C  C1446  1  0.902600  0.708700  0.367000  1.0
  C  C1447  1  0.541300  0.652600  0.117000  1.0
  C  C1448  1  0.402600  0.208700  0.867000  1.0
  C  C1449  1  0.429100  0.683200  0.101400  1.0
  C  C1450  1  0.066800  0.679100  0.351400  1.0
  C  C1451  1  0.929100  0.183200  0.601400  1.0
  C  C1452  1  0.566800  0.179100  0.851400  1.0
  C  C1453  1  0.933200  0.820900  0.351400  1.0
  C  C1454  1  0.070900  0.316800  0.601400  1.0
  C  C1455  1  0.433200  0.320900  0.851400  1.0
  C  C1456  1  0.570900  0.816800  0.101400  1.0
  C  C1457  1  0.570900  0.316800  0.898600  1.0
  C  C1458  1  0.933200  0.320900  0.648600  1.0
  C  C1459  1  0.070900  0.816800  0.398600  1.0
  C  C1460  1  0.433200  0.820900  0.148600  1.0
  C  C1461  1  0.066800  0.179100  0.648600  1.0
  C  C1462  1  0.929100  0.683200  0.398600  1.0
  C  C1463  1  0.566800  0.679100  0.148600  1.0
  C  C1464  1  0.429100  0.183200  0.898600  1.0
  C  C1465  1  0.448000  0.711700  0.067900  1.0
  C  C1466  1  0.038300  0.698000  0.317900  1.0
  C  C1467  1  0.948000  0.211700  0.567900  1.0
  C  C1468  1  0.538300  0.198000  0.817900  1.0
  C  C1469  1  0.961700  0.802000  0.317900  1.0
  C  C1470  1  0.052000  0.288300  0.567900  1.0
  C  C1471  1  0.461700  0.302000  0.817900  1.0
  C  C1472  1  0.552000  0.788300  0.067900  1.0
  C  C1473  1  0.552000  0.288300  0.932100  1.0
  C  C1474  1  0.961700  0.302000  0.682100  1.0
  C  C1475  1  0.052000  0.788300  0.432100  1.0
  C  C1476  1  0.461700  0.802000  0.182100  1.0
  C  C1477  1  0.038300  0.198000  0.682100  1.0
  C  C1478  1  0.948000  0.711700  0.432100  1.0
  C  C1479  1  0.538300  0.698000  0.182100  1.0
  C  C1480  1  0.448000  0.211700  0.932100  1.0
  C  C1481  1  0.437400  0.764000  0.067300  1.0
  C  C1482  1  0.986000  0.687400  0.317300  1.0
  C  C1483  1  0.937400  0.264000  0.567300  1.0
  C  C1484  1  0.486000  0.187400  0.817300  1.0
  C  C1485  1  0.014000  0.812600  0.317300  1.0
  C  C1486  1  0.062600  0.236000  0.567300  1.0
  C  C1487  1  0.514000  0.312600  0.817300  1.0
  C  C1488  1  0.562600  0.736000  0.067300  1.0
  C  C1489  1  0.562600  0.236000  0.932700  1.0
  C  C1490  1  0.014000  0.312600  0.682700  1.0
  C  C1491  1  0.062600  0.736000  0.432700  1.0
  C  C1492  1  0.514000  0.812600  0.182700  1.0
  C  C1493  1  0.986000  0.187400  0.682700  1.0
  C  C1494  1  0.937400  0.764000  0.432700  1.0
  C  C1495  1  0.486000  0.687400  0.182700  1.0
  C  C1496  1  0.437400  0.264000  0.932700  1.0
  C  C1497  1  0.412000  0.790400  0.099200  1.0
  C  C1498  1  0.959600  0.662000  0.349200  1.0
  C  C1499  1  0.912000  0.290400  0.599200  1.0
  C  C1500  1  0.459600  0.162000  0.849200  1.0
  C  C1501  1  0.040400  0.838000  0.349200  1.0
  C  C1502  1  0.088000  0.209600  0.599200  1.0
  C  C1503  1  0.540400  0.338000  0.849200  1.0
  C  C1504  1  0.588000  0.709600  0.099200  1.0
  C  C1505  1  0.588000  0.209600  0.900800  1.0
  C  C1506  1  0.040400  0.338000  0.650800  1.0
  C  C1507  1  0.088000  0.709600  0.400800  1.0
  C  C1508  1  0.540400  0.838000  0.150800  1.0
  C  C1509  1  0.959600  0.162000  0.650800  1.0
  C  C1510  1  0.912000  0.790400  0.400800  1.0
  C  C1511  1  0.459600  0.662000  0.150800  1.0
  C  C1512  1  0.412000  0.290400  0.900800  1.0
  C  C1513  1  0.393600  0.761300  0.132600  1.0
  C  C1514  1  0.988700  0.643600  0.382600  1.0
  C  C1515  1  0.893600  0.261300  0.632600  1.0
  C  C1516  1  0.488700  0.143600  0.882600  1.0
  C  C1517  1  0.011300  0.856400  0.382600  1.0
  C  C1518  1  0.106400  0.238700  0.632600  1.0
  C  C1519  1  0.511300  0.356400  0.882600  1.0
  C  C1520  1  0.606400  0.738700  0.132600  1.0
  C  C1521  1  0.606400  0.238700  0.867400  1.0
  C  C1522  1  0.011300  0.356400  0.617400  1.0
  C  C1523  1  0.106400  0.738700  0.367400  1.0
  C  C1524  1  0.511300  0.856400  0.117400  1.0
  C  C1525  1  0.988700  0.143600  0.617400  1.0
  C  C1526  1  0.893600  0.761300  0.367400  1.0
  C  C1527  1  0.488700  0.643600  0.117400  1.0
  C  C1528  1  0.393600  0.261300  0.867400  1.0
  C  C1529  1  0.366500  0.778000  0.172700  1.0
  C  C1530  1  0.972000  0.616500  0.422700  1.0
  C  C1531  1  0.866500  0.278000  0.672700  1.0
  C  C1532  1  0.472000  0.116500  0.922700  1.0
  C  C1533  1  0.028000  0.883500  0.422700  1.0
  C  C1534  1  0.133500  0.222000  0.672700  1.0
  C  C1535  1  0.528000  0.383500  0.922700  1.0
  C  C1536  1  0.633500  0.722000  0.172700  1.0
  C  C1537  1  0.633500  0.222000  0.827300  1.0
  C  C1538  1  0.028000  0.383500  0.577300  1.0
  C  C1539  1  0.133500  0.722000  0.327300  1.0
  C  C1540  1  0.528000  0.883500  0.077300  1.0
  C  C1541  1  0.972000  0.116500  0.577300  1.0
  C  C1542  1  0.866500  0.778000  0.327300  1.0
  C  C1543  1  0.472000  0.616500  0.077300  1.0
  C  C1544  1  0.366500  0.278000  0.827300  1.0
  C  C1545  1  0.317300  0.749400  0.182500  1.0
  C  C1546  1  0.000600  0.567300  0.432500  1.0
  C  C1547  1  0.817300  0.249400  0.682500  1.0
  C  C1548  1  0.500600  0.067300  0.932500  1.0
  C  C1549  1  0.999400  0.932700  0.432500  1.0
  C  C1550  1  0.182700  0.250600  0.682500  1.0
  C  C1551  1  0.499400  0.432700  0.932500  1.0
  C  C1552  1  0.682700  0.750600  0.182500  1.0
  C  C1553  1  0.682700  0.250600  0.817500  1.0
  C  C1554  1  0.999400  0.432700  0.567500  1.0
  C  C1555  1  0.182700  0.750600  0.317500  1.0
  C  C1556  1  0.499400  0.932700  0.067500  1.0
  C  C1557  1  0.000600  0.067300  0.567500  1.0
  C  C1558  1  0.817300  0.749400  0.317500  1.0
  C  C1559  1  0.500600  0.567300  0.067500  1.0
  C  C1560  1  0.317300  0.249400  0.817500  1.0
  C  C1561  1  0.327700  0.699000  0.181800  1.0
  C  C1562  1  0.051000  0.577700  0.431800  1.0
  C  C1563  1  0.827700  0.199000  0.681800  1.0
  C  C1564  1  0.551000  0.077700  0.931800  1.0
  C  C1565  1  0.949000  0.922300  0.431800  1.0
  C  C1566  1  0.172300  0.301000  0.681800  1.0
  C  C1567  1  0.449000  0.422300  0.931800  1.0
  C  C1568  1  0.672300  0.801000  0.181800  1.0
  C  C1569  1  0.672300  0.301000  0.818200  1.0
  C  C1570  1  0.949000  0.422300  0.568200  1.0
  C  C1571  1  0.172300  0.801000  0.318200  1.0
  C  C1572  1  0.449000  0.922300  0.068200  1.0
  C  C1573  1  0.051000  0.077700  0.568200  1.0
  C  C1574  1  0.827700  0.699000  0.318200  1.0
  C  C1575  1  0.551000  0.577700  0.068200  1.0
  C  C1576  1  0.327700  0.199000  0.818200  1.0
  C  C1577  1  0.382600  0.683600  0.172900  1.0
  C  C1578  1  0.066400  0.632600  0.422900  1.0
  C  C1579  1  0.882600  0.183600  0.672900  1.0
  C  C1580  1  0.566400  0.132600  0.922900  1.0
  C  C1581  1  0.933600  0.867400  0.422900  1.0
  C  C1582  1  0.117400  0.316400  0.672900  1.0
  C  C1583  1  0.433600  0.367400  0.922900  1.0
  C  C1584  1  0.617400  0.816400  0.172900  1.0
  C  C1585  1  0.617400  0.316400  0.827100  1.0
  C  C1586  1  0.933600  0.367400  0.577100  1.0
  C  C1587  1  0.117400  0.816400  0.327100  1.0
  C  C1588  1  0.433600  0.867400  0.077100  1.0
  C  C1589  1  0.066400  0.132600  0.577100  1.0
  C  C1590  1  0.882600  0.683600  0.327100  1.0
  C  C1591  1  0.566400  0.632600  0.077100  1.0
  C  C1592  1  0.382600  0.183600  0.827100  1.0
  C  C1593  1  0.456500  0.792600  0.033800  1.0
  C  C1594  1  0.957400  0.706500  0.283800  1.0
  C  C1595  1  0.956500  0.292600  0.533800  1.0
  C  C1596  1  0.457400  0.206500  0.783800  1.0
  C  C1597  1  0.042600  0.793500  0.283800  1.0
  C  C1598  1  0.043500  0.207400  0.533800  1.0
  C  C1599  1  0.542600  0.293500  0.783800  1.0
  C  C1600  1  0.543500  0.707400  0.033800  1.0
  C  C1601  1  0.543500  0.207400  0.966200  1.0
  C  C1602  1  0.042600  0.293500  0.716200  1.0
  C  C1603  1  0.043500  0.707400  0.466200  1.0
  C  C1604  1  0.542600  0.793500  0.216200  1.0
  C  C1605  1  0.957400  0.206500  0.716200  1.0
  C  C1606  1  0.956500  0.792600  0.466200  1.0
  C  C1607  1  0.457400  0.706500  0.216200  1.0
  C  C1608  1  0.456500  0.292600  0.966200  1.0
  C  C1609  1  0.486300  0.767000  0.004400  1.0
  C  C1610  1  0.983000  0.736300  0.254400  1.0
  C  C1611  1  0.986300  0.267000  0.504400  1.0
  C  C1612  1  0.483000  0.236300  0.754400  1.0
  C  C1613  1  0.017000  0.763700  0.254400  1.0
  C  C1614  1  0.013700  0.233000  0.504400  1.0
  C  C1615  1  0.517000  0.263700  0.754400  1.0
  C  C1616  1  0.513700  0.733000  0.004400  1.0
  C  C1617  1  0.513700  0.233000  0.995600  1.0
  C  C1618  1  0.017000  0.263700  0.745600  1.0
  C  C1619  1  0.013700  0.733000  0.495600  1.0
  C  C1620  1  0.517000  0.763700  0.245600  1.0
  C  C1621  1  0.983000  0.236300  0.745600  1.0
  C  C1622  1  0.986300  0.767000  0.495600  1.0
  C  C1623  1  0.483000  0.736300  0.245600  1.0
  C  C1624  1  0.486300  0.267000  0.995600  1.0
  C  C1625  1  0.503300  0.785600  0.004700  1.0
  C  C1626  1  0.964400  0.753300  0.254700  1.0
  C  C1627  1  0.003300  0.285600  0.504700  1.0
  C  C1628  1  0.464400  0.253300  0.754700  1.0
  C  C1629  1  0.035600  0.746700  0.254700  1.0
  C  C1630  1  0.996700  0.214400  0.504700  1.0
  C  C1631  1  0.535600  0.246700  0.754700  1.0
  C  C1632  1  0.496700  0.714400  0.004700  1.0
  C  C1633  1  0.496700  0.214400  0.995300  1.0
  C  C1634  1  0.035600  0.246700  0.745300  1.0
  C  C1635  1  0.996700  0.714400  0.495300  1.0
  C  C1636  1  0.535600  0.746700  0.245300  1.0
  C  C1637  1  0.964400  0.253300  0.745300  1.0
  C  C1638  1  0.003300  0.785600  0.495300  1.0
  C  C1639  1  0.464400  0.753300  0.245300  1.0
  C  C1640  1  0.503300  0.285600  0.995300  1.0
  C  C1641  1  0.473900  0.685600  0.036300  1.0
  C  C1642  1  0.064400  0.723900  0.286300  1.0
  C  C1643  1  0.973900  0.185600  0.536300  1.0
  C  C1644  1  0.564400  0.223900  0.786300  1.0
  C  C1645  1  0.935600  0.776100  0.286300  1.0
  C  C1646  1  0.026100  0.314400  0.536300  1.0
  C  C1647  1  0.435600  0.276100  0.786300  1.0
  C  C1648  1  0.526100  0.814400  0.036300  1.0
  C  C1649  1  0.526100  0.314400  0.963700  1.0
  C  C1650  1  0.935600  0.276100  0.713700  1.0
  C  C1651  1  0.026100  0.814400  0.463700  1.0
  C  C1652  1  0.435600  0.776100  0.213700  1.0
  C  C1653  1  0.064400  0.223900  0.713700  1.0
  C  C1654  1  0.973900  0.685600  0.463700  1.0
  C  C1655  1  0.564400  0.723900  0.213700  1.0
  C  C1656  1  0.473900  0.185600  0.963700  1.0
  C  C1657  1  0.441000  0.627400  0.099900  1.0
  C  C1658  1  0.122600  0.691000  0.349900  1.0
  C  C1659  1  0.941000  0.127400  0.599900  1.0
  C  C1660  1  0.622600  0.191000  0.849900  1.0
  C  C1661  1  0.877400  0.809000  0.349900  1.0
  C  C1662  1  0.059000  0.372600  0.599900  1.0
  C  C1663  1  0.377400  0.309000  0.849900  1.0
  C  C1664  1  0.559000  0.872600  0.099900  1.0
  C  C1665  1  0.559000  0.372600  0.900100  1.0
  C  C1666  1  0.877400  0.309000  0.650100  1.0
  C  C1667  1  0.059000  0.872600  0.400100  1.0
  C  C1668  1  0.377400  0.809000  0.150100  1.0
  C  C1669  1  0.122600  0.191000  0.650100  1.0
  C  C1670  1  0.941000  0.627400  0.400100  1.0
  C  C1671  1  0.622600  0.691000  0.150100  1.0
  C  C1672  1  0.441000  0.127400  0.900100  1.0
  C  C1673  1  0.465900  0.710700  0.052800  1.0
  C  C1674  1  0.039300  0.715900  0.302800  1.0
  C  C1675  1  0.965900  0.210700  0.552800  1.0
  C  C1676  1  0.539300  0.215900  0.802800  1.0
  C  C1677  1  0.960700  0.784100  0.302800  1.0
  C  C1678  1  0.034100  0.289300  0.552800  1.0
  C  C1679  1  0.460700  0.284100  0.802800  1.0
  C  C1680  1  0.534100  0.789300  0.052800  1.0
  C  C1681  1  0.534100  0.289300  0.947200  1.0
  C  C1682  1  0.960700  0.284100  0.697200  1.0
  C  C1683  1  0.034100  0.789300  0.447200  1.0
  C  C1684  1  0.460700  0.784100  0.197200  1.0
  C  C1685  1  0.039300  0.215900  0.697200  1.0
  C  C1686  1  0.965900  0.710700  0.447200  1.0
  C  C1687  1  0.539300  0.715900  0.197200  1.0
  C  C1688  1  0.465900  0.210700  0.947200  1.0
  C  C1689  1  0.407800  0.764700  0.204800  1.0
  C  C1690  1  0.985300  0.657800  0.454800  1.0
  C  C1691  1  0.907800  0.264700  0.704800  1.0
  C  C1692  1  0.485300  0.157800  0.954800  1.0
  C  C1693  1  0.014700  0.842200  0.454800  1.0
  C  C1694  1  0.092200  0.235300  0.704800  1.0
  C  C1695  1  0.514700  0.342200  0.954800  1.0
  C  C1696  1  0.592200  0.735300  0.204800  1.0
  C  C1697  1  0.592200  0.235300  0.795200  1.0
  C  C1698  1  0.014700  0.342200  0.545200  1.0
  C  C1699  1  0.092200  0.735300  0.295200  1.0
  C  C1700  1  0.514700  0.842200  0.045200  1.0
  C  C1701  1  0.985300  0.157800  0.545200  1.0
  C  C1702  1  0.907800  0.764700  0.295200  1.0
  C  C1703  1  0.485300  0.657800  0.045200  1.0
  C  C1704  1  0.407800  0.264700  0.795200  1.0
  C  C1705  1  0.415900  0.709600  0.206000  1.0
  C  C1706  1  0.040400  0.665900  0.456000  1.0
  C  C1707  1  0.915900  0.209600  0.706000  1.0
  C  C1708  1  0.540400  0.165900  0.956000  1.0
  C  C1709  1  0.959600  0.834100  0.456000  1.0
  C  C1710  1  0.084100  0.290400  0.706000  1.0
  C  C1711  1  0.459600  0.334100  0.956000  1.0
  C  C1712  1  0.584100  0.790400  0.206000  1.0
  C  C1713  1  0.584100  0.290400  0.794000  1.0
  C  C1714  1  0.959600  0.334100  0.544000  1.0
  C  C1715  1  0.084100  0.790400  0.294000  1.0
  C  C1716  1  0.459600  0.834100  0.044000  1.0
  C  C1717  1  0.040400  0.165900  0.544000  1.0
  C  C1718  1  0.915900  0.709600  0.294000  1.0
  C  C1719  1  0.540400  0.665900  0.044000  1.0
  C  C1720  1  0.415900  0.209600  0.794000  1.0
  C  C1721  1  0.456700  0.777700  0.050100  1.0
  C  C1722  1  0.972300  0.706700  0.300100  1.0
  C  C1723  1  0.956700  0.277700  0.550100  1.0
  C  C1724  1  0.472300  0.206700  0.800100  1.0
  C  C1725  1  0.027700  0.793300  0.300100  1.0
  C  C1726  1  0.043300  0.222300  0.550100  1.0
  C  C1727  1  0.527700  0.293300  0.800100  1.0
  C  C1728  1  0.543300  0.722300  0.050100  1.0
  C  C1729  1  0.543300  0.222300  0.949900  1.0
  C  C1730  1  0.027700  0.293300  0.699900  1.0
  C  C1731  1  0.043300  0.722300  0.449900  1.0
  C  C1732  1  0.527700  0.793300  0.199900  1.0
  C  C1733  1  0.972300  0.206700  0.699900  1.0
  C  C1734  1  0.956700  0.777700  0.449900  1.0
  C  C1735  1  0.472300  0.706700  0.199900  1.0
  C  C1736  1  0.456700  0.277700  0.949900  1.0
  C  C1737  1  0.478000  0.800000  0.064800  1.0
  C  C1738  1  0.950000  0.728000  0.314800  1.0
  C  C1739  1  0.978000  0.300000  0.564800  1.0
  C  C1740  1  0.450000  0.228000  0.814800  1.0
  C  C1741  1  0.050000  0.772000  0.314800  1.0
  C  C1742  1  0.022000  0.200000  0.564800  1.0
  C  C1743  1  0.550000  0.272000  0.814800  1.0
  C  C1744  1  0.522000  0.700000  0.064800  1.0
  C  C1745  1  0.522000  0.200000  0.935200  1.0
  C  C1746  1  0.050000  0.272000  0.685200  1.0
  C  C1747  1  0.022000  0.700000  0.435200  1.0
  C  C1748  1  0.550000  0.772000  0.185200  1.0
  C  C1749  1  0.950000  0.228000  0.685200  1.0
  C  C1750  1  0.978000  0.800000  0.435200  1.0
  C  C1751  1  0.450000  0.728000  0.185200  1.0
  C  C1752  1  0.478000  0.300000  0.935200  1.0
  C  C1753  1  0.495000  0.834000  0.028300  1.0
  C  C1754  1  0.916000  0.745000  0.278300  1.0
  C  C1755  1  0.995000  0.334000  0.528300  1.0
  C  C1756  1  0.416000  0.245000  0.778300  1.0
  C  C1757  1  0.084000  0.755000  0.278300  1.0
  C  C1758  1  0.005000  0.166000  0.528300  1.0
  C  C1759  1  0.584000  0.255000  0.778300  1.0
  C  C1760  1  0.505000  0.666000  0.028300  1.0
  C  C1761  1  0.505000  0.166000  0.971700  1.0
  C  C1762  1  0.084000  0.255000  0.721700  1.0
  C  C1763  1  0.005000  0.666000  0.471700  1.0
  C  C1764  1  0.584000  0.755000  0.221700  1.0
  C  C1765  1  0.916000  0.245000  0.721700  1.0
  C  C1766  1  0.995000  0.834000  0.471700  1.0
  C  C1767  1  0.416000  0.745000  0.221700  1.0
  C  C1768  1  0.495000  0.334000  0.971700  1.0
  C  C1769  1  0.360800  0.740000  0.206800  1.0
  C  C1770  1  0.010000  0.610800  0.456800  1.0
  C  C1771  1  0.860800  0.240000  0.706800  1.0
  C  C1772  1  0.510000  0.110800  0.956800  1.0
  C  C1773  1  0.990000  0.889200  0.456800  1.0
  C  C1774  1  0.139200  0.260000  0.706800  1.0
  C  C1775  1  0.490000  0.389200  0.956800  1.0
  C  C1776  1  0.639200  0.760000  0.206800  1.0
  C  C1777  1  0.639200  0.260000  0.793200  1.0
  C  C1778  1  0.990000  0.389200  0.543200  1.0
  C  C1779  1  0.139200  0.760000  0.293200  1.0
  C  C1780  1  0.490000  0.889200  0.043200  1.0
  C  C1781  1  0.010000  0.110800  0.543200  1.0
  C  C1782  1  0.860800  0.740000  0.293200  1.0
  C  C1783  1  0.510000  0.610800  0.043200  1.0
  C  C1784  1  0.360800  0.240000  0.793200  1.0
  C  C1785  1  0.346000  0.744000  0.160800  1.0
  C  C1786  1  0.006000  0.596000  0.410800  1.0
  C  C1787  1  0.846000  0.244000  0.660800  1.0
  C  C1788  1  0.506000  0.096000  0.910800  1.0
  C  C1789  1  0.994000  0.904000  0.410800  1.0
  C  C1790  1  0.154000  0.256000  0.660800  1.0
  C  C1791  1  0.494000  0.404000  0.910800  1.0
  C  C1792  1  0.654000  0.756000  0.160800  1.0
  C  C1793  1  0.654000  0.256000  0.839200  1.0
  C  C1794  1  0.994000  0.404000  0.589200  1.0
  C  C1795  1  0.154000  0.756000  0.339200  1.0
  C  C1796  1  0.494000  0.904000  0.089200  1.0
  C  C1797  1  0.006000  0.096000  0.589200  1.0
  C  C1798  1  0.846000  0.744000  0.339200  1.0
  C  C1799  1  0.506000  0.596000  0.089200  1.0
  C  C1800  1  0.346000  0.244000  0.839200  1.0
  C  C1801  1  0.385000  0.727000  0.129000  1.0
  C  C1802  1  0.023000  0.635000  0.379000  1.0
  C  C1803  1  0.885000  0.227000  0.629000  1.0
  C  C1804  1  0.523000  0.135000  0.879000  1.0
  C  C1805  1  0.977000  0.865000  0.379000  1.0
  C  C1806  1  0.115000  0.273000  0.629000  1.0
  C  C1807  1  0.477000  0.365000  0.879000  1.0
  C  C1808  1  0.615000  0.773000  0.129000  1.0
  C  C1809  1  0.615000  0.273000  0.871000  1.0
  C  C1810  1  0.977000  0.365000  0.621000  1.0
  C  C1811  1  0.115000  0.773000  0.371000  1.0
  C  C1812  1  0.477000  0.865000  0.121000  1.0
  C  C1813  1  0.023000  0.135000  0.621000  1.0
  C  C1814  1  0.885000  0.727000  0.371000  1.0
  C  C1815  1  0.523000  0.635000  0.121000  1.0
  C  C1816  1  0.385000  0.227000  0.871000  1.0
  C  C1817  1  0.435000  0.752000  0.143100  1.0
  C  C1818  1  0.998000  0.685000  0.393100  1.0
  C  C1819  1  0.935000  0.252000  0.643100  1.0
  C  C1820  1  0.498000  0.185000  0.893100  1.0
  C  C1821  1  0.002000  0.815000  0.393100  1.0
  C  C1822  1  0.065000  0.248000  0.643100  1.0
  C  C1823  1  0.502000  0.315000  0.893100  1.0
  C  C1824  1  0.565000  0.748000  0.143100  1.0
  C  C1825  1  0.565000  0.248000  0.856900  1.0
  C  C1826  1  0.002000  0.315000  0.606900  1.0
  C  C1827  1  0.065000  0.748000  0.356900  1.0
  C  C1828  1  0.502000  0.815000  0.106900  1.0
  C  C1829  1  0.998000  0.185000  0.606900  1.0
  C  C1830  1  0.935000  0.752000  0.356900  1.0
  C  C1831  1  0.498000  0.685000  0.106900  1.0
  C  C1832  1  0.435000  0.252000  0.856900  1.0
  N  N1833  1  0.314000  0.907000  0.496000  1
  N  N1834  1  0.843000  0.564000  0.746000  1
  N  N1835  1  0.814000  0.407000  0.996000  1
  N  N1836  1  0.343000  0.064000  0.246000  1
  N  N1837  1  0.157000  0.936000  0.746000  1
  N  N1838  1  0.186000  0.093000  0.996000  1
  N  N1839  1  0.657000  0.436000  0.246000  1
  N  N1840  1  0.686000  0.593000  0.496000  1
  N  N1841  1  0.686000  0.093000  0.504000  1
  N  N1842  1  0.157000  0.436000  0.254000  1
  N  N1843  1  0.186000  0.593000  0.004000  1
  N  N1844  1  0.657000  0.936000  0.754000  1
  N  N1845  1  0.843000  0.064000  0.254000  1
  N  N1846  1  0.814000  0.907000  0.004000  1
  N  N1847  1  0.343000  0.564000  0.754000  1
  N  N1848  1  0.314000  0.407000  0.504000  1
  N  N1849  1  0.540800  0.109500  0.193800  1
  N  N1850  1  0.640500  0.790800  0.443800  1
  N  N1851  1  0.040800  0.609500  0.693800  1
  N  N1852  1  0.140500  0.290800  0.943800  1
  N  N1853  1  0.359500  0.709200  0.443800  1
  N  N1854  1  0.959200  0.890500  0.693800  1
  N  N1855  1  0.859500  0.209200  0.943800  1
  N  N1856  1  0.459200  0.390500  0.193800  1
  N  N1857  1  0.459200  0.890500  0.806200  1
  N  N1858  1  0.359500  0.209200  0.556200  1
  N  N1859  1  0.959200  0.390500  0.306200  1
  N  N1860  1  0.859500  0.709200  0.056200  1
  N  N1861  1  0.640500  0.290800  0.556200  1
  N  N1862  1  0.040800  0.109500  0.306200  1
  N  N1863  1  0.140500  0.790800  0.056200  1
  N  N1864  1  0.540800  0.609500  0.806200  1
  N  N1865  1  0.473700  0.962200  0.365900  1
  N  N1866  1  0.787800  0.723700  0.615900  1
  N  N1867  1  0.973700  0.462200  0.865900  1
  N  N1868  1  0.287800  0.223700  0.115900  1
  N  N1869  1  0.212200  0.776300  0.615900  1
  N  N1870  1  0.026300  0.037800  0.865900  1
  N  N1871  1  0.712200  0.276300  0.115900  1
  N  N1872  1  0.526300  0.537800  0.365900  1
  N  N1873  1  0.526300  0.037800  0.634100  1
  N  N1874  1  0.212200  0.276300  0.384100  1
  N  N1875  1  0.026300  0.537800  0.134100  1
  N  N1876  1  0.712200  0.776300  0.884100  1
  N  N1877  1  0.787800  0.223700  0.384100  1
  N  N1878  1  0.973700  0.962200  0.134100  1
  N  N1879  1  0.287800  0.723700  0.884100  1
  N  N1880  1  0.473700  0.462200  0.634100  1
  N  N1881  1  0.558800  0.092700  0.250300  1
  N  N1882  1  0.657300  0.808800  0.500300  1
  N  N1883  1  0.058800  0.592700  0.750300  1
  N  N1884  1  0.157300  0.308800  0.000300  1
  N  N1885  1  0.342700  0.691200  0.500300  1
  N  N1886  1  0.941200  0.907300  0.750300  1
  N  N1887  1  0.842700  0.191200  0.000300  1
  N  N1888  1  0.441200  0.407300  0.250300  1
  N  N1889  1  0.441200  0.907300  0.749700  1
  N  N1890  1  0.342700  0.191200  0.499700  1
  N  N1891  1  0.941200  0.407300  0.249700  1
  N  N1892  1  0.842700  0.691200  0.999700  1
  N  N1893  1  0.657300  0.308800  0.499700  1
  N  N1894  1  0.058800  0.092700  0.249700  1
  N  N1895  1  0.157300  0.808800  0.999700  1
  N  N1896  1  0.558800  0.592700  0.749700  1
  N  N1897  1  0.603900  0.084700  0.038900  1
  N  N1898  1  0.665300  0.853900  0.288900  1
  N  N1899  1  0.103900  0.584700  0.538900  1
  N  N1900  1  0.165300  0.353900  0.788900  1
  N  N1901  1  0.334700  0.646100  0.288900  1
  N  N1902  1  0.896100  0.915300  0.538900  1
  N  N1903  1  0.834700  0.146100  0.788900  1
  N  N1904  1  0.396100  0.415300  0.038900  1
  N  N1905  1  0.396100  0.915300  0.961100  1
  N  N1906  1  0.334700  0.146100  0.711100  1
  N  N1907  1  0.896100  0.415300  0.461100  1
  N  N1908  1  0.834700  0.646100  0.211100  1
  N  N1909  1  0.665300  0.353900  0.711100  1
  N  N1910  1  0.103900  0.084700  0.461100  1
  N  N1911  1  0.165300  0.853900  0.211100  1
  N  N1912  1  0.603900  0.584700  0.961100  1
  N  N1913  1  0.696400  0.921100  0.935400  1
  N  N1914  1  0.828900  0.946400  0.185400  1
  N  N1915  1  0.196400  0.421100  0.435400  1
  N  N1916  1  0.328900  0.446400  0.685400  1
  N  N1917  1  0.171100  0.553600  0.185400  1
  N  N1918  1  0.803600  0.078900  0.435400  1
  N  N1919  1  0.671100  0.053600  0.685400  1
  N  N1920  1  0.303600  0.578900  0.935400  1
  N  N1921  1  0.303600  0.078900  0.064600  1
  N  N1922  1  0.171100  0.053600  0.814600  1
  N  N1923  1  0.803600  0.578900  0.564600  1
  N  N1924  1  0.671100  0.553600  0.314600  1
  N  N1925  1  0.828900  0.446400  0.814600  1
  N  N1926  1  0.196400  0.921100  0.564600  1
  N  N1927  1  0.328900  0.946400  0.314600  1
  N  N1928  1  0.696400  0.421100  0.064600  1
  N  N1929  1  0.500000  0.750000  0.056800  1.0
  N  N1930  1  0.000000  0.750000  0.306800  1.0
  N  N1931  1  0.000000  0.250000  0.556800  1.0
  N  N1932  1  0.500000  0.250000  0.806800  1.0
  N  N1933  1  0.500000  0.250000  0.943200  1.0
  N  N1934  1  0.000000  0.250000  0.693200  1.0
  N  N1935  1  0.000000  0.750000  0.443200  1.0
  N  N1936  1  0.500000  0.750000  0.193200  1.0
  N  N1937  1  0.491740  0.801800  0.371860  1.0
  N  N1938  1  0.948200  0.741740  0.621860  1.0
  N  N1939  1  0.991740  0.301800  0.871860  1.0
  N  N1940  1  0.448200  0.241740  0.121860  1.0
  N  N1941  1  0.051800  0.758260  0.621860  1.0
  N  N1942  1  0.008260  0.198200  0.871860  1.0
  N  N1943  1  0.551800  0.258260  0.121860  1.0
  N  N1944  1  0.508260  0.698200  0.371860  1.0
  N  N1945  1  0.508260  0.198200  0.628140  1.0
  N  N1946  1  0.051800  0.258260  0.378140  1.0
  N  N1947  1  0.008260  0.698200  0.128140  1.0
  N  N1948  1  0.551800  0.758260  0.878140  1.0
  N  N1949  1  0.948200  0.241740  0.378140  1.0
  N  N1950  1  0.991740  0.801800  0.128140  1.0
  N  N1951  1  0.448200  0.741740  0.878140  1.0
  N  N1952  1  0.491740  0.301800  0.628140  1.0
  N  N1953  1  0.644570  0.007630  0.156340  1.0
  N  N1954  1  0.742370  0.894570  0.406340  1.0
  N  N1955  1  0.144570  0.507630  0.656340  1.0
  N  N1956  1  0.242370  0.394570  0.906340  1.0
  N  N1957  1  0.257630  0.605430  0.406340  1.0
  N  N1958  1  0.855430  0.992370  0.656340  1.0
  N  N1959  1  0.757630  0.105430  0.906340  1.0
  N  N1960  1  0.355430  0.492370  0.156340  1.0
  N  N1961  1  0.355430  0.992370  0.843660  1.0
  N  N1962  1  0.257630  0.105430  0.593660  1.0
  N  N1963  1  0.855430  0.492370  0.343660  1.0
  N  N1964  1  0.757630  0.605430  0.093660  1.0
  N  N1965  1  0.742370  0.394570  0.593660  1.0
  N  N1966  1  0.144570  0.007630  0.343660  1.0
  N  N1967  1  0.242370  0.894570  0.093660  1.0
  N  N1968  1  0.644570  0.507630  0.843660  1.0
  N  N1969  1  0.703800  0.965390  0.093500  1.0
  N  N1970  1  0.784610  0.953800  0.343500  1.0
  N  N1971  1  0.203800  0.465390  0.593500  1.0
  N  N1972  1  0.284610  0.453800  0.843500  1.0
  N  N1973  1  0.215390  0.546200  0.343500  1.0
  N  N1974  1  0.796200  0.034610  0.593500  1.0
  N  N1975  1  0.715390  0.046200  0.843500  1.0
  N  N1976  1  0.296200  0.534610  0.093500  1.0
  N  N1977  1  0.296200  0.034610  0.906500  1.0
  N  N1978  1  0.215390  0.046200  0.656500  1.0
  N  N1979  1  0.796200  0.534610  0.406500  1.0
  N  N1980  1  0.715390  0.546200  0.156500  1.0
  N  N1981  1  0.784610  0.453800  0.656500  1.0
  N  N1982  1  0.203800  0.965390  0.406500  1.0
  N  N1983  1  0.284610  0.953800  0.156500  1.0
  N  N1984  1  0.703800  0.465390  0.906500  1.0
  N  N1985  1  0.519760  0.917300  0.249020  1.0
  N  N1986  1  0.832700  0.769760  0.499020  1.0
  N  N1987  1  0.019760  0.417300  0.749020  1.0
  N  N1988  1  0.332700  0.269760  0.999020  1.0
  N  N1989  1  0.167300  0.730240  0.499020  1.0
  N  N1990  1  0.980240  0.082700  0.749020  1.0
  N  N1991  1  0.667300  0.230240  0.999020  1.0
  N  N1992  1  0.480240  0.582700  0.249020  1.0
  N  N1993  1  0.480240  0.082700  0.750980  1.0
  N  N1994  1  0.167300  0.230240  0.500980  1.0
  N  N1995  1  0.980240  0.582700  0.250980  1.0
  N  N1996  1  0.667300  0.730240  0.000980  1.0
  N  N1997  1  0.832700  0.269760  0.500980  1.0
  N  N1998  1  0.019760  0.917300  0.250980  1.0
  N  N1999  1  0.332700  0.769760  0.000980  1.0
  N  N2000  1  0.519760  0.417300  0.750980  1.0
  N  N2001  1  0.468900  0.953800  0.195980  1.0
  N  N2002  1  0.796200  0.718900  0.445980  1.0
  N  N2003  1  0.968900  0.453800  0.695980  1.0
  N  N2004  1  0.296200  0.218900  0.945980  1.0
  N  N2005  1  0.203800  0.781100  0.445980  1.0
  N  N2006  1  0.031100  0.046200  0.695980  1.0
  N  N2007  1  0.703800  0.281100  0.945980  1.0
  N  N2008  1  0.531100  0.546200  0.195980  1.0
  N  N2009  1  0.531100  0.046200  0.804020  1.0
  N  N2010  1  0.203800  0.281100  0.554020  1.0
  N  N2011  1  0.031100  0.546200  0.304020  1.0
  N  N2012  1  0.703800  0.781100  0.054020  1.0
  N  N2013  1  0.796200  0.218900  0.554020  1.0
  N  N2014  1  0.968900  0.953800  0.304020  1.0
  N  N2015  1  0.296200  0.718900  0.054020  1.0
  N  N2016  1  0.468900  0.453800  0.804020  1.0
  N  N2017  1  0.430610  0.904100  0.249430  1.0
  N  N2018  1  0.845900  0.680610  0.499430  1.0
  N  N2019  1  0.930610  0.404100  0.749430  1.0
  N  N2020  1  0.345900  0.180610  0.999430  1.0
  N  N2021  1  0.154100  0.819390  0.499430  1.0
  N  N2022  1  0.069390  0.095900  0.749430  1.0
  N  N2023  1  0.654100  0.319390  0.999430  1.0
  N  N2024  1  0.569390  0.595900  0.249430  1.0
  N  N2025  1  0.569390  0.095900  0.750570  1.0
  N  N2026  1  0.154100  0.319390  0.500570  1.0
  N  N2027  1  0.069390  0.595900  0.250570  1.0
  N  N2028  1  0.654100  0.819390  0.000570  1.0
  N  N2029  1  0.845900  0.180610  0.500570  1.0
  N  N2030  1  0.930610  0.904100  0.250570  1.0
  N  N2031  1  0.345900  0.680610  0.000570  1.0
  N  N2032  1  0.430610  0.404100  0.750570  1.0
  N  N2033  1  0.508800  0.697500  0.465960  1.0
  N  N2034  1  0.052500  0.758800  0.715960  1.0
  N  N2035  1  0.008800  0.197500  0.965960  1.0
  N  N2036  1  0.552500  0.258800  0.215960  1.0
  N  N2037  1  0.947500  0.741200  0.715960  1.0
  N  N2038  1  0.991200  0.302500  0.965960  1.0
  N  N2039  1  0.447500  0.241200  0.215960  1.0
  N  N2040  1  0.491200  0.802500  0.465960  1.0
  N  N2041  1  0.491200  0.302500  0.534040  1.0
  N  N2042  1  0.947500  0.241200  0.284040  1.0
  N  N2043  1  0.991200  0.802500  0.034040  1.0
  N  N2044  1  0.447500  0.741200  0.784040  1.0
  N  N2045  1  0.052500  0.258800  0.284040  1.0
  N  N2046  1  0.008800  0.697500  0.034040  1.0
  N  N2047  1  0.552500  0.758800  0.784040  1.0
  N  N2048  1  0.508800  0.197500  0.534040  1.0
  N  N2049  1  0.770200  0.058300  0.092870  1.0
  N  N2050  1  0.691700  0.020200  0.342870  1.0
  N  N2051  1  0.270200  0.558300  0.592870  1.0
  N  N2052  1  0.191700  0.520200  0.842870  1.0
  N  N2053  1  0.308300  0.479800  0.342870  1.0
  N  N2054  1  0.729800  0.941700  0.592870  1.0
  N  N2055  1  0.808300  0.979800  0.842870  1.0
  N  N2056  1  0.229800  0.441700  0.092870  1.0
  N  N2057  1  0.229800  0.941700  0.907130  1.0
  N  N2058  1  0.308300  0.979800  0.657130  1.0
  N  N2059  1  0.729800  0.441700  0.407130  1.0
  N  N2060  1  0.808300  0.479800  0.157130  1.0
  N  N2061  1  0.691700  0.520200  0.657130  1.0
  N  N2062  1  0.270200  0.058300  0.407130  1.0
  N  N2063  1  0.191700  0.020200  0.157130  1.0
  N  N2064  1  0.770200  0.558300  0.907130  1.0
  N  N2065  1  0.710000  0.100900  0.155740  1.0
  N  N2066  1  0.649100  0.960000  0.405740  1.0
  N  N2067  1  0.210000  0.600900  0.655740  1.0
  N  N2068  1  0.149100  0.460000  0.905740  1.0
  N  N2069  1  0.350900  0.540000  0.405740  1.0
  N  N2070  1  0.790000  0.899100  0.655740  1.0
  N  N2071  1  0.850900  0.040000  0.905740  1.0
  N  N2072  1  0.290000  0.399100  0.155740  1.0
  N  N2073  1  0.290000  0.899100  0.844260  1.0
  N  N2074  1  0.350900  0.040000  0.594260  1.0
  N  N2075  1  0.790000  0.399100  0.344260  1.0
  N  N2076  1  0.850900  0.540000  0.094260  1.0
  N  N2077  1  0.649100  0.460000  0.594260  1.0
  N  N2078  1  0.210000  0.100900  0.344260  1.0
  N  N2079  1  0.149100  0.960000  0.094260  1.0
  N  N2080  1  0.710000  0.600900  0.844260  1.0
  O  O2081  1  0.421300  0.972100  0.466700  1
  O  O2082  1  0.777900  0.671300  0.716700  1
  O  O2083  1  0.921300  0.472100  0.966700  1
  O  O2084  1  0.277900  0.171300  0.216700  1
  O  O2085  1  0.222100  0.828700  0.716700  1
  O  O2086  1  0.078700  0.027900  0.966700  1
  O  O2087  1  0.722100  0.328700  0.216700  1
  O  O2088  1  0.578700  0.527900  0.466700  1
  O  O2089  1  0.578700  0.027900  0.533300  1
  O  O2090  1  0.222100  0.328700  0.283300  1
  O  O2091  1  0.078700  0.527900  0.033300  1
  O  O2092  1  0.722100  0.828700  0.783300  1
  O  O2093  1  0.777900  0.171300  0.283300  1
  O  O2094  1  0.921300  0.972100  0.033300  1
  O  O2095  1  0.277900  0.671300  0.783300  1
  O  O2096  1  0.421300  0.472100  0.533300  1
  O  O2097  1  0.355500  0.895000  0.385200  1
  O  O2098  1  0.855000  0.605500  0.635200  1
  O  O2099  1  0.855500  0.395000  0.885200  1
  O  O2100  1  0.355000  0.105500  0.135200  1
  O  O2101  1  0.145000  0.894500  0.635200  1
  O  O2102  1  0.144500  0.105000  0.885200  1
  O  O2103  1  0.645000  0.394500  0.135200  1
  O  O2104  1  0.644500  0.605000  0.385200  1
  O  O2105  1  0.644500  0.105000  0.614800  1
  O  O2106  1  0.145000  0.394500  0.364800  1
  O  O2107  1  0.144500  0.605000  0.114800  1
  O  O2108  1  0.645000  0.894500  0.864800  1
  O  O2109  1  0.855000  0.105500  0.364800  1
  O  O2110  1  0.855500  0.895000  0.114800  1
  O  O2111  1  0.355000  0.605500  0.864800  1
  O  O2112  1  0.355500  0.395000  0.614800  1
  O  O2113  1  0.327700  0.930100  0.464100  1
  O  O2114  1  0.819900  0.577700  0.714100  1
  O  O2115  1  0.827700  0.430100  0.964100  1
  O  O2116  1  0.319900  0.077700  0.214100  1
  O  O2117  1  0.180100  0.922300  0.714100  1
  O  O2118  1  0.172300  0.069900  0.964100  1
  O  O2119  1  0.680100  0.422300  0.214100  1
  O  O2120  1  0.672300  0.569900  0.464100  1
  O  O2121  1  0.672300  0.069900  0.535900  1
  O  O2122  1  0.180100  0.422300  0.285900  1
  O  O2123  1  0.172300  0.569900  0.035900  1
  O  O2124  1  0.680100  0.922300  0.785900  1
  O  O2125  1  0.819900  0.077700  0.285900  1
  O  O2126  1  0.827700  0.930100  0.035900  1
  O  O2127  1  0.319900  0.577700  0.785900  1
  O  O2128  1  0.327700  0.430100  0.535900  1
  O  O2129  1  0.287900  0.888000  0.530700  1
  O  O2130  1  0.862000  0.537900  0.780700  1
  O  O2131  1  0.787900  0.388000  0.030700  1
  O  O2132  1  0.362000  0.037900  0.280700  1
  O  O2133  1  0.138000  0.962100  0.780700  1
  O  O2134  1  0.212100  0.112000  0.030700  1
  O  O2135  1  0.638000  0.462100  0.280700  1
  O  O2136  1  0.712100  0.612000  0.530700  1
  O  O2137  1  0.712100  0.112000  0.469300  1
  O  O2138  1  0.138000  0.462100  0.219300  1
  O  O2139  1  0.212100  0.612000  0.969300  1
  O  O2140  1  0.638000  0.962100  0.719300  1
  O  O2141  1  0.862000  0.037900  0.219300  1
  O  O2142  1  0.787900  0.888000  0.969300  1
  O  O2143  1  0.362000  0.537900  0.719300  1
  O  O2144  1  0.287900  0.388000  0.469300  1
  O  O2145  1  0.317900  0.849800  0.483100  1
  O  O2146  1  0.900200  0.567900  0.733100  1
  O  O2147  1  0.817900  0.349800  0.983100  1
  O  O2148  1  0.400200  0.067900  0.233100  1
  O  O2149  1  0.099800  0.932100  0.733100  1
  O  O2150  1  0.182100  0.150200  0.983100  1
  O  O2151  1  0.599800  0.432100  0.233100  1
  O  O2152  1  0.682100  0.650200  0.483100  1
  O  O2153  1  0.682100  0.150200  0.516900  1
  O  O2154  1  0.099800  0.432100  0.266900  1
  O  O2155  1  0.182100  0.650200  0.016900  1
  O  O2156  1  0.599800  0.932100  0.766900  1
  O  O2157  1  0.900200  0.067900  0.266900  1
  O  O2158  1  0.817900  0.849800  0.016900  1
  O  O2159  1  0.400200  0.567900  0.766900  1
  O  O2160  1  0.317900  0.349800  0.516900  1
  O  O2161  1  0.438900  0.094500  0.354800  1
  O  O2162  1  0.655500  0.688900  0.604800  1
  O  O2163  1  0.938900  0.594500  0.854800  1
  O  O2164  1  0.155500  0.188900  0.104800  1
  O  O2165  1  0.344500  0.811100  0.604800  1
  O  O2166  1  0.061100  0.905500  0.854800  1
  O  O2167  1  0.844500  0.311100  0.104800  1
  O  O2168  1  0.561100  0.405500  0.354800  1
  O  O2169  1  0.561100  0.905500  0.645200  1
  O  O2170  1  0.344500  0.311100  0.395200  1
  O  O2171  1  0.061100  0.405500  0.145200  1
  O  O2172  1  0.844500  0.811100  0.895200  1
  O  O2173  1  0.655500  0.188900  0.395200  1
  O  O2174  1  0.938900  0.094500  0.145200  1
  O  O2175  1  0.155500  0.688900  0.895200  1
  O  O2176  1  0.438900  0.594500  0.645200  1
  O  O2177  1  0.435800  0.075300  0.443600  1
  O  O2178  1  0.674700  0.685800  0.693600  1
  O  O2179  1  0.935800  0.575300  0.943600  1
  O  O2180  1  0.174700  0.185800  0.193600  1
  O  O2181  1  0.325300  0.814200  0.693600  1
  O  O2182  1  0.064200  0.924700  0.943600  1
  O  O2183  1  0.825300  0.314200  0.193600  1
  O  O2184  1  0.564200  0.424700  0.443600  1
  O  O2185  1  0.564200  0.924700  0.556400  1
  O  O2186  1  0.325300  0.314200  0.306400  1
  O  O2187  1  0.064200  0.424700  0.056400  1
  O  O2188  1  0.825300  0.814200  0.806400  1
  O  O2189  1  0.674700  0.185800  0.306400  1
  O  O2190  1  0.935800  0.075300  0.056400  1
  O  O2191  1  0.174700  0.685800  0.806400  1
  O  O2192  1  0.435800  0.575300  0.556400  1
  O  O2193  1  0.528400  0.125600  0.161600  1
  O  O2194  1  0.624400  0.778400  0.411600  1
  O  O2195  1  0.028400  0.625600  0.661600  1
  O  O2196  1  0.124400  0.278400  0.911600  1
  O  O2197  1  0.375600  0.721600  0.411600  1
  O  O2198  1  0.971600  0.874400  0.661600  1
  O  O2199  1  0.875600  0.221600  0.911600  1
  O  O2200  1  0.471600  0.374400  0.161600  1
  O  O2201  1  0.471600  0.874400  0.838400  1
  O  O2202  1  0.375600  0.221600  0.588400  1
  O  O2203  1  0.971600  0.374400  0.338400  1
  O  O2204  1  0.875600  0.721600  0.088400  1
  O  O2205  1  0.624400  0.278400  0.588400  1
  O  O2206  1  0.028400  0.125600  0.338400  1
  O  O2207  1  0.124400  0.778400  0.088400  1
  O  O2208  1  0.528400  0.625600  0.838400  1
  O  O2209  1  0.491400  0.078100  0.207600  1
  O  O2210  1  0.671900  0.741400  0.457600  1
  O  O2211  1  0.991400  0.578100  0.707600  1
  O  O2212  1  0.171900  0.241400  0.957600  1
  O  O2213  1  0.328100  0.758600  0.457600  1
  O  O2214  1  0.008600  0.921900  0.707600  1
  O  O2215  1  0.828100  0.258600  0.957600  1
  O  O2216  1  0.508600  0.421900  0.207600  1
  O  O2217  1  0.508600  0.921900  0.792400  1
  O  O2218  1  0.328100  0.258600  0.542400  1
  O  O2219  1  0.008600  0.421900  0.292400  1
  O  O2220  1  0.828100  0.758600  0.042400  1
  O  O2221  1  0.671900  0.241400  0.542400  1
  O  O2222  1  0.991400  0.078100  0.292400  1
  O  O2223  1  0.171900  0.741400  0.042400  1
  O  O2224  1  0.491400  0.578100  0.792400  1
  O  O2225  1  0.575100  0.091900  0.222600  1
  O  O2226  1  0.658100  0.825100  0.472600  1
  O  O2227  1  0.075100  0.591900  0.722600  1
  O  O2228  1  0.158100  0.325100  0.972600  1
  O  O2229  1  0.341900  0.674900  0.472600  1
  O  O2230  1  0.924900  0.908100  0.722600  1
  O  O2231  1  0.841900  0.174900  0.972600  1
  O  O2232  1  0.424900  0.408100  0.222600  1
  O  O2233  1  0.424900  0.908100  0.777400  1
  O  O2234  1  0.341900  0.174900  0.527400  1
  O  O2235  1  0.924900  0.408100  0.277400  1
  O  O2236  1  0.841900  0.674900  0.027400  1
  O  O2237  1  0.658100  0.325100  0.527400  1
  O  O2238  1  0.075100  0.091900  0.277400  1
  O  O2239  1  0.158100  0.825100  0.027400  1
  O  O2240  1  0.575100  0.591900  0.777400  1
  O  O2241  1  0.637900  0.087500  0.044000  1
  O  O2242  1  0.662500  0.887900  0.294000  1
  O  O2243  1  0.137900  0.587500  0.544000  1
  O  O2244  1  0.162500  0.387900  0.794000  1
  O  O2245  1  0.337500  0.612100  0.294000  1
  O  O2246  1  0.862100  0.912500  0.544000  1
  O  O2247  1  0.837500  0.112100  0.794000  1
  O  O2248  1  0.362100  0.412500  0.044000  1
  O  O2249  1  0.362100  0.912500  0.956000  1
  O  O2250  1  0.337500  0.112100  0.706000  1
  O  O2251  1  0.862100  0.412500  0.456000  1
  O  O2252  1  0.837500  0.612100  0.206000  1
  O  O2253  1  0.662500  0.387900  0.706000  1
  O  O2254  1  0.137900  0.087500  0.456000  1
  O  O2255  1  0.162500  0.887900  0.206000  1
  O  O2256  1  0.637900  0.587500  0.956000  1
  O  O2257  1  0.384900  0.147200  0.324300  1
  O  O2258  1  0.602800  0.634900  0.574300  1
  O  O2259  1  0.884900  0.647200  0.824300  1
  O  O2260  1  0.102800  0.134900  0.074300  1
  O  O2261  1  0.397200  0.865100  0.574300  1
  O  O2262  1  0.115100  0.852800  0.824300  1
  O  O2263  1  0.897200  0.365100  0.074300  1
  O  O2264  1  0.615100  0.352800  0.324300  1
  O  O2265  1  0.615100  0.852800  0.675700  1
  O  O2266  1  0.397200  0.365100  0.425700  1
  O  O2267  1  0.115100  0.352800  0.175700  1
  O  O2268  1  0.897200  0.865100  0.925700  1
  O  O2269  1  0.602800  0.134900  0.425700  1
  O  O2270  1  0.884900  0.147200  0.175700  1
  O  O2271  1  0.102800  0.634900  0.925700  1
  O  O2272  1  0.384900  0.647200  0.675700  1
  O  O2273  1  0.465200  0.026000  0.280000  1
  O  O2274  1  0.724000  0.715200  0.530000  1
  O  O2275  1  0.965200  0.526000  0.780000  1
  O  O2276  1  0.224000  0.215200  0.030000  1
  O  O2277  1  0.276000  0.784800  0.530000  1
  O  O2278  1  0.034800  0.974000  0.780000  1
  O  O2279  1  0.776000  0.284800  0.030000  1
  O  O2280  1  0.534800  0.474000  0.280000  1
  O  O2281  1  0.534800  0.974000  0.720000  1
  O  O2282  1  0.276000  0.284800  0.470000  1
  O  O2283  1  0.034800  0.474000  0.220000  1
  O  O2284  1  0.776000  0.784800  0.970000  1
  O  O2285  1  0.724000  0.215200  0.470000  1
  O  O2286  1  0.965200  0.026000  0.220000  1
  O  O2287  1  0.224000  0.715200  0.970000  1
  O  O2288  1  0.465200  0.526000  0.720000  1
  O  O2289  1  0.457500  0.931300  0.539500  1
  O  O2290  1  0.818700  0.707500  0.789500  1
  O  O2291  1  0.957500  0.431300  0.039500  1
  O  O2292  1  0.318700  0.207500  0.289500  1
  O  O2293  1  0.181300  0.792500  0.789500  1
  O  O2294  1  0.042500  0.068700  0.039500  1
  O  O2295  1  0.681300  0.292500  0.289500  1
  O  O2296  1  0.542500  0.568700  0.539500  1
  O  O2297  1  0.542500  0.068700  0.460500  1
  O  O2298  1  0.181300  0.292500  0.210500  1
  O  O2299  1  0.042500  0.568700  0.960500  1
  O  O2300  1  0.681300  0.792500  0.710500  1
  O  O2301  1  0.818700  0.207500  0.210500  1
  O  O2302  1  0.957500  0.931300  0.960500  1
  O  O2303  1  0.318700  0.707500  0.710500  1
  O  O2304  1  0.457500  0.431300  0.460500  1
  O  O2305  1  0.448700  0.929100  0.395000  1
  O  O2306  1  0.820900  0.698700  0.645000  1
  O  O2307  1  0.948700  0.429100  0.895000  1
  O  O2308  1  0.320900  0.198700  0.145000  1
  O  O2309  1  0.179100  0.801300  0.645000  1
  O  O2310  1  0.051300  0.070900  0.895000  1
  O  O2311  1  0.679100  0.301300  0.145000  1
  O  O2312  1  0.551300  0.570900  0.395000  1
  O  O2313  1  0.551300  0.070900  0.605000  1
  O  O2314  1  0.179100  0.301300  0.355000  1
  O  O2315  1  0.051300  0.570900  0.105000  1
  O  O2316  1  0.679100  0.801300  0.855000  1
  O  O2317  1  0.820900  0.198700  0.355000  1
  O  O2318  1  0.948700  0.929100  0.105000  1
  O  O2319  1  0.320900  0.698700  0.855000  1
  O  O2320  1  0.448700  0.429100  0.605000  1
  O  O2321  1  0.511700  0.988900  0.348900  1
  O  O2322  1  0.761100  0.761700  0.598900  1
  O  O2323  1  0.011700  0.488900  0.848900  1
  O  O2324  1  0.261100  0.261700  0.098900  1
  O  O2325  1  0.238900  0.738300  0.598900  1
  O  O2326  1  0.988300  0.011100  0.848900  1
  O  O2327  1  0.738900  0.238300  0.098900  1
  O  O2328  1  0.488300  0.511100  0.348900  1
  O  O2329  1  0.488300  0.011100  0.651100  1
  O  O2330  1  0.238900  0.238300  0.401100  1
  O  O2331  1  0.988300  0.511100  0.151100  1
  O  O2332  1  0.738900  0.738300  0.901100  1
  O  O2333  1  0.761100  0.261700  0.401100  1
  O  O2334  1  0.011700  0.988900  0.151100  1
  O  O2335  1  0.261100  0.761700  0.901100  1
  O  O2336  1  0.511700  0.488900  0.651100  1
  O  O2337  1  0.426100  0.969100  0.353500  1
  O  O2338  1  0.780900  0.676100  0.603500  1
  O  O2339  1  0.926100  0.469100  0.853500  1
  O  O2340  1  0.280900  0.176100  0.103500  1
  O  O2341  1  0.219100  0.823900  0.603500  1
  O  O2342  1  0.073900  0.030900  0.853500  1
  O  O2343  1  0.719100  0.323900  0.103500  1
  O  O2344  1  0.573900  0.530900  0.353500  1
  O  O2345  1  0.573900  0.030900  0.646500  1
  O  O2346  1  0.219100  0.323900  0.396500  1
  O  O2347  1  0.073900  0.530900  0.146500  1
  O  O2348  1  0.719100  0.823900  0.896500  1
  O  O2349  1  0.780900  0.176100  0.396500  1
  O  O2350  1  0.926100  0.969100  0.146500  1
  O  O2351  1  0.280900  0.676100  0.896500  1
  O  O2352  1  0.426100  0.469100  0.646500  1
  O  O2353  1  0.593800  0.127000  0.296500  1
  O  O2354  1  0.623000  0.843800  0.546500  1
  O  O2355  1  0.093800  0.627000  0.796500  1
  O  O2356  1  0.123000  0.343800  0.046500  1
  O  O2357  1  0.377000  0.656200  0.546500  1
  O  O2358  1  0.906200  0.873000  0.796500  1
  O  O2359  1  0.877000  0.156200  0.046500  1
  O  O2360  1  0.406200  0.373000  0.296500  1
  O  O2361  1  0.406200  0.873000  0.703500  1
  O  O2362  1  0.377000  0.156200  0.453500  1
  O  O2363  1  0.906200  0.373000  0.203500  1
  O  O2364  1  0.877000  0.656200  0.953500  1
  O  O2365  1  0.623000  0.343800  0.453500  1
  O  O2366  1  0.093800  0.127000  0.203500  1
  O  O2367  1  0.123000  0.843800  0.953500  1
  O  O2368  1  0.593800  0.627000  0.703500  1
  O  O2369  1  0.501900  0.162900  0.331000  1
  O  O2370  1  0.587100  0.751900  0.581000  1
  O  O2371  1  0.001900  0.662900  0.831000  1
  O  O2372  1  0.087100  0.251900  0.081000  1
  O  O2373  1  0.412900  0.748100  0.581000  1
  O  O2374  1  0.998100  0.837100  0.831000  1
  O  O2375  1  0.912900  0.248100  0.081000  1
  O  O2376  1  0.498100  0.337100  0.331000  1
  O  O2377  1  0.498100  0.837100  0.669000  1
  O  O2378  1  0.412900  0.248100  0.419000  1
  O  O2379  1  0.998100  0.337100  0.169000  1
  O  O2380  1  0.912900  0.748100  0.919000  1
  O  O2381  1  0.587100  0.251900  0.419000  1
  O  O2382  1  0.001900  0.162900  0.169000  1
  O  O2383  1  0.087100  0.751900  0.919000  1
  O  O2384  1  0.501900  0.662900  0.669000  1
  O  O2385  1  0.500000  0.250000  0.375000  1
  O  O2386  1  0.500000  0.750000  0.625000  1
  O  O2387  1  0.000000  0.750000  0.875000  1
  O  O2388  1  0.000000  0.250000  0.125000  1
  O  O2389  1  0.550700  0.040300  0.288300  1
  O  O2390  1  0.709700  0.800700  0.538300  1
  O  O2391  1  0.050700  0.540300  0.788300  1
  O  O2392  1  0.209700  0.300700  0.038300  1
  O  O2393  1  0.290300  0.699300  0.538300  1
  O  O2394  1  0.949300  0.959700  0.788300  1
  O  O2395  1  0.790300  0.199300  0.038300  1
  O  O2396  1  0.449300  0.459700  0.288300  1
  O  O2397  1  0.449300  0.959700  0.711700  1
  O  O2398  1  0.290300  0.199300  0.461700  1
  O  O2399  1  0.949300  0.459700  0.211700  1
  O  O2400  1  0.790300  0.699300  0.961700  1
  O  O2401  1  0.709700  0.300700  0.461700  1
  O  O2402  1  0.050700  0.040300  0.211700  1
  O  O2403  1  0.209700  0.800700  0.961700  1
  O  O2404  1  0.550700  0.540300  0.711700  1
  O  O2405  1  0.627400  0.012400  0.965900  1
  O  O2406  1  0.737600  0.877400  0.215900  1
  O  O2407  1  0.127400  0.512400  0.465900  1
  O  O2408  1  0.237600  0.377400  0.715900  1
  O  O2409  1  0.262400  0.622600  0.215900  1
  O  O2410  1  0.872600  0.987600  0.465900  1
  O  O2411  1  0.762400  0.122600  0.715900  1
  O  O2412  1  0.372600  0.487600  0.965900  1
  O  O2413  1  0.372600  0.987600  0.034100  1
  O  O2414  1  0.262400  0.122600  0.784100  1
  O  O2415  1  0.872600  0.487600  0.534100  1
  O  O2416  1  0.762400  0.622600  0.284100  1
  O  O2417  1  0.737600  0.377400  0.784100  1
  O  O2418  1  0.127400  0.012400  0.534100  1
  O  O2419  1  0.237600  0.877400  0.284100  1
  O  O2420  1  0.627400  0.512400  0.034100  1
  O  O2421  1  0.326100  0.785300  0.279200  1
  O  O2422  1  0.964700  0.576100  0.529200  1
  O  O2423  1  0.826100  0.285300  0.779200  1
  O  O2424  1  0.464700  0.076100  0.029200  1
  O  O2425  1  0.035300  0.923900  0.529200  1
  O  O2426  1  0.173900  0.214700  0.779200  1
  O  O2427  1  0.535300  0.423900  0.029200  1
  O  O2428  1  0.673900  0.714700  0.279200  1
  O  O2429  1  0.673900  0.214700  0.720800  1
  O  O2430  1  0.035300  0.423900  0.470800  1
  O  O2431  1  0.173900  0.714700  0.220800  1
  O  O2432  1  0.535300  0.923900  0.970800  1
  O  O2433  1  0.964700  0.076100  0.470800  1
  O  O2434  1  0.826100  0.785300  0.220800  1
  O  O2435  1  0.464700  0.576100  0.970800  1
  O  O2436  1  0.326100  0.285300  0.720800  1
  O  O2437  1  0.476800  0.904300  0.590300  1
  O  O2438  1  0.845700  0.726800  0.840300  1
  O  O2439  1  0.976800  0.404300  0.090300  1
  O  O2440  1  0.345700  0.226800  0.340300  1
  O  O2441  1  0.154300  0.773200  0.840300  1
  O  O2442  1  0.023200  0.095700  0.090300  1
  O  O2443  1  0.654300  0.273200  0.340300  1
  O  O2444  1  0.523200  0.595700  0.590300  1
  O  O2445  1  0.523200  0.095700  0.409700  1
  O  O2446  1  0.154300  0.273200  0.159700  1
  O  O2447  1  0.023200  0.595700  0.909700  1
  O  O2448  1  0.654300  0.773200  0.659700  1
  O  O2449  1  0.845700  0.226800  0.159700  1
  O  O2450  1  0.976800  0.904300  0.909700  1
  O  O2451  1  0.345700  0.726800  0.659700  1
  O  O2452  1  0.476800  0.404300  0.409700  1
  O  O2453  1  0.576000  0.038100  0.032200  1
  O  O2454  1  0.711900  0.826000  0.282200  1
  O  O2455  1  0.076000  0.538100  0.532200  1
  O  O2456  1  0.211900  0.326000  0.782200  1
  O  O2457  1  0.288100  0.674000  0.282200  1
  O  O2458  1  0.924000  0.961900  0.532200  1
  O  O2459  1  0.788100  0.174000  0.782200  1
  O  O2460  1  0.424000  0.461900  0.032200  1
  O  O2461  1  0.424000  0.961900  0.967800  1
  O  O2462  1  0.288100  0.174000  0.717800  1
  O  O2463  1  0.924000  0.461900  0.467800  1
  O  O2464  1  0.788100  0.674000  0.217800  1
  O  O2465  1  0.711900  0.326000  0.717800  1
  O  O2466  1  0.076000  0.038100  0.467800  1
  O  O2467  1  0.211900  0.826000  0.217800  1
  O  O2468  1  0.576000  0.538100  0.967800  1
  O  O2469  1  0.564500  0.104900  0.062500  1
  O  O2470  1  0.645100  0.814500  0.312500  1
  O  O2471  1  0.064500  0.604900  0.562500  1
  O  O2472  1  0.145100  0.314500  0.812500  1
  O  O2473  1  0.354900  0.685500  0.312500  1
  O  O2474  1  0.935500  0.895100  0.562500  1
  O  O2475  1  0.854900  0.185500  0.812500  1
  O  O2476  1  0.435500  0.395100  0.062500  1
  O  O2477  1  0.435500  0.895100  0.937500  1
  O  O2478  1  0.354900  0.185500  0.687500  1
  O  O2479  1  0.935500  0.395100  0.437500  1
  O  O2480  1  0.854900  0.685500  0.187500  1
  O  O2481  1  0.645100  0.314500  0.687500  1
  O  O2482  1  0.064500  0.104900  0.437500  1
  O  O2483  1  0.145100  0.814500  0.187500  1
  O  O2484  1  0.564500  0.604900  0.937500  1
  O  O2485  1  0.734000  0.976000  0.955700  1
  O  O2486  1  0.774000  0.984000  0.205700  1
  O  O2487  1  0.234000  0.476000  0.455700  1
  O  O2488  1  0.274000  0.484000  0.705700  1
  O  O2489  1  0.226000  0.516000  0.205700  1
  O  O2490  1  0.766000  0.024000  0.455700  1
  O  O2491  1  0.726000  0.016000  0.705700  1
  O  O2492  1  0.266000  0.524000  0.955700  1
  O  O2493  1  0.266000  0.024000  0.044300  1
  O  O2494  1  0.226000  0.016000  0.794300  1
  O  O2495  1  0.766000  0.524000  0.544300  1
  O  O2496  1  0.726000  0.516000  0.294300  1
  O  O2497  1  0.774000  0.484000  0.794300  1
  O  O2498  1  0.234000  0.976000  0.544300  1
  O  O2499  1  0.274000  0.984000  0.294300  1
  O  O2500  1  0.734000  0.476000  0.044300  1
  O  O2501  1  0.530200  0.152700  0.350800  1
  O  O2502  1  0.597300  0.780200  0.600800  1
  O  O2503  1  0.030200  0.652700  0.850800  1
  O  O2504  1  0.097300  0.280200  0.100800  1
  O  O2505  1  0.402700  0.719800  0.600800  1
  O  O2506  1  0.969800  0.847300  0.850800  1
  O  O2507  1  0.902700  0.219800  0.100800  1
  O  O2508  1  0.469800  0.347300  0.350800  1
  O  O2509  1  0.469800  0.847300  0.649200  1
  O  O2510  1  0.402700  0.219800  0.399200  1
  O  O2511  1  0.969800  0.347300  0.149200  1
  O  O2512  1  0.902700  0.719800  0.899200  1
  O  O2513  1  0.597300  0.280200  0.399200  1
  O  O2514  1  0.030200  0.152700  0.149200  1
  O  O2515  1  0.097300  0.780200  0.899200  1
  O  O2516  1  0.530200  0.652700  0.649200  1
  O  O2517  1  0.506000  0.058700  0.241700  1
  O  O2518  1  0.691300  0.756000  0.491700  1
  O  O2519  1  0.006000  0.558700  0.741700  1
  O  O2520  1  0.191300  0.256000  0.991700  1
  O  O2521  1  0.308700  0.744000  0.491700  1
  O  O2522  1  0.994000  0.941300  0.741700  1
  O  O2523  1  0.808700  0.244000  0.991700  1
  O  O2524  1  0.494000  0.441300  0.241700  1
  O  O2525  1  0.494000  0.941300  0.758300  1
  O  O2526  1  0.308700  0.244000  0.508300  1
  O  O2527  1  0.994000  0.441300  0.258300  1
  O  O2528  1  0.808700  0.744000  0.008300  1
  O  O2529  1  0.691300  0.256000  0.508300  1
  O  O2530  1  0.006000  0.058700  0.258300  1
  O  O2531  1  0.191300  0.756000  0.008300  1
  O  O2532  1  0.506000  0.558700  0.758300  1
  O  O2533  1  0.603000  0.096100  0.245100  1
  O  O2534  1  0.653900  0.853000  0.495100  1
  O  O2535  1  0.103000  0.596100  0.745100  1
  O  O2536  1  0.153900  0.353000  0.995100  1
  O  O2537  1  0.346100  0.647000  0.495100  1
  O  O2538  1  0.897000  0.903900  0.745100  1
  O  O2539  1  0.846100  0.147000  0.995100  1
  O  O2540  1  0.397000  0.403900  0.245100  1
  O  O2541  1  0.397000  0.903900  0.754900  1
  O  O2542  1  0.346100  0.147000  0.504900  1
  O  O2543  1  0.897000  0.403900  0.254900  1
  O  O2544  1  0.846100  0.647000  0.004900  1
  O  O2545  1  0.653900  0.353000  0.504900  1
  O  O2546  1  0.103000  0.096100  0.254900  1
  O  O2547  1  0.153900  0.853000  0.004900  1
  O  O2548  1  0.603000  0.596100  0.754900  1
  O  O2549  1  0.470500  0.056800  0.086100  1
  O  O2550  1  0.693200  0.720500  0.336100  1
  O  O2551  1  0.970500  0.556800  0.586100  1
  O  O2552  1  0.193200  0.220500  0.836100  1
  O  O2553  1  0.306800  0.779500  0.336100  1
  O  O2554  1  0.029500  0.943200  0.586100  1
  O  O2555  1  0.806800  0.279500  0.836100  1
  O  O2556  1  0.529500  0.443200  0.086100  1
  O  O2557  1  0.529500  0.943200  0.913900  1
  O  O2558  1  0.306800  0.279500  0.663900  1
  O  O2559  1  0.029500  0.443200  0.413900  1
  O  O2560  1  0.806800  0.779500  0.163900  1
  O  O2561  1  0.693200  0.220500  0.663900  1
  O  O2562  1  0.970500  0.056800  0.413900  1
  O  O2563  1  0.193200  0.720500  0.163900  1
  O  O2564  1  0.470500  0.556800  0.913900  1
  O  O2565  1  0.704800  0.965500  0.947500  1
  O  O2566  1  0.784500  0.954800  0.197500  1
  O  O2567  1  0.204800  0.465500  0.447500  1
  O  O2568  1  0.284500  0.454800  0.697500  1
  O  O2569  1  0.215500  0.545200  0.197500  1
  O  O2570  1  0.795200  0.034500  0.447500  1
  O  O2571  1  0.715500  0.045200  0.697500  1
  O  O2572  1  0.295200  0.534500  0.947500  1
  O  O2573  1  0.295200  0.034500  0.052500  1
  O  O2574  1  0.215500  0.045200  0.802500  1
  O  O2575  1  0.795200  0.534500  0.552500  1
  O  O2576  1  0.715500  0.545200  0.302500  1
  O  O2577  1  0.784500  0.454800  0.802500  1
  O  O2578  1  0.204800  0.965500  0.552500  1
  O  O2579  1  0.284500  0.954800  0.302500  1
  O  O2580  1  0.704800  0.465500  0.052500  1
  O  O2581  1  0.633700  0.146300  0.298400  1
  O  O2582  1  0.603700  0.883700  0.548400  1
  O  O2583  1  0.133700  0.646300  0.798400  1
  O  O2584  1  0.103700  0.383700  0.048400  1
  O  O2585  1  0.396300  0.616300  0.548400  1
  O  O2586  1  0.866300  0.853700  0.798400  1
  O  O2587  1  0.896300  0.116300  0.048400  1
  O  O2588  1  0.366300  0.353700  0.298400  1
  O  O2589  1  0.366300  0.853700  0.701600  1
  O  O2590  1  0.396300  0.116300  0.451600  1
  O  O2591  1  0.866300  0.353700  0.201600  1
  O  O2592  1  0.896300  0.616300  0.951600  1
  O  O2593  1  0.603700  0.383700  0.451600  1
  O  O2594  1  0.133700  0.146300  0.201600  1
  O  O2595  1  0.103700  0.883700  0.951600  1
  O  O2596  1  0.633700  0.646300  0.701600  1
  O  O2597  1  0.344500  0.984400  0.296500  1
  O  O2598  1  0.765600  0.594500  0.546500  1
  O  O2599  1  0.844500  0.484400  0.796500  1
  O  O2600  1  0.265600  0.094500  0.046500  1
  O  O2601  1  0.234400  0.905500  0.546500  1
  O  O2602  1  0.155500  0.015600  0.796500  1
  O  O2603  1  0.734400  0.405500  0.046500  1
  O  O2604  1  0.655500  0.515600  0.296500  1
  O  O2605  1  0.655500  0.015600  0.703500  1
  O  O2606  1  0.234400  0.405500  0.453500  1
  O  O2607  1  0.155500  0.515600  0.203500  1
  O  O2608  1  0.734400  0.905500  0.953500  1
  O  O2609  1  0.765600  0.094500  0.453500  1
  O  O2610  1  0.844500  0.984400  0.203500  1
  O  O2611  1  0.265600  0.594500  0.953500  1
  O  O2612  1  0.344500  0.484400  0.703500  1
  O  O2613  1  0.635300  0.058000  0.997100  1
  O  O2614  1  0.692000  0.885300  0.247100  1
  O  O2615  1  0.135300  0.558000  0.497100  1
  O  O2616  1  0.192000  0.385300  0.747100  1
  O  O2617  1  0.308000  0.614700  0.247100  1
  O  O2618  1  0.864700  0.942000  0.497100  1
  O  O2619  1  0.808000  0.114700  0.747100  1
  O  O2620  1  0.364700  0.442000  0.997100  1
  O  O2621  1  0.364700  0.942000  0.002900  1
  O  O2622  1  0.308000  0.114700  0.752900  1
  O  O2623  1  0.864700  0.442000  0.502900  1
  O  O2624  1  0.808000  0.614700  0.252900  1
  O  O2625  1  0.692000  0.385300  0.752900  1
  O  O2626  1  0.135300  0.058000  0.502900  1
  O  O2627  1  0.192000  0.885300  0.252900  1
  O  O2628  1  0.635300  0.558000  0.002900  1
  O  O2629  1  0.603000  0.969000  0.951400  1
  O  O2630  1  0.781000  0.853000  0.201400  1
  O  O2631  1  0.103000  0.469000  0.451400  1
  O  O2632  1  0.281000  0.353000  0.701400  1
  O  O2633  1  0.219000  0.647000  0.201400  1
  O  O2634  1  0.897000  0.031000  0.451400  1
  O  O2635  1  0.719000  0.147000  0.701400  1
  O  O2636  1  0.397000  0.531000  0.951400  1
  O  O2637  1  0.397000  0.031000  0.048600  1
  O  O2638  1  0.219000  0.147000  0.798600  1
  O  O2639  1  0.897000  0.531000  0.548600  1
  O  O2640  1  0.719000  0.647000  0.298600  1
  O  O2641  1  0.781000  0.353000  0.798600  1
  O  O2642  1  0.103000  0.969000  0.548600  1
  O  O2643  1  0.281000  0.853000  0.298600  1
  O  O2644  1  0.603000  0.469000  0.048600  1
  O  O2645  1  0.319100  0.801400  0.372200  1
  O  O2646  1  0.948600  0.569100  0.622200  1
  O  O2647  1  0.819100  0.301400  0.872200  1
  O  O2648  1  0.448600  0.069100  0.122200  1
  O  O2649  1  0.051400  0.930900  0.622200  1
  O  O2650  1  0.180900  0.198600  0.872200  1
  O  O2651  1  0.551400  0.430900  0.122200  1
  O  O2652  1  0.680900  0.698600  0.372200  1
  O  O2653  1  0.680900  0.198600  0.627800  1
  O  O2654  1  0.051400  0.430900  0.377800  1
  O  O2655  1  0.180900  0.698600  0.127800  1
  O  O2656  1  0.551400  0.930900  0.877800  1
  O  O2657  1  0.948600  0.069100  0.377800  1
  O  O2658  1  0.819100  0.801400  0.127800  1
  O  O2659  1  0.448600  0.569100  0.877800  1
  O  O2660  1  0.319100  0.301400  0.627800  1
  O  O2661  1  0.670000  0.900000  0.898300  1
  O  O2662  1  0.850000  0.920000  0.148300  1
  O  O2663  1  0.170000  0.400000  0.398300  1
  O  O2664  1  0.350000  0.420000  0.648300  1
  O  O2665  1  0.150000  0.580000  0.148300  1
  O  O2666  1  0.830000  0.100000  0.398300  1
  O  O2667  1  0.650000  0.080000  0.648300  1
  O  O2668  1  0.330000  0.600000  0.898300  1
  O  O2669  1  0.330000  0.100000  0.101700  1
  O  O2670  1  0.150000  0.080000  0.851700  1
  O  O2671  1  0.830000  0.600000  0.601700  1
  O  O2672  1  0.650000  0.580000  0.351700  1
  O  O2673  1  0.850000  0.420000  0.851700  1
  O  O2674  1  0.170000  0.900000  0.601700  1
  O  O2675  1  0.350000  0.920000  0.351700  1
  O  O2676  1  0.670000  0.400000  0.101700  1
  O  O2677  1  0.338600  0.748100  0.326200  1
  O  O2678  1  0.001900  0.588600  0.576200  1
  O  O2679  1  0.838600  0.248100  0.826200  1
  O  O2680  1  0.501900  0.088600  0.076200  1
  O  O2681  1  0.998100  0.911400  0.576200  1
  O  O2682  1  0.161400  0.251900  0.826200  1
  O  O2683  1  0.498100  0.411400  0.076200  1
  O  O2684  1  0.661400  0.751900  0.326200  1
  O  O2685  1  0.661400  0.251900  0.673800  1
  O  O2686  1  0.998100  0.411400  0.423800  1
  O  O2687  1  0.161400  0.751900  0.173800  1
  O  O2688  1  0.498100  0.911400  0.923800  1
  O  O2689  1  0.001900  0.088600  0.423800  1
  O  O2690  1  0.838600  0.748100  0.173800  1
  O  O2691  1  0.501900  0.588600  0.923800  1
  O  O2692  1  0.338600  0.248100  0.673800  1
  O  O2693  1  0.333700  0.827600  0.407800  1
  O  O2694  1  0.922400  0.583700  0.657800  1
  O  O2695  1  0.833700  0.327600  0.907800  1
  O  O2696  1  0.422400  0.083700  0.157800  1
  O  O2697  1  0.077600  0.916300  0.657800  1
  O  O2698  1  0.166300  0.172400  0.907800  1
  O  O2699  1  0.577600  0.416300  0.157800  1
  O  O2700  1  0.666300  0.672400  0.407800  1
  O  O2701  1  0.666300  0.172400  0.592200  1
  O  O2702  1  0.077600  0.416300  0.342200  1
  O  O2703  1  0.166300  0.672400  0.092200  1
  O  O2704  1  0.577600  0.916300  0.842200  1
  O  O2705  1  0.922400  0.083700  0.342200  1
  O  O2706  1  0.833700  0.827600  0.092200  1
  O  O2707  1  0.422400  0.583700  0.842200  1
  O  O2708  1  0.333700  0.327600  0.592200  1
  O  O2709  1  0.455900  0.996000  0.320200  1
  O  O2710  1  0.754000  0.705900  0.570200  1
  O  O2711  1  0.955900  0.496000  0.820200  1
  O  O2712  1  0.254000  0.205900  0.070200  1
  O  O2713  1  0.246000  0.794100  0.570200  1
  O  O2714  1  0.044100  0.004000  0.820200  1
  O  O2715  1  0.746000  0.294100  0.070200  1
  O  O2716  1  0.544100  0.504000  0.320200  1
  O  O2717  1  0.544100  0.004000  0.679800  1
  O  O2718  1  0.246000  0.294100  0.429800  1
  O  O2719  1  0.044100  0.504000  0.179800  1
  O  O2720  1  0.746000  0.794100  0.929800  1
  O  O2721  1  0.754000  0.205900  0.429800  1
  O  O2722  1  0.955900  0.996000  0.179800  1
  O  O2723  1  0.254000  0.705900  0.929800  1
  O  O2724  1  0.455900  0.496000  0.679800  1
  O  O2725  1  0.484600  0.940500  0.398300  1
  O  O2726  1  0.809500  0.734600  0.648300  1
  O  O2727  1  0.984600  0.440500  0.898300  1
  O  O2728  1  0.309500  0.234600  0.148300  1
  O  O2729  1  0.190500  0.765400  0.648300  1
  O  O2730  1  0.015400  0.059500  0.898300  1
  O  O2731  1  0.690500  0.265400  0.148300  1
  O  O2732  1  0.515400  0.559500  0.398300  1
  O  O2733  1  0.515400  0.059500  0.601700  1
  O  O2734  1  0.190500  0.265400  0.351700  1
  O  O2735  1  0.015400  0.559500  0.101700  1
  O  O2736  1  0.690500  0.765400  0.851700  1
  O  O2737  1  0.809500  0.234600  0.351700  1
  O  O2738  1  0.984600  0.940500  0.101700  1
  O  O2739  1  0.309500  0.734600  0.851700  1
  O  O2740  1  0.484600  0.440500  0.601700  1
  O  O2741  1  0.385000  0.911000  0.415000  1
  O  O2742  1  0.839000  0.635000  0.665000  1
  O  O2743  1  0.885000  0.411000  0.915000  1
  O  O2744  1  0.339000  0.135000  0.165000  1
  O  O2745  1  0.161000  0.865000  0.665000  1
  O  O2746  1  0.115000  0.089000  0.915000  1
  O  O2747  1  0.661000  0.365000  0.165000  1
  O  O2748  1  0.615000  0.589000  0.415000  1
  O  O2749  1  0.615000  0.089000  0.585000  1
  O  O2750  1  0.161000  0.365000  0.335000  1
  O  O2751  1  0.115000  0.589000  0.085000  1
  O  O2752  1  0.661000  0.865000  0.835000  1
  O  O2753  1  0.839000  0.135000  0.335000  1
  O  O2754  1  0.885000  0.911000  0.085000  1
  O  O2755  1  0.339000  0.635000  0.835000  1
  O  O2756  1  0.385000  0.411000  0.585000  1
  O  O2757  1  0.649000  0.936000  0.930600  1
  O  O2758  1  0.814000  0.899000  0.180600  1
  O  O2759  1  0.149000  0.436000  0.430600  1
  O  O2760  1  0.314000  0.399000  0.680600  1
  O  O2761  1  0.186000  0.601000  0.180600  1
  O  O2762  1  0.851000  0.064000  0.430600  1
  O  O2763  1  0.686000  0.101000  0.680600  1
  O  O2764  1  0.351000  0.564000  0.930600  1
  O  O2765  1  0.351000  0.064000  0.069400  1
  O  O2766  1  0.186000  0.101000  0.819400  1
  O  O2767  1  0.851000  0.564000  0.569400  1
  O  O2768  1  0.686000  0.601000  0.319400  1
  O  O2769  1  0.814000  0.399000  0.819400  1
  O  O2770  1  0.149000  0.936000  0.569400  1
  O  O2771  1  0.314000  0.899000  0.319400  1
  O  O2772  1  0.649000  0.436000  0.069400  1
  O  O2773  1  0.760000  0.952000  0.978000  1
  O  O2774  1  0.798000  0.010000  0.228000  1
  O  O2775  1  0.260000  0.452000  0.478000  1
  O  O2776  1  0.298000  0.510000  0.728000  1
  O  O2777  1  0.202000  0.490000  0.228000  1
  O  O2778  1  0.740000  0.048000  0.478000  1
  O  O2779  1  0.702000  0.990000  0.728000  1
  O  O2780  1  0.240000  0.548000  0.978000  1
  O  O2781  1  0.240000  0.048000  0.022000  1
  O  O2782  1  0.202000  0.990000  0.772000  1
  O  O2783  1  0.740000  0.548000  0.522000  1
  O  O2784  1  0.702000  0.490000  0.272000  1
  O  O2785  1  0.798000  0.510000  0.772000  1
  O  O2786  1  0.260000  0.952000  0.522000  1
  O  O2787  1  0.298000  0.010000  0.272000  1
  O  O2788  1  0.760000  0.452000  0.022000  1
  O  O2789  1  0.467000  0.008000  0.476000  1
  O  O2790  1  0.742000  0.717000  0.726000  1
  O  O2791  1  0.967000  0.508000  0.976000  1
  O  O2792  1  0.242000  0.217000  0.226000  1
  O  O2793  1  0.258000  0.783000  0.726000  1
  O  O2794  1  0.033000  0.992000  0.976000  1
  O  O2795  1  0.758000  0.283000  0.226000  1
  O  O2796  1  0.533000  0.492000  0.476000  1
  O  O2797  1  0.533000  0.992000  0.524000  1
  O  O2798  1  0.258000  0.283000  0.274000  1
  O  O2799  1  0.033000  0.492000  0.024000  1
  O  O2800  1  0.758000  0.783000  0.774000  1
  O  O2801  1  0.742000  0.217000  0.274000  1
  O  O2802  1  0.967000  0.008000  0.024000  1
  O  O2803  1  0.242000  0.717000  0.774000  1
  O  O2804  1  0.467000  0.508000  0.524000  1
  O  O2805  1  0.368300  0.759500  0.134200  1.0
  O  O2806  1  0.990500  0.618300  0.384200  1.0
  O  O2807  1  0.868300  0.259500  0.634200  1.0
  O  O2808  1  0.490500  0.118300  0.884200  1.0
  O  O2809  1  0.009500  0.881700  0.384200  1.0
  O  O2810  1  0.131700  0.240500  0.634200  1.0
  O  O2811  1  0.509500  0.381700  0.884200  1.0
  O  O2812  1  0.631700  0.740500  0.134200  1.0
  O  O2813  1  0.631700  0.240500  0.865800  1.0
  O  O2814  1  0.009500  0.381700  0.615800  1.0
  O  O2815  1  0.131700  0.740500  0.365800  1.0
  O  O2816  1  0.509500  0.881700  0.115800  1.0
  O  O2817  1  0.990500  0.118300  0.615800  1.0
  O  O2818  1  0.868300  0.759500  0.365800  1.0
  O  O2819  1  0.490500  0.618300  0.115800  1.0
  O  O2820  1  0.368300  0.259500  0.865800  1.0
  O  O2821  1  0.419100  0.718000  0.058000  1.0
  O  O2822  1  0.032000  0.669100  0.308000  1.0
  O  O2823  1  0.919100  0.218000  0.558000  1.0
  O  O2824  1  0.532000  0.169100  0.808000  1.0
  O  O2825  1  0.968000  0.830900  0.308000  1.0
  O  O2826  1  0.080900  0.282000  0.558000  1.0
  O  O2827  1  0.468000  0.330900  0.808000  1.0
  O  O2828  1  0.580900  0.782000  0.058000  1.0
  O  O2829  1  0.580900  0.282000  0.942000  1.0
  O  O2830  1  0.968000  0.330900  0.692000  1.0
  O  O2831  1  0.080900  0.782000  0.442000  1.0
  O  O2832  1  0.468000  0.830900  0.192000  1.0
  O  O2833  1  0.032000  0.169100  0.692000  1.0
  O  O2834  1  0.919100  0.718000  0.442000  1.0
  O  O2835  1  0.532000  0.669100  0.192000  1.0
  O  O2836  1  0.419100  0.218000  0.942000  1.0
  O  O2837  1  0.416500  0.752200  0.051400  1.0
  O  O2838  1  0.997800  0.666500  0.301400  1.0
  O  O2839  1  0.916500  0.252200  0.551400  1.0
  O  O2840  1  0.497800  0.166500  0.801400  1.0
  O  O2841  1  0.002200  0.833500  0.301400  1.0
  O  O2842  1  0.083500  0.247800  0.551400  1.0
  O  O2843  1  0.502200  0.333500  0.801400  1.0
  O  O2844  1  0.583500  0.747800  0.051400  1.0
  O  O2845  1  0.583500  0.247800  0.948600  1.0
  O  O2846  1  0.002200  0.333500  0.698600  1.0
  O  O2847  1  0.083500  0.747800  0.448600  1.0
  O  O2848  1  0.502200  0.833500  0.198600  1.0
  O  O2849  1  0.997800  0.166500  0.698600  1.0
  O  O2850  1  0.916500  0.752200  0.448600  1.0
  O  O2851  1  0.497800  0.666500  0.198600  1.0
  O  O2852  1  0.416500  0.252200  0.948600  1.0
