# generated using pymatgen
data_Co8B20H264C336N72O41F71
_symmetry_space_group_name_H-M   'P 1'
_cell_length_a   22.26279045
_cell_length_b   22.26279045
_cell_length_c   40.03920000
_cell_angle_alpha   85.40167756
_cell_angle_beta   85.40167756
_cell_angle_gamma   84.44847462
_symmetry_Int_Tables_number   1
_chemical_formula_structural   Co8B20H264C336N72O41F71
_chemical_formula_sum   'Co16 B40 H528 C672 N144 O82 F142'
_cell_volume   19635.53195400
_cell_formula_units_Z   2
loop_
 _symmetry_equiv_pos_site_id
 _symmetry_equiv_pos_as_xyz
  1  'x, y, z'
loop_
 _atom_site_type_symbol
 _atom_site_label
 _atom_site_symmetry_multiplicity
 _atom_site_fract_x
 _atom_site_fract_y
 _atom_site_fract_z
 _atom_site_occupancy
  B  B1  1  0.285740  0.377740  0.570130  1
  B  B2  1  0.622260  0.714260  0.929870  1
  B  B3  1  0.714260  0.622260  0.429870  1
  B  B4  1  0.377740  0.285740  0.070130  1
  B  B5  1  0.621100  0.441100  0.157100  1
  B  B6  1  0.558900  0.378900  0.342900  1
  B  B7  1  0.378900  0.558900  0.842900  1
  B  B8  1  0.441100  0.621100  0.657100  1
  B  B9  1  0.024900  0.758300  0.554100  1
  B  B10  1  0.241700  0.975100  0.945900  1
  B  B11  1  0.975100  0.241700  0.445900  1
  B  B12  1  0.758300  0.024900  0.054100  1
  B  B13  1  0.133200  0.570400  0.343040  1
  B  B14  1  0.429600  0.866800  0.156960  1
  B  B15  1  0.866800  0.429600  0.656960  1
  B  B16  1  0.570400  0.133200  0.843040  1
  B  B17  1  0.076200  0.509400  0.192000  1
  B  B18  1  0.490600  0.923800  0.308000  1
  B  B19  1  0.923800  0.490600  0.808000  1
  B  B20  1  0.509400  0.076200  0.692000  1
  B  B21  1  0.174800  0.002200  0.390100  1
  B  B22  1  0.997800  0.825200  0.109900  1
  B  B23  1  0.825200  0.997800  0.609900  1
  B  B24  1  0.002200  0.174800  0.890100  1
  B  B25  1  0.717200  0.070800  0.492700  1
  B  B26  1  0.929200  0.282800  0.007300  1
  B  B27  1  0.282800  0.929200  0.507300  1
  B  B28  1  0.070800  0.717200  0.992700  1
  B  B29  1  0.642900  0.459500  0.140700  1
  B  B30  1  0.540500  0.357100  0.359300  1
  B  B31  1  0.357100  0.540500  0.859300  1
  B  B32  1  0.459500  0.642900  0.640700  1
  B  B33  1  0.020000  0.727400  0.547700  1
  B  B34  1  0.272600  0.980000  0.952300  1
  B  B35  1  0.980000  0.272600  0.452300  1
  B  B36  1  0.727400  0.020000  0.047700  1
  B  B37  1  0.822800  0.158800  0.261200  1
  B  B38  1  0.841200  0.177200  0.238800  1
  B  B39  1  0.177200  0.841200  0.738800  1
  B  B40  1  0.158800  0.822800  0.761200  1
  C  C41  1  0.908200  0.985800  0.311200  1.0
  C  C42  1  0.014200  0.091800  0.188800  1.0
  C  C43  1  0.091800  0.014200  0.688800  1.0
  C  C44  1  0.985800  0.908200  0.811200  1.0
  C  C45  1  0.907600  0.044200  0.297600  1.0
  C  C46  1  0.955800  0.092400  0.202400  1.0
  C  C47  1  0.092400  0.955800  0.702400  1.0
  C  C48  1  0.044200  0.907600  0.797600  1.0
  C  C49  1  0.939100  0.081700  0.312100  1.0
  C  C50  1  0.918300  0.060900  0.187900  1.0
  C  C51  1  0.060900  0.918300  0.687900  1.0
  C  C52  1  0.081700  0.939100  0.812100  1.0
  C  C53  1  0.966800  0.064800  0.341800  1.0
  C  C54  1  0.935200  0.033200  0.158200  1.0
  C  C55  1  0.033200  0.935200  0.658200  1.0
  C  C56  1  0.064800  0.966800  0.841800  1.0
  C  C57  1  0.969900  0.004500  0.351100  1.0
  C  C58  1  0.995500  0.030100  0.148900  1.0
  C  C59  1  0.030100  0.995500  0.648900  1.0
  C  C60  1  0.004500  0.969900  0.851100  1.0
  C  C61  1  0.872400  0.942400  0.298800  1.0
  C  C62  1  0.057600  0.127600  0.201200  1.0
  C  C63  1  0.127600  0.057600  0.701200  1.0
  C  C64  1  0.942400  0.872400  0.798800  1.0
  C  C65  1  0.833400  0.948800  0.273300  1.0
  C  C66  1  0.051200  0.166600  0.226700  1.0
  C  C67  1  0.166600  0.051200  0.726700  1.0
  C  C68  1  0.948800  0.833400  0.773300  1.0
  C  C69  1  0.811300  0.894300  0.273600  1.0
  C  C70  1  0.105700  0.188700  0.226400  1.0
  C  C71  1  0.188700  0.105700  0.726400  1.0
  C  C72  1  0.894300  0.811300  0.773600  1.0
  C  C73  1  0.825700  0.794900  0.309090  1.0
  C  C74  1  0.205100  0.174300  0.190910  1.0
  C  C75  1  0.174300  0.205100  0.690910  1.0
  C  C76  1  0.794900  0.825700  0.809090  1.0
  C  C77  1  0.900340  0.338740  0.338300  1.0
  C  C78  1  0.661260  0.099660  0.161700  1.0
  C  C79  1  0.099660  0.661260  0.661700  1.0
  C  C80  1  0.338740  0.900340  0.838300  1.0
  C  C81  1  0.902400  0.291400  0.363470  1.0
  C  C82  1  0.708600  0.097600  0.136530  1.0
  C  C83  1  0.097600  0.708600  0.636530  1.0
  C  C84  1  0.291400  0.902400  0.863470  1.0
  C  C85  1  0.873100  0.240500  0.359840  1.0
  C  C86  1  0.759500  0.126900  0.140160  1.0
  C  C87  1  0.126900  0.759500  0.640160  1.0
  C  C88  1  0.240500  0.873100  0.859840  1.0
  C  C89  1  0.842900  0.238700  0.330730  1.0
  C  C90  1  0.761300  0.157100  0.169270  1.0
  C  C91  1  0.157100  0.761300  0.669270  1.0
  C  C92  1  0.238700  0.842900  0.830730  1.0
  C  C93  1  0.842890  0.286890  0.306980  1.0
  C  C94  1  0.713110  0.157110  0.193020  1.0
  C  C95  1  0.157110  0.713110  0.693020  1.0
  C  C96  1  0.286890  0.842890  0.806980  1.0
  C  C97  1  0.931800  0.393400  0.340270  1.0
  C  C98  1  0.606600  0.068200  0.159730  1.0
  C  C99  1  0.068200  0.606600  0.659730  1.0
  C  C100  1  0.393400  0.931800  0.840270  1.0
  C  C101  1  0.969350  0.407750  0.364510  1.0
  C  C102  1  0.592250  0.030650  0.135490  1.0
  C  C103  1  0.030650  0.592250  0.635490  1.0
  C  C104  1  0.407750  0.969350  0.864510  1.0
  C  C105  1  0.989180  0.461980  0.352380  1.0
  C  C106  1  0.538020  0.010820  0.147620  1.0
  C  C107  1  0.010820  0.538020  0.647620  1.0
  C  C108  1  0.461980  0.989180  0.852380  1.0
  C  C109  1  0.970320  0.535120  0.303260  1.0
  C  C110  1  0.464880  0.029680  0.196740  1.0
  C  C111  1  0.029680  0.464880  0.696740  1.0
  C  C112  1  0.535120  0.970320  0.803260  1.0
  C  C113  1  0.877160  0.749160  0.296030  1.0
  C  C114  1  0.250840  0.122840  0.203970  1.0
  C  C115  1  0.122840  0.250840  0.703970  1.0
  C  C116  1  0.749160  0.877160  0.796030  1.0
  C  C117  1  0.923000  0.764200  0.273550  1.0
  C  C118  1  0.235800  0.077000  0.226450  1.0
  C  C119  1  0.077000  0.235800  0.726450  1.0
  C  C120  1  0.764200  0.923000  0.773550  1.0
  C  C121  1  0.969100  0.720100  0.263030  1.0
  C  C122  1  0.279900  0.030900  0.236970  1.0
  C  C123  1  0.030900  0.279900  0.736970  1.0
  C  C124  1  0.720100  0.969100  0.763030  1.0
  C  C125  1  0.969210  0.660810  0.275380  1.0
  C  C126  1  0.339190  0.030790  0.224620  1.0
  C  C127  1  0.030790  0.339190  0.724620  1.0
  C  C128  1  0.660810  0.969210  0.775380  1.0
  C  C129  1  0.921920  0.643120  0.299270  1.0
  C  C130  1  0.356880  0.078080  0.200730  1.0
  C  C131  1  0.078080  0.356880  0.700730  1.0
  C  C132  1  0.643120  0.921920  0.799270  1.0
  C  C133  1  0.874470  0.687270  0.309000  1.0
  C  C134  1  0.312730  0.125530  0.191000  1.0
  C  C135  1  0.125530  0.312730  0.691000  1.0
  C  C136  1  0.687270  0.874470  0.809000  1.0
  C  C137  1  0.827160  0.668560  0.332260  1.0
  C  C138  1  0.331440  0.172840  0.167740  1.0
  C  C139  1  0.172840  0.331440  0.667740  1.0
  C  C140  1  0.668560  0.827160  0.832260  1.0
  C  C141  1  0.826930  0.611730  0.345590  1.0
  C  C142  1  0.388270  0.173070  0.154410  1.0
  C  C143  1  0.173070  0.388270  0.654410  1.0
  C  C144  1  0.611730  0.826930  0.845590  1.0
  C  C145  1  0.874790  0.567990  0.336480  1.0
  C  C146  1  0.432010  0.125210  0.163520  1.0
  C  C147  1  0.125210  0.432010  0.663520  1.0
  C  C148  1  0.567990  0.874790  0.836480  1.0
  C  C149  1  0.920160  0.582760  0.313890  1.0
  C  C150  1  0.417240  0.079840  0.186110  1.0
  C  C151  1  0.079840  0.417240  0.686110  1.0
  C  C152  1  0.582760  0.920160  0.813890  1.0
  C  C153  1  0.388100  0.698300  0.532950  1.0
  C  C154  1  0.301700  0.611900  0.967050  1.0
  C  C155  1  0.611900  0.301700  0.467050  1.0
  C  C156  1  0.698300  0.388100  0.032950  1.0
  C  C157  1  0.406600  0.725400  0.560660  1.0
  C  C158  1  0.274600  0.593400  0.939340  1.0
  C  C159  1  0.593400  0.274600  0.439340  1.0
  C  C160  1  0.725400  0.406600  0.060660  1.0
  C  C161  1  0.418200  0.786000  0.556800  1.0
  C  C162  1  0.214000  0.581800  0.943200  1.0
  C  C163  1  0.581800  0.214000  0.443200  1.0
  C  C164  1  0.786000  0.418200  0.056800  1.0
  C  C165  1  0.414000  0.815800  0.525700  1.0
  C  C166  1  0.184200  0.586000  0.974300  1.0
  C  C167  1  0.586000  0.184200  0.474300  1.0
  C  C168  1  0.815800  0.414000  0.025700  1.0
  C  C169  1  0.396100  0.787700  0.499200  1.0
  C  C170  1  0.212300  0.603900  0.000800  1.0
  C  C171  1  0.603900  0.212300  0.500800  1.0
  C  C172  1  0.787700  0.396100  0.999200  1.0
  C  C173  1  0.370920  0.638920  0.534820  1.0
  C  C174  1  0.361080  0.629080  0.965180  1.0
  C  C175  1  0.629080  0.361080  0.465180  1.0
  C  C176  1  0.638920  0.370920  0.034820  1.0
  C  C177  1  0.372600  0.592400  0.561540  1.0
  C  C178  1  0.407600  0.627400  0.938460  1.0
  C  C179  1  0.627400  0.407600  0.438460  1.0
  C  C180  1  0.592400  0.372600  0.061540  1.0
  C  C181  1  0.344500  0.546100  0.550430  1.0
  C  C182  1  0.453900  0.655500  0.949570  1.0
  C  C183  1  0.655500  0.453900  0.449570  1.0
  C  C184  1  0.546100  0.344500  0.050430  1.0
  C  C185  1  0.300370  0.528570  0.496940  1.0
  C  C186  1  0.471430  0.699630  0.003060  1.0
  C  C187  1  0.699630  0.471430  0.503060  1.0
  C  C188  1  0.528570  0.300370  0.996940  1.0
  C  C189  1  0.267720  0.229920  0.325270  1.0
  C  C190  1  0.770080  0.732280  0.174730  1.0
  C  C191  1  0.732280  0.770080  0.674730  1.0
  C  C192  1  0.229920  0.267720  0.825270  1.0
  C  C193  1  0.232100  0.219900  0.299110  1.0
  C  C194  1  0.780100  0.767900  0.200890  1.0
  C  C195  1  0.767900  0.780100  0.700890  1.0
  C  C196  1  0.219900  0.232100  0.799110  1.0
  C  C197  1  0.209200  0.164000  0.299450  1.0
  C  C198  1  0.836000  0.790800  0.200550  1.0
  C  C199  1  0.790800  0.836000  0.700550  1.0
  C  C200  1  0.164000  0.209200  0.799450  1.0
  C  C201  1  0.221200  0.121800  0.324600  1.0
  C  C202  1  0.878200  0.778800  0.175400  1.0
  C  C203  1  0.778800  0.878200  0.675400  1.0
  C  C204  1  0.121800  0.221200  0.824600  1.0
  C  C205  1  0.254060  0.133860  0.349510  1.0
  C  C206  1  0.866140  0.745940  0.150490  1.0
  C  C207  1  0.745940  0.866140  0.650490  1.0
  C  C208  1  0.133860  0.254060  0.849510  1.0
  C  C209  1  0.295800  0.284800  0.326880  1.0
  C  C210  1  0.715200  0.704200  0.173120  1.0
  C  C211  1  0.704200  0.715200  0.673120  1.0
  C  C212  1  0.284800  0.295800  0.826880  1.0
  C  C213  1  0.301800  0.334600  0.302160  1.0
  C  C214  1  0.665400  0.698200  0.197840  1.0
  C  C215  1  0.698200  0.665400  0.697840  1.0
  C  C216  1  0.334600  0.301800  0.802160  1.0
  C  C217  1  0.335800  0.371200  0.317100  1.0
  C  C218  1  0.628800  0.664200  0.182900  1.0
  C  C219  1  0.664200  0.628800  0.682900  1.0
  C  C220  1  0.371200  0.335800  0.817100  1.0
  C  C221  1  0.379100  0.371300  0.373200  1.0
  C  C222  1  0.628700  0.620900  0.126800  1.0
  C  C223  1  0.620900  0.628700  0.626800  1.0
  C  C224  1  0.371300  0.379100  0.873200  1.0
  C  C225  1  0.344080  0.491080  0.473710  1.0
  C  C226  1  0.508920  0.655920  0.026290  1.0
  C  C227  1  0.655920  0.508920  0.526290  1.0
  C  C228  1  0.491080  0.344080  0.973710  1.0
  C  C229  1  0.404800  0.485000  0.477860  1.0
  C  C230  1  0.515000  0.595200  0.022140  1.0
  C  C231  1  0.595200  0.515000  0.522140  1.0
  C  C232  1  0.485000  0.404800  0.977860  1.0
  C  C233  1  0.445100  0.448700  0.455950  1.0
  C  C234  1  0.551300  0.554900  0.044050  1.0
  C  C235  1  0.554900  0.551300  0.544050  1.0
  C  C236  1  0.448700  0.445100  0.955950  1.0
  C  C237  1  0.423470  0.423270  0.430860  1.0
  C  C238  1  0.576730  0.576530  0.069140  1.0
  C  C239  1  0.576530  0.576730  0.569140  1.0
  C  C240  1  0.423270  0.423470  0.930860  1.0
  C  C241  1  0.361640  0.430040  0.426050  1.0
  C  C242  1  0.569960  0.638360  0.073950  1.0
  C  C243  1  0.638360  0.569960  0.573950  1.0
  C  C244  1  0.430040  0.361640  0.926050  1.0
  C  C245  1  0.321360  0.462760  0.448120  1.0
  C  C246  1  0.537240  0.678640  0.051880  1.0
  C  C247  1  0.678640  0.537240  0.551880  1.0
  C  C248  1  0.462760  0.321360  0.948120  1.0
  C  C249  1  0.257650  0.470050  0.442980  1.0
  C  C250  1  0.529950  0.742350  0.057020  1.0
  C  C251  1  0.742350  0.529950  0.557020  1.0
  C  C252  1  0.470050  0.257650  0.942980  1.0
  C  C253  1  0.236980  0.446980  0.416690  1.0
  C  C254  1  0.553020  0.763020  0.083310  1.0
  C  C255  1  0.763020  0.553020  0.583310  1.0
  C  C256  1  0.446980  0.236980  0.916690  1.0
  C  C257  1  0.276850  0.416650  0.393140  1.0
  C  C258  1  0.583350  0.723150  0.106860  1.0
  C  C259  1  0.723150  0.583350  0.606860  1.0
  C  C260  1  0.416650  0.276850  0.893140  1.0
  C  C261  1  0.336750  0.406950  0.397650  1.0
  C  C262  1  0.593050  0.663250  0.102350  1.0
  C  C263  1  0.663250  0.593050  0.602350  1.0
  C  C264  1  0.406950  0.336750  0.897650  1.0
  C  C265  1  0.312900  0.278900  0.454010  1.0
  C  C266  1  0.721100  0.687100  0.045990  1.0
  C  C267  1  0.687100  0.721100  0.545990  1.0
  C  C268  1  0.278900  0.312900  0.954010  1.0
  C  C269  1  0.328000  0.298200  0.484090  1.0
  C  C270  1  0.701800  0.672000  0.015910  1.0
  C  C271  1  0.672000  0.701800  0.515910  1.0
  C  C272  1  0.298200  0.328000  0.984090  1.0
  C  C273  1  0.385000  0.290400  0.492000  1.0
  C  C274  1  0.709600  0.615000  0.008000  1.0
  C  C275  1  0.615000  0.709600  0.508000  1.0
  C  C276  1  0.290400  0.385000  0.992000  1.0
  C  C277  1  0.429000  0.261800  0.471000  1.0
  C  C278  1  0.738200  0.571000  0.029000  1.0
  C  C279  1  0.571000  0.738200  0.529000  1.0
  C  C280  1  0.261800  0.429000  0.971000  1.0
  C  C281  1  0.411000  0.243600  0.441000  1.0
  C  C282  1  0.756400  0.589000  0.059000  1.0
  C  C283  1  0.589000  0.756400  0.559000  1.0
  C  C284  1  0.243600  0.411000  0.941000  1.0
  C  C285  1  0.250800  0.281400  0.444770  1.0
  C  C286  1  0.718600  0.749200  0.055230  1.0
  C  C287  1  0.749200  0.718600  0.555230  1.0
  C  C288  1  0.281400  0.250800  0.944770  1.0
  C  C289  1  0.197500  0.308300  0.460140  1.0
  C  C290  1  0.691700  0.802500  0.039860  1.0
  C  C291  1  0.802500  0.691700  0.539860  1.0
  C  C292  1  0.308300  0.197500  0.960140  1.0
  C  C293  1  0.153300  0.293500  0.443300  1.0
  C  C294  1  0.706500  0.846700  0.056700  1.0
  C  C295  1  0.846700  0.706500  0.556700  1.0
  C  C296  1  0.293500  0.153300  0.943300  1.0
  C  C297  1  0.143850  0.242050  0.391640  1.0
  C  C298  1  0.757950  0.856150  0.108360  1.0
  C  C299  1  0.856150  0.757950  0.608360  1.0
  C  C300  1  0.242050  0.143850  0.891640  1.0
  C  C301  1  0.846600  0.350600  0.216290  1.0
  C  C302  1  0.649400  0.153400  0.283710  1.0
  C  C303  1  0.153400  0.649400  0.783710  1.0
  C  C304  1  0.350600  0.846600  0.716290  1.0
  C  C305  1  0.815800  0.327800  0.191500  1.0
  C  C306  1  0.672200  0.184200  0.308500  1.0
  C  C307  1  0.184200  0.672200  0.808500  1.0
  C  C308  1  0.327800  0.815800  0.691500  1.0
  C  C309  1  0.756800  0.334000  0.191900  1.0
  C  C310  1  0.666000  0.243200  0.308100  1.0
  C  C311  1  0.243200  0.666000  0.808100  1.0
  C  C312  1  0.334000  0.756800  0.691900  1.0
  C  C313  1  0.722900  0.365300  0.217300  1.0
  C  C314  1  0.634700  0.277100  0.282700  1.0
  C  C315  1  0.277100  0.634700  0.782700  1.0
  C  C316  1  0.365300  0.722900  0.717300  1.0
  C  C317  1  0.755630  0.387230  0.242320  1.0
  C  C318  1  0.612770  0.244370  0.257680  1.0
  C  C319  1  0.244370  0.612770  0.757680  1.0
  C  C320  1  0.387230  0.755630  0.742320  1.0
  C  C321  1  0.911600  0.345800  0.217170  1.0
  C  C322  1  0.654200  0.088400  0.282830  1.0
  C  C323  1  0.088400  0.654200  0.782830  1.0
  C  C324  1  0.345800  0.911600  0.717170  1.0
  C  C325  1  0.958600  0.320600  0.195720  1.0
  C  C326  1  0.679400  0.041400  0.304280  1.0
  C  C327  1  0.041400  0.679400  0.804280  1.0
  C  C328  1  0.320600  0.958600  0.695720  1.0
  C  C329  1  0.011100  0.331100  0.207840  1.0
  C  C330  1  0.668900  0.988900  0.292160  1.0
  C  C331  1  0.988900  0.668900  0.792160  1.0
  C  C332  1  0.331100  0.011100  0.707840  1.0
  C  C333  1  0.038360  0.373760  0.260310  1.0
  C  C334  1  0.626240  0.961640  0.239690  1.0
  C  C335  1  0.961640  0.626240  0.739690  1.0
  C  C336  1  0.373760  0.038360  0.760310  1.0
  C  C337  1  0.133640  0.291440  0.364120  1.0
  C  C338  1  0.708560  0.866360  0.135880  1.0
  C  C339  1  0.866360  0.708560  0.635880  1.0
  C  C340  1  0.291440  0.133640  0.864120  1.0
  C  C341  1  0.159400  0.344600  0.364000  1.0
  C  C342  1  0.655400  0.840600  0.136000  1.0
  C  C343  1  0.840600  0.655400  0.636000  1.0
  C  C344  1  0.344600  0.159400  0.864000  1.0
  C  C345  1  0.151000  0.390000  0.338700  1.0
  C  C346  1  0.610000  0.849000  0.161300  1.0
  C  C347  1  0.849000  0.610000  0.661300  1.0
  C  C348  1  0.390000  0.151000  0.838700  1.0
  C  C349  1  0.115670  0.384070  0.313580  1.0
  C  C350  1  0.615930  0.884330  0.186420  1.0
  C  C351  1  0.884330  0.615930  0.686420  1.0
  C  C352  1  0.384070  0.115670  0.813580  1.0
  C  C353  1  0.085690  0.330690  0.312350  1.0
  C  C354  1  0.669310  0.914310  0.187650  1.0
  C  C355  1  0.914310  0.669310  0.687650  1.0
  C  C356  1  0.330690  0.085690  0.812350  1.0
  C  C357  1  0.096010  0.282410  0.338300  1.0
  C  C358  1  0.717590  0.903990  0.161700  1.0
  C  C359  1  0.903990  0.717590  0.661700  1.0
  C  C360  1  0.282410  0.096010  0.838300  1.0
  C  C361  1  0.066310  0.229310  0.337230  1.0
  C  C362  1  0.770690  0.933690  0.162770  1.0
  C  C363  1  0.933690  0.770690  0.662770  1.0
  C  C364  1  0.229310  0.066310  0.837230  1.0
  C  C365  1  0.027240  0.225040  0.313150  1.0
  C  C366  1  0.774960  0.972760  0.186850  1.0
  C  C367  1  0.972760  0.774960  0.686850  1.0
  C  C368  1  0.225040  0.027240  0.813150  1.0
  C  C369  1  0.017240  0.270840  0.288600  1.0
  C  C370  1  0.729160  0.982760  0.211400  1.0
  C  C371  1  0.982760  0.729160  0.711400  1.0
  C  C372  1  0.270840  0.017240  0.788600  1.0
  C  C373  1  0.046730  0.323730  0.287270  1.0
  C  C374  1  0.676270  0.953270  0.212730  1.0
  C  C375  1  0.953270  0.676270  0.712730  1.0
  C  C376  1  0.323730  0.046730  0.787270  1.0
  C  C377  1  0.439400  0.601800  0.421900  1.0
  C  C378  1  0.398200  0.560600  0.078100  1.0
  C  C379  1  0.560600  0.398200  0.578100  1.0
  C  C380  1  0.601800  0.439400  0.921900  1.0
  C  C381  1  0.492300  0.575900  0.407900  1.0
  C  C382  1  0.424100  0.507700  0.092100  1.0
  C  C383  1  0.507700  0.424100  0.592100  1.0
  C  C384  1  0.575900  0.492300  0.907900  1.0
  C  C385  1  0.544900  0.578700  0.422500  1.0
  C  C386  1  0.421300  0.455100  0.077500  1.0
  C  C387  1  0.455100  0.421300  0.577500  1.0
  C  C388  1  0.578700  0.544900  0.922500  1.0
  C  C389  1  0.543700  0.609500  0.451200  1.0
  C  C390  1  0.390500  0.456300  0.048800  1.0
  C  C391  1  0.456300  0.390500  0.548800  1.0
  C  C392  1  0.609500  0.543700  0.951200  1.0
  C  C393  1  0.489000  0.637600  0.463800  1.0
  C  C394  1  0.362400  0.511000  0.036200  1.0
  C  C395  1  0.511000  0.362400  0.536200  1.0
  C  C396  1  0.637600  0.489000  0.963800  1.0
  C  C397  1  0.381200  0.596800  0.408900  1.0
  C  C398  1  0.403200  0.618800  0.091100  1.0
  C  C399  1  0.618800  0.403200  0.591100  1.0
  C  C400  1  0.596800  0.381200  0.908900  1.0
  C  C401  1  0.366900  0.567300  0.381230  1.0
  C  C402  1  0.432700  0.633100  0.118770  1.0
  C  C403  1  0.633100  0.432700  0.618770  1.0
  C  C404  1  0.567300  0.366900  0.881230  1.0
  C  C405  1  0.305900  0.576500  0.381620  1.0
  C  C406  1  0.423500  0.694100  0.118380  1.0
  C  C407  1  0.694100  0.423500  0.618380  1.0
  C  C408  1  0.576500  0.305900  0.881620  1.0
  C  C409  1  0.223340  0.630740  0.416470  1.0
  C  C410  1  0.369260  0.776660  0.083530  1.0
  C  C411  1  0.776660  0.369260  0.583530  1.0
  C  C412  1  0.630740  0.223340  0.916470  1.0
  C  C413  1  0.846700  0.930900  0.416700  1.0
  C  C414  1  0.069100  0.153300  0.083300  1.0
  C  C415  1  0.153300  0.069100  0.583300  1.0
  C  C416  1  0.930900  0.846700  0.916700  1.0
  C  C417  1  0.800200  0.957400  0.436900  1.0
  C  C418  1  0.042600  0.199800  0.063100  1.0
  C  C419  1  0.199800  0.042600  0.563100  1.0
  C  C420  1  0.957400  0.800200  0.936900  1.0
  C  C421  1  0.742800  0.960800  0.424800  1.0
  C  C422  1  0.039200  0.257200  0.075200  1.0
  C  C423  1  0.257200  0.039200  0.575200  1.0
  C  C424  1  0.960800  0.742800  0.924800  1.0
  C  C425  1  0.736400  0.940400  0.396300  1.0
  C  C426  1  0.059600  0.263600  0.103700  1.0
  C  C427  1  0.263600  0.059600  0.603700  1.0
  C  C428  1  0.940400  0.736400  0.896300  1.0
  C  C429  1  0.783000  0.915600  0.377700  1.0
  C  C430  1  0.084400  0.217000  0.122300  1.0
  C  C431  1  0.217000  0.084400  0.622300  1.0
  C  C432  1  0.915600  0.783000  0.877700  1.0
  C  C433  1  0.909900  0.926900  0.425700  1.0
  C  C434  1  0.073100  0.090100  0.074300  1.0
  C  C435  1  0.090100  0.073100  0.574300  1.0
  C  C436  1  0.926900  0.909900  0.925700  1.0
  C  C437  1  0.936100  0.949100  0.452200  1.0
  C  C438  1  0.050900  0.063900  0.047800  1.0
  C  C439  1  0.063900  0.050900  0.547800  1.0
  C  C440  1  0.949100  0.936100  0.952200  1.0
  C  C441  1  0.997400  0.933800  0.445700  1.0
  C  C442  1  0.066200  0.002600  0.054300  1.0
  C  C443  1  0.002600  0.066200  0.554300  1.0
  C  C444  1  0.933800  0.997400  0.945700  1.0
  C  C445  1  0.061900  0.880300  0.402100  1.0
  C  C446  1  0.119700  0.938100  0.097900  1.0
  C  C447  1  0.938100  0.119700  0.597900  1.0
  C  C448  1  0.880300  0.061900  0.902100  1.0
  C  C449  1  0.205250  0.692450  0.400870  1.0
  C  C450  1  0.307550  0.794750  0.099130  1.0
  C  C451  1  0.794750  0.307550  0.599130  1.0
  C  C452  1  0.692450  0.205250  0.900870  1.0
  C  C453  1  0.242360  0.721760  0.377510  1.0
  C  C454  1  0.278240  0.757640  0.122490  1.0
  C  C455  1  0.757640  0.278240  0.622490  1.0
  C  C456  1  0.721760  0.242360  0.877510  1.0
  C  C457  1  0.225100  0.779500  0.364490  1.0
  C  C458  1  0.220500  0.774900  0.135510  1.0
  C  C459  1  0.774900  0.220500  0.635510  1.0
  C  C460  1  0.779500  0.225100  0.864490  1.0
  C  C461  1  0.171960  0.810160  0.374690  1.0
  C  C462  1  0.189840  0.828040  0.125310  1.0
  C  C463  1  0.828040  0.189840  0.625310  1.0
  C  C464  1  0.810160  0.171960  0.874690  1.0
  C  C465  1  0.132570  0.782770  0.399350  1.0
  C  C466  1  0.217230  0.867430  0.100650  1.0
  C  C467  1  0.867430  0.217230  0.600650  1.0
  C  C468  1  0.782770  0.132570  0.899350  1.0
  C  C469  1  0.149330  0.721930  0.411660  1.0
  C  C470  1  0.278070  0.850670  0.088340  1.0
  C  C471  1  0.850670  0.278070  0.588340  1.0
  C  C472  1  0.721930  0.149330  0.911660  1.0
  C  C473  1  0.107450  0.692850  0.436100  1.0
  C  C474  1  0.307150  0.892550  0.063900  1.0
  C  C475  1  0.892550  0.307150  0.563900  1.0
  C  C476  1  0.692850  0.107450  0.936100  1.0
  C  C477  1  0.056100  0.723700  0.448090  1.0
  C  C478  1  0.276300  0.943900  0.051910  1.0
  C  C479  1  0.943900  0.276300  0.551910  1.0
  C  C480  1  0.723700  0.056100  0.948090  1.0
  C  C481  1  0.040920  0.783920  0.437660  1.0
  C  C482  1  0.216080  0.959080  0.062340  1.0
  C  C483  1  0.959080  0.216080  0.562340  1.0
  C  C484  1  0.783920  0.040920  0.937660  1.0
  C  C485  1  0.077840  0.813440  0.413370  1.0
  C  C486  1  0.186560  0.922160  0.086630  1.0
  C  C487  1  0.922160  0.186560  0.586630  1.0
  C  C488  1  0.813440  0.077840  0.913370  1.0
  C  C489  1  0.826570  0.542570  0.255870  1.0
  C  C490  1  0.457430  0.173430  0.244130  1.0
  C  C491  1  0.173430  0.457430  0.744130  1.0
  C  C492  1  0.542570  0.826570  0.755870  1.0
  C  C493  1  0.824900  0.601700  0.240470  1.0
  C  C494  1  0.398300  0.175100  0.259530  1.0
  C  C495  1  0.175100  0.398300  0.759530  1.0
  C  C496  1  0.601700  0.824900  0.740470  1.0
  C  C497  1  0.868700  0.616700  0.217500  1.0
  C  C498  1  0.383300  0.131300  0.282500  1.0
  C  C499  1  0.131300  0.383300  0.782500  1.0
  C  C500  1  0.616700  0.868700  0.717500  1.0
  C  C501  1  0.915200  0.573400  0.208190  1.0
  C  C502  1  0.426600  0.084800  0.291810  1.0
  C  C503  1  0.084800  0.426600  0.791810  1.0
  C  C504  1  0.573400  0.915200  0.708190  1.0
  C  C505  1  0.914520  0.515120  0.224360  1.0
  C  C506  1  0.484880  0.085480  0.275640  1.0
  C  C507  1  0.085480  0.484880  0.775640  1.0
  C  C508  1  0.515120  0.914520  0.724360  1.0
  C  C509  1  0.781500  0.522100  0.281090  1.0
  C  C510  1  0.477900  0.218500  0.218910  1.0
  C  C511  1  0.218500  0.477900  0.718910  1.0
  C  C512  1  0.522100  0.781500  0.781090  1.0
  C  C513  1  0.724200  0.549000  0.293000  1.0
  C  C514  1  0.451000  0.275800  0.207000  1.0
  C  C515  1  0.275800  0.451000  0.707000  1.0
  C  C516  1  0.549000  0.724200  0.793000  1.0
  C  C517  1  0.699800  0.508800  0.315200  1.0
  C  C518  1  0.491200  0.300200  0.184800  1.0
  C  C519  1  0.300200  0.491200  0.684800  1.0
  C  C520  1  0.508800  0.699800  0.815200  1.0
  C  C521  1  0.735610  0.404610  0.340360  1.0
  C  C522  1  0.595390  0.264390  0.159640  1.0
  C  C523  1  0.264390  0.595390  0.659640  1.0
  C  C524  1  0.404610  0.735610  0.840360  1.0
  C  C525  1  0.688010  0.199810  0.570390  1.0
  C  C526  1  0.800190  0.311990  0.929610  1.0
  C  C527  1  0.311990  0.800190  0.429610  1.0
  C  C528  1  0.199810  0.688010  0.070390  1.0
  C  C529  1  0.687000  0.145200  0.590070  1.0
  C  C530  1  0.854800  0.313000  0.909930  1.0
  C  C531  1  0.313000  0.854800  0.409930  1.0
  C  C532  1  0.145200  0.687000  0.090070  1.0
  C  C533  1  0.637000  0.135400  0.612800  1.0
  C  C534  1  0.864600  0.363000  0.887200  1.0
  C  C535  1  0.363000  0.864600  0.387200  1.0
  C  C536  1  0.135400  0.637000  0.112800  1.0
  C  C537  1  0.591400  0.180000  0.614400  1.0
  C  C538  1  0.820000  0.408600  0.885600  1.0
  C  C539  1  0.408600  0.820000  0.385600  1.0
  C  C540  1  0.180000  0.591400  0.114400  1.0
  C  C541  1  0.593200  0.237200  0.593200  1.0
  C  C542  1  0.762800  0.406800  0.906800  1.0
  C  C543  1  0.406800  0.762800  0.406800  1.0
  C  C544  1  0.237200  0.593200  0.093200  1.0
  C  C545  1  0.738660  0.212860  0.547500  1.0
  C  C546  1  0.787140  0.261340  0.952500  1.0
  C  C547  1  0.261340  0.787140  0.452500  1.0
  C  C548  1  0.212860  0.738660  0.047500  1.0
  C  C549  1  0.792820  0.178620  0.539630  1.0
  C  C550  1  0.821380  0.207180  0.960370  1.0
  C  C551  1  0.207180  0.821380  0.460370  1.0
  C  C552  1  0.178620  0.792820  0.039630  1.0
  C  C553  1  0.824290  0.213890  0.516420  1.0
  C  C554  1  0.786110  0.175710  0.983580  1.0
  C  C555  1  0.175710  0.786110  0.483580  1.0
  C  C556  1  0.213890  0.824290  0.016420  1.0
  C  C557  1  0.804650  0.316050  0.487860  1.0
  C  C558  1  0.683950  0.195350  0.012140  1.0
  C  C559  1  0.195350  0.683950  0.512140  1.0
  C  C560  1  0.316050  0.804650  0.987860  1.0
  C  C561  1  0.760490  0.409690  0.373780  1.0
  C  C562  1  0.590310  0.239510  0.126220  1.0
  C  C563  1  0.239510  0.590310  0.626220  1.0
  C  C564  1  0.409690  0.760490  0.873780  1.0
  C  C565  1  0.783910  0.461510  0.381850  1.0
  C  C566  1  0.538490  0.216090  0.118150  1.0
  C  C567  1  0.216090  0.538490  0.618150  1.0
  C  C568  1  0.461510  0.783910  0.881850  1.0
  C  C569  1  0.808990  0.463790  0.412700  1.0
  C  C570  1  0.536210  0.191010  0.087300  1.0
  C  C571  1  0.191010  0.536210  0.587300  1.0
  C  C572  1  0.463790  0.808990  0.912700  1.0
  C  C573  1  0.810220  0.415620  0.435580  1.0
  C  C574  1  0.584380  0.189780  0.064420  1.0
  C  C575  1  0.189780  0.584380  0.564420  1.0
  C  C576  1  0.415620  0.810220  0.935580  1.0
  C  C577  1  0.784660  0.361520  0.429180  1.0
  C  C578  1  0.638480  0.215340  0.070820  1.0
  C  C579  1  0.215340  0.638480  0.570820  1.0
  C  C580  1  0.361520  0.784660  0.929180  1.0
  C  C581  1  0.761270  0.358670  0.397210  1.0
  C  C582  1  0.641330  0.238730  0.102790  1.0
  C  C583  1  0.238730  0.641330  0.602790  1.0
  C  C584  1  0.358670  0.761270  0.897210  1.0
  C  C585  1  0.737000  0.303600  0.390800  1.0
  C  C586  1  0.696400  0.263000  0.109200  1.0
  C  C587  1  0.263000  0.696400  0.609200  1.0
  C  C588  1  0.303600  0.737000  0.890800  1.0
  C  C589  1  0.736510  0.255710  0.414910  1.0
  C  C590  1  0.744290  0.263490  0.085090  1.0
  C  C591  1  0.263490  0.744290  0.585090  1.0
  C  C592  1  0.255710  0.736510  0.914910  1.0
  C  C593  1  0.757990  0.259790  0.445640  1.0
  C  C594  1  0.740210  0.242010  0.054360  1.0
  C  C595  1  0.242010  0.740210  0.554360  1.0
  C  C596  1  0.259790  0.757990  0.945640  1.0
  C  C597  1  0.781520  0.310720  0.453120  1.0
  C  C598  1  0.689280  0.218480  0.046880  1.0
  C  C599  1  0.218480  0.689280  0.546880  1.0
  C  C600  1  0.310720  0.781520  0.953120  1.0
  C  C601  1  0.007730  0.771530  0.343550  1.0
  C  C602  1  0.228470  0.992270  0.156450  1.0
  C  C603  1  0.992270  0.228470  0.656450  1.0
  C  C604  1  0.771530  0.007730  0.843550  1.0
  C  C605  1  0.057700  0.737500  0.330910  1.0
  C  C606  1  0.262500  0.942300  0.169090  1.0
  C  C607  1  0.942300  0.262500  0.669090  1.0
  C  C608  1  0.737500  0.057700  0.830910  1.0
  C  C609  1  0.097300  0.766100  0.307200  1.0
  C  C610  1  0.233900  0.902700  0.192800  1.0
  C  C611  1  0.902700  0.233900  0.692800  1.0
  C  C612  1  0.766100  0.097300  0.807200  1.0
  C  C613  1  0.085300  0.824700  0.297400  1.0
  C  C614  1  0.175300  0.914700  0.202600  1.0
  C  C615  1  0.914700  0.175300  0.702600  1.0
  C  C616  1  0.824700  0.085300  0.797400  1.0
  C  C617  1  0.035700  0.858700  0.313100  1.0
  C  C618  1  0.141300  0.964300  0.186900  1.0
  C  C619  1  0.964300  0.141300  0.686900  1.0
  C  C620  1  0.858700  0.035700  0.813100  1.0
  C  C621  1  0.961700  0.745140  0.367180  1.0
  C  C622  1  0.254860  0.038300  0.132820  1.0
  C  C623  1  0.038300  0.254860  0.632820  1.0
  C  C624  1  0.745140  0.961700  0.867180  1.0
  C  C625  1  0.959220  0.686020  0.380410  1.0
  C  C626  1  0.313980  0.040780  0.119590  1.0
  C  C627  1  0.040780  0.313980  0.619590  1.0
  C  C628  1  0.686020  0.959220  0.880410  1.0
  C  C629  1  0.905300  0.685700  0.399040  1.0
  C  C630  1  0.314300  0.094700  0.100960  1.0
  C  C631  1  0.094700  0.314300  0.600960  1.0
  C  C632  1  0.685700  0.905300  0.899040  1.0
  C  C633  1  0.821280  0.762880  0.414000  1.0
  C  C634  1  0.237120  0.178720  0.086000  1.0
  C  C635  1  0.178720  0.237120  0.586000  1.0
  C  C636  1  0.762880  0.821280  0.914000  1.0
  C  C637  1  0.570100  0.874100  0.620220  1.0
  C  C638  1  0.125900  0.429900  0.879780  1.0
  C  C639  1  0.429900  0.125900  0.379780  1.0
  C  C640  1  0.874100  0.570100  0.120220  1.0
  C  C641  1  0.513500  0.900300  0.629150  1.0
  C  C642  1  0.099700  0.486500  0.870850  1.0
  C  C643  1  0.486500  0.099700  0.370850  1.0
  C  C644  1  0.900300  0.513500  0.129150  1.0
  C  C645  1  0.476500  0.866300  0.647700  1.0
  C  C646  1  0.133700  0.523500  0.852300  1.0
  C  C647  1  0.523500  0.133700  0.352300  1.0
  C  C648  1  0.866300  0.476500  0.147700  1.0
  C  C649  1  0.493900  0.809700  0.660600  1.0
  C  C650  1  0.190300  0.506100  0.839400  1.0
  C  C651  1  0.506100  0.190300  0.339400  1.0
  C  C652  1  0.809700  0.493900  0.160600  1.0
  C  C653  1  0.551900  0.783900  0.651160  1.0
  C  C654  1  0.216100  0.448100  0.848840  1.0
  C  C655  1  0.448100  0.216100  0.348840  1.0
  C  C656  1  0.783900  0.551900  0.151160  1.0
  C  C657  1  0.613200  0.905400  0.598430  1.0
  C  C658  1  0.094600  0.386800  0.901570  1.0
  C  C659  1  0.386800  0.094600  0.401570  1.0
  C  C660  1  0.905400  0.613200  0.098430  1.0
  C  C661  1  0.613300  0.966700  0.584700  1.0
  C  C662  1  0.033300  0.386700  0.915300  1.0
  C  C663  1  0.386700  0.033300  0.415300  1.0
  C  C664  1  0.966700  0.613300  0.084700  1.0
  C  C665  1  0.666500  0.972100  0.565900  1.0
  C  C666  1  0.027900  0.333500  0.934100  1.0
  C  C667  1  0.333500  0.027900  0.434100  1.0
  C  C668  1  0.972100  0.666500  0.065900  1.0
  C  C669  1  0.751000  0.896000  0.547950  1.0
  C  C670  1  0.104000  0.249000  0.952050  1.0
  C  C671  1  0.249000  0.104000  0.452050  1.0
  C  C672  1  0.896000  0.751000  0.047950  1.0
  C  C673  1  0.829920  0.786320  0.447640  1.0
  C  C674  1  0.213680  0.170080  0.052360  1.0
  C  C675  1  0.170080  0.213680  0.552360  1.0
  C  C676  1  0.786320  0.829920  0.947640  1.0
  C  C677  1  0.885600  0.783200  0.460670  1.0
  C  C678  1  0.216800  0.114400  0.039330  1.0
  C  C679  1  0.114400  0.216800  0.539330  1.0
  C  C680  1  0.783200  0.885600  0.960670  1.0
  C  C681  1  0.894300  0.807700  0.489950  1.0
  C  C682  1  0.192300  0.105700  0.010050  1.0
  C  C683  1  0.105700  0.192300  0.510050  1.0
  C  C684  1  0.807700  0.894300  0.989950  1.0
  C  C685  1  0.849500  0.834700  0.507700  1.0
  C  C686  1  0.165300  0.150500  0.992300  1.0
  C  C687  1  0.150500  0.165300  0.492300  1.0
  C  C688  1  0.834700  0.849500  0.007700  1.0
  C  C689  1  0.789500  0.839900  0.497580  1.0
  C  C690  1  0.160100  0.210500  0.002420  1.0
  C  C691  1  0.210500  0.160100  0.502420  1.0
  C  C692  1  0.839900  0.789500  0.997580  1.0
  C  C693  1  0.779700  0.814300  0.466570  1.0
  C  C694  1  0.185700  0.220300  0.033430  1.0
  C  C695  1  0.220300  0.185700  0.533430  1.0
  C  C696  1  0.814300  0.779700  0.966570  1.0
  C  C697  1  0.720900  0.816700  0.456520  1.0
  C  C698  1  0.183300  0.279100  0.043480  1.0
  C  C699  1  0.279100  0.183300  0.543480  1.0
  C  C700  1  0.816700  0.720900  0.956520  1.0
  C  C701  1  0.674200  0.845200  0.475720  1.0
  C  C702  1  0.154800  0.325800  0.024280  1.0
  C  C703  1  0.325800  0.154800  0.524280  1.0
  C  C704  1  0.845200  0.674200  0.975720  1.0
  C  C705  1  0.682900  0.868100  0.505000  1.0
  C  C706  1  0.131900  0.317100  0.995000  1.0
  C  C707  1  0.317100  0.131900  0.495000  1.0
  C  C708  1  0.868100  0.682900  0.005000  1.0
  C  C709  1  0.739100  0.866700  0.516090  1.0
  C  C710  1  0.133300  0.260900  0.983910  1.0
  C  C711  1  0.260900  0.133300  0.483910  1.0
  C  C712  1  0.866700  0.739100  0.016090  1.0
  Co  Co713  1  0.349170  0.679770  0.464220  1.0
  Co  Co714  1  0.320230  0.650830  0.035780  1.0
  Co  Co715  1  0.650830  0.320230  0.535780  1.0
  Co  Co716  1  0.679770  0.349170  0.964220  1.0
  Co  Co717  1  0.918730  0.875630  0.360000  1.0
  Co  Co718  1  0.124370  0.081270  0.140000  1.0
  Co  Co719  1  0.081270  0.124370  0.640000  1.0
  Co  Co720  1  0.875630  0.918730  0.860000  1.0
  Co  Co721  1  0.321890  0.216750  0.390380  1.0
  Co  Co722  1  0.783250  0.678110  0.109620  1.0
  Co  Co723  1  0.678110  0.783250  0.609620  1.0
  Co  Co724  1  0.216750  0.321890  0.890380  1.0
  Co  Co725  1  0.870850  0.415310  0.276690  1.0
  Co  Co726  1  0.584690  0.129150  0.223310  1.0
  Co  Co727  1  0.129150  0.584690  0.723310  1.0
  Co  Co728  1  0.415310  0.870850  0.776690  1.0
  F  F729  1  0.308750  0.406150  0.540590  1
  F  F730  1  0.593850  0.691250  0.959410  1
  F  F731  1  0.691250  0.593850  0.459410  1
  F  F732  1  0.406150  0.308750  0.040590  1
  F  F733  1  0.301310  0.408650  0.596180  1
  F  F734  1  0.591350  0.698690  0.903820  1
  F  F735  1  0.698690  0.591350  0.403820  1
  F  F736  1  0.408650  0.301310  0.096180  1
  F  F737  1  0.311750  0.318810  0.572720  1
  F  F738  1  0.681190  0.688250  0.927280  1
  F  F739  1  0.688250  0.681190  0.427280  1
  F  F740  1  0.318810  0.311750  0.072720  1
  F  F741  1  0.223490  0.378230  0.570630  1
  F  F742  1  0.621770  0.776510  0.929370  1
  F  F743  1  0.776510  0.621770  0.429370  1
  F  F744  1  0.378230  0.223490  0.070630  1
  F  F745  1  0.587400  0.410000  0.181700  1
  F  F746  1  0.590000  0.412600  0.318300  1
  F  F747  1  0.412600  0.590000  0.818300  1
  F  F748  1  0.410000  0.587400  0.681700  1
  F  F749  1  0.647100  0.486900  0.170760  1
  F  F750  1  0.513100  0.352900  0.329240  1
  F  F751  1  0.352900  0.513100  0.829240  1
  F  F752  1  0.486900  0.647100  0.670760  1
  F  F753  1  0.664800  0.399400  0.145000  1
  F  F754  1  0.600600  0.335200  0.355000  1
  F  F755  1  0.335200  0.600600  0.855000  1
  F  F756  1  0.399400  0.664800  0.645000  1
  F  F757  1  0.584100  0.465300  0.132900  1
  F  F758  1  0.534700  0.415900  0.367100  1
  F  F759  1  0.415900  0.534700  0.867100  1
  F  F760  1  0.465300  0.584100  0.632900  1
  F  F761  1  0.011800  0.703800  0.570800  1
  F  F762  1  0.296200  0.988200  0.929200  1
  F  F763  1  0.988200  0.296200  0.429200  1
  F  F764  1  0.703800  0.011800  0.070800  1
  F  F765  1  0.975400  0.800200  0.556700  1
  F  F766  1  0.199800  0.024600  0.943300  1
  F  F767  1  0.024600  0.199800  0.443300  1
  F  F768  1  0.800200  0.975400  0.056700  1
  F  F769  1  0.073200  0.779600  0.567400  1
  F  F770  1  0.220400  0.926800  0.932600  1
  F  F771  1  0.926800  0.220400  0.432600  1
  F  F772  1  0.779600  0.073200  0.067400  1
  F  F773  1  0.039400  0.749800  0.520500  1
  F  F774  1  0.250200  0.960600  0.979500  1
  F  F775  1  0.960600  0.250200  0.479500  1
  F  F776  1  0.749800  0.039400  0.020500  1
  F  F777  1  0.079240  0.581080  0.360930  1
  F  F778  1  0.418920  0.920760  0.139070  1
  F  F779  1  0.920760  0.418920  0.639070  1
  F  F780  1  0.581080  0.079240  0.860930  1
  F  F781  1  0.120900  0.541900  0.315480  1
  F  F782  1  0.458100  0.879100  0.184520  1
  F  F783  1  0.879100  0.458100  0.684520  1
  F  F784  1  0.541900  0.120900  0.815480  1
  F  F785  1  0.174930  0.534410  0.359810  1
  F  F786  1  0.465590  0.825070  0.140190  1
  F  F787  1  0.825070  0.465590  0.640190  1
  F  F788  1  0.534410  0.174930  0.859810  1
  F  F789  1  0.157930  0.624350  0.333580  1
  F  F790  1  0.375650  0.842070  0.166420  1
  F  F791  1  0.842070  0.375650  0.666420  1
  F  F792  1  0.624350  0.157930  0.833580  1
  F  F793  1  0.066700  0.505900  0.226390  1
  F  F794  1  0.494100  0.933300  0.273610  1
  F  F795  1  0.933300  0.494100  0.773610  1
  F  F796  1  0.505900  0.066700  0.726390  1
  F  F797  1  0.067000  0.568800  0.179000  1
  F  F798  1  0.431200  0.933000  0.321000  1
  F  F799  1  0.933000  0.431200  0.821000  1
  F  F800  1  0.568800  0.067000  0.679000  1
  F  F801  1  0.037600  0.474200  0.179100  1
  F  F802  1  0.525800  0.962400  0.320900  1
  F  F803  1  0.962400  0.525800  0.820900  1
  F  F804  1  0.474200  0.037600  0.679100  1
  F  F805  1  0.135000  0.488800  0.182100  1
  F  F806  1  0.511200  0.865000  0.317900  1
  F  F807  1  0.865000  0.511200  0.817900  1
  F  F808  1  0.488800  0.135000  0.682100  1
  F  F809  1  0.172800  0.963000  0.418600  1
  F  F810  1  0.037000  0.827200  0.081400  1
  F  F811  1  0.827200  0.037000  0.581400  1
  F  F812  1  0.963000  0.172800  0.918600  1
  F  F813  1  0.161300  0.061100  0.398900  1
  F  F814  1  0.938900  0.838700  0.101100  1
  F  F815  1  0.838700  0.938900  0.601100  1
  F  F816  1  0.061100  0.161300  0.898900  1
  F  F817  1  0.231800  0.996200  0.374100  1
  F  F818  1  0.003800  0.768200  0.125900  1
  F  F819  1  0.768200  0.003800  0.625900  1
  F  F820  1  0.996200  0.231800  0.874100  1
  F  F821  1  0.132100  0.988500  0.369200  1
  F  F822  1  0.011500  0.867900  0.130800  1
  F  F823  1  0.867900  0.011500  0.630800  1
  F  F824  1  0.988500  0.132100  0.869200  1
  F  F825  1  0.736400  0.113000  0.461800  1
  F  F826  1  0.887000  0.263600  0.038200  1
  F  F827  1  0.263600  0.887000  0.538200  1
  F  F828  1  0.113000  0.736400  0.961800  1
  F  F829  1  0.691800  0.098800  0.518500  1
  F  F830  1  0.901200  0.308200  0.981500  1
  F  F831  1  0.308200  0.901200  0.481500  1
  F  F832  1  0.098800  0.691800  0.018500  1
  F  F833  1  0.774300  0.033100  0.506900  1
  F  F834  1  0.966900  0.225700  0.993100  1
  F  F835  1  0.225700  0.966900  0.493100  1
  F  F836  1  0.033100  0.774300  0.006900  1
  F  F837  1  0.683600  0.035400  0.484300  1
  F  F838  1  0.964600  0.316400  0.015700  1
  F  F839  1  0.316400  0.964600  0.515700  1
  F  F840  1  0.035400  0.683600  0.984300  1
  F  F841  1  0.678600  0.488000  0.116200  1
  F  F842  1  0.512000  0.321400  0.383800  1
  F  F843  1  0.321400  0.512000  0.883800  1
  F  F844  1  0.488000  0.678600  0.616200  1
  F  F845  1  0.050100  0.774500  0.531500  1
  F  F846  1  0.225500  0.949900  0.968500  1
  F  F847  1  0.949900  0.225500  0.468500  1
  F  F848  1  0.774500  0.050100  0.031500  1
  F  F849  1  0.989800  0.747000  0.576700  1
  F  F850  1  0.253000  0.010200  0.923300  1
  F  F851  1  0.010200  0.253000  0.423300  1
  F  F852  1  0.747000  0.989800  0.076700  1
  F  F853  1  0.979800  0.709600  0.526900  1
  F  F854  1  0.290400  0.020200  0.973100  1
  F  F855  1  0.020200  0.290400  0.473100  1
  F  F856  1  0.709600  0.979800  0.026900  1
  F  F857  1  0.061200  0.679400  0.555600  1
  F  F858  1  0.320600  0.938800  0.944400  1
  F  F859  1  0.938800  0.320600  0.444400  1
  F  F860  1  0.679400  0.061200  0.055600  1
  F  F861  1  0.788050  0.211950  0.250000  1
  F  F862  1  0.211950  0.788050  0.750000  1
  F  F863  1  0.883140  0.176720  0.259690  1
  F  F864  1  0.823280  0.116860  0.240310  1
  F  F865  1  0.116860  0.823280  0.740310  1
  F  F866  1  0.176720  0.883140  0.759690  1
  F  F867  1  0.803500  0.135900  0.292900  1
  F  F868  1  0.864100  0.196500  0.207100  1
  F  F869  1  0.196500  0.864100  0.707100  1
  F  F870  1  0.135900  0.803500  0.792900  1
  H  H871  1  0.885600  0.057600  0.278600  1.0
  H  H872  1  0.942400  0.114400  0.221400  1.0
  H  H873  1  0.114400  0.942400  0.721400  1.0
  H  H874  1  0.057600  0.885600  0.778600  1.0
  H  H875  1  0.942800  0.121200  0.301800  1.0
  H  H876  1  0.878800  0.057200  0.198200  1.0
  H  H877  1  0.057200  0.878800  0.698200  1.0
  H  H878  1  0.121200  0.942800  0.801800  1.0
  H  H879  1  0.982300  0.093300  0.354600  1.0
  H  H880  1  0.906700  0.017700  0.145400  1.0
  H  H881  1  0.017700  0.906700  0.645400  1.0
  H  H882  1  0.093300  0.982300  0.854600  1.0
  H  H883  1  0.996700  0.988900  0.367700  1.0
  H  H884  1  0.011100  0.003300  0.132300  1.0
  H  H885  1  0.003300  0.011100  0.632300  1.0
  H  H886  1  0.988900  0.996700  0.867700  1.0
  H  H887  1  0.824100  0.983700  0.258700  1.0
  H  H888  1  0.016300  0.175900  0.241300  1.0
  H  H889  1  0.175900  0.016300  0.741300  1.0
  H  H890  1  0.983700  0.824100  0.758700  1.0
  H  H891  1  0.783200  0.883600  0.259000  1.0
  H  H892  1  0.116400  0.216800  0.241000  1.0
  H  H893  1  0.216800  0.116400  0.741000  1.0
  H  H894  1  0.883600  0.783200  0.759000  1.0
  H  H895  1  0.787100  0.785700  0.300800  1.0
  H  H896  1  0.214300  0.212900  0.199200  1.0
  H  H897  1  0.212900  0.214300  0.699200  1.0
  H  H898  1  0.785700  0.787100  0.800800  1.0
  H  H899  1  0.821600  0.790000  0.333900  1.0
  H  H900  1  0.210000  0.178400  0.166100  1.0
  H  H901  1  0.178400  0.210000  0.666100  1.0
  H  H902  1  0.790000  0.821600  0.833900  1.0
  H  H903  1  0.923700  0.294100  0.382900  1.0
  H  H904  1  0.705900  0.076300  0.117100  1.0
  H  H905  1  0.076300  0.705900  0.617100  1.0
  H  H906  1  0.294100  0.923700  0.882900  1.0
  H  H907  1  0.873400  0.207800  0.376600  1.0
  H  H908  1  0.792200  0.126600  0.123400  1.0
  H  H909  1  0.126600  0.792200  0.623400  1.0
  H  H910  1  0.207800  0.873400  0.876600  1.0
  H  H911  1  0.822400  0.204400  0.327400  1.0
  H  H912  1  0.795600  0.177600  0.172600  1.0
  H  H913  1  0.177600  0.795600  0.672600  1.0
  H  H914  1  0.204400  0.822400  0.827400  1.0
  H  H915  1  0.822700  0.284700  0.287100  1.0
  H  H916  1  0.715300  0.177300  0.212900  1.0
  H  H917  1  0.177300  0.715300  0.712900  1.0
  H  H918  1  0.284700  0.822700  0.787100  1.0
  H  H919  1  0.978700  0.384900  0.384800  1.0
  H  H920  1  0.615100  0.021300  0.115200  1.0
  H  H921  1  0.021300  0.615100  0.615200  1.0
  H  H922  1  0.384900  0.978700  0.884800  1.0
  H  H923  1  0.014900  0.484900  0.363100  1.0
  H  H924  1  0.515100  0.985100  0.136900  1.0
  H  H925  1  0.985100  0.515100  0.636900  1.0
  H  H926  1  0.484900  0.014900  0.863100  1.0
  H  H927  1  0.967800  0.528600  0.279300  1.0
  H  H928  1  0.471400  0.032200  0.220700  1.0
  H  H929  1  0.032200  0.471400  0.720700  1.0
  H  H930  1  0.528600  0.967800  0.779300  1.0
  H  H931  1  0.010000  0.550200  0.305700  1.0
  H  H932  1  0.449800  0.990000  0.194300  1.0
  H  H933  1  0.990000  0.449800  0.694300  1.0
  H  H934  1  0.550200  0.010000  0.805700  1.0
  H  H935  1  0.924100  0.804900  0.264700  1.0
  H  H936  1  0.195100  0.075900  0.235300  1.0
  H  H937  1  0.075900  0.195100  0.735300  1.0
  H  H938  1  0.804900  0.924100  0.764700  1.0
  H  H939  1  0.000600  0.731800  0.247100  1.0
  H  H940  1  0.268200  0.999400  0.252900  1.0
  H  H941  1  0.999400  0.268200  0.752900  1.0
  H  H942  1  0.731800  0.000600  0.747100  1.0
  H  H943  1  0.000500  0.631700  0.268100  1.0
  H  H944  1  0.368300  0.999500  0.231900  1.0
  H  H945  1  0.999500  0.368300  0.731900  1.0
  H  H946  1  0.631700  0.000500  0.768100  1.0
  H  H947  1  0.794700  0.697300  0.338500  1.0
  H  H948  1  0.302700  0.205300  0.161500  1.0
  H  H949  1  0.205300  0.302700  0.661500  1.0
  H  H950  1  0.697300  0.794700  0.838500  1.0
  H  H951  1  0.794700  0.600500  0.361200  1.0
  H  H952  1  0.399500  0.205300  0.138800  1.0
  H  H953  1  0.205300  0.399500  0.638800  1.0
  H  H954  1  0.600500  0.794700  0.861200  1.0
  H  H955  1  0.874900  0.527700  0.346400  1.0
  H  H956  1  0.472300  0.125100  0.153600  1.0
  H  H957  1  0.125100  0.472300  0.653600  1.0
  H  H958  1  0.527700  0.874900  0.846400  1.0
  H  H959  1  0.411100  0.702700  0.581600  1.0
  H  H960  1  0.297300  0.588900  0.918400  1.0
  H  H961  1  0.588900  0.297300  0.418400  1.0
  H  H962  1  0.702700  0.411100  0.081600  1.0
  H  H963  1  0.428800  0.806000  0.575200  1.0
  H  H964  1  0.194000  0.571200  0.924800  1.0
  H  H965  1  0.571200  0.194000  0.424800  1.0
  H  H966  1  0.806000  0.428800  0.075200  1.0
  H  H967  1  0.423500  0.856700  0.522300  1.0
  H  H968  1  0.143300  0.576500  0.977700  1.0
  H  H969  1  0.576500  0.143300  0.477700  1.0
  H  H970  1  0.856700  0.423500  0.022300  1.0
  H  H971  1  0.392800  0.809800  0.478000  1.0
  H  H972  1  0.190200  0.607200  0.022000  1.0
  H  H973  1  0.607200  0.190200  0.522000  1.0
  H  H974  1  0.809800  0.392800  0.978000  1.0
  H  H975  1  0.389600  0.593200  0.582500  1.0
  H  H976  1  0.406800  0.610400  0.917500  1.0
  H  H977  1  0.610400  0.406800  0.417500  1.0
  H  H978  1  0.593200  0.389600  0.082500  1.0
  H  H979  1  0.337400  0.508800  0.562800  1.0
  H  H980  1  0.491200  0.662600  0.937200  1.0
  H  H981  1  0.662600  0.491200  0.437200  1.0
  H  H982  1  0.508800  0.337400  0.062800  1.0
  H  H983  1  0.273800  0.556800  0.483000  1.0
  H  H984  1  0.443200  0.726200  0.017000  1.0
  H  H985  1  0.726200  0.443200  0.517000  1.0
  H  H986  1  0.556800  0.273800  0.983000  1.0
  H  H987  1  0.274400  0.501000  0.510700  1.0
  H  H988  1  0.499000  0.725600  0.989300  1.0
  H  H989  1  0.725600  0.499000  0.489300  1.0
  H  H990  1  0.501000  0.274400  0.010700  1.0
  H  H991  1  0.224100  0.250500  0.281700  1.0
  H  H992  1  0.749500  0.775900  0.218300  1.0
  H  H993  1  0.775900  0.749500  0.718300  1.0
  H  H994  1  0.250500  0.224100  0.781700  1.0
  H  H995  1  0.185300  0.155500  0.282100  1.0
  H  H996  1  0.844500  0.814700  0.217900  1.0
  H  H997  1  0.814700  0.844500  0.717900  1.0
  H  H998  1  0.155500  0.185300  0.782100  1.0
  H  H999  1  0.206200  0.083200  0.324700  1.0
  H  H1000  1  0.916800  0.793800  0.175300  1.0
  H  H1001  1  0.793800  0.916800  0.675300  1.0
  H  H1002  1  0.083200  0.206200  0.824700  1.0
  H  H1003  1  0.261100  0.103500  0.367200  1.0
  H  H1004  1  0.896500  0.738900  0.132800  1.0
  H  H1005  1  0.738900  0.896500  0.632800  1.0
  H  H1006  1  0.103500  0.261100  0.867200  1.0
  H  H1007  1  0.286100  0.340700  0.280700  1.0
  H  H1008  1  0.659300  0.713900  0.219300  1.0
  H  H1009  1  0.713900  0.659300  0.719300  1.0
  H  H1010  1  0.340700  0.286100  0.780700  1.0
  H  H1011  1  0.349100  0.408300  0.307200  1.0
  H  H1012  1  0.591700  0.650900  0.192800  1.0
  H  H1013  1  0.650900  0.591700  0.692800  1.0
  H  H1014  1  0.408300  0.349100  0.807200  1.0
  H  H1015  1  0.408900  0.398100  0.362000  1.0
  H  H1016  1  0.601900  0.591100  0.138000  1.0
  H  H1017  1  0.591100  0.601900  0.638000  1.0
  H  H1018  1  0.398100  0.408900  0.862000  1.0
  H  H1019  1  0.401800  0.337600  0.385900  1.0
  H  H1020  1  0.662400  0.598200  0.114100  1.0
  H  H1021  1  0.598200  0.662400  0.614100  1.0
  H  H1022  1  0.337600  0.401800  0.885900  1.0
  H  H1023  1  0.420200  0.504600  0.495100  1.0
  H  H1024  1  0.495400  0.579800  0.004900  1.0
  H  H1025  1  0.579800  0.495400  0.504900  1.0
  H  H1026  1  0.504600  0.420200  0.995100  1.0
  H  H1027  1  0.487100  0.442900  0.459400  1.0
  H  H1028  1  0.557100  0.512900  0.040600  1.0
  H  H1029  1  0.512900  0.557100  0.540600  1.0
  H  H1030  1  0.442900  0.487100  0.959400  1.0
  H  H1031  1  0.450500  0.400300  0.416100  1.0
  H  H1032  1  0.599700  0.549500  0.083900  1.0
  H  H1033  1  0.549500  0.599700  0.583900  1.0
  H  H1034  1  0.400300  0.450500  0.916100  1.0
  H  H1035  1  0.230200  0.491200  0.458300  1.0
  H  H1036  1  0.508800  0.769800  0.041700  1.0
  H  H1037  1  0.769800  0.508800  0.541700  1.0
  H  H1038  1  0.491200  0.230200  0.958300  1.0
  H  H1039  1  0.194800  0.451200  0.413900  1.0
  H  H1040  1  0.548800  0.805200  0.086100  1.0
  H  H1041  1  0.805200  0.548800  0.586100  1.0
  H  H1042  1  0.451200  0.194800  0.913900  1.0
  H  H1043  1  0.261600  0.402800  0.373900  1.0
  H  H1044  1  0.597200  0.738400  0.126100  1.0
  H  H1045  1  0.738400  0.597200  0.626100  1.0
  H  H1046  1  0.402800  0.261600  0.873900  1.0
  H  H1047  1  0.297600  0.316800  0.498900  1.0
  H  H1048  1  0.683200  0.702400  0.001100  1.0
  H  H1049  1  0.702400  0.683200  0.501100  1.0
  H  H1050  1  0.316800  0.297600  0.998900  1.0
  H  H1051  1  0.395600  0.304600  0.512200  1.0
  H  H1052  1  0.695400  0.604400  0.987800  1.0
  H  H1053  1  0.604400  0.695400  0.487800  1.0
  H  H1054  1  0.304600  0.395600  0.012200  1.0
  H  H1055  1  0.469800  0.254800  0.476700  1.0
  H  H1056  1  0.745200  0.530200  0.023300  1.0
  H  H1057  1  0.530200  0.745200  0.523300  1.0
  H  H1058  1  0.254800  0.469800  0.976700  1.0
  H  H1059  1  0.440900  0.224700  0.425900  1.0
  H  H1060  1  0.775300  0.559100  0.074100  1.0
  H  H1061  1  0.559100  0.775300  0.574100  1.0
  H  H1062  1  0.224700  0.440900  0.925900  1.0
  H  H1063  1  0.193800  0.332200  0.478900  1.0
  H  H1064  1  0.667800  0.806200  0.021100  1.0
  H  H1065  1  0.806200  0.667800  0.521100  1.0
  H  H1066  1  0.332200  0.193800  0.978900  1.0
  H  H1067  1  0.111400  0.304600  0.448000  1.0
  H  H1068  1  0.695400  0.888600  0.052000  1.0
  H  H1069  1  0.888600  0.695400  0.552000  1.0
  H  H1070  1  0.304600  0.111400  0.948000  1.0
  H  H1071  1  0.104100  0.230300  0.401600  1.0
  H  H1072  1  0.769700  0.895900  0.098400  1.0
  H  H1073  1  0.895900  0.769700  0.598400  1.0
  H  H1074  1  0.230300  0.104100  0.901600  1.0
  H  H1075  1  0.165700  0.206100  0.381700  1.0
  H  H1076  1  0.793900  0.834300  0.118300  1.0
  H  H1077  1  0.834300  0.793900  0.618300  1.0
  H  H1078  1  0.206100  0.165700  0.881700  1.0
  H  H1079  1  0.838500  0.307500  0.174000  1.0
  H  H1080  1  0.692500  0.161500  0.326000  1.0
  H  H1081  1  0.161500  0.692500  0.826000  1.0
  H  H1082  1  0.307500  0.838500  0.674000  1.0
  H  H1083  1  0.736900  0.317300  0.175200  1.0
  H  H1084  1  0.682700  0.263100  0.324800  1.0
  H  H1085  1  0.263100  0.682700  0.824800  1.0
  H  H1086  1  0.317300  0.736900  0.675200  1.0
  H  H1087  1  0.680100  0.371700  0.217800  1.0
  H  H1088  1  0.628300  0.319900  0.282200  1.0
  H  H1089  1  0.319900  0.628300  0.782200  1.0
  H  H1090  1  0.371700  0.680100  0.717800  1.0
  H  H1091  1  0.733600  0.407000  0.260200  1.0
  H  H1092  1  0.593000  0.266400  0.239800  1.0
  H  H1093  1  0.266400  0.593000  0.739800  1.0
  H  H1094  1  0.407000  0.733600  0.760200  1.0
  H  H1095  1  0.954300  0.299900  0.176300  1.0
  H  H1096  1  0.700100  0.045700  0.323700  1.0
  H  H1097  1  0.045700  0.700100  0.823700  1.0
  H  H1098  1  0.299900  0.954300  0.676300  1.0
  H  H1099  1  0.051000  0.319600  0.198800  1.0
  H  H1100  1  0.680400  0.949000  0.301200  1.0
  H  H1101  1  0.949000  0.680400  0.801200  1.0
  H  H1102  1  0.319600  0.051000  0.698800  1.0
  H  H1103  1  0.023200  0.411600  0.270800  1.0
  H  H1104  1  0.588400  0.976800  0.229200  1.0
  H  H1105  1  0.976800  0.588400  0.729200  1.0
  H  H1106  1  0.411600  0.023200  0.770800  1.0
  H  H1107  1  0.078200  0.380200  0.248300  1.0
  H  H1108  1  0.619800  0.921800  0.251700  1.0
  H  H1109  1  0.921800  0.619800  0.751700  1.0
  H  H1110  1  0.380200  0.078200  0.748300  1.0
  H  H1111  1  0.183900  0.350500  0.381700  1.0
  H  H1112  1  0.649500  0.816100  0.118300  1.0
  H  H1113  1  0.816100  0.649500  0.618300  1.0
  H  H1114  1  0.350500  0.183900  0.881700  1.0
  H  H1115  1  0.170400  0.426200  0.339100  1.0
  H  H1116  1  0.573800  0.829600  0.160900  1.0
  H  H1117  1  0.829600  0.573800  0.660900  1.0
  H  H1118  1  0.426200  0.170400  0.839100  1.0
  H  H1119  1  0.110700  0.415900  0.296500  1.0
  H  H1120  1  0.584100  0.889300  0.203500  1.0
  H  H1121  1  0.889300  0.584100  0.703500  1.0
  H  H1122  1  0.415900  0.110700  0.796500  1.0
  H  H1123  1  0.073700  0.196300  0.353400  1.0
  H  H1124  1  0.803700  0.926300  0.146600  1.0
  H  H1125  1  0.926300  0.803700  0.646600  1.0
  H  H1126  1  0.196300  0.073700  0.853400  1.0
  H  H1127  1  0.006600  0.189600  0.313400  1.0
  H  H1128  1  0.810400  0.993400  0.186600  1.0
  H  H1129  1  0.993400  0.810400  0.686600  1.0
  H  H1130  1  0.189600  0.006600  0.813400  1.0
  H  H1131  1  0.989700  0.266500  0.272200  1.0
  H  H1132  1  0.733500  0.010300  0.227800  1.0
  H  H1133  1  0.010300  0.733500  0.727800  1.0
  H  H1134  1  0.266500  0.989700  0.772200  1.0
  H  H1135  1  0.492300  0.555700  0.387800  1.0
  H  H1136  1  0.444300  0.507700  0.112200  1.0
  H  H1137  1  0.507700  0.444300  0.612200  1.0
  H  H1138  1  0.555700  0.492300  0.887800  1.0
  H  H1139  1  0.581800  0.559800  0.413100  1.0
  H  H1140  1  0.440200  0.418200  0.086900  1.0
  H  H1141  1  0.418200  0.440200  0.586900  1.0
  H  H1142  1  0.559800  0.581800  0.913100  1.0
  H  H1143  1  0.579700  0.611500  0.462100  1.0
  H  H1144  1  0.388500  0.420300  0.037900  1.0
  H  H1145  1  0.420300  0.388500  0.537900  1.0
  H  H1146  1  0.611500  0.579700  0.962100  1.0
  H  H1147  1  0.488500  0.659900  0.483100  1.0
  H  H1148  1  0.340100  0.511500  0.016900  1.0
  H  H1149  1  0.511500  0.340100  0.516900  1.0
  H  H1150  1  0.659900  0.488500  0.983100  1.0
  H  H1151  1  0.393900  0.545900  0.365800  1.0
  H  H1152  1  0.454100  0.606100  0.134200  1.0
  H  H1153  1  0.606100  0.454100  0.634200  1.0
  H  H1154  1  0.545900  0.393900  0.865800  1.0
  H  H1155  1  0.281800  0.562200  0.366000  1.0
  H  H1156  1  0.437800  0.718200  0.134000  1.0
  H  H1157  1  0.718200  0.437800  0.634000  1.0
  H  H1158  1  0.562200  0.281800  0.866000  1.0
  H  H1159  1  0.217300  0.631500  0.441200  1.0
  H  H1160  1  0.368500  0.782700  0.058800  1.0
  H  H1161  1  0.782700  0.368500  0.558800  1.0
  H  H1162  1  0.631500  0.217300  0.941200  1.0
  H  H1163  1  0.196300  0.602100  0.409500  1.0
  H  H1164  1  0.397900  0.803700  0.090500  1.0
  H  H1165  1  0.803700  0.397900  0.590500  1.0
  H  H1166  1  0.602100  0.196300  0.909500  1.0
  H  H1167  1  0.806800  0.972400  0.457700  1.0
  H  H1168  1  0.027600  0.193200  0.042300  1.0
  H  H1169  1  0.193200  0.027600  0.542300  1.0
  H  H1170  1  0.972400  0.806800  0.957700  1.0
  H  H1171  1  0.708600  0.978000  0.437600  1.0
  H  H1172  1  0.022000  0.291400  0.062400  1.0
  H  H1173  1  0.291400  0.022000  0.562400  1.0
  H  H1174  1  0.978000  0.708600  0.937600  1.0
  H  H1175  1  0.697200  0.943200  0.388200  1.0
  H  H1176  1  0.056800  0.302800  0.111800  1.0
  H  H1177  1  0.302800  0.056800  0.611800  1.0
  H  H1178  1  0.943200  0.697200  0.888200  1.0
  H  H1179  1  0.776100  0.900900  0.356800  1.0
  H  H1180  1  0.099100  0.223900  0.143200  1.0
  H  H1181  1  0.223900  0.099100  0.643200  1.0
  H  H1182  1  0.900900  0.776100  0.856800  1.0
  H  H1183  1  0.916300  0.969900  0.470400  1.0
  H  H1184  1  0.030100  0.083700  0.029600  1.0
  H  H1185  1  0.083700  0.030100  0.529600  1.0
  H  H1186  1  0.969900  0.916300  0.970400  1.0
  H  H1187  1  0.028100  0.942500  0.459300  1.0
  H  H1188  1  0.057500  0.971900  0.040700  1.0
  H  H1189  1  0.971900  0.057500  0.540700  1.0
  H  H1190  1  0.942500  0.028100  0.959300  1.0
  H  H1191  1  0.094600  0.904200  0.407600  1.0
  H  H1192  1  0.095800  0.905400  0.092400  1.0
  H  H1193  1  0.905400  0.095800  0.592400  1.0
  H  H1194  1  0.904200  0.094600  0.907600  1.0
  H  H1195  1  0.059800  0.884200  0.377400  1.0
  H  H1196  1  0.115800  0.940200  0.122600  1.0
  H  H1197  1  0.940200  0.115800  0.622600  1.0
  H  H1198  1  0.884200  0.059800  0.877400  1.0
  H  H1199  1  0.280400  0.702200  0.370200  1.0
  H  H1200  1  0.297800  0.719600  0.129800  1.0
  H  H1201  1  0.719600  0.297800  0.629800  1.0
  H  H1202  1  0.702200  0.280400  0.870200  1.0
  H  H1203  1  0.251200  0.798400  0.347800  1.0
  H  H1204  1  0.201600  0.748800  0.152200  1.0
  H  H1205  1  0.748800  0.201600  0.652200  1.0
  H  H1206  1  0.798400  0.251200  0.847800  1.0
  H  H1207  1  0.161400  0.850000  0.365200  1.0
  H  H1208  1  0.150000  0.838600  0.134800  1.0
  H  H1209  1  0.838600  0.150000  0.634800  1.0
  H  H1210  1  0.850000  0.161400  0.865200  1.0
  H  H1211  1  0.116300  0.651700  0.443700  1.0
  H  H1212  1  0.348300  0.883700  0.056300  1.0
  H  H1213  1  0.883700  0.348300  0.556300  1.0
  H  H1214  1  0.651700  0.116300  0.943700  1.0
  H  H1215  1  0.029500  0.703700  0.464100  1.0
  H  H1216  1  0.296300  0.970500  0.035900  1.0
  H  H1217  1  0.970500  0.296300  0.535900  1.0
  H  H1218  1  0.703700  0.029500  0.964100  1.0
  H  H1219  1  0.005300  0.804900  0.447200  1.0
  H  H1220  1  0.195100  0.994700  0.052800  1.0
  H  H1221  1  0.994700  0.195100  0.552800  1.0
  H  H1222  1  0.804900  0.005300  0.947200  1.0
  H  H1223  1  0.792600  0.631000  0.246400  1.0
  H  H1224  1  0.369000  0.207400  0.253600  1.0
  H  H1225  1  0.207400  0.369000  0.753600  1.0
  H  H1226  1  0.631000  0.792600  0.746400  1.0
  H  H1227  1  0.868100  0.656900  0.207400  1.0
  H  H1228  1  0.343100  0.131900  0.292600  1.0
  H  H1229  1  0.131900  0.343100  0.792600  1.0
  H  H1230  1  0.656900  0.868100  0.707400  1.0
  H  H1231  1  0.946300  0.583100  0.191500  1.0
  H  H1232  1  0.416900  0.053700  0.308500  1.0
  H  H1233  1  0.053700  0.416900  0.808500  1.0
  H  H1234  1  0.583100  0.946300  0.691500  1.0
  H  H1235  1  0.945500  0.485100  0.218000  1.0
  H  H1236  1  0.514900  0.054500  0.282000  1.0
  H  H1237  1  0.054500  0.514900  0.782000  1.0
  H  H1238  1  0.485100  0.945500  0.718000  1.0
  H  H1239  1  0.706500  0.588300  0.286400  1.0
  H  H1240  1  0.411700  0.293500  0.213600  1.0
  H  H1241  1  0.293500  0.411700  0.713600  1.0
  H  H1242  1  0.588300  0.706500  0.786400  1.0
  H  H1243  1  0.661400  0.513800  0.327400  1.0
  H  H1244  1  0.486200  0.338600  0.172600  1.0
  H  H1245  1  0.338600  0.486200  0.672600  1.0
  H  H1246  1  0.513800  0.661400  0.827400  1.0
  H  H1247  1  0.757600  0.369400  0.329700  1.0
  H  H1248  1  0.630600  0.242400  0.170300  1.0
  H  H1249  1  0.242400  0.630600  0.670300  1.0
  H  H1250  1  0.369400  0.757600  0.829700  1.0
  H  H1251  1  0.692500  0.396700  0.344200  1.0
  H  H1252  1  0.603300  0.307500  0.155800  1.0
  H  H1253  1  0.307500  0.603300  0.655800  1.0
  H  H1254  1  0.396700  0.692500  0.844200  1.0
  H  H1255  1  0.719900  0.114900  0.588100  1.0
  H  H1256  1  0.885100  0.280100  0.911900  1.0
  H  H1257  1  0.280100  0.885100  0.411900  1.0
  H  H1258  1  0.114900  0.719900  0.088100  1.0
  H  H1259  1  0.635200  0.098800  0.626600  1.0
  H  H1260  1  0.901200  0.364800  0.873400  1.0
  H  H1261  1  0.364800  0.901200  0.373400  1.0
  H  H1262  1  0.098800  0.635200  0.126600  1.0
  H  H1263  1  0.557000  0.174400  0.629600  1.0
  H  H1264  1  0.825600  0.443000  0.870400  1.0
  H  H1265  1  0.443000  0.825600  0.370400  1.0
  H  H1266  1  0.174400  0.557000  0.129600  1.0
  H  H1267  1  0.560600  0.268000  0.594700  1.0
  H  H1268  1  0.732000  0.439400  0.905300  1.0
  H  H1269  1  0.439400  0.732000  0.405300  1.0
  H  H1270  1  0.268000  0.560600  0.094700  1.0
  H  H1271  1  0.805200  0.139000  0.548600  1.0
  H  H1272  1  0.861000  0.194800  0.951400  1.0
  H  H1273  1  0.194800  0.861000  0.451400  1.0
  H  H1274  1  0.139000  0.805200  0.048600  1.0
  H  H1275  1  0.863000  0.203000  0.505700  1.0
  H  H1276  1  0.797000  0.137000  0.994300  1.0
  H  H1277  1  0.137000  0.797000  0.494300  1.0
  H  H1278  1  0.203000  0.863000  0.005700  1.0
  H  H1279  1  0.849000  0.318000  0.485400  1.0
  H  H1280  1  0.682000  0.151000  0.014600  1.0
  H  H1281  1  0.151000  0.682000  0.514600  1.0
  H  H1282  1  0.318000  0.849000  0.985400  1.0
  H  H1283  1  0.786200  0.354400  0.496800  1.0
  H  H1284  1  0.645600  0.213800  0.003200  1.0
  H  H1285  1  0.213800  0.645600  0.503200  1.0
  H  H1286  1  0.354400  0.786200  0.996800  1.0
  H  H1287  1  0.783000  0.496000  0.366300  1.0
  H  H1288  1  0.504000  0.217000  0.133700  1.0
  H  H1289  1  0.217000  0.504000  0.633700  1.0
  H  H1290  1  0.496000  0.783000  0.866300  1.0
  H  H1291  1  0.825300  0.499700  0.417600  1.0
  H  H1292  1  0.500300  0.174700  0.082400  1.0
  H  H1293  1  0.174700  0.500300  0.582400  1.0
  H  H1294  1  0.499700  0.825300  0.917600  1.0
  H  H1295  1  0.828300  0.417700  0.456100  1.0
  H  H1296  1  0.582300  0.171700  0.043900  1.0
  H  H1297  1  0.171700  0.582300  0.543900  1.0
  H  H1298  1  0.417700  0.828300  0.956100  1.0
  H  H1299  1  0.721000  0.300200  0.369800  1.0
  H  H1300  1  0.699800  0.279000  0.130200  1.0
  H  H1301  1  0.279000  0.699800  0.630200  1.0
  H  H1302  1  0.300200  0.721000  0.869800  1.0
  H  H1303  1  0.721000  0.219400  0.410100  1.0
  H  H1304  1  0.780600  0.279000  0.089900  1.0
  H  H1305  1  0.279000  0.780600  0.589900  1.0
  H  H1306  1  0.219400  0.721000  0.910100  1.0
  H  H1307  1  0.756600  0.226400  0.462000  1.0
  H  H1308  1  0.773600  0.243400  0.038000  1.0
  H  H1309  1  0.243400  0.773600  0.538000  1.0
  H  H1310  1  0.226400  0.756600  0.962000  1.0
  H  H1311  1  0.065200  0.695800  0.337900  1.0
  H  H1312  1  0.304200  0.934800  0.162100  1.0
  H  H1313  1  0.934800  0.304200  0.662100  1.0
  H  H1314  1  0.695800  0.065200  0.837900  1.0
  H  H1315  1  0.132600  0.744000  0.298200  1.0
  H  H1316  1  0.256000  0.867400  0.201800  1.0
  H  H1317  1  0.867400  0.256000  0.701800  1.0
  H  H1318  1  0.744000  0.132600  0.798200  1.0
  H  H1319  1  0.110300  0.843300  0.280000  1.0
  H  H1320  1  0.156700  0.889700  0.220000  1.0
  H  H1321  1  0.889700  0.156700  0.720000  1.0
  H  H1322  1  0.843300  0.110300  0.780000  1.0
  H  H1323  1  0.029400  0.901000  0.307500  1.0
  H  H1324  1  0.099000  0.970600  0.192500  1.0
  H  H1325  1  0.970600  0.099000  0.692500  1.0
  H  H1326  1  0.901000  0.029400  0.807500  1.0
  H  H1327  1  0.988800  0.652800  0.377200  1.0
  H  H1328  1  0.347200  0.011200  0.122800  1.0
  H  H1329  1  0.011200  0.347200  0.622800  1.0
  H  H1330  1  0.652800  0.988800  0.877200  1.0
  H  H1331  1  0.889900  0.651900  0.411700  1.0
  H  H1332  1  0.348100  0.110100  0.088300  1.0
  H  H1333  1  0.110100  0.348100  0.588300  1.0
  H  H1334  1  0.651900  0.889900  0.911700  1.0
  H  H1335  1  0.795100  0.729100  0.417600  1.0
  H  H1336  1  0.270900  0.204900  0.082400  1.0
  H  H1337  1  0.204900  0.270900  0.582400  1.0
  H  H1338  1  0.729100  0.795100  0.917600  1.0
  H  H1339  1  0.800200  0.795600  0.399900  1.0
  H  H1340  1  0.204400  0.199800  0.100100  1.0
  H  H1341  1  0.199800  0.204400  0.600100  1.0
  H  H1342  1  0.795600  0.800200  0.899900  1.0
  H  H1343  1  0.501500  0.941300  0.622300  1.0
  H  H1344  1  0.058700  0.498500  0.877700  1.0
  H  H1345  1  0.498500  0.058700  0.377700  1.0
  H  H1346  1  0.941300  0.501500  0.122300  1.0
  H  H1347  1  0.435700  0.882300  0.652300  1.0
  H  H1348  1  0.117700  0.564300  0.847700  1.0
  H  H1349  1  0.564300  0.117700  0.347700  1.0
  H  H1350  1  0.882300  0.435700  0.152300  1.0
  H  H1351  1  0.467200  0.788000  0.675700  1.0
  H  H1352  1  0.212000  0.532800  0.824300  1.0
  H  H1353  1  0.532800  0.212000  0.324300  1.0
  H  H1354  1  0.788000  0.467200  0.175700  1.0
  H  H1355  1  0.564600  0.743600  0.659000  1.0
  H  H1356  1  0.256400  0.435400  0.841000  1.0
  H  H1357  1  0.435400  0.256400  0.341000  1.0
  H  H1358  1  0.743600  0.564600  0.159000  1.0
  H  H1359  1  0.581700  0.998100  0.588100  1.0
  H  H1360  1  0.001900  0.418300  0.911900  1.0
  H  H1361  1  0.418300  0.001900  0.411900  1.0
  H  H1362  1  0.998100  0.581700  0.088100  1.0
  H  H1363  1  0.679500  0.007700  0.553800  1.0
  H  H1364  1  0.992300  0.320500  0.946200  1.0
  H  H1365  1  0.320500  0.992300  0.446200  1.0
  H  H1366  1  0.007700  0.679500  0.053800  1.0
  H  H1367  1  0.776000  0.866400  0.562000  1.0
  H  H1368  1  0.133600  0.224000  0.938000  1.0
  H  H1369  1  0.224000  0.133600  0.438000  1.0
  H  H1370  1  0.866400  0.776000  0.062000  1.0
  H  H1371  1  0.774800  0.931000  0.541400  1.0
  H  H1372  1  0.069000  0.225200  0.958600  1.0
  H  H1373  1  0.225200  0.069000  0.458600  1.0
  H  H1374  1  0.931000  0.774800  0.041400  1.0
  H  H1375  1  0.919500  0.763300  0.448800  1.0
  H  H1376  1  0.236700  0.080500  0.051200  1.0
  H  H1377  1  0.080500  0.236700  0.551200  1.0
  H  H1378  1  0.763300  0.919500  0.948800  1.0
  H  H1379  1  0.933900  0.804900  0.497500  1.0
  H  H1380  1  0.195100  0.066100  0.002500  1.0
  H  H1381  1  0.066100  0.195100  0.502500  1.0
  H  H1382  1  0.804900  0.933900  0.997500  1.0
  H  H1383  1  0.857400  0.851200  0.527900  1.0
  H  H1384  1  0.148800  0.142600  0.972100  1.0
  H  H1385  1  0.142600  0.148800  0.472100  1.0
  H  H1386  1  0.851200  0.857400  0.027900  1.0
  H  H1387  1  0.713200  0.799000  0.436700  1.0
  H  H1388  1  0.201000  0.286800  0.063300  1.0
  H  H1389  1  0.286800  0.201000  0.563300  1.0
  H  H1390  1  0.799000  0.713200  0.936700  1.0
  H  H1391  1  0.634700  0.848700  0.468100  1.0
  H  H1392  1  0.151300  0.365300  0.031900  1.0
  H  H1393  1  0.365300  0.151300  0.531900  1.0
  H  H1394  1  0.848700  0.634700  0.968100  1.0
  H  H1395  1  0.649000  0.885600  0.518000  1.0
  H  H1396  1  0.114400  0.351000  0.982000  1.0
  H  H1397  1  0.351000  0.114400  0.482000  1.0
  H  H1398  1  0.885600  0.649000  0.018000  1.0
  N  N1399  1  0.937590  0.966590  0.338300  1.0
  N  N1400  1  0.033410  0.062410  0.161700  1.0
  N  N1401  1  0.062410  0.033410  0.661700  1.0
  N  N1402  1  0.966590  0.937590  0.838300  1.0
  N  N1403  1  0.836250  0.857030  0.298550  1.0
  N  N1404  1  0.142970  0.163750  0.201450  1.0
  N  N1405  1  0.163750  0.142970  0.701450  1.0
  N  N1406  1  0.857030  0.836250  0.798550  1.0
  N  N1407  1  0.873300  0.886100  0.314440  1.0
  N  N1408  1  0.113900  0.126700  0.185560  1.0
  N  N1409  1  0.126700  0.113900  0.685560  1.0
  N  N1410  1  0.886100  0.873300  0.814440  1.0
  N  N1411  1  0.870360  0.337560  0.310760  1.0
  N  N1412  1  0.662440  0.129640  0.189240  1.0
  N  N1413  1  0.129640  0.662440  0.689240  1.0
  N  N1414  1  0.337560  0.870360  0.810760  1.0
  N  N1415  1  0.966500  0.477120  0.323250  1.0
  N  N1416  1  0.522880  0.033500  0.176750  1.0
  N  N1417  1  0.033500  0.522880  0.676750  1.0
  N  N1418  1  0.477120  0.966500  0.823250  1.0
  N  N1419  1  0.930010  0.435090  0.314750  1.0
  N  N1420  1  0.564910  0.069990  0.185250  1.0
  N  N1421  1  0.069990  0.564910  0.685250  1.0
  N  N1422  1  0.435090  0.930010  0.814750  1.0
  N  N1423  1  0.383070  0.729670  0.502690  1.0
  N  N1424  1  0.270330  0.616930  0.997310  1.0
  N  N1425  1  0.616930  0.270330  0.497310  1.0
  N  N1426  1  0.729670  0.383070  0.002690  1.0
  N  N1427  1  0.328920  0.562800  0.518990  1.0
  N  N1428  1  0.437200  0.671080  0.981010  1.0
  N  N1429  1  0.671080  0.437200  0.481010  1.0
  N  N1430  1  0.562800  0.328920  0.018990  1.0
  N  N1431  1  0.344310  0.619270  0.509150  1.0
  N  N1432  1  0.380730  0.655690  0.990850  1.0
  N  N1433  1  0.655690  0.380730  0.490850  1.0
  N  N1434  1  0.619270  0.344310  0.009150  1.0
  N  N1435  1  0.277760  0.187520  0.350470  1.0
  N  N1436  1  0.812480  0.722240  0.149530  1.0
  N  N1437  1  0.722240  0.812480  0.649530  1.0
  N  N1438  1  0.187520  0.277760  0.850470  1.0
  N  N1439  1  0.347370  0.346770  0.347950  1.0
  N  N1440  1  0.653230  0.652630  0.152050  1.0
  N  N1441  1  0.652630  0.653230  0.652050  1.0
  N  N1442  1  0.346770  0.347370  0.847950  1.0
  N  N1443  1  0.322820  0.293420  0.354100  1.0
  N  N1444  1  0.706580  0.677180  0.145900  1.0
  N  N1445  1  0.677180  0.706580  0.645900  1.0
  N  N1446  1  0.293420  0.322820  0.854100  1.0
  N  N1447  1  0.355490  0.251090  0.432540  1.0
  N  N1448  1  0.748910  0.644510  0.067460  1.0
  N  N1449  1  0.644510  0.748910  0.567460  1.0
  N  N1450  1  0.251090  0.355490  0.932540  1.0
  N  N1451  1  0.177960  0.259360  0.418020  1.0
  N  N1452  1  0.740640  0.822040  0.081980  1.0
  N  N1453  1  0.822040  0.740640  0.581980  1.0
  N  N1454  1  0.259360  0.177960  0.918020  1.0
  N  N1455  1  0.238650  0.252850  0.418270  1.0
  N  N1456  1  0.747150  0.761350  0.081730  1.0
  N  N1457  1  0.761350  0.747150  0.581730  1.0
  N  N1458  1  0.252850  0.238650  0.918270  1.0
  N  N1459  1  0.814860  0.381060  0.241620  1.0
  N  N1460  1  0.618940  0.185140  0.258380  1.0
  N  N1461  1  0.185140  0.618940  0.758380  1.0
  N  N1462  1  0.381060  0.814860  0.741620  1.0
  N  N1463  1  0.995450  0.361250  0.235380  1.0
  N  N1464  1  0.638750  0.004550  0.264620  1.0
  N  N1465  1  0.004550  0.638750  0.764620  1.0
  N  N1466  1  0.361250  0.995450  0.735380  1.0
  N  N1467  1  0.936130  0.370330  0.242050  1.0
  N  N1468  1  0.629670  0.063870  0.257950  1.0
  N  N1469  1  0.063870  0.629670  0.757950  1.0
  N  N1470  1  0.370330  0.936130  0.742050  1.0
  N  N1471  1  0.436870  0.634070  0.449400  1.0
  N  N1472  1  0.365930  0.563130  0.050600  1.0
  N  N1473  1  0.563130  0.365930  0.550600  1.0
  N  N1474  1  0.634070  0.436870  0.949400  1.0
  N  N1475  1  0.285040  0.608760  0.407720  1.0
  N  N1476  1  0.391240  0.714960  0.092280  1.0
  N  N1477  1  0.714960  0.391240  0.592280  1.0
  N  N1478  1  0.608760  0.285040  0.907720  1.0
  N  N1479  1  0.330980  0.622840  0.425100  1.0
  N  N1480  1  0.377160  0.669020  0.074900  1.0
  N  N1481  1  0.669020  0.377160  0.574900  1.0
  N  N1482  1  0.622840  0.330980  0.925100  1.0
  N  N1483  1  0.839070  0.910670  0.387450  1.0
  N  N1484  1  0.089330  0.160930  0.112550  1.0
  N  N1485  1  0.160930  0.089330  0.612550  1.0
  N  N1486  1  0.910670  0.839070  0.887450  1.0
  N  N1487  1  0.006600  0.904600  0.417160  1.0
  N  N1488  1  0.095400  0.993400  0.082840  1.0
  N  N1489  1  0.993400  0.095400  0.582840  1.0
  N  N1490  1  0.904600  0.006600  0.917160  1.0
  N  N1491  1  0.952270  0.898670  0.405090  1.0
  N  N1492  1  0.101330  0.047730  0.094910  1.0
  N  N1493  1  0.047730  0.101330  0.594910  1.0
  N  N1494  1  0.898670  0.952270  0.905090  1.0
  N  N1495  1  0.872380  0.500160  0.248130  1.0
  N  N1496  1  0.499840  0.127620  0.251870  1.0
  N  N1497  1  0.127620  0.499840  0.751870  1.0
  N  N1498  1  0.500160  0.872380  0.748130  1.0
  N  N1499  1  0.740530  0.459330  0.317140  1.0
  N  N1500  1  0.540670  0.259470  0.182860  1.0
  N  N1501  1  0.259470  0.540670  0.682860  1.0
  N  N1502  1  0.459330  0.740530  0.817140  1.0
  N  N1503  1  0.790910  0.467030  0.297410  1.0
  N  N1504  1  0.532970  0.209090  0.202590  1.0
  N  N1505  1  0.209090  0.532970  0.702590  1.0
  N  N1506  1  0.467030  0.790910  0.797410  1.0
  N  N1507  1  0.640930  0.245130  0.571950  1.0
  N  N1508  1  0.754870  0.359070  0.928050  1.0
  N  N1509  1  0.359070  0.754870  0.428050  1.0
  N  N1510  1  0.245130  0.640930  0.071950  1.0
  N  N1511  1  0.790790  0.266890  0.511430  1.0
  N  N1512  1  0.733110  0.209210  0.988570  1.0
  N  N1513  1  0.209210  0.733110  0.488570  1.0
  N  N1514  1  0.266890  0.790790  0.011430  1.0
  N  N1515  1  0.737240  0.267060  0.529700  1.0
  N  N1516  1  0.732940  0.262760  0.970300  1.0
  N  N1517  1  0.262760  0.732940  0.470300  1.0
  N  N1518  1  0.267060  0.737240  0.029700  1.0
  N  N1519  1  0.996670  0.831870  0.335980  1.0
  N  N1520  1  0.168130  0.003330  0.164020  1.0
  N  N1521  1  0.003330  0.168130  0.664020  1.0
  N  N1522  1  0.831870  0.996670  0.835980  1.0
  N  N1523  1  0.878040  0.742060  0.396240  1.0
  N  N1524  1  0.257940  0.121960  0.103760  1.0
  N  N1525  1  0.121960  0.257940  0.603760  1.0
  N  N1526  1  0.742060  0.878040  0.896240  1.0
  N  N1527  1  0.913490  0.779770  0.376550  1.0
  N  N1528  1  0.220230  0.086510  0.123450  1.0
  N  N1529  1  0.086510  0.220230  0.623450  1.0
  N  N1530  1  0.779770  0.913490  0.876550  1.0
  N  N1531  1  0.589600  0.817000  0.630750  1.0
  N  N1532  1  0.183000  0.410400  0.869250  1.0
  N  N1533  1  0.410400  0.183000  0.369250  1.0
  N  N1534  1  0.817000  0.589600  0.130750  1.0
  N  N1535  1  0.697600  0.916200  0.567800  1.0
  N  N1536  1  0.083800  0.302400  0.932200  1.0
  N  N1537  1  0.302400  0.083800  0.432200  1.0
  N  N1538  1  0.916200  0.697600  0.067800  1.0
  N  N1539  1  0.664400  0.875000  0.587360  1.0
  N  N1540  1  0.125000  0.335600  0.912640  1.0
  N  N1541  1  0.335600  0.125000  0.412640  1.0
  N  N1542  1  0.875000  0.664400  0.087360  1.0
  O  O1543  1  0.133000  0.549600  0.483100  1
  O  O1544  1  0.450400  0.867000  0.016900  1
  O  O1545  1  0.867000  0.450400  0.516900  1
  O  O1546  1  0.549600  0.133000  0.983100  1
  O  O1547  1  0.965200  0.406000  0.469700  1
  O  O1548  1  0.594000  0.034800  0.030300  1
  O  O1549  1  0.034800  0.594000  0.530300  1
  O  O1550  1  0.406000  0.965200  0.969700  1
  O  O1551  1  0.052500  0.530100  0.437200  1
  O  O1552  1  0.469900  0.947500  0.062800  1
  O  O1553  1  0.947500  0.469900  0.562800  1
  O  O1554  1  0.530100  0.052500  0.937200  1
  O  O1555  1  0.954600  0.608200  0.475300  1
  O  O1556  1  0.391800  0.045400  0.024700  1
  O  O1557  1  0.045400  0.391800  0.524700  1
  O  O1558  1  0.608200  0.954600  0.975300  1
  O  O1559  1  0.836600  0.572400  0.484400  1
  O  O1560  1  0.427600  0.163400  0.015600  1
  O  O1561  1  0.163400  0.427600  0.515600  1
  O  O1562  1  0.572400  0.836600  0.984400  1
  O  O1563  1  0.232300  0.767700  0.250000  1
  O  O1564  1  0.767700  0.232300  0.750000  1
  O  O1565  1  0.257000  0.672000  0.297060  1
  O  O1566  1  0.328000  0.743000  0.202940  1
  O  O1567  1  0.743000  0.328000  0.702940  1
  O  O1568  1  0.672000  0.257000  0.797060  1
  O  O1569  1  0.399600  0.503400  0.297300  1
  O  O1570  1  0.496600  0.600400  0.202700  1
  O  O1571  1  0.600400  0.496600  0.702700  1
  O  O1572  1  0.503400  0.399600  0.797300  1
  O  O1573  1  0.130100  0.749900  0.218900  1
  O  O1574  1  0.250100  0.869900  0.281100  1
  O  O1575  1  0.869900  0.250100  0.781100  1
  O  O1576  1  0.749900  0.130100  0.718900  1
  O  O1577  1  0.692500  0.105900  0.396200  1
  O  O1578  1  0.894100  0.307500  0.103800  1
  O  O1579  1  0.307500  0.894100  0.603800  1
  O  O1580  1  0.105900  0.692500  0.896200  1
  O  O1581  1  0.797200  0.073000  0.359100  1
  O  O1582  1  0.927000  0.202800  0.140900  1
  O  O1583  1  0.202800  0.927000  0.640900  1
  O  O1584  1  0.073000  0.797200  0.859100  1
  O  O1585  1  0.156100  0.631300  0.206400  1
  O  O1586  1  0.368700  0.843900  0.293600  1
  O  O1587  1  0.843900  0.368700  0.793600  1
  O  O1588  1  0.631300  0.156100  0.706400  1
  O  O1589  1  0.106400  0.948800  0.488600  1
  O  O1590  1  0.051200  0.893600  0.011400  1
  O  O1591  1  0.893600  0.051200  0.511400  1
  O  O1592  1  0.948800  0.106400  0.988600  1
  O  O1593  1  0.398100  0.967100  0.592500  1
  O  O1594  1  0.032900  0.601900  0.907500  1
  O  O1595  1  0.601900  0.032900  0.407500  1
  O  O1596  1  0.967100  0.398100  0.092500  1
  O  O1597  1  0.180200  0.312000  0.229900  1
  O  O1598  1  0.688000  0.819800  0.270100  1
  O  O1599  1  0.819800  0.688000  0.770100  1
  O  O1600  1  0.312000  0.180200  0.729900  1
  O  O1601  1  0.621000  0.466400  0.244000  1
  O  O1602  1  0.533600  0.379000  0.256000  1
  O  O1603  1  0.379000  0.533600  0.756000  1
  O  O1604  1  0.466400  0.621000  0.744000  1
  O  O1605  1  0.129100  0.545500  0.492300  1
  O  O1606  1  0.454500  0.870900  0.007700  1
  O  O1607  1  0.870900  0.454500  0.507700  1
  O  O1608  1  0.545500  0.129100  0.992300  1
  O  O1609  1  0.088600  0.523000  0.428100  1
  O  O1610  1  0.477000  0.911400  0.071900  1
  O  O1611  1  0.911400  0.477000  0.571900  1
  O  O1612  1  0.523000  0.088600  0.928100  1
  O  O1613  1  0.863300  0.562700  0.476500  1
  O  O1614  1  0.437300  0.136700  0.023500  1
  O  O1615  1  0.136700  0.437300  0.523500  1
  O  O1616  1  0.562700  0.863300  0.976500  1
  O  O1617  1  0.919900  0.590100  0.530900  1
  O  O1618  1  0.409900  0.080100  0.969100  1
  O  O1619  1  0.080100  0.409900  0.469100  1
  O  O1620  1  0.590100  0.919900  0.030900  1
  O  O1621  1  0.965200  0.525800  0.433400  1
  O  O1622  1  0.474200  0.034800  0.066600  1
  O  O1623  1  0.034800  0.474200  0.566600  1
  O  O1624  1  0.525800  0.965200  0.933400  1
