
#######################################################################
#
#                 Cambridge Crystallographic Data Centre
#                                CCDC 
#
#######################################################################
#
# If this CIF has been generated from an entry in the Cambridge 
# Structural Database, then it will include bibliographic, chemical, 
# crystal, experimental, refinement or atomic coordinate data resulting 
# from the CCDC's data processing and validation procedures.
#
#######################################################################

data_CETBEL
_chemical_formula_moiety         'C336 H264 Co8 N72 16+,16(B1 F4 1-),28(H2 O1)'
_chemical_name_systematic        
"dodecakis(\m-2,2'-[naphthalene-1,5-diylbis(methylene-1H-pyrazole-1,3-diyl)]dipyridine)-octa-cobalt hexadecakis(tetrafluoroborate) octacosahydrate"
_symmetry_cell_setting           monoclinic
_symmetry_space_group_name_H-M   'C 2/c'
_symmetry_Int_Tables_number      15
_space_group_name_Hall           '-C 2yn'
loop_
_symmetry_equiv_pos_site_id
_symmetry_equiv_pos_as_xyz
1 x,y,z
2 -x,y,1/2-z
3 1/2+x,1/2+y,z
4 1/2-x,1/2+y,1/2-z
5 -x,-y,-z
6 x,-y,1/2+z
7 1/2-x,1/2-y,-z
8 1/2+x,1/2-y,1/2+z
_cell_length_a                   32.9721(4)
_cell_length_b                   29.9227(5)
_cell_length_c                   40.0392(6)
_cell_angle_alpha                90
_cell_angle_beta                 96.2151(12)
_cell_angle_gamma                90
_cell_volume                     39271.1
_exptl_crystal_colour            'light orange'
_exptl_crystal_description       prism
_cell_formula_units_Z            4
_chemical_properties_physical    Efflorescent
_exptl_crystal_recrystallization_method 
'methanol, then crystals immersed in water'
loop_
_atom_site_label
_atom_site_type_symbol
_atom_site_fract_x
_atom_site_fract_y
_atom_site_fract_z
Co1 Co 0.51447(2) 0.83470(3) 0.53578(2)
Co2 Co 0.39718(3) 0.52155(3) 0.64000(2)
Co3 Co 0.26932(3) 1.05257(3) 0.60962(2)
Co4 Co 0.14308(2) 0.72777(3) 0.72331(2)
N1 N 0.45209(18) 0.4855(3) 0.6617(2)
C1 C 0.4470(2) 0.4612(3) 0.6888(3)
C2 C 0.4759(3) 0.4317(5) 0.7024(4)
H1 H 0.4716 0.4140 0.7214
C3 C 0.5104(4) 0.4287(7) 0.6879(5)
H2 H 0.5320 0.4108 0.6982
C4 C 0.5158(4) 0.4510(6) 0.6582(5)
H3 H 0.5378 0.4445 0.6454
C5 C 0.4872(3) 0.4827(4) 0.6489(3)
H4 H 0.4928 0.5039 0.6323
N2 N 0.34664(17) 0.48961(18) 0.70145(15)
N3 N 0.37970(17) 0.4936(2) 0.68556(15)
C6 C 0.4074(2) 0.4650(3) 0.7012(2)
C7 C 0.3911(2) 0.4423(3) 0.7267(2)
H5 H 0.4039 0.4202 0.7413
C8 C 0.3528(2) 0.4585(2) 0.7264(2)
H6 H 0.3334 0.4498 0.7410
C9 C 0.3103(2) 0.5154(2) 0.69091(18)
H7 H 0.2864 0.5007 0.6992
H8 H 0.3058 0.5158 0.6661
N4 N 0.10396(14) 0.76640(19) 0.68924(12)
C10 C 0.11954(17) 0.7808(2) 0.66170(15)
C11 C 0.0969(2) 0.8055(2) 0.63653(16)
H9 H 0.1089 0.8148 0.6171
C12 C 0.0568(2) 0.8163(3) 0.64016(18)
H10 H 0.0406 0.8328 0.6234
C13 C 0.0408(2) 0.8021(3) 0.66927(18)
H11 H 0.0134 0.8090 0.6726
C14 C 0.06489(18) 0.7780(3) 0.69302(17)
H12 H 0.0537 0.7690 0.7129
N5 N 0.22181(14) 0.74469(18) 0.67675(13)
N6 N 0.18255(13) 0.74746(16) 0.68525(12)
C15 C 0.16260(17) 0.7692(2) 0.65973(15)
C16 C 0.18855(19) 0.7808(2) 0.63549(16)
H13 H 0.1818 0.7969 0.6152
C17 C 0.22558(19) 0.7636(2) 0.64762(16)
H14 H 0.2499 0.7650 0.6369
C18 C 0.25272(17) 0.7176(2) 0.69674(16)
H15 H 0.2482 0.7196 0.7207
H16 H 0.2801 0.7299 0.6943
C19 C 0.31316(19) 0.5640(2) 0.70397(16)
C20 C 0.3436(2) 0.5794(2) 0.72645(16)
H17 H 0.3645 0.5596 0.7353
C21 C 0.34460(18) 0.6245(2) 0.73697(16)
H18 H 0.3662 0.6344 0.7529
C22 C 0.31501(17) 0.6542(2) 0.72462(15)
H19 H 0.3161 0.6844 0.7319
C23 C 0.28252(17) 0.6394(2) 0.70073(15)
C24 C 0.28087(18) 0.5936(2) 0.69100(15)
C25 C 0.24786(18) 0.5793(2) 0.66774(17)
H20 H 0.2460 0.5487 0.6615
C26 C 0.21933(19) 0.6076(2) 0.65441(17)
H21 H 0.1976 0.5971 0.6388
C27 C 0.22139(17) 0.6534(2) 0.66352(16)
H22 H 0.2013 0.6736 0.6536
C28 C 0.25146(16) 0.6687(2) 0.68611(15)
N7 N 0.55637(15) 0.8267(2) 0.49731(16)
C29 C 0.54320(18) 0.8449(2) 0.46705(17)
C30 C 0.5660(2) 0.8406(3) 0.43934(19)
H23 H 0.5569 0.8542 0.4184
C31 C 0.6021(2) 0.8161(3) 0.4432(2)
H24 H 0.6174 0.8114 0.4248
C32 C 0.6149(2) 0.7991(3) 0.4743(3)
H25 H 0.6401 0.7834 0.4777
C33 C 0.5919(2) 0.8042(3) 0.5008(2)
H26 H 0.6013 0.7915 0.5220
N8 N 0.44586(14) 0.88306(17) 0.48101(12)
N9 N 0.48179(14) 0.86252(17) 0.49085(12)
C34 C 0.50492(18) 0.8660(2) 0.46518(16)
C35 C 0.4825(2) 0.8901(2) 0.43846(17)
H27 H 0.4914 0.8982 0.4175
C36 C 0.4453(2) 0.8992(2) 0.44957(16)
H28 H 0.4231 0.9143 0.4372
C37 C 0.41447(17) 0.8859(2) 0.50306(15)
H29 H 0.4153 0.8585 0.5170
H30 H 0.3877 0.8867 0.4893
N10 N 0.23264(15) 1.04512(19) 0.64953(12)
C38 C 0.24882(19) 1.0189(2) 0.67473(15)
C39 C 0.2260(2) 1.0061(3) 0.70089(17)
H31 H 0.2373 0.9868 0.7183
C40 C 0.1866(2) 1.0226(3) 0.70055(19)
H32 H 0.1704 1.0149 0.7179
C41 C 0.1715(2) 1.0497(3) 0.67540(19)
H33 H 0.1447 1.0615 0.6753
C42 C 0.19396(18) 1.0601(2) 0.65049(16)
H34 H 0.1823 1.0788 0.6328
N11 N 0.34707(17) 1.0003(2) 0.65205(15)
N12 N 0.30812(16) 1.0147(2) 0.64590(13)
C43 C 0.2903(2) 1.0055(3) 0.67312(16)
C44 C 0.3182(2) 0.9836(4) 0.69784(19)
H35 H 0.3134 0.9727 0.7193
C45 C 0.3535(3) 0.9823(4) 0.6829(2)
H36 H 0.3787 0.9704 0.6928
C46 C 0.3752(2) 1.0039(3) 0.6268(2)
H37 H 0.4035 1.0054 0.6380
H38 H 0.3697 1.0321 0.6141
C47 C 0.41758(18) 0.9265(2) 0.52629(16)
C48 C 0.4449(2) 0.9599(2) 0.52214(18)
H39 H 0.4624 0.9578 0.5049
C49 C 0.4469(2) 0.9982(3) 0.54405(19)
H40 H 0.4650 1.0221 0.5406
C50 C 0.42337(19) 1.0001(2) 0.56914(17)
H41 H 0.4254 1.0251 0.5839
C51 C 0.39584(19) 0.9658(2) 0.57395(18)
C52 C 0.39206(17) 0.9293(2) 0.55188(15)
C53 C 0.36385(16) 0.8938(2) 0.55702(16)
H42 H 0.3607 0.8695 0.5417
C54 C 0.34198(19) 0.8950(2) 0.58331(18)
H43 H 0.3230 0.8718 0.5861
C55 C 0.34675(19) 0.9301(3) 0.60686(19)
H44 H 0.3322 0.9294 0.6261
C56 C 0.37185(19) 0.9649(3) 0.60235(18)
N13 N 0.30329(19) 1.0522(2) 0.56746(14)
C57 C 0.2959(2) 1.0170(3) 0.54599(16)
C58 C 0.3131(2) 1.0149(4) 0.51591(18)
H45 H 0.3072 0.9904 0.5011
C59 C 0.3377(3) 1.0473(4) 0.5080(2)
H46 H 0.3501 1.0455 0.4878
C60 C 0.3454(3) 1.0836(4) 0.5290(2)
H47 H 0.3623 1.1075 0.5233
C61 C 0.3273(3) 1.0837(3) 0.5590(2)
H48 H 0.3328 1.1081 0.5741
N14 N 0.21866(16) 0.9593(2) 0.58198(13)
N15 N 0.24575(16) 0.9929(2) 0.58173(13)
C62 C 0.2661(2) 0.9847(3) 0.55523(16)
C63 C 0.2529(2) 0.9446(3) 0.53986(19)
H49 H 0.2630 0.9308 0.5211
C64 C 0.2234(2) 0.9299(3) 0.55670(18)
H50 H 0.2080 0.9034 0.5520
C65 C 0.19295(19) 0.9509(2) 0.60836(16)
H51 H 0.1672 0.9369 0.5984
H52 H 0.1859 0.9798 0.6183
N16 N 0.09796(15) 0.7169(2) 0.75838(13)
C66 C 0.0986(2) 0.7480(3) 0.78371(18)
C67 C 0.0718(3) 0.7440(4) 0.8085(2)
H53 H 0.0730 0.7655 0.8260
C68 C 0.0454(3) 0.7114(4) 0.8081(2)
H54 H 0.0271 0.7098 0.8248
C69 C 0.0441(2) 0.6788(3) 0.7827(2)
H55 H 0.0259 0.6542 0.7822
C70 C 0.07143(18) 0.6842(3) 0.75768(17)
H56 H 0.0703 0.6633 0.7398
N17 N 0.17835(16) 0.8171(2) 0.76462(13)
N18 N 0.15323(15) 0.7829(2) 0.75795(13)
C71 C 0.1287(2) 0.7829(3) 0.78283(16)
C72 C 0.1396(2) 0.8190(3) 0.80428(18)
H57 H 0.1271 0.8272 0.8237
C73 C 0.1711(3) 0.8400(3) 0.79216(18)
H58 H 0.1853 0.8657 0.8012
C74 C 0.20606(19) 0.8323(2) 0.73969(17)
H59 H 0.2174 0.8058 0.7292
H60 H 0.2292 0.8490 0.7517
C75 C 0.21254(18) 0.9211(2) 0.63588(17)
C76 C 0.2520(2) 0.9074(3) 0.6360(2)
H61 H 0.2672 0.9167 0.6183
C77 C 0.2705(2) 0.8805(3) 0.6613(2)
H62 H 0.2983 0.8721 0.6609
C78 C 0.24987(19) 0.8658(2) 0.68642(19)
H63 H 0.2633 0.8474 0.7035
C79 C 0.20819(18) 0.8775(2) 0.68765(16)
C80 C 0.18921(17) 0.9068(2) 0.66170(15)
C81 C 0.14781(18) 0.9185(2) 0.66277(16)
H64 H 0.1350 0.9387 0.6466
C82 C 0.12614(18) 0.9011(2) 0.68685(16)
H65 H 0.0981 0.9085 0.6866
C83 C 0.14404(19) 0.8732(2) 0.71140(17)
H66 H 0.1281 0.8616 0.7278
C84 C 0.18523(17) 0.8615(2) 0.71273(16)
N19 N 0.53547(16) 0.9014(2) 0.55060(15)
C85 C 0.5206(2) 0.9188(3) 0.57810(19)
C86 C 0.5341(2) 0.9582(3) 0.5921(2)
H67 H 0.5240 0.9683 0.6122
C87 C 0.5618(2) 0.9831(3) 0.5775(2)
H68 H 0.5708 1.0110 0.5869
C88 C 0.5766(2) 0.9671(3) 0.5488(2)
H69 H 0.5956 0.9841 0.5379
C89 C 0.5633(2) 0.9257(3) 0.5362(2)
H70 H 0.5742 0.9143 0.5169
N20 N 0.44690(15) 0.83814(18) 0.59228(13)
N21 N 0.47691(15) 0.85407(19) 0.57490(13)
C90 C 0.4890(2) 0.8922(2) 0.59110(17)
C91 C 0.4671(2) 0.8998(2) 0.61877(17)
H71 H 0.4699 0.9240 0.6342
C92 C 0.4412(2) 0.8647(2) 0.61838(17)
H72 H 0.4220 0.8598 0.6340
C93 C 0.42704(18) 0.7963(2) 0.58353(16)
H73 H 0.4244 0.7929 0.5588
H74 H 0.3992 0.7971 0.5905
N22 N 0.37487(19) 0.4642(2) 0.61255(18)
C94 C 0.3888(3) 0.4579(2) 0.5833(2)
C95 C 0.3788(3) 0.4214(3) 0.5631(3)
H75 H 0.3896 0.4172 0.5423
C96 C 0.3518(3) 0.3910(3) 0.5752(3)
H76 H 0.3433 0.3653 0.5624
C97 C 0.3384(3) 0.3980(3) 0.6037(3)
H77 H 0.3202 0.3770 0.6118
C98 C 0.3493(3) 0.4337(2) 0.6223(3)
H78 H 0.3385 0.4376 0.6432
N23 N 0.4556(2) 0.5510(2) 0.58284(19)
N24 N 0.42547(18) 0.5268(2) 0.59491(16)
C99 C 0.4184(3) 0.4915(3) 0.5743(2)
C100 C 0.4426(3) 0.4935(3) 0.5478(3)
H79 H 0.4431 0.4732 0.5296
C101 C 0.4656(3) 0.5318(3) 0.5543(3)
H80 H 0.4853 0.5428 0.5407
C102 C 0.4711(2) 0.5908(3) 0.5979(2)
H81 H 0.4994 0.5952 0.5924
H82 H 0.4720 0.5878 0.6226
C103 C 0.44885(17) 0.7564(2) 0.59913(15)
C104 C 0.48206(19) 0.7603(3) 0.62249(16)
H83 H 0.4913 0.7891 0.6298
C105 C 0.5023(2) 0.7228(3) 0.63551(17)
H84 H 0.5248 0.7264 0.6522
C106 C 0.49106(19) 0.6809(3) 0.62531(17)
H85 H 0.5057 0.6557 0.6348
C107 C 0.45767(17) 0.6749(2) 0.60065(17)
C108 C 0.43563(17) 0.7137(2) 0.58834(15)
C109 C 0.40015(17) 0.7073(2) 0.56390(16)
H86 H 0.3840 0.7323 0.5563
C110 C 0.38990(19) 0.6662(2) 0.55191(17)
H87 H 0.3666 0.6629 0.5359
C111 C 0.41242(19) 0.6285(2) 0.56234(19)
H88 H 0.4051 0.6002 0.5528
C112 C 0.44564(19) 0.6322(2) 0.58663(19)
N25 N 0.18627(15) 0.68611(19) 0.75187(13)
C113 C 0.18457(19) 0.6420(2) 0.74413(16)
C114 C 0.2133(2) 0.6116(3) 0.75953(18)
H89 H 0.2118 0.5808 0.7536
C115 C 0.2427(2) 0.6260(3) 0.7825(2)
H90 H 0.2625 0.6056 0.7926
C116 C 0.2443(2) 0.6709(3) 0.79181(19)
H91 H 0.2647 0.6816 0.8085
C117 C 0.21482(19) 0.6997(3) 0.77564(17)
H92 H 0.2153 0.7302 0.7820
N26 N 0.09993(17) 0.6406(2) 0.68286(14)
N27 N 0.12897(15) 0.66194(18) 0.70259(13)
C118 C 0.1518(2) 0.6297(2) 0.71891(17)
C119 C 0.1366(3) 0.5876(3) 0.7070(2)
H93 H 0.1474 0.5591 0.7136
C120 C 0.1043(3) 0.5955(3) 0.6848(2)
H94 H 0.0876 0.5738 0.6726
C121 C 0.07011(19) 0.6655(3) 0.65964(17)
H95 H 0.0635 0.6941 0.6703
H96 H 0.0446 0.6479 0.6558
N28 N -0.05697(15) 0.6979(2) 0.42805(14)
C122 C -0.05609(19) 0.7441(3) 0.42961(18)
C123 C -0.0839(2) 0.7709(3) 0.40993(19)
H97 H -0.0826 0.8025 0.4119
C124 C -0.1138(3) 0.7508(4) 0.3872(2)
H98 H -0.1330 0.7682 0.3734
C125 C -0.1143(3) 0.7057(4) 0.3856(3)
H99 H -0.1343 0.6913 0.3704
C126 C -0.0848(2) 0.6780(4) 0.4068(2)
H100 H -0.0857 0.6463 0.4053
N29 N 0.02884(13) 0.76195(17) 0.48857(12)
N30 N 0.00215(14) 0.73509(18) 0.47030(12)
C127 C -0.02424(18) 0.7629(3) 0.45250(17)
C128 C -0.01428(19) 0.8071(3) 0.46037(17)
H101 H -0.0279 0.8331 0.4514
C129 C 0.01909(18) 0.8052(2) 0.48358(17)
H102 H 0.0330 0.8300 0.4943
C130 C 0.06035(16) 0.7443(2) 0.51214(14)
H103 H 0.0835 0.7655 0.5146
H104 H 0.0703 0.7159 0.5032
C131 C 0.08509(17) 0.6754(2) 0.62622(15)
C132 C 0.12271(18) 0.6612(2) 0.61815(16)
H105 H 0.1395 0.6435 0.6337
C133 C 0.13639(17) 0.6726(2) 0.58730(15)
H106 H 0.1625 0.6628 0.5824
C134 C 0.11292(16) 0.6973(2) 0.56442(15)
H107 H 0.1230 0.7053 0.5439
C135 C 0.07309(16) 0.71157(19) 0.57082(14)
C136 C 0.05997(17) 0.7013(2) 0.60279(15)
C137 C 0.02030(18) 0.7167(2) 0.60920(17)
H108 H 0.0106 0.7104 0.6302
C138 C -0.00389(18) 0.7404(2) 0.58509(17)
H109 H -0.0298 0.7508 0.5899
C139 C 0.00889(17) 0.7491(2) 0.55436(16)
H110 H -0.0085 0.7651 0.5380
C140 C 0.04612(16) 0.7354(2) 0.54688(15)
N31 N 0.41427(16) 0.5824(2) 0.66402(14)
C141 C 0.38963(19) 0.6181(2) 0.65645(16)
C142 C 0.3976(2) 0.6601(2) 0.66909(17)
H111 H 0.3805 0.6847 0.6621
C143 C 0.4317(3) 0.6656(3) 0.6928(2)
H112 H 0.4383 0.6943 0.7018
C144 C 0.4550(3) 0.6303(4) 0.7026(2)
H113 H 0.4768 0.6335 0.7200
C145 C 0.4472(2) 0.5885(3) 0.6869(2)
H114 H 0.4652 0.5642 0.6925
N32 N 0.31005(15) 0.56799(17) 0.60376(13)
N33 N 0.34663(14) 0.56686(16) 0.62345(11)
C146 C 0.35342(18) 0.60828(19) 0.63282(15)
C147 C 0.32262(19) 0.6366(2) 0.61959(16)
H115 H 0.3208 0.6680 0.6228
C148 C 0.2955(2) 0.6098(2) 0.60096(17)
H116 H 0.2709 0.6190 0.5883
C149 C 0.29208(18) 0.5292(2) 0.58600(16)
H117 H 0.2621 0.5330 0.5824
H118 H 0.2979 0.5023 0.6001
N34 N 0.2033(2) 0.3863(2) 0.36925(14)
C150 C 0.2221(3) 0.3480(3) 0.37978(18)
C151 C 0.2069(3) 0.3066(3) 0.37085(19)
H119 H 0.2214 0.2801 0.3777
C152 C 0.1714(3) 0.3051(3) 0.3523(2)
H120 H 0.1590 0.2767 0.3477
C153 C 0.1518(3) 0.3421(3) 0.3394(2)
H121 H 0.1276 0.3396 0.3243
C154 C 0.1679(2) 0.3840(3) 0.34884(18)
H122 H 0.1541 0.4105 0.3410
N35 N 0.3069(2) 0.3907(3) 0.43220(15)
N36 N 0.2697(2) 0.3947(2) 0.41264(14)
C155 C 0.2593(3) 0.3539(3) 0.40157(19)
C156 C 0.2900(4) 0.3233(4) 0.4153(2)
H123 H 0.2899 0.2918 0.4119
C157 C 0.3193(3) 0.3472(4) 0.4341(2)
H124 H 0.3436 0.3359 0.4462
C158 C 0.3235(3) 0.4275(3) 0.45205(18)
H125 H 0.3212 0.4548 0.4380
H126 H 0.3529 0.4219 0.4586
C159 C 0.30812(19) 0.5218(2) 0.55236(16)
C160 C 0.3344(2) 0.5512(3) 0.53933(17)
H127 H 0.3414 0.5781 0.5512
C161 C 0.3510(2) 0.5433(3) 0.51005(18)
H128 H 0.3694 0.5645 0.5025
C162 C 0.3421(2) 0.5074(3) 0.49230(18)
H129 H 0.3543 0.5031 0.4721
C163 C 0.3147(2) 0.4748(3) 0.50242(17)
C164 C 0.2970(2) 0.4827(2) 0.53343(16)
C165 C 0.2688(2) 0.4521(3) 0.54348(18)
H130 H 0.2561 0.4571 0.5633
C166 C 0.2597(2) 0.4145(3) 0.52428(19)
H131 H 0.2417 0.3930 0.5319
C167 C 0.2755(2) 0.4074(3) 0.49500(19)
H132 H 0.2673 0.3817 0.4820
C168 C 0.3029(3) 0.4362(3) 0.48391(18)
Co1F Co -0.01447(2) 0.66530(3) 0.46422(2)
Co2F Co 0.10282(3) 0.97845(3) 0.36000(2)
Co3F Co 0.23068(3) 0.44743(3) 0.39038(2)
Co4F Co 0.35692(2) 0.77223(3) 0.27669(2)
N1F N 0.04791(18) 1.0145(3) 0.3383(2)
C1F C 0.0530(2) 1.0388(3) 0.3112(3)
C2F C 0.0241(3) 1.0683(5) 0.2976(4)
H1F H 0.0284 1.0860 0.2786
C3F C -0.0104(4) 1.0713(7) 0.3121(5)
H2F H -0.0320 1.0892 0.3018
C4F C -0.0158(4) 1.0490(6) 0.3418(5)
H3F H -0.0378 1.0555 0.3546
C5F C 0.0128(3) 1.0173(4) 0.3511(3)
H4F H 0.0072 0.9961 0.3677
N2F N 0.15336(17) 1.01039(18) 0.29855(15)
N3F N 0.12030(17) 1.0064(2) 0.31444(15)
C6F C 0.0926(2) 1.0350(3) 0.2988(2)
C7F C 0.1089(2) 1.0577(3) 0.2733(2)
H5F H 0.0961 1.0798 0.2587
C8F C 0.1472(2) 1.0415(2) 0.2736(2)
H6F H 0.1666 1.0502 0.2590
C9F C 0.1897(2) 0.9846(2) 0.30909(18)
H7F H 0.2136 0.9993 0.3008
H8F H 0.1942 0.9842 0.3339
N4F N 0.39604(14) 0.73360(19) 0.31076(12)
C10F C 0.38046(17) 0.7192(2) 0.33830(15)
C11F C 0.4031(2) 0.6945(2) 0.36347(16)
H9F H 0.3911 0.6852 0.3829
C12F C 0.4432(2) 0.6837(3) 0.35984(18)
H10F H 0.4594 0.6672 0.3766
C13F C 0.4592(2) 0.6979(3) 0.33073(18)
H11F H 0.4866 0.6910 0.3274
C14F C 0.43511(18) 0.7220(3) 0.30698(17)
H12F H 0.4463 0.7310 0.2871
N5F N 0.27819(14) 0.75531(18) 0.32325(13)
N6F N 0.31745(13) 0.75254(16) 0.31475(12)
C15F C 0.33740(17) 0.7308(2) 0.34027(15)
C16F C 0.31145(19) 0.7192(2) 0.36451(16)
H13F H 0.3182 0.7031 0.3848
C17F C 0.27442(19) 0.7364(2) 0.35238(16)
H14F H 0.2501 0.7350 0.3631
C18F C 0.24728(17) 0.7824(2) 0.30326(16)
H15F H 0.2518 0.7804 0.2793
H16F H 0.2199 0.7701 0.3057
C19F C 0.18684(19) 0.9360(2) 0.29603(16)
C20F C 0.1564(2) 0.9206(2) 0.27355(16)
H17F H 0.1355 0.9404 0.2647
C21F C 0.15540(18) 0.8755(2) 0.26303(16)
H18F H 0.1338 0.8656 0.2471
C22F C 0.18499(17) 0.8458(2) 0.27538(15)
H19F H 0.1839 0.8156 0.2681
C23F C 0.21748(17) 0.8606(2) 0.29927(15)
C24F C 0.21913(18) 0.9064(2) 0.30900(15)
C25F C 0.25214(18) 0.9207(2) 0.33226(17)
H20F H 0.2540 0.9513 0.3385
C26F C 0.28067(19) 0.8924(2) 0.34559(17)
H21F H 0.3024 0.9029 0.3612
C27F C 0.27861(17) 0.8466(2) 0.33648(16)
H22F H 0.2987 0.8264 0.3464
C28F C 0.24854(16) 0.8313(2) 0.31389(15)
N7F N -0.05637(15) 0.6733(2) 0.50269(16)
C29F C -0.04320(18) 0.6551(2) 0.53295(17)
C30F C -0.0660(2) 0.6594(3) 0.56066(19)
H23F H -0.0569 0.6458 0.5816
C31F C -0.1021(2) 0.6839(3) 0.5568(2)
H24F H -0.1174 0.6886 0.5752
C32F C -0.1149(2) 0.7009(3) 0.5257(3)
H25F H -0.1401 0.7166 0.5223
C33F C -0.0919(2) 0.6958(3) 0.4992(2)
H26F H -0.1013 0.7085 0.4780
N8F N 0.05414(14) 0.61694(17) 0.51899(12)
N9F N 0.01821(14) 0.63748(17) 0.50915(12)
C34F C -0.00492(18) 0.6340(2) 0.53482(16)
C35F C 0.0175(2) 0.6099(2) 0.56154(17)
H27F H 0.0086 0.6018 0.5825
C36F C 0.0547(2) 0.6008(2) 0.55043(16)
H28F H 0.0769 0.5857 0.5628
C37F C 0.08553(17) 0.6141(2) 0.49694(15)
H29F H 0.0847 0.6415 0.4830
H30F H 0.1123 0.6133 0.5107
N10F N 0.26736(15) 0.45488(19) 0.35047(12)
C38F C 0.25118(19) 0.4811(2) 0.32527(15)
C39F C 0.2740(2) 0.4939(3) 0.29911(17)
H31F H 0.2627 0.5132 0.2817
C40F C 0.3134(2) 0.4774(3) 0.29945(19)
H32F H 0.3296 0.4851 0.2821
C41F C 0.3285(2) 0.4503(3) 0.32460(19)
H33F H 0.3553 0.4385 0.3247
C42F C 0.30604(18) 0.4399(2) 0.34951(16)
H34F H 0.3177 0.4212 0.3672
N11F N 0.15293(17) 0.4997(2) 0.34795(15)
N12F N 0.19188(16) 0.4853(2) 0.35410(13)
C43F C 0.2097(2) 0.4945(3) 0.32688(16)
C44F C 0.1818(2) 0.5164(4) 0.30216(19)
H35F H 0.1866 0.5273 0.2807
C45F C 0.1465(3) 0.5177(4) 0.3171(2)
H36F H 0.1213 0.5296 0.3072
C46F C 0.1248(2) 0.4961(3) 0.3732(2)
H37F H 0.0965 0.4946 0.3620
H38F H 0.1303 0.4679 0.3859
C47F C 0.08242(18) 0.5735(2) 0.47371(16)
C48F C 0.0551(2) 0.5401(2) 0.47786(18)
H39F H 0.0376 0.5422 0.4951
C49F C 0.0531(2) 0.5018(3) 0.45595(19)
H40F H 0.0350 0.4779 0.4594
C50F C 0.07663(19) 0.4999(2) 0.43086(17)
H41F H 0.0746 0.4749 0.4161
C51F C 0.10416(19) 0.5342(2) 0.42605(18)
C52F C 0.10794(17) 0.5707(2) 0.44812(15)
C53F C 0.13615(16) 0.6062(2) 0.44298(16)
H42F H 0.1393 0.6305 0.4583
C54F C 0.15802(19) 0.6050(2) 0.41669(18)
H43F H 0.1770 0.6282 0.4139
C55F C 0.15325(19) 0.5699(3) 0.39314(19)
H44F H 0.1678 0.5706 0.3739
C56F C 0.12815(19) 0.5351(3) 0.39765(18)
N13F N 0.19671(19) 0.4478(2) 0.43254(14)
C57F C 0.2041(2) 0.4830(3) 0.45401(16)
C58F C 0.1869(2) 0.4851(4) 0.48409(18)
H45F H 0.1928 0.5096 0.4989
C59F C 0.1623(3) 0.4527(4) 0.4920(2)
H46F H 0.1499 0.4545 0.5122
C60F C 0.1546(3) 0.4164(4) 0.4710(2)
H47F H 0.1377 0.3925 0.4767
C61F C 0.1727(3) 0.4163(3) 0.4410(2)
H48F H 0.1672 0.3919 0.4259
N14F N 0.28134(16) 0.5407(2) 0.41802(13)
N15F N 0.25425(16) 0.5071(2) 0.41827(13)
C62F C 0.2339(2) 0.5153(3) 0.44477(16)
C63F C 0.2471(2) 0.5554(3) 0.46014(19)
H49F H 0.2370 0.5692 0.4789
C64F C 0.2766(2) 0.5701(3) 0.44330(18)
H50F H 0.2920 0.5966 0.4480
C65F C 0.30705(19) 0.5491(2) 0.39164(16)
H51F H 0.3328 0.5631 0.4016
H52F H 0.3141 0.5202 0.3817
N16F N 0.40204(15) 0.7831(2) 0.24162(13)
C66F C 0.4014(2) 0.7520(3) 0.21629(18)
C67F C 0.4282(3) 0.7560(4) 0.1915(2)
H53F H 0.4270 0.7345 0.1740
C68F C 0.4546(3) 0.7886(4) 0.1919(2)
H54F H 0.4729 0.7902 0.1752
C69F C 0.4559(2) 0.8212(3) 0.2173(2)
H55F H 0.4741 0.8458 0.2178
C70F C 0.42857(18) 0.8158(3) 0.24232(17)
H56F H 0.4297 0.8367 0.2602
N17F N 0.32165(16) 0.6829(2) 0.23538(13)
N18F N 0.34677(15) 0.7171(2) 0.24205(13)
C71F C 0.3713(2) 0.7171(3) 0.21717(16)
C72F C 0.3604(2) 0.6810(3) 0.19572(18)
H57F H 0.3729 0.6728 0.1763
C73F C 0.3289(3) 0.6600(3) 0.20784(18)
H58F H 0.3147 0.6343 0.1988
C74F C 0.29394(19) 0.6677(2) 0.26031(17)
H59F H 0.2826 0.6942 0.2708
H60F H 0.2708 0.6510 0.2483
C75F C 0.28746(18) 0.5789(2) 0.36412(17)
C76F C 0.2480(2) 0.5926(3) 0.3640(2)
H61F H 0.2328 0.5833 0.3817
C77F C 0.2295(2) 0.6195(3) 0.3387(2)
H62F H 0.2017 0.6279 0.3391
C78F C 0.25013(19) 0.6342(2) 0.31358(19)
H63F H 0.2367 0.6526 0.2965
C79F C 0.29181(18) 0.6225(2) 0.31235(16)
C80F C 0.31079(17) 0.5932(2) 0.33830(15)
C81F C 0.35219(18) 0.5815(2) 0.33723(16)
H64F H 0.3650 0.5613 0.3534
C82F C 0.37386(18) 0.5989(2) 0.31315(16)
H65F H 0.4019 0.5915 0.3134
C83F C 0.35596(19) 0.6268(2) 0.28860(17)
H66F H 0.3719 0.6384 0.2722
C84F C 0.31477(17) 0.6385(2) 0.28727(16)
N19F N -0.03547(16) 0.5986(2) 0.44940(15)
C85F C -0.0206(2) 0.5812(3) 0.42190(19)
C86F C -0.0341(2) 0.5418(3) 0.4079(2)
H67F H -0.0240 0.5317 0.3878
C87F C -0.0618(2) 0.5169(3) 0.4225(2)
H68F H -0.0708 0.4890 0.4131
C88F C -0.0766(2) 0.5329(3) 0.4512(2)
H69F H -0.0956 0.5159 0.4621
C89F C -0.0633(2) 0.5743(3) 0.4638(2)
H70F H -0.0742 0.5857 0.4831
N20F N 0.05310(15) 0.66186(18) 0.40772(13)
N21F N 0.02309(15) 0.64593(19) 0.42510(13)
C90F C 0.0110(2) 0.6078(2) 0.40890(17)
C91F C 0.0329(2) 0.6002(2) 0.38123(17)
H71F H 0.0301 0.5760 0.3658
C92F C 0.0588(2) 0.6353(2) 0.38162(17)
H72F H 0.0780 0.6402 0.3660
C93F C 0.07296(18) 0.7037(2) 0.41647(16)
H73F H 0.0756 0.7071 0.4412
H74F H 0.1008 0.7029 0.4095
N22F N 0.12513(19) 1.0358(2) 0.38745(18)
C94F C 0.1112(3) 1.0421(2) 0.4167(2)
C95F C 0.1212(3) 1.0786(3) 0.4369(3)
H75F H 0.1104 1.0828 0.4577
C96F C 0.1482(3) 1.1090(3) 0.4248(3)
H76F H 0.1567 1.1347 0.4376
C97F C 0.1616(3) 1.1020(3) 0.3963(3)
H77F H 0.1798 1.1230 0.3882
C98F C 0.1507(3) 1.0663(2) 0.3777(3)
H78F H 0.1615 1.0624 0.3568
N23F N 0.0444(2) 0.9490(2) 0.41716(19)
N24F N 0.07453(18) 0.9732(2) 0.40509(16)
C99F C 0.0816(3) 1.0085(3) 0.4257(2)
C100F C 0.0574(3) 1.0065(3) 0.4522(3)
H79F H 0.0569 1.0268 0.4704
C101F C 0.0344(3) 0.9682(3) 0.4457(3)
H80F H 0.0147 0.9572 0.4593
C102F C 0.0289(2) 0.9092(3) 0.4021(2)
H81F H 0.0006 0.9048 0.4076
H82F H 0.0280 0.9122 0.3774
C103F C 0.05115(17) 0.7436(2) 0.40087(15)
C104F C 0.01794(19) 0.7397(3) 0.37751(16)
H83F H 0.0087 0.7109 0.3702
C105F C -0.0023(2) 0.7772(3) 0.36449(17)
H84F H -0.0248 0.7736 0.3478
C106F C 0.00894(19) 0.8191(3) 0.37469(17)
H85F H -0.0057 0.8443 0.3652
C107F C 0.04233(17) 0.8251(2) 0.39935(17)
C108F C 0.06437(17) 0.7863(2) 0.41166(15)
C109F C 0.09985(17) 0.7927(2) 0.43610(16)
H86F H 0.1160 0.7677 0.4437
C110F C 0.11010(19) 0.8338(2) 0.44809(17)
H87F H 0.1334 0.8371 0.4641
C111F C 0.08758(19) 0.8715(2) 0.43766(19)
H88F H 0.0949 0.8998 0.4472
C112F C 0.05436(19) 0.8678(2) 0.41337(19)
N25F N 0.31373(15) 0.81389(19) 0.24813(13)
C113F C 0.31543(19) 0.8580(2) 0.25587(16)
C114F C 0.2867(2) 0.8884(3) 0.24047(18)
H89F H 0.2882 0.9192 0.2464
C115F C 0.2573(2) 0.8740(3) 0.2175(2)
H90F H 0.2375 0.8944 0.2074
C116F C 0.2557(2) 0.8291(3) 0.20819(19)
H91F H 0.2353 0.8184 0.1915
C117F C 0.28518(19) 0.8003(3) 0.22436(17)
H92F H 0.2847 0.7698 0.2180
N26F N 0.40007(17) 0.8594(2) 0.31714(14)
N27F N 0.37103(15) 0.83806(18) 0.29741(13)
C118F C 0.3482(2) 0.8703(2) 0.28109(17)
C119F C 0.3634(3) 0.9124(3) 0.2930(2)
H93F H 0.3526 0.9409 0.2864
C120F C 0.3957(3) 0.9045(3) 0.3152(2)
H94F H 0.4124 0.9262 0.3274
C121F C 0.42989(19) 0.8345(3) 0.34036(17)
H95F H 0.4365 0.8059 0.3297
H96F H 0.4554 0.8521 0.3442
N28F N 0.55697(15) 0.8021(2) 0.57195(14)
C122F C 0.55609(19) 0.7559(3) 0.57039(18)
C123F C 0.5839(2) 0.7291(3) 0.59007(19)
H97F H 0.5826 0.6975 0.5881
C124F C 0.6138(3) 0.7492(4) 0.6128(2)
H98F H 0.6330 0.7318 0.6266
C125F C 0.6143(3) 0.7943(4) 0.6144(3)
H99F H 0.6343 0.8087 0.6296
C126F C 0.5848(2) 0.8220(4) 0.5932(2)
H100F H 0.5857 0.8537 0.5947
N29F N 0.47116(13) 0.73805(17) 0.51143(12)
N30F N 0.49785(14) 0.76491(18) 0.52970(12)
C127F C 0.52424(18) 0.7371(3) 0.54750(17)
C128F C 0.51428(19) 0.6929(3) 0.53963(17)
H101F H 0.5279 0.6669 0.5486
C129F C 0.48091(18) 0.6948(2) 0.51642(17)
H102F H 0.4670 0.6700 0.5057
C130F C 0.43965(16) 0.7557(2) 0.48786(14)
H103F H 0.4165 0.7345 0.4854
H104F H 0.4297 0.7841 0.4968
C131F C 0.41491(17) 0.8246(2) 0.37378(15)
C132F C 0.37729(18) 0.8388(2) 0.38185(16)
H105F H 0.3605 0.8565 0.3663
C133F C 0.36361(17) 0.8274(2) 0.41270(15)
H106F H 0.3375 0.8372 0.4176
C134F C 0.38708(16) 0.8027(2) 0.43558(15)
H107F H 0.3770 0.7947 0.4561
C135F C 0.42691(16) 0.78843(19) 0.42918(14)
C136F C 0.44003(17) 0.7987(2) 0.39721(15)
C137F C 0.47970(18) 0.7833(2) 0.39080(17)
H108F H 0.4894 0.7896 0.3698
C138F C 0.50389(18) 0.7596(2) 0.41491(17)
H109F H 0.5298 0.7492 0.4101
C139F C 0.49111(17) 0.7509(2) 0.44564(16)
H110F H 0.5085 0.7349 0.4620
C140F C 0.45388(16) 0.7646(2) 0.45312(15)
N31F N 0.08573(16) 0.9176(2) 0.33598(14)
C141F C 0.11037(19) 0.8819(2) 0.34355(16)
C142F C 0.1024(2) 0.8399(2) 0.33091(17)
H111F H 0.1195 0.8153 0.3379
C143F C 0.0683(3) 0.8344(3) 0.3072(2)
H112F H 0.0617 0.8057 0.2982
C144F C 0.0450(3) 0.8697(4) 0.2974(2)
H113F H 0.0232 0.8665 0.2800
C145F C 0.0528(2) 0.9115(3) 0.3131(2)
H114F H 0.0348 0.9358 0.3075
N32F N 0.18995(15) 0.93201(17) 0.39624(13)
N33F N 0.15337(14) 0.93314(16) 0.37655(11)
C146F C 0.14658(18) 0.89172(19) 0.36718(15)
C147F C 0.17738(19) 0.8634(2) 0.38041(16)
H115F H 0.1792 0.8320 0.3772
C148F C 0.2045(2) 0.8902(2) 0.39904(17)
H116F H 0.2291 0.8810 0.4117
C149F C 0.20792(18) 0.9708(2) 0.41400(16)
H117F H 0.2379 0.9670 0.4176
H118F H 0.2021 0.9977 0.3999
N34F N 0.2967(2) 1.1137(2) 0.63075(14)
C150F C 0.2779(3) 1.1520(3) 0.62022(18)
C151F C 0.2931(3) 1.1934(3) 0.62915(19)
H119F H 0.2786 1.2199 0.6223
C152F C 0.3286(3) 1.1949(3) 0.6477(2)
H120F H 0.3410 1.2233 0.6523
C153F C 0.3482(3) 1.1579(3) 0.6606(2)
H121F H 0.3724 1.1604 0.6757
C154F C 0.3321(2) 1.1160(3) 0.65116(18)
H122F H 0.3459 1.0895 0.6590
N35F N 0.1931(2) 1.1093(3) 0.56780(15)
N36F N 0.2303(2) 1.1053(2) 0.58736(14)
C155F C 0.2407(3) 1.1461(3) 0.59843(19)
C156F C 0.2100(4) 1.1767(4) 0.5847(2)
H123F H 0.2101 1.2082 0.5881
C157F C 0.1807(3) 1.1528(4) 0.5659(2)
H124F H 0.1564 1.1641 0.5538
C158F C 0.1765(3) 1.0725(3) 0.54795(18)
H125F H 0.1788 1.0452 0.5620
H126F H 0.1471 1.0781 0.5414
C159F C 0.19188(19) 0.9782(2) 0.44764(16)
C160F C 0.1656(2) 0.9488(3) 0.46067(17)
H127F H 0.1586 0.9219 0.4488
C161F C 0.1490(2) 0.9567(3) 0.48995(18)
H128F H 0.1306 0.9355 0.4975
C162F C 0.1579(2) 0.9926(3) 0.50770(18)
H129F H 0.1457 0.9969 0.5279
C163F C 0.1853(2) 1.0252(3) 0.49758(17)
C164F C 0.2030(2) 1.0173(2) 0.46657(16)
C165F C 0.2312(2) 1.0479(3) 0.45652(18)
H130F H 0.2439 1.0429 0.4367
C166F C 0.2403(2) 1.0855(3) 0.47572(19)
H131F H 0.2583 1.1070 0.4681
C167F C 0.2245(2) 1.0926(3) 0.50500(19)
H132F H 0.2327 1.1183 0.5180
C168F C 0.1971(3) 1.0638(3) 0.51609(18)
B1 B 0.33174(18) 0.9540(2) 0.42987(17)
F1 F 0.35745(11) 0.95130(15) 0.45941(10)
F2 F 0.35498(12) 0.94633(15) 0.40382(11)
F3 F 0.31528(12) 0.99647(13) 0.42728(12)
F4 F 0.30086(11) 0.92263(14) 0.42937(11)
B2 B 0.0311(3) 0.5900(4) 0.8429(3)
F5 F -0.0013(3) 0.5887(4) 0.8183(2)
F6 F 0.06700(18) 0.5801(2) 0.82924(15)
F7 F 0.0321(2) 0.6327(2) 0.8550(2)
F8 F 0.0247(3) 0.5594(3) 0.8671(2)
B3 B 0.3916(3) 0.6333(4) 0.4459(3)
F9 F 0.3578(3) 0.6540(4) 0.4292(3)
F10 F 0.3878(3) 0.5876(3) 0.4433(2)
F11 F 0.4264(3) 0.6468(4) 0.4326(3)
F12 F 0.3946(4) 0.6448(4) 0.4795(2)
B4 B 0.3518(2) 0.7814(2) 0.65696(19)
F13 F 0.33016(15) 0.74908(18) 0.63907(16)
F14 F 0.33140(14) 0.7895(2) 0.68452(12)
F15 F 0.35467(16) 0.82026(15) 0.64019(15)
F16 F 0.39114(12) 0.76679(18) 0.66642(16)
B5 B 0.2928(3) 0.7834(4) 0.8080(3)
F17 F 0.2863(2) 0.7804(3) 0.77361(18)
F18 F 0.3179(2) 0.7491(3) 0.8210(2)
F19 F 0.2559(2) 0.7817(4) 0.8209(2)
F20 F 0.3119(3) 0.8231(3) 0.8179(3)
B6 B 0.5885(3) 0.5863(4) 0.6099(3)
F21 F 0.5679(2) 0.6049(3) 0.5814(2)
F22 F 0.6112(2) 0.5501(3) 0.6011(2)
F23 F 0.6140(3) 0.6178(3) 0.6259(3)
F24 F 0.5603(2) 0.5718(4) 0.6308(2)
B7 B 0.8940(7) 0.8232(10) 0.5073(6)
F25 F 0.9247(2) 0.8117(3) 0.5382(2)
F26 F 0.8953(4) 0.7965(4) 0.4815(3)
F27 F 0.9037(4) 0.8706(5) 0.4931(3)
F28 F 0.8595(4) 0.8241(6) 0.5157(3)
O1 O 0.3413(9) 0.7917(12) 0.5169(6)
O2 O 0.1856(4) 0.7796(4) 0.5303(2)
O3 O 0.2913(6) 0.7612(5) 0.5628(4)
O4 O 0.2814(3) 0.6732(4) 0.5247(4)
O5 O 0.2045(5) 0.6321(5) 0.5156(5)
O6 O 0.5000 0.7323(3) 0.7500
O7 O 0.4645(2) 0.7925(3) 0.70294(18)
O8 O 0.4515(3) 0.9481(3) 0.7027(2)
O9 O 0.4400(3) 0.6901(3) 0.7811(2)
O10 O -0.1008(3) 0.7933(4) 0.6038(3)
O11 O -0.0649(4) 0.8621(4) 0.6409(3)
O12 O 0.3937(4) 0.7624(4) 0.7936(3)
O13 O 0.5276(4) 0.5788(5) 0.5114(3)
O14 O 0.1826(4) 0.2155(5) 0.4075(3)
O15 O 0.2461(2) 0.9341(3) 0.7701(2)
O16 O 0.0437(4) 0.5773(5) 0.7560(3)
loop_
_geom_bond_atom_site_label_1
_geom_bond_atom_site_label_2
_geom_bond_site_symmetry_1
_geom_bond_site_symmetry_2
Co1 N7 1_555 1_555
Co2 N1 1_555 1_555
Co3 N10 1_555 1_555
Co4 N4 1_555 1_555
N1 C1 1_555 1_555
C1 C2 1_555 1_555
C2 H1 1_555 1_555
C3 C2 1_555 1_555
H2 C3 1_555 1_555
C4 C3 1_555 1_555
H3 C4 1_555 1_555
C5 N1 1_555 1_555
H4 C5 1_555 1_555
N2 N3 1_555 1_555
N3 Co2 1_555 1_555
C6 C1 1_555 1_555
C7 C6 1_555 1_555
H5 C7 1_555 1_555
C8 N2 1_555 1_555
H6 C8 1_555 1_555
C9 N2 1_555 1_555
H7 C9 1_555 1_555
H8 C9 1_555 1_555
N4 C10 1_555 1_555
C10 C11 1_555 1_555
C11 H9 1_555 1_555
C12 C11 1_555 1_555
H10 C12 1_555 1_555
C13 C12 1_555 1_555
H11 C13 1_555 1_555
C14 N4 1_555 1_555
H12 C14 1_555 1_555
N5 N6 1_555 1_555
N6 Co4 1_555 1_555
C15 C10 1_555 1_555
C16 C15 1_555 1_555
H13 C16 1_555 1_555
C17 N5 1_555 1_555
H14 C17 1_555 1_555
C18 N5 1_555 1_555
H15 C18 1_555 1_555
H16 C18 1_555 1_555
C19 C9 1_555 1_555
C20 C19 1_555 1_555
H17 C20 1_555 1_555
C21 C20 1_555 1_555
H18 C21 1_555 1_555
C22 C21 1_555 1_555
H19 C22 1_555 1_555
C23 C22 1_555 1_555
C24 C19 1_555 1_555
C25 C24 1_555 1_555
H20 C25 1_555 1_555
C26 C25 1_555 1_555
H21 C26 1_555 1_555
C27 C26 1_555 1_555
H22 C27 1_555 1_555
C28 C18 1_555 1_555
N7 C29 1_555 1_555
C29 C30 1_555 1_555
C30 H23 1_555 1_555
C31 C30 1_555 1_555
H24 C31 1_555 1_555
C32 C31 1_555 1_555
H25 C32 1_555 1_555
C33 N7 1_555 1_555
H26 C33 1_555 1_555
N8 N9 1_555 1_555
N9 Co1 1_555 1_555
C34 C29 1_555 1_555
C35 C34 1_555 1_555
H27 C35 1_555 1_555
C36 N8 1_555 1_555
H28 C36 1_555 1_555
C37 N8 1_555 1_555
H29 C37 1_555 1_555
H30 C37 1_555 1_555
N10 C38 1_555 1_555
C38 C39 1_555 1_555
C39 H31 1_555 1_555
C40 C39 1_555 1_555
H32 C40 1_555 1_555
C41 C40 1_555 1_555
H33 C41 1_555 1_555
C42 N10 1_555 1_555
H34 C42 1_555 1_555
N11 N12 1_555 1_555
N12 Co3 1_555 1_555
C43 C38 1_555 1_555
C44 C43 1_555 1_555
H35 C44 1_555 1_555
C45 N11 1_555 1_555
H36 C45 1_555 1_555
C46 N11 1_555 1_555
H37 C46 1_555 1_555
H38 C46 1_555 1_555
C47 C37 1_555 1_555
C48 C47 1_555 1_555
H39 C48 1_555 1_555
C49 C48 1_555 1_555
H40 C49 1_555 1_555
C50 C49 1_555 1_555
H41 C50 1_555 1_555
C51 C50 1_555 1_555
C52 C47 1_555 1_555
C53 C52 1_555 1_555
H42 C53 1_555 1_555
C54 C53 1_555 1_555
H43 C54 1_555 1_555
C55 C54 1_555 1_555
H44 C55 1_555 1_555
C56 C46 1_555 1_555
N13 Co3 1_555 1_555
C57 N13 1_555 1_555
C58 C57 1_555 1_555
H45 C58 1_555 1_555
C59 C58 1_555 1_555
H46 C59 1_555 1_555
C60 C59 1_555 1_555
H47 C60 1_555 1_555
C61 N13 1_555 1_555
H48 C61 1_555 1_555
N14 N15 1_555 1_555
N15 Co3 1_555 1_555
C62 C57 1_555 1_555
C63 C62 1_555 1_555
H49 C63 1_555 1_555
C64 N14 1_555 1_555
H50 C64 1_555 1_555
C65 N14 1_555 1_555
H51 C65 1_555 1_555
H52 C65 1_555 1_555
N16 Co4 1_555 1_555
C66 N16 1_555 1_555
C67 C66 1_555 1_555
H53 C67 1_555 1_555
C68 C67 1_555 1_555
H54 C68 1_555 1_555
C69 C68 1_555 1_555
H55 C69 1_555 1_555
C70 N16 1_555 1_555
H56 C70 1_555 1_555
N17 N18 1_555 1_555
N18 Co4 1_555 1_555
C71 C66 1_555 1_555
C72 C71 1_555 1_555
H57 C72 1_555 1_555
C73 N17 1_555 1_555
H58 C73 1_555 1_555
C74 N17 1_555 1_555
H59 C74 1_555 1_555
H60 C74 1_555 1_555
C75 C65 1_555 1_555
C76 C75 1_555 1_555
H61 C76 1_555 1_555
C77 C76 1_555 1_555
H62 C77 1_555 1_555
C78 C77 1_555 1_555
H63 C78 1_555 1_555
C79 C78 1_555 1_555
C80 C75 1_555 1_555
C81 C80 1_555 1_555
H64 C81 1_555 1_555
C82 C81 1_555 1_555
H65 C82 1_555 1_555
C83 C82 1_555 1_555
H66 C83 1_555 1_555
C84 C74 1_555 1_555
N19 Co1 1_555 1_555
C85 N19 1_555 1_555
C86 C85 1_555 1_555
H67 C86 1_555 1_555
C87 C86 1_555 1_555
H68 C87 1_555 1_555
C88 C87 1_555 1_555
H69 C88 1_555 1_555
C89 N19 1_555 1_555
H70 C89 1_555 1_555
N20 N21 1_555 1_555
N21 Co1 1_555 1_555
C90 C85 1_555 1_555
C91 C90 1_555 1_555
H71 C91 1_555 1_555
C92 N20 1_555 1_555
H72 C92 1_555 1_555
C93 N20 1_555 1_555
H73 C93 1_555 1_555
H74 C93 1_555 1_555
N22 Co2 1_555 1_555
C94 N22 1_555 1_555
C95 C94 1_555 1_555
H75 C95 1_555 1_555
C96 C95 1_555 1_555
H76 C96 1_555 1_555
C97 C96 1_555 1_555
H77 C97 1_555 1_555
C98 N22 1_555 1_555
H78 C98 1_555 1_555
N23 N24 1_555 1_555
N24 Co2 1_555 1_555
C99 C94 1_555 1_555
C100 C99 1_555 1_555
H79 C100 1_555 1_555
C101 N23 1_555 1_555
H80 C101 1_555 1_555
C102 N23 1_555 1_555
H81 C102 1_555 1_555
H82 C102 1_555 1_555
C103 C93 1_555 1_555
C104 C103 1_555 1_555
H83 C104 1_555 1_555
C105 C104 1_555 1_555
H84 C105 1_555 1_555
C106 C105 1_555 1_555
H85 C106 1_555 1_555
C107 C106 1_555 1_555
C108 C103 1_555 1_555
C109 C108 1_555 1_555
H86 C109 1_555 1_555
C110 C109 1_555 1_555
H87 C110 1_555 1_555
C111 C110 1_555 1_555
H88 C111 1_555 1_555
C112 C102 1_555 1_555
N25 Co4 1_555 1_555
C113 N25 1_555 1_555
C114 C113 1_555 1_555
H89 C114 1_555 1_555
C115 C114 1_555 1_555
H90 C115 1_555 1_555
C116 C115 1_555 1_555
H91 C116 1_555 1_555
C117 N25 1_555 1_555
H92 C117 1_555 1_555
N26 N27 1_555 1_555
N27 Co4 1_555 1_555
C118 C113 1_555 1_555
C119 C118 1_555 1_555
H93 C119 1_555 1_555
C120 N26 1_555 1_555
H94 C120 1_555 1_555
C121 N26 1_555 1_555
H95 C121 1_555 1_555
H96 C121 1_555 1_555
N28 C122 1_555 1_555
C122 C123 1_555 1_555
C123 H97 1_555 1_555
C124 C123 1_555 1_555
H98 C124 1_555 1_555
C125 C124 1_555 1_555
H99 C125 1_555 1_555
C126 N28 1_555 1_555
H100 C126 1_555 1_555
N29 N30 1_555 1_555
N30 C127 1_555 1_555
C127 C122 1_555 1_555
C128 C127 1_555 1_555
H101 C128 1_555 1_555
C129 N29 1_555 1_555
H102 C129 1_555 1_555
C130 N29 1_555 1_555
H103 C130 1_555 1_555
H104 C130 1_555 1_555
C131 C121 1_555 1_555
C132 C131 1_555 1_555
H105 C132 1_555 1_555
C133 C132 1_555 1_555
H106 C133 1_555 1_555
C134 C133 1_555 1_555
H107 C134 1_555 1_555
C135 C134 1_555 1_555
C136 C131 1_555 1_555
C137 C136 1_555 1_555
H108 C137 1_555 1_555
C138 C137 1_555 1_555
H109 C138 1_555 1_555
C139 C138 1_555 1_555
H110 C139 1_555 1_555
C140 C130 1_555 1_555
N31 Co2 1_555 1_555
C141 N31 1_555 1_555
C142 C141 1_555 1_555
H111 C142 1_555 1_555
C143 C142 1_555 1_555
H112 C143 1_555 1_555
C144 C143 1_555 1_555
H113 C144 1_555 1_555
C145 N31 1_555 1_555
H114 C145 1_555 1_555
N32 N33 1_555 1_555
N33 Co2 1_555 1_555
C146 C141 1_555 1_555
C147 C146 1_555 1_555
H115 C147 1_555 1_555
C148 N32 1_555 1_555
H116 C148 1_555 1_555
C149 N32 1_555 1_555
H117 C149 1_555 1_555
H118 C149 1_555 1_555
N34 C150 1_555 1_555
C150 C151 1_555 1_555
C151 H119 1_555 1_555
C152 C151 1_555 1_555
H120 C152 1_555 1_555
C153 C152 1_555 1_555
H121 C153 1_555 1_555
C154 N34 1_555 1_555
H122 C154 1_555 1_555
N35 N36 1_555 1_555
N36 C155 1_555 1_555
C155 C150 1_555 1_555
C156 C155 1_555 1_555
H123 C156 1_555 1_555
C157 N35 1_555 1_555
H124 C157 1_555 1_555
C158 N35 1_555 1_555
H125 C158 1_555 1_555
H126 C158 1_555 1_555
C159 C149 1_555 1_555
C160 C159 1_555 1_555
H127 C160 1_555 1_555
C161 C160 1_555 1_555
H128 C161 1_555 1_555
C162 C161 1_555 1_555
H129 C162 1_555 1_555
C163 C162 1_555 1_555
C164 C159 1_555 1_555
C165 C164 1_555 1_555
H130 C165 1_555 1_555
C166 C165 1_555 1_555
H131 C166 1_555 1_555
C167 C166 1_555 1_555
H132 C167 1_555 1_555
C168 C158 1_555 1_555
B1 F1 1_555 1_555
F2 B1 1_555 1_555
F3 B1 1_555 1_555
F4 B1 1_555 1_555
B2 F5 1_555 1_555
F6 B2 1_555 1_555
F7 B2 1_555 1_555
F8 B2 1_555 1_555
B3 F9 1_555 1_555
F10 B3 1_555 1_555
F11 B3 1_555 1_555
F12 B3 1_555 1_555
B4 F13 1_555 1_555
F14 B4 1_555 1_555
F15 B4 1_555 1_555
F16 B4 1_555 1_555
B5 F17 1_555 1_555
F18 B5 1_555 1_555
F19 B5 1_555 1_555
F20 B5 1_555 1_555
B6 F21 1_555 1_555
F22 B6 1_555 1_555
F23 B6 1_555 1_555
F24 B6 1_555 1_555
B7 F25 1_555 1_555
F26 B7 1_555 1_555
F27 B7 1_555 1_555
F28 B7 1_555 1_555
Co1F N28 1_555 1_555
Co2F N1F 1_555 1_555
Co3F N34 1_555 1_555
Co4F N4F 1_555 1_555
N1F C1F 1_555 1_555
C1F C2F 1_555 1_555
C2F H1F 1_555 1_555
C3F C2F 1_555 1_555
H2F C3F 1_555 1_555
C4F C3F 1_555 1_555
H3F C4F 1_555 1_555
C5F N1F 1_555 1_555
H4F C5F 1_555 1_555
N2F N3F 1_555 1_555
N3F Co2F 1_555 1_555
C6F C1F 1_555 1_555
C7F C6F 1_555 1_555
H5F C7F 1_555 1_555
C8F N2F 1_555 1_555
H6F C8F 1_555 1_555
C9F N2F 1_555 1_555
H7F C9F 1_555 1_555
H8F C9F 1_555 1_555
N4F C10F 1_555 1_555
C10F C11F 1_555 1_555
C11F H9F 1_555 1_555
C12F C11F 1_555 1_555
H10F C12F 1_555 1_555
C13F C12F 1_555 1_555
H11F C13F 1_555 1_555
C14F N4F 1_555 1_555
H12F C14F 1_555 1_555
N5F N6F 1_555 1_555
N6F Co4F 1_555 1_555
C15F C10F 1_555 1_555
C16F C15F 1_555 1_555
H13F C16F 1_555 1_555
C17F N5F 1_555 1_555
H14F C17F 1_555 1_555
C18F N5F 1_555 1_555
H15F C18F 1_555 1_555
H16F C18F 1_555 1_555
C19F C9F 1_555 1_555
C20F C19F 1_555 1_555
H17F C20F 1_555 1_555
C21F C20F 1_555 1_555
H18F C21F 1_555 1_555
C22F C21F 1_555 1_555
H19F C22F 1_555 1_555
C23F C22F 1_555 1_555
C24F C19F 1_555 1_555
C25F C24F 1_555 1_555
H20F C25F 1_555 1_555
C26F C25F 1_555 1_555
H21F C26F 1_555 1_555
C27F C26F 1_555 1_555
H22F C27F 1_555 1_555
C28F C18F 1_555 1_555
N7F Co1F 1_555 1_555
C29F N7F 1_555 1_555
C30F C29F 1_555 1_555
H23F C30F 1_555 1_555
C31F C30F 1_555 1_555
H24F C31F 1_555 1_555
C32F C31F 1_555 1_555
H25F C32F 1_555 1_555
C33F N7F 1_555 1_555
H26F C33F 1_555 1_555
N8F N9F 1_555 1_555
N9F Co1F 1_555 1_555
C34F C29F 1_555 1_555
C35F C34F 1_555 1_555
H27F C35F 1_555 1_555
C36F N8F 1_555 1_555
H28F C36F 1_555 1_555
C37F N8F 1_555 1_555
H29F C37F 1_555 1_555
H30F C37F 1_555 1_555
N10F Co3F 1_555 1_555
C38F N10F 1_555 1_555
C39F C38F 1_555 1_555
H31F C39F 1_555 1_555
C40F C39F 1_555 1_555
H32F C40F 1_555 1_555
C41F C40F 1_555 1_555
H33F C41F 1_555 1_555
C42F N10F 1_555 1_555
H34F C42F 1_555 1_555
N11F N12F 1_555 1_555
N12F Co3F 1_555 1_555
C43F C38F 1_555 1_555
C44F C43F 1_555 1_555
H35F C44F 1_555 1_555
C45F N11F 1_555 1_555
H36F C45F 1_555 1_555
C46F N11F 1_555 1_555
H37F C46F 1_555 1_555
H38F C46F 1_555 1_555
C47F C37F 1_555 1_555
C48F C47F 1_555 1_555
H39F C48F 1_555 1_555
C49F C48F 1_555 1_555
H40F C49F 1_555 1_555
C50F C49F 1_555 1_555
H41F C50F 1_555 1_555
C51F C50F 1_555 1_555
C52F C47F 1_555 1_555
C53F C52F 1_555 1_555
H42F C53F 1_555 1_555
C54F C53F 1_555 1_555
H43F C54F 1_555 1_555
C55F C54F 1_555 1_555
H44F C55F 1_555 1_555
C56F C46F 1_555 1_555
N13F Co3F 1_555 1_555
C57F N13F 1_555 1_555
C58F C57F 1_555 1_555
H45F C58F 1_555 1_555
C59F C58F 1_555 1_555
H46F C59F 1_555 1_555
C60F C59F 1_555 1_555
H47F C60F 1_555 1_555
C61F N13F 1_555 1_555
H48F C61F 1_555 1_555
N14F N15F 1_555 1_555
N15F Co3F 1_555 1_555
C62F C57F 1_555 1_555
C63F C62F 1_555 1_555
H49F C63F 1_555 1_555
C64F N14F 1_555 1_555
H50F C64F 1_555 1_555
C65F N14F 1_555 1_555
H51F C65F 1_555 1_555
H52F C65F 1_555 1_555
N16F Co4F 1_555 1_555
C66F N16F 1_555 1_555
C67F C66F 1_555 1_555
H53F C67F 1_555 1_555
C68F C67F 1_555 1_555
H54F C68F 1_555 1_555
C69F C68F 1_555 1_555
H55F C69F 1_555 1_555
C70F N16F 1_555 1_555
H56F C70F 1_555 1_555
N17F N18F 1_555 1_555
N18F Co4F 1_555 1_555
C71F C66F 1_555 1_555
C72F C71F 1_555 1_555
H57F C72F 1_555 1_555
C73F N17F 1_555 1_555
H58F C73F 1_555 1_555
C74F N17F 1_555 1_555
H59F C74F 1_555 1_555
H60F C74F 1_555 1_555
C75F C65F 1_555 1_555
C76F C75F 1_555 1_555
H61F C76F 1_555 1_555
C77F C76F 1_555 1_555
H62F C77F 1_555 1_555
C78F C77F 1_555 1_555
H63F C78F 1_555 1_555
C79F C78F 1_555 1_555
C80F C75F 1_555 1_555
C81F C80F 1_555 1_555
H64F C81F 1_555 1_555
C82F C81F 1_555 1_555
H65F C82F 1_555 1_555
C83F C82F 1_555 1_555
H66F C83F 1_555 1_555
C84F C74F 1_555 1_555
N19F Co1F 1_555 1_555
C85F N19F 1_555 1_555
C86F C85F 1_555 1_555
H67F C86F 1_555 1_555
C87F C86F 1_555 1_555
H68F C87F 1_555 1_555
C88F C87F 1_555 1_555
H69F C88F 1_555 1_555
C89F N19F 1_555 1_555
H70F C89F 1_555 1_555
N20F N21F 1_555 1_555
N21F Co1F 1_555 1_555
C90F C85F 1_555 1_555
C91F C90F 1_555 1_555
H71F C91F 1_555 1_555
C92F N20F 1_555 1_555
H72F C92F 1_555 1_555
C93F N20F 1_555 1_555
H73F C93F 1_555 1_555
H74F C93F 1_555 1_555
N22F Co2F 1_555 1_555
C94F N22F 1_555 1_555
C95F C94F 1_555 1_555
H75F C95F 1_555 1_555
C96F C95F 1_555 1_555
H76F C96F 1_555 1_555
C97F C96F 1_555 1_555
H77F C97F 1_555 1_555
C98F N22F 1_555 1_555
H78F C98F 1_555 1_555
N23F N24F 1_555 1_555
N24F Co2F 1_555 1_555
C99F C94F 1_555 1_555
C100F C99F 1_555 1_555
H79F C100F 1_555 1_555
C101F N23F 1_555 1_555
H80F C101F 1_555 1_555
C102F N23F 1_555 1_555
H81F C102F 1_555 1_555
H82F C102F 1_555 1_555
C103F C93F 1_555 1_555
C104F C103F 1_555 1_555
H83F C104F 1_555 1_555
C105F C104F 1_555 1_555
H84F C105F 1_555 1_555
C106F C105F 1_555 1_555
H85F C106F 1_555 1_555
C107F C106F 1_555 1_555
C108F C103F 1_555 1_555
C109F C108F 1_555 1_555
H86F C109F 1_555 1_555
C110F C109F 1_555 1_555
H87F C110F 1_555 1_555
C111F C110F 1_555 1_555
H88F C111F 1_555 1_555
C112F C102F 1_555 1_555
N25F Co4F 1_555 1_555
C113F N25F 1_555 1_555
C114F C113F 1_555 1_555
H89F C114F 1_555 1_555
C115F C114F 1_555 1_555
H90F C115F 1_555 1_555
C116F C115F 1_555 1_555
H91F C116F 1_555 1_555
C117F N25F 1_555 1_555
H92F C117F 1_555 1_555
N26F N27F 1_555 1_555
N27F Co4F 1_555 1_555
C118F C113F 1_555 1_555
C119F C118F 1_555 1_555
H93F C119F 1_555 1_555
C120F N26F 1_555 1_555
H94F C120F 1_555 1_555
C121F N26F 1_555 1_555
H95F C121F 1_555 1_555
H96F C121F 1_555 1_555
N28F Co1 1_555 1_555
C122F N28F 1_555 1_555
C123F C122F 1_555 1_555
H97F C123F 1_555 1_555
C124F C123F 1_555 1_555
H98F C124F 1_555 1_555
C125F C124F 1_555 1_555
H99F C125F 1_555 1_555
C126F N28F 1_555 1_555
H100F C126F 1_555 1_555
N29F N30F 1_555 1_555
N30F Co1 1_555 1_555
C127F C122F 1_555 1_555
C128F C127F 1_555 1_555
H101F C128F 1_555 1_555
C129F N29F 1_555 1_555
H102F C129F 1_555 1_555
C130F N29F 1_555 1_555
H103F C130F 1_555 1_555
H104F C130F 1_555 1_555
C131F C121F 1_555 1_555
C132F C131F 1_555 1_555
H105F C132F 1_555 1_555
C133F C132F 1_555 1_555
H106F C133F 1_555 1_555
C134F C133F 1_555 1_555
H107F C134F 1_555 1_555
C135F C134F 1_555 1_555
C136F C131F 1_555 1_555
C137F C136F 1_555 1_555
H108F C137F 1_555 1_555
C138F C137F 1_555 1_555
H109F C138F 1_555 1_555
C139F C138F 1_555 1_555
H110F C139F 1_555 1_555
C140F C130F 1_555 1_555
N31F Co2F 1_555 1_555
C141F N31F 1_555 1_555
C142F C141F 1_555 1_555
H111F C142F 1_555 1_555
C143F C142F 1_555 1_555
H112F C143F 1_555 1_555
C144F C143F 1_555 1_555
H113F C144F 1_555 1_555
C145F N31F 1_555 1_555
H114F C145F 1_555 1_555
N32F N33F 1_555 1_555
N33F Co2F 1_555 1_555
C146F C141F 1_555 1_555
C147F C146F 1_555 1_555
H115F C147F 1_555 1_555
C148F N32F 1_555 1_555
H116F C148F 1_555 1_555
C149F N32F 1_555 1_555
H117F C149F 1_555 1_555
H118F C149F 1_555 1_555
N34F Co3 1_555 1_555
C150F N34F 1_555 1_555
C151F C150F 1_555 1_555
H119F C151F 1_555 1_555
C152F C151F 1_555 1_555
H120F C152F 1_555 1_555
C153F C152F 1_555 1_555
H121F C153F 1_555 1_555
C154F N34F 1_555 1_555
H122F C154F 1_555 1_555
N35F N36F 1_555 1_555
N36F Co3 1_555 1_555
C155F C150F 1_555 1_555
C156F C155F 1_555 1_555
H123F C156F 1_555 1_555
C157F N35F 1_555 1_555
H124F C157F 1_555 1_555
C158F N35F 1_555 1_555
H125F C158F 1_555 1_555
H126F C158F 1_555 1_555
C159F C149F 1_555 1_555
C160F C159F 1_555 1_555
H127F C160F 1_555 1_555
C161F C160F 1_555 1_555
H128F C161F 1_555 1_555
C162F C161F 1_555 1_555
H129F C162F 1_555 1_555
C163F C162F 1_555 1_555
C164F C159F 1_555 1_555
C165F C164F 1_555 1_555
H130F C165F 1_555 1_555
C166F C165F 1_555 1_555
H131F C166F 1_555 1_555
C167F C166F 1_555 1_555
H132F C167F 1_555 1_555
C168F C158F 1_555 1_555
C4 C5 1_555 1_555
N3 C6 1_555 1_555
C7 C8 1_555 1_555
C13 C14 1_555 1_555
N6 C15 1_555 1_555
C16 C17 1_555 1_555
C23 C24 1_555 1_555
C23 C28 1_555 1_555
C27 C28 1_555 1_555
C32 C33 1_555 1_555
N9 C34 1_555 1_555
C35 C36 1_555 1_555
C41 C42 1_555 1_555
N12 C43 1_555 1_555
C44 C45 1_555 1_555
C51 C52 1_555 1_555
C51 C56 1_555 1_555
C55 C56 1_555 1_555
C60 C61 1_555 1_555
N15 C62 1_555 1_555
C63 C64 1_555 1_555
C69 C70 1_555 1_555
N18 C71 1_555 1_555
C72 C73 1_555 1_555
C79 C80 1_555 1_555
C79 C84 1_555 1_555
C83 C84 1_555 1_555
C88 C89 1_555 1_555
N21 C90 1_555 1_555
C91 C92 1_555 1_555
C97 C98 1_555 1_555
N24 C99 1_555 1_555
C100 C101 1_555 1_555
C107 C108 1_555 1_555
C107 C112 1_555 1_555
C111 C112 1_555 1_555
C116 C117 1_555 1_555
N27 C118 1_555 1_555
C119 C120 1_555 1_555
C125 C126 1_555 1_555
N30 Co1F 1_555 1_555
C128 C129 1_555 1_555
C135 C136 1_555 1_555
C135 C140 1_555 1_555
C139 C140 1_555 1_555
C144 C145 1_555 1_555
N33 C146 1_555 1_555
C147 C148 1_555 1_555
C153 C154 1_555 1_555
N36 Co3F 1_555 1_555
C156 C157 1_555 1_555
C163 C164 1_555 1_555
C163 C168 1_555 1_555
C167 C168 1_555 1_555
C4F C5F 1_555 1_555
N3F C6F 1_555 1_555
C7F C8F 1_555 1_555
C13F C14F 1_555 1_555
N6F C15F 1_555 1_555
C16F C17F 1_555 1_555
C23F C24F 1_555 1_555
C23F C28F 1_555 1_555
C27F C28F 1_555 1_555
C32F C33F 1_555 1_555
N9F C34F 1_555 1_555
C35F C36F 1_555 1_555
C41F C42F 1_555 1_555
N12F C43F 1_555 1_555
C44F C45F 1_555 1_555
C51F C52F 1_555 1_555
C51F C56F 1_555 1_555
C55F C56F 1_555 1_555
C60F C61F 1_555 1_555
N15F C62F 1_555 1_555
C63F C64F 1_555 1_555
C69F C70F 1_555 1_555
N18F C71F 1_555 1_555
C72F C73F 1_555 1_555
C79F C80F 1_555 1_555
C79F C84F 1_555 1_555
C83F C84F 1_555 1_555
C88F C89F 1_555 1_555
N21F C90F 1_555 1_555
C91F C92F 1_555 1_555
C97F C98F 1_555 1_555
N24F C99F 1_555 1_555
C100F C101F 1_555 1_555
C107F C108F 1_555 1_555
C107F C112F 1_555 1_555
C111F C112F 1_555 1_555
C116F C117F 1_555 1_555
N27F C118F 1_555 1_555
C119F C120F 1_555 1_555
C125F C126F 1_555 1_555
N30F C127F 1_555 1_555
C128F C129F 1_555 1_555
C135F C136F 1_555 1_555
C135F C140F 1_555 1_555
C139F C140F 1_555 1_555
C144F C145F 1_555 1_555
N33F C146F 1_555 1_555
C147F C148F 1_555 1_555
C153F C154F 1_555 1_555
N36F C155F 1_555 1_555
C156F C157F 1_555 1_555
C163F C164F 1_555 1_555
C163F C168F 1_555 1_555
C167F C168F 1_555 1_555

#END
