
#######################################################################
#
#                 Cambridge Crystallographic Data Centre
#                                CCDC 
#
#######################################################################
#
# If this CIF has been generated from an entry in the Cambridge 
# Structural Database, then it will include bibliographic, chemical, 
# crystal, experimental, refinement or atomic coordinate data resulting 
# from the CCDC's data processing and validation procedures.
#
#######################################################################

data_CIMQUK
_chemical_formula_moiety         
'C57 H66 Ga2 N12 O18,4(C1 H1 Cl3),2(C1 H4 O1),0.5(C6 H12)'
_chemical_name_systematic        
'tris(\m~2~-1,3-bis((3-Oxy-1-methyl-2-oxo-1,2-dihydropyridin-4-yl)carboxamido)-2,2-dimethylpropane)-di-gallium chloroform cyclohexane methanol solvate'
_symmetry_cell_setting           triclinic
_symmetry_space_group_name_H-M   'P -1'
_symmetry_Int_Tables_number      2
_space_group_name_Hall           '-P 1'
loop_
_symmetry_equiv_pos_site_id
_symmetry_equiv_pos_as_xyz
1 x,y,z
2 -x,-y,-z
_cell_length_a                   13.6579(2)
_cell_length_b                   17.1346(3)
_cell_length_c                   18.57460(10)
_cell_angle_alpha                81.9920(10)
_cell_angle_beta                 78.1980(10)
_cell_angle_gamma                78.2010(10)
_cell_volume                     4143.47
_exptl_crystal_colour            colorless
_exptl_crystal_description       rhomboid
_chemical_melting_point          600K
_cell_formula_units_Z            2
loop_
_atom_site_label
_atom_site_type_symbol
_atom_site_fract_x
_atom_site_fract_y
_atom_site_fract_z
Ga1 Ga 0.53883(4) 0.63965(3) 0.14194(3)
Ga2 Ga 0.96131(4) 0.91113(3) 0.34979(3)
O1 O 0.4838(3) 0.7381(2) 0.19107(19)
O2 O 0.6550(3) 0.6804(2) 0.07969(19)
O3 O 0.5821(3) 0.5518(2) 0.07640(19)
O4 O 0.8884(3) 0.8261(2) 0.39938(19)
O5 O 0.4388(3) 0.6908(2) 0.07642(19)
O6 O 1.0928(3) 0.8549(2) 0.37713(19)
O7 O 0.4359(3) 0.5739(2) 0.1984(2)
O8 O 1.0106(3) 0.8531(2) 0.26192(19)
O9 O 0.9160(3) 0.9555(2) 0.44680(19)
O10 O 0.6148(3) 0.5864(2) 0.21900(19)
O11 O 0.8429(3) 0.9685(2) 0.30910(19)
O12 O 1.0203(3) 1.0063(2) 0.30270(19)
O13 O 0.9084(3) 0.7262(2) -0.0864(2)
N1 N 0.6943(3) 0.5157(3) -0.0279(2)
N2 N 0.7922(3) 0.7751(3) 0.0105(2)
H1 H 0.7413 0.7664 0.0444
N3 N 0.3187(4) 0.8026(3) 0.0602(3)
O14 O 0.6433(3) 1.1017(3) 0.1728(2)
O15 O 0.3236(3) 0.9650(2) 0.2598(2)
O16 O 0.6872(4) 0.6859(3) 0.5300(2)
N4 N 0.8108(3) 0.9343(3) 0.5571(2)
N5 N 1.0222(3) 0.7885(3) 0.1371(2)
H2 H 1.0022 0.8281 0.1635
N6 N 1.2191(3) 0.7501(3) 0.3453(2)
C1 C 0.8799(4) 0.8550(3) 0.0733(3)
N7 N 0.9923(3) 1.1114(3) 0.2158(2)
O17 O 1.1366(3) 0.6747(3) 0.1175(2)
C2 C 0.7997(4) 1.0783(3) 0.2183(3)
O18 O 0.7385(4) 0.4353(3) 0.3931(2)
C3 C 0.9705(4) 0.7868(4) 0.0759(3)
H3 H 0.9473 0.7361 0.0811
H4 H 1.0184 0.7904 0.0297
N8 N 0.4201(3) 0.4723(3) 0.2922(3)
N9 N 0.6634(3) 1.0072(3) 0.2691(3)
H5 H 0.7044 0.9839 0.2983
N10 N 0.7702(4) 0.5249(3) 0.2939(3)
H6 H 0.7472 0.5541 0.2572
N11 N 0.4383(3) 0.8554(3) 0.2881(2)
H7 H 0.4707 0.8091 0.2761
C4 C 0.9628(4) 1.0496(3) 0.2613(3)
C5 C 1.0923(4) 0.7992(3) 0.2682(3)
C6 C 0.6946(4) 1.0634(3) 0.2180(3)
C7 C 1.1390(4) 0.7412(3) 0.2216(3)
C8 C 0.8625(4) 1.0316(3) 0.2626(3)
C9 C 0.8383(4) 0.8415(3) 0.4656(3)
C10 C 1.0984(4) 0.7319(3) 0.1537(3)
C11 C 0.8326(4) 0.7200(3) -0.0372(3)
C12 C 1.2654(4) 0.6938(4) 0.2971(3)
H8 H 1.3242 0.6588 0.3061
C13 C 0.7811(4) 0.6496(3) -0.0303(3)
C14 C 0.8574(4) 0.9128(3) 0.4898(3)
C15 C 0.8307(4) 0.8489(3) 0.0074(3)
H9 H 0.7748 0.8938 0.0046
H10 H 0.8805 0.8538 -0.0376
C16 C 1.1360(4) 0.8023(3) 0.3328(3)
C17 C 0.5650(5) 0.9409(4) 0.4160(3)
H11 H 0.5619 0.8973 0.4545
H12 H 0.5086 0.9835 0.4280
H13 H 0.6275 0.9601 0.4115
C18 C 0.5603(4) 0.9117(3) 0.3423(3)
C19 C 0.6094(4) 0.4811(3) 0.3190(3)
C20 C 0.3572(4) 0.8595(3) 0.1829(3)
C21 C 0.5718(4) 0.5315(3) 0.2636(3)
C22 C 0.5659(4) 0.9814(3) 0.2801(3)
H14 H 0.5574 0.9641 0.2345
H15 H 0.5114 1.0260 0.2930
C23 C 0.7739(4) 0.7969(4) 0.5115(3)
C24 C 0.2817(5) 0.9026(4) 0.1427(3)
H16 H 0.2436 0.9510 0.1578
C25 C 0.7003(4) 0.6358(3) 0.0250(3)
C26 C 0.6569(4) 0.5652(3) 0.0252(3)
C27 C 0.8818(4) 0.6067(3) 0.3300(3)
C28 C 0.3896(4) 0.7581(3) 0.0964(3)
C29 C 0.9302(4) 1.1587(4) 0.1708(3)
H17 H 0.9527 1.2013 0.1397
C30 C 0.4721(4) 0.5265(3) 0.2499(3)
C31 C 0.4116(4) 0.7874(3) 0.1603(3)
C32 C 0.8361(4) 1.1433(3) 0.1716(3)
H18 H 0.7948 1.1759 0.1411
C33 C 0.3718(4) 0.8981(3) 0.2465(3)
C34 C 0.7538(5) 0.7205(4) 0.4918(3)
C35 C 1.2610(5) 0.7549(4) 0.4112(3)
H19 H 1.2192 0.7974 0.4383
H20 H 1.3290 0.7656 0.3963
H21 H 1.2621 0.7050 0.4421
C36 C 0.7751(4) 0.5301(4) -0.0824(3)
H22 H 0.8009 0.4946 -0.1182
C37 C 0.7114(5) 0.4792(3) 0.3385(3)
C38 C 0.5478(5) 0.4277(4) 0.3630(3)
H23 H 0.5712 0.3952 0.4027
C39 C 0.8012(4) 0.8523(4) 0.1442(3)
H24 H 0.7797 0.8013 0.1528
H25 H 0.7436 0.8942 0.1395
H26 H 0.8307 0.8596 0.1849
C40 C 1.2271(4) 0.6885(3) 0.2373(3)
H27 H 1.2593 0.6495 0.2059
C41 C 0.4578(5) 0.4234(4) 0.3487(3)
H28 H 0.4202 0.3869 0.3773
C42 C 1.0955(4) 1.1273(4) 0.2154(3)
H29 H 1.1277 1.0885 0.2498
H30 H 1.0898 1.1801 0.2295
H31 H 1.1356 1.1236 0.1667
C43 C 0.7457(4) 0.8896(4) 0.6027(3)
H32 H 0.7144 0.9056 0.6490
C44 C 0.6475(4) 0.4459(3) -0.0277(3)
H33 H 0.5927 0.4444 0.0138
H34 H 0.6974 0.3979 -0.0241
H35 H 0.6216 0.4498 -0.0726
C45 C 0.8354(5) 1.0051(4) 0.5812(3)
H36 H 0.8820 1.0284 0.5423
H37 H 0.8662 0.9894 0.6244
H38 H 0.7743 1.0437 0.5927
C46 C 0.4570(4) 0.8851(4) 0.3523(3)
H39 H 0.4526 0.8434 0.3933
H40 H 0.4035 0.9303 0.3656
N12 N 0.8128(4) 0.6936(3) 0.4307(3)
H41 H 0.8580 0.7207 0.4070
C47 C 0.2986(5) 0.7751(4) -0.0062(3)
H42 H 0.3414 0.7242 -0.0153
H43 H 0.3127 0.8135 -0.0480
H44 H 0.2286 0.7696 0.0013
C48 C 0.8723(4) 0.5278(4) 0.3042(3)
H45 H 0.9190 0.5196 0.2579
H46 H 0.8926 0.4840 0.3403
C49 C 0.8174(4) 0.5951(3) -0.0845(3)
H47 H 0.8713 0.6043 -0.1223
C50 C 0.9150(5) 0.9365(4) 0.0591(4)
H48 H 0.9465 0.9431 0.0991
H49 H 0.8574 0.9787 0.0558
H50 H 0.9632 0.9385 0.0136
C51 C 0.7264(5) 0.8232(4) 0.5818(3)
H51 H 0.6816 0.7942 0.6135
C52 C 0.6445(4) 0.8410(3) 0.3253(3)
H52 H 0.6390 0.7991 0.3652
H53 H 0.7091 0.8572 0.3193
H54 H 0.6389 0.8216 0.2805
C53 C 0.8054(6) 0.6204(4) 0.4014(4)
H55 H 0.7371 0.6246 0.3920
H56 H 0.8178 0.5750 0.4378
C54 C 0.3212(5) 0.4656(4) 0.2746(4)
H57 H 0.3064 0.5041 0.2337
H58 H 0.2685 0.4758 0.3169
H59 H 0.3247 0.4126 0.2618
C55 C 0.8610(5) 0.6748(4) 0.2704(3)
H60 H 0.8663 0.7242 0.2868
H61 H 0.7938 0.6782 0.2608
H62 H 0.9099 0.6649 0.2260
C56 C 0.9907(5) 0.5979(4) 0.3430(4)
H63 H 0.9991 0.6463 0.3594
H64 H 1.0374 0.5878 0.2976
H65 H 1.0038 0.5539 0.3799
C57 C 0.2641(5) 0.8750(4) 0.0833(3)
H66 H 0.2149 0.9046 0.0574
C58 C 0.8889(5) 1.4001(4) 0.1089(4)
H67 H 0.9472 1.3670 0.1283
Cl1 Cl 0.89921(15) 1.50124(11) 0.10202(10)
Cl2 Cl 0.88677(14) 1.37155(12) 0.02257(10)
Cl3 Cl 0.77515(17) 1.38407(13) 0.17028(12)
C59 C 0.6500(6) 0.2003(5) 0.3979(4)
H68 H 0.6267 0.2352 0.4379
Cl4 Cl 0.7191(2) 0.11207(14) 0.43169(13)
Cl5 Cl 0.72566(19) 0.24971(14) 0.32504(13)
Cl6 Cl 0.5430(2) 0.18411(17) 0.36798(19)
C60 C 0.9595(9) 0.3075(6) 0.3794(6)
Cl7 Cl 0.9634(2) 0.20445(19) 0.41095(15)
Cl8 Cl 1.0073(3) 0.31517(18) 0.2813(2)
Cl9 Cl 1.0114(13) 0.3441(11) 0.4347(9)
C61 C 0.4609(8) 0.2369(7) 0.1683(5)
Cl14 Cl 0.4431(4) 0.2614(5) 0.0865(3)
Cl18 Cl 0.5354(6) 0.3242(5) 0.1825(4)
Cl20 Cl 0.3260(12) 0.2171(9) 0.2075(9)
C62 C 0.5188(6) 0.6276(4) 0.4384(4)
O19 O 0.5031(4) 0.6956(3) 0.4802(2)
C63 C 0.8075(10) 0.4513(8) 0.5550(6)
O20 O 0.7162(5) 0.4404(5) 0.5452(3)
C64 C 0.5507(6) 0.9600(7) 0.0641(5)
H69 H 0.5463 0.9285 0.1126
C65 C 0.5366(9) 0.9082(9) 0.0079(9)
H70 H 0.4743 0.8868 0.0247
H71 H 0.5933 0.8638 0.0011
C66 C 0.4690(15) 1.0340(11) 0.0698(9)
H72 H 0.4231 1.0465 0.1163
C66A C 0.5310(15) 0.9660(11) -0.0698(9)
C64A C 0.4493(6) 1.0400(7) -0.0641(5)
H69A H 0.4537 1.0715 -0.1126
C65A C 0.4634(9) 1.0918(9) -0.0079(9)
H70A H 0.5257 1.1132 -0.0247
H71A H 0.4067 1.1362 -0.0011
H72A H 0.5769 0.9535 -0.1163
Cl10? Cl 1.0520(9) 0.3589(7) 0.4062(7)
Cl11? Cl 1.0487(15) 0.3206(12) 0.3114(12)
Cl12? Cl 0.9730(18) 0.3389(13) 0.4678(12)
Cl13? Cl 0.916(3) 0.307(2) 0.298(2)
Cl15? Cl 0.4327(6) 0.1898(5) 0.0780(4)
Cl16? Cl 0.3477(4) 0.2427(4) 0.2326(3)
Cl17? Cl 0.4772(15) 0.2595(12) 0.2573(11)
Cl19? Cl 0.4766(5) 0.3269(4) 0.1377(4)
C67? C 0.6104(17) 1.0112(9) 0.0613(8)
loop_
_geom_bond_atom_site_label_1
_geom_bond_atom_site_label_2
_geom_bond_site_symmetry_1
_geom_bond_site_symmetry_2
Ga1 O1 1_555 1_555
Ga2 O4 1_555 1_555
O1 C31 1_555 1_555
O2 Ga1 1_555 1_555
O3 Ga1 1_555 1_555
O4 C9 1_555 1_555
O5 Ga1 1_555 1_555
O6 Ga2 1_555 1_555
O7 Ga1 1_555 1_555
O8 Ga2 1_555 1_555
O9 Ga2 1_555 1_555
O10 Ga1 1_555 1_555
O11 Ga2 1_555 1_555
O12 Ga2 1_555 1_555
O13 C11 1_555 1_555
N1 C26 1_555 1_555
N2 H1 1_555 1_555
N3 C28 1_555 1_555
O14 C6 1_555 1_555
O15 C33 1_555 1_555
O16 C34 1_555 1_555
N4 C14 1_555 1_555
N5 H2 1_555 1_555
N6 C12 1_555 1_555
C1 C3 1_555 1_555
N7 C4 1_555 1_555
O17 C10 1_555 1_555
C2 C6 1_555 1_555
O18 C37 1_555 1_555
C3 N5 1_555 1_555
H3 C3 1_555 1_555
H4 C3 1_555 1_555
N8 C30 1_555 1_555
N9 H5 1_555 1_555
N10 H6 1_555 1_555
N11 H7 1_555 1_555
C4 O12 1_555 1_555
C5 O8 1_555 1_555
C6 N9 1_555 1_555
C7 C5 1_555 1_555
C8 O11 1_555 1_555
C9 C14 1_555 1_555
C10 N5 1_555 1_555
C11 N2 1_555 1_555
C12 H8 1_555 1_555
C13 C11 1_555 1_555
C14 O9 1_555 1_555
C15 N2 1_555 1_555
H9 C15 1_555 1_555
H10 C15 1_555 1_555
C16 O6 1_555 1_555
C17 H11 1_555 1_555
H12 C17 1_555 1_555
H13 C17 1_555 1_555
C18 C17 1_555 1_555
C19 C21 1_555 1_555
C20 C24 1_555 1_555
C21 O10 1_555 1_555
C22 N9 1_555 1_555
H14 C22 1_555 1_555
H15 C22 1_555 1_555
C23 C9 1_555 1_555
C24 H16 1_555 1_555
C25 O2 1_555 1_555
C26 O3 1_555 1_555
C27 C48 1_555 1_555
C28 O5 1_555 1_555
C29 N7 1_555 1_555
H17 C29 1_555 1_555
C30 O7 1_555 1_555
C31 C20 1_555 1_555
C32 C2 1_555 1_555
H18 C32 1_555 1_555
C33 N11 1_555 1_555
C34 C23 1_555 1_555
C35 N6 1_555 1_555
H19 C35 1_555 1_555
H20 C35 1_555 1_555
H21 C35 1_555 1_555
C36 N1 1_555 1_555
H22 C36 1_555 1_555
C37 N10 1_555 1_555
C38 C19 1_555 1_555
H23 C38 1_555 1_555
C39 C1 1_555 1_555
H24 C39 1_555 1_555
H25 C39 1_555 1_555
H26 C39 1_555 1_555
C40 C7 1_555 1_555
H27 C40 1_555 1_555
C41 N8 1_555 1_555
H28 C41 1_555 1_555
C42 N7 1_555 1_555
H29 C42 1_555 1_555
H30 C42 1_555 1_555
H31 C42 1_555 1_555
C43 N4 1_555 1_555
H32 C43 1_555 1_555
C44 N1 1_555 1_555
H33 C44 1_555 1_555
H34 C44 1_555 1_555
H35 C44 1_555 1_555
C45 N4 1_555 1_555
H36 C45 1_555 1_555
H37 C45 1_555 1_555
H38 C45 1_555 1_555
C46 N11 1_555 1_555
H39 C46 1_555 1_555
H40 C46 1_555 1_555
N12 C34 1_555 1_555
H41 N12 1_555 1_555
C47 N3 1_555 1_555
H42 C47 1_555 1_555
H43 C47 1_555 1_555
H44 C47 1_555 1_555
C48 N10 1_555 1_555
H45 C48 1_555 1_555
H46 C48 1_555 1_555
C49 C13 1_555 1_555
H47 C49 1_555 1_555
C50 C1 1_555 1_555
H48 C50 1_555 1_555
H49 C50 1_555 1_555
H50 C50 1_555 1_555
C51 C23 1_555 1_555
H51 C51 1_555 1_555
C52 C18 1_555 1_555
H52 C52 1_555 1_555
H53 C52 1_555 1_555
H54 C52 1_555 1_555
C53 C27 1_555 1_555
H55 C53 1_555 1_555
H56 C53 1_555 1_555
C54 N8 1_555 1_555
H57 C54 1_555 1_555
H58 C54 1_555 1_555
H59 C54 1_555 1_555
C55 C27 1_555 1_555
H60 C55 1_555 1_555
H61 C55 1_555 1_555
H62 C55 1_555 1_555
C56 C27 1_555 1_555
H63 C56 1_555 1_555
H64 C56 1_555 1_555
H65 C56 1_555 1_555
C57 N3 1_555 1_555
H66 C57 1_555 1_555
C58 H67 1_555 1_555
Cl1 C58 1_555 1_555
Cl2 C58 1_555 1_555
Cl3 C58 1_555 1_555
C59 H68 1_555 1_555
Cl4 C59 1_555 1_555
Cl5 C59 1_555 1_555
Cl6 C59 1_555 1_555
C60 Cl7 1_555 1_555
Cl8 C60 1_555 1_555
Cl9 C60 1_555 1_555
C61 Cl14 1_555 1_555
Cl18 C61 1_555 1_555
Cl20 C61 1_555 1_555
C62 O19 1_555 1_555
C63 O20 1_555 1_555
C64 H69 1_555 1_555
C65 C64 1_555 1_555
H70 C65 1_555 1_555
H71 C65 1_555 1_555
C66 C64 1_555 1_555
H72 C66 1_555 1_555
C66A C65 1_555 1_555
C64A C66A 1_555 1_555
H69A C64A 1_555 1_555
C65A C66 1_555 1_555
H70A C65A 1_555 1_555
H71A C65A 1_555 1_555
H72A C66A 1_555 1_555
N6 C16 1_555 1_555
C1 C15 1_555 1_555
C2 C8 1_555 1_555
C4 C8 1_555 1_555
C5 C16 1_555 1_555
C7 C10 1_555 1_555
C12 C40 1_555 1_555
C13 C25 1_555 1_555
C18 C22 1_555 1_555
C18 C46 1_555 1_555
C19 C37 1_555 1_555
C20 C33 1_555 1_555
C21 C30 1_555 1_555
C24 C57 1_555 1_555
C25 C26 1_555 1_555
C28 C31 1_555 1_555
C29 C32 1_555 1_555
C36 C49 1_555 1_555
C38 C41 1_555 1_555
C43 C51 1_555 1_555
N12 C53 1_555 1_555
C64A C65A 1_555 1_555

#END
