
#######################################################################
#
#                 Cambridge Crystallographic Data Centre
#                                CCDC 
#
#######################################################################
#
# If this CIF has been generated from an entry in the Cambridge 
# Structural Database, then it will include bibliographic, chemical, 
# crystal, experimental, refinement or atomic coordinate data resulting 
# from the CCDC's data processing and validation procedures.
#
#######################################################################

data_CIMQOE
_chemical_formula_moiety         
'C57 H66 Al2 N12 O18,2(C1 H1 Cl3),C1 H4 O1,2(C6 H12),2(H2 O1)'
_chemical_name_systematic        
'tris(\m~2~-1,3-bis((3-Oxy-1-methyl-2-oxo-1,2-dihydropyridin-4-yl)carboxamido)-2,2-dimethylpropane)-di-aluminium chloroform methanol cyclohexane solvate dihydrate'
_symmetry_cell_setting           monoclinic
_symmetry_space_group_name_H-M   'C 2/c'
_symmetry_Int_Tables_number      15
_space_group_name_Hall           '-C 2yn'
loop_
_symmetry_equiv_pos_site_id
_symmetry_equiv_pos_as_xyz
1 x,y,z
2 1/2+x,1/2+y,z
3 x,-y,1/2+z
4 1/2+x,1/2-y,1/2+z
5 -x,-y,-z
6 1/2-x,1/2-y,-z
7 -x,y,1/2-z
8 1/2-x,1/2+y,1/2-z
_cell_length_a                   17.23480(10)
_cell_length_b                   20.7011(3)
_cell_length_c                   21.4044(3)
_cell_angle_alpha                90
_cell_angle_beta                 91.7430(10)
_cell_angle_gamma                90
_cell_volume                     7633.11
_exptl_crystal_colour            colorless
_exptl_crystal_description       rhomboid
_chemical_melting_point          600K
_cell_formula_units_Z            4
loop_
_atom_site_label
_atom_site_type_symbol
_atom_site_fract_x
_atom_site_fract_y
_atom_site_fract_z
O10 O 0.5000 0.1900(5) 0.7500
O11 O 0.5000 0.1694(3) 0.2500
H1 H 0.499(3) 0.2125(19) 0.2678(19)
H1F H 0.501(3) 0.2125(19) 0.2322(19)
O12 O 0.5000 0.0000 0.5000
C30 C 0.5611(5) 0.0504(4) 0.4810(4)
C30D C 0.4389(5) -0.0504(4) 0.5190(4)
C31 C 0.9277(4) 0.1877(3) 0.6596(3)
Cl1 Cl 0.89026(9) 0.20267(10) 0.58194(10)
Cl3 Cl 1.02457(10) 0.16395(10) 0.65607(9)
Cl7 Cl 0.8694(19) 0.151(3) 0.673(3)
C35 C 1.0763(5) 0.0233(7) 0.5334(4)
C37 C 1.0213(13) 0.0682(9) 0.4955(9)
C38 C 1.0560(12) -0.0491(16) 0.5070(8)
C38D C 0.9440(12) 0.0491(16) 0.4930(8)
C35D C 0.9237(5) -0.0233(7) 0.4666(4)
C37D C 0.9787(13) -0.0682(9) 0.5045(9)
Al1 Al 0.59574(5) 0.19014(4) 0.60466(4)
O1 O 0.54262(13) 0.18761(10) 0.52481(10)
O2 O 0.51977(12) 0.25114(9) 0.62533(9)
O3 O 0.33460(17) 0.38601(14) 0.62952(13)
O4 O 0.66693(12) 0.25397(10) 0.57720(9)
O5 O 0.64440(11) 0.20165(9) 0.68383(9)
O6 O 0.79109(16) 0.25213(14) 0.83910(12)
O7 O 0.66741(11) 0.12332(10) 0.58291(9)
O8 O 0.53613(11) 0.12162(9) 0.63553(10)
O9 O 0.55887(15) -0.05890(12) 0.81652(16)
N1 N 0.43042(17) 0.22504(13) 0.47627(13)
N2 N 0.42981(15) 0.33648(12) 0.68664(12)
H2 H 0.4617 0.3045 0.6882
N3 N 0.76187(15) 0.32172(12) 0.61589(13)
N4 N 0.68859(15) 0.19145(12) 0.80598(12)
H3 H 0.6560 0.1846 0.7755
N5 N 0.69539(15) 0.01805(12) 0.60846(12)
N6 N 0.57542(14) 0.04926(12) 0.81232(13)
H4 H 0.5519 0.0859 0.8120
C1 C 0.4443(3) 0.1835(2) 0.42211(18)
H5 H 0.4930 0.1948 0.4044
H6 H 0.4032 0.1894 0.3913
H7 H 0.4457 0.1392 0.4352
C2 C 0.48133(19) 0.22319(15) 0.52505(15)
C3 C 0.46680(18) 0.26050(14) 0.57997(14)
C4 C 0.40316(19) 0.30072(15) 0.58154(16)
C5 C 0.3525(2) 0.30132(17) 0.52780(18)
H8 H 0.3091 0.3281 0.5273
C6 C 0.3656(2) 0.26421(17) 0.47768(17)
H9 H 0.3308 0.2649 0.4437
C7 C 0.3859(2) 0.34441(16) 0.63437(16)
C8 C 0.4268(2) 0.37866(16) 0.74092(16)
H10 H 0.4204 0.3525 0.7780
H11 H 0.3818 0.4066 0.7364
C9 C 0.5000 0.4207(2) 0.7500
C10 C 0.4889(3) 0.46268(19) 0.8076(2)
H12 H 0.5339 0.4894 0.8145
H13 H 0.4820 0.4356 0.8434
H14 H 0.4439 0.4895 0.8011
C11 C 0.7738(2) 0.34761(17) 0.55324(16)
H15 H 0.7261 0.3656 0.5369
H16 H 0.7904 0.3135 0.5263
H17 H 0.8129 0.3806 0.5555
C12 C 0.70912(17) 0.27487(14) 0.62351(15)
C13 C 0.69858(17) 0.24677(14) 0.68406(14)
C14 C 0.74482(18) 0.26665(15) 0.73431(14)
C15 C 0.7987(2) 0.31676(16) 0.72338(17)
H18 H 0.8296 0.3319 0.7566
C16 C 0.8066(2) 0.34314(16) 0.66642(17)
H19 H 0.8425 0.3761 0.6610
C17 C 0.74320(19) 0.23653(16) 0.79785(15)
C18 C 0.6804(2) 0.15352(18) 0.86213(15)
H20 H 0.6266 0.1548 0.8739
H21 H 0.7112 0.1734 0.8956
C19 C 0.7051(2) 0.08317(19) 0.85617(19)
C20 C 0.7910(2) 0.0791(2) 0.8409(3)
H22 H 0.8215 0.0995 0.8735
H23 H 0.7994 0.1006 0.8019
H24 H 0.8060 0.0346 0.8376
C21 C 0.6907(3) 0.0497(3) 0.9182(2)
H25 H 0.7202 0.0709 0.9510
H26 H 0.7065 0.0053 0.9158
H27 H 0.6365 0.0519 0.9270
C22 C 0.65834(19) 0.04943(17) 0.80280(19)
H28 H 0.6684 0.0712 0.7637
H29 H 0.6762 0.0052 0.7993
C23 C 0.7697(2) 0.02271(17) 0.57771(18)
H30 H 0.7984 0.0589 0.5944
H31 H 0.7606 0.0286 0.5336
H32 H 0.7988 -0.0162 0.5850
C24 C 0.64856(17) 0.06999(14) 0.60858(14)
C25 C 0.57407(17) 0.06600(14) 0.63704(14)
C26 C 0.54825(18) 0.00769(14) 0.65950(16)
C27 C 0.6011(2) -0.04510(15) 0.65915(17)
H33 H 0.5862 -0.0845 0.6759
C28 C 0.6723(2) -0.03965(15) 0.63523(16)
H34 H 0.7061 -0.0747 0.6367
C29 C 0.53287(19) -0.00357(15) 0.82155(17)
C29F C 0.46713(19) -0.00357(15) 0.67845(17)
O9F O 0.44113(15) -0.05890(12) 0.68348(16)
N6F N 0.42458(14) 0.04926(12) 0.68768(13)
H4F H 0.4481 0.0859 0.6880
C22F C 0.34166(19) 0.04943(17) 0.69720(19)
C19F C 0.2949(2) 0.08317(19) 0.64383(19)
C18F C 0.3196(2) 0.15352(18) 0.63787(15)
N4F N 0.31141(15) 0.19145(12) 0.69402(12)
H3F H 0.3440 0.1846 0.7245
C17F C 0.25680(19) 0.23653(16) 0.70215(15)
O6F O 0.20891(16) 0.25213(14) 0.66090(12)
C14F C 0.25518(18) 0.26665(15) 0.76569(14)
C13F C 0.30142(17) 0.24677(14) 0.81594(14)
O5F O 0.35560(11) 0.20165(9) 0.81617(9)
Al1F Al 0.40426(5) 0.19014(4) 0.89534(4)
O1F O 0.45738(13) 0.18761(10) 0.97519(10)
C2F C 0.51867(19) 0.22319(15) 0.97495(15)
N1F N 0.56958(17) 0.22504(13) 1.02373(13)
C1F C 0.5557(3) 0.1835(2) 1.07789(18)
H5F H 0.5070 0.1948 1.0956
H6F H 0.5968 0.1894 1.1087
H7F H 0.5543 0.1392 1.0648
C6F C 0.6344(2) 0.26421(17) 1.02232(17)
C5F C 0.6475(2) 0.30132(17) 0.97220(18)
C4F C 0.59684(19) 0.30072(15) 0.91846(16)
C3F C 0.53320(18) 0.26050(14) 0.92003(14)
O2F O 0.48023(12) 0.25114(9) 0.87467(9)
O4F O 0.33307(12) 0.25397(10) 0.92280(9)
C12F C 0.29088(17) 0.27487(14) 0.87649(15)
N3F N 0.23813(15) 0.32172(12) 0.88411(13)
C11F C 0.2262(2) 0.34761(17) 0.94676(16)
H15F H 0.2739 0.3656 0.9631
H16F H 0.2096 0.3135 0.9737
H17F H 0.1871 0.3806 0.9445
C16F C 0.1934(2) 0.34314(16) 0.83358(17)
C15F C 0.2013(2) 0.31676(16) 0.77662(17)
H18F H 0.1704 0.3319 0.7434
H19F H 0.1575 0.3761 0.8390
O7F O 0.33259(11) 0.12332(10) 0.91709(9)
C24F C 0.35144(17) 0.06999(14) 0.89142(14)
N5F N 0.30461(15) 0.01805(12) 0.89154(12)
C23F C 0.2303(2) 0.02271(17) 0.92229(18)
H30F H 0.2016 0.0589 0.9056
H31F H 0.2394 0.0286 0.9664
H32F H 0.2012 -0.0162 0.9150
C28F C 0.3277(2) -0.03965(15) 0.86477(16)
C27F C 0.3989(2) -0.04510(15) 0.84085(17)
C26F C 0.45175(18) 0.00769(14) 0.84050(16)
C25F C 0.42593(17) 0.06600(14) 0.86296(14)
O8F O 0.46387(11) 0.12162(9) 0.86447(10)
H33F H 0.4138 -0.0845 0.8241
H34F H 0.2939 -0.0747 0.8633
C7F C 0.6141(2) 0.34441(16) 0.86563(16)
O3F O 0.66540(17) 0.38601(14) 0.87048(13)
N2F N 0.57019(15) 0.33648(12) 0.81336(12)
H2F H 0.5383 0.3045 0.8118
C8F C 0.5732(2) 0.37866(16) 0.75908(16)
H10F H 0.5796 0.3525 0.7220
H11F H 0.6182 0.4066 0.7636
C10F C 0.5111(3) 0.46268(19) 0.6924(2)
H12F H 0.4661 0.4894 0.6855
H13F H 0.5180 0.4356 0.6566
H14F H 0.5561 0.4895 0.6989
H8F H 0.6909 0.3281 0.9727
H9F H 0.6692 0.2649 1.0563
H20F H 0.3734 0.1548 0.6261
H21F H 0.2888 0.1734 0.6044
C20F C 0.2090(2) 0.0791(2) 0.6591(3)
H22F H 0.1785 0.0995 0.6265
H23F H 0.2006 0.1006 0.6981
H24F H 0.1940 0.0346 0.6624
C21F C 0.3093(3) 0.0497(3) 0.5818(2)
H25F H 0.2798 0.0709 0.5490
H26F H 0.2935 0.0053 0.5842
H27F H 0.3635 0.0519 0.5730
H28F H 0.3316 0.0712 0.7363
H29F H 0.3238 0.0052 0.7007
Cl2? Cl 0.8704(3) 0.1290(3) 0.6931(2)
Cl4? Cl 0.9046(11) 0.1760(11) 0.5499(11)
Cl5? Cl 0.904(2) 0.1097(14) 0.6829(11)
Cl6? Cl 1.049(3) 0.221(2) 0.709(2)
Cl8? Cl 0.9363(16) 0.1318(14) 0.6208(13)
C32? C 1.0638(5) 0.0452(4) 0.4989(4)
C33? C 1.0106(19) 0.0106(16) 0.4773(13)
C34? C 1.0868(12) -0.0077(19) 0.5342(10)
C36? C 1.0287(15) 0.0549(8) 0.5382(8)
C39? C 0.984(3) 0.0568(15) 0.5405(15)
C40? C 0.9558(15) 0.0777(16) 0.4935(12)
C41? C 0.9305(8) 0.0866(6) 0.4693(7)
loop_
_geom_bond_atom_site_label_1
_geom_bond_atom_site_label_2
_geom_bond_site_symmetry_1
_geom_bond_site_symmetry_2
Al1 O1 1_555 1_555
O1 C2 1_555 1_555
O2 Al1 1_555 1_555
O3 C7 1_555 1_555
O4 Al1 1_555 1_555
O5 Al1 1_555 1_555
O6 C17 1_555 1_555
O7 Al1 1_555 1_555
O8 Al1 1_555 1_555
O9 C29 1_555 1_555
O11 H1 1_555 1_555
O12 C30 1_555 1_555
N1 C1 1_555 1_555
N2 H2 1_555 1_555
N3 C11 1_555 1_555
N4 H3 1_555 1_555
N5 C23 1_555 1_555
N6 H4 1_555 1_555
C1 H5 1_555 1_555
H6 C1 1_555 1_555
H7 C1 1_555 1_555
C2 N1 1_555 1_555
C3 O2 1_555 1_555
C4 C3 1_555 1_555
C5 C4 1_555 1_555
H8 C5 1_555 1_555
C6 N1 1_555 1_555
H9 C6 1_555 1_555
C7 N2 1_555 1_555
C8 N2 1_555 1_555
H10 C8 1_555 1_555
H11 C8 1_555 1_555
C9 C8 1_555 1_555
C10 C9 1_555 1_555
H12 C10 1_555 1_555
H13 C10 1_555 1_555
H14 C10 1_555 1_555
C11 H15 1_555 1_555
H16 C11 1_555 1_555
H17 C11 1_555 1_555
C12 O4 1_555 1_555
C13 O5 1_555 1_555
C14 C13 1_555 1_555
C15 C14 1_555 1_555
H18 C15 1_555 1_555
C16 N3 1_555 1_555
H19 C16 1_555 1_555
C17 N4 1_555 1_555
C18 N4 1_555 1_555
H20 C18 1_555 1_555
H21 C18 1_555 1_555
C19 C18 1_555 1_555
C20 C19 1_555 1_555
H22 C20 1_555 1_555
H23 C20 1_555 1_555
H24 C20 1_555 1_555
C21 C19 1_555 1_555
H25 C21 1_555 1_555
H26 C21 1_555 1_555
H27 C21 1_555 1_555
C22 N6 1_555 1_555
H28 C22 1_555 1_555
H29 C22 1_555 1_555
C23 H30 1_555 1_555
H31 C23 1_555 1_555
H32 C23 1_555 1_555
C24 O7 1_555 1_555
C25 O8 1_555 1_555
C26 C25 1_555 1_555
C27 C26 1_555 1_555
H33 C27 1_555 1_555
C28 N5 1_555 1_555
H34 C28 1_555 1_555
C29 N6 1_555 1_555
C31 Cl1 1_555 1_555
Cl3 C31 1_555 1_555
Cl7 C31 1_555 1_555
C35 C37 1_555 1_555
C37 C38D 1_555 1_555
C38 C35 1_555 1_555
C29F C26 1_555 1_555
O9F C29F 1_555 1_555
N6F C29F 1_555 1_555
H4F N6F 1_555 1_555
C22F N6F 1_555 1_555
C19F C22F 1_555 1_555
C18F C19F 1_555 1_555
N4F C18F 1_555 1_555
H3F N4F 1_555 1_555
C17F N4F 1_555 1_555
O6F C17F 1_555 1_555
C14F C17F 1_555 1_555
C13F C14F 1_555 1_555
O5F C13F 1_555 1_555
Al1F O5F 1_555 1_555
O1F Al1F 1_555 1_555
C2F O1F 1_555 1_555
N1F C2F 1_555 1_555
C1F N1F 1_555 1_555
H5F C1F 1_555 1_555
H6F C1F 1_555 1_555
H7F C1F 1_555 1_555
C6F N1F 1_555 1_555
C5F C6F 1_555 1_555
C4F C5F 1_555 1_555
C3F C2F 1_555 1_555
O2F Al1F 1_555 1_555
O4F Al1F 1_555 1_555
C12F C13F 1_555 1_555
N3F C12F 1_555 1_555
C11F N3F 1_555 1_555
H15F C11F 1_555 1_555
H16F C11F 1_555 1_555
H17F C11F 1_555 1_555
C16F N3F 1_555 1_555
C15F C14F 1_555 1_555
H18F C15F 1_555 1_555
H19F C16F 1_555 1_555
O7F Al1F 1_555 1_555
C24F O7F 1_555 1_555
N5F C24F 1_555 1_555
C23F N5F 1_555 1_555
H30F C23F 1_555 1_555
H31F C23F 1_555 1_555
H32F C23F 1_555 1_555
C28F N5F 1_555 1_555
C27F C28F 1_555 1_555
C26F C29 1_555 1_555
C25F C24F 1_555 1_555
O8F Al1F 1_555 1_555
H33F C27F 1_555 1_555
H34F C28F 1_555 1_555
C7F C4F 1_555 1_555
O3F C7F 1_555 1_555
N2F C7F 1_555 1_555
H2F N2F 1_555 1_555
C8F C9 1_555 1_555
H10F C8F 1_555 1_555
H11F C8F 1_555 1_555
C10F C9 1_555 1_555
H12F C10F 1_555 1_555
H13F C10F 1_555 1_555
H14F C10F 1_555 1_555
H8F C5F 1_555 1_555
H9F C6F 1_555 1_555
H20F C18F 1_555 1_555
H21F C18F 1_555 1_555
C20F C19F 1_555 1_555
H22F C20F 1_555 1_555
H23F C20F 1_555 1_555
H24F C20F 1_555 1_555
C21F C19F 1_555 1_555
H25F C21F 1_555 1_555
H26F C21F 1_555 1_555
H27F C21F 1_555 1_555
H28F C22F 1_555 1_555
H29F C22F 1_555 1_555
H1F O11 1_555 1_555
C30D O12 1_555 1_555
C38D C35D 1_555 1_555
C35D C37D 1_555 1_555
C37D C38 1_555 1_555
N3 C12 1_555 1_555
N5 C24 1_555 1_555
C2 C3 1_555 1_555
C4 C7 1_555 1_555
C5 C6 1_555 1_555
C12 C13 1_555 1_555
C14 C17 1_555 1_555
C15 C16 1_555 1_555
C19 C22 1_555 1_555
C24 C25 1_555 1_555
C27 C28 1_555 1_555
C4F C3F 1_555 1_555
C3F O2F 1_555 1_555
O4F C12F 1_555 1_555
C16F C15F 1_555 1_555
C27F C26F 1_555 1_555
C26F C25F 1_555 1_555
C25F O8F 1_555 1_555
N2F C8F 1_555 1_555

#END
