
#######################################################################
#
#                 Cambridge Crystallographic Data Centre
#                                CCDC 
#
#######################################################################
#
# If this CIF has been generated from an entry in the Cambridge 
# Structural Database, then it will include bibliographic, chemical, 
# crystal, experimental, refinement or atomic coordinate data resulting 
# from the CCDC's data processing and validation procedures.
#
#######################################################################

data_CIMROF
_chemical_formula_moiety         
'C234 H162 Ga6 N36 O36,13.5(C3 H7 N1 O1),3.5(H2 O1),C6 H14'
_chemical_name_systematic        
'tris(\m~3~-1,3,5-tris(3-Methyl-5-oxy-1-phenylpyrazol-4-ylcarbonyl)benzene)-hexa-gallium dimethylformamide hexane solvate hydrate'
_symmetry_cell_setting           monoclinic
_symmetry_space_group_name_H-M   'P 21/n'
_symmetry_Int_Tables_number      14
_space_group_name_Hall           '-P 2yn'
loop_
_symmetry_equiv_pos_site_id
_symmetry_equiv_pos_as_xyz
1 x,y,z
2 1/2-x,1/2+y,1/2-z
3 -x,-y,-z
4 1/2+x,1/2-y,1/2+z
_cell_length_a                   24.8178(3)
_cell_length_b                   39.0554(7)
_cell_length_c                   31.3024(5)
_cell_angle_alpha                90
_cell_angle_beta                 93.7210(10)
_cell_angle_gamma                90
_cell_volume                     30276.5
_exptl_crystal_colour            'light red'
_exptl_crystal_description       block
_cell_formula_units_Z            4
loop_
_atom_site_label
_atom_site_type_symbol
_atom_site_fract_x
_atom_site_fract_y
_atom_site_fract_z
O2 O 0.2742(7) 0.2504(4) 0.3970(6)
N2 N 0.2235(8) 0.2238(6) 0.3450(7)
C4 C 0.2267(9) 0.1909(6) 0.3626(8)
H8 H 0.2056(9) 0.1754(6) 0.3445(8)
H9 H 0.2132(9) 0.1912(6) 0.3906(8)
H10 H 0.2637(9) 0.1835(6) 0.3646(8)
C5 C 0.1869(11) 0.2273(7) 0.3055(9)
H11 H 0.1725(11) 0.2052(7) 0.2974(9)
H12 H 0.2068(11) 0.2363(7) 0.2828(9)
H13 H 0.1578(11) 0.2425(7) 0.3110(9)
C6 C 0.2476(10) 0.2502(7) 0.3624(9)
H14 H 0.2445(10) 0.2708(7) 0.3475(9)
O3 O -0.1098(6) 0.0915(4) 0.5817(5)
N3 N -0.1826(8) 0.1232(5) 0.5567(6)
C7 C -0.2106(11) 0.1557(7) 0.5532(9)
H15 H -0.2444(11) 0.1527(7) 0.5370(9)
H16 H -0.1889(11) 0.1719(7) 0.5390(9)
H17 H -0.2170(11) 0.1639(7) 0.5813(9)
C8 C -0.1351(10) 0.1191(7) 0.5773(8)
H18 H -0.1189(10) 0.1385(7) 0.5897(8)
C9 C -0.2109(12) 0.0966(8) 0.5358(9)
H19 H -0.2445(12) 0.1051(8) 0.5231(9)
H20 H -0.2179(12) 0.0789(8) 0.5561(9)
H21 H -0.1898(12) 0.0874(8) 0.5139(9)
O4 O 0.4809(6) 0.1707(5) 0.5043(5)
N4 N 0.4953(9) 0.1388(7) 0.4440(8)
C10 C 0.4777(10) 0.1414(8) 0.4830(9)
H22 H 0.4627(10) 0.1223(8) 0.4955(9)
C11 C 0.4889(14) 0.1017(9) 0.4273(11)
H23 H 0.5020(14) 0.1002(9) 0.3992(11)
H24 H 0.4515(14) 0.0953(9) 0.4261(11)
H25 H 0.5093(14) 0.0865(9) 0.4462(11)
C12 C 0.5196(11) 0.1641(7) 0.4226(9)
H26 H 0.5287(11) 0.1558(7) 0.3951(9)
H27 H 0.5518(11) 0.1712(7) 0.4388(9)
H28 H 0.4954(11) 0.1832(7) 0.4188(9)
O5 O 0.0859(13) -0.0078(9) 0.3080(10)
N5 N 0.0202(11) -0.0517(7) 0.3021(9)
C13 C 0.0667(16) -0.0396(10) 0.3182(12)
C14 C 0.0019(10) -0.0835(7) 0.3218(8)
C15 C 0.0062(23) -0.0414(15) 0.2592(20)
O6 O 0.3377(13) -0.0658(8) 0.8163(11)
N6 N 0.3050(13) -0.0215(9) 0.7579(11)
C16 C 0.2836(10) 0.0035(6) 0.7895(8)
C17 C 0.2997(10) -0.0151(7) 0.7149(9)
C18 C 0.3244(18) -0.0532(12) 0.7840(16)
O7 O 0.4268(8) 0.3769(5) 0.7845(6)
N7 N 0.4777(12) 0.4118(8) 0.8142(11)
C19 C 0.4578(19) 0.4017(13) 0.8522(14)
C20 C 0.5117(19) 0.4411(12) 0.8192(17)
C21 C 0.4676(15) 0.3977(10) 0.7778(13)
O8 O -0.2071(10) 0.1884(7) 0.7885(8)
N8 N -0.1813(14) 0.1484(9) 0.8403(12)
C22 C -0.1821(16) 0.1107(10) 0.8565(13)
C23 C -0.1650(16) 0.1715(11) 0.8670(13)
C24 C -0.2045(18) 0.1582(12) 0.8003(15)
O9 O 0.6667(16) 0.4146(12) 0.6433(13)
N9 N 0.6961(19) 0.3606(12) 0.6357(13)
C25 C 0.6841(16) 0.3289(11) 0.6443(13)
C26 C 0.7403(31) 0.3713(18) 0.6311(22)
C27 C 0.6658(19) 0.3829(14) 0.6426(15)
O10 O 0.0759(8) 0.1155(5) 0.7750(7)
N10 N 0.0537(16) 0.1101(9) 0.8483(13)
C28 C 0.0461(20) 0.1048(13) 0.8075(18)
C29 C 0.0126(18) 0.0962(11) 0.8673(14)
C30 C 0.0944(15) 0.1233(9) 0.8669(12)
O11 O -0.0243(10) 0.2903(7) 0.6959(9)
N11 N -0.0366(19) 0.3171(12) 0.6298(16)
C31 C -0.0063(17) 0.2962(11) 0.6630(15)
C32 C -0.0235(21) 0.3213(13) 0.5922(18)
C33 C -0.0926(22) 0.3325(14) 0.6572(17)
O12 O -0.2039(13) 0.2525(9) 0.0985(11)
O13 O -0.1490(14) 0.2846(9) 0.1336(12)
O14 O -0.2975(19) 0.2611(12) 0.1804(15)
O15 O -0.4886(22) -0.0833(15) -0.0960(18)
O16 O -0.3977(21) -0.0726(14) -0.1629(17)
C34 C 0.4365(20) 0.0719(13) 0.6172(16)
C35 C 0.3825(25) 0.1338(17) 0.6974(20)
C36 C 0.4029(29) 0.1054(20) 0.6978(23)
C37 C 0.4122(24) 0.0947(16) 0.6432(20)
C38 C 0.4636(29) 0.1055(19) 0.5979(23)
C39 C 0.5206(30) 0.0884(20) 0.5665(24)
Ga1 Ga -0.19857(8) 0.36067(6) -0.00784(7)
Ga2 Ga -0.49678(8) 0.31293(5) 0.12650(7)
Ga3 Ga -0.28319(8) 0.14237(5) 0.29612(7)
Ga4 Ga -0.22779(9) 0.36464(5) 0.30288(7)
Ga5 Ga 0.00568(8) 0.19446(6) 0.16748(7)
Ga6 Ga -0.27398(10) 0.14365(6) -0.01579(8)
O17 O -0.1463(5) 0.3963(3) 0.0101(4)
O18 O -0.2256(4) 0.3604(3) 0.0500(4)
O19 O -0.4378(4) 0.3472(3) 0.1389(4)
O20 O -0.5230(4) 0.3400(3) 0.0770(4)
O21 O -0.2678(5) 0.4037(3) 0.3219(4)
O22 O -0.2391(5) 0.3753(3) 0.2427(4)
O23 O -0.2491(5) 0.3973(3) -0.0259(4)
O24 O -0.2558(5) 0.3262(3) -0.0197(4)
O25 O -0.4419(4) 0.2921(3) 0.0888(4)
O26 O -0.5472(4) 0.2768(3) 0.1099(4)
O27 O -0.2963(6) 0.1422(4) -0.0770(4)
O28 O -0.3197(5) 0.1837(3) -0.0060(4)
O29 O -0.1741(5) 0.3628(3) -0.0654(4)
O30 O -0.1537(5) 0.3210(3) 0.0069(4)
O31 O 0.0541(5) 0.2322(3) 0.1605(4)
O32 O -0.0429(5) 0.2124(3) 0.1195(4)
O33 O -0.2228(6) 0.1071(3) -0.0260(4)
O34 O -0.2146(5) 0.1787(3) -0.0199(4)
O35 O -0.5479(4) 0.3355(3) 0.1621(4)
O36 O -0.4632(4) 0.2870(3) 0.1750(4)
O37 O -0.3504(5) 0.1174(3) 0.2915(4)
O38 O -0.3190(5) 0.1845(3) 0.2733(4)
O39 O -0.2170(5) 0.3512(3) 0.3629(4)
O40 O -0.2944(5) 0.3356(3) 0.2944(4)
O41 O -0.2474(5) 0.1033(3) 0.3224(4)
O42 O -0.2626(5) 0.1295(3) 0.2380(4)
O43 O 0.0402(5) 0.1658(3) 0.1251(4)
O44 O -0.0521(5) 0.1604(3) 0.1730(4)
O45 O -0.3286(5) 0.1094(3) -0.0061(5)
O46 O -0.2502(5) 0.1440(3) 0.0455(4)
O47 O -0.2984(5) 0.1560(3) 0.3538(4)
O48 O -0.2179(4) 0.1714(3) 0.2982(4)
O49 O -0.1609(5) 0.3901(3) 0.3073(4)
O50 O -0.1914(5) 0.3229(3) 0.2854(4)
O51 O 0.0546(5) 0.1747(3) 0.2130(4)
O52 O -0.0341(4) 0.2208(3) 0.2081(4)
N12 N -0.1471(6) 0.4517(4) 0.0333(5)
N13 N -0.1718(7) 0.4722(4) 0.0653(5)
N14 N -0.4730(6) 0.4038(4) 0.0138(5)
N15 N -0.5103(6) 0.3787(4) 0.0233(5)
N16 N -0.3560(7) 0.4622(4) 0.2719(5)
N17 N -0.3303(7) 0.4468(4) 0.3065(5)
N18 N -0.3796(7) 0.3734(5) -0.0559(6)
N19 N -0.3783(7) 0.4041(4) -0.0696(5)
N20 N -0.5942(6) 0.2549(4) 0.0493(5)
N21 N -0.5848(6) 0.2474(4) 0.0068(5)
N22 N -0.3683(6) 0.1958(4) -0.1490(5)
N23 N -0.3382(7) 0.1657(4) -0.1358(6)
N24 N -0.1333(6) 0.3391(4) -0.1214(5)
N25 N -0.1055(6) 0.3093(4) -0.1305(5)
N26 N 0.1041(6) 0.2609(4) 0.1106(5)
N27 N 0.1009(7) 0.2671(4) 0.0672(5)
N28 N -0.1364(9) 0.0871(5) -0.0343(7)
N29 N -0.0854(8) 0.0979(6) -0.0365(8)
N30 N -0.5783(6) 0.3494(4) 0.2275(5)
N31 N -0.5634(6) 0.3433(4) 0.2709(5)
N32 N -0.4369(7) 0.1204(4) 0.3143(5)
N33 N -0.4799(6) 0.1436(4) 0.3184(6)
N34 N -0.2439(7) 0.3218(4) 0.4206(5)
N35 N -0.2808(7) 0.2974(5) 0.4318(6)
N36 N -0.1851(6) 0.0599(4) 0.3220(5)
N37 N -0.1515(6) 0.0448(4) 0.2935(5)
N38 N 0.0326(7) 0.1233(4) 0.0733(6)
N39 N -0.0015(7) 0.0979(5) 0.0580(6)
N40 N -0.3282(9) 0.0528(5) 0.0205(7)
N41 N -0.3070(9) 0.0335(5) 0.0533(7)
N42 N -0.2746(6) 0.1840(4) 0.4168(5)
N43 N -0.2392(6) 0.2102(4) 0.4318(5)
N44 N -0.0775(8) 0.3868(5) 0.3383(7)
N45 N -0.0363(8) 0.3645(6) 0.3532(8)
N46 N 0.0743(6) 0.1628(4) 0.2833(5)
N47 N 0.0539(6) 0.1679(4) 0.3232(5)
C40 C -0.2673(7) 0.3843(5) 0.1071(6)
C41 C -0.3204(7) 0.3764(4) 0.0955(6)
H29 H -0.3302(7) 0.3717(4) 0.0669(6)
C42 C -0.3604(7) 0.3751(4) 0.1253(6)
C43 C -0.3459(7) 0.3830(4) 0.1680(6)
H30 H -0.3722(7) 0.3836(4) 0.1878(6)
C44 C -0.2921(7) 0.3899(4) 0.1812(6)
C45 C -0.2542(7) 0.3910(4) 0.1504(6)
H31 H -0.2187(7) 0.3963(4) 0.1589(6)
C46 C -0.2280(7) 0.3872(5) 0.0737(6)
C47 C -0.1985(7) 0.4159(5) 0.0689(6)
C48 C -0.2021(8) 0.4515(6) 0.0855(7)
C49 C -0.1166(8) 0.4705(5) 0.0036(6)
C50 C -0.1632(8) 0.4182(6) 0.0340(7)
C51 C -0.4449(6) 0.3771(4) 0.0748(5)
C52 C -0.1156(8) 0.4590(5) -0.0374(7)
H32 H -0.1318(8) 0.4383(5) -0.0452(7)
C53 C -0.0906(10) 0.4780(7) -0.0672(7)
H33 H -0.0893(10) 0.4702(7) -0.0952(7)
C54 C -0.0676(10) 0.5086(6) -0.0551(8)
H34 H -0.0517(10) 0.5220(6) -0.0753(8)
C55 C -0.0677(10) 0.5197(6) -0.0138(9)
H35 H -0.0514(10) 0.5404(6) -0.0059(9)
C56 C -0.0919(9) 0.5003(6) 0.0161(7)
H36 H -0.0914(9) 0.5074(6) 0.0444(7)
C57 C -0.2330(8) 0.4649(5) 0.1188(6)
H37 H -0.2264(8) 0.4890(5) 0.1218(6)
H38 H -0.2225(8) 0.4536(5) 0.1453(6)
H39 H -0.2707(8) 0.4611(5) 0.1117(6)
C58 C -0.4182(7) 0.3655(5) 0.1117(6)
C59 C -0.4345(8) 0.4020(5) 0.0439(6)
C60 C -0.4934(7) 0.3633(5) 0.0598(6)
C61 C -0.3898(7) 0.4285(4) 0.0424(6)
H40 H -0.3950(7) 0.4418(4) 0.0166(6)
H41 H -0.3554(7) 0.4172(4) 0.0429(6)
H42 H -0.3907(7) 0.4434(4) 0.0668(6)
C62 C -0.5543(6) 0.3718(4) -0.0058(5)
C63 C -0.5770(7) 0.3404(4) -0.0087(5)
H43 H -0.5631(7) 0.3228(4) 0.0088(5)
C64 C -0.6205(8) 0.3340(5) -0.0371(6)
H44 H -0.6351(8) 0.3121(5) -0.0393(6)
C65 C -0.6420(7) 0.3598(5) -0.0618(6)
H45 H -0.6716(7) 0.3559(5) -0.0809(6)
C66 C -0.6193(8) 0.3916(5) -0.0580(6)
H46 H -0.6340(8) 0.4096(5) -0.0745(6)
C67 C -0.5753(8) 0.3976(4) -0.0304(6)
H47 H -0.5600(8) 0.4193(4) -0.0286(6)
C68 C -0.2765(7) 0.3957(5) 0.2273(6)
C69 C -0.3035(7) 0.4189(5) 0.2500(6)
C70 C -0.3410(8) 0.4459(5) 0.2397(7)
C71 C -0.3597(9) 0.4596(6) 0.1940(7)
H48 H -0.3851(9) 0.4779(6) 0.1966(7)
H49 H -0.3764(9) 0.4414(6) 0.1774(7)
H50 H -0.3289(9) 0.4679(6) 0.1801(7)
C72 C -0.2960(8) 0.4216(5) 0.2944(7)
C73 C -0.3410(8) 0.4581(5) 0.3501(6)
C74 C -0.3046(7) 0.4525(5) 0.3829(7)
H51 H -0.2717(7) 0.4420(5) 0.3788(7)
C75 C -0.3178(9) 0.4629(6) 0.4236(7)
H52 H -0.2938(9) 0.4595(6) 0.4473(7)
C76 C -0.3896(8) 0.4727(5) 0.3547(6)
H53 H -0.4144(8) 0.4750(5) 0.3313(6)
C77 C -0.4017(8) 0.4839(6) 0.3945(7)
H54 H -0.4340(8) 0.4953(6) 0.3983(7)
C78 C -0.3660(9) 0.4782(6) 0.4278(7)
H55 H -0.3749(9) 0.4850(6) 0.4550(7)
C79 C -0.3412(7) 0.3011(4) -0.0154(5)
C80 C -0.3823(7) 0.3030(5) 0.0127(6)
H56 H -0.3914(7) 0.3243(5) 0.0236(6)
C81 C -0.4107(7) 0.2736(5) 0.0253(6)
C82 C -0.3959(7) 0.2424(5) 0.0092(6)
H57 H -0.4144(7) 0.2228(5) 0.0167(6)
C83 C -0.3537(7) 0.2394(5) -0.0182(6)
C84 C -0.3258(7) 0.2681(5) -0.0301(6)
H58 H -0.2972(7) 0.2659(5) -0.0476(6)
C85 C -0.3079(8) 0.3308(5) -0.0240(6)
C86 C -0.3291(7) 0.3622(5) -0.0366(6)
C87 C -0.2985(8) 0.3918(5) -0.0396(6)
C88 C -0.3279(7) 0.4160(4) -0.0583(5)
C89 C -0.4298(8) 0.3499(5) -0.0658(6)
H59 H -0.4590(8) 0.3633(5) -0.0786(6)
H60 H -0.4406(8) 0.3399(5) -0.0396(6)
H61 H -0.4207(8) 0.3321(5) -0.0851(6)
C90 C -0.3141(7) 0.4486(4) -0.0705(6)
C91 C -0.2756(8) 0.4664(5) -0.0456(6)
H62 H -0.2607(8) 0.4569(5) -0.0203(6)
C92 C -0.2593(8) 0.4987(5) -0.0585(7)
H63 H -0.2322(8) 0.5104(5) -0.0427(7)
C93 C -0.2841(9) 0.5132(5) -0.0955(7)
H64 H -0.2739(9) 0.5349(5) -0.1039(7)
C94 C -0.3233(8) 0.4959(5) -0.1196(6)
H65 H -0.3390(8) 0.5056(5) -0.1445(6)
C95 C -0.3395(8) 0.4634(5) -0.1066(6)
H66 H -0.3670(8) 0.4518(5) -0.1221(6)
C96 C -0.4544(7) 0.2774(4) 0.0541(6)
C97 C -0.5065(7) 0.2655(4) 0.0431(6)
C98 C -0.5338(8) 0.2533(5) 0.0031(6)
C99 C -0.5138(9) 0.2487(6) -0.0413(7)
H67 H -0.5425(9) 0.2401(6) -0.0603(7)
H68 H -0.4842(9) 0.2328(6) -0.0400(7)
H69 H -0.5019(9) 0.2704(6) -0.0516(7)
C100 C -0.5476(8) 0.2659(5) 0.0711(6)
C101 C -0.6471(6) 0.2516(4) 0.0618(5)
C102 C -0.6902(7) 0.2573(4) 0.0336(5)
H70 H -0.6847(7) 0.2647(4) 0.0060(5)
C103 C -0.7422(7) 0.2520(5) 0.0456(6)
H71 H -0.7715(7) 0.2564(5) 0.0264(6)
C104 C -0.7502(8) 0.2405(5) 0.0855(7)
H72 H -0.7851(8) 0.2372(5) 0.0937(7)
C105 C -0.7069(9) 0.2338(6) 0.1141(7)
H73 H -0.7128(9) 0.2253(6) 0.1412(7)
C106 C -0.6546(8) 0.2398(5) 0.1025(6)
H74 H -0.6252(8) 0.2358(5) 0.1219(6)
C107 C -0.3373(8) 0.2051(5) -0.0355(7)
C108 C -0.3414(8) 0.1973(5) -0.0772(6)
C109 C -0.3692(8) 0.2141(5) -0.1133(7)
C110 C -0.3989(8) 0.2472(5) -0.1162(7)
H75 H -0.4130(8) 0.2508(5) -0.1451(7)
H76 H -0.3747(8) 0.2655(5) -0.1078(7)
H77 H -0.4281(8) 0.2467(5) -0.0975(7)
C111 C -0.3233(9) 0.1658(6) -0.0947(8)
C112 C -0.3336(8) 0.1396(5) -0.1667(6)
C113 C -0.3281(9) 0.1492(5) -0.2082(7)
H78 H -0.3266(9) 0.1722(5) -0.2154(7)
C114 C -0.3247(11) 0.1242(7) -0.2393(7)
H79 H -0.3215(11) 0.1304(7) -0.2677(7)
C115 C -0.3261(10) 0.0904(6) -0.2280(8)
H80 H -0.3229(10) 0.0738(6) -0.2489(8)
C116 C -0.3322(10) 0.0806(6) -0.1865(9)
H81 H -0.3341(10) 0.0575(6) -0.1791(9)
C117 C -0.3356(9) 0.1061(6) -0.1557(7)
H82 H -0.3393(9) 0.1000(6) -0.1273(7)
C118 C -0.1193(8) 0.2659(5) -0.0021(6)
C119 C -0.1453(8) 0.2374(5) -0.0170(6)
H83 H -0.1709(8) 0.2393(5) -0.0399(6)
C120 C -0.1346(8) 0.2047(5) 0.0013(6)
C121 C -0.0947(7) 0.2023(5) 0.0339(6)
H84 H -0.0853(7) 0.1811(5) 0.0456(6)
C122 C -0.0689(7) 0.2314(5) 0.0490(6)
C123 C -0.0801(7) 0.2625(5) 0.0315(6)
H85 H -0.0614(7) 0.2817(5) 0.0419(6)
C124 C -0.1348(7) 0.3000(5) -0.0205(6)
C125 C -0.1058(8) 0.2904(5) -0.0967(7)
C126 C -0.1317(7) 0.3066(5) -0.0638(6)
C127 C -0.0799(8) 0.2568(5) -0.0968(7)
H86 H -0.0656(8) 0.2529(5) -0.1241(7)
H87 H -0.1061(8) 0.2395(5) -0.0915(7)
H88 H -0.0512(8) 0.2561(5) -0.0748(7)
C128 C -0.1482(7) 0.3387(5) -0.0810(6)
C129 C -0.1354(7) 0.3659(4) -0.1520(5)
C130 C -0.1231(7) 0.3582(4) -0.1941(6)
H89 H -0.1149(7) 0.3359(4) -0.2018(6)
C131 C -0.1234(8) 0.3848(5) -0.2244(6)
H90 H -0.1152(8) 0.3801(5) -0.2524(6)
C132 C -0.1359(8) 0.4182(5) -0.2129(6)
H91 H -0.1348(8) 0.4357(5) -0.2330(6)
C133 C -0.1501(7) 0.4256(4) -0.1713(6)
H92 H -0.1594(7) 0.4478(4) -0.1638(6)
C134 C -0.1501(7) 0.3991(4) -0.1412(5)
H93 H -0.1600(7) 0.4037(4) -0.1136(5)
C135 C 0.0247(7) 0.2400(4) 0.0849(6)
C136 C -0.0262(8) 0.2278(5) 0.0859(7)
C137 C 0.0548(9) 0.2556(5) 0.0523(7)
C138 C 0.0415(8) 0.2553(5) 0.0058(6)
H94 H 0.0687(8) 0.2676(5) -0.0083(6)
H95 H 0.0071(8) 0.2661(5) -0.0003(6)
H96 H 0.0399(8) 0.2321(5) -0.0043(6)
C139 C 0.0598(8) 0.2439(5) 0.1228(7)
C140 C 0.1455(7) 0.2765(5) 0.1372(6)
C141 C 0.1647(8) 0.2608(5) 0.1754(6)
H97 H 0.1507(8) 0.2398(5) 0.1835(6)
C142 C 0.2051(9) 0.2768(6) 0.2011(6)
H98 H 0.2188(9) 0.2663(6) 0.2262(6)
C143 C 0.2249(8) 0.3086(6) 0.1892(7)
H99 H 0.2516(8) 0.3193(6) 0.2066(7)
C144 C 0.2053(9) 0.3241(5) 0.1518(7)
H100 H 0.2192(9) 0.3451(5) 0.1438(7)
C145 C 0.1648(8) 0.3083(5) 0.1262(6)
H101 H 0.1507(8) 0.3191(5) 0.1015(6)
C146 C -0.1646(9) 0.1735(5) -0.0132(6)
C147 C -0.1418(8) 0.1418(6) -0.0197(6)
C148 C -0.0863(11) 0.1310(7) -0.0256(8)
C149 C -0.0357(10) 0.1518(6) -0.0276(8)
H102 H -0.0058(10) 0.1368(6) -0.0317(8)
H103 H -0.0292(10) 0.1642(6) -0.0013(8)
H104 H -0.0398(10) 0.1676(6) -0.0511(8)
C150 C -0.1703(10) 0.1127(6) -0.0264(7)
C151 C -0.1506(13) 0.0498(6) -0.0428(10)
C152 C -0.1190(12) 0.0346(10) -0.0717(11)
H105 H -0.0894(12) 0.0459(10) -0.0818(11)
C153 C -0.1921(12) 0.0336(9) -0.0262(8)
H106 H -0.2122(12) 0.0445(9) -0.0061(8)
C154 C -0.1739(16) -0.0147(7) -0.0683(11)
H107 H -0.1810(16) -0.0371(7) -0.0766(11)
C155 C -0.1328(16) 0.0020(11) -0.0854(10)
H108 H -0.1138(16) -0.0084(11) -0.1065(10)
C156 C -0.2051(12) 0.0001(9) -0.0394(11)
H109 H -0.2340(12) -0.0116(9) -0.0287(11)
C157 C -0.4238(7) 0.2799(5) 0.2448(6)
C158 C -0.4172(7) 0.2441(5) 0.2478(6)
H110 H -0.4389(7) 0.2294(5) 0.2308(6)
C159 C -0.3777(7) 0.2312(5) 0.2767(6)
C160 C -0.3426(7) 0.2528(5) 0.3001(6)
H111 H -0.3149(7) 0.2435(5) 0.3180(6)
C161 C -0.3482(7) 0.2870(5) 0.2973(6)
C162 C -0.3903(7) 0.3011(5) 0.2681(5)
H112 H -0.3943(7) 0.3247(5) 0.2654(5)
C163 C -0.4676(7) 0.2945(5) 0.2140(6)
C164 C -0.5075(7) 0.3157(5) 0.2293(6)
C165 C -0.5223(8) 0.3230(5) 0.2721(7)
C166 C -0.4994(8) 0.3099(5) 0.3146(6)
H113 H -0.5187(8) 0.3199(5) 0.3371(6)
H114 H -0.4619(8) 0.3159(5) 0.3184(6)
H115 H -0.5031(8) 0.2854(5) 0.3154(6)
C167 C -0.5438(7) 0.3338(5) 0.2023(6)
C168 C -0.6510(6) 0.3697(4) 0.1799(5)
H116 H -0.6445(6) 0.3524(4) 0.1605(5)
C169 C -0.6929(7) 0.3926(4) 0.1712(5)
H117 H -0.7153(7) 0.3899(4) 0.1465(5)
C170 C -0.7018(7) 0.4193(5) 0.1988(6)
H118 H -0.7293(7) 0.4350(5) 0.1923(6)
C171 C -0.6691(8) 0.4223(5) 0.2366(6)
H119 H -0.6748(8) 0.4400(5) 0.2558(6)
C172 C -0.6277(7) 0.3986(5) 0.2453(6)
H120 H -0.6058(7) 0.4006(5) 0.2704(6)
C173 C -0.6189(6) 0.3724(4) 0.2173(5)
C174 C -0.3688(8) 0.1938(5) 0.2799(6)
C175 C -0.4059(7) 0.1690(5) 0.2916(6)
C176 C -0.4590(8) 0.1720(6) 0.3064(6)
C177 C -0.4948(8) 0.2026(5) 0.3081(7)
H121 H -0.5281(8) 0.1962(5) 0.3199(7)
H122 H -0.5022(8) 0.2115(5) 0.2798(7)
H123 H -0.4772(8) 0.2198(5) 0.3259(7)
C178 C -0.3926(8) 0.1339(5) 0.2986(6)
C179 C -0.4427(7) 0.0857(4) 0.3282(6)
C180 C -0.4924(8) 0.0703(5) 0.3214(6)
H124 H -0.5208(8) 0.0819(5) 0.3070(6)
C181 C -0.4996(8) 0.0376(5) 0.3362(7)
H125 H -0.5328(8) 0.0267(5) 0.3314(7)
C182 C -0.4575(8) 0.0212(5) 0.3579(7)
H126 H -0.4628(8) -0.0009(5) 0.3681(7)
C183 C -0.4082(8) 0.0360(5) 0.3650(6)
H127 H -0.3803(8) 0.0246(5) 0.3803(6)
C184 C -0.4002(7) 0.0688(5) 0.3488(6)
H128 H -0.3664(7) 0.0791(5) 0.3520(6)
C185 C -0.3095(7) 0.3117(5) 0.3176(6)
C186 C -0.3077(8) 0.2889(5) 0.3954(7)
C187 C -0.2904(7) 0.3082(5) 0.3610(6)
C188 C -0.3527(8) 0.2646(5) 0.3992(7)
H129 H -0.3524(8) 0.2564(5) 0.4282(7)
H130 H -0.3485(8) 0.2457(5) 0.3802(7)
H131 H -0.3863(8) 0.2760(5) 0.3919(7)
C189 C -0.2478(8) 0.3299(5) 0.3783(6)
C190 C -0.2101(9) 0.3405(7) 0.4522(7)
C191 C -0.2003(8) 0.3244(5) 0.4905(7)
H132 H -0.2143(8) 0.3028(5) 0.4950(7)
C192 C -0.1690(9) 0.3407(6) 0.5230(7)
H133 H -0.1540(9) 0.3283(6) 0.5462(7)
C193 C -0.1605(12) 0.3761(8) 0.5203(10)
H134 H -0.1430(12) 0.3876(8) 0.5432(10)
C194 C -0.1780(13) 0.3942(7) 0.4835(11)
H135 H -0.1728(13) 0.4178(7) 0.4819(11)
C195 C -0.2036(11) 0.3764(7) 0.4492(9)
H136 H -0.2162(11) 0.3880(7) 0.4246(9)
C196 C -0.2029(7) 0.1161(4) 0.1882(6)
C197 C -0.2355(8) 0.1150(4) 0.1511(6)
H137 H -0.2720(8) 0.1100(4) 0.1527(6)
C198 C -0.2163(8) 0.1209(5) 0.1118(7)
C199 C -0.1613(7) 0.1295(4) 0.1095(6)
H138 H -0.1480(7) 0.1346(4) 0.0831(6)
C200 C -0.1272(7) 0.1306(4) 0.1460(6)
C201 C -0.1475(7) 0.1238(4) 0.1857(6)
H139 H -0.1247(7) 0.1244(4) 0.2104(6)
C202 C -0.2216(8) 0.1104(5) 0.2298(6)
C203 C -0.1988(7) 0.0872(4) 0.2616(6)
C204 C -0.1610(8) 0.0607(5) 0.2585(7)
C205 C -0.1311(8) 0.0484(5) 0.2193(6)
H140 H -0.1079(8) 0.0295(5) 0.2276(6)
H141 H -0.1098(8) 0.0668(5) 0.2090(6)
H142 H -0.1570(8) 0.0411(5) 0.1970(6)
C206 C -0.2134(8) 0.0846(5) 0.3028(6)
C207 C -0.1843(6) 0.0475(4) 0.3632(5)
C208 C -0.2267(6) 0.0548(4) 0.3887(5)
H143 H -0.2555(6) 0.0680(4) 0.3776(5)
C209 C -0.2268(7) 0.0426(4) 0.4308(5)
H144 H -0.2552(7) 0.0479(4) 0.4476(5)
C210 C -0.1836(7) 0.0222(5) 0.4472(5)
H145 H -0.1836(7) 0.0137(5) 0.4750(5)
C211 C -0.1405(7) 0.0146(4) 0.4220(5)
H146 H -0.1118(7) 0.0013(4) 0.4330(5)
C212 C -0.1410(6) 0.0273(4) 0.3801(5)
H147 H -0.1124(6) 0.0223(4) 0.3632(5)
C213 C -0.0709(7) 0.1407(5) 0.1441(6)
C214 C -0.0376(8) 0.1280(5) 0.1121(6)
C215 C -0.0414(9) 0.1005(6) 0.0820(7)
C216 C -0.0875(8) 0.0741(5) 0.0764(7)
H148 H -0.0800(8) 0.0584(5) 0.0539(7)
H149 H -0.1209(8) 0.0857(5) 0.0691(7)
H150 H -0.0902(8) 0.0617(5) 0.1026(7)
C217 C 0.0131(8) 0.1423(6) 0.1067(7)
C218 C 0.0788(9) 0.1306(7) 0.0524(7)
C219 C 0.0986(9) 0.1638(5) 0.0456(7)
H151 H 0.0836(9) 0.1823(5) 0.0594(7)
C220 C 0.1402(11) 0.1695(7) 0.0186(9)
H152 H 0.1521(11) 0.1917(7) 0.0136(9)
C221 C 0.1641(13) 0.1412(10) -0.0012(11)
H153 H 0.1926(13) 0.1446(10) -0.0186(11)
C222 C 0.1449(15) 0.1081(9) 0.0055(12)
H154 H 0.1602(15) 0.0896(9) -0.0079(12)
C223 C 0.1021(13) 0.1027(7) 0.0325(10)
H155 H 0.0895(13) 0.0807(7) 0.0370(10)
C224 C -0.2497(8) 0.1190(5) 0.0709(7)
C225 C -0.2787(8) 0.0885(5) 0.0603(7)
C226 C -0.2766(9) 0.0544(6) 0.0775(7)
C227 C -0.2434(8) 0.0407(5) 0.1166(7)
H156 H -0.2508(8) 0.0168(5) 0.1200(7)
H157 H -0.2528(8) 0.0529(5) 0.1416(7)
H158 H -0.2057(8) 0.0438(5) 0.1126(7)
C228 C -0.3136(9) 0.0873(6) 0.0221(8)
C229 C -0.3578(13) 0.0348(9) -0.0180(11)
C230 C -0.3427(12) 0.0437(8) -0.0598(15)
H159 H -0.3184(12) 0.0615(8) -0.0631(15)
C231 C -0.3648(19) 0.0252(13) -0.0975(11)
H160 H -0.3550(19) 0.0309(13) -0.1248(11)
C232 C -0.4024(19) -0.0022(12) -0.0911(16)
H161 H -0.4167(19) -0.0145(12) -0.1146(16)
C233 C -0.4181(16) -0.0108(10) -0.0492(20)
H162 H -0.4432(16) -0.0281(10) -0.0461(20)
C234 C -0.3955(18) 0.0073(12) -0.0113(13)
H163 H -0.4049(18) 0.0013(12) 0.0160(13)
C235 C -0.1650(7) 0.2205(5) 0.3073(6)
C236 C -0.1706(7) 0.2547(4) 0.3092(5)
H164 H -0.2004(7) 0.2637(4) 0.3218(5)
C237 C -0.1338(7) 0.2770(5) 0.2932(6)
C238 C -0.0910(7) 0.2629(5) 0.2724(6)
H165 H -0.0665(7) 0.2775(5) 0.2606(6)
C239 C -0.0838(7) 0.2283(5) 0.2687(5)
C240 C -0.1203(7) 0.2072(5) 0.2864(6)
H166 H -0.1158(7) 0.1837(5) 0.2848(6)
C241 C -0.2056(7) 0.1962(5) 0.3243(6)
C242 C -0.2116(8) 0.2202(5) 0.3997(7)
C243 C -0.2279(7) 0.2003(4) 0.3640(6)
C244 C -0.1684(8) 0.2458(5) 0.4081(6)
H167 H -0.1694(8) 0.2542(5) 0.4368(6)
H168 H -0.1738(8) 0.2645(5) 0.3884(6)
H169 H -0.1340(8) 0.2354(5) 0.4044(6)
C245 C -0.2673(8) 0.1774(5) 0.3742(6)
C246 C -0.3082(7) 0.1653(4) 0.4443(5)
C247 C -0.3156(7) 0.1306(4) 0.4404(5)
H170 H -0.2995(7) 0.1190(4) 0.4186(5)
C248 C -0.3461(7) 0.1128(4) 0.4678(6)
H171 H -0.3507(7) 0.0893(4) 0.4649(6)
C249 C -0.3700(7) 0.1305(5) 0.4999(6)
H172 H -0.3911(7) 0.1187(5) 0.5186(6)
C250 C -0.3628(7) 0.1651(5) 0.5044(6)
H173 H -0.3790(7) 0.1767(5) 0.5262(6)
C251 C -0.3313(7) 0.1830(4) 0.4765(6)
H174 H -0.3259(7) 0.2065(4) 0.4796(6)
C252 C -0.1445(8) 0.3136(5) 0.2974(6)
C253 C -0.1080(9) 0.3362(5) 0.3151(7)
C254 C -0.0570(11) 0.3341(7) 0.3379(9)
C255 C -0.0207(9) 0.3015(6) 0.3485(8)
H175 H 0.0117(9) 0.3083(6) 0.3646(8)
H176 H -0.0116(9) 0.2908(6) 0.3223(8)
H177 H -0.0403(9) 0.2856(6) 0.3650(8)
C256 C -0.1216(10) 0.3713(6) 0.3189(7)
C257 C -0.0679(16) 0.4232(7) 0.3495(9)
C258 C -0.1088(12) 0.4421(10) 0.3671(11)
H178 H -0.1422(12) 0.4321(10) 0.3709(11)
C259 C -0.0987(16) 0.4769(10) 0.3792(10)
H179 H -0.1249(16) 0.4896(10) 0.3922(10)
C260 C -0.0497(18) 0.4915(7) 0.3714(11)
H180 H -0.0438(18) 0.5145(7) 0.3776(11)
C261 C -0.0081(13) 0.4722(11) 0.3542(11)
H181 H 0.0252(13) 0.4821(11) 0.3503(11)
C262 C -0.0178(14) 0.4378(10) 0.3429(10)
H182 H 0.0090(14) 0.4249(10) 0.3310(10)
C263 C -0.0375(8) 0.2137(5) 0.2475(7)
C264 C 0.0009(7) 0.1936(5) 0.2701(6)
C265 C 0.0104(8) 0.1851(5) 0.3154(6)
C266 C -0.0215(8) 0.1984(5) 0.3519(6)
H183 H -0.0069(8) 0.1890(5) 0.3785(6)
H184 H -0.0587(8) 0.1917(5) 0.3472(6)
H185 H -0.0192(8) 0.2229(5) 0.3529(6)
C267 C 0.0433(8) 0.1773(5) 0.2510(7)
C268 C 0.1225(7) 0.1447(5) 0.2828(6)
C269 C 0.1383(7) 0.1227(4) 0.3170(5)
H186 H 0.1159(7) 0.1193(4) 0.3393(5)
C270 C 0.1882(8) 0.1059(5) 0.3168(6)
H187 H 0.1982(8) 0.0904(5) 0.3384(6)
C271 C 0.2232(8) 0.1123(5) 0.2845(6)
H188 H 0.2568(8) 0.1018(5) 0.2855(6)
C272 C 0.2079(8) 0.1348(5) 0.2504(6)
H189 H 0.2310(8) 0.1390(5) 0.2288(6)
C273 C 0.1571(8) 0.1508(5) 0.2499(6)
H190 H 0.1463(8) 0.1655(5) 0.2275(6)
O1 O 0.4655(7) 0.5229(4) 0.8928(5)
N1 N 0.5341(7) 0.5082(4) 0.9399(5)
C1 C 0.5834(8) 0.5178(5) 0.9642(7)
H1 H 0.5970(8) 0.4985(5) 0.9805(7)
H2 H 0.5761(8) 0.5362(5) 0.9832(7)
H3 H 0.6098(8) 0.5250(5) 0.9450(7)
C2 C 0.5166(9) 0.4730(6) 0.9469(7)
H4 H 0.5423(9) 0.4617(6) 0.9664(7)
H5 H 0.5141(9) 0.4609(6) 0.9201(7)
H6 H 0.4819(9) 0.4731(6) 0.9588(7)
C3 C 0.5063(9) 0.5301(6) 0.9141(7)
H7 H 0.5192(9) 0.5524(6) 0.9124(7)
O53? O 0.3386(12) 0.0596(8) 0.7117(10)
O54? O 0.8029(15) 0.2998(10) 0.7175(13)
O55? O 0.1833(16) 0.4117(10) 0.1159(13)
O56? O 0.5065(27) 0.1234(18) 0.7543(21)
O57? O 0.5548(22) 0.2227(15) 0.7664(19)
O58? O 0.5279(20) 0.1699(14) 0.6001(16)
N48? N 0.3034(15) 0.0103(11) 0.7544(13)
N49? N 0.8444(21) 0.2698(13) 0.7463(15)
N50? N 0.0781(18) 0.3844(11) 0.6882(13)
N51? N 0.1298(23) 0.4432(14) 0.1463(18)
N52? N 0.5408(14) 0.1756(11) 0.7343(13)
N53? N -0.5024(21) 0.5038(14) 0.4733(15)
N54? N 0.0365(22) 0.3625(15) 0.4731(17)
C274? C 0.3224(17) 0.0446(12) 0.7451(15)
C275? C 0.8612(19) 0.2354(12) 0.7179(17)
C276? C 0.8573(25) 0.2507(17) 0.7554(21)
C277? C 0.8084(24) 0.2839(15) 0.7497(18)
C278? C 0.1121(14) 0.3603(9) 0.6784(11)
C279? C 0.0275(17) 0.3836(11) 0.7028(13)
C280? C 0.1520(19) 0.4786(12) 0.1762(15)
C281? C 0.1447(21) 0.4138(15) 0.1366(17)
C282? C 0.5450(31) 0.1331(22) 0.5917(24)
C283? C 0.4148(19) 0.1438(12) 0.6009(15)
C284? C -0.5148(19) 0.5087(12) 0.4207(15)
C285? C 0.2290(24) 0.5062(15) 0.2671(19)
C286? C 0.2681(30) 0.5101(18) 0.2422(23)
C287? C 0.1218(16) 0.3367(10) 0.5789(13)
C288? C -0.3496(18) 0.2198(12) 0.1486(15)
C289? C 0.0489(13) 0.3266(9) 0.4673(11)
C290? C -0.0201(26) 0.3619(16) 0.4544(20)
C291? C 0.0105(30) 0.4017(21) 0.4692(24)
C292? C 0.4649(16) 0.2067(11) 0.6601(13)
C293? C -0.0180(20) -0.0234(13) 0.2869(17)
C294? C -0.4877(27) 0.4616(18) 0.4796(22)
C295? C 0.5588(18) 0.2035(13) 0.7421(15)
C296? C 0.5313(19) 0.1506(14) 0.7557(16)
C297? C 0.0876(29) 0.4356(17) 0.1649(22)
C298? C 0.5264(28) 0.1746(17) 0.6925(24)
O59? O 0.5547(21) 0.4334(13) 0.6521(16)
N55? N 0.5658(23) 0.4701(15) 0.6989(18)
C299? C 0.5232(36) 0.4475(23) 0.6708(29)
C300? C 0.6183(30) 0.4471(19) 0.7331(24)
C301? C 0.5433(24) 0.5166(16) 0.6807(19)
loop_
_geom_bond_atom_site_label_1
_geom_bond_atom_site_label_2
_geom_bond_site_symmetry_1
_geom_bond_site_symmetry_2
O1 C3 1_555 1_555
N1 C1 1_555 1_555
C1 H1 1_555 1_555
H2 C1 1_555 1_555
H3 C1 1_555 1_555
C2 N1 1_555 1_555
H4 C2 1_555 1_555
H5 C2 1_555 1_555
H6 C2 1_555 1_555
C3 N1 1_555 1_555
H7 C3 1_555 1_555
O2 C6 1_555 1_555
N2 C4 1_555 1_555
C4 H8 1_555 1_555
H9 C4 1_555 1_555
H10 C4 1_555 1_555
C5 N2 1_555 1_555
H11 C5 1_555 1_555
H12 C5 1_555 1_555
H13 C5 1_555 1_555
C6 N2 1_555 1_555
H14 C6 1_555 1_555
O3 C8 1_555 1_555
N3 C7 1_555 1_555
C7 H15 1_555 1_555
H16 C7 1_555 1_555
H17 C7 1_555 1_555
C8 N3 1_555 1_555
H18 C8 1_555 1_555
C9 N3 1_555 1_555
H19 C9 1_555 1_555
H20 C9 1_555 1_555
H21 C9 1_555 1_555
O4 C10 1_555 1_555
N4 C10 1_555 1_555
C10 H22 1_555 1_555
C11 N4 1_555 1_555
H23 C11 1_555 1_555
H24 C11 1_555 1_555
H25 C11 1_555 1_555
C12 N4 1_555 1_555
H26 C12 1_555 1_555
H27 C12 1_555 1_555
H28 C12 1_555 1_555
O5 C13 1_555 1_555
N5 C13 1_555 1_555
C14 N5 1_555 1_555
C15 N5 1_555 1_555
O6 C18 1_555 1_555
N6 C16 1_555 1_555
C17 N6 1_555 1_555
C18 N6 1_555 1_555
O7 C21 1_555 1_555
N7 C19 1_555 1_555
C20 N7 1_555 1_555
C21 N7 1_555 1_555
O8 C24 1_555 1_555
N8 C22 1_555 1_555
C23 N8 1_555 1_555
C24 N8 1_555 1_555
O9 C27 1_555 1_555
N9 C25 1_555 1_555
C26 N9 1_555 1_555
C27 N9 1_555 1_555
O10 C28 1_555 1_555
N10 C28 1_555 1_555
C29 N10 1_555 1_555
C30 N10 1_555 1_555
O11 C31 1_555 1_555
N11 C31 1_555 1_555
C32 N11 1_555 1_555
C33 N11 1_555 1_555
C34 C37 1_555 1_555
C35 C36 1_555 1_555
C36 C37 1_555 1_555
C38 C34 1_555 1_555
Ga1 O17 1_555 1_555
Ga2 O19 1_555 1_555
Ga3 O37 1_555 1_555
Ga4 O21 1_555 1_555
Ga5 O31 1_555 1_555
Ga6 O27 1_555 1_555
O17 C50 1_555 1_555
O18 Ga1 1_555 1_555
O19 C58 1_555 1_555
O20 Ga2 1_555 1_555
O21 C72 1_555 1_555
O22 Ga4 1_555 1_555
O23 Ga1 1_555 1_555
O24 Ga1 1_555 1_555
O25 Ga2 1_555 1_555
O26 Ga2 1_555 1_555
O27 C111 1_555 1_555
O28 Ga6 1_555 1_555
O29 Ga1 1_555 1_555
O30 Ga1 1_555 1_555
O31 C139 1_555 1_555
O32 Ga5 1_555 1_555
O33 Ga6 1_555 1_555
O34 Ga6 1_555 1_555
O35 Ga2 1_555 1_555
O36 Ga2 1_555 1_555
O37 C178 1_555 1_555
O38 Ga3 1_555 1_555
O39 Ga4 1_555 1_555
O40 Ga4 1_555 1_555
O41 Ga3 1_555 1_555
O42 Ga3 1_555 1_555
O43 Ga5 1_555 1_555
O44 Ga5 1_555 1_555
O45 Ga6 1_555 1_555
O46 Ga6 1_555 1_555
O47 Ga3 1_555 1_555
O48 Ga3 1_555 1_555
O49 Ga4 1_555 1_555
O50 Ga4 1_555 1_555
O51 Ga5 1_555 1_555
O52 Ga5 1_555 1_555
N12 N13 1_555 1_555
N13 C48 1_555 1_555
N14 N15 1_555 1_555
N15 C60 1_555 1_555
N16 N17 1_555 1_555
N17 C72 1_555 1_555
N18 N19 1_555 1_555
N19 C88 1_555 1_555
N20 N21 1_555 1_555
N21 C98 1_555 1_555
N22 N23 1_555 1_555
N23 C111 1_555 1_555
N24 N25 1_555 1_555
N25 C125 1_555 1_555
N26 N27 1_555 1_555
N27 C137 1_555 1_555
N28 N29 1_555 1_555
N29 C148 1_555 1_555
N30 N31 1_555 1_555
N31 C165 1_555 1_555
N32 N33 1_555 1_555
N33 C176 1_555 1_555
N34 N35 1_555 1_555
N35 C186 1_555 1_555
N36 N37 1_555 1_555
N37 C204 1_555 1_555
N38 N39 1_555 1_555
N39 C215 1_555 1_555
N40 N41 1_555 1_555
N41 C226 1_555 1_555
N42 N43 1_555 1_555
N43 C242 1_555 1_555
N44 N45 1_555 1_555
N45 C254 1_555 1_555
N46 N47 1_555 1_555
N47 C265 1_555 1_555
C40 C41 1_555 1_555
C41 H29 1_555 1_555
C42 C41 1_555 1_555
C43 C42 1_555 1_555
H30 C43 1_555 1_555
C44 C43 1_555 1_555
C45 C40 1_555 1_555
H31 C45 1_555 1_555
C46 O18 1_555 1_555
C47 C46 1_555 1_555
C48 C47 1_555 1_555
C49 N12 1_555 1_555
C50 N12 1_555 1_555
C51 C58 1_555 1_555
C52 C49 1_555 1_555
H32 C52 1_555 1_555
C53 C52 1_555 1_555
H33 C53 1_555 1_555
C54 C53 1_555 1_555
H34 C54 1_555 1_555
C55 C54 1_555 1_555
H35 C55 1_555 1_555
C56 C49 1_555 1_555
H36 C56 1_555 1_555
C57 C48 1_555 1_555
H37 C57 1_555 1_555
H38 C57 1_555 1_555
H39 C57 1_555 1_555
C58 C42 1_555 1_555
C59 N14 1_555 1_555
C60 O20 1_555 1_555
C61 C59 1_555 1_555
H40 C61 1_555 1_555
H41 C61 1_555 1_555
H42 C61 1_555 1_555
C62 N15 1_555 1_555
C63 C62 1_555 1_555
H43 C63 1_555 1_555
C64 C63 1_555 1_555
H44 C64 1_555 1_555
C65 C64 1_555 1_555
H45 C65 1_555 1_555
C66 C65 1_555 1_555
H46 C66 1_555 1_555
C67 C62 1_555 1_555
H47 C67 1_555 1_555
C68 O22 1_555 1_555
C69 C68 1_555 1_555
C70 N16 1_555 1_555
C71 C70 1_555 1_555
H48 C71 1_555 1_555
H49 C71 1_555 1_555
H50 C71 1_555 1_555
C72 C69 1_555 1_555
C73 N17 1_555 1_555
C74 C73 1_555 1_555
H51 C74 1_555 1_555
C75 C74 1_555 1_555
H52 C75 1_555 1_555
C76 C73 1_555 1_555
H53 C76 1_555 1_555
C77 C76 1_555 1_555
H54 C77 1_555 1_555
C78 C75 1_555 1_555
H55 C78 1_555 1_555
C79 C80 1_555 1_555
C80 H56 1_555 1_555
C81 C80 1_555 1_555
C82 C81 1_555 1_555
H57 C82 1_555 1_555
C83 C82 1_555 1_555
C84 C79 1_555 1_555
H58 C84 1_555 1_555
C85 O24 1_555 1_555
C86 N18 1_555 1_555
C87 O23 1_555 1_555
C88 C87 1_555 1_555
C89 N18 1_555 1_555
H59 C89 1_555 1_555
H60 C89 1_555 1_555
H61 C89 1_555 1_555
C90 C88 1_555 1_555
C91 C90 1_555 1_555
H62 C91 1_555 1_555
C92 C91 1_555 1_555
H63 C92 1_555 1_555
C93 C92 1_555 1_555
H64 C93 1_555 1_555
C94 C93 1_555 1_555
H65 C94 1_555 1_555
C95 C90 1_555 1_555
H66 C95 1_555 1_555
C96 O25 1_555 1_555
C97 C96 1_555 1_555
C98 C97 1_555 1_555
C99 C98 1_555 1_555
H67 C99 1_555 1_555
H68 C99 1_555 1_555
H69 C99 1_555 1_555
C100 O26 1_555 1_555
C101 N20 1_555 1_555
C102 C101 1_555 1_555
H70 C102 1_555 1_555
C103 C102 1_555 1_555
H71 C103 1_555 1_555
C104 C103 1_555 1_555
H72 C104 1_555 1_555
C105 C104 1_555 1_555
H73 C105 1_555 1_555
C106 C101 1_555 1_555
H74 C106 1_555 1_555
C107 O28 1_555 1_555
C108 C107 1_555 1_555
C109 N22 1_555 1_555
C110 C109 1_555 1_555
H75 C110 1_555 1_555
H76 C110 1_555 1_555
H77 C110 1_555 1_555
C111 C108 1_555 1_555
C112 N23 1_555 1_555
C113 C112 1_555 1_555
H78 C113 1_555 1_555
C114 C113 1_555 1_555
H79 C114 1_555 1_555
C115 C114 1_555 1_555
H80 C115 1_555 1_555
C116 C115 1_555 1_555
H81 C116 1_555 1_555
C117 C112 1_555 1_555
H82 C117 1_555 1_555
C118 C119 1_555 1_555
C119 H83 1_555 1_555
C120 C119 1_555 1_555
C121 C120 1_555 1_555
H84 C121 1_555 1_555
C122 C121 1_555 1_555
C123 C118 1_555 1_555
H85 C123 1_555 1_555
C124 O30 1_555 1_555
C125 C126 1_555 1_555
C126 C124 1_555 1_555
C127 C125 1_555 1_555
H86 C127 1_555 1_555
H87 C127 1_555 1_555
H88 C127 1_555 1_555
C128 O29 1_555 1_555
C129 N24 1_555 1_555
C130 C129 1_555 1_555
H89 C130 1_555 1_555
C131 C130 1_555 1_555
H90 C131 1_555 1_555
C132 C131 1_555 1_555
H91 C132 1_555 1_555
C133 C132 1_555 1_555
H92 C133 1_555 1_555
C134 C129 1_555 1_555
H93 C134 1_555 1_555
C135 C136 1_555 1_555
C136 O32 1_555 1_555
C137 C135 1_555 1_555
C138 C137 1_555 1_555
H94 C138 1_555 1_555
H95 C138 1_555 1_555
H96 C138 1_555 1_555
C139 N26 1_555 1_555
C140 N26 1_555 1_555
C141 C140 1_555 1_555
H97 C141 1_555 1_555
C142 C141 1_555 1_555
H98 C142 1_555 1_555
C143 C142 1_555 1_555
H99 C143 1_555 1_555
C144 C143 1_555 1_555
H100 C144 1_555 1_555
C145 C140 1_555 1_555
H101 C145 1_555 1_555
C146 O34 1_555 1_555
C147 C146 1_555 1_555
C148 C147 1_555 1_555
C149 C148 1_555 1_555
H102 C149 1_555 1_555
H103 C149 1_555 1_555
H104 C149 1_555 1_555
C150 O33 1_555 1_555
C151 N28 1_555 1_555
C152 C151 1_555 1_555
H105 C152 1_555 1_555
C153 C151 1_555 1_555
H106 C153 1_555 1_555
C154 H107 1_555 1_555
C155 C152 1_555 1_555
H108 C155 1_555 1_555
C156 C153 1_555 1_555
H109 C156 1_555 1_555
C157 C158 1_555 1_555
C158 H110 1_555 1_555
C159 C158 1_555 1_555
C160 C159 1_555 1_555
H111 C160 1_555 1_555
C161 C160 1_555 1_555
C162 C157 1_555 1_555
H112 C162 1_555 1_555
C163 O36 1_555 1_555
C164 C163 1_555 1_555
C165 C164 1_555 1_555
C166 C165 1_555 1_555
H113 C166 1_555 1_555
H114 C166 1_555 1_555
H115 C166 1_555 1_555
C167 O35 1_555 1_555
C168 H116 1_555 1_555
C169 C168 1_555 1_555
H117 C169 1_555 1_555
C170 C169 1_555 1_555
H118 C170 1_555 1_555
C171 C170 1_555 1_555
H119 C171 1_555 1_555
C172 C171 1_555 1_555
H120 C172 1_555 1_555
C173 N30 1_555 1_555
C174 O38 1_555 1_555
C175 C174 1_555 1_555
C176 C175 1_555 1_555
C177 C176 1_555 1_555
H121 C177 1_555 1_555
H122 C177 1_555 1_555
H123 C177 1_555 1_555
C178 N32 1_555 1_555
C179 N32 1_555 1_555
C180 C179 1_555 1_555
H124 C180 1_555 1_555
C181 C180 1_555 1_555
H125 C181 1_555 1_555
C182 C181 1_555 1_555
H126 C182 1_555 1_555
C183 C182 1_555 1_555
H127 C183 1_555 1_555
C184 C179 1_555 1_555
H128 C184 1_555 1_555
C185 O40 1_555 1_555
C186 C187 1_555 1_555
C187 C185 1_555 1_555
C188 C186 1_555 1_555
H129 C188 1_555 1_555
H130 C188 1_555 1_555
H131 C188 1_555 1_555
C189 O39 1_555 1_555
C190 N34 1_555 1_555
C191 C190 1_555 1_555
H132 C191 1_555 1_555
C192 C191 1_555 1_555
H133 C192 1_555 1_555
C193 C192 1_555 1_555
H134 C193 1_555 1_555
C194 C193 1_555 1_555
H135 C194 1_555 1_555
C195 C190 1_555 1_555
H136 C195 1_555 1_555
C196 C197 1_555 1_555
C197 H137 1_555 1_555
C198 C197 1_555 1_555
C199 C198 1_555 1_555
H138 C199 1_555 1_555
C200 C199 1_555 1_555
C201 C196 1_555 1_555
H139 C201 1_555 1_555
C202 O42 1_555 1_555
C203 C202 1_555 1_555
C204 C203 1_555 1_555
C205 C204 1_555 1_555
H140 C205 1_555 1_555
H141 C205 1_555 1_555
H142 C205 1_555 1_555
C206 O41 1_555 1_555
C207 N36 1_555 1_555
C208 C207 1_555 1_555
H143 C208 1_555 1_555
C209 C208 1_555 1_555
H144 C209 1_555 1_555
C210 C209 1_555 1_555
H145 C210 1_555 1_555
C211 C210 1_555 1_555
H146 C211 1_555 1_555
C212 C207 1_555 1_555
H147 C212 1_555 1_555
C213 O44 1_555 1_555
C214 C213 1_555 1_555
C215 C214 1_555 1_555
C216 C215 1_555 1_555
H148 C216 1_555 1_555
H149 C216 1_555 1_555
H150 C216 1_555 1_555
C217 O43 1_555 1_555
C218 N38 1_555 1_555
C219 C218 1_555 1_555
H151 C219 1_555 1_555
C220 C219 1_555 1_555
H152 C220 1_555 1_555
C221 C220 1_555 1_555
H153 C221 1_555 1_555
C222 C221 1_555 1_555
H154 C222 1_555 1_555
C223 C218 1_555 1_555
H155 C223 1_555 1_555
C224 O46 1_555 1_555
C225 C224 1_555 1_555
C226 C225 1_555 1_555
C227 C226 1_555 1_555
H156 C227 1_555 1_555
H157 C227 1_555 1_555
H158 C227 1_555 1_555
C228 O45 1_555 1_555
C229 N40 1_555 1_555
C230 C229 1_555 1_555
H159 C230 1_555 1_555
C231 C230 1_555 1_555
H160 C231 1_555 1_555
C232 C231 1_555 1_555
H161 C232 1_555 1_555
C233 C232 1_555 1_555
H162 C233 1_555 1_555
C234 C229 1_555 1_555
H163 C234 1_555 1_555
C235 C236 1_555 1_555
C236 H164 1_555 1_555
C237 C236 1_555 1_555
C238 C237 1_555 1_555
H165 C238 1_555 1_555
C239 C238 1_555 1_555
C240 C235 1_555 1_555
H166 C240 1_555 1_555
C241 O48 1_555 1_555
C242 C243 1_555 1_555
C243 C241 1_555 1_555
C244 C242 1_555 1_555
H167 C244 1_555 1_555
H168 C244 1_555 1_555
H169 C244 1_555 1_555
C245 O47 1_555 1_555
C246 N42 1_555 1_555
C247 C246 1_555 1_555
H170 C247 1_555 1_555
C248 C247 1_555 1_555
H171 C248 1_555 1_555
C249 C248 1_555 1_555
H172 C249 1_555 1_555
C250 C249 1_555 1_555
H173 C250 1_555 1_555
C251 C246 1_555 1_555
H174 C251 1_555 1_555
C252 O50 1_555 1_555
C253 C252 1_555 1_555
C254 C253 1_555 1_555
C255 C254 1_555 1_555
H175 C255 1_555 1_555
H176 C255 1_555 1_555
H177 C255 1_555 1_555
C256 O49 1_555 1_555
C257 N44 1_555 1_555
C258 C257 1_555 1_555
H178 C258 1_555 1_555
C259 C258 1_555 1_555
H179 C259 1_555 1_555
C260 C259 1_555 1_555
H180 C260 1_555 1_555
C261 C260 1_555 1_555
H181 C261 1_555 1_555
C262 C257 1_555 1_555
H182 C262 1_555 1_555
C263 O52 1_555 1_555
C264 C263 1_555 1_555
C265 C264 1_555 1_555
C266 C265 1_555 1_555
H183 C266 1_555 1_555
H184 C266 1_555 1_555
H185 C266 1_555 1_555
C267 O51 1_555 1_555
C268 N46 1_555 1_555
C269 C268 1_555 1_555
H186 C269 1_555 1_555
C270 C269 1_555 1_555
H187 C270 1_555 1_555
C271 C270 1_555 1_555
H188 C271 1_555 1_555
C272 C271 1_555 1_555
H189 C272 1_555 1_555
C273 C268 1_555 1_555
H190 C273 1_555 1_555
N20 C100 1_555 1_555
N24 C128 1_555 1_555
N28 C150 1_555 1_555
N30 C167 1_555 1_555
N34 C189 1_555 1_555
N36 C206 1_555 1_555
N38 C217 1_555 1_555
N40 C228 1_555 1_555
N42 C245 1_555 1_555
N44 C256 1_555 1_555
N46 C267 1_555 1_555
C40 C46 1_555 1_555
C44 C45 1_555 1_555
C44 C68 1_555 1_555
C47 C50 1_555 1_555
C51 C59 1_555 1_555
C51 C60 1_555 1_555
C55 C56 1_555 1_555
C66 C67 1_555 1_555
C69 C70 1_555 1_555
C77 C78 1_555 1_555
C79 C85 1_555 1_555
C81 C96 1_555 1_555
C83 C84 1_555 1_555
C83 C107 1_555 1_555
C85 C86 1_555 1_555
C86 C87 1_555 1_555
C94 C95 1_555 1_555
C97 C100 1_555 1_555
C105 C106 1_555 1_555
C108 C109 1_555 1_555
C116 C117 1_555 1_555
C118 C124 1_555 1_555
C120 C146 1_555 1_555
C122 C123 1_555 1_555
C122 C136 1_555 1_555
C126 C128 1_555 1_555
C133 C134 1_555 1_555
C135 C139 1_555 1_555
C144 C145 1_555 1_555
C147 C150 1_555 1_555
C154 C155 1_555 1_555
C154 C156 1_555 1_555
C157 C163 1_555 1_555
C159 C174 1_555 1_555
C161 C162 1_555 1_555
C161 C185 1_555 1_555
C164 C167 1_555 1_555
C168 C173 1_555 1_555
C172 C173 1_555 1_555
C175 C178 1_555 1_555
C183 C184 1_555 1_555
C187 C189 1_555 1_555
C194 C195 1_555 1_555
C196 C202 1_555 1_555
C198 C224 1_555 1_555
C200 C201 1_555 1_555
C200 C213 1_555 1_555
C203 C206 1_555 1_555
C211 C212 1_555 1_555
C214 C217 1_555 1_555
C222 C223 1_555 1_555
C225 C228 1_555 1_555
C233 C234 1_555 1_555
C235 C241 1_555 1_555
C237 C252 1_555 1_555
C239 C240 1_555 1_555
C239 C263 1_555 1_555
C243 C245 1_555 1_555
C250 C251 1_555 1_555
C253 C256 1_555 1_555
C261 C262 1_555 1_555
C264 C267 1_555 1_555
C272 C273 1_555 1_555

#END
