# generated using pymatgen
data_Ga6H190C301N55O59
_symmetry_space_group_name_H-M   'P 1'
_cell_length_a   24.81780000
_cell_length_b   31.30240000
_cell_length_c   39.05540000
_cell_angle_alpha   90.00000000
_cell_angle_beta   90.00000000
_cell_angle_gamma   93.72100000
_symmetry_Int_Tables_number   1
_chemical_formula_structural   Ga6H190C301N55O59
_chemical_formula_sum   'Ga24 H760 C1204 N220 O236'
_cell_volume   30276.48853349
_cell_formula_units_Z   4
loop_
 _symmetry_equiv_pos_site_id
 _symmetry_equiv_pos_as_xyz
  1  'x, y, z'
loop_
 _atom_site_type_symbol
 _atom_site_label
 _atom_site_symmetry_multiplicity
 _atom_site_fract_x
 _atom_site_fract_y
 _atom_site_fract_z
 _atom_site_occupancy
  Ga  Ga1  1  0.198570  0.007840  0.639330  1
  Ga  Ga2  1  0.301430  0.492160  0.139330  1
  Ga  Ga3  1  0.801430  0.992160  0.360670  1
  Ga  Ga4  1  0.698570  0.507840  0.860670  1
  Ga  Ga5  1  0.496780  0.873500  0.687070  1
  Ga  Ga6  1  0.003220  0.626500  0.187070  1
  Ga  Ga7  1  0.503220  0.126500  0.312930  1
  Ga  Ga8  1  0.996780  0.373500  0.812930  1
  Ga  Ga9  1  0.283190  0.703880  0.857630  1
  Ga  Ga10  1  0.216810  0.796120  0.357630  1
  Ga  Ga11  1  0.716810  0.296120  0.142370  1
  Ga  Ga12  1  0.783190  0.203880  0.642370  1
  Ga  Ga13  1  0.227790  0.697120  0.635360  1
  Ga  Ga14  1  0.272210  0.802880  0.135360  1
  Ga  Ga15  1  0.772210  0.302880  0.364640  1
  Ga  Ga16  1  0.727790  0.197120  0.864640  1
  Ga  Ga17  1  0.994320  0.832520  0.805540  1
  Ga  Ga18  1  0.505680  0.667480  0.305540  1
  Ga  Ga19  1  0.005680  0.167480  0.194460  1
  Ga  Ga20  1  0.494320  0.332520  0.694460  1
  Ga  Ga21  1  0.273980  0.015790  0.856350  1
  Ga  Ga22  1  0.226020  0.484210  0.356350  1
  Ga  Ga23  1  0.726020  0.984210  0.143650  1
  Ga  Ga24  1  0.773980  0.515790  0.643650  1
  H  H25  1  0.794400  0.655500  0.824600  1
  H  H26  1  0.705600  0.844500  0.324600  1
  H  H27  1  0.205600  0.344500  0.175400  1
  H  H28  1  0.294400  0.155500  0.675400  1
  H  H29  1  0.786800  0.609400  0.808800  1
  H  H30  1  0.713200  0.890600  0.308800  1
  H  H31  1  0.213200  0.390600  0.191200  1
  H  H32  1  0.286800  0.109400  0.691200  1
  H  H33  1  0.736300  0.635400  0.816500  1
  H  H34  1  0.763700  0.864600  0.316500  1
  H  H35  1  0.263700  0.364600  0.183500  1
  H  H36  1  0.236300  0.135400  0.683500  1
  H  H37  1  0.827500  0.702600  0.794800  1
  H  H38  1  0.672500  0.797400  0.294800  1
  H  H39  1  0.172500  0.297400  0.205200  1
  H  H40  1  0.327500  0.202600  0.705200  1
  H  H41  1  0.793200  0.717200  0.763700  1
  H  H42  1  0.706800  0.782800  0.263700  1
  H  H43  1  0.206800  0.282800  0.236300  1
  H  H44  1  0.293200  0.217200  0.736300  1
  H  H45  1  0.842200  0.689000  0.757500  1
  H  H46  1  0.657800  0.811000  0.257500  1
  H  H47  1  0.157800  0.311000  0.242500  1
  H  H48  1  0.342200  0.189000  0.742500  1
  H  H49  1  0.755500  0.652500  0.729200  1
  H  H50  1  0.744500  0.847500  0.229200  1
  H  H51  1  0.244500  0.347500  0.270800  1
  H  H52  1  0.255500  0.152500  0.770800  1
  H  H53  1  0.244400  0.463000  0.847300  1
  H  H54  1  0.255600  0.037000  0.347300  1
  H  H55  1  0.755600  0.537000  0.152700  1
  H  H56  1  0.744400  0.963000  0.652700  1
  H  H57  1  0.188900  0.461000  0.828100  1
  H  H58  1  0.311100  0.039000  0.328100  1
  H  H59  1  0.811100  0.539000  0.171900  1
  H  H60  1  0.688900  0.961000  0.671900  1
  H  H61  1  0.217000  0.418700  0.836100  1
  H  H62  1  0.283000  0.081300  0.336100  1
  H  H63  1  0.783000  0.581300  0.163900  1
  H  H64  1  0.717000  0.918700  0.663900  1
  H  H65  1  0.118900  0.410300  0.861500  1
  H  H66  1  0.381100  0.089700  0.361500  1
  H  H67  1  0.881100  0.589700  0.138500  1
  H  H68  1  0.618900  0.910300  0.638500  1
  H  H69  1  0.244500  0.476900  0.894900  1
  H  H70  1  0.255500  0.023100  0.394900  1
  H  H71  1  0.755500  0.523100  0.105100  1
  H  H72  1  0.744500  0.976900  0.605100  1
  H  H73  1  0.217900  0.443900  0.921100  1
  H  H74  1  0.282100  0.056100  0.421100  1
  H  H75  1  0.782100  0.556100  0.078900  1
  H  H76  1  0.717900  0.943900  0.578900  1
  H  H77  1  0.189800  0.486100  0.912600  1
  H  H78  1  0.310200  0.013900  0.412600  1
  H  H79  1  0.810200  0.513900  0.087400  1
  H  H80  1  0.689800  0.986100  0.587400  1
  H  H81  1  0.537300  0.504500  0.877700  1
  H  H82  1  0.962700  0.995500  0.377700  1
  H  H83  1  0.462700  0.495500  0.122300  1
  H  H84  1  0.037300  0.004500  0.622300  1
  H  H85  1  0.498000  0.600800  0.899800  1
  H  H86  1  0.002000  0.899200  0.399800  1
  H  H87  1  0.502000  0.399200  0.100200  1
  H  H88  1  0.998000  0.100800  0.600200  1
  H  H89  1  0.548500  0.573900  0.904700  1
  H  H90  1  0.951500  0.926100  0.404700  1
  H  H91  1  0.451500  0.426100  0.095300  1
  H  H92  1  0.048500  0.073900  0.595300  1
  H  H93  1  0.490700  0.553800  0.913500  1
  H  H94  1  0.009300  0.946200  0.413500  1
  H  H95  1  0.509300  0.446200  0.086500  1
  H  H96  1  0.990700  0.053800  0.586500  1
  H  H97  1  0.471300  0.604900  0.844200  1
  H  H98  1  0.028700  0.895100  0.344200  1
  H  H99  1  0.528700  0.395100  0.155800  1
  H  H100  1  0.971300  0.104900  0.655800  1
  H  H101  1  0.448200  0.561200  0.828800  1
  H  H102  1  0.051800  0.938800  0.328800  1
  H  H103  1  0.551800  0.438800  0.171200  1
  H  H104  1  0.948200  0.061200  0.671200  1
  H  H105  1  0.504600  0.581200  0.816800  1
  H  H106  1  0.995400  0.918800  0.316800  1
  H  H107  1  0.495400  0.418800  0.183200  1
  H  H108  1  0.004600  0.081200  0.683200  1
  H  H109  1  0.330200  0.933100  0.628300  1
  H  H110  1  0.169800  0.566900  0.128300  1
  H  H111  1  0.669800  0.066900  0.371700  1
  H  H112  1  0.830200  0.433100  0.871700  1
  H  H113  1  0.372200  0.812200  0.616400  1
  H  H114  1  0.127800  0.687800  0.116400  1
  H  H115  1  0.627800  0.187800  0.383600  1
  H  H116  1  0.872200  0.312200  0.883600  1
  H  H117  1  0.218700  0.841100  0.603700  1
  H  H118  1  0.281300  0.658900  0.103700  1
  H  H119  1  0.781300  0.158900  0.396300  1
  H  H120  1  0.718700  0.341100  0.896300  1
  H  H121  1  0.131800  0.045200  0.561700  1
  H  H122  1  0.368200  0.454800  0.061700  1
  H  H123  1  0.868200  0.954800  0.438300  1
  H  H124  1  0.631800  0.545200  0.938300  1
  H  H125  1  0.089300  0.095200  0.529800  1
  H  H126  1  0.410700  0.404800  0.029800  1
  H  H127  1  0.910700  0.904800  0.470200  1
  H  H128  1  0.589300  0.595200  0.970200  1
  H  H129  1  0.051700  0.075300  0.478000  1
  H  H130  1  0.448300  0.424700  0.978000  1
  H  H131  1  0.948300  0.924700  0.522000  1
  H  H132  1  0.551700  0.575300  0.022000  1
  H  H133  1  0.051400  0.005900  0.459600  1
  H  H134  1  0.448600  0.494100  0.959600  1
  H  H135  1  0.948600  0.994100  0.540400  1
  H  H136  1  0.551400  0.505900  0.040400  1
  H  H137  1  0.091400  0.955600  0.492600  1
  H  H138  1  0.408600  0.544400  0.992600  1
  H  H139  1  0.908600  0.044400  0.507400  1
  H  H140  1  0.591400  0.455600  0.007400  1
  H  H141  1  0.226400  0.878200  0.511000  1
  H  H142  1  0.273600  0.621800  0.011000  1
  H  H143  1  0.773600  0.121800  0.489000  1
  H  H144  1  0.726400  0.378200  0.989000  1
  H  H145  1  0.222500  0.854700  0.546400  1
  H  H146  1  0.277500  0.645300  0.046400  1
  H  H147  1  0.777500  0.145300  0.453600  1
  H  H148  1  0.722500  0.354700  0.953600  1
  H  H149  1  0.270700  0.888300  0.538900  1
  H  H150  1  0.229300  0.611700  0.038900  1
  H  H151  1  0.729300  0.111700  0.461100  1
  H  H152  1  0.770700  0.388300  0.961100  1
  H  H153  1  0.395000  0.983400  0.558200  1
  H  H154  1  0.105000  0.516600  0.058200  1
  H  H155  1  0.605000  0.016600  0.441800  1
  H  H156  1  0.895000  0.483400  0.941800  1
  H  H157  1  0.355400  0.957100  0.582800  1
  H  H158  1  0.144600  0.542900  0.082800  1
  H  H159  1  0.644600  0.042900  0.417200  1
  H  H160  1  0.855400  0.457100  0.917200  1
  H  H161  1  0.390700  0.933200  0.556600  1
  H  H162  1  0.109300  0.566800  0.056600  1
  H  H163  1  0.609300  0.066800  0.443400  1
  H  H164  1  0.890700  0.433200  0.943400  1
  H  H165  1  0.563100  0.991200  0.677200  1
  H  H166  1  0.936900  0.508800  0.177200  1
  H  H167  1  0.436900  0.008800  0.322800  1
  H  H168  1  0.063100  0.491200  0.822800  1
  H  H169  1  0.635100  0.039300  0.687900  1
  H  H170  1  0.864900  0.460700  0.187900  1
  H  H171  1  0.364900  0.960700  0.312100  1
  H  H172  1  0.135100  0.539300  0.812100  1
  H  H173  1  0.671600  0.080900  0.644100  1
  H  H174  1  0.828400  0.419100  0.144100  1
  H  H175  1  0.328400  0.919100  0.355900  1
  H  H176  1  0.171600  0.580900  0.855900  1
  H  H177  1  0.634000  0.074500  0.590400  1
  H  H178  1  0.866000  0.425500  0.090400  1
  H  H179  1  0.366000  0.925500  0.409600  1
  H  H180  1  0.134000  0.574500  0.909600  1
  H  H181  1  0.560000  0.028600  0.580700  1
  H  H182  1  0.940000  0.471400  0.080700  1
  H  H183  1  0.440000  0.971400  0.419300  1
  H  H184  1  0.060000  0.528600  0.919300  1
  H  H185  1  0.385100  0.803400  0.522100  1
  H  H186  1  0.114900  0.696600  0.022100  1
  H  H187  1  0.614900  0.196600  0.477900  1
  H  H188  1  0.885100  0.303400  0.977900  1
  H  H189  1  0.376400  0.822600  0.558600  1
  H  H190  1  0.123600  0.677400  0.058600  1
  H  H191  1  0.623600  0.177400  0.441400  1
  H  H192  1  0.876400  0.322600  0.941400  1
  H  H193  1  0.328900  0.819900  0.532100  1
  H  H194  1  0.171100  0.680100  0.032100  1
  H  H195  1  0.671100  0.180100  0.467900  1
  H  H196  1  0.828900  0.319900  0.967900  1
  H  H197  1  0.271700  0.621200  0.558000  1
  H  H198  1  0.228300  0.878800  0.058000  1
  H  H199  1  0.728300  0.378800  0.442000  1
  H  H200  1  0.771700  0.121200  0.942000  1
  H  H201  1  0.293800  0.552700  0.540500  1
  H  H202  1  0.206200  0.947300  0.040500  1
  H  H203  1  0.706200  0.447300  0.459500  1
  H  H204  1  0.793800  0.052700  0.959500  1
  H  H205  1  0.414400  0.668700  0.525000  1
  H  H206  1  0.085600  0.831300  0.025000  1
  H  H207  1  0.585600  0.331300  0.475000  1
  H  H208  1  0.914400  0.168700  0.975000  1
  H  H209  1  0.434000  0.601700  0.504700  1
  H  H210  1  0.066000  0.898300  0.004700  1
  H  H211  1  0.566000  0.398300  0.495300  1
  H  H212  1  0.934000  0.101700  0.995300  1
  H  H213  1  0.374900  0.545000  0.515000  1
  H  H214  1  0.125100  0.955000  0.015000  1
  H  H215  1  0.625100  0.455000  0.485000  1
  H  H216  1  0.874900  0.045000  0.985000  1
  H  H217  1  0.391400  0.976400  0.675700  1
  H  H218  1  0.108600  0.523600  0.175700  1
  H  H219  1  0.608600  0.023600  0.324300  1
  H  H220  1  0.891400  0.476400  0.824300  1
  H  H221  1  0.414400  0.983300  0.777200  1
  H  H222  1  0.085600  0.516700  0.277200  1
  H  H223  1  0.585600  0.016700  0.222800  1
  H  H224  1  0.914400  0.483300  0.722800  1
  H  H225  1  0.297200  0.047600  0.734100  1
  H  H226  1  0.202800  0.452400  0.234100  1
  H  H227  1  0.702800  0.952400  0.265900  1
  H  H228  1  0.797200  0.547600  0.765900  1
  H  H229  1  0.459000  0.078600  0.636700  1
  H  H230  1  0.041000  0.421400  0.136700  1
  H  H231  1  0.541000  0.921400  0.363300  1
  H  H232  1  0.959000  0.578600  0.863300  1
  H  H233  1  0.440600  0.039600  0.660100  1
  H  H234  1  0.059400  0.460400  0.160100  1
  H  H235  1  0.559400  0.960400  0.339900  1
  H  H236  1  0.940600  0.539600  0.839900  1
  H  H237  1  0.420700  0.085100  0.667900  1
  H  H238  1  0.079300  0.414900  0.167900  1
  H  H239  1  0.579300  0.914900  0.332100  1
  H  H240  1  0.920700  0.585100  0.832100  1
  H  H241  1  0.260700  0.020300  0.543100  1
  H  H242  1  0.239300  0.479700  0.043100  1
  H  H243  1  0.739300  0.979700  0.456900  1
  H  H244  1  0.760700  0.520300  0.956900  1
  H  H245  1  0.232200  0.042700  0.489600  1
  H  H246  1  0.267800  0.457300  0.989600  1
  H  H247  1  0.767800  0.957300  0.510400  1
  H  H248  1  0.732200  0.542700  0.010400  1
  H  H249  1  0.273900  0.103900  0.465100  1
  H  H250  1  0.226100  0.396100  0.965100  1
  H  H251  1  0.726100  0.896100  0.534900  1
  H  H252  1  0.773900  0.603900  0.034900  1
  H  H253  1  0.339000  0.144500  0.494400  1
  H  H254  1  0.161000  0.355500  0.994400  1
  H  H255  1  0.661000  0.855500  0.505600  1
  H  H256  1  0.839000  0.644500  0.005600  1
  H  H257  1  0.367000  0.122100  0.548200  1
  H  H258  1  0.133000  0.377900  0.048200  1
  H  H259  1  0.633000  0.877900  0.451800  1
  H  H260  1  0.867000  0.622100  0.951800  1
  H  H261  1  0.542500  0.060300  0.759900  1
  H  H262  1  0.957500  0.439700  0.259900  1
  H  H263  1  0.457500  0.939700  0.240100  1
  H  H264  1  0.042500  0.560300  0.740100  1
  H  H265  1  0.484200  0.040000  0.767200  1
  H  H266  1  0.015800  0.460000  0.267200  1
  H  H267  1  0.515800  0.960000  0.232800  1
  H  H268  1  0.984200  0.540000  0.732800  1
  H  H269  1  0.501900  0.051600  0.729600  1
  H  H270  1  0.998100  0.448400  0.229600  1
  H  H271  1  0.498100  0.948400  0.270400  1
  H  H272  1  0.001900  0.551600  0.770400  1
  H  H273  1  0.684700  0.994000  0.735300  1
  H  H274  1  0.815300  0.506000  0.235300  1
  H  H275  1  0.315300  0.006000  0.264700  1
  H  H276  1  0.184700  0.494000  0.764700  1
  H  H277  1  0.771500  0.973600  0.743600  1
  H  H278  1  0.728500  0.526400  0.243600  1
  H  H279  1  0.228500  0.026400  0.256400  1
  H  H280  1  0.271500  0.473600  0.756400  1
  H  H281  1  0.785100  0.906300  0.762800  1
  H  H282  1  0.714900  0.593700  0.262800  1
  H  H283  1  0.214900  0.093700  0.237200  1
  H  H284  1  0.285100  0.406300  0.737200  1
  H  H285  1  0.712800  0.858800  0.774700  1
  H  H286  1  0.787200  0.641200  0.274700  1
  H  H287  1  0.287200  0.141200  0.225300  1
  H  H288  1  0.212800  0.358800  0.725300  1
  H  H289  1  0.625200  0.878100  0.764200  1
  H  H290  1  0.874800  0.621900  0.264200  1
  H  H291  1  0.374800  0.121900  0.235800  1
  H  H292  1  0.125200  0.378100  0.735800  1
  H  H293  1  0.413000  0.145100  0.749200  1
  H  H294  1  0.087000  0.354900  0.249200  1
  H  H295  1  0.587000  0.854900  0.250800  1
  H  H296  1  0.913000  0.645100  0.750800  1
  H  H297  1  0.374700  0.107800  0.734500  1
  H  H298  1  0.125300  0.392200  0.234500  1
  H  H299  1  0.625300  0.892200  0.265500  1
  H  H300  1  0.874700  0.607800  0.765500  1
  H  H301  1  0.428100  0.097500  0.753300  1
  H  H302  1  0.071900  0.402500  0.253300  1
  H  H303  1  0.571900  0.902500  0.246700  1
  H  H304  1  0.928100  0.597500  0.746700  1
  H  H305  1  0.326600  0.215400  0.827800  1
  H  H306  1  0.173400  0.284600  0.327800  1
  H  H307  1  0.673400  0.784600  0.172200  1
  H  H308  1  0.826600  0.715400  0.672200  1
  H  H309  1  0.321500  0.267700  0.869600  1
  H  H310  1  0.178500  0.232300  0.369600  1
  H  H311  1  0.678500  0.732300  0.130400  1
  H  H312  1  0.821500  0.767700  0.630400  1
  H  H313  1  0.322900  0.248900  0.926200  1
  H  H314  1  0.177100  0.251100  0.426200  1
  H  H315  1  0.677100  0.751100  0.073800  1
  H  H316  1  0.822900  0.748900  0.573800  1
  H  H317  1  0.334100  0.179100  0.942500  1
  H  H318  1  0.165900  0.320900  0.442500  1
  H  H319  1  0.665900  0.820900  0.057500  1
  H  H320  1  0.834100  0.679100  0.557500  1
  H  H321  1  0.339300  0.127300  0.900000  1
  H  H322  1  0.160700  0.372700  0.400000  1
  H  H323  1  0.660700  0.872700  0.100000  1
  H  H324  1  0.839300  0.627300  0.600000  1
  H  H325  1  0.170900  0.039900  0.760700  1
  H  H326  1  0.329100  0.460100  0.260700  1
  H  H327  1  0.829100  0.960100  0.239300  1
  H  H328  1  0.670900  0.539900  0.739300  1
  H  H329  1  0.085300  0.954400  0.818900  1
  H  H330  1  0.414700  0.545600  0.318900  1
  H  H331  1  0.914700  0.045600  0.181100  1
  H  H332  1  0.585300  0.454400  0.681100  1
  H  H333  1  0.061400  0.958100  0.718300  1
  H  H334  1  0.438600  0.541900  0.218300  1
  H  H335  1  0.938600  0.041900  0.281700  1
  H  H336  1  0.561400  0.458100  0.781700  1
  H  H337  1  0.065600  0.124100  0.747100  1
  H  H338  1  0.434400  0.375900  0.247100  1
  H  H339  1  0.934400  0.875900  0.252900  1
  H  H340  1  0.565600  0.624100  0.752900  1
  H  H341  1  0.106100  0.091500  0.760500  1
  H  H342  1  0.393900  0.408500  0.260500  1
  H  H343  1  0.893900  0.908500  0.239500  1
  H  H344  1  0.606100  0.591500  0.739500  1
  H  H345  1  0.051200  0.074800  0.743900  1
  H  H346  1  0.448800  0.425200  0.243900  1
  H  H347  1  0.948800  0.925200  0.256100  1
  H  H348  1  0.551200  0.574800  0.756100  1
  H  H349  1  0.114900  0.201800  0.664100  1
  H  H350  1  0.385100  0.298200  0.164100  1
  H  H351  1  0.885100  0.798200  0.335900  1
  H  H352  1  0.614900  0.701800  0.835900  1
  H  H353  1  0.115200  0.252400  0.619900  1
  H  H354  1  0.384800  0.247600  0.119900  1
  H  H355  1  0.884800  0.747600  0.380100  1
  H  H356  1  0.615200  0.752400  0.880100  1
  H  H357  1  0.134800  0.233000  0.564300  1
  H  H358  1  0.365200  0.267000  0.064300  1
  H  H359  1  0.865200  0.767000  0.435700  1
  H  H360  1  0.634800  0.733000  0.935700  1
  H  H361  1  0.159400  0.163800  0.552200  1
  H  H362  1  0.340600  0.336200  0.052200  1
  H  H363  1  0.840600  0.836200  0.447800  1
  H  H364  1  0.659400  0.663800  0.947800  1
  H  H365  1  0.160000  0.113600  0.596300  1
  H  H366  1  0.340000  0.386400  0.096300  1
  H  H367  1  0.840000  0.886400  0.403700  1
  H  H368  1  0.660000  0.613600  0.903700  1
  H  H369  1  0.931300  0.008300  0.732400  1
  H  H370  1  0.568700  0.491700  0.232400  1
  H  H371  1  0.068700  0.991700  0.267600  1
  H  H372  1  0.431300  0.508300  0.767600  1
  H  H373  1  0.992900  0.000300  0.733900  1
  H  H374  1  0.507100  0.499700  0.233900  1
  H  H375  1  0.007100  0.999700  0.266100  1
  H  H376  1  0.492900  0.500300  0.766100  1
  H  H377  1  0.960100  0.004300  0.767900  1
  H  H378  1  0.539900  0.495700  0.267900  1
  H  H379  1  0.039900  0.995700  0.232100  1
  H  H380  1  0.460100  0.504300  0.732100  1
  H  H381  1  0.849300  0.816500  0.760200  1
  H  H382  1  0.650700  0.683500  0.260200  1
  H  H383  1  0.150700  0.183500  0.239800  1
  H  H384  1  0.349300  0.316500  0.739800  1
  H  H385  1  0.781200  0.773800  0.733700  1
  H  H386  1  0.718800  0.726200  0.233700  1
  H  H387  1  0.218800  0.226200  0.266300  1
  H  H388  1  0.281200  0.273800  0.766300  1
  H  H389  1  0.748400  0.793400  0.680700  1
  H  H390  1  0.751600  0.706600  0.180700  1
  H  H391  1  0.251600  0.206600  0.319300  1
  H  H392  1  0.248400  0.293400  0.819300  1
  H  H393  1  0.780800  0.856200  0.654900  1
  H  H394  1  0.719200  0.643800  0.154900  1
  H  H395  1  0.219200  0.143800  0.345100  1
  H  H396  1  0.280800  0.356200  0.845100  1
  H  H397  1  0.849300  0.898500  0.680900  1
  H  H398  1  0.650700  0.601500  0.180900  1
  H  H399  1  0.150700  0.101500  0.319100  1
  H  H400  1  0.349300  0.398500  0.819100  1
  H  H401  1  0.005800  0.031700  0.863200  1
  H  H402  1  0.494200  0.468300  0.363200  1
  H  H403  1  0.994200  0.968300  0.136800  1
  H  H404  1  0.505800  0.531700  0.636800  1
  H  H405  1  0.029200  0.001300  0.835800  1
  H  H406  1  0.470800  0.498700  0.335800  1
  H  H407  1  0.970800  0.998700  0.164200  1
  H  H408  1  0.529200  0.501300  0.664200  1
  H  H409  1  0.039800  0.051100  0.832400  1
  H  H410  1  0.460200  0.448900  0.332400  1
  H  H411  1  0.960200  0.948900  0.167600  1
  H  H412  1  0.539800  0.551100  0.667600  1
  H  H413  1  0.089400  0.081800  0.954100  1
  H  H414  1  0.410600  0.418200  0.454100  1
  H  H415  1  0.910600  0.918200  0.045900  1
  H  H416  1  0.589400  0.581800  0.545900  1
  H  H417  1  0.212200  0.006100  0.955500  1
  H  H418  1  0.287800  0.493900  0.455500  1
  H  H419  1  0.787800  0.993900  0.044500  1
  H  H420  1  0.712200  0.506100  0.544500  1
  H  H421  1  0.181000  0.076600  0.037100  1
  H  H422  1  0.319000  0.423400  0.537100  1
  H  H423  1  0.819000  0.923400  0.962900  1
  H  H424  1  0.681000  0.576600  0.462900  1
  H  H425  1  0.113800  0.106500  0.008400  1
  H  H426  1  0.386200  0.393500  0.508400  1
  H  H427  1  0.886200  0.893500  0.991600  1
  H  H428  1  0.613800  0.606500  0.491600  1
  H  H429  1  0.234000  0.028700  0.011600  1
  H  H430  1  0.266000  0.471300  0.511600  1
  H  H431  1  0.766000  0.971300  0.988400  1
  H  H432  1  0.734000  0.528700  0.488400  1
  H  H433  1  0.438900  0.769200  0.770600  1
  H  H434  1  0.061100  0.730800  0.270600  1
  H  H435  1  0.561100  0.230800  0.229400  1
  H  H436  1  0.938900  0.269200  0.729400  1
  H  H437  1  0.314900  0.682000  0.756500  1
  H  H438  1  0.185100  0.818000  0.256500  1
  H  H439  1  0.685100  0.318000  0.243500  1
  H  H440  1  0.814900  0.182000  0.743500  1
  H  H441  1  0.394300  0.734600  0.675300  1
  H  H442  1  0.105700  0.765400  0.175300  1
  H  H443  1  0.605700  0.265400  0.324700  1
  H  H444  1  0.894300  0.234600  0.824700  1
  H  H445  1  0.518700  0.662900  0.680100  1
  H  H446  1  0.981300  0.837100  0.180100  1
  H  H447  1  0.481300  0.337100  0.319900  1
  H  H448  1  0.018700  0.162900  0.819900  1
  H  H449  1  0.461900  0.681600  0.684100  1
  H  H450  1  0.038100  0.818400  0.184100  1
  H  H451  1  0.538100  0.318400  0.315900  1
  H  H452  1  0.961900  0.181600  0.815900  1
  H  H453  1  0.503100  0.684600  0.714600  1
  H  H454  1  0.996900  0.815400  0.214600  1
  H  H455  1  0.496900  0.315400  0.285400  1
  H  H456  1  0.003100  0.184600  0.785400  1
  H  H457  1  0.644500  0.839500  0.647600  1
  H  H458  1  0.855500  0.660500  0.147600  1
  H  H459  1  0.355500  0.160500  0.352400  1
  H  H460  1  0.144500  0.339500  0.852400  1
  H  H461  1  0.715300  0.853500  0.610100  1
  H  H462  1  0.784700  0.646500  0.110100  1
  H  H463  1  0.284700  0.146500  0.389900  1
  H  H464  1  0.215300  0.353500  0.889900  1
  H  H465  1  0.729300  0.807700  0.565000  1
  H  H466  1  0.770700  0.692300  0.065000  1
  H  H467  1  0.270700  0.192300  0.435000  1
  H  H468  1  0.229300  0.307700  0.935000  1
  H  H469  1  0.674800  0.744200  0.560000  1
  H  H470  1  0.825200  0.755800  0.060000  1
  H  H471  1  0.325200  0.255800  0.440000  1
  H  H472  1  0.174800  0.244200  0.940000  1
  H  H473  1  0.605800  0.729600  0.599400  1
  H  H474  1  0.894200  0.770400  0.099400  1
  H  H475  1  0.394200  0.270400  0.400600  1
  H  H476  1  0.105800  0.229600  0.900600  1
  H  H477  1  0.528100  0.680100  0.803800  1
  H  H478  1  0.971900  0.819900  0.303800  1
  H  H479  1  0.471900  0.319900  0.196200  1
  H  H480  1  0.028100  0.180100  0.696200  1
  H  H481  1  0.502200  0.720200  0.788500  1
  H  H482  1  0.997800  0.779800  0.288500  1
  H  H483  1  0.497800  0.279800  0.211500  1
  H  H484  1  0.002200  0.220200  0.711500  1
  H  H485  1  0.477200  0.674100  0.780200  1
  H  H486  1  0.022800  0.825900  0.280200  1
  H  H487  1  0.522800  0.325900  0.219800  1
  H  H488  1  0.977200  0.174100  0.719800  1
  H  H489  1  0.520800  0.693000  0.918100  1
  H  H490  1  0.979200  0.807000  0.418100  1
  H  H491  1  0.479200  0.307000  0.081900  1
  H  H492  1  0.020800  0.193000  0.581900  1
  H  H493  1  0.532800  0.668600  0.973300  1
  H  H494  1  0.967200  0.831400  0.473300  1
  H  H495  1  0.467200  0.331400  0.026700  1
  H  H496  1  0.032800  0.168600  0.526700  1
  H  H497  1  0.462800  0.631900  0.000900  1
  H  H498  1  0.037200  0.868100  0.500900  1
  H  H499  1  0.537200  0.368100  0.999100  1
  H  H500  1  0.962800  0.131900  0.499100  1
  H  H501  1  0.380300  0.619700  0.975400  1
  H  H502  1  0.119700  0.880300  0.475400  1
  H  H503  1  0.619700  0.380300  0.024600  1
  H  H504  1  0.880300  0.119700  0.524600  1
  H  H505  1  0.366400  0.648000  0.920900  1
  H  H506  1  0.133600  0.852000  0.420900  1
  H  H507  1  0.633600  0.352000  0.079100  1
  H  H508  1  0.866400  0.148000  0.579100  1
  H  H509  1  0.352400  0.571800  0.743600  1
  H  H510  1  0.147600  0.928200  0.243600  1
  H  H511  1  0.647600  0.428200  0.256400  1
  H  H512  1  0.852400  0.071800  0.756400  1
  H  H513  1  0.348500  0.619800  0.754300  1
  H  H514  1  0.151500  0.880200  0.254300  1
  H  H515  1  0.651500  0.380200  0.245700  1
  H  H516  1  0.848500  0.119800  0.745700  1
  H  H517  1  0.386300  0.608100  0.724000  1
  H  H518  1  0.113700  0.891900  0.224000  1
  H  H519  1  0.613700  0.391900  0.276000  1
  H  H520  1  0.886300  0.108100  0.776000  1
  H  H521  1  0.214300  0.505000  0.697200  1
  H  H522  1  0.285700  0.995000  0.197200  1
  H  H523  1  0.785700  0.495000  0.302800  1
  H  H524  1  0.714300  0.005000  0.802800  1
  H  H525  1  0.154000  0.453800  0.671700  1
  H  H526  1  0.346000  0.046200  0.171700  1
  H  H527  1  0.846000  0.546200  0.328300  1
  H  H528  1  0.654000  0.953800  0.828300  1
  H  H529  1  0.143000  0.456800  0.612400  1
  H  H530  1  0.357000  0.043200  0.112400  1
  H  H531  1  0.857000  0.543200  0.387600  1
  H  H532  1  0.643000  0.956800  0.887600  1
  H  H533  1  0.172800  0.518100  0.582200  1
  H  H534  1  0.327200  0.981900  0.082200  1
  H  H535  1  0.827200  0.481900  0.417800  1
  H  H536  1  0.672800  0.018100  0.917800  1
  H  H537  1  0.216200  0.575400  0.612000  1
  H  H538  1  0.283800  0.924600  0.112000  1
  H  H539  1  0.783800  0.424600  0.388000  1
  H  H540  1  0.716200  0.075400  0.888000  1
  H  H541  1  0.272000  0.847300  0.890000  1
  H  H542  1  0.228000  0.652700  0.390000  1
  H  H543  1  0.728000  0.152700  0.110000  1
  H  H544  1  0.772000  0.347300  0.610000  1
  H  H545  1  0.148000  0.916900  0.865400  1
  H  H546  1  0.352000  0.583100  0.365400  1
  H  H547  1  0.852000  0.083100  0.134600  1
  H  H548  1  0.648000  0.416900  0.634600  1
  H  H549  1  0.124700  0.789600  0.875600  1
  H  H550  1  0.375300  0.710400  0.375600  1
  H  H551  1  0.875300  0.210400  0.124400  1
  H  H552  1  0.624700  0.289600  0.624400  1
  H  H553  1  0.107900  0.772400  0.970500  1
  H  H554  1  0.392100  0.727600  0.470500  1
  H  H555  1  0.892100  0.227600  0.029500  1
  H  H556  1  0.607900  0.272400  0.529500  1
  H  H557  1  0.109800  0.791000  0.933200  1
  H  H558  1  0.390200  0.709000  0.433200  1
  H  H559  1  0.890200  0.209000  0.066800  1
  H  H560  1  0.609800  0.291000  0.566800  1
  H  H561  1  0.157000  0.803000  0.958900  1
  H  H562  1  0.343000  0.697000  0.458900  1
  H  H563  1  0.843000  0.197000  0.041100  1
  H  H564  1  0.657000  0.303000  0.541100  1
  H  H565  1  0.255500  0.622400  0.932000  1
  H  H566  1  0.244500  0.877600  0.432000  1
  H  H567  1  0.744500  0.377600  0.068000  1
  H  H568  1  0.755500  0.122400  0.568000  1
  H  H569  1  0.255200  0.552400  0.952100  1
  H  H570  1  0.244800  0.947600  0.452100  1
  H  H571  1  0.744800  0.447600  0.047900  1
  H  H572  1  0.755200  0.052400  0.547900  1
  H  H573  1  0.183600  0.525000  0.986300  1
  H  H574  1  0.316400  0.975000  0.486300  1
  H  H575  1  0.816400  0.475000  0.013700  1
  H  H576  1  0.683600  0.025000  0.513700  1
  H  H577  1  0.111800  0.567000  0.998700  1
  H  H578  1  0.388200  0.933000  0.498700  1
  H  H579  1  0.888200  0.433000  0.001300  1
  H  H580  1  0.611800  0.067000  0.501300  1
  H  H581  1  0.112400  0.636800  0.977700  1
  H  H582  1  0.387600  0.863200  0.477700  1
  H  H583  1  0.887600  0.363200  0.022300  1
  H  H584  1  0.612400  0.136800  0.522300  1
  H  H585  1  0.080000  0.946100  0.941600  1
  H  H586  1  0.420000  0.553900  0.441600  1
  H  H587  1  0.920000  0.053900  0.058400  1
  H  H588  1  0.580000  0.446100  0.558400  1
  H  H589  1  0.120900  0.930900  0.914300  1
  H  H590  1  0.379100  0.569100  0.414300  1
  H  H591  1  0.879100  0.069100  0.085700  1
  H  H592  1  0.620900  0.430900  0.585700  1
  H  H593  1  0.090200  0.897400  0.938300  1
  H  H594  1  0.409800  0.602600  0.438300  1
  H  H595  1  0.909800  0.102600  0.061700  1
  H  H596  1  0.590200  0.397400  0.561700  1
  H  H597  1  0.916400  0.940600  0.817700  1
  H  H598  1  0.583600  0.559400  0.317700  1
  H  H599  1  0.083600  0.059400  0.182300  1
  H  H600  1  0.416400  0.440600  0.682300  1
  H  H601  1  0.847900  0.986400  0.808300  1
  H  H602  1  0.652100  0.513600  0.308300  1
  H  H603  1  0.152100  0.013600  0.191700  1
  H  H604  1  0.347900  0.486400  0.691700  1
  H  H605  1  0.807400  0.018600  0.855400  1
  H  H606  1  0.692600  0.481400  0.355400  1
  H  H607  1  0.192600  0.981400  0.144600  1
  H  H608  1  0.307400  0.518600  0.644600  1
  H  H609  1  0.839800  0.007900  0.910400  1
  H  H610  1  0.660200  0.492100  0.410400  1
  H  H611  1  0.160200  0.992100  0.089600  1
  H  H612  1  0.339800  0.507900  0.589600  1
  H  H613  1  0.910500  0.963000  0.919300  1
  H  H614  1  0.589500  0.537000  0.419300  1
  H  H615  1  0.089500  0.037000  0.080700  1
  H  H616  1  0.410500  0.463000  0.580700  1
  H  H617  1  0.250800  0.880000  0.983200  1
  H  H618  1  0.249200  0.620000  0.483200  1
  H  H619  1  0.749200  0.120000  0.016800  1
  H  H620  1  0.750800  0.380000  0.516800  1
  H  H621  1  0.252800  0.858400  0.947100  1
  H  H622  1  0.247200  0.641600  0.447100  1
  H  H623  1  0.747200  0.141600  0.052900  1
  H  H624  1  0.752800  0.358400  0.552900  1
  H  H625  1  0.205700  0.887400  0.956200  1
  H  H626  1  0.294300  0.612600  0.456200  1
  H  H627  1  0.794300  0.112600  0.043800  1
  H  H628  1  0.705700  0.387400  0.543800  1
  H  H629  1  0.318400  0.063100  0.938500  1
  H  H630  1  0.181600  0.436900  0.438500  1
  H  H631  1  0.681600  0.936900  0.061500  1
  H  H632  1  0.818400  0.563100  0.561500  1
  H  H633  1  0.355000  0.124800  0.969100  1
  H  H634  1  0.145000  0.375200  0.469100  1
  H  H635  1  0.645000  0.875200  0.030900  1
  H  H636  1  0.855000  0.624800  0.530900  1
  H  H637  1  0.416700  0.114600  0.014500  1
  H  H638  1  0.083300  0.385400  0.514500  1
  H  H639  1  0.583300  0.885400  0.985500  1
  H  H640  1  0.916700  0.614600  0.485500  1
  H  H641  1  0.443200  0.046100  0.028100  1
  H  H642  1  0.056800  0.453900  0.528100  1
  H  H643  1  0.556800  0.953900  0.971900  1
  H  H644  1  0.943200  0.546100  0.471900  1
  H  H645  1  0.404900  0.984000  0.998700  1
  H  H646  1  0.095100  0.516000  0.498700  1
  H  H647  1  0.595100  0.016000  0.001300  1
  H  H648  1  0.904900  0.484000  0.501300  1
  H  H649  1  0.200400  0.678200  0.736300  1
  H  H650  1  0.299600  0.821800  0.236300  1
  H  H651  1  0.799600  0.321800  0.263700  1
  H  H652  1  0.700400  0.178200  0.763700  1
  H  H653  1  0.066500  0.739400  0.722500  1
  H  H654  1  0.433500  0.760600  0.222500  1
  H  H655  1  0.933500  0.260600  0.277500  1
  H  H656  1  0.566500  0.239400  0.777500  1
  H  H657  1  0.115800  0.715200  0.816300  1
  H  H658  1  0.384200  0.784800  0.316300  1
  H  H659  1  0.884200  0.284800  0.183700  1
  H  H660  1  0.615800  0.215200  0.683700  1
  H  H661  1  0.169400  0.563200  0.745800  1
  H  H662  1  0.330600  0.936800  0.245800  1
  H  H663  1  0.830600  0.436800  0.254200  1
  H  H664  1  0.669400  0.063200  0.754200  1
  H  H665  1  0.173800  0.611600  0.735500  1
  H  H666  1  0.326200  0.888400  0.235500  1
  H  H667  1  0.826200  0.388400  0.264500  1
  H  H668  1  0.673800  0.111600  0.764500  1
  H  H669  1  0.134000  0.595600  0.764600  1
  H  H670  1  0.366000  0.904400  0.264600  1
  H  H671  1  0.866000  0.404400  0.235400  1
  H  H672  1  0.634000  0.095600  0.735400  1
  H  H673  1  0.299500  0.581400  0.881000  1
  H  H674  1  0.200500  0.918600  0.381000  1
  H  H675  1  0.700500  0.418600  0.119000  1
  H  H676  1  0.799500  0.081400  0.619000  1
  H  H677  1  0.350700  0.535100  0.910700  1
  H  H678  1  0.149300  0.964900  0.410700  1
  H  H679  1  0.649300  0.464900  0.089300  1
  H  H680  1  0.850700  0.035100  0.589300  1
  H  H681  1  0.391100  0.481400  0.881300  1
  H  H682  1  0.108900  0.018600  0.381300  1
  H  H683  1  0.608900  0.518600  0.118700  1
  H  H684  1  0.891100  0.981400  0.618700  1
  H  H685  1  0.379000  0.473800  0.823300  1
  H  H686  1  0.121000  0.026200  0.323300  1
  H  H687  1  0.621000  0.526200  0.176700  1
  H  H688  1  0.879000  0.973800  0.676700  1
  H  H689  1  0.325900  0.520400  0.793500  1
  H  H690  1  0.174100  0.979600  0.293500  1
  H  H691  1  0.674100  0.479600  0.206500  1
  H  H692  1  0.825900  0.020400  0.706500  1
  H  H693  1  0.988300  0.635400  0.691700  1
  H  H694  1  0.511700  0.864600  0.191700  1
  H  H695  1  0.011700  0.364600  0.308300  1
  H  H696  1  0.488300  0.135400  0.808300  1
  H  H697  1  0.011600  0.677700  0.709200  1
  H  H698  1  0.488400  0.822300  0.209200  1
  H  H699  1  0.988400  0.322300  0.290800  1
  H  H700  1  0.511600  0.177700  0.790800  1
  H  H701  1  0.040300  0.635000  0.714400  1
  H  H702  1  0.459700  0.865000  0.214400  1
  H  H703  1  0.959700  0.365000  0.285600  1
  H  H704  1  0.540300  0.135000  0.785600  1
  H  H705  1  0.142200  0.629100  0.567900  1
  H  H706  1  0.357800  0.870900  0.067900  1
  H  H707  1  0.857800  0.370900  0.432100  1
  H  H708  1  0.642200  0.129100  0.932100  1
  H  H709  1  0.124900  0.607800  0.510400  1
  H  H710  1  0.375100  0.892200  0.010400  1
  H  H711  1  0.875100  0.392200  0.489600  1
  H  H712  1  0.624900  0.107800  0.989600  1
  H  H713  1  0.043800  0.622400  0.485500  1
  H  H714  1  0.456200  0.877600  0.985500  1
  H  H715  1  0.956200  0.377600  0.514500  1
  H  H716  1  0.543800  0.122400  0.014500  1
  H  H717  1  0.974800  0.649700  0.517900  1
  H  H718  1  0.525200  0.850300  0.017900  1
  H  H719  1  0.025200  0.350300  0.482100  1
  H  H720  1  0.474800  0.149700  0.982100  1
  H  H721  1  0.991000  0.669000  0.575100  1
  H  H722  1  0.509000  0.831000  0.075100  1
  H  H723  1  0.009000  0.331000  0.424900  1
  H  H724  1  0.491000  0.169000  0.924900  1
  H  H725  1  0.006900  0.621500  0.811000  1
  H  H726  1  0.493100  0.878500  0.311000  1
  H  H727  1  0.993100  0.378500  0.189000  1
  H  H728  1  0.506900  0.121500  0.689000  1
  H  H729  1  0.058700  0.652800  0.808300  1
  H  H730  1  0.441300  0.847200  0.308300  1
  H  H731  1  0.941300  0.347200  0.191700  1
  H  H732  1  0.558700  0.152800  0.691700  1
  H  H733  1  0.019200  0.647100  0.777100  1
  H  H734  1  0.480800  0.852900  0.277100  1
  H  H735  1  0.980800  0.352900  0.222900  1
  H  H736  1  0.519200  0.147100  0.722900  1
  H  H737  1  0.884100  0.660700  0.880700  1
  H  H738  1  0.615900  0.839300  0.380700  1
  H  H739  1  0.115900  0.339300  0.119300  1
  H  H740  1  0.384100  0.160700  0.619300  1
  H  H741  1  0.801800  0.661600  0.909600  1
  H  H742  1  0.698200  0.838400  0.409600  1
  H  H743  1  0.198200  0.338400  0.090400  1
  H  H744  1  0.301800  0.161600  0.590400  1
  H  H745  1  0.743200  0.714500  0.898200  1
  H  H746  1  0.756800  0.785500  0.398200  1
  H  H747  1  0.256800  0.285500  0.101800  1
  H  H748  1  0.243200  0.214500  0.601800  1
  H  H749  1  0.769000  0.771200  0.861000  1
  H  H750  1  0.731000  0.728800  0.361000  1
  H  H751  1  0.231000  0.228800  0.139000  1
  H  H752  1  0.269000  0.271200  0.639000  1
  H  H753  1  0.853700  0.772500  0.834500  1
  H  H754  1  0.646300  0.727500  0.334500  1
  H  H755  1  0.146300  0.227500  0.165500  1
  H  H756  1  0.353700  0.272500  0.665500  1
  H  H757  1  0.403000  0.019500  0.501500  1
  H  H758  1  0.097000  0.480500  0.001500  1
  H  H759  1  0.597000  0.980500  0.498500  1
  H  H760  1  0.903000  0.519500  0.998500  1
  H  H761  1  0.423900  0.016800  0.463800  1
  H  H762  1  0.076100  0.483200  0.963800  1
  H  H763  1  0.576100  0.983200  0.536200  1
  H  H764  1  0.923900  0.516800  0.036200  1
  H  H765  1  0.390200  0.055000  0.475000  1
  H  H766  1  0.109800  0.445000  0.975000  1
  H  H767  1  0.609800  0.945000  0.525000  1
  H  H768  1  0.890200  0.555000  0.025000  1
  H  H769  1  0.457700  0.033600  0.538300  1
  H  H770  1  0.042300  0.466400  0.038300  1
  H  H771  1  0.542300  0.966400  0.461700  1
  H  H772  1  0.957700  0.533600  0.961700  1
  H  H773  1  0.485900  0.079900  0.539100  1
  H  H774  1  0.014100  0.420100  0.039100  1
  H  H775  1  0.514100  0.920100  0.460900  1
  H  H776  1  0.985900  0.579900  0.960900  1
  H  H777  1  0.518100  0.041200  0.526900  1
  H  H778  1  0.981900  0.458800  0.026900  1
  H  H779  1  0.481900  0.958800  0.473100  1
  H  H780  1  0.018100  0.541200  0.973100  1
  H  H781  1  0.480800  0.087600  0.447600  1
  H  H782  1  0.019200  0.412400  0.947600  1
  H  H783  1  0.519200  0.912400  0.552400  1
  H  H784  1  0.980800  0.587600  0.052400  1
  C  C785  1  0.773300  0.637400  0.809100  1
  C  C786  1  0.726700  0.862600  0.309100  1
  C  C787  1  0.226700  0.362600  0.190900  1
  C  C788  1  0.273300  0.137400  0.690900  1
  C  C789  1  0.813100  0.694500  0.772700  1
  C  C790  1  0.686900  0.805500  0.272700  1
  C  C791  1  0.186900  0.305500  0.227300  1
  C  C792  1  0.313100  0.194500  0.727300  1
  C  C793  1  0.752400  0.637600  0.749800  1
  C  C794  1  0.747600  0.862400  0.249800  1
  C  C795  1  0.247600  0.362400  0.250200  1
  C  C796  1  0.252400  0.137600  0.750200  1
  C  C797  1  0.210600  0.446800  0.844300  1
  C  C798  1  0.289400  0.053200  0.344300  1
  C  C799  1  0.789400  0.553200  0.155700  1
  C  C800  1  0.710600  0.946800  0.655700  1
  C  C801  1  0.135100  0.422700  0.880900  1
  C  C802  1  0.364900  0.077300  0.380900  1
  C  C803  1  0.864900  0.577300  0.119100  1
  C  C804  1  0.635100  0.922700  0.619100  1
  C  C805  1  0.210900  0.464200  0.903400  1
  C  C806  1  0.289100  0.035800  0.403400  1
  C  C807  1  0.789100  0.535800  0.096600  1
  C  C808  1  0.710900  0.964200  0.596600  1
  C  C809  1  0.522300  0.517000  0.858600  1
  C  C810  1  0.977700  0.983000  0.358600  1
  C  C811  1  0.477700  0.483000  0.141400  1
  C  C812  1  0.022300  0.017000  0.641400  1
  C  C813  1  0.511100  0.572700  0.898300  1
  C  C814  1  0.988900  0.927300  0.398300  1
  C  C815  1  0.488900  0.427300  0.101700  1
  C  C816  1  0.011100  0.072700  0.601700  1
  C  C817  1  0.480400  0.577400  0.835900  1
  C  C818  1  0.019600  0.922600  0.335900  1
  C  C819  1  0.519600  0.422600  0.164100  1
  C  C820  1  0.980400  0.077400  0.664100  1
  C  C821  1  0.933300  0.681800  0.039600  1
  C  C822  1  0.566700  0.818200  0.539600  1
  C  C823  1  0.066700  0.318200  0.960400  1
  C  C824  1  0.433300  0.181800  0.460400  1
  C  C825  1  0.998100  0.678200  0.083500  1
  C  C826  1  0.501900  0.821800  0.583500  1
  C  C827  1  0.001900  0.321800  0.916500  1
  C  C828  1  0.498100  0.178200  0.416500  1
  C  C829  1  0.993800  0.740800  0.041400  1
  C  C830  1  0.506200  0.759200  0.541400  1
  C  C831  1  0.006200  0.259200  0.958600  1
  C  C832  1  0.493800  0.240800  0.458600  1
  C  C833  1  0.716400  0.210500  0.996500  1
  C  C834  1  0.783600  0.289500  0.496500  1
  C  C835  1  0.283600  0.789500  0.003500  1
  C  C836  1  0.216400  0.710500  0.503500  1
  C  C837  1  0.700300  0.285100  0.015100  1
  C  C838  1  0.799700  0.214900  0.515100  1
  C  C839  1  0.299700  0.714900  0.984900  1
  C  C840  1  0.200300  0.785100  0.484900  1
  C  C841  1  0.675600  0.216000  0.053200  1
  C  C842  1  0.824400  0.284000  0.553200  1
  C  C843  1  0.324400  0.784000  0.946800  1
  C  C844  1  0.175600  0.716000  0.446800  1
  C  C845  1  0.542200  0.147800  0.598300  1
  C  C846  1  0.957800  0.352200  0.098300  1
  C  C847  1  0.457800  0.852200  0.401700  1
  C  C848  1  0.042200  0.647800  0.901700  1
  C  C849  1  0.488300  0.180800  0.558900  1
  C  C850  1  0.011700  0.319200  0.058900  1
  C  C851  1  0.511700  0.819200  0.441100  1
  C  C852  1  0.988300  0.680800  0.941100  1
  C  C853  1  0.532400  0.222200  0.602300  1
  C  C854  1  0.967600  0.277800  0.102300  1
  C  C855  1  0.467600  0.777800  0.397700  1
  C  C856  1  0.032400  0.722200  0.897700  1
  C  C857  1  0.182100  0.143500  0.889300  1
  C  C858  1  0.317900  0.356500  0.389300  1
  C  C859  1  0.817900  0.856500  0.110700  1
  C  C860  1  0.682100  0.643500  0.610700  1
  C  C861  1  0.165000  0.133000  0.828500  1
  C  C862  1  0.335000  0.367000  0.328500  1
  C  C863  1  0.835000  0.867000  0.171500  1
  C  C864  1  0.665000  0.633000  0.671500  1
  C  C865  1  0.204500  0.199700  0.841800  1
  C  C866  1  0.295500  0.300300  0.341800  1
  C  C867  1  0.795500  0.800300  0.158200  1
  C  C868  1  0.704500  0.699700  0.658200  1
  C  C869  1  0.315900  0.355700  0.671100  1
  C  C870  1  0.184100  0.144300  0.171100  1
  C  C871  1  0.684100  0.644300  0.328900  1
  C  C872  1  0.815900  0.855700  0.828900  1
  C  C873  1  0.259700  0.368900  0.628700  1
  C  C874  1  0.240300  0.131100  0.128700  1
  C  C875  1  0.740300  0.631100  0.371300  1
  C  C876  1  0.759700  0.868900  0.871300  1
  C  C877  1  0.334200  0.357400  0.617100  1
  C  C878  1  0.165800  0.142600  0.117100  1
  C  C879  1  0.665800  0.642600  0.382900  1
  C  C880  1  0.834200  0.857400  0.882900  1
  C  C881  1  0.953900  0.192500  0.895200  1
  C  C882  1  0.546100  0.307500  0.395200  1
  C  C883  1  0.046100  0.807500  0.104800  1
  C  C884  1  0.453900  0.692500  0.604800  1
  C  C885  1  0.987400  0.132700  0.903800  1
  C  C886  1  0.512600  0.367300  0.403800  1
  C  C887  1  0.012600  0.867300  0.096200  1
  C  C888  1  0.487400  0.632700  0.596200  1
  C  C889  1  0.905600  0.133100  0.876700  1
  C  C890  1  0.594400  0.366900  0.376700  1
  C  C891  1  0.094400  0.866900  0.123300  1
  C  C892  1  0.405600  0.633100  0.623300  1
  C  C893  1  0.006300  0.337000  0.703800  1
  C  C894  1  0.493700  0.163000  0.203800  1
  C  C895  1  0.993700  0.663000  0.296200  1
  C  C896  1  0.506300  0.837000  0.796200  1
  C  C897  1  0.023500  0.407800  0.678700  1
  C  C898  1  0.476500  0.092200  0.178700  1
  C  C899  1  0.976500  0.592200  0.321300  1
  C  C900  1  0.523500  0.907800  0.821300  1
  C  C901  1  0.092600  0.342800  0.667500  1
  C  C902  1  0.407400  0.157200  0.167500  1
  C  C903  1  0.907400  0.657200  0.332500  1
  C  C904  1  0.592600  0.842800  0.832500  1
  C  C905  1  0.563500  0.382800  0.928100  1
  C  C906  1  0.936500  0.117200  0.428100  1
  C  C907  1  0.436500  0.617200  0.071900  1
  C  C908  1  0.063500  0.882800  0.571900  1
  C  C909  1  0.617500  0.302600  0.866200  1
  C  C910  1  0.882500  0.197400  0.366200  1
  C  C911  1  0.382500  0.697400  0.133800  1
  C  C912  1  0.117500  0.802600  0.633800  1
  C  C913  1  0.597100  0.302200  0.894600  1
  C  C914  1  0.902900  0.197800  0.394600  1
  C  C915  1  0.402900  0.697800  0.105400  1
  C  C916  1  0.097100  0.802200  0.605400  1
  C  C917  1  0.587800  0.356800  0.905300  1
  C  C918  1  0.912200  0.143200  0.405300  1
  C  C919  1  0.412200  0.643200  0.094700  1
  C  C920  1  0.087800  0.856800  0.594700  1
  C  C921  1  0.536400  0.402100  0.894500  1
  C  C922  1  0.963600  0.097900  0.394500  1
  C  C923  1  0.463600  0.597900  0.105500  1
  C  C924  1  0.036400  0.902100  0.605500  1
  C  C925  1  0.479400  0.433500  0.911600  1
  C  C926  1  0.020600  0.066500  0.411600  1
  C  C927  1  0.520600  0.566500  0.088400  1
  C  C928  1  0.979400  0.933500  0.588400  1
  C  C929  1  0.267300  0.892900  0.615700  1
  C  C930  1  0.232700  0.607100  0.115700  1
  C  C931  1  0.732700  0.107100  0.384300  1
  C  C932  1  0.767300  0.392900  0.884300  1
  C  C933  1  0.320400  0.904500  0.623600  1
  C  C934  1  0.179600  0.595500  0.123600  1
  C  C935  1  0.679600  0.095500  0.376400  1
  C  C936  1  0.820400  0.404500  0.876400  1
  C  C937  1  0.360400  0.874700  0.624900  1
  C  C938  1  0.139600  0.625300  0.124900  1
  C  C939  1  0.639600  0.125300  0.375100  1
  C  C940  1  0.860400  0.374700  0.875100  1
  C  C941  1  0.345900  0.832000  0.617000  1
  C  C942  1  0.154100  0.668000  0.117000  1
  C  C943  1  0.654100  0.168000  0.383000  1
  C  C944  1  0.845900  0.332000  0.883000  1
  C  C945  1  0.292100  0.818800  0.610100  1
  C  C946  1  0.207900  0.681200  0.110100  1
  C  C947  1  0.707900  0.181200  0.389900  1
  C  C948  1  0.792100  0.318800  0.889900  1
  C  C949  1  0.254200  0.849600  0.609000  1
  C  C950  1  0.245800  0.650400  0.109000  1
  C  C951  1  0.745800  0.150400  0.391000  1
  C  C952  1  0.754200  0.349600  0.891000  1
  C  C953  1  0.228000  0.926300  0.612800  1
  C  C954  1  0.272000  0.573700  0.112800  1
  C  C955  1  0.772000  0.073700  0.387200  1
  C  C956  1  0.728000  0.426300  0.887200  1
  C  C957  1  0.198500  0.931100  0.584100  1
  C  C958  1  0.301500  0.568900  0.084100  1
  C  C959  1  0.801500  0.068900  0.415900  1
  C  C960  1  0.698500  0.431100  0.915900  1
  C  C961  1  0.202100  0.914500  0.548500  1
  C  C962  1  0.297900  0.585500  0.048500  1
  C  C963  1  0.797900  0.085500  0.451500  1
  C  C964  1  0.702100  0.414500  0.951500  1
  C  C965  1  0.116600  0.996400  0.529500  1
  C  C966  1  0.383400  0.503600  0.029500  1
  C  C967  1  0.883400  0.003600  0.470500  1
  C  C968  1  0.616600  0.496400  0.970500  1
  C  C969  1  0.163200  0.966000  0.581800  1
  C  C970  1  0.336800  0.534000  0.081800  1
  C  C971  1  0.836800  0.034000  0.418200  1
  C  C972  1  0.663200  0.466000  0.918200  1
  C  C973  1  0.444900  0.925200  0.622900  1
  C  C974  1  0.055100  0.574800  0.122900  1
  C  C975  1  0.555100  0.074800  0.377100  1
  C  C976  1  0.944900  0.425200  0.877100  1
  C  C977  1  0.115600  0.037400  0.541000  1
  C  C978  1  0.384400  0.462600  0.041000  1
  C  C979  1  0.884400  0.962600  0.459000  1
  C  C980  1  0.615600  0.537400  0.959000  1
  C  C981  1  0.090600  0.067200  0.522000  1
  C  C982  1  0.409400  0.432800  0.022000  1
  C  C983  1  0.909400  0.932800  0.478000  1
  C  C984  1  0.590600  0.567200  0.978000  1
  C  C985  1  0.067600  0.055100  0.491400  1
  C  C986  1  0.432400  0.444900  0.991400  1
  C  C987  1  0.932400  0.944900  0.508600  1
  C  C988  1  0.567600  0.555100  0.008600  1
  C  C989  1  0.067700  0.013800  0.480300  1
  C  C990  1  0.432300  0.486200  0.980300  1
  C  C991  1  0.932300  0.986200  0.519700  1
  C  C992  1  0.567700  0.513800  0.019700  1
  C  C993  1  0.091900  0.983900  0.499700  1
  C  C994  1  0.408100  0.516100  0.999700  1
  C  C995  1  0.908100  0.016100  0.500300  1
  C  C996  1  0.591900  0.483900  0.000300  1
  C  C997  1  0.233000  0.881200  0.535100  1
  C  C998  1  0.267000  0.618800  0.035100  1
  C  C999  1  0.767000  0.118800  0.464900  1
  C  C1000  1  0.733000  0.381200  0.964900  1
  C  C1001  1  0.418200  0.888300  0.634500  1
  C  C1002  1  0.081800  0.611700  0.134500  1
  C  C1003  1  0.581800  0.111700  0.365500  1
  C  C1004  1  0.918200  0.388300  0.865500  1
  C  C1005  1  0.434500  0.956100  0.598000  1
  C  C1006  1  0.065500  0.543900  0.098000  1
  C  C1007  1  0.565500  0.043900  0.402000  1
  C  C1008  1  0.934500  0.456100  0.902000  1
  C  C1009  1  0.493400  0.940200  0.636700  1
  C  C1010  1  0.006600  0.559800  0.136700  1
  C  C1011  1  0.506600  0.059800  0.363300  1
  C  C1012  1  0.993400  0.440200  0.863300  1
  C  C1013  1  0.389800  0.957600  0.571500  1
  C  C1014  1  0.110200  0.542400  0.071500  1
  C  C1015  1  0.610200  0.042400  0.428500  1
  C  C1016  1  0.889800  0.457600  0.928500  1
  C  C1017  1  0.554300  0.005800  0.628200  1
  C  C1018  1  0.945700  0.494200  0.128200  1
  C  C1019  1  0.445700  0.994200  0.371800  1
  C  C1020  1  0.054300  0.505800  0.871800  1
  C  C1021  1  0.577000  0.008700  0.659600  1
  C  C1022  1  0.923000  0.491300  0.159600  1
  C  C1023  1  0.423000  0.991300  0.340400  1
  C  C1024  1  0.077000  0.508700  0.840400  1
  C  C1025  1  0.620500  0.037100  0.666000  1
  C  C1026  1  0.879500  0.462900  0.166000  1
  C  C1027  1  0.379500  0.962900  0.334000  1
  C  C1028  1  0.120500  0.537100  0.834000  1
  C  C1029  1  0.642000  0.061800  0.640200  1
  C  C1030  1  0.858000  0.438200  0.140200  1
  C  C1031  1  0.358000  0.938200  0.359800  1
  C  C1032  1  0.142000  0.561800  0.859800  1
  C  C1033  1  0.619300  0.058000  0.608400  1
  C  C1034  1  0.880700  0.442000  0.108400  1
  C  C1035  1  0.380700  0.942000  0.391600  1
  C  C1036  1  0.119300  0.558000  0.891600  1
  C  C1037  1  0.575300  0.030400  0.602400  1
  C  C1038  1  0.924700  0.469600  0.102400  1
  C  C1039  1  0.424700  0.969600  0.397600  1
  C  C1040  1  0.075300  0.530400  0.897600  1
  C  C1041  1  0.276500  0.772700  0.604300  1
  C  C1042  1  0.223500  0.727300  0.104300  1
  C  C1043  1  0.723500  0.227300  0.395700  1
  C  C1044  1  0.776500  0.272700  0.895700  1
  C  C1045  1  0.303500  0.750000  0.581100  1
  C  C1046  1  0.196500  0.750000  0.081100  1
  C  C1047  1  0.696500  0.250000  0.418900  1
  C  C1048  1  0.803500  0.250000  0.918900  1
  C  C1049  1  0.341000  0.760300  0.554100  1
  C  C1050  1  0.159000  0.739700  0.054100  1
  C  C1051  1  0.659000  0.239700  0.445900  1
  C  C1052  1  0.841000  0.260300  0.945900  1
  C  C1053  1  0.359700  0.806000  0.540400  1
  C  C1054  1  0.140300  0.694000  0.040400  1
  C  C1055  1  0.640300  0.194000  0.459600  1
  C  C1056  1  0.859700  0.306000  0.959600  1
  C  C1057  1  0.296000  0.705600  0.578400  1
  C  C1058  1  0.204000  0.794400  0.078400  1
  C  C1059  1  0.704000  0.294400  0.421600  1
  C  C1060  1  0.796000  0.205600  0.921600  1
  C  C1061  1  0.341000  0.649900  0.541900  1
  C  C1062  1  0.159000  0.850100  0.041900  1
  C  C1063  1  0.659000  0.350100  0.458100  1
  C  C1064  1  0.841000  0.149900  0.958100  1
  C  C1065  1  0.304600  0.617100  0.547500  1
  C  C1066  1  0.195400  0.882900  0.047500  1
  C  C1067  1  0.695400  0.382900  0.452500  1
  C  C1068  1  0.804600  0.117100  0.952500  1
  C  C1069  1  0.317800  0.576400  0.537100  1
  C  C1070  1  0.182200  0.923600  0.037100  1
  C  C1071  1  0.682200  0.423600  0.462900  1
  C  C1072  1  0.817800  0.076400  0.962900  1
  C  C1073  1  0.389600  0.645300  0.527300  1
  C  C1074  1  0.110400  0.854700  0.027300  1
  C  C1075  1  0.610400  0.354700  0.472700  1
  C  C1076  1  0.889600  0.145300  0.972700  1
  C  C1077  1  0.401700  0.605500  0.516100  1
  C  C1078  1  0.098300  0.894500  0.016100  1
  C  C1079  1  0.598300  0.394500  0.483900  1
  C  C1080  1  0.901700  0.105500  0.983900  1
  C  C1081  1  0.366000  0.572200  0.521800  1
  C  C1082  1  0.134000  0.927800  0.021800  1
  C  C1083  1  0.634000  0.427800  0.478200  1
  C  C1084  1  0.866000  0.072200  0.978200  1
  C  C1085  1  0.341200  0.015400  0.698900  1
  C  C1086  1  0.158800  0.484600  0.198900  1
  C  C1087  1  0.658800  0.984600  0.301100  1
  C  C1088  1  0.841200  0.515400  0.801100  1
  C  C1089  1  0.382300  0.987300  0.697000  1
  C  C1090  1  0.117700  0.512700  0.197000  1
  C  C1091  1  0.617700  0.012700  0.303000  1
  C  C1092  1  0.882300  0.487300  0.803000  1
  C  C1093  1  0.410700  0.974700  0.726400  1
  C  C1094  1  0.089300  0.525300  0.226400  1
  C  C1095  1  0.589300  0.025300  0.273600  1
  C  C1096  1  0.910700  0.474700  0.773600  1
  C  C1097  1  0.395900  0.990800  0.757600  1
  C  C1098  1  0.104100  0.509200  0.257600  1
  C  C1099  1  0.604100  0.009200  0.242400  1
  C  C1100  1  0.895900  0.490800  0.742400  1
  C  C1101  1  0.353700  0.018200  0.760600  1
  C  C1102  1  0.146300  0.481800  0.260600  1
  C  C1103  1  0.646300  0.981800  0.239400  1
  C  C1104  1  0.853700  0.518200  0.739400  1
  C  C1105  1  0.325800  0.030100  0.731900  1
  C  C1106  1  0.174200  0.469900  0.231900  1
  C  C1107  1  0.674200  0.969900  0.268100  1
  C  C1108  1  0.825800  0.530100  0.768100  1
  C  C1109  1  0.307900  0.024000  0.669200  1
  C  C1110  1  0.192100  0.476000  0.169200  1
  C  C1111  1  0.692100  0.976000  0.330800  1
  C  C1112  1  0.807900  0.524000  0.830800  1
  C  C1113  1  0.329100  0.036600  0.637800  1
  C  C1114  1  0.170900  0.463400  0.137800  1
  C  C1115  1  0.670900  0.963400  0.362200  1
  C  C1116  1  0.829100  0.536600  0.862200  1
  C  C1117  1  0.298500  0.039600  0.608200  1
  C  C1118  1  0.201500  0.460400  0.108200  1
  C  C1119  1  0.701500  0.960400  0.391800  1
  C  C1120  1  0.798500  0.539600  0.891800  1
  C  C1121  1  0.327900  0.058300  0.584000  1
  C  C1122  1  0.172100  0.441700  0.084000  1
  C  C1123  1  0.672100  0.941700  0.416000  1
  C  C1124  1  0.827900  0.558300  0.916000  1
  C  C1125  1  0.429800  0.065800  0.650100  1
  C  C1126  1  0.070200  0.434200  0.150100  1
  C  C1127  1  0.570200  0.934200  0.349900  1
  C  C1128  1  0.929800  0.565800  0.849900  1
  C  C1129  1  0.314100  0.070500  0.551400  1
  C  C1130  1  0.185900  0.429500  0.051400  1
  C  C1131  1  0.685900  0.929500  0.448600  1
  C  C1132  1  0.814100  0.570500  0.948600  1
  C  C1133  1  0.275600  0.045600  0.533600  1
  C  C1134  1  0.224400  0.454400  0.033600  1
  C  C1135  1  0.724400  0.954400  0.466400  1
  C  C1136  1  0.775600  0.545600  0.966400  1
  C  C1137  1  0.259300  0.058500  0.501300  1
  C  C1138  1  0.240700  0.441500  0.001300  1
  C  C1139  1  0.740700  0.941500  0.498700  1
  C  C1140  1  0.759300  0.558500  0.998700  1
  C  C1141  1  0.284100  0.095500  0.486800  1
  C  C1142  1  0.215900  0.404500  0.986800  1
  C  C1143  1  0.715900  0.904500  0.513200  1
  C  C1144  1  0.784100  0.595500  0.013200  1
  C  C1145  1  0.323300  0.119600  0.504100  1
  C  C1146  1  0.176700  0.380400  0.004100  1
  C  C1147  1  0.676700  0.880400  0.495900  1
  C  C1148  1  0.823300  0.619600  0.995900  1
  C  C1149  1  0.339500  0.106600  0.536600  1
  C  C1150  1  0.160500  0.393400  0.036600  1
  C  C1151  1  0.660500  0.893400  0.463400  1
  C  C1152  1  0.839500  0.606600  0.963400  1
  C  C1153  1  0.454400  0.945900  0.722600  1
  C  C1154  1  0.045600  0.554100  0.222600  1
  C  C1155  1  0.545600  0.054100  0.277400  1
  C  C1156  1  0.954400  0.445900  0.777400  1
  C  C1157  1  0.506500  0.956900  0.734500  1
  C  C1158  1  0.993500  0.543100  0.234500  1
  C  C1159  1  0.493500  0.043100  0.265500  1
  C  C1160  1  0.006500  0.456900  0.765500  1
  C  C1161  1  0.533800  0.996900  0.746700  1
  C  C1162  1  0.966200  0.503100  0.246700  1
  C  C1163  1  0.466200  0.003100  0.253300  1
  C  C1164  1  0.033800  0.496900  0.753300  1
  C  C1165  1  0.513800  0.041300  0.751300  1
  C  C1166  1  0.986200  0.458700  0.251300  1
  C  C1167  1  0.486200  0.958700  0.248700  1
  C  C1168  1  0.013800  0.541300  0.748700  1
  C  C1169  1  0.547600  0.928900  0.734100  1
  C  C1170  1  0.952400  0.571100  0.234100  1
  C  C1171  1  0.452400  0.071100  0.265900  1
  C  C1172  1  0.047600  0.428900  0.765900  1
  C  C1173  1  0.647100  0.938200  0.748400  1
  C  C1174  1  0.852900  0.561800  0.248400  1
  C  C1175  1  0.352900  0.061800  0.251600  1
  C  C1176  1  0.147100  0.438200  0.751600  1
  C  C1177  1  0.690200  0.966400  0.742700  1
  C  C1178  1  0.809800  0.533600  0.242700  1
  C  C1179  1  0.309800  0.033600  0.257300  1
  C  C1180  1  0.190200  0.466400  0.757300  1
  C  C1181  1  0.742200  0.954400  0.748000  1
  C  C1182  1  0.757800  0.545600  0.248000  1
  C  C1183  1  0.257800  0.045600  0.252000  1
  C  C1184  1  0.242200  0.454400  0.752000  1
  C  C1185  1  0.750200  0.914500  0.759500  1
  C  C1186  1  0.749800  0.585500  0.259500  1
  C  C1187  1  0.249800  0.085500  0.240500  1
  C  C1188  1  0.250200  0.414500  0.740500  1
  C  C1189  1  0.706900  0.885900  0.766200  1
  C  C1190  1  0.793100  0.614100  0.266200  1
  C  C1191  1  0.293100  0.114100  0.233800  1
  C  C1192  1  0.206900  0.385900  0.733800  1
  C  C1193  1  0.654600  0.897500  0.760200  1
  C  C1194  1  0.845400  0.602500  0.260200  1
  C  C1195  1  0.345400  0.102500  0.239800  1
  C  C1196  1  0.154600  0.397500  0.739800  1
  C  C1197  1  0.337300  0.035500  0.794900  1
  C  C1198  1  0.162700  0.464500  0.294900  1
  C  C1199  1  0.662700  0.964500  0.205100  1
  C  C1200  1  0.837300  0.535500  0.705100  1
  C  C1201  1  0.341400  0.077200  0.802700  1
  C  C1202  1  0.158600  0.422800  0.302700  1
  C  C1203  1  0.658600  0.922800  0.197300  1
  C  C1204  1  0.841400  0.577200  0.697300  1
  C  C1205  1  0.369200  0.113300  0.785900  1
  C  C1206  1  0.130800  0.386700  0.285900  1
  C  C1207  1  0.630800  0.886700  0.214100  1
  C  C1208  1  0.869200  0.613300  0.714100  1
  C  C1209  1  0.398900  0.116200  0.752800  1
  C  C1210  1  0.101100  0.383800  0.252800  1
  C  C1211  1  0.601100  0.883800  0.247200  1
  C  C1212  1  0.898900  0.616200  0.747200  1
  C  C1213  1  0.323300  0.094700  0.834200  1
  C  C1214  1  0.176700  0.405300  0.334200  1
  C  C1215  1  0.676700  0.905300  0.165800  1
  C  C1216  1  0.823300  0.594700  0.665800  1
  C  C1217  1  0.333600  0.166700  0.860400  1
  C  C1218  1  0.166400  0.333300  0.360400  1
  C  C1219  1  0.666400  0.833300  0.139600  1
  C  C1220  1  0.833600  0.666700  0.639600  1
  C  C1221  1  0.328100  0.208200  0.850800  1
  C  C1222  1  0.171900  0.291800  0.350800  1
  C  C1223  1  0.671900  0.791800  0.149200  1
  C  C1224  1  0.828100  0.708200  0.649200  1
  C  C1225  1  0.324700  0.239300  0.875800  1
  C  C1226  1  0.175300  0.260700  0.375800  1
  C  C1227  1  0.675300  0.760700  0.124200  1
  C  C1228  1  0.824700  0.739300  0.624200  1
  C  C1229  1  0.326100  0.228000  0.909600  1
  C  C1230  1  0.173900  0.272000  0.409600  1
  C  C1231  1  0.673900  0.772000  0.090400  1
  C  C1232  1  0.826100  0.728000  0.590400  1
  C  C1233  1  0.332200  0.186500  0.919400  1
  C  C1234  1  0.167800  0.313500  0.419400  1
  C  C1235  1  0.667800  0.813500  0.080600  1
  C  C1236  1  0.832200  0.686500  0.580600  1
  C  C1237  1  0.335600  0.155700  0.893900  1
  C  C1238  1  0.164400  0.344300  0.393900  1
  C  C1239  1  0.664400  0.844300  0.106100  1
  C  C1240  1  0.835600  0.655700  0.606100  1
  C  C1241  1  0.119300  0.002100  0.734100  1
  C  C1242  1  0.380700  0.497900  0.234100  1
  C  C1243  1  0.880700  0.997900  0.265900  1
  C  C1244  1  0.619300  0.502100  0.765900  1
  C  C1245  1  0.145300  0.017000  0.762600  1
  C  C1246  1  0.354700  0.483000  0.262600  1
  C  C1247  1  0.854700  0.983000  0.237400  1
  C  C1248  1  0.645300  0.517000  0.737400  1
  C  C1249  1  0.134600  0.998700  0.795300  1
  C  C1250  1  0.365400  0.501300  0.295300  1
  C  C1251  1  0.865400  0.001300  0.204700  1
  C  C1252  1  0.634600  0.498700  0.704700  1
  C  C1253  1  0.094700  0.966100  0.797700  1
  C  C1254  1  0.405300  0.533900  0.297700  1
  C  C1255  1  0.905300  0.033900  0.202300  1
  C  C1256  1  0.594700  0.466100  0.702300  1
  C  C1257  1  0.068900  0.951000  0.768600  1
  C  C1258  1  0.431100  0.549000  0.268600  1
  C  C1259  1  0.931100  0.049000  0.231400  1
  C  C1260  1  0.568900  0.451000  0.731400  1
  C  C1261  1  0.080100  0.968500  0.737500  1
  C  C1262  1  0.419900  0.531500  0.237500  1
  C  C1263  1  0.919900  0.031500  0.262500  1
  C  C1264  1  0.580100  0.468500  0.762500  1
  C  C1265  1  0.134800  0.020500  0.700000  1
  C  C1266  1  0.365200  0.479500  0.200000  1
  C  C1267  1  0.865200  0.979500  0.300000  1
  C  C1268  1  0.634800  0.520500  0.800000  1
  C  C1269  1  0.105800  0.096700  0.709600  1
  C  C1270  1  0.394200  0.403300  0.209600  1
  C  C1271  1  0.894200  0.903300  0.290400  1
  C  C1272  1  0.605800  0.596700  0.790400  1
  C  C1273  1  0.131700  0.063800  0.693400  1
  C  C1274  1  0.368300  0.436200  0.193400  1
  C  C1275  1  0.868300  0.936200  0.306600  1
  C  C1276  1  0.631700  0.563800  0.806600  1
  C  C1277  1  0.079900  0.096800  0.743200  1
  C  C1278  1  0.420100  0.403200  0.243200  1
  C  C1279  1  0.920100  0.903200  0.256800  1
  C  C1280  1  0.579900  0.596800  0.756800  1
  C  C1281  1  0.148200  0.081000  0.661300  1
  C  C1282  1  0.351800  0.419000  0.161300  1
  C  C1283  1  0.851800  0.919000  0.338700  1
  C  C1284  1  0.648200  0.581000  0.838700  1
  C  C1285  1  0.135400  0.152000  0.634100  1
  C  C1286  1  0.364600  0.348000  0.134100  1
  C  C1287  1  0.864600  0.848000  0.365900  1
  C  C1288  1  0.635400  0.652000  0.865900  1
  C  C1289  1  0.123100  0.194100  0.641800  1
  C  C1290  1  0.376900  0.305900  0.141800  1
  C  C1291  1  0.876900  0.805900  0.358200  1
  C  C1292  1  0.623100  0.694100  0.858200  1
  C  C1293  1  0.123400  0.224400  0.615200  1
  C  C1294  1  0.376600  0.275600  0.115200  1
  C  C1295  1  0.876600  0.775600  0.384800  1
  C  C1296  1  0.623400  0.724400  0.884800  1
  C  C1297  1  0.135900  0.212900  0.581800  1
  C  C1298  1  0.364100  0.287100  0.081800  1
  C  C1299  1  0.864100  0.787100  0.418200  1
  C  C1300  1  0.635900  0.712900  0.918200  1
  C  C1301  1  0.150100  0.171300  0.574400  1
  C  C1302  1  0.349900  0.328700  0.074400  1
  C  C1303  1  0.849900  0.828700  0.425600  1
  C  C1304  1  0.650100  0.671300  0.925600  1
  C  C1305  1  0.150100  0.141200  0.600900  1
  C  C1306  1  0.349900  0.358800  0.100900  1
  C  C1307  1  0.849900  0.858800  0.399100  1
  C  C1308  1  0.650100  0.641200  0.899100  1
  C  C1309  1  0.975300  0.915100  0.760000  1
  C  C1310  1  0.524700  0.584900  0.260000  1
  C  C1311  1  0.024700  0.084900  0.240000  1
  C  C1312  1  0.475300  0.415100  0.740000  1
  C  C1313  1  0.026200  0.914100  0.772200  1
  C  C1314  1  0.473800  0.585900  0.272200  1
  C  C1315  1  0.973800  0.085900  0.227800  1
  C  C1316  1  0.526200  0.414100  0.727800  1
  C  C1317  1  0.945200  0.947700  0.744400  1
  C  C1318  1  0.554800  0.552300  0.244400  1
  C  C1319  1  0.054800  0.052300  0.255600  1
  C  C1320  1  0.445200  0.447700  0.755600  1
  C  C1321  1  0.958500  0.994200  0.744700  1
  C  C1322  1  0.541500  0.505800  0.244700  1
  C  C1323  1  0.041500  0.005800  0.255300  1
  C  C1324  1  0.458500  0.494200  0.755300  1
  C  C1325  1  0.940200  0.877200  0.756100  1
  C  C1326  1  0.559800  0.622800  0.256100  1
  C  C1327  1  0.059800  0.122800  0.243900  1
  C  C1328  1  0.440200  0.377200  0.743900  1
  C  C1329  1  0.854500  0.862800  0.723500  1
  C  C1330  1  0.645500  0.637200  0.223500  1
  C  C1331  1  0.145500  0.137200  0.276500  1
  C  C1332  1  0.354500  0.362800  0.776500  1
  C  C1333  1  0.835300  0.824600  0.739200  1
  C  C1334  1  0.664700  0.675400  0.239200  1
  C  C1335  1  0.164700  0.175400  0.260800  1
  C  C1336  1  0.335300  0.324600  0.760800  1
  C  C1337  1  0.794900  0.798900  0.723200  1
  C  C1338  1  0.705100  0.701100  0.223200  1
  C  C1339  1  0.205100  0.201100  0.276800  1
  C  C1340  1  0.294900  0.298900  0.776800  1
  C  C1341  1  0.775100  0.810800  0.691400  1
  C  C1342  1  0.724900  0.689200  0.191400  1
  C  C1343  1  0.224900  0.189200  0.308600  1
  C  C1344  1  0.275100  0.310800  0.808600  1
  C  C1345  1  0.794700  0.848200  0.675900  1
  C  C1346  1  0.705300  0.651800  0.175900  1
  C  C1347  1  0.205300  0.151800  0.324100  1
  C  C1348  1  0.294700  0.348200  0.824100  1
  C  C1349  1  0.835200  0.873800  0.691700  1
  C  C1350  1  0.664800  0.626200  0.191700  1
  C  C1351  1  0.164800  0.126200  0.308300  1
  C  C1352  1  0.335200  0.373800  0.808300  1
  C  C1353  1  0.164600  0.013200  0.826500  1
  C  C1354  1  0.335400  0.486800  0.326500  1
  C  C1355  1  0.835400  0.986800  0.173500  1
  C  C1356  1  0.664600  0.513200  0.673500  1
  C  C1357  1  0.141800  0.019700  0.858200  1
  C  C1358  1  0.358200  0.480300  0.358200  1
  C  C1359  1  0.858200  0.980300  0.141800  1
  C  C1360  1  0.641800  0.519700  0.641800  1
  C  C1361  1  0.086300  0.025600  0.869000  1
  C  C1362  1  0.413700  0.474400  0.369000  1
  C  C1363  1  0.913700  0.974400  0.131000  1
  C  C1364  1  0.586300  0.525600  0.631000  1
  C  C1365  1  0.035700  0.027600  0.848200  1
  C  C1366  1  0.464300  0.472400  0.348200  1
  C  C1367  1  0.964300  0.972400  0.151800  1
  C  C1368  1  0.535700  0.527600  0.651800  1
  C  C1369  1  0.170300  0.026400  0.887300  1
  C  C1370  1  0.329700  0.473600  0.387300  1
  C  C1371  1  0.829700  0.973600  0.112700  1
  C  C1372  1  0.670300  0.526400  0.612700  1
  C  C1373  1  0.150600  0.042800  0.950200  1
  C  C1374  1  0.349400  0.457200  0.450200  1
  C  C1375  1  0.849400  0.957200  0.049800  1
  C  C1376  1  0.650600  0.542800  0.549800  1
  C  C1377  1  0.119000  0.071700  0.965400  1
  C  C1378  1  0.381000  0.428300  0.465400  1
  C  C1379  1  0.881000  0.928300  0.034600  1
  C  C1380  1  0.619000  0.571700  0.534600  1
  C  C1381  1  0.192100  0.026200  0.966400  1
  C  C1382  1  0.307900  0.473800  0.466400  1
  C  C1383  1  0.807900  0.973800  0.033600  1
  C  C1384  1  0.692100  0.526200  0.533600  1
  C  C1385  1  0.173900  0.068300  0.014700  1
  C  C1386  1  0.326100  0.431700  0.514700  1
  C  C1387  1  0.826100  0.931700  0.985300  1
  C  C1388  1  0.673900  0.568300  0.485300  1
  C  C1389  1  0.132800  0.085400  0.998000  1
  C  C1390  1  0.367200  0.414600  0.498000  1
  C  C1391  1  0.867200  0.914600  0.002000  1
  C  C1392  1  0.632800  0.585400  0.502000  1
  C  C1393  1  0.205100  0.039400  0.999900  1
  C  C1394  1  0.294900  0.460600  0.499900  1
  C  C1395  1  0.794900  0.960600  0.000100  1
  C  C1396  1  0.705100  0.539400  0.500100  1
  C  C1397  1  0.423800  0.755200  0.720100  1
  C  C1398  1  0.076200  0.744800  0.220100  1
  C  C1399  1  0.576200  0.244800  0.279900  1
  C  C1400  1  0.923800  0.255200  0.779900  1
  C  C1401  1  0.417200  0.752200  0.755900  1
  C  C1402  1  0.082800  0.747800  0.255900  1
  C  C1403  1  0.582800  0.247800  0.244100  1
  C  C1404  1  0.917200  0.252200  0.744100  1
  C  C1405  1  0.377700  0.723300  0.768800  1
  C  C1406  1  0.122300  0.776700  0.268800  1
  C  C1407  1  0.622300  0.276700  0.231200  1
  C  C1408  1  0.877700  0.223300  0.731200  1
  C  C1409  1  0.342600  0.699900  0.747200  1
  C  C1410  1  0.157400  0.800100  0.247200  1
  C  C1411  1  0.657400  0.300100  0.252800  1
  C  C1412  1  0.842600  0.199900  0.752800  1
  C  C1413  1  0.348200  0.702700  0.713000  1
  C  C1414  1  0.151800  0.797300  0.213000  1
  C  C1415  1  0.651800  0.297300  0.287000  1
  C  C1416  1  0.848200  0.202700  0.787000  1
  C  C1417  1  0.390300  0.731900  0.698900  1
  C  C1418  1  0.109700  0.768100  0.198900  1
  C  C1419  1  0.609700  0.268100  0.301100  1
  C  C1420  1  0.890300  0.231900  0.801100  1
  C  C1421  1  0.467600  0.786000  0.705500  1
  C  C1422  1  0.032400  0.714000  0.205500  1
  C  C1423  1  0.532400  0.214000  0.294500  1
  C  C1424  1  0.967600  0.286000  0.794500  1
  C  C1425  1  0.507500  0.770700  0.684300  1
  C  C1426  1  0.992500  0.729300  0.184300  1
  C  C1427  1  0.492500  0.229300  0.315700  1
  C  C1428  1  0.007500  0.270700  0.815700  1
  C  C1429  1  0.522300  0.727900  0.677000  1
  C  C1430  1  0.977700  0.772100  0.177000  1
  C  C1431  1  0.477700  0.272100  0.323000  1
  C  C1432  1  0.022300  0.227900  0.823000  1
  C  C1433  1  0.499400  0.685400  0.690100  1
  C  C1434  1  0.000600  0.814600  0.190100  1
  C  C1435  1  0.500600  0.314600  0.309900  1
  C  C1436  1  0.999400  0.185400  0.809900  1
  C  C1437  1  0.543800  0.797700  0.666200  1
  C  C1438  1  0.956200  0.702300  0.166200  1
  C  C1439  1  0.456200  0.202300  0.333800  1
  C  C1440  1  0.043800  0.297700  0.833800  1
  C  C1441  1  0.651000  0.820100  0.630300  1
  C  C1442  1  0.849000  0.679900  0.130300  1
  C  C1443  1  0.349000  0.179900  0.369700  1
  C  C1444  1  0.151000  0.320100  0.869700  1
  C  C1445  1  0.692900  0.828800  0.607400  1
  C  C1446  1  0.807100  0.671200  0.107400  1
  C  C1447  1  0.307100  0.171200  0.392600  1
  C  C1448  1  0.192900  0.328800  0.892600  1
  C  C1449  1  0.701800  0.801200  0.580700  1
  C  C1450  1  0.798200  0.698800  0.080700  1
  C  C1451  1  0.298200  0.198800  0.419300  1
  C  C1452  1  0.201800  0.301200  0.919300  1
  C  C1453  1  0.669100  0.763400  0.577700  1
  C  C1454  1  0.830900  0.736600  0.077700  1
  C  C1455  1  0.330900  0.236600  0.422300  1
  C  C1456  1  0.169100  0.263400  0.922300  1
  C  C1457  1  0.627700  0.754700  0.601400  1
  C  C1458  1  0.872300  0.745300  0.101400  1
  C  C1459  1  0.372300  0.245300  0.398600  1
  C  C1460  1  0.127700  0.254700  0.898600  1
  C  C1461  1  0.618900  0.782700  0.627600  1
  C  C1462  1  0.881100  0.717300  0.127600  1
  C  C1463  1  0.381100  0.217300  0.372400  1
  C  C1464  1  0.118900  0.282700  0.872400  1
  C  C1465  1  0.368800  0.720100  0.806200  1
  C  C1466  1  0.131200  0.779900  0.306200  1
  C  C1467  1  0.631200  0.279900  0.193800  1
  C  C1468  1  0.868800  0.220100  0.693800  1
  C  C1469  1  0.405900  0.708400  0.831000  1
  C  C1470  1  0.094100  0.791600  0.331000  1
  C  C1471  1  0.594100  0.291600  0.169000  1
  C  C1472  1  0.905900  0.208400  0.669000  1
  C  C1473  1  0.459000  0.693600  0.828000  1
  C  C1474  1  0.041000  0.806400  0.328000  1
  C  C1475  1  0.541000  0.306400  0.172000  1
  C  C1476  1  0.959000  0.193600  0.672000  1
  C  C1477  1  0.494800  0.691900  0.797400  1
  C  C1478  1  0.005200  0.808100  0.297400  1
  C  C1479  1  0.505200  0.308100  0.202600  1
  C  C1480  1  0.994800  0.191900  0.702600  1
  C  C1481  1  0.392600  0.701400  0.866100  1
  C  C1482  1  0.107400  0.798600  0.366100  1
  C  C1483  1  0.607400  0.298600  0.133900  1
  C  C1484  1  0.892600  0.201400  0.633900  1
  C  C1485  1  0.442700  0.671800  0.914300  1
  C  C1486  1  0.057300  0.828200  0.414300  1
  C  C1487  1  0.557300  0.328200  0.085700  1
  C  C1488  1  0.942700  0.171800  0.585700  1
  C  C1489  1  0.492400  0.678600  0.929700  1
  C  C1490  1  0.007600  0.821400  0.429700  1
  C  C1491  1  0.507600  0.321400  0.070300  1
  C  C1492  1  0.992400  0.178600  0.570300  1
  C  C1493  1  0.499600  0.663800  0.962400  1
  C  C1494  1  0.000400  0.836200  0.462400  1
  C  C1495  1  0.500400  0.336200  0.037600  1
  C  C1496  1  0.999600  0.163800  0.537600  1
  C  C1497  1  0.457500  0.642100  0.978800  1
  C  C1498  1  0.042500  0.857900  0.478800  1
  C  C1499  1  0.542500  0.357900  0.021200  1
  C  C1500  1  0.957500  0.142100  0.521200  1
  C  C1501  1  0.408200  0.635000  0.964000  1
  C  C1502  1  0.091800  0.865000  0.464000  1
  C  C1503  1  0.591800  0.365000  0.036000  1
  C  C1504  1  0.908200  0.135000  0.536000  1
  C  C1505  1  0.400200  0.651200  0.931200  1
  C  C1506  1  0.099800  0.848800  0.431200  1
  C  C1507  1  0.599800  0.348800  0.068800  1
  C  C1508  1  0.900200  0.151200  0.568800  1
  C  C1509  1  0.309500  0.682400  0.688300  1
  C  C1510  1  0.190500  0.817600  0.188300  1
  C  C1511  1  0.690500  0.317600  0.311700  1
  C  C1512  1  0.809500  0.182400  0.811700  1
  C  C1513  1  0.307700  0.604600  0.711100  1
  C  C1514  1  0.192300  0.895400  0.211100  1
  C  C1515  1  0.692300  0.395400  0.288900  1
  C  C1516  1  0.807700  0.104600  0.788900  1
  C  C1517  1  0.290400  0.639000  0.691800  1
  C  C1518  1  0.209600  0.861000  0.191800  1
  C  C1519  1  0.709600  0.361000  0.308200  1
  C  C1520  1  0.790400  0.139000  0.808200  1
  C  C1521  1  0.352700  0.600800  0.735400  1
  C  C1522  1  0.147300  0.899200  0.235400  1
  C  C1523  1  0.647300  0.399200  0.264600  1
  C  C1524  1  0.852700  0.100800  0.764600  1
  C  C1525  1  0.247800  0.621700  0.670100  1
  C  C1526  1  0.252200  0.878300  0.170100  1
  C  C1527  1  0.752200  0.378300  0.329900  1
  C  C1528  1  0.747800  0.121700  0.829900  1
  C  C1529  1  0.210100  0.547800  0.659500  1
  C  C1530  1  0.289900  0.952200  0.159500  1
  C  C1531  1  0.789900  0.452200  0.340500  1
  C  C1532  1  0.710100  0.047800  0.840500  1
  C  C1533  1  0.200300  0.509500  0.675600  1
  C  C1534  1  0.299700  0.990500  0.175600  1
  C  C1535  1  0.799700  0.490500  0.324400  1
  C  C1536  1  0.700300  0.009500  0.824400  1
  C  C1537  1  0.169000  0.477000  0.659300  1
  C  C1538  1  0.331000  0.023000  0.159300  1
  C  C1539  1  0.831000  0.523000  0.340700  1
  C  C1540  1  0.669000  0.977000  0.840700  1
  C  C1541  1  0.160500  0.479700  0.623900  1
  C  C1542  1  0.339500  0.020300  0.123900  1
  C  C1543  1  0.839500  0.520300  0.376100  1
  C  C1544  1  0.660500  0.979700  0.876100  1
  C  C1545  1  0.178000  0.516500  0.605800  1
  C  C1546  1  0.322000  0.983500  0.105800  1
  C  C1547  1  0.822000  0.483500  0.394200  1
  C  C1548  1  0.678000  0.016500  0.894200  1
  C  C1549  1  0.203600  0.550800  0.623600  1
  C  C1550  1  0.296400  0.949200  0.123600  1
  C  C1551  1  0.796400  0.449200  0.376400  1
  C  C1552  1  0.703600  0.050800  0.876400  1
  C  C1553  1  0.202900  0.811800  0.883900  1
  C  C1554  1  0.297100  0.688200  0.383900  1
  C  C1555  1  0.797100  0.188200  0.116100  1
  C  C1556  1  0.702900  0.311800  0.616100  1
  C  C1557  1  0.235500  0.848900  0.885000  1
  C  C1558  1  0.264500  0.651100  0.385000  1
  C  C1559  1  0.764500  0.151100  0.115000  1
  C  C1560  1  0.735500  0.348900  0.615000  1
  C  C1561  1  0.216300  0.888200  0.879100  1
  C  C1562  1  0.283700  0.611800  0.379100  1
  C  C1563  1  0.783700  0.111800  0.120900  1
  C  C1564  1  0.716300  0.388200  0.620900  1
  C  C1565  1  0.161300  0.890500  0.870500  1
  C  C1566  1  0.338700  0.609500  0.370500  1
  C  C1567  1  0.838700  0.109500  0.129500  1
  C  C1568  1  0.661300  0.390500  0.629500  1
  C  C1569  1  0.127200  0.854000  0.869400  1
  C  C1570  1  0.372800  0.646000  0.369400  1
  C  C1571  1  0.872800  0.146000  0.130600  1
  C  C1572  1  0.627200  0.354000  0.630600  1
  C  C1573  1  0.147500  0.814300  0.876200  1
  C  C1574  1  0.352500  0.685700  0.376200  1
  C  C1575  1  0.852500  0.185700  0.123800  1
  C  C1576  1  0.647500  0.314300  0.623800  1
  C  C1577  1  0.221600  0.770200  0.889600  1
  C  C1578  1  0.278400  0.729800  0.389600  1
  C  C1579  1  0.778400  0.229800  0.110400  1
  C  C1580  1  0.721600  0.270200  0.610400  1
  C  C1581  1  0.198800  0.738400  0.912800  1
  C  C1582  1  0.301200  0.761600  0.412800  1
  C  C1583  1  0.801200  0.261600  0.087200  1
  C  C1584  1  0.698800  0.238400  0.587200  1
  C  C1585  1  0.161000  0.741500  0.939300  1
  C  C1586  1  0.339000  0.758500  0.439300  1
  C  C1587  1  0.839000  0.258500  0.060700  1
  C  C1588  1  0.661000  0.241500  0.560700  1
  C  C1589  1  0.131100  0.780700  0.951600  1
  C  C1590  1  0.368900  0.719300  0.451600  1
  C  C1591  1  0.868900  0.219300  0.048400  1
  C  C1592  1  0.631100  0.280700  0.548400  1
  C  C1593  1  0.213400  0.697200  0.915400  1
  C  C1594  1  0.286600  0.802800  0.415400  1
  C  C1595  1  0.786600  0.302800  0.084600  1
  C  C1596  1  0.713400  0.197200  0.584600  1
  C  C1597  1  0.184300  0.636800  0.952500  1
  C  C1598  1  0.315700  0.863200  0.452500  1
  C  C1599  1  0.815700  0.363200  0.047500  1
  C  C1600  1  0.684300  0.136800  0.547500  1
  C  C1601  1  0.226700  0.611300  0.945200  1
  C  C1602  1  0.273300  0.888700  0.445200  1
  C  C1603  1  0.773300  0.388700  0.054800  1
  C  C1604  1  0.726700  0.111300  0.554800  1
  C  C1605  1  0.226800  0.569200  0.957400  1
  C  C1606  1  0.273200  0.930800  0.457400  1
  C  C1607  1  0.773200  0.430800  0.042600  1
  C  C1608  1  0.726800  0.069200  0.542600  1
  C  C1609  1  0.183600  0.552800  0.977800  1
  C  C1610  1  0.316400  0.947200  0.477800  1
  C  C1611  1  0.816400  0.447200  0.022200  1
  C  C1612  1  0.683600  0.052800  0.522200  1
  C  C1613  1  0.140500  0.578000  0.985400  1
  C  C1614  1  0.359500  0.922000  0.485400  1
  C  C1615  1  0.859500  0.422000  0.014600  1
  C  C1616  1  0.640500  0.078000  0.514600  1
  C  C1617  1  0.141000  0.619900  0.972700  1
  C  C1618  1  0.359000  0.880100  0.472700  1
  C  C1619  1  0.859000  0.380100  0.027300  1
  C  C1620  1  0.641000  0.119900  0.527300  1
  C  C1621  1  0.070900  0.855900  0.859300  1
  C  C1622  1  0.429100  0.644100  0.359300  1
  C  C1623  1  0.929100  0.144100  0.140700  1
  C  C1624  1  0.570900  0.355900  0.640700  1
  C  C1625  1  0.037600  0.887900  0.872000  1
  C  C1626  1  0.462400  0.612100  0.372000  1
  C  C1627  1  0.962400  0.112100  0.128000  1
  C  C1628  1  0.537600  0.387900  0.628000  1
  C  C1629  1  0.041400  0.918000  0.899500  1
  C  C1630  1  0.458600  0.582000  0.399500  1
  C  C1631  1  0.958600  0.082000  0.100500  1
  C  C1632  1  0.541400  0.418000  0.600500  1
  C  C1633  1  0.087500  0.923600  0.925900  1
  C  C1634  1  0.412500  0.576400  0.425900  1
  C  C1635  1  0.912500  0.076400  0.074100  1
  C  C1636  1  0.587500  0.423600  0.574100  1
  C  C1637  1  0.986900  0.893300  0.857700  1
  C  C1638  1  0.513100  0.606700  0.357700  1
  C  C1639  1  0.013100  0.106700  0.142300  1
  C  C1640  1  0.486900  0.393300  0.642300  1
  C  C1641  1  0.921200  0.947600  0.869400  1
  C  C1642  1  0.578800  0.552400  0.369400  1
  C  C1643  1  0.078800  0.052400  0.130600  1
  C  C1644  1  0.421200  0.447600  0.630600  1
  C  C1645  1  0.901400  0.954400  0.836200  1
  C  C1646  1  0.598600  0.545600  0.336200  1
  C  C1647  1  0.098600  0.045600  0.163800  1
  C  C1648  1  0.401400  0.454400  0.663800  1
  C  C1649  1  0.859800  0.981400  0.830500  1
  C  C1650  1  0.640200  0.518600  0.330500  1
  C  C1651  1  0.140200  0.018600  0.169500  1
  C  C1652  1  0.359800  0.481400  0.669500  1
  C  C1653  1  0.835900  0.001200  0.858800  1
  C  C1654  1  0.664100  0.498800  0.358800  1
  C  C1655  1  0.164100  0.998800  0.141200  1
  C  C1656  1  0.335900  0.501200  0.641200  1
  C  C1657  1  0.855100  0.994500  0.891900  1
  C  C1658  1  0.644900  0.505500  0.391900  1
  C  C1659  1  0.144900  0.005500  0.108100  1
  C  C1660  1  0.355100  0.494500  0.608100  1
  C  C1661  1  0.897900  0.967500  0.897300  1
  C  C1662  1  0.602100  0.532500  0.397300  1
  C  C1663  1  0.102100  0.032500  0.102700  1
  C  C1664  1  0.397900  0.467500  0.602700  1
  C  C1665  1  0.249700  0.929100  0.881000  1
  C  C1666  1  0.250300  0.570900  0.381000  1
  C  C1667  1  0.750300  0.070900  0.119000  1
  C  C1668  1  0.749700  0.429100  0.619000  1
  C  C1669  1  0.278700  0.939700  0.911500  1
  C  C1670  1  0.221300  0.560300  0.411500  1
  C  C1671  1  0.721300  0.060300  0.088500  1
  C  C1672  1  0.778700  0.439700  0.588500  1
  C  C1673  1  0.276600  0.922500  0.945600  1
  C  C1674  1  0.223400  0.577500  0.445600  1
  C  C1675  1  0.723400  0.077500  0.054400  1
  C  C1676  1  0.776600  0.422500  0.554400  1
  C  C1677  1  0.243400  0.883400  0.959300  1
  C  C1678  1  0.256600  0.616600  0.459300  1
  C  C1679  1  0.756600  0.116600  0.040700  1
  C  C1680  1  0.743400  0.383400  0.540700  1
  C  C1681  1  0.313600  0.977900  0.912700  1
  C  C1682  1  0.186400  0.522100  0.412700  1
  C  C1683  1  0.686400  0.022100  0.087300  1
  C  C1684  1  0.813600  0.477900  0.587300  1
  C  C1685  1  0.357800  0.018000  0.965200  1
  C  C1686  1  0.142200  0.482000  0.465200  1
  C  C1687  1  0.642200  0.982000  0.034800  1
  C  C1688  1  0.857800  0.518000  0.534800  1
  C  C1689  1  0.342700  0.059800  0.956300  1
  C  C1690  1  0.157300  0.440200  0.456300  1
  C  C1691  1  0.657300  0.940200  0.043700  1
  C  C1692  1  0.842700  0.559800  0.543700  1
  C  C1693  1  0.364800  0.097500  0.974800  1
  C  C1694  1  0.135200  0.402500  0.474800  1
  C  C1695  1  0.635200  0.902500  0.025200  1
  C  C1696  1  0.864800  0.597500  0.525200  1
  C  C1697  1  0.402400  0.091100  0.002200  1
  C  C1698  1  0.097600  0.408900  0.502200  1
  C  C1699  1  0.597600  0.908900  0.997800  1
  C  C1700  1  0.902400  0.591100  0.497800  1
  C  C1701  1  0.418100  0.049200  0.010800  1
  C  C1702  1  0.081900  0.450800  0.510800  1
  C  C1703  1  0.581900  0.950800  0.989200  1
  C  C1704  1  0.918100  0.549200  0.489200  1
  C  C1705  1  0.395500  0.011300  0.992700  1
  C  C1706  1  0.104500  0.488700  0.492700  1
  C  C1707  1  0.604500  0.988700  0.007300  1
  C  C1708  1  0.895500  0.511300  0.507300  1
  C  C1709  1  0.165000  0.692700  0.779500  1
  C  C1710  1  0.335000  0.807300  0.279500  1
  C  C1711  1  0.835000  0.307300  0.220500  1
  C  C1712  1  0.665000  0.192700  0.720500  1
  C  C1713  1  0.170600  0.690800  0.745300  1
  C  C1714  1  0.329400  0.809200  0.245300  1
  C  C1715  1  0.829400  0.309200  0.254700  1
  C  C1716  1  0.670600  0.190800  0.754700  1
  C  C1717  1  0.133800  0.706800  0.723000  1
  C  C1718  1  0.366200  0.793200  0.223000  1
  C  C1719  1  0.866200  0.293200  0.277000  1
  C  C1720  1  0.633800  0.206800  0.777000  1
  C  C1721  1  0.091000  0.727600  0.737100  1
  C  C1722  1  0.409000  0.772400  0.237100  1
  C  C1723  1  0.909000  0.272400  0.262900  1
  C  C1724  1  0.591000  0.227600  0.762900  1
  C  C1725  1  0.083800  0.731300  0.771700  1
  C  C1726  1  0.416200  0.768700  0.271700  1
  C  C1727  1  0.916200  0.268700  0.228300  1
  C  C1728  1  0.583800  0.231300  0.728300  1
  C  C1729  1  0.120300  0.713600  0.792800  1
  C  C1730  1  0.379700  0.786400  0.292800  1
  C  C1731  1  0.879700  0.286400  0.207200  1
  C  C1732  1  0.620300  0.213600  0.707200  1
  C  C1733  1  0.205600  0.675700  0.803800  1
  C  C1734  1  0.294400  0.824300  0.303800  1
  C  C1735  1  0.794400  0.324300  0.196200  1
  C  C1736  1  0.705600  0.175700  0.696200  1
  C  C1737  1  0.211600  0.600300  0.779800  1
  C  C1738  1  0.288400  0.899700  0.279800  1
  C  C1739  1  0.788400  0.399700  0.220200  1
  C  C1740  1  0.711600  0.100300  0.720200  1
  C  C1741  1  0.227900  0.636000  0.799700  1
  C  C1742  1  0.272100  0.864000  0.299700  1
  C  C1743  1  0.772100  0.364000  0.200300  1
  C  C1744  1  0.727900  0.136000  0.700300  1
  C  C1745  1  0.168400  0.591900  0.754200  1
  C  C1746  1  0.331600  0.908100  0.254200  1
  C  C1747  1  0.831600  0.408100  0.245800  1
  C  C1748  1  0.668400  0.091900  0.745800  1
  C  C1749  1  0.267300  0.625800  0.822600  1
  C  C1750  1  0.232700  0.874200  0.322600  1
  C  C1751  1  0.732700  0.374200  0.177400  1
  C  C1752  1  0.767300  0.125800  0.677400  1
  C  C1753  1  0.308200  0.555700  0.834700  1
  C  C1754  1  0.191800  0.944300  0.334700  1
  C  C1755  1  0.691800  0.444300  0.165300  1
  C  C1756  1  0.808200  0.055700  0.665300  1
  C  C1757  1  0.315600  0.559600  0.869400  1
  C  C1758  1  0.184400  0.940400  0.369400  1
  C  C1759  1  0.684400  0.440400  0.130600  1
  C  C1760  1  0.815600  0.059600  0.630600  1
  C  C1761  1  0.346100  0.532200  0.887200  1
  C  C1762  1  0.153900  0.967800  0.387200  1
  C  C1763  1  0.653900  0.467800  0.112800  1
  C  C1764  1  0.846100  0.032200  0.612800  1
  C  C1765  1  0.370000  0.500100  0.869500  1
  C  C1766  1  0.130000  0.999900  0.369500  1
  C  C1767  1  0.630000  0.499900  0.130500  1
  C  C1768  1  0.870000  0.000100  0.630500  1
  C  C1769  1  0.362800  0.495600  0.834900  1
  C  C1770  1  0.137200  0.004400  0.334900  1
  C  C1771  1  0.637200  0.504400  0.165100  1
  C  C1772  1  0.862800  0.995600  0.665100  1
  C  C1773  1  0.331300  0.523500  0.817000  1
  C  C1774  1  0.168700  0.976500  0.317000  1
  C  C1775  1  0.668700  0.476500  0.183000  1
  C  C1776  1  0.831300  0.023500  0.683000  1
  C  C1777  1  0.144500  0.702600  0.686400  1
  C  C1778  1  0.355500  0.797400  0.186400  1
  C  C1779  1  0.855500  0.297400  0.313600  1
  C  C1780  1  0.644500  0.202600  0.813600  1
  C  C1781  1  0.108000  0.684900  0.663800  1
  C  C1782  1  0.392000  0.815100  0.163800  1
  C  C1783  1  0.892000  0.315100  0.336200  1
  C  C1784  1  0.608000  0.184900  0.836200  1
  C  C1785  1  0.057000  0.662100  0.665900  1
  C  C1786  1  0.443000  0.837900  0.165900  1
  C  C1787  1  0.943000  0.337900  0.334100  1
  C  C1788  1  0.557000  0.162100  0.834100  1
  C  C1789  1  0.020700  0.651500  0.698500  1
  C  C1790  1  0.479300  0.848500  0.198500  1
  C  C1791  1  0.979300  0.348500  0.301500  1
  C  C1792  1  0.520700  0.151500  0.801500  1
  C  C1793  1  0.121600  0.681100  0.628700  1
  C  C1794  1  0.378400  0.818900  0.128700  1
  C  C1795  1  0.878400  0.318900  0.371300  1
  C  C1796  1  0.621600  0.181100  0.871300  1
  C  C1797  1  0.067900  0.650500  0.576800  1
  C  C1798  1  0.432100  0.849500  0.076800  1
  C  C1799  1  0.932100  0.349500  0.423200  1
  C  C1800  1  0.567900  0.150500  0.923200  1
  C  C1801  1  0.108800  0.632900  0.557900  1
  C  C1802  1  0.391200  0.867100  0.057900  1
  C  C1803  1  0.891200  0.367100  0.442100  1
  C  C1804  1  0.608800  0.132900  0.942100  1
  C  C1805  1  0.098700  0.620800  0.523100  1
  C  C1806  1  0.401300  0.879200  0.023100  1
  C  C1807  1  0.901300  0.379200  0.476900  1
  C  C1808  1  0.598700  0.120800  0.976900  1
  C  C1809  1  0.049700  0.628600  0.508500  1
  C  C1810  1  0.450300  0.871400  0.008500  1
  C  C1811  1  0.950300  0.371400  0.491500  1
  C  C1812  1  0.549700  0.128600  0.991500  1
  C  C1813  1  0.008100  0.645800  0.527800  1
  C  C1814  1  0.491900  0.854200  0.027800  1
  C  C1815  1  0.991900  0.354200  0.472200  1
  C  C1816  1  0.508100  0.145800  0.972200  1
  C  C1817  1  0.017800  0.657100  0.562200  1
  C  C1818  1  0.482200  0.842900  0.062200  1
  C  C1819  1  0.982200  0.342900  0.437800  1
  C  C1820  1  0.517800  0.157100  0.937800  1
  C  C1821  1  0.037500  0.752500  0.786300  1
  C  C1822  1  0.462500  0.747500  0.286300  1
  C  C1823  1  0.962500  0.247500  0.213700  1
  C  C1824  1  0.537500  0.252500  0.713700  1
  C  C1825  1  0.999100  0.729900  0.806400  1
  C  C1826  1  0.500900  0.770100  0.306400  1
  C  C1827  1  0.000900  0.270100  0.193600  1
  C  C1828  1  0.499100  0.229900  0.693600  1
  C  C1829  1  0.989600  0.684600  0.814900  1
  C  C1830  1  0.510400  0.815400  0.314900  1
  C  C1831  1  0.010400  0.315400  0.185100  1
  C  C1832  1  0.489600  0.184600  0.685100  1
  C  C1833  1  0.021500  0.648100  0.801600  1
  C  C1834  1  0.478500  0.851900  0.301600  1
  C  C1835  1  0.978500  0.351900  0.198400  1
  C  C1836  1  0.521500  0.148100  0.698400  1
  C  C1837  1  0.956700  0.749000  0.822700  1
  C  C1838  1  0.543300  0.751000  0.322700  1
  C  C1839  1  0.043300  0.251000  0.177300  1
  C  C1840  1  0.456700  0.249000  0.677300  1
  C  C1841  1  0.877500  0.717200  0.855300  1
  C  C1842  1  0.622500  0.782800  0.355300  1
  C  C1843  1  0.122500  0.282800  0.144700  1
  C  C1844  1  0.377500  0.217200  0.644700  1
  C  C1845  1  0.861700  0.683000  0.877300  1
  C  C1846  1  0.638300  0.817000  0.377300  1
  C  C1847  1  0.138300  0.317000  0.122700  1
  C  C1848  1  0.361700  0.183000  0.622700  1
  C  C1849  1  0.811800  0.683200  0.894100  1
  C  C1850  1  0.688200  0.816800  0.394100  1
  C  C1851  1  0.188200  0.316800  0.105900  1
  C  C1852  1  0.311800  0.183200  0.605900  1
  C  C1853  1  0.776800  0.715500  0.887700  1
  C  C1854  1  0.723200  0.784500  0.387700  1
  C  C1855  1  0.223200  0.284500  0.112300  1
  C  C1856  1  0.276800  0.215500  0.612300  1
  C  C1857  1  0.792100  0.749600  0.865200  1
  C  C1858  1  0.707900  0.750400  0.365200  1
  C  C1859  1  0.207900  0.250400  0.134800  1
  C  C1860  1  0.292100  0.249600  0.634800  1
  C  C1861  1  0.842900  0.750100  0.849200  1
  C  C1862  1  0.657100  0.749900  0.349200  1
  C  C1863  1  0.157100  0.249900  0.150800  1
  C  C1864  1  0.342900  0.250100  0.650800  1
  C  C1865  1  0.416600  0.035800  0.482200  1
  C  C1866  1  0.083400  0.464200  0.982200  1
  C  C1867  1  0.583400  0.964200  0.517800  1
  C  C1868  1  0.916600  0.535800  0.017800  1
  C  C1869  1  0.483400  0.053100  0.527000  1
  C  C1870  1  0.016600  0.446900  0.027000  1
  C  C1871  1  0.516600  0.946900  0.473000  1
  C  C1872  1  0.983400  0.553100  0.973000  1
  C  C1873  1  0.493700  0.085900  0.469900  1
  C  C1874  1  0.006300  0.414100  0.969900  1
  C  C1875  1  0.506300  0.914100  0.530100  1
  C  C1876  1  0.993700  0.585900  0.030100  1
  C  C1877  1  0.677600  0.254900  0.955400  1
  C  C1878  1  0.822400  0.245100  0.455400  1
  C  C1879  1  0.322400  0.745100  0.044600  1
  C  C1880  1  0.177600  0.754900  0.544600  1
  C  C1881  1  0.138800  0.282100  0.764600  1
  C  C1882  1  0.361200  0.217900  0.264600  1
  C  C1883  1  0.861200  0.717900  0.235400  1
  C  C1884  1  0.638800  0.782100  0.735400  1
  C  C1885  1  0.142700  0.244600  0.749300  1
  C  C1886  1  0.357300  0.255400  0.249300  1
  C  C1887  1  0.857300  0.755400  0.250700  1
  C  C1888  1  0.642700  0.744600  0.750700  1
  C  C1889  1  0.191600  0.250300  0.716100  1
  C  C1890  1  0.308400  0.249700  0.216100  1
  C  C1891  1  0.808400  0.749700  0.283900  1
  C  C1892  1  0.691600  0.750300  0.783900  1
  C  C1893  1  0.887900  0.321600  0.639700  1
  C  C1894  1  0.612100  0.178400  0.139700  1
  C  C1895  1  0.112100  0.678400  0.360300  1
  C  C1896  1  0.387900  0.821600  0.860300  1
  C  C1897  1  0.972500  0.297200  0.616400  1
  C  C1898  1  0.527500  0.202800  0.116400  1
  C  C1899  1  0.027500  0.702800  0.383600  1
  C  C1900  1  0.472500  0.797200  0.883600  1
  C  C1901  1  0.848000  0.823800  0.521400  1
  C  C1902  1  0.652000  0.676200  0.021400  1
  C  C1903  1  0.152000  0.176200  0.478600  1
  C  C1904  1  0.348000  0.323800  0.978600  1
  C  C1905  1  0.855300  0.863400  0.586200  1
  C  C1906  1  0.644700  0.636600  0.086200  1
  C  C1907  1  0.144700  0.136600  0.413800  1
  C  C1908  1  0.355300  0.363400  0.913800  1
  C  C1909  1  0.455000  0.408300  0.866900  1
  C  C1910  1  0.045000  0.091700  0.366900  1
  C  C1911  1  0.545000  0.591700  0.133100  1
  C  C1912  1  0.955000  0.908300  0.633100  1
  C  C1913  1  0.585200  0.399100  0.856200  1
  C  C1914  1  0.914800  0.100900  0.356200  1
  C  C1915  1  0.414800  0.600900  0.143800  1
  C  C1916  1  0.085200  0.899100  0.643800  1
  C  C1917  1  0.514800  0.579300  0.491300  1
  C  C1918  1  0.985200  0.920700  0.991300  1
  C  C1919  1  0.485200  0.420700  0.508700  1
  C  C1920  1  0.014800  0.079300  0.008700  1
  C  C1921  1  0.771000  0.732900  0.493800  1
  C  C1922  1  0.729000  0.767100  0.993800  1
  C  C1923  1  0.229000  0.267100  0.506200  1
  C  C1924  1  0.271000  0.232900  0.006200  1
  C  C1925  1  0.731900  0.757800  0.489900  1
  C  C1926  1  0.768100  0.742200  0.989900  1
  C  C1927  1  0.268100  0.242200  0.510100  1
  C  C1928  1  0.231900  0.257800  0.010100  1
  C  C1929  1  0.878200  0.421100  0.663300  1
  C  C1930  1  0.621800  0.078900  0.163300  1
  C  C1931  1  0.121800  0.578900  0.336700  1
  C  C1932  1  0.378200  0.921100  0.836700  1
  C  C1933  1  0.349600  0.851400  0.780200  1
  C  C1934  1  0.150400  0.648600  0.280200  1
  C  C1935  1  0.650400  0.148600  0.219800  1
  C  C1936  1  0.849600  0.351400  0.719800  1
  C  C1937  1  0.951100  0.532700  0.673400  1
  C  C1938  1  0.548900  0.967300  0.173400  1
  C  C1939  1  0.048900  0.467300  0.326600  1
  C  C1940  1  0.451100  0.032700  0.826600  1
  C  C1941  1  0.020100  0.545600  0.638100  1
  C  C1942  1  0.479900  0.954400  0.138100  1
  C  C1943  1  0.979900  0.454400  0.361900  1
  C  C1944  1  0.520100  0.045600  0.861900  1
  C  C1945  1  0.989500  0.530800  0.598300  1
  C  C1946  1  0.510500  0.969200  0.098300  1
  C  C1947  1  0.010500  0.469200  0.401700  1
  C  C1948  1  0.489500  0.030800  0.901700  1
  C  C1949  1  0.535100  0.339900  0.793300  1
  C  C1950  1  0.964900  0.160100  0.293300  1
  C  C1951  1  0.464900  0.660100  0.206700  1
  C  C1952  1  0.035100  0.839900  0.706700  1
  C  C1953  1  0.018000  0.713100  0.023400  1
  C  C1954  1  0.482000  0.786900  0.523400  1
  C  C1955  1  0.982000  0.286900  0.976600  1
  C  C1956  1  0.518000  0.213100  0.476600  1
  C  C1957  1  0.487700  0.520400  0.538400  1
  C  C1958  1  0.012300  0.979600  0.038400  1
  C  C1959  1  0.512300  0.479600  0.461600  1
  C  C1960  1  0.987700  0.020400  0.961600  1
  C  C1961  1  0.441200  0.257900  0.796500  1
  C  C1962  1  0.058800  0.242100  0.296500  1
  C  C1963  1  0.558800  0.742100  0.203500  1
  C  C1964  1  0.941200  0.757900  0.703500  1
  C  C1965  1  0.468700  0.244300  0.849400  1
  C  C1966  1  0.031300  0.255700  0.349400  1
  C  C1967  1  0.531300  0.755700  0.150600  1
  C  C1968  1  0.968700  0.744300  0.650600  1
  C  C1969  1  0.912400  0.835100  0.564400  1
  C  C1970  1  0.587600  0.664900  0.064400  1
  C  C1971  1  0.087600  0.164900  0.435600  1
  C  C1972  1  0.412400  0.335100  0.935600  1
  C  C1973  1  0.473600  0.307500  0.825400  1
  C  C1974  1  0.026400  0.192500  0.325400  1
  C  C1975  1  0.526400  0.692500  0.174600  1
  C  C1976  1  0.973600  0.807500  0.674600  1
  C  C1977  1  0.476800  0.329200  0.552500  1
  C  C1978  1  0.023200  0.170800  0.052500  1
  C  C1979  1  0.523200  0.670800  0.447500  1
  C  C1980  1  0.976800  0.829200  0.947500  1
  C  C1981  1  0.381700  0.266900  0.552900  1
  C  C1982  1  0.118300  0.233100  0.052900  1
  C  C1983  1  0.618300  0.733100  0.447100  1
  C  C1984  1  0.881700  0.766900  0.947100  1
  C  C1985  1  0.456700  0.319300  0.483400  1
  C  C1986  1  0.043300  0.180700  0.983400  1
  C  C1987  1  0.543300  0.680700  0.516600  1
  C  C1988  1  0.956700  0.819300  0.016600  1
  N  N1989  1  0.776500  0.655000  0.776200  1
  N  N1990  1  0.723500  0.845000  0.276200  1
  N  N1991  1  0.223500  0.345000  0.223800  1
  N  N1992  1  0.276500  0.155000  0.723800  1
  N  N1993  1  0.182600  0.443300  0.876800  1
  N  N1994  1  0.317400  0.056700  0.376800  1
  N  N1995  1  0.817400  0.556700  0.123200  1
  N  N1996  1  0.682600  0.943300  0.623200  1
  N  N1997  1  0.504700  0.556000  0.861200  1
  N  N1998  1  0.995300  0.944000  0.361200  1
  N  N1999  1  0.495300  0.444000  0.138800  1
  N  N2000  1  0.004700  0.056000  0.638800  1
  N  N2001  1  0.979800  0.697900  0.051700  1
  N  N2002  1  0.520200  0.802100  0.551700  1
  N  N2003  1  0.020200  0.302100  0.948300  1
  N  N2004  1  0.479800  0.197900  0.448300  1
  N  N2005  1  0.695000  0.242100  0.021500  1
  N  N2006  1  0.805000  0.257900  0.521500  1
  N  N2007  1  0.305000  0.757900  0.978500  1
  N  N2008  1  0.195000  0.742100  0.478500  1
  N  N2009  1  0.522300  0.185800  0.588200  1
  N  N2010  1  0.977700  0.314200  0.088200  1
  N  N2011  1  0.477700  0.814200  0.411800  1
  N  N2012  1  0.022300  0.685800  0.911800  1
  N  N2013  1  0.181300  0.159700  0.851600  1
  N  N2014  1  0.318700  0.340300  0.351600  1
  N  N2015  1  0.818700  0.840300  0.148400  1
  N  N2016  1  0.681300  0.659700  0.648400  1
  N  N2017  1  0.303900  0.364300  0.639400  1
  N  N2018  1  0.196100  0.135700  0.139400  1
  N  N2019  1  0.696100  0.635700  0.360600  1
  N  N2020  1  0.803900  0.864300  0.860600  1
  N  N2021  1  0.946300  0.151700  0.889900  1
  N  N2022  1  0.553700  0.348300  0.389900  1
  N  N2023  1  0.053700  0.848300  0.110100  1
  N  N2024  1  0.446300  0.651700  0.610100  1
  N  N2025  1  0.036600  0.370200  0.682900  1
  N  N2026  1  0.463400  0.129800  0.182900  1
  N  N2027  1  0.963400  0.629800  0.317100  1
  N  N2028  1  0.536600  0.870200  0.817100  1
  N  N2029  1  0.147100  0.966700  0.548300  1
  N  N2030  1  0.352900  0.533300  0.048300  1
  N  N2031  1  0.852900  0.033300  0.451700  1
  N  N2032  1  0.647100  0.466700  0.951700  1
  N  N2033  1  0.171800  0.934700  0.527800  1
  N  N2034  1  0.328200  0.565300  0.027800  1
  N  N2035  1  0.828200  0.065300  0.472200  1
  N  N2036  1  0.671800  0.434700  0.972200  1
  N  N2037  1  0.473000  0.986200  0.596200  1
  N  N2038  1  0.027000  0.513800  0.096200  1
  N  N2039  1  0.527000  0.013800  0.403800  1
  N  N2040  1  0.973000  0.486200  0.903800  1
  N  N2041  1  0.510300  0.976700  0.621300  1
  N  N2042  1  0.989700  0.523300  0.121300  1
  N  N2043  1  0.489700  0.023300  0.378700  1
  N  N2044  1  0.010300  0.476700  0.878700  1
  N  N2045  1  0.356000  0.728100  0.537800  1
  N  N2046  1  0.144000  0.771900  0.037800  1
  N  N2047  1  0.644000  0.271900  0.462200  1
  N  N2048  1  0.856000  0.228100  0.962200  1
  N  N2049  1  0.330300  0.693500  0.553200  1
  N  N2050  1  0.169700  0.806500  0.053200  1
  N  N2051  1  0.669700  0.306500  0.446800  1
  N  N2052  1  0.830300  0.193500  0.946800  1
  N  N2053  1  0.379600  0.055900  0.626600  1
  N  N2054  1  0.120400  0.444100  0.126600  1
  N  N2055  1  0.620400  0.944100  0.373400  1
  N  N2056  1  0.879600  0.555900  0.873400  1
  N  N2057  1  0.378300  0.069600  0.595900  1
  N  N2058  1  0.121700  0.430400  0.095900  1
  N  N2059  1  0.621700  0.930400  0.404100  1
  N  N2060  1  0.878300  0.569600  0.904100  1
  N  N2061  1  0.594200  0.950700  0.745100  1
  N  N2062  1  0.905800  0.549300  0.245100  1
  N  N2063  1  0.405800  0.049300  0.254900  1
  N  N2064  1  0.094200  0.450700  0.754900  1
  N  N2065  1  0.584800  0.993200  0.752600  1
  N  N2066  1  0.915200  0.506800  0.252600  1
  N  N2067  1  0.415200  0.006800  0.247400  1
  N  N2068  1  0.084800  0.493200  0.747400  1
  N  N2069  1  0.368300  0.149000  0.804200  1
  N  N2070  1  0.131700  0.351000  0.304200  1
  N  N2071  1  0.631700  0.851000  0.195800  1
  N  N2072  1  0.868300  0.649000  0.695800  1
  N  N2073  1  0.338200  0.135800  0.834300  1
  N  N2074  1  0.161800  0.364200  0.334300  1
  N  N2075  1  0.661800  0.864200  0.165700  1
  N  N2076  1  0.838200  0.635800  0.665700  1
  N  N2077  1  0.133300  0.121400  0.660900  1
  N  N2078  1  0.366700  0.378600  0.160900  1
  N  N2079  1  0.866700  0.878600  0.339100  1
  N  N2080  1  0.633300  0.621400  0.839100  1
  N  N2081  1  0.105500  0.130500  0.690700  1
  N  N2082  1  0.394500  0.369500  0.190700  1
  N  N2083  1  0.894500  0.869500  0.309300  1
  N  N2084  1  0.605500  0.630500  0.809300  1
  N  N2085  1  0.895900  0.889400  0.739100  1
  N  N2086  1  0.604100  0.610600  0.239100  1
  N  N2087  1  0.104100  0.110600  0.260900  1
  N  N2088  1  0.395900  0.389400  0.760900  1
  N  N2089  1  0.899100  0.932800  0.732900  1
  N  N2090  1  0.600900  0.567200  0.232900  1
  N  N2091  1  0.100900  0.067200  0.267100  1
  N  N2092  1  0.399100  0.432800  0.767100  1
  N  N2093  1  0.136400  0.034300  0.912900  1
  N  N2094  1  0.363600  0.465700  0.412900  1
  N  N2095  1  0.863600  0.965700  0.087100  1
  N  N2096  1  0.636400  0.534300  0.587100  1
  N  N2097  1  0.085400  0.036500  0.902100  1
  N  N2098  1  0.414600  0.463500  0.402100  1
  N  N2099  1  0.914600  0.963500  0.097900  1
  N  N2100  1  0.585400  0.536500  0.597900  1
  N  N2101  1  0.578300  0.772500  0.650600  1
  N  N2102  1  0.921700  0.727500  0.150600  1
  N  N2103  1  0.421700  0.227500  0.349400  1
  N  N2104  1  0.078300  0.272500  0.849400  1
  N  N2105  1  0.563400  0.729100  0.656700  1
  N  N2106  1  0.936600  0.770900  0.156700  1
  N  N2107  1  0.436600  0.270900  0.343300  1
  N  N2108  1  0.063400  0.229100  0.843300  1
  N  N2109  1  0.436900  0.685700  0.879600  1
  N  N2110  1  0.063100  0.814300  0.379600  1
  N  N2111  1  0.563100  0.314300  0.120400  1
  N  N2112  1  0.936900  0.185700  0.620400  1
  N  N2113  1  0.479900  0.681600  0.856400  1
  N  N2114  1  0.020100  0.818400  0.356400  1
  N  N2115  1  0.520100  0.318400  0.143600  1
  N  N2116  1  0.979900  0.181600  0.643600  1
  N  N2117  1  0.243900  0.579400  0.678200  1
  N  N2118  1  0.256100  0.920600  0.178200  1
  N  N2119  1  0.756100  0.420600  0.321800  1
  N  N2120  1  0.743900  0.079400  0.821800  1
  N  N2121  1  0.280800  0.568200  0.702600  1
  N  N2122  1  0.219200  0.931800  0.202600  1
  N  N2123  1  0.719200  0.431800  0.297400  1
  N  N2124  1  0.780800  0.068200  0.797400  1
  N  N2125  1  0.185100  0.678000  0.940100  1
  N  N2126  1  0.314900  0.822000  0.440100  1
  N  N2127  1  0.814900  0.322000  0.059900  1
  N  N2128  1  0.685100  0.178000  0.559900  1
  N  N2129  1  0.151500  0.706500  0.955200  1
  N  N2130  1  0.348500  0.793500  0.455200  1
  N  N2131  1  0.848500  0.293500  0.044800  1
  N  N2132  1  0.651500  0.206500  0.544800  1
  N  N2133  1  0.967400  0.926700  0.876700  1
  N  N2134  1  0.532600  0.573300  0.376700  1
  N  N2135  1  0.032600  0.073300  0.123300  1
  N  N2136  1  0.467400  0.426700  0.623300  1
  N  N2137  1  0.001500  0.942000  0.902100  1
  N  N2138  1  0.498500  0.558000  0.402100  1
  N  N2139  1  0.998500  0.058000  0.097900  1
  N  N2140  1  0.501500  0.442000  0.597900  1
  N  N2141  1  0.328200  0.979500  0.947200  1
  N  N2142  1  0.171800  0.520500  0.447200  1
  N  N2143  1  0.671800  0.020500  0.052800  1
  N  N2144  1  0.828200  0.479500  0.552800  1
  N  N2145  1  0.307000  0.946700  0.966500  1
  N  N2146  1  0.193000  0.553300  0.466500  1
  N  N2147  1  0.693000  0.053300  0.033500  1
  N  N2148  1  0.807000  0.446700  0.533500  1
  N  N2149  1  0.274600  0.583200  0.816000  1
  N  N2150  1  0.225400  0.916800  0.316000  1
  N  N2151  1  0.725400  0.416800  0.184000  1
  N  N2152  1  0.774600  0.083200  0.684000  1
  N  N2153  1  0.239200  0.568200  0.789800  1
  N  N2154  1  0.260800  0.931800  0.289800  1
  N  N2155  1  0.760800  0.431800  0.210200  1
  N  N2156  1  0.739200  0.068200  0.710200  1
  N  N2157  1  0.077500  0.661700  0.613200  1
  N  N2158  1  0.422500  0.838300  0.113200  1
  N  N2159  1  0.922500  0.338300  0.386800  1
  N  N2160  1  0.577500  0.161700  0.886800  1
  N  N2161  1  0.036300  0.646800  0.635500  1
  N  N2162  1  0.463700  0.853200  0.135500  1
  N  N2163  1  0.963700  0.353200  0.364500  1
  N  N2164  1  0.536300  0.146800  0.864500  1
  N  N2165  1  0.925700  0.716700  0.837200  1
  N  N2166  1  0.574300  0.783300  0.337200  1
  N  N2167  1  0.074300  0.283300  0.162800  1
  N  N2168  1  0.425700  0.216700  0.662800  1
  N  N2169  1  0.946100  0.676800  0.832100  1
  N  N2170  1  0.553900  0.823200  0.332100  1
  N  N2171  1  0.053900  0.323200  0.167900  1
  N  N2172  1  0.446100  0.176800  0.667900  1
  N  N2173  1  0.465900  0.060100  0.491800  1
  N  N2174  1  0.034100  0.439900  0.991800  1
  N  N2175  1  0.534100  0.939900  0.508200  1
  N  N2176  1  0.965900  0.560100  0.008200  1
  N  N2177  1  0.696600  0.245600  0.989700  1
  N  N2178  1  0.803400  0.254400  0.489700  1
  N  N2179  1  0.303400  0.754400  0.010300  1
  N  N2180  1  0.196600  0.745600  0.510300  1
  N  N2181  1  0.155600  0.253700  0.730200  1
  N  N2182  1  0.344400  0.246300  0.230200  1
  N  N2183  1  0.844400  0.746300  0.269800  1
  N  N2184  1  0.655600  0.753700  0.769800  1
  N  N2185  1  0.921900  0.311800  0.615600  1
  N  N2186  1  0.578100  0.188200  0.115600  1
  N  N2187  1  0.078100  0.688200  0.384400  1
  N  N2188  1  0.421900  0.811800  0.884400  1
  N  N2189  1  0.870200  0.853700  0.556800  1
  N  N2190  1  0.629800  0.646300  0.056800  1
  N  N2191  1  0.129800  0.146300  0.443200  1
  N  N2192  1  0.370200  0.353700  0.943200  1
  N  N2193  1  0.459200  0.265700  0.824400  1
  N  N2194  1  0.040800  0.234300  0.324400  1
  N  N2195  1  0.540800  0.734300  0.175600  1
  N  N2196  1  0.959200  0.765700  0.675600  1
  N  N2197  1  0.502400  0.526700  0.496200  1
  N  N2198  1  0.997600  0.973300  0.996200  1
  N  N2199  1  0.497600  0.473300  0.503800  1
  N  N2200  1  0.002400  0.026700  0.003800  1
  N  N2201  1  0.963500  0.526900  0.637500  1
  N  N2202  1  0.536500  0.973100  0.137500  1
  N  N2203  1  0.036500  0.473100  0.362500  1
  N  N2204  1  0.463500  0.026900  0.862500  1
  N  N2205  1  0.434200  0.301100  0.529900  1
  N  N2206  1  0.065800  0.198900  0.029900  1
  N  N2207  1  0.565800  0.698900  0.470100  1
  N  N2208  1  0.934200  0.801100  0.970100  1
  O  O2209  1  0.725800  0.603000  0.749600  1
  O  O2210  1  0.774200  0.897000  0.249600  1
  O  O2211  1  0.274200  0.397000  0.250400  1
  O  O2212  1  0.225800  0.103000  0.750400  1
  O  O2213  1  0.109800  0.418300  0.908500  1
  O  O2214  1  0.390200  0.081700  0.408500  1
  O  O2215  1  0.890200  0.581700  0.091500  1
  O  O2216  1  0.609800  0.918300  0.591500  1
  O  O2217  1  0.519100  0.495700  0.829300  1
  O  O2218  1  0.980900  0.004300  0.329300  1
  O  O2219  1  0.480900  0.504300  0.170700  1
  O  O2220  1  0.019100  0.995700  0.670700  1
  O  O2221  1  0.914100  0.692000  0.007800  1
  O  O2222  1  0.585900  0.808000  0.507800  1
  O  O2223  1  0.085900  0.308000  0.992200  1
  O  O2224  1  0.414100  0.192000  0.492200  1
  O  O2225  1  0.662300  0.183700  0.065800  1
  O  O2226  1  0.837700  0.316300  0.565800  1
  O  O2227  1  0.337700  0.816300  0.934200  1
  O  O2228  1  0.162300  0.683700  0.434200  1
  O  O2229  1  0.573200  0.215500  0.623100  1
  O  O2230  1  0.926800  0.284500  0.123100  1
  O  O2231  1  0.426800  0.784500  0.376900  1
  O  O2232  1  0.073200  0.715500  0.876900  1
  O  O2233  1  0.207100  0.211500  0.811600  1
  O  O2234  1  0.292900  0.288500  0.311600  1
  O  O2235  1  0.792900  0.788500  0.188400  1
  O  O2236  1  0.707100  0.711500  0.688400  1
  O  O2237  1  0.333333  0.356700  0.585400  1
  O  O2238  1  0.166667  0.143300  0.085400  1
  O  O2239  1  0.666667  0.643300  0.414600  1
  O  O2240  1  0.833333  0.856700  0.914600  1
  O  O2241  1  0.924100  0.225000  0.884500  1
  O  O2242  1  0.575900  0.275000  0.384500  1
  O  O2243  1  0.075900  0.775000  0.115500  1
  O  O2244  1  0.424100  0.725000  0.615500  1
  O  O2245  1  0.024300  0.304100  0.709700  1
  O  O2246  1  0.475700  0.195900  0.209700  1
  O  O2247  1  0.975700  0.695900  0.290300  1
  O  O2248  1  0.524300  0.804100  0.790300  1
  O  O2249  1  0.203900  0.901500  0.747500  1
  O  O2250  1  0.296100  0.598500  0.247500  1
  O  O2251  1  0.796100  0.098500  0.252500  1
  O  O2252  1  0.703900  0.401500  0.752500  1
  O  O2253  1  0.149000  0.866400  0.715400  1
  O  O2254  1  0.351000  0.633600  0.215400  1
  O  O2255  1  0.851000  0.133600  0.284600  1
  O  O2256  1  0.649000  0.366400  0.784600  1
  O  O2257  1  0.297500  0.819600  0.738900  1
  O  O2258  1  0.202500  0.680400  0.238900  1
  O  O2259  1  0.702500  0.180400  0.261100  1
  O  O2260  1  0.797500  0.319600  0.761100  1
  O  O2261  1  0.488600  0.096000  0.083300  1
  O  O2262  1  0.011400  0.404000  0.583300  1
  O  O2263  1  0.511400  0.904000  0.916700  1
  O  O2264  1  0.988600  0.596000  0.416700  1
  O  O2265  1  0.397700  0.162900  0.072600  1
  O  O2266  1  0.102300  0.337100  0.572600  1
  O  O2267  1  0.602300  0.837100  0.927400  1
  O  O2268  1  0.897700  0.662900  0.427400  1
  O  O2269  1  0.146300  0.989900  0.603700  1
  O  O2270  1  0.353700  0.510100  0.103700  1
  O  O2271  1  0.853700  0.010100  0.396300  1
  O  O2272  1  0.646300  0.489900  0.896300  1
  O  O2273  1  0.225600  0.950000  0.639600  1
  O  O2274  1  0.274400  0.550000  0.139600  1
  O  O2275  1  0.774400  0.050000  0.360400  1
  O  O2276  1  0.725600  0.450000  0.860400  1
  O  O2277  1  0.437800  0.861100  0.652800  1
  O  O2278  1  0.062200  0.638900  0.152800  1
  O  O2279  1  0.562200  0.138900  0.347200  1
  O  O2280  1  0.937800  0.361100  0.847200  1
  O  O2281  1  0.523000  0.923000  0.660000  1
  O  O2282  1  0.977000  0.577000  0.160000  1
  O  O2283  1  0.477000  0.077000  0.340000  1
  O  O2284  1  0.023000  0.423000  0.840000  1
  O  O2285  1  0.267800  0.678100  0.596300  1
  O  O2286  1  0.232200  0.821900  0.096300  1
  O  O2287  1  0.732200  0.321900  0.403700  1
  O  O2288  1  0.767800  0.178100  0.903700  1
  O  O2289  1  0.239100  0.757300  0.624700  1
  O  O2290  1  0.260900  0.742700  0.124700  1
  O  O2291  1  0.760900  0.242700  0.375300  1
  O  O2292  1  0.739100  0.257300  0.875300  1
  O  O2293  1  0.249100  0.025900  0.602700  1
  O  O2294  1  0.250900  0.474100  0.102700  1
  O  O2295  1  0.750900  0.974100  0.397300  1
  O  O2296  1  0.749100  0.525900  0.897300  1
  O  O2297  1  0.255800  0.019700  0.673800  1
  O  O2298  1  0.244200  0.480300  0.173800  1
  O  O2299  1  0.744200  0.980300  0.326200  1
  O  O2300  1  0.755800  0.519700  0.826200  1
  O  O2301  1  0.441900  0.911200  0.707900  1
  O  O2302  1  0.058100  0.588800  0.207900  1
  O  O2303  1  0.558100  0.088800  0.292100  1
  O  O2304  1  0.941900  0.411200  0.792100  1
  O  O2305  1  0.547200  0.890100  0.723200  1
  O  O2306  1  0.952800  0.609900  0.223200  1
  O  O2307  1  0.452800  0.109900  0.276800  1
  O  O2308  1  0.047200  0.390100  0.776800  1
  O  O2309  1  0.296300  0.077000  0.857800  1
  O  O2310  1  0.203700  0.423000  0.357800  1
  O  O2311  1  0.703700  0.923000  0.142200  1
  O  O2312  1  0.796300  0.577000  0.642200  1
  O  O2313  1  0.319700  0.006000  0.816300  1
  O  O2314  1  0.180300  0.494000  0.316300  1
  O  O2315  1  0.680300  0.994000  0.183700  1
  O  O2316  1  0.819700  0.506000  0.683700  1
  O  O2317  1  0.174100  0.065400  0.637200  1
  O  O2318  1  0.325900  0.434600  0.137200  1
  O  O2319  1  0.825900  0.934600  0.362800  1
  O  O2320  1  0.674100  0.565400  0.862800  1
  O  O2321  1  0.153700  0.993100  0.679000  1
  O  O2322  1  0.346300  0.506900  0.179000  1
  O  O2323  1  0.846300  0.006900  0.321000  1
  O  O2324  1  0.653700  0.493100  0.821000  1
  O  O2325  1  0.945900  0.839500  0.767800  1
  O  O2326  1  0.554100  0.660500  0.267800  1
  O  O2327  1  0.054100  0.160500  0.232200  1
  O  O2328  1  0.445900  0.339500  0.732200  1
  O  O2329  1  0.042900  0.880500  0.787600  1
  O  O2330  1  0.457100  0.619500  0.287600  1
  O  O2331  1  0.957100  0.119500  0.212400  1
  O  O2332  1  0.542900  0.380500  0.712400  1
  O  O2333  1  0.222800  0.026000  0.892900  1
  O  O2334  1  0.277200  0.474000  0.392900  1
  O  O2335  1  0.777200  0.974000  0.107100  1
  O  O2336  1  0.722800  0.526000  0.607100  1
  O  O2337  1  0.214600  0.019900  0.821300  1
  O  O2338  1  0.285400  0.480100  0.321300  1
  O  O2339  1  0.785400  0.980100  0.178700  1
  O  O2340  1  0.714600  0.519900  0.678700  1
  O  O2341  1  0.547900  0.837900  0.664500  1
  O  O2342  1  0.952100  0.662100  0.164500  1
  O  O2343  1  0.452100  0.162100  0.335500  1
  O  O2344  1  0.047900  0.337900  0.835500  1
  O  O2345  1  0.463200  0.825000  0.713000  1
  O  O2346  1  0.036800  0.675000  0.213000  1
  O  O2347  1  0.536800  0.175000  0.287000  1
  O  O2348  1  0.963200  0.325000  0.787000  1
  O  O2349  1  0.350400  0.708500  0.882600  1
  O  O2350  1  0.149600  0.791500  0.382600  1
  O  O2351  1  0.649600  0.291500  0.117400  1
  O  O2352  1  0.850400  0.208500  0.617400  1
  O  O2353  1  0.319000  0.726700  0.815500  1
  O  O2354  1  0.181000  0.773300  0.315500  1
  O  O2355  1  0.681000  0.273300  0.184500  1
  O  O2356  1  0.819000  0.226700  0.684500  1
  O  O2357  1  0.217000  0.637100  0.648800  1
  O  O2358  1  0.283000  0.862900  0.148800  1
  O  O2359  1  0.783000  0.362900  0.351200  1
  O  O2360  1  0.717000  0.137100  0.851200  1
  O  O2361  1  0.294400  0.705600  0.664400  1
  O  O2362  1  0.205600  0.794400  0.164400  1
  O  O2363  1  0.705600  0.294400  0.335600  1
  O  O2364  1  0.794400  0.205600  0.835600  1
  O  O2365  1  0.247400  0.677600  0.896700  1
  O  O2366  1  0.252600  0.822400  0.396700  1
  O  O2367  1  0.752600  0.322400  0.103300  1
  O  O2368  1  0.747400  0.177600  0.603300  1
  O  O2369  1  0.262600  0.762000  0.870500  1
  O  O2370  1  0.237400  0.738000  0.370500  1
  O  O2371  1  0.737400  0.238000  0.129500  1
  O  O2372  1  0.762600  0.262000  0.629500  1
  O  O2373  1  0.959800  0.874900  0.834200  1
  O  O2374  1  0.540200  0.625100  0.334200  1
  O  O2375  1  0.040200  0.125100  0.165800  1
  O  O2376  1  0.459800  0.374900  0.665800  1
  O  O2377  1  0.052100  0.827000  0.839600  1
  O  O2378  1  0.447900  0.673000  0.339600  1
  O  O2379  1  0.947900  0.173000  0.160400  1
  O  O2380  1  0.552100  0.327000  0.660400  1
  O  O2381  1  0.328600  0.006100  0.890600  1
  O  O2382  1  0.171400  0.493900  0.390600  1
  O  O2383  1  0.671400  0.993900  0.109400  1
  O  O2384  1  0.828600  0.506100  0.609400  1
  O  O2385  1  0.250200  0.954500  0.856000  1
  O  O2386  1  0.249800  0.545500  0.356000  1
  O  O2387  1  0.749800  0.045500  0.144000  1
  O  O2388  1  0.750200  0.454500  0.644000  1
  O  O2389  1  0.298400  0.646200  0.844000  1
  O  O2390  1  0.201600  0.853800  0.344000  1
  O  O2391  1  0.701600  0.353800  0.156000  1
  O  O2392  1  0.798400  0.146200  0.656000  1
  O  O2393  1  0.217900  0.701800  0.828600  1
  O  O2394  1  0.282100  0.798200  0.328600  1
  O  O2395  1  0.782100  0.298200  0.171400  1
  O  O2396  1  0.717900  0.201800  0.671400  1
  O  O2397  1  0.160900  0.692700  0.609900  1
  O  O2398  1  0.339100  0.807300  0.109900  1
  O  O2399  1  0.839100  0.307300  0.390100  1
  O  O2400  1  0.660900  0.192700  0.890100  1
  O  O2401  1  0.191400  0.714600  0.677100  1
  O  O2402  1  0.308600  0.785400  0.177100  1
  O  O2403  1  0.808600  0.285400  0.322900  1
  O  O2404  1  0.691400  0.214600  0.822900  1
  O  O2405  1  0.945400  0.787000  0.825300  1
  O  O2406  1  0.554600  0.713000  0.325300  1
  O  O2407  1  0.054600  0.213000  0.174700  1
  O  O2408  1  0.445400  0.287000  0.674700  1
  O  O2409  1  0.034100  0.791900  0.779200  1
  O  O2410  1  0.465900  0.708100  0.279200  1
  O  O2411  1  0.965900  0.208100  0.220800  1
  O  O2412  1  0.534100  0.291900  0.720800  1
  O  O2413  1  0.534500  0.107200  0.477100  1
  O  O2414  1  0.965500  0.392800  0.977100  1
  O  O2415  1  0.465500  0.892800  0.522900  1
  O  O2416  1  0.034500  0.607200  0.022900  1
  O  O2417  1  0.661400  0.288300  0.940400  1
  O  O2418  1  0.838600  0.211700  0.440400  1
  O  O2419  1  0.338600  0.711700  0.059600  1
  O  O2420  1  0.161400  0.788300  0.559600  1
  O  O2421  1  0.197100  0.282500  0.700200  1
  O  O2422  1  0.302900  0.217500  0.200200  1
  O  O2423  1  0.802900  0.717500  0.299800  1
  O  O2424  1  0.697100  0.782500  0.799800  1
  O  O2425  1  0.816700  0.884100  0.588300  1
  O  O2426  1  0.683300  0.615900  0.088300  1
  O  O2427  1  0.183300  0.115900  0.411700  1
  O  O2428  1  0.316700  0.384100  0.911700  1
  O  O2429  1  0.493500  0.245700  0.876600  1
  O  O2430  1  0.006500  0.254300  0.376600  1
  O  O2431  1  0.506500  0.754300  0.123400  1
  O  O2432  1  0.993500  0.745700  0.623400  1
  O  O2433  1  0.445200  0.233600  0.777300  1
  O  O2434  1  0.054800  0.266400  0.277300  1
  O  O2435  1  0.554800  0.766400  0.222700  1
  O  O2436  1  0.945200  0.733600  0.722700  1
  O  O2437  1  0.472100  0.399900  0.830100  1
  O  O2438  1  0.027900  0.100100  0.330100  1
  O  O2439  1  0.527900  0.600100  0.169900  1
  O  O2440  1  0.972100  0.899900  0.669900  1
  O  O2441  1  0.445300  0.347900  0.566600  1
  O  O2442  1  0.054700  0.152100  0.066600  1
  O  O2443  1  0.554700  0.652100  0.433400  1
  O  O2444  1  0.945300  0.847900  0.933400  1
