
#######################################################################
#
#                 Cambridge Crystallographic Data Centre
#                                CCDC 
#
#######################################################################
#
# If this CIF has been generated from an entry in the Cambridge 
# Structural Database, then it will include bibliographic, chemical, 
# crystal, experimental, refinement or atomic coordinate data resulting 
# from the CCDC's data processing and validation procedures.
#
#######################################################################

data_CIRVAC
_chemical_formula_moiety         'C124 H96 Cu4 N8 O24,8(C4 H9 N1 O1)'
_chemical_name_systematic        
"tetrakis(\m~4~-3,3'-(9-Oxo-9,10-dihydroacridine-2,7-diyl)dibenzoato)-tetrakis(dimethylacetamide)-tetra-copper dimethylacetamide solvate"
_symmetry_cell_setting           triclinic
_symmetry_space_group_name_H-M   'P -1'
_symmetry_Int_Tables_number      2
_space_group_name_Hall           '-P 1'
loop_
_symmetry_equiv_pos_site_id
_symmetry_equiv_pos_as_xyz
1 x,y,z
2 -x,-y,-z
_cell_length_a                   16.1715(16)
_cell_length_b                   16.3070(16)
_cell_length_c                   17.9780(18)
_cell_angle_alpha                79.1310(10)
_cell_angle_beta                 71.7320(10)
_cell_angle_gamma                86.3630(10)
_cell_volume                     4421.2
_exptl_crystal_colour            'black green'
_exptl_crystal_description       block
_cell_formula_units_Z            1
loop_
_atom_site_label
_atom_site_type_symbol
_atom_site_fract_x
_atom_site_fract_y
_atom_site_fract_z
Cu1 Cu 0.764541(10) 0.616630(11) 0.061817(9)
Cu2 Cu 0.680147(10) 0.576141(11) 0.213435(9)
O1 O 0.77295(6) 0.49510(6) 0.06495(5)
O2 O 0.71843(6) 0.46277(6) 0.19805(5)
O3 O 0.25899(7) 0.26823(6) 0.91771(6)
O4 O 0.34729(7) 0.30475(6) 0.79255(6)
O5 O 0.13115(6) 0.38704(7) 0.90199(5)
O6 O 0.20944(6) 0.40263(7) 0.77235(5)
O7 O 0.64789(6) 0.61433(7) 0.04919(5)
O8 O 0.58115(6) 0.56177(7) 0.17740(5)
O9 O 0.50308(9) 0.19480(8) 0.47101(7)
O10 O 0.21762(8) 0.51297(11) 0.43766(7)
O11 O 0.61444(8) 0.53950(8) 0.33824(6)
O12 O 0.83748(6) 0.65476(6) -0.06052(5)
N1 N 0.64992(11) -0.01857(9) 0.48677(8)
H1 H 0.6794 -0.0657 0.4894
N2 N 0.04991(9) 0.38829(14) 0.37291(9)
H2 H 0.0106 0.3661 0.3582
N3 N 0.95018(12) 0.74057(15) -0.12267(11)
N4 N 0.48293(19) 0.5730(4) 0.40238(19)
C1 C 0.74941(8) 0.44330(9) 0.12918(7)
C2 C 0.75609(9) 0.35326(9) 0.12560(8)
C3 C 0.79064(10) 0.32566(10) 0.05358(8)
H3 H 0.8113 0.3651 0.0058
C4 C 0.79523(13) 0.24256(12) 0.05088(9)
H4 H 0.8180 0.2247 0.0010
C5 C 0.76704(13) 0.18373(11) 0.12003(10)
H5 H 0.7709 0.1259 0.1173
C6 C 0.73289(10) 0.20926(10) 0.19372(9)
C7 C 0.72857(9) 0.29307(9) 0.19574(8)
H6 H 0.7065 0.3110 0.2456
C8 C 0.70640(12) 0.14733(10) 0.26937(9)
C9 C 0.75339(14) 0.07249(11) 0.27712(10)
H7 H 0.7994 0.0599 0.2327
C10 C 0.73376(15) 0.01714(12) 0.34798(11)
H8 H 0.7658 -0.0335 0.3520
C11 C 0.66613(14) 0.03516(10) 0.41495(10)
C12 C 0.61751(12) 0.10906(10) 0.40753(10)
C13 C 0.63914(12) 0.16389(10) 0.33378(9)
H9 H 0.6063 0.2138 0.3284
C14 C 0.54773(12) 0.13036(10) 0.47574(9)
C15 C 0.53667(12) 0.07216(10) 0.55073(9)
C16 C 0.58912(14) -0.00060(10) 0.55410(10)
C17 C 0.57836(15) -0.05386(11) 0.62807(11)
H10 H 0.6132 -0.1028 0.6310
C18 C 0.51870(14) -0.03567(11) 0.69498(11)
H11 H 0.5120 -0.0729 0.7439
C19 C 0.46607(13) 0.03696(10) 0.69433(10)
C20 C 0.47679(12) 0.08908(10) 0.62208(9)
H12 H 0.4424 0.1384 0.6204
C21 C 0.40651(12) 0.05780(10) 0.76988(9)
C22 C 0.37596(13) -0.00343(12) 0.83825(10)
H13 H 0.3912 -0.0603 0.8358
C23 C 0.32420(13) 0.01790(11) 0.90889(10)
H14 H 0.3036 -0.0246 0.9543
C24 C 0.30178(12) 0.10030(10) 0.91476(9)
H15 H 0.2660 0.1144 0.9637
C25 C 0.33178(10) 0.16144(10) 0.84913(8)
C26 C 0.38384(11) 0.14034(10) 0.77744(9)
H16 H 0.4044 0.1834 0.7325
C27 C 0.31026(9) 0.25181(10) 0.85372(8)
C28 C 0.13864(9) 0.39136(9) 0.82917(8)
C29 C 0.05830(9) 0.38397(10) 0.80670(8)
C30 C -0.02256(10) 0.37140(12) 0.86240(9)
H17 H -0.0295 0.3692 0.9172
C31 C -0.09296(12) 0.36209(16) 0.83798(10)
H18 H -0.1489 0.3534 0.8764
C32 C -0.08446(12) 0.36498(16) 0.75838(10)
H19 H -0.1344 0.3579 0.7431
C33 C -0.00358(10) 0.37812(14) 0.70068(9)
C34 C 0.06732(10) 0.38778(11) 0.72628(8)
H20 H 0.1233 0.3972 0.6881
C35 C 0.00837(11) 0.38329(15) 0.61463(10)
C36 C -0.04908(12) 0.34601(16) 0.58807(11)
H21 H -0.0988 0.3183 0.6260
C37 C -0.03645(12) 0.34778(17) 0.50924(11)
H22 H -0.0778 0.3217 0.4938
C38 C 0.03506(11) 0.38664(16) 0.45109(10)
C39 C 0.09296(10) 0.42925(16) 0.47581(9)
C40 C 0.07735(11) 0.42548(15) 0.55789(9)
H23 H 0.1163 0.4534 0.5747
C41 C 0.16766(10) 0.47286(16) 0.41773(9)
C42 C 0.18324(10) 0.46477(15) 0.33505(9)
C43 C 0.12254(11) 0.42248(16) 0.31480(10)
C44 C 0.13867(11) 0.41587(16) 0.23465(10)
H24 H 0.0974 0.3882 0.2204
C45 C 0.21004(11) 0.44722(15) 0.17819(10)
H25 H 0.2202 0.4381 0.1254
C46 C 0.27206(10) 0.49443(14) 0.19468(9)
C47 C 0.25629(10) 0.49971(15) 0.27457(9)
H26 H 0.2971 0.5284 0.2884
C48 C 0.34916(9) 0.52992(12) 0.13174(9)
C49 C 0.34721(10) 0.55615(13) 0.05394(9)
H27 H 0.2958 0.5482 0.0413
C50 C 0.41908(10) 0.59372(12) -0.00546(9)
H28 H 0.4156 0.6125 -0.0577
C51 C 0.49436(10) 0.60387(11) 0.01042(9)
H29 H 0.5435 0.6287 -0.0308
C52 C 0.49925(9) 0.57769(10) 0.08758(8)
C53 C 0.42723(9) 0.54197(11) 0.14760(8)
H30 H 0.4305 0.5254 0.2002
C54 C 0.58276(9) 0.58584(9) 0.10621(8)
C55 C 0.5213(2) 0.42801(19) 0.3555(2)
H31 H 0.5390 0.3868 0.3950
H32 H 0.5563 0.4203 0.3019
H33 H 0.4595 0.4205 0.3623
C56 C 0.5365(2) 0.52309(19) 0.36803(13)
C57 C 0.3943(3) 0.5332(4) 0.4442(3)
H34 H 0.3819 0.4970 0.4113
H35 H 0.3496 0.5769 0.4527
H36 H 0.3941 0.4999 0.4957
C58 C 0.5055(6) 0.6550(4) 0.4078(6)
H37 H 0.5657 0.6546 0.4090
H38 H 0.4662 0.6713 0.4566
H39 H 0.4999 0.6949 0.3615
C59 C 0.98474(12) 0.59826(12) -0.08392(12)
H40 H 1.0185 0.5910 -0.1380
H41 H 0.9538 0.5464 -0.0550
H42 H 1.0241 0.6118 -0.0563
C60 C 0.91661(12) 0.67172(13) -0.08796(9)
C61 C 1.04178(13) 0.75959(16) -0.15924(14)
H43 H 1.0734 0.7095 -0.1757
H44 H 1.0647 0.7783 -0.1209
H45 H 1.0493 0.8039 -0.2059
C62 C 0.88095(16) 0.80737(16) -0.12172(19)
H46 H 0.8482 0.7989 -0.1572
H47 H 0.9085 0.8624 -0.1399
H48 H 0.8412 0.8042 -0.0674
Cu1A Cu 0.235459(10) 0.383370(11) 0.938183(9)
Cu2A Cu 0.319853(10) 0.423859(11) 0.786565(9)
O1A O 0.22705(6) 0.50490(6) 0.93505(5)
O2A O 0.28157(6) 0.53723(6) 0.80195(5)
O3A O 0.74101(7) 0.73177(6) 0.08229(6)
O4A O 0.65271(7) 0.69525(6) 0.20745(6)
O5A O 0.86885(6) 0.61296(7) 0.09801(5)
O6A O 0.79056(6) 0.59737(7) 0.22765(5)
O7A O 0.35211(6) 0.38567(7) 0.95081(5)
O8A O 0.41885(6) 0.43823(7) 0.82260(5)
O9A O 0.49692(9) 0.80520(8) 0.52899(7)
O10A O 0.78238(8) 0.48703(11) 0.56234(7)
O11A O 0.38556(8) 0.46050(8) 0.66176(6)
O12A O 0.16252(6) 0.34524(6) 1.06052(5)
N1A N 0.35008(11) 1.01857(9) 0.51323(8)
H1A H 0.3206 1.0657 0.5106
N2A N 0.95009(9) 0.61171(14) 0.62709(9)
H2A H 0.9894 0.6339 0.6418
N3A N 0.04982(12) 0.25943(15) 1.12267(11)
N4A N 0.51707(19) 0.4270(4) 0.59762(19)
C1A C 0.25059(8) 0.55670(9) 0.87082(7)
C2A C 0.24391(9) 0.64674(9) 0.87440(8)
C3A C 0.20936(10) 0.67434(10) 0.94642(8)
H3A H 0.1887 0.6349 0.9942
C4A C 0.20477(13) 0.75744(12) 0.94912(9)
H4A H 0.1820 0.7753 0.9990
C5A C 0.23296(13) 0.81627(11) 0.87997(10)
H5A H 0.2291 0.8741 0.8827
C6A C 0.26711(10) 0.79074(10) 0.80628(9)
C7A C 0.27143(9) 0.70693(9) 0.80426(8)
H6A H 0.2935 0.6890 0.7544
C8A C 0.29360(12) 0.85267(10) 0.73063(9)
C9A C 0.24661(14) 0.92751(11) 0.72288(10)
H7A H 0.2006 0.9401 0.7673
C10A C 0.26624(15) 0.98286(12) 0.65202(11)
H8A H 0.2342 1.0335 0.6480
C11A C 0.33387(14) 0.96484(10) 0.58505(10)
C12A C 0.38249(12) 0.89094(10) 0.59247(10)
C13A C 0.36086(12) 0.83611(10) 0.66622(9)
H9A H 0.3937 0.7862 0.6716
C14A C 0.45227(12) 0.86964(10) 0.52426(9)
C15A C 0.46333(12) 0.92784(10) 0.44927(9)
C16A C 0.41088(14) 1.00060(10) 0.44590(10)
C17A C 0.42164(15) 1.05386(11) 0.37193(11)
H10A H 0.3868 1.1028 0.3690
C18A C 0.48130(14) 1.03567(11) 0.30502(11)
H11A H 0.4880 1.0729 0.2561
C19A C 0.53393(13) 0.96304(10) 0.30567(10)
C20A C 0.52321(12) 0.91092(10) 0.37792(9)
H12A H 0.5576 0.8616 0.3796
C21A C 0.59349(12) 0.94220(10) 0.23012(9)
C22A C 0.62404(13) 1.00343(12) 0.16175(10)
H13A H 0.6088 1.0603 0.1642
C23A C 0.67580(13) 0.98210(11) 0.09111(10)
H14A H 0.6964 1.0246 0.0457
C24A C 0.69822(12) 0.89970(10) 0.08524(9)
H15A H 0.7340 0.8856 0.0363
C25A C 0.66822(10) 0.83856(10) 0.15087(8)
C26A C 0.61616(11) 0.85966(10) 0.22256(9)
H16A H 0.5956 0.8166 0.2675
C27A C 0.68974(9) 0.74819(10) 0.14628(8)
C28A C 0.86136(9) 0.60864(9) 0.17083(8)
C29A C 0.94170(9) 0.61603(10) 0.19330(8)
C30A C 1.02256(10) 0.62860(12) 0.13760(9)
H17A H 1.0295 0.6308 0.0828
C31A C 1.09296(12) 0.63791(16) 0.16202(10)
H18A H 1.1489 0.6466 0.1236
C32A C 1.08446(12) 0.63502(16) 0.24162(10)
H19A H 1.1344 0.6421 0.2569
C33A C 1.00358(10) 0.62188(14) 0.29932(9)
C34A C 0.93268(10) 0.61222(11) 0.27372(8)
H20A H 0.8767 0.6028 0.3119
C35A C 0.99163(11) 0.61671(15) 0.38537(10)
C36A C 1.04908(12) 0.65399(16) 0.41193(11)
H21A H 1.0988 0.6817 0.3740
C37A C 1.03645(12) 0.65222(17) 0.49076(11)
H22A H 1.0778 0.6783 0.5062
C38A C 0.96494(11) 0.61336(16) 0.54891(10)
C39A C 0.90704(10) 0.57075(16) 0.52419(9)
C40A C 0.92265(11) 0.57452(15) 0.44211(9)
H23A H 0.8837 0.5466 0.4253
C41A C 0.83234(10) 0.52714(16) 0.58227(9)
C42A C 0.81676(10) 0.53523(15) 0.66495(9)
C43A C 0.87746(11) 0.57752(16) 0.68520(10)
C44A C 0.86133(11) 0.58413(16) 0.76535(10)
H24A H 0.9026 0.6118 0.7796
C45A C 0.78996(11) 0.55278(15) 0.82181(10)
H25A H 0.7798 0.5619 0.8746
C46A C 0.72794(10) 0.50557(14) 0.80532(9)
C47A C 0.74371(10) 0.50029(15) 0.72543(9)
H26A H 0.7029 0.4716 0.7116
C48A C 0.65084(9) 0.47008(12) 0.86826(9)
C49A C 0.65279(10) 0.44385(13) 0.94606(9)
H27A H 0.7042 0.4518 0.9587
C50A C 0.58092(10) 0.40628(12) 1.00546(9)
H28A H 0.5844 0.3875 1.0577
C51A C 0.50564(10) 0.39613(11) 0.98958(9)
H29A H 0.4565 0.3713 1.0308
C52A C 0.50075(9) 0.42231(10) 0.91242(8)
C53A C 0.57277(9) 0.45803(11) 0.85240(8)
H30A H 0.5695 0.4746 0.7998
C54A C 0.41724(9) 0.41416(9) 0.89379(8)
C55A C 0.4787(2) 0.57199(19) 0.6445(2)
H31A H 0.4610 0.6132 0.6050
H32A H 0.4437 0.5797 0.6981
H33A H 0.5405 0.5795 0.6377
C56A C 0.4635(2) 0.47691(19) 0.63197(13)
C57A C 0.6057(3) 0.4668(4) 0.5558(3)
H34A H 0.6181 0.5030 0.5887
H35A H 0.6504 0.4231 0.5473
H36A H 0.6059 0.5001 0.5043
C58A C 0.4945(6) 0.3450(4) 0.5922(6)
H37A H 0.4343 0.3454 0.5910
H38A H 0.5338 0.3287 0.5434
H39A H 0.5001 0.3051 0.6385
C59A C 0.01526(12) 0.40174(12) 1.08392(12)
H40A H -0.0185 0.4090 1.1380
H41A H 0.0462 0.4536 1.0550
H42A H -0.0241 0.3882 1.0563
C60A C 0.08339(12) 0.32828(13) 1.08796(9)
C61A C -0.04178(13) 0.24041(16) 1.15924(14)
H43A H -0.0734 0.2905 1.1757
H44A H -0.0647 0.2217 1.1209
H45A H -0.0493 0.1961 1.2059
C62A C 0.11905(16) 0.19263(16) 1.12172(19)
H46A H 0.1518 0.2011 1.1572
H47A H 0.0915 0.1376 1.1399
H48A H 0.1588 0.1958 1.0674
loop_
_geom_bond_atom_site_label_1
_geom_bond_atom_site_label_2
_geom_bond_site_symmetry_1
_geom_bond_site_symmetry_2
Cu1 O1 1_555 1_555
Cu2 O2 1_555 1_555
O1 C1 1_555 1_555
O2 C1 1_555 1_555
O3 C27 1_555 1_555
O4 C27 1_555 1_555
O5 C28 1_555 1_555
O6 C28 1_555 1_555
O7 Cu1 1_555 1_555
O8 Cu2 1_555 1_555
O9 C14 1_555 1_555
O10 C41 1_555 1_555
O11 Cu2 1_555 1_555
O12 Cu1 1_555 1_555
N1 H1 1_555 1_555
N2 H2 1_555 1_555
N3 C60 1_555 1_555
N4 C56 1_555 1_555
C1 C2 1_555 1_555
C2 C3 1_555 1_555
C3 H3 1_555 1_555
C4 C3 1_555 1_555
H4 C4 1_555 1_555
C5 C4 1_555 1_555
H5 C5 1_555 1_555
C6 C5 1_555 1_555
C7 C2 1_555 1_555
H6 C7 1_555 1_555
C8 C6 1_555 1_555
C9 C8 1_555 1_555
H7 C9 1_555 1_555
C10 C9 1_555 1_555
H8 C10 1_555 1_555
C11 N1 1_555 1_555
C12 C11 1_555 1_555
C13 C8 1_555 1_555
H9 C13 1_555 1_555
C14 C12 1_555 1_555
C15 C14 1_555 1_555
C16 N1 1_555 1_555
C17 C16 1_555 1_555
H10 C17 1_555 1_555
C18 C17 1_555 1_555
H11 C18 1_555 1_555
C19 C18 1_555 1_555
C20 C15 1_555 1_555
H12 C20 1_555 1_555
C21 C19 1_555 1_555
C22 C21 1_555 1_555
H13 C22 1_555 1_555
C23 C22 1_555 1_555
H14 C23 1_555 1_555
C24 C23 1_555 1_555
H15 C24 1_555 1_555
C25 C24 1_555 1_555
C26 C21 1_555 1_555
H16 C26 1_555 1_555
C27 C25 1_555 1_555
C28 C29 1_555 1_555
C29 C30 1_555 1_555
C30 H17 1_555 1_555
C31 C30 1_555 1_555
H18 C31 1_555 1_555
C32 C31 1_555 1_555
H19 C32 1_555 1_555
C33 C32 1_555 1_555
C34 C29 1_555 1_555
H20 C34 1_555 1_555
C35 C33 1_555 1_555
C36 C35 1_555 1_555
H21 C36 1_555 1_555
C37 C36 1_555 1_555
H22 C37 1_555 1_555
C38 N2 1_555 1_555
C39 C38 1_555 1_555
C40 C35 1_555 1_555
H23 C40 1_555 1_555
C41 C39 1_555 1_555
C42 C41 1_555 1_555
C43 N2 1_555 1_555
C44 C43 1_555 1_555
H24 C44 1_555 1_555
C45 C44 1_555 1_555
H25 C45 1_555 1_555
C46 C45 1_555 1_555
C47 C42 1_555 1_555
H26 C47 1_555 1_555
C48 C46 1_555 1_555
C49 C48 1_555 1_555
H27 C49 1_555 1_555
C50 C49 1_555 1_555
H28 C50 1_555 1_555
C51 C50 1_555 1_555
H29 C51 1_555 1_555
C52 C51 1_555 1_555
C53 C48 1_555 1_555
H30 C53 1_555 1_555
C54 O7 1_555 1_555
C55 H31 1_555 1_555
H32 C55 1_555 1_555
H33 C55 1_555 1_555
C56 O11 1_555 1_555
C57 N4 1_555 1_555
H34 C57 1_555 1_555
H35 C57 1_555 1_555
H36 C57 1_555 1_555
C58 N4 1_555 1_555
H37 C58 1_555 1_555
H38 C58 1_555 1_555
H39 C58 1_555 1_555
C59 H40 1_555 1_555
H41 C59 1_555 1_555
H42 C59 1_555 1_555
C60 O12 1_555 1_555
C61 N3 1_555 1_555
H43 C61 1_555 1_555
H44 C61 1_555 1_555
H45 C61 1_555 1_555
C62 N3 1_555 1_555
H46 C62 1_555 1_555
H47 C62 1_555 1_555
H48 C62 1_555 1_555
Cu1A O3 1_555 1_555
Cu2A O4 1_555 1_555
O1A Cu1A 1_555 1_555
O2A Cu2A 1_555 1_555
O3A Cu1 1_555 1_555
O4A Cu2 1_555 1_555
O5A Cu1 1_555 1_555
O6A Cu2 1_555 1_555
O7A Cu1A 1_555 1_555
O8A Cu2A 1_555 1_555
O9A C14A 1_555 1_555
O10A C41A 1_555 1_555
O11A Cu2A 1_555 1_555
O12A Cu1A 1_555 1_555
N1A H1A 1_555 1_555
N2A H2A 1_555 1_555
N3A C60A 1_555 1_555
N4A C56A 1_555 1_555
C1A O1A 1_555 1_555
C2A C1A 1_555 1_555
C3A C2A 1_555 1_555
H3A C3A 1_555 1_555
C4A C3A 1_555 1_555
H4A C4A 1_555 1_555
C5A C4A 1_555 1_555
H5A C5A 1_555 1_555
C6A C5A 1_555 1_555
C7A C2A 1_555 1_555
H6A C7A 1_555 1_555
C8A C6A 1_555 1_555
C9A C8A 1_555 1_555
H7A C9A 1_555 1_555
C10A C9A 1_555 1_555
H8A C10A 1_555 1_555
C11A N1A 1_555 1_555
C12A C11A 1_555 1_555
C13A C8A 1_555 1_555
H9A C13A 1_555 1_555
C14A C12A 1_555 1_555
C15A C14A 1_555 1_555
C16A N1A 1_555 1_555
C17A C16A 1_555 1_555
H10A C17A 1_555 1_555
C18A C17A 1_555 1_555
H11A C18A 1_555 1_555
C19A C18A 1_555 1_555
C20A C15A 1_555 1_555
H12A C20A 1_555 1_555
C21A C19A 1_555 1_555
C22A C21A 1_555 1_555
H13A C22A 1_555 1_555
C23A C22A 1_555 1_555
H14A C23A 1_555 1_555
C24A C23A 1_555 1_555
H15A C24A 1_555 1_555
C25A C24A 1_555 1_555
C26A C21A 1_555 1_555
H16A C26A 1_555 1_555
C27A O3A 1_555 1_555
C28A O5A 1_555 1_555
C29A C28A 1_555 1_555
C30A C29A 1_555 1_555
H17A C30A 1_555 1_555
C31A C30A 1_555 1_555
H18A C31A 1_555 1_555
C32A C31A 1_555 1_555
H19A C32A 1_555 1_555
C33A C32A 1_555 1_555
C34A C29A 1_555 1_555
H20A C34A 1_555 1_555
C35A C33A 1_555 1_555
C36A C35A 1_555 1_555
H21A C36A 1_555 1_555
C37A C36A 1_555 1_555
H22A C37A 1_555 1_555
C38A N2A 1_555 1_555
C39A C38A 1_555 1_555
C40A C35A 1_555 1_555
H23A C40A 1_555 1_555
C41A C39A 1_555 1_555
C42A C41A 1_555 1_555
C43A N2A 1_555 1_555
C44A C43A 1_555 1_555
H24A C44A 1_555 1_555
C45A C44A 1_555 1_555
H25A C45A 1_555 1_555
C46A C45A 1_555 1_555
C47A C42A 1_555 1_555
H26A C47A 1_555 1_555
C48A C46A 1_555 1_555
C49A C48A 1_555 1_555
H27A C49A 1_555 1_555
C50A C49A 1_555 1_555
H28A C50A 1_555 1_555
C51A C50A 1_555 1_555
H29A C51A 1_555 1_555
C52A C51A 1_555 1_555
C53A C48A 1_555 1_555
H30A C53A 1_555 1_555
C54A O7A 1_555 1_555
C55A H31A 1_555 1_555
H32A C55A 1_555 1_555
H33A C55A 1_555 1_555
C56A O11A 1_555 1_555
C57A N4A 1_555 1_555
H34A C57A 1_555 1_555
H35A C57A 1_555 1_555
H36A C57A 1_555 1_555
C58A N4A 1_555 1_555
H37A C58A 1_555 1_555
H38A C58A 1_555 1_555
H39A C58A 1_555 1_555
C59A H40A 1_555 1_555
H41A C59A 1_555 1_555
H42A C59A 1_555 1_555
C60A O12A 1_555 1_555
C61A N3A 1_555 1_555
H43A C61A 1_555 1_555
H44A C61A 1_555 1_555
H45A C61A 1_555 1_555
C62A N3A 1_555 1_555
H46A C62A 1_555 1_555
H47A C62A 1_555 1_555
H48A C62A 1_555 1_555
O5 Cu1A 1_555 1_555
O6 Cu2A 1_555 1_555
O8 C54 1_555 1_555
C6 C7 1_555 1_555
C10 C11 1_555 1_555
C12 C13 1_555 1_555
C15 C16 1_555 1_555
C19 C20 1_555 1_555
C25 C26 1_555 1_555
C33 C34 1_555 1_555
C37 C38 1_555 1_555
C39 C40 1_555 1_555
C42 C43 1_555 1_555
C46 C47 1_555 1_555
C52 C53 1_555 1_555
C52 C54 1_555 1_555
C55 C56 1_555 1_555
C59 C60 1_555 1_555
O2A C1A 1_555 1_555
O4A C27A 1_555 1_555
O6A C28A 1_555 1_555
O8A C54A 1_555 1_555
C6A C7A 1_555 1_555
C10A C11A 1_555 1_555
C12A C13A 1_555 1_555
C15A C16A 1_555 1_555
C19A C20A 1_555 1_555
C25A C26A 1_555 1_555
C25A C27A 1_555 1_555
C33A C34A 1_555 1_555
C37A C38A 1_555 1_555
C39A C40A 1_555 1_555
C42A C43A 1_555 1_555
C46A C47A 1_555 1_555
C52A C53A 1_555 1_555
C52A C54A 1_555 1_555
C55A C56A 1_555 1_555
C59A C60A 1_555 1_555

#END
