
#######################################################################
#
#                 Cambridge Crystallographic Data Centre
#                                CCDC 
#
#######################################################################
#
# If this CIF has been generated from an entry in the Cambridge 
# Structural Database, then it will include bibliographic, chemical, 
# crystal, experimental, refinement or atomic coordinate data resulting 
# from the CCDC's data processing and validation procedures.
#
#######################################################################

data_CITTUV01
_chemical_formula_moiety         'C44 H44 Cu4 N12 4+,4(F6 P1 1-)'
_chemical_name_systematic        
'tetrakis((\m~2~-4-(2-Pyridyl)pyrimidine)-(\h^2^-ethene))-tetra-copper(i) hexafluorophosphate clathrate tris(hexafluorophosphate)'
_symmetry_cell_setting           orthorhombic
_symmetry_space_group_name_H-M   'I b a 2'
_symmetry_Int_Tables_number      45
_space_group_name_Hall           'I 2 -2c'
loop_
_symmetry_equiv_pos_site_id
_symmetry_equiv_pos_as_xyz
1 x,y,z
2 -x,-y,z
3 -x,y,1/2+z
4 x,-y,1/2+z
5 1/2+x,1/2+y,1/2+z
6 1/2-x,1/2-y,1/2+z
7 1/2-x,1/2+y,z
8 1/2+x,1/2-y,z
_cell_length_a                   14.6057(9)
_cell_length_b                   28.370(2)
_cell_length_c                   14.0685(9)
_cell_angle_alpha                90
_cell_angle_beta                 90
_cell_angle_gamma                90
_cell_volume                     5829.48
_exptl_crystal_colour            yellow
_exptl_crystal_description       Platelet
_cell_formula_units_Z            4
_chemical_properties_physical    air-sensitive
loop_
_atom_site_label
_atom_site_type_symbol
_atom_site_fract_x
_atom_site_fract_y
_atom_site_fract_z
Cu1 Cu 0.69911(3) 0.38843(1) 0.47894(4)
Cu2 Cu 0.28304(3) 0.39833(1) 0.47802(4)
N1 N 0.4027(2) 0.3813(1) 0.4145(2)
N2 N 0.5645(2) 0.3762(1) 0.4228(2)
N3 N 0.7256(2) 0.3381(1) 0.3805(2)
N4 N 0.7333(2) 0.4496(1) 0.4144(2)
N5 N 0.2576(2) 0.4671(1) 0.4215(2)
N6 N 0.1873(2) 0.3831(1) 0.3781(2)
C1 C 0.4848(2) 0.3929(1) 0.4514(3)
C2 C 0.5653(2) 0.3459(1) 0.3488(2)
C3 C 0.4849(2) 0.3348(1) 0.3009(3)
C4 C 0.4054(3) 0.3533(1) 0.3376(3)
C5 C 0.6554(2) 0.3243(1) 0.3260(3)
C6 C 0.6662(3) 0.2914(1) 0.2547(3)
C7 C 0.7519(3) 0.2719(1) 0.2397(3)
C8 C 0.8232(3) 0.2853(1) 0.2970(3)
C9 C 0.8082(3) 0.3185(1) 0.3655(3)
C10 C 0.7176(3) 0.3545(2) 0.6063(4)
C11 C 0.7124(3) 0.4022(1) 0.6183(3)
C12 C 0.7097(2) 0.4916(1) 0.4505(3)
C13 C 0.1969(2) 0.4666(1) 0.3497(3)
C14 C 0.1736(3) 0.5082(1) 0.3044(3)
C15 C 0.7908(3) 0.4509(1) 0.3399(3)
C16 C 0.1562(2) 0.4202(1) 0.3265(3)
C17 C 0.0905(3) 0.4141(2) 0.2572(3)
C18 C 0.0556(3) 0.3700(2) 0.2392(3)
C19 C 0.0862(3) 0.3329(1) 0.2931(4)
C20 C 0.1518(3) 0.3407(1) 0.3606(3)
C21 C 0.2176(4) 0.3878(2) 0.6061(4)
C22 C 0.3072(3) 0.3913(2) 0.6161(3)
H1 H 0.4854 0.4133 0.4986
H2 H 0.4850 0.3169 0.2498
H3 H 0.3534 0.3464 0.3091
H4 H 0.6194 0.2829 0.2192
H5 H 0.7605 0.2512 0.1939
H6 H 0.8778 0.2727 0.2898
H7 H 0.8545 0.3275 0.4014
H8 H 0.6675 0.3373 0.6081
H9 H 0.7710 0.3410 0.5968
H10 H 0.6590 0.4158 0.6277
H11 H 0.7625 0.4195 0.6165
H12 H 0.6693 0.4918 0.4969
H13 H 0.1371 0.5084 0.2546
H14 H 0.8062 0.4241 0.3127
H15 H 0.0709 0.4386 0.2245
H16 H 0.0147 0.3656 0.1941
H17 H 0.0638 0.3044 0.2843
H18 H 0.1715 0.3165 0.3942
H19 H 0.1831 0.4132 0.6094
H20 H 0.1922 0.3601 0.5962
H21 H 0.3325 0.4190 0.6260
H22 H 0.3417 0.3659 0.6128
Cu1A Cu 0.30089(3) 0.61157(1) 0.47894(4)
Cu2A Cu 0.71696(3) 0.60167(1) 0.47802(4)
N1A N 0.5973(2) 0.6187(1) 0.4145(2)
N2A N 0.4355(2) 0.6238(1) 0.4228(2)
N3A N 0.2744(2) 0.6619(1) 0.3805(2)
N4A N 0.2667(2) 0.5504(1) 0.4144(2)
N5A N 0.7424(2) 0.5329(1) 0.4215(2)
N6A N 0.8127(2) 0.6169(1) 0.3781(2)
C1A C 0.5152(2) 0.6071(1) 0.4514(3)
C2A C 0.4347(2) 0.6541(1) 0.3488(2)
C3A C 0.5151(2) 0.6652(1) 0.3009(3)
C4A C 0.5946(3) 0.6467(1) 0.3376(3)
C5A C 0.3446(2) 0.6757(1) 0.3260(3)
C6A C 0.3338(3) 0.7086(1) 0.2547(3)
C7A C 0.2481(3) 0.7281(1) 0.2397(3)
C8A C 0.1768(3) 0.7147(1) 0.2970(3)
C9A C 0.1918(3) 0.6815(1) 0.3655(3)
C10A C 0.2824(3) 0.6455(2) 0.6063(4)
C11A C 0.2876(3) 0.5978(1) 0.6183(3)
C12A C 0.2903(2) 0.5084(1) 0.4505(3)
C13A C 0.8031(2) 0.5334(1) 0.3497(3)
C14A C 0.8264(3) 0.4918(1) 0.3044(3)
C15A C 0.2092(3) 0.5491(1) 0.3399(3)
C16A C 0.8438(2) 0.5798(1) 0.3265(3)
C17A C 0.9095(3) 0.5859(2) 0.2572(3)
C18A C 0.9444(3) 0.6300(2) 0.2392(3)
C19A C 0.9138(3) 0.6671(1) 0.2931(4)
C20A C 0.8482(3) 0.6593(1) 0.3606(3)
C21A C 0.7824(4) 0.6122(2) 0.6061(4)
C22A C 0.6928(3) 0.6087(2) 0.6161(3)
H1A H 0.5146 0.5867 0.4986
H2A H 0.5150 0.6831 0.2498
H3A H 0.6466 0.6536 0.3091
H4A H 0.3806 0.7171 0.2192
H5A H 0.2395 0.7488 0.1939
H6A H 0.1222 0.7273 0.2898
H7A H 0.1455 0.6725 0.4014
H8A H 0.3325 0.6627 0.6081
H9A H 0.2290 0.6590 0.5968
H10A H 0.3410 0.5842 0.6277
H11A H 0.2375 0.5805 0.6165
H12A H 0.3307 0.5082 0.4969
H13A H 0.8629 0.4916 0.2546
H14A H 0.1938 0.5759 0.3127
H15A H 0.9291 0.5614 0.2245
H16A H 0.9853 0.6344 0.1941
H17A H 0.9362 0.6956 0.2843
H18A H 0.8285 0.6835 0.3942
H19A H 0.8169 0.5868 0.6094
H20A H 0.8078 0.6399 0.5962
H21A H 0.6675 0.5810 0.6260
H22A H 0.6583 0.6341 0.6128
P1 P 0.5000 0.5000 0.2177(2)
F1 F 0.5000 0.5000 0.3299(5)
F2 F 0.5000 0.5000 0.1078(5)
F3 F 0.5022(3) 0.4444(1) 0.2179(5)
F4 F 0.6074(2) 0.5016(1) 0.2182(5)
F3A F 0.4978(3) 0.5556(1) 0.2179(5)
F4A F 0.3926(2) 0.4984(1) 0.2182(5)
P3 P 0.50626(7) 0.24251(4) 0.54202(9)
F10 F 0.5249(3) 0.18792(9) 0.5349(3)
F11 F 0.4863(2) 0.29746(9) 0.5503(3)
F12 F 0.5238(2) 0.2420(1) 0.6535(2)
F13 F 0.4882(2) 0.2433(1) 0.4301(2)
F14 F 0.6102(2) 0.2533(1) 0.5228(3)
F15 F 0.4014(2) 0.2325(1) 0.5632(3)
loop_
_geom_bond_atom_site_label_1
_geom_bond_atom_site_label_2
_geom_bond_site_symmetry_1
_geom_bond_site_symmetry_2
Cu1 N2 1_555 1_555
Cu2 N1 1_555 1_555
P1 F1 1_555 1_555
P3 F10 1_555 1_555
F2 P1 1_555 1_555
F3 P1 1_555 1_555
F4 P1 1_555 1_555
F11 P3 1_555 1_555
F12 P3 1_555 1_555
F13 P3 1_555 1_555
F14 P3 1_555 1_555
F15 P3 1_555 1_555
N1 C1 1_555 1_555
N2 C1 1_555 1_555
N3 Cu1 1_555 1_555
N4 Cu1 1_555 1_555
N5 Cu2 1_555 1_555
N6 Cu2 1_555 1_555
C1 H1 1_555 1_555
C2 N2 1_555 1_555
C3 C2 1_555 1_555
C4 N1 1_555 1_555
C5 N3 1_555 1_555
C6 C5 1_555 1_555
C7 C6 1_555 1_555
C8 C7 1_555 1_555
C9 N3 1_555 1_555
C10 Cu1 1_555 1_555
C11 Cu1 1_555 1_555
C12 N4 1_555 1_555
C13 N5 1_555 1_555
C14 C13 1_555 1_555
C15 N4 1_555 1_555
C16 N6 1_555 1_555
C17 C16 1_555 1_555
C18 C17 1_555 1_555
C19 C18 1_555 1_555
C20 N6 1_555 1_555
C21 Cu2 1_555 1_555
C22 Cu2 1_555 1_555
H2 C3 1_555 1_555
H3 C4 1_555 1_555
H4 C6 1_555 1_555
H5 C7 1_555 1_555
H6 C8 1_555 1_555
H7 C9 1_555 1_555
H8 C10 1_555 1_555
H9 C10 1_555 1_555
H10 C11 1_555 1_555
H11 C11 1_555 1_555
H12 C12 1_555 1_555
H13 C14 1_555 1_555
H14 C15 1_555 1_555
H15 C17 1_555 1_555
H16 C18 1_555 1_555
H17 C19 1_555 1_555
H18 C20 1_555 1_555
H19 C21 1_555 1_555
H20 C21 1_555 1_555
H21 C22 1_555 1_555
H22 C22 1_555 1_555
Cu1A N2A 1_555 1_555
Cu2A N1A 1_555 1_555
F3A P1 1_555 1_555
F4A P1 1_555 1_555
N1A C1A 1_555 1_555
N2A C1A 1_555 1_555
N3A Cu1A 1_555 1_555
N4A Cu1A 1_555 1_555
N5A C12 1_555 1_555
N6A Cu2A 1_555 1_555
C1A H1A 1_555 1_555
C2A N2A 1_555 1_555
C3A C2A 1_555 1_555
C4A N1A 1_555 1_555
C5A N3A 1_555 1_555
C6A C5A 1_555 1_555
C7A C6A 1_555 1_555
C8A C7A 1_555 1_555
C9A N3A 1_555 1_555
C10A Cu1A 1_555 1_555
C11A Cu1A 1_555 1_555
C12A N5 1_555 1_555
C13A N5A 1_555 1_555
C14A C15 1_555 1_555
C15A C14 1_555 1_555
C16A N6A 1_555 1_555
C17A C16A 1_555 1_555
C18A C17A 1_555 1_555
C19A C18A 1_555 1_555
C20A N6A 1_555 1_555
C21A Cu2A 1_555 1_555
C22A Cu2A 1_555 1_555
H2A C3A 1_555 1_555
H3A C4A 1_555 1_555
H4A C6A 1_555 1_555
H5A C7A 1_555 1_555
H6A C8A 1_555 1_555
H7A C9A 1_555 1_555
H8A C10A 1_555 1_555
H9A C10A 1_555 1_555
H10A C11A 1_555 1_555
H11A C11A 1_555 1_555
H12A C12A 1_555 1_555
H13A C14A 1_555 1_555
H14A C15A 1_555 1_555
H15A C17A 1_555 1_555
H16A C18A 1_555 1_555
H17A C19A 1_555 1_555
H18A C20A 1_555 1_555
H19A C21A 1_555 1_555
H20A C21A 1_555 1_555
H21A C22A 1_555 1_555
H22A C22A 1_555 1_555
C2 C5 1_555 1_555
C3 C4 1_555 1_555
C8 C9 1_555 1_555
C10 C11 1_555 1_555
C13 C16 1_555 1_555
C19 C20 1_555 1_555
C21 C22 1_555 1_555
Cu2A N5A 1_555 1_555
N4A C12A 1_555 1_555
N4A C15A 1_555 1_555
C2A C5A 1_555 1_555
C3A C4A 1_555 1_555
C8A C9A 1_555 1_555
C10A C11A 1_555 1_555
C13A C14A 1_555 1_555
C13A C16A 1_555 1_555
C19A C20A 1_555 1_555
C21A C22A 1_555 1_555

#END
