# generated using pymatgen
data_CuH11C11N3ClO4
_symmetry_space_group_name_H-M   'P 1'
_cell_length_a   14.44190000
_cell_length_b   21.44800000
_cell_length_c   38.60700000
_cell_angle_alpha   90.00000000
_cell_angle_beta   90.00000000
_cell_angle_gamma   90.00000000
_symmetry_Int_Tables_number   1
_chemical_formula_structural   CuH11C11N3ClO4
_chemical_formula_sum   'Cu36 H396 C396 N108 Cl36 O144'
_cell_volume   11958.51327742
_cell_formula_units_Z   36
loop_
 _symmetry_equiv_pos_site_id
 _symmetry_equiv_pos_as_xyz
  1  'x, y, z'
loop_
 _atom_site_type_symbol
 _atom_site_label
 _atom_site_symmetry_multiplicity
 _atom_site_fract_x
 _atom_site_fract_y
 _atom_site_fract_z
 _atom_site_occupancy
  Cu  Cu1  1  0.049370  0.507040  0.268840  1
  Cu  Cu2  1  0.950630  0.007040  0.731160  1
  Cu  Cu3  1  0.450630  0.007040  0.768840  1
  Cu  Cu4  1  0.549370  0.507040  0.231160  1
  Cu  Cu5  1  0.052500  0.773920  0.325890  1
  Cu  Cu6  1  0.947500  0.273920  0.674110  1
  Cu  Cu7  1  0.447500  0.273920  0.825890  1
  Cu  Cu8  1  0.552500  0.773920  0.174110  1
  Cu  Cu9  1  0.060590  0.721920  0.173440  1
  Cu  Cu10  1  0.939410  0.221920  0.826560  1
  Cu  Cu11  1  0.439410  0.221920  0.673440  1
  Cu  Cu12  1  0.560590  0.721920  0.326560  1
  Cu  Cu13  1  0.541830  0.834510  0.570460  1
  Cu  Cu14  1  0.458170  0.334510  0.429540  1
  Cu  Cu15  1  0.958170  0.334510  0.070460  1
  Cu  Cu16  1  0.041830  0.834510  0.929540  1
  Cu  Cu17  1  0.542660  0.580070  0.501580  1
  Cu  Cu18  1  0.457340  0.080070  0.498420  1
  Cu  Cu19  1  0.957340  0.080070  0.001580  1
  Cu  Cu20  1  0.042660  0.580070  0.998420  1
  Cu  Cu21  1  0.547960  0.603360  0.657760  1
  Cu  Cu22  1  0.452040  0.103360  0.342240  1
  Cu  Cu23  1  0.952040  0.103360  0.157760  1
  Cu  Cu24  1  0.047960  0.603360  0.842240  1
  Cu  Cu25  1  0.055910  0.819410  0.625800  1
  Cu  Cu26  1  0.944090  0.319410  0.374200  1
  Cu  Cu27  1  0.444090  0.319410  0.125800  1
  Cu  Cu28  1  0.555910  0.819410  0.874200  1
  Cu  Cu29  1  0.042730  0.536140  0.646060  1
  Cu  Cu30  1  0.957270  0.036140  0.353940  1
  Cu  Cu31  1  0.457270  0.036140  0.146060  1
  Cu  Cu32  1  0.542730  0.536140  0.853940  1
  Cu  Cu33  1  0.044940  0.653450  0.503870  1
  Cu  Cu34  1  0.955060  0.153450  0.496130  1
  Cu  Cu35  1  0.455060  0.153450  0.003870  1
  Cu  Cu36  1  0.544940  0.653450  0.996130  1
  H  H37  1  0.998900  0.645700  0.299900  1
  H  H38  1  0.001100  0.145700  0.700100  1
  H  H39  1  0.501100  0.145700  0.799900  1
  H  H40  1  0.498900  0.645700  0.200100  1
  H  H41  1  0.205300  0.696300  0.359000  1
  H  H42  1  0.794700  0.196300  0.641000  1
  H  H43  1  0.294700  0.196300  0.859000  1
  H  H44  1  0.705300  0.696300  0.141000  1
  H  H45  1  0.270500  0.598100  0.353900  1
  H  H46  1  0.729500  0.098100  0.646100  1
  H  H47  1  0.229500  0.098100  0.853900  1
  H  H48  1  0.770500  0.598100  0.146100  1
  H  H49  1  0.325300  0.505500  0.343800  1
  H  H50  1  0.674700  0.005500  0.656200  1
  H  H51  1  0.174700  0.005500  0.843800  1
  H  H52  1  0.825300  0.505500  0.156200  1
  H  H53  1  0.384500  0.409900  0.325700  1
  H  H54  1  0.615500  0.909900  0.674300  1
  H  H55  1  0.115500  0.909900  0.825700  1
  H  H56  1  0.884500  0.409900  0.174300  1
  H  H57  1  0.304400  0.349900  0.285600  1
  H  H58  1  0.695600  0.849900  0.714400  1
  H  H59  1  0.195600  0.849900  0.785600  1
  H  H60  1  0.804400  0.349900  0.214400  1
  H  H61  1  0.162300  0.387100  0.265100  1
  H  H62  1  0.837700  0.887100  0.734900  1
  H  H63  1  0.337700  0.887100  0.765100  1
  H  H64  1  0.662300  0.387100  0.234900  1
  H  H65  1  0.932100  0.474000  0.308700  1
  H  H66  1  0.067900  0.974000  0.691300  1
  H  H67  1  0.567900  0.974000  0.808700  1
  H  H68  1  0.432100  0.474000  0.191300  1
  H  H69  1  0.949500  0.419500  0.279400  1
  H  H70  1  0.050500  0.919500  0.720600  1
  H  H71  1  0.550500  0.919500  0.779400  1
  H  H72  1  0.449500  0.419500  0.220600  1
  H  H73  1  0.912600  0.487900  0.237100  1
  H  H74  1  0.087400  0.987900  0.762900  1
  H  H75  1  0.587400  0.987900  0.737100  1
  H  H76  1  0.412600  0.487900  0.262900  1
  H  H77  1  0.895200  0.542400  0.266400  1
  H  H78  1  0.104800  0.042400  0.733600  1
  H  H79  1  0.604800  0.042400  0.766400  1
  H  H80  1  0.395200  0.542400  0.233600  1
  H  H81  1  0.005800  0.751200  0.245200  1
  H  H82  1  0.994200  0.251200  0.754800  1
  H  H83  1  0.494200  0.251200  0.745200  1
  H  H84  1  0.505800  0.751200  0.254800  1
  H  H85  1  0.225700  0.801900  0.192500  1
  H  H86  1  0.774300  0.301900  0.807500  1
  H  H87  1  0.274300  0.301900  0.692500  1
  H  H88  1  0.725700  0.801900  0.307500  1
  H  H89  1  0.289400  0.845300  0.242800  1
  H  H90  1  0.710600  0.345300  0.757200  1
  H  H91  1  0.210600  0.345300  0.742800  1
  H  H92  1  0.789400  0.845300  0.257200  1
  H  H93  1  0.329400  0.890500  0.291600  1
  H  H94  1  0.670600  0.390500  0.708400  1
  H  H95  1  0.170600  0.390500  0.791600  1
  H  H96  1  0.829400  0.890500  0.208400  1
  H  H97  1  0.383100  0.917200  0.346800  1
  H  H98  1  0.616900  0.417200  0.653200  1
  H  H99  1  0.116900  0.417200  0.846800  1
  H  H100  1  0.883100  0.917200  0.153200  1
  H  H101  1  0.301500  0.880900  0.395300  1
  H  H102  1  0.698500  0.380900  0.604700  1
  H  H103  1  0.198500  0.380900  0.895300  1
  H  H104  1  0.801500  0.880900  0.104700  1
  H  H105  1  0.168100  0.823900  0.387500  1
  H  H106  1  0.831900  0.323900  0.612500  1
  H  H107  1  0.331900  0.323900  0.887500  1
  H  H108  1  0.668100  0.823900  0.112500  1
  H  H109  1  0.955600  0.864300  0.332500  1
  H  H110  1  0.044400  0.364300  0.667500  1
  H  H111  1  0.544400  0.364300  0.832500  1
  H  H112  1  0.455600  0.864300  0.167500  1
  H  H113  1  0.948300  0.820500  0.367400  1
  H  H114  1  0.051700  0.320500  0.632600  1
  H  H115  1  0.551700  0.320500  0.867400  1
  H  H116  1  0.448300  0.820500  0.132600  1
  H  H117  1  0.897200  0.740400  0.334800  1
  H  H118  1  0.102800  0.240400  0.665200  1
  H  H119  1  0.602800  0.240400  0.834800  1
  H  H120  1  0.397200  0.740400  0.165200  1
  H  H121  1  0.904500  0.784300  0.299900  1
  H  H122  1  0.095500  0.284300  0.700100  1
  H  H123  1  0.595500  0.284300  0.799900  1
  H  H124  1  0.404500  0.784300  0.200100  1
  H  H125  1  0.012900  0.614700  0.222700  1
  H  H126  1  0.987100  0.114700  0.777300  1
  H  H127  1  0.487100  0.114700  0.722700  1
  H  H128  1  0.512900  0.614700  0.277300  1
  H  H129  1  0.217500  0.495900  0.221500  1
  H  H130  1  0.782500  0.995900  0.778500  1
  H  H131  1  0.282500  0.995900  0.721500  1
  H  H132  1  0.717500  0.495900  0.278500  1
  H  H133  1  0.285800  0.548400  0.176200  1
  H  H134  1  0.714200  0.048400  0.823800  1
  H  H135  1  0.214200  0.048400  0.676200  1
  H  H136  1  0.785800  0.548400  0.323800  1
  H  H137  1  0.337500  0.605000  0.134000  1
  H  H138  1  0.662500  0.105000  0.866000  1
  H  H139  1  0.162500  0.105000  0.634000  1
  H  H140  1  0.837500  0.605000  0.366000  1
  H  H141  1  0.396300  0.672400  0.092400  1
  H  H142  1  0.603700  0.172400  0.907600  1
  H  H143  1  0.103700  0.172400  0.592400  1
  H  H144  1  0.896300  0.672400  0.407600  1
  H  H145  1  0.317800  0.769000  0.083000  1
  H  H146  1  0.682200  0.269000  0.917000  1
  H  H147  1  0.182200  0.269000  0.583000  1
  H  H148  1  0.817800  0.769000  0.417000  1
  H  H149  1  0.181000  0.788300  0.112300  1
  H  H150  1  0.819000  0.288300  0.887700  1
  H  H151  1  0.319000  0.288300  0.612300  1
  H  H152  1  0.681000  0.788300  0.387700  1
  H  H153  1  0.983100  0.691400  0.121600  1
  H  H154  1  0.016900  0.191400  0.878400  1
  H  H155  1  0.516900  0.191400  0.621600  1
  H  H156  1  0.483100  0.691400  0.378400  1
  H  H157  1  0.918500  0.674600  0.155500  1
  H  H158  1  0.081500  0.174600  0.844500  1
  H  H159  1  0.581500  0.174600  0.655500  1
  H  H160  1  0.418500  0.674600  0.344500  1
  H  H161  1  0.916000  0.776700  0.170400  1
  H  H162  1  0.084000  0.276700  0.829600  1
  H  H163  1  0.584000  0.276700  0.670400  1
  H  H164  1  0.416000  0.776700  0.329600  1
  H  H165  1  0.980600  0.793400  0.136600  1
  H  H166  1  0.019400  0.293400  0.863400  1
  H  H167  1  0.519400  0.293400  0.636600  1
  H  H168  1  0.480600  0.793400  0.363400  1
  H  H169  1  0.495900  0.700100  0.535200  1
  H  H170  1  0.504100  0.200100  0.464800  1
  H  H171  1  0.004100  0.200100  0.035200  1
  H  H172  1  0.995900  0.700100  0.964800  1
  H  H173  1  0.685900  0.666200  0.465100  1
  H  H174  1  0.314100  0.166200  0.534900  1
  H  H175  1  0.814100  0.166200  0.965100  1
  H  H176  1  0.185900  0.666200  0.034900  1
  H  H177  1  0.751100  0.762500  0.475700  1
  H  H178  1  0.248900  0.262500  0.524300  1
  H  H179  1  0.748900  0.262500  0.975700  1
  H  H180  1  0.251100  0.762500  0.024300  1
  H  H181  1  0.821300  0.844200  0.496500  1
  H  H182  1  0.178700  0.344200  0.503500  1
  H  H183  1  0.678700  0.344200  0.996500  1
  H  H184  1  0.321300  0.844200  0.003500  1
  H  H185  1  0.890200  0.930400  0.522300  1
  H  H186  1  0.109800  0.430400  0.477700  1
  H  H187  1  0.609800  0.430400  0.022300  1
  H  H188  1  0.390200  0.930400  0.977700  1
  H  H189  1  0.809300  0.985900  0.564900  1
  H  H190  1  0.190700  0.485900  0.435100  1
  H  H191  1  0.690700  0.485900  0.064900  1
  H  H192  1  0.309300  0.985900  0.935100  1
  H  H193  1  0.661600  0.951700  0.580700  1
  H  H194  1  0.338400  0.451700  0.419300  1
  H  H195  1  0.838400  0.451700  0.080700  1
  H  H196  1  0.161600  0.951700  0.919300  1
  H  H197  1  0.430800  0.857000  0.526500  1
  H  H198  1  0.569200  0.357000  0.473500  1
  H  H199  1  0.069200  0.357000  0.026500  1
  H  H200  1  0.930800  0.857000  0.973500  1
  H  H201  1  0.449100  0.919400  0.550300  1
  H  H202  1  0.550900  0.419400  0.449700  1
  H  H203  1  0.050900  0.419400  0.050300  1
  H  H204  1  0.949100  0.919400  0.949700  1
  H  H205  1  0.402200  0.866300  0.598300  1
  H  H206  1  0.597800  0.366300  0.401700  1
  H  H207  1  0.097800  0.366300  0.098300  1
  H  H208  1  0.902200  0.866300  0.901700  1
  H  H209  1  0.384000  0.803800  0.574600  1
  H  H210  1  0.616000  0.303800  0.425400  1
  H  H211  1  0.116000  0.303800  0.074600  1
  H  H212  1  0.884000  0.803800  0.925400  1
  H  H213  1  0.493800  0.588900  0.584000  1
  H  H214  1  0.506200  0.088900  0.416000  1
  H  H215  1  0.006200  0.088900  0.084000  1
  H  H216  1  0.993800  0.588900  0.916000  1
  H  H217  1  0.709400  0.522600  0.635200  1
  H  H218  1  0.290600  0.022600  0.364800  1
  H  H219  1  0.790600  0.022600  0.135200  1
  H  H220  1  0.209400  0.522600  0.864800  1
  H  H221  1  0.775600  0.491400  0.583300  1
  H  H222  1  0.224400  0.991400  0.416700  1
  H  H223  1  0.724400  0.991400  0.083300  1
  H  H224  1  0.275600  0.491400  0.916700  1
  H  H225  1  0.829700  0.467700  0.532700  1
  H  H226  1  0.170300  0.967700  0.467300  1
  H  H227  1  0.670300  0.967700  0.032700  1
  H  H228  1  0.329700  0.467700  0.967300  1
  H  H229  1  0.889300  0.456400  0.476500  1
  H  H230  1  0.110700  0.956400  0.523500  1
  H  H231  1  0.610700  0.956400  0.976500  1
  H  H232  1  0.389300  0.456400  0.023500  1
  H  H233  1  0.804200  0.494200  0.429000  1
  H  H234  1  0.195800  0.994200  0.571000  1
  H  H235  1  0.695800  0.994200  0.929000  1
  H  H236  1  0.304200  0.494200  0.071000  1
  H  H237  1  0.659700  0.539400  0.439500  1
  H  H238  1  0.340300  0.039400  0.560500  1
  H  H239  1  0.840300  0.039400  0.939500  1
  H  H240  1  0.159700  0.539400  0.060500  1
  H  H241  1  0.437700  0.494700  0.500800  1
  H  H242  1  0.562300  0.994700  0.499200  1
  H  H243  1  0.062300  0.994700  0.000800  1
  H  H244  1  0.937700  0.494700  0.999200  1
  H  H245  1  0.447200  0.524700  0.461700  1
  H  H246  1  0.552800  0.024700  0.538300  1
  H  H247  1  0.052800  0.024700  0.961700  1
  H  H248  1  0.947200  0.524700  0.038300  1
  H  H249  1  0.394700  0.615500  0.481500  1
  H  H250  1  0.605300  0.115500  0.518500  1
  H  H251  1  0.105300  0.115500  0.981500  1
  H  H252  1  0.894700  0.615500  0.018500  1
  H  H253  1  0.385100  0.585500  0.520500  1
  H  H254  1  0.614900  0.085500  0.479500  1
  H  H255  1  0.114900  0.085500  0.020500  1
  H  H256  1  0.885100  0.585500  0.979500  1
  H  H257  1  0.495300  0.725100  0.614000  1
  H  H258  1  0.504700  0.225100  0.386000  1
  H  H259  1  0.004700  0.225100  0.114000  1
  H  H260  1  0.995300  0.725100  0.886000  1
  H  H261  1  0.701600  0.842700  0.620500  1
  H  H262  1  0.298400  0.342700  0.379500  1
  H  H263  1  0.798400  0.342700  0.120500  1
  H  H264  1  0.201600  0.842700  0.879500  1
  H  H265  1  0.771800  0.780700  0.662100  1
  H  H266  1  0.228200  0.280700  0.337900  1
  H  H267  1  0.728200  0.280700  0.162100  1
  H  H268  1  0.271800  0.780700  0.837900  1
  H  H269  1  0.821200  0.718900  0.702700  1
  H  H270  1  0.178800  0.218900  0.297300  1
  H  H271  1  0.678800  0.218900  0.202700  1
  H  H272  1  0.321200  0.718900  0.797300  1
  H  H273  1  0.878200  0.644200  0.740700  1
  H  H274  1  0.121800  0.144200  0.259300  1
  H  H275  1  0.621800  0.144200  0.240700  1
  H  H276  1  0.378200  0.644200  0.759300  1
  H  H277  1  0.803000  0.549100  0.745200  1
  H  H278  1  0.197000  0.049100  0.254800  1
  H  H279  1  0.697000  0.049100  0.245200  1
  H  H280  1  0.303000  0.549100  0.754800  1
  H  H281  1  0.667900  0.531200  0.713400  1
  H  H282  1  0.332100  0.031200  0.286600  1
  H  H283  1  0.832100  0.031200  0.213400  1
  H  H284  1  0.167900  0.531200  0.786600  1
  H  H285  1  0.433100  0.657000  0.690100  1
  H  H286  1  0.566900  0.157000  0.309900  1
  H  H287  1  0.066900  0.157000  0.190100  1
  H  H288  1  0.933100  0.657000  0.809900  1
  H  H289  1  0.477100  0.600100  0.713500  1
  H  H290  1  0.522900  0.100100  0.286500  1
  H  H291  1  0.022900  0.100100  0.213500  1
  H  H292  1  0.977100  0.600100  0.786500  1
  H  H293  1  0.429100  0.531200  0.674400  1
  H  H294  1  0.570900  0.031200  0.325600  1
  H  H295  1  0.070900  0.031200  0.174400  1
  H  H296  1  0.929100  0.531200  0.825600  1
  H  H297  1  0.385100  0.588100  0.651000  1
  H  H298  1  0.614900  0.088100  0.349000  1
  H  H299  1  0.114900  0.088100  0.151000  1
  H  H300  1  0.885100  0.588100  0.849000  1
  H  H301  1  0.001400  0.670400  0.633900  1
  H  H302  1  0.998600  0.170400  0.366100  1
  H  H303  1  0.498600  0.170400  0.133900  1
  H  H304  1  0.501400  0.670400  0.866100  1
  H  H305  1  0.179100  0.593100  0.697100  1
  H  H306  1  0.820900  0.093100  0.302900  1
  H  H307  1  0.320900  0.093100  0.197100  1
  H  H308  1  0.679100  0.593100  0.802900  1
  H  H309  1  0.251800  0.689000  0.704600  1
  H  H310  1  0.748200  0.189000  0.295400  1
  H  H311  1  0.248200  0.189000  0.204600  1
  H  H312  1  0.751800  0.689000  0.795400  1
  H  H313  1  0.332600  0.773600  0.697800  1
  H  H314  1  0.667400  0.273600  0.302200  1
  H  H315  1  0.167400  0.273600  0.197800  1
  H  H316  1  0.832600  0.773600  0.802200  1
  H  H317  1  0.409900  0.868600  0.688700  1
  H  H318  1  0.590100  0.368600  0.311300  1
  H  H319  1  0.090100  0.368600  0.188700  1
  H  H320  1  0.909900  0.868600  0.811300  1
  H  H321  1  0.337700  0.947300  0.655400  1
  H  H322  1  0.662300  0.447300  0.344600  1
  H  H323  1  0.162300  0.447300  0.155400  1
  H  H324  1  0.837700  0.947300  0.844600  1
  H  H325  1  0.189400  0.927800  0.634200  1
  H  H326  1  0.810600  0.427800  0.365800  1
  H  H327  1  0.310600  0.427800  0.134200  1
  H  H328  1  0.689400  0.927800  0.865800  1
  H  H329  1  0.944400  0.819800  0.672300  1
  H  H330  1  0.055600  0.319800  0.327700  1
  H  H331  1  0.555600  0.319800  0.172300  1
  H  H332  1  0.444400  0.819800  0.827700  1
  H  H333  1  0.964400  0.891700  0.659500  1
  H  H334  1  0.035600  0.391700  0.340500  1
  H  H335  1  0.535600  0.391700  0.159500  1
  H  H336  1  0.464400  0.891700  0.840500  1
  H  H337  1  0.917500  0.866200  0.604900  1
  H  H338  1  0.082500  0.366200  0.395100  1
  H  H339  1  0.582500  0.366200  0.104900  1
  H  H340  1  0.417500  0.866200  0.895100  1
  H  H341  1  0.897500  0.794200  0.617700  1
  H  H342  1  0.102500  0.294200  0.382300  1
  H  H343  1  0.602500  0.294200  0.117700  1
  H  H344  1  0.397500  0.794200  0.882300  1
  H  H345  1  0.992200  0.595000  0.569600  1
  H  H346  1  0.007800  0.095000  0.430400  1
  H  H347  1  0.507800  0.095000  0.069600  1
  H  H348  1  0.492200  0.595000  0.930400  1
  H  H349  1  0.190500  0.549300  0.504900  1
  H  H350  1  0.809500  0.049300  0.495100  1
  H  H351  1  0.309500  0.049300  0.004900  1
  H  H352  1  0.690500  0.549300  0.995100  1
  H  H353  1  0.256000  0.485000  0.546700  1
  H  H354  1  0.744000  0.985000  0.453300  1
  H  H355  1  0.244000  0.985000  0.046700  1
  H  H356  1  0.756000  0.485000  0.953300  1
  H  H357  1  0.321000  0.443100  0.591700  1
  H  H358  1  0.679000  0.943100  0.408300  1
  H  H359  1  0.179000  0.943100  0.091700  1
  H  H360  1  0.821000  0.443100  0.908300  1
  H  H361  1  0.390600  0.407300  0.642900  1
  H  H362  1  0.609400  0.907300  0.357100  1
  H  H363  1  0.109400  0.907300  0.142900  1
  H  H364  1  0.890600  0.407300  0.857100  1
  H  H365  1  0.316000  0.422500  0.695300  1
  H  H366  1  0.684000  0.922500  0.304700  1
  H  H367  1  0.184000  0.922500  0.195300  1
  H  H368  1  0.816000  0.422500  0.804700  1
  H  H369  1  0.171400  0.469600  0.696700  1
  H  H370  1  0.828600  0.969600  0.303300  1
  H  H371  1  0.328600  0.969600  0.196700  1
  H  H372  1  0.671400  0.469600  0.803300  1
  H  H373  1  0.933100  0.457400  0.627600  1
  H  H374  1  0.066900  0.957400  0.372400  1
  H  H375  1  0.566900  0.957400  0.127600  1
  H  H376  1  0.433100  0.457400  0.872400  1
  H  H377  1  0.943700  0.455900  0.670000  1
  H  H378  1  0.056300  0.955900  0.330000  1
  H  H379  1  0.556300  0.955900  0.170000  1
  H  H380  1  0.443700  0.455900  0.830000  1
  H  H381  1  0.899200  0.557600  0.672700  1
  H  H382  1  0.100800  0.057600  0.327300  1
  H  H383  1  0.600800  0.057600  0.172700  1
  H  H384  1  0.399200  0.557600  0.827300  1
  H  H385  1  0.888600  0.559100  0.630300  1
  H  H386  1  0.111400  0.059100  0.369700  1
  H  H387  1  0.611400  0.059100  0.130300  1
  H  H388  1  0.388600  0.559100  0.869700  1
  H  H389  1  0.006100  0.734900  0.567900  1
  H  H390  1  0.993900  0.234900  0.432100  1
  H  H391  1  0.493900  0.234900  0.067900  1
  H  H392  1  0.506100  0.734900  0.932100  1
  H  H393  1  0.194100  0.866200  0.573000  1
  H  H394  1  0.805900  0.366200  0.427000  1
  H  H395  1  0.305900  0.366200  0.073000  1
  H  H396  1  0.694100  0.866200  0.927000  1
  H  H397  1  0.250300  0.836700  0.519600  1
  H  H398  1  0.749700  0.336700  0.480400  1
  H  H399  1  0.249700  0.336700  0.019600  1
  H  H400  1  0.750300  0.836700  0.980400  1
  H  H401  1  0.309400  0.793200  0.474400  1
  H  H402  1  0.690600  0.293200  0.525600  1
  H  H403  1  0.190600  0.293200  0.974400  1
  H  H404  1  0.809400  0.793200  0.025600  1
  H  H405  1  0.372300  0.739800  0.427300  1
  H  H406  1  0.627700  0.239800  0.572700  1
  H  H407  1  0.127700  0.239800  0.927300  1
  H  H408  1  0.872300  0.739800  0.072700  1
  H  H409  1  0.303600  0.646400  0.409200  1
  H  H410  1  0.696400  0.146400  0.590800  1
  H  H411  1  0.196400  0.146400  0.909200  1
  H  H412  1  0.803600  0.646400  0.090800  1
  H  H413  1  0.169900  0.611600  0.437300  1
  H  H414  1  0.830100  0.111600  0.562700  1
  H  H415  1  0.330100  0.111600  0.937300  1
  H  H416  1  0.669900  0.611600  0.062700  1
  H  H417  1  0.963900  0.713700  0.461100  1
  H  H418  1  0.036100  0.213700  0.538900  1
  H  H419  1  0.536100  0.213700  0.961100  1
  H  H420  1  0.463900  0.713700  0.038900  1
  H  H421  1  0.907000  0.714200  0.498100  1
  H  H422  1  0.093000  0.214200  0.501900  1
  H  H423  1  0.593000  0.214200  0.998100  1
  H  H424  1  0.407000  0.714200  0.001900  1
  H  H425  1  0.893000  0.608000  0.495500  1
  H  H426  1  0.107000  0.108000  0.504500  1
  H  H427  1  0.607000  0.108000  0.995500  1
  H  H428  1  0.393000  0.608000  0.004500  1
  H  H429  1  0.950000  0.607500  0.458600  1
  H  H430  1  0.050000  0.107500  0.541400  1
  H  H431  1  0.550000  0.107500  0.958600  1
  H  H432  1  0.450000  0.607500  0.041400  1
  C  C433  1  0.056800  0.636400  0.310500  1
  C  C434  1  0.943200  0.136400  0.689500  1
  C  C435  1  0.443200  0.136400  0.810500  1
  C  C436  1  0.556800  0.636400  0.189500  1
  C  C437  1  0.175400  0.666000  0.345000  1
  C  C438  1  0.824600  0.166000  0.655000  1
  C  C439  1  0.324600  0.166000  0.845000  1
  C  C440  1  0.675400  0.666000  0.155000  1
  C  C441  1  0.215200  0.608200  0.341700  1
  C  C442  1  0.784800  0.108200  0.658300  1
  C  C443  1  0.284800  0.108200  0.841700  1
  C  C444  1  0.715200  0.608200  0.158300  1
  C  C445  1  0.172500  0.564800  0.320200  1
  C  C446  1  0.827500  0.064800  0.679800  1
  C  C447  1  0.327500  0.064800  0.820200  1
  C  C448  1  0.672500  0.564800  0.179800  1
  C  C449  1  0.211300  0.503300  0.312700  1
  C  C450  1  0.788700  0.003300  0.687300  1
  C  C451  1  0.288700  0.003300  0.812700  1
  C  C452  1  0.711300  0.503300  0.187300  1
  C  C453  1  0.293200  0.481400  0.327000  1
  C  C454  1  0.706800  0.981400  0.673000  1
  C  C455  1  0.206800  0.981400  0.827000  1
  C  C456  1  0.793200  0.481400  0.173000  1
  C  C457  1  0.327500  0.424500  0.316500  1
  C  C458  1  0.672500  0.924500  0.683500  1
  C  C459  1  0.172500  0.924500  0.816500  1
  C  C460  1  0.827500  0.424500  0.183500  1
  C  C461  1  0.280900  0.389000  0.293100  1
  C  C462  1  0.719100  0.889000  0.706900  1
  C  C463  1  0.219100  0.889000  0.793100  1
  C  C464  1  0.780900  0.389000  0.206900  1
  C  C465  1  0.197000  0.412100  0.280700  1
  C  C466  1  0.803000  0.912100  0.719300  1
  C  C467  1  0.303000  0.912100  0.780700  1
  C  C468  1  0.697000  0.412100  0.219300  1
  C  C469  1  0.932800  0.461000  0.285200  1
  C  C470  1  0.067200  0.961000  0.714800  1
  C  C471  1  0.567200  0.961000  0.785200  1
  C  C472  1  0.432800  0.461000  0.214800  1
  C  C473  1  0.912100  0.500800  0.260500  1
  C  C474  1  0.087900  0.000800  0.739500  1
  C  C475  1  0.587900  0.000800  0.760500  1
  C  C476  1  0.412100  0.500800  0.239500  1
  C  C477  1  0.065500  0.769900  0.244700  1
  C  C478  1  0.934500  0.269900  0.755300  1
  C  C479  1  0.434500  0.269900  0.744700  1
  C  C480  1  0.565500  0.769900  0.255300  1
  C  C481  1  0.192100  0.800100  0.213700  1
  C  C482  1  0.807900  0.300100  0.786300  1
  C  C483  1  0.307900  0.300100  0.713700  1
  C  C484  1  0.692100  0.800100  0.286300  1
  C  C485  1  0.231200  0.824900  0.243400  1
  C  C486  1  0.768800  0.324900  0.756600  1
  C  C487  1  0.268800  0.324900  0.743400  1
  C  C488  1  0.731200  0.824900  0.256600  1
  C  C489  1  0.183300  0.819400  0.274000  1
  C  C490  1  0.816700  0.319400  0.726000  1
  C  C491  1  0.316700  0.319400  0.774000  1
  C  C492  1  0.683300  0.819400  0.226000  1
  C  C493  1  0.218100  0.840000  0.308200  1
  C  C494  1  0.781900  0.340000  0.691800  1
  C  C495  1  0.281900  0.340000  0.808200  1
  C  C496  1  0.718100  0.840000  0.191800  1
  C  C497  1  0.297300  0.876500  0.311600  1
  C  C498  1  0.702700  0.376500  0.688400  1
  C  C499  1  0.202700  0.376500  0.811600  1
  C  C500  1  0.797300  0.876500  0.188400  1
  C  C501  1  0.329000  0.892400  0.344100  1
  C  C502  1  0.671000  0.392400  0.655900  1
  C  C503  1  0.171000  0.392400  0.844100  1
  C  C504  1  0.829000  0.892400  0.155900  1
  C  C505  1  0.280600  0.871500  0.372600  1
  C  C506  1  0.719400  0.371500  0.627400  1
  C  C507  1  0.219400  0.371500  0.872600  1
  C  C508  1  0.780600  0.871500  0.127400  1
  C  C509  1  0.201600  0.837300  0.367600  1
  C  C510  1  0.798400  0.337300  0.632400  1
  C  C511  1  0.298400  0.337300  0.867600  1
  C  C512  1  0.701600  0.837300  0.132400  1
  C  C513  1  0.941200  0.825600  0.343000  1
  C  C514  1  0.058800  0.325600  0.657000  1
  C  C515  1  0.558800  0.325600  0.843000  1
  C  C516  1  0.441200  0.825600  0.157000  1
  C  C517  1  0.911600  0.779300  0.324200  1
  C  C518  1  0.088400  0.279300  0.675800  1
  C  C519  1  0.588400  0.279300  0.824200  1
  C  C520  1  0.411600  0.779300  0.175800  1
  C  C521  1  0.070800  0.601500  0.213600  1
  C  C522  1  0.929200  0.101500  0.786400  1
  C  C523  1  0.429200  0.101500  0.713600  1
  C  C524  1  0.570800  0.601500  0.286400  1
  C  C525  1  0.187900  0.532000  0.212600  1
  C  C526  1  0.812100  0.032000  0.787400  1
  C  C527  1  0.312100  0.032000  0.712600  1
  C  C528  1  0.687900  0.532000  0.287400  1
  C  C529  1  0.230100  0.563500  0.186300  1
  C  C530  1  0.769900  0.063500  0.813700  1
  C  C531  1  0.269900  0.063500  0.686300  1
  C  C532  1  0.730100  0.563500  0.313700  1
  C  C533  1  0.189000  0.617500  0.175200  1
  C  C534  1  0.811000  0.117500  0.824800  1
  C  C535  1  0.311000  0.117500  0.675200  1
  C  C536  1  0.689000  0.617500  0.324800  1
  C  C537  1  0.229200  0.659000  0.147400  1
  C  C538  1  0.770800  0.159000  0.852600  1
  C  C539  1  0.270800  0.159000  0.647400  1
  C  C540  1  0.729200  0.659000  0.352600  1
  C  C541  1  0.307300  0.643500  0.129500  1
  C  C542  1  0.692700  0.143500  0.870500  1
  C  C543  1  0.192700  0.143500  0.629500  1
  C  C544  1  0.807300  0.643500  0.370500  1
  C  C545  1  0.341900  0.683000  0.105200  1
  C  C546  1  0.658100  0.183000  0.894800  1
  C  C547  1  0.158100  0.183000  0.605200  1
  C  C548  1  0.841900  0.683000  0.394800  1
  C  C549  1  0.294800  0.739700  0.099300  1
  C  C550  1  0.705200  0.239700  0.900700  1
  C  C551  1  0.205200  0.239700  0.599300  1
  C  C552  1  0.794800  0.739700  0.400700  1
  C  C553  1  0.214900  0.751300  0.117300  1
  C  C554  1  0.785100  0.251300  0.882700  1
  C  C555  1  0.285100  0.251300  0.617300  1
  C  C556  1  0.714900  0.751300  0.382700  1
  C  C557  1  0.950300  0.704500  0.141700  1
  C  C558  1  0.049700  0.204500  0.858300  1
  C  C559  1  0.549700  0.204500  0.641700  1
  C  C560  1  0.450300  0.704500  0.358300  1
  C  C561  1  0.948500  0.763400  0.150400  1
  C  C562  1  0.051500  0.263400  0.849600  1
  C  C563  1  0.551500  0.263400  0.650400  1
  C  C564  1  0.448500  0.763400  0.349600  1
  C  C565  1  0.550900  0.712100  0.523600  1
  C  C566  1  0.449100  0.212100  0.476400  1
  C  C567  1  0.949100  0.212100  0.023600  1
  C  C568  1  0.050900  0.712100  0.976400  1
  C  C569  1  0.660400  0.691800  0.482700  1
  C  C570  1  0.339600  0.191800  0.517300  1
  C  C571  1  0.839600  0.191800  0.982700  1
  C  C572  1  0.160400  0.691800  0.017300  1
  C  C573  1  0.699600  0.748700  0.489000  1
  C  C574  1  0.300400  0.248700  0.511000  1
  C  C575  1  0.800400  0.248700  0.989000  1
  C  C576  1  0.199600  0.748700  0.011000  1
  C  C577  1  0.663500  0.785500  0.514400  1
  C  C578  1  0.336500  0.285500  0.485600  1
  C  C579  1  0.836500  0.285500  0.014400  1
  C  C580  1  0.163500  0.785500  0.985600  1
  C  C581  1  0.705900  0.845300  0.526600  1
  C  C582  1  0.294100  0.345300  0.473400  1
  C  C583  1  0.794100  0.345300  0.026600  1
  C  C584  1  0.205900  0.845300  0.973400  1
  C  C585  1  0.790900  0.865600  0.514800  1
  C  C586  1  0.209100  0.365600  0.485200  1
  C  C587  1  0.709100  0.365600  0.014800  1
  C  C588  1  0.290900  0.865600  0.985200  1
  C  C589  1  0.830300  0.917100  0.529400  1
  C  C590  1  0.169700  0.417100  0.470600  1
  C  C591  1  0.669700  0.417100  0.029400  1
  C  C592  1  0.330300  0.917100  0.970600  1
  C  C593  1  0.783100  0.949800  0.554500  1
  C  C594  1  0.216900  0.449800  0.445500  1
  C  C595  1  0.716900  0.449800  0.054500  1
  C  C596  1  0.283100  0.949800  0.945500  1
  C  C597  1  0.696100  0.928300  0.564300  1
  C  C598  1  0.303900  0.428300  0.435700  1
  C  C599  1  0.803900  0.428300  0.064300  1
  C  C600  1  0.196100  0.928300  0.935700  1
  C  C601  1  0.430200  0.877100  0.548500  1
  C  C602  1  0.569800  0.377100  0.451500  1
  C  C603  1  0.069800  0.377100  0.048500  1
  C  C604  1  0.930200  0.877100  0.951500  1
  C  C605  1  0.402800  0.846400  0.576400  1
  C  C606  1  0.597200  0.346400  0.423600  1
  C  C607  1  0.097200  0.346400  0.076400  1
  C  C608  1  0.902800  0.846400  0.923600  1
  C  C609  1  0.553600  0.570100  0.583900  1
  C  C610  1  0.446400  0.070100  0.416100  1
  C  C611  1  0.946400  0.070100  0.083900  1
  C  C612  1  0.053600  0.570100  0.916100  1
  C  C613  1  0.678300  0.531000  0.614000  1
  C  C614  1  0.321700  0.031000  0.386000  1
  C  C615  1  0.821700  0.031000  0.114000  1
  C  C616  1  0.178300  0.531000  0.886000  1
  C  C617  1  0.717900  0.512800  0.583400  1
  C  C618  1  0.282100  0.012800  0.416600  1
  C  C619  1  0.782100  0.012800  0.083400  1
  C  C620  1  0.217900  0.512800  0.916600  1
  C  C621  1  0.673200  0.526000  0.552900  1
  C  C622  1  0.326800  0.026000  0.447100  1
  C  C623  1  0.826800  0.026000  0.052900  1
  C  C624  1  0.173200  0.526000  0.947100  1
  C  C625  1  0.712000  0.513700  0.517900  1
  C  C626  1  0.288000  0.013700  0.482100  1
  C  C627  1  0.788000  0.013700  0.017900  1
  C  C628  1  0.212000  0.513700  0.982100  1
  C  C629  1  0.796600  0.483300  0.513300  1
  C  C630  1  0.203400  0.983300  0.486700  1
  C  C631  1  0.703400  0.983300  0.013300  1
  C  C632  1  0.296600  0.483300  0.986700  1
  C  C633  1  0.831200  0.476200  0.480000  1
  C  C634  1  0.168800  0.976200  0.520000  1
  C  C635  1  0.668800  0.976200  0.980000  1
  C  C636  1  0.331200  0.476200  0.020000  1
  C  C637  1  0.781200  0.498000  0.452100  1
  C  C638  1  0.218800  0.998000  0.547900  1
  C  C639  1  0.718800  0.998000  0.952100  1
  C  C640  1  0.281200  0.498000  0.047900  1
  C  C641  1  0.696000  0.526000  0.458700  1
  C  C642  1  0.304000  0.026000  0.541300  1
  C  C643  1  0.804000  0.026000  0.958700  1
  C  C644  1  0.196000  0.526000  0.041300  1
  C  C645  1  0.431200  0.528900  0.485600  1
  C  C646  1  0.568800  0.028900  0.514400  1
  C  C647  1  0.068800  0.028900  0.985600  1
  C  C648  1  0.931200  0.528900  0.014400  1
  C  C649  1  0.401100  0.581100  0.496800  1
  C  C650  1  0.598900  0.081100  0.503200  1
  C  C651  1  0.098900  0.081100  0.996800  1
  C  C652  1  0.901100  0.581100  0.003200  1
  C  C653  1  0.554300  0.735700  0.623300  1
  C  C654  1  0.445700  0.235700  0.376700  1
  C  C655  1  0.945700  0.235700  0.123300  1
  C  C656  1  0.054300  0.735700  0.876700  1
  C  C657  1  0.672500  0.804700  0.627200  1
  C  C658  1  0.327500  0.304700  0.372800  1
  C  C659  1  0.827500  0.304700  0.127200  1
  C  C660  1  0.172500  0.804700  0.872800  1
  C  C661  1  0.714800  0.768200  0.651800  1
  C  C662  1  0.285200  0.268200  0.348200  1
  C  C663  1  0.785200  0.268200  0.151800  1
  C  C664  1  0.214800  0.768200  0.848200  1
  C  C665  1  0.672500  0.712100  0.661100  1
  C  C666  1  0.327500  0.212100  0.338900  1
  C  C667  1  0.827500  0.212100  0.161100  1
  C  C668  1  0.172500  0.712100  0.838900  1
  C  C669  1  0.712200  0.666667  0.685800  1
  C  C670  1  0.287800  0.166667  0.314200  1
  C  C671  1  0.787800  0.166667  0.185800  1
  C  C672  1  0.212200  0.666667  0.814200  1
  C  C673  1  0.791100  0.679600  0.705100  1
  C  C674  1  0.208900  0.179600  0.294900  1
  C  C675  1  0.708900  0.179600  0.205100  1
  C  C676  1  0.291100  0.679600  0.794900  1
  C  C677  1  0.824600  0.635800  0.727300  1
  C  C678  1  0.175400  0.135800  0.272700  1
  C  C679  1  0.675400  0.135800  0.227300  1
  C  C680  1  0.324600  0.635800  0.772700  1
  C  C681  1  0.779600  0.580400  0.730100  1
  C  C682  1  0.220400  0.080400  0.269900  1
  C  C683  1  0.720400  0.080400  0.230100  1
  C  C684  1  0.279600  0.580400  0.769900  1
  C  C685  1  0.700100  0.569600  0.710700  1
  C  C686  1  0.299900  0.069600  0.289300  1
  C  C687  1  0.799900  0.069600  0.210700  1
  C  C688  1  0.200100  0.569600  0.789300  1
  C  C689  1  0.444500  0.613900  0.693300  1
  C  C690  1  0.555500  0.113900  0.306700  1
  C  C691  1  0.055500  0.113900  0.193300  1
  C  C692  1  0.944500  0.613900  0.806700  1
  C  C693  1  0.417100  0.574200  0.671000  1
  C  C694  1  0.582900  0.074200  0.329000  1
  C  C695  1  0.082900  0.074200  0.171000  1
  C  C696  1  0.917100  0.574200  0.829000  1
  C  C697  1  0.056300  0.673800  0.647500  1
  C  C698  1  0.943700  0.173800  0.352500  1
  C  C699  1  0.443700  0.173800  0.147500  1
  C  C700  1  0.556300  0.673800  0.852500  1
  C  C701  1  0.158500  0.628200  0.684300  1
  C  C702  1  0.841500  0.128200  0.315700  1
  C  C703  1  0.341500  0.128200  0.184300  1
  C  C704  1  0.658500  0.628200  0.815700  1
  C  C705  1  0.201600  0.684800  0.688700  1
  C  C706  1  0.798400  0.184800  0.311300  1
  C  C707  1  0.298400  0.184800  0.188700  1
  C  C708  1  0.701600  0.684800  0.811300  1
  C  C709  1  0.171800  0.735300  0.669800  1
  C  C710  1  0.828200  0.235300  0.330200  1
  C  C711  1  0.328200  0.235300  0.169800  1
  C  C712  1  0.671800  0.735300  0.830200  1
  C  C713  1  0.218900  0.796200  0.668800  1
  C  C714  1  0.781100  0.296200  0.331200  1
  C  C715  1  0.281100  0.296200  0.168800  1
  C  C716  1  0.718900  0.796200  0.831200  1
  C  C717  1  0.305100  0.805400  0.684000  1
  C  C718  1  0.694900  0.305400  0.316000  1
  C  C719  1  0.194900  0.305400  0.184000  1
  C  C720  1  0.805100  0.805400  0.816000  1
  C  C721  1  0.350300  0.861700  0.679000  1
  C  C722  1  0.649700  0.361700  0.321000  1
  C  C723  1  0.149700  0.361700  0.179000  1
  C  C724  1  0.850300  0.861700  0.821000  1
  C  C725  1  0.308000  0.908300  0.659600  1
  C  C726  1  0.692000  0.408300  0.340400  1
  C  C727  1  0.192000  0.408300  0.159600  1
  C  C728  1  0.808000  0.908300  0.840400  1
  C  C729  1  0.220100  0.895800  0.646500  1
  C  C730  1  0.779900  0.395800  0.353500  1
  C  C731  1  0.279900  0.395800  0.146500  1
  C  C732  1  0.720100  0.895800  0.853500  1
  C  C733  1  0.944700  0.850500  0.654500  1
  C  C734  1  0.055300  0.350500  0.345500  1
  C  C735  1  0.555300  0.350500  0.154500  1
  C  C736  1  0.444700  0.850500  0.845500  1
  C  C737  1  0.917200  0.835600  0.622600  1
  C  C738  1  0.082800  0.335600  0.377400  1
  C  C739  1  0.582800  0.335600  0.122600  1
  C  C740  1  0.417200  0.835600  0.877400  1
  C  C741  1  0.049500  0.574600  0.565300  1
  C  C742  1  0.950500  0.074600  0.434700  1
  C  C743  1  0.450500  0.074600  0.065300  1
  C  C744  1  0.549500  0.574600  0.934700  1
  C  C745  1  0.163100  0.547300  0.527300  1
  C  C746  1  0.836900  0.047300  0.472700  1
  C  C747  1  0.336900  0.047300  0.027300  1
  C  C748  1  0.663100  0.547300  0.972700  1
  C  C749  1  0.203100  0.509600  0.551900  1
  C  C750  1  0.796900  0.009600  0.448100  1
  C  C751  1  0.296900  0.009600  0.051900  1
  C  C752  1  0.703100  0.509600  0.948100  1
  C  C753  1  0.163500  0.509600  0.584700  1
  C  C754  1  0.836500  0.009600  0.415300  1
  C  C755  1  0.336500  0.009600  0.084700  1
  C  C756  1  0.663500  0.509600  0.915300  1
  C  C757  1  0.206200  0.478600  0.615200  1
  C  C758  1  0.793800  0.978600  0.384800  1
  C  C759  1  0.293800  0.978600  0.115200  1
  C  C760  1  0.706200  0.478600  0.884800  1
  C  C761  1  0.291100  0.448900  0.613400  1
  C  C762  1  0.708900  0.948900  0.386600  1
  C  C763  1  0.208900  0.948900  0.113400  1
  C  C764  1  0.791100  0.448900  0.886600  1
  C  C765  1  0.332100  0.427600  0.643600  1
  C  C766  1  0.667900  0.927600  0.356400  1
  C  C767  1  0.167900  0.927600  0.143600  1
  C  C768  1  0.832100  0.427600  0.856400  1
  C  C769  1  0.288200  0.436200  0.674400  1
  C  C770  1  0.711800  0.936200  0.325600  1
  C  C771  1  0.211800  0.936200  0.174400  1
  C  C772  1  0.788200  0.436200  0.825600  1
  C  C773  1  0.202200  0.464800  0.675100  1
  C  C774  1  0.797800  0.964800  0.324900  1
  C  C775  1  0.297800  0.964800  0.175100  1
  C  C776  1  0.702200  0.464800  0.824900  1
  C  C777  1  0.928900  0.478000  0.649300  1
  C  C778  1  0.071100  0.978000  0.350700  1
  C  C779  1  0.571100  0.978000  0.149300  1
  C  C780  1  0.428900  0.478000  0.850700  1
  C  C781  1  0.903100  0.537100  0.651000  1
  C  C782  1  0.096900  0.037100  0.349000  1
  C  C783  1  0.596900  0.037100  0.151000  1
  C  C784  1  0.403100  0.537100  0.849000  1
  C  C785  1  0.059600  0.754600  0.558600  1
  C  C786  1  0.940400  0.254600  0.441400  1
  C  C787  1  0.440400  0.254600  0.058600  1
  C  C788  1  0.559600  0.754600  0.941400  1
  C  C789  1  0.166700  0.831600  0.561400  1
  C  C790  1  0.833300  0.331600  0.438600  1
  C  C791  1  0.333300  0.331600  0.061400  1
  C  C792  1  0.666700  0.831600  0.938600  1
  C  C793  1  0.202300  0.813500  0.530400  1
  C  C794  1  0.797700  0.313500  0.469600  1
  C  C795  1  0.297700  0.313500  0.030400  1
  C  C796  1  0.702300  0.813500  0.969600  1
  C  C797  1  0.166800  0.760400  0.514800  1
  C  C798  1  0.833200  0.260400  0.485200  1
  C  C799  1  0.333200  0.260400  0.014800  1
  C  C800  1  0.666800  0.760400  0.985200  1
  C  C801  1  0.206300  0.731100  0.483600  1
  C  C802  1  0.793700  0.231100  0.516400  1
  C  C803  1  0.293700  0.231100  0.983600  1
  C  C804  1  0.706300  0.731100  0.016400  1
  C  C805  1  0.282300  0.755300  0.466700  1
  C  C806  1  0.717700  0.255300  0.533300  1
  C  C807  1  0.217700  0.255300  0.966700  1
  C  C808  1  0.782300  0.755300  0.033300  1
  C  C809  1  0.319400  0.723900  0.438900  1
  C  C810  1  0.680600  0.223900  0.561100  1
  C  C811  1  0.180600  0.223900  0.938900  1
  C  C812  1  0.819400  0.723900  0.061100  1
  C  C813  1  0.278500  0.669100  0.428100  1
  C  C814  1  0.721500  0.169100  0.571900  1
  C  C815  1  0.221500  0.169100  0.928100  1
  C  C816  1  0.778500  0.669100  0.071900  1
  C  C817  1  0.199800  0.648400  0.445400  1
  C  C818  1  0.800200  0.148400  0.554600  1
  C  C819  1  0.300200  0.148400  0.945400  1
  C  C820  1  0.699800  0.648400  0.054600  1
  C  C821  1  0.932800  0.691800  0.479100  1
  C  C822  1  0.067200  0.191800  0.520900  1
  C  C823  1  0.567200  0.191800  0.979100  1
  C  C824  1  0.432800  0.691800  0.020900  1
  C  C825  1  0.924300  0.629900  0.477600  1
  C  C826  1  0.075700  0.129900  0.522400  1
  C  C827  1  0.575700  0.129900  0.977600  1
  C  C828  1  0.424300  0.629900  0.022400  1
  N  N829  1  0.091000  0.579000  0.305000  1
  N  N830  1  0.909000  0.079000  0.695000  1
  N  N831  1  0.409000  0.079000  0.805000  1
  N  N832  1  0.591000  0.579000  0.195000  1
  N  N833  1  0.095400  0.681700  0.329200  1
  N  N834  1  0.904600  0.181700  0.670800  1
  N  N835  1  0.404600  0.181700  0.829200  1
  N  N836  1  0.595400  0.681700  0.170800  1
  N  N837  1  0.163000  0.467800  0.289800  1
  N  N838  1  0.837000  0.967800  0.710200  1
  N  N839  1  0.337000  0.967800  0.789800  1
  N  N840  1  0.663000  0.467800  0.210200  1
  N  N841  1  0.100300  0.790200  0.274500  1
  N  N842  1  0.899700  0.290200  0.725500  1
  N  N843  1  0.399700  0.290200  0.774500  1
  N  N844  1  0.600300  0.790200  0.225500  1
  N  N845  1  0.108100  0.773500  0.214100  1
  N  N846  1  0.891900  0.273500  0.785900  1
  N  N847  1  0.391900  0.273500  0.714100  1
  N  N848  1  0.608100  0.773500  0.285900  1
  N  N849  1  0.170100  0.821700  0.336400  1
  N  N850  1  0.829900  0.321700  0.663600  1
  N  N851  1  0.329900  0.321700  0.836400  1
  N  N852  1  0.670100  0.821700  0.163600  1
  N  N853  1  0.107700  0.636800  0.189200  1
  N  N854  1  0.892300  0.136800  0.810800  1
  N  N855  1  0.392300  0.136800  0.689200  1
  N  N856  1  0.607700  0.636800  0.310800  1
  N  N857  1  0.106600  0.549600  0.226800  1
  N  N858  1  0.893400  0.049600  0.773200  1
  N  N859  1  0.393400  0.049600  0.726800  1
  N  N860  1  0.606600  0.549600  0.273200  1
  N  N861  1  0.182400  0.712700  0.141800  1
  N  N862  1  0.817600  0.212700  0.858200  1
  N  N863  1  0.317600  0.212700  0.641800  1
  N  N864  1  0.682400  0.712700  0.358200  1
  N  N865  1  0.585800  0.767700  0.531300  1
  N  N866  1  0.414200  0.267700  0.468700  1
  N  N867  1  0.914200  0.267700  0.031300  1
  N  N868  1  0.085800  0.767700  0.968700  1
  N  N869  1  0.586200  0.671300  0.501000  1
  N  N870  1  0.413800  0.171300  0.499000  1
  N  N871  1  0.913800  0.171300  0.001000  1
  N  N872  1  0.086200  0.671300  0.999000  1
  N  N873  1  0.658600  0.875600  0.551300  1
  N  N874  1  0.341400  0.375600  0.448700  1
  N  N875  1  0.841400  0.375600  0.051300  1
  N  N876  1  0.158600  0.875600  0.948700  1
  N  N877  1  0.589600  0.555100  0.553400  1
  N  N878  1  0.410400  0.055100  0.446600  1
  N  N879  1  0.910400  0.055100  0.053400  1
  N  N880  1  0.089600  0.555100  0.946600  1
  N  N881  1  0.594800  0.560900  0.614500  1
  N  N882  1  0.405200  0.060900  0.385500  1
  N  N883  1  0.905200  0.060900  0.114500  1
  N  N884  1  0.094800  0.560900  0.885500  1
  N  N885  1  0.662500  0.534900  0.490600  1
  N  N886  1  0.337500  0.034900  0.509400  1
  N  N887  1  0.837500  0.034900  0.990600  1
  N  N888  1  0.162500  0.534900  0.009400  1
  N  N889  1  0.590700  0.695900  0.646000  1
  N  N890  1  0.409300  0.195900  0.354000  1
  N  N891  1  0.909300  0.195900  0.146000  1
  N  N892  1  0.090700  0.695900  0.854000  1
  N  N893  1  0.592000  0.789200  0.612300  1
  N  N894  1  0.408000  0.289200  0.387700  1
  N  N895  1  0.908000  0.289200  0.112300  1
  N  N896  1  0.092000  0.789200  0.887700  1
  N  N897  1  0.667300  0.612200  0.688300  1
  N  N898  1  0.332700  0.112200  0.311700  1
  N  N899  1  0.832700  0.112200  0.188300  1
  N  N900  1  0.167300  0.612200  0.811700  1
  N  N901  1  0.095800  0.730200  0.649500  1
  N  N902  1  0.904200  0.230200  0.350500  1
  N  N903  1  0.404200  0.230200  0.149500  1
  N  N904  1  0.595800  0.730200  0.850500  1
  N  N905  1  0.086400  0.621800  0.662500  1
  N  N906  1  0.913600  0.121800  0.337500  1
  N  N907  1  0.413600  0.121800  0.162500  1
  N  N908  1  0.586400  0.621800  0.837500  1
  N  N909  1  0.176500  0.841700  0.650200  1
  N  N910  1  0.823500  0.341700  0.349800  1
  N  N911  1  0.323500  0.341700  0.150200  1
  N  N912  1  0.676500  0.841700  0.849800  1
  N  N913  1  0.085600  0.542100  0.591100  1
  N  N914  1  0.914400  0.042100  0.408900  1
  N  N915  1  0.414400  0.042100  0.091100  1
  N  N916  1  0.585600  0.542100  0.908900  1
  N  N917  1  0.086300  0.581500  0.533700  1
  N  N918  1  0.913700  0.081500  0.466300  1
  N  N919  1  0.413700  0.081500  0.033700  1
  N  N920  1  0.586300  0.581500  0.966300  1
  N  N921  1  0.161700  0.486300  0.646100  1
  N  N922  1  0.838300  0.986300  0.353900  1
  N  N923  1  0.338300  0.986300  0.146100  1
  N  N924  1  0.661700  0.486300  0.853900  1
  N  N925  1  0.092600  0.732000  0.529600  1
  N  N926  1  0.907400  0.232000  0.470400  1
  N  N927  1  0.407400  0.232000  0.029600  1
  N  N928  1  0.592600  0.732000  0.970400  1
  N  N929  1  0.094300  0.802500  0.576400  1
  N  N930  1  0.905700  0.302500  0.423600  1
  N  N931  1  0.405700  0.302500  0.076400  1
  N  N932  1  0.594300  0.802500  0.923600  1
  N  N933  1  0.164400  0.677700  0.473200  1
  N  N934  1  0.835600  0.177700  0.526800  1
  N  N935  1  0.335600  0.177700  0.973200  1
  N  N936  1  0.664400  0.677700  0.026800  1
  Cl  Cl937  1  0.318000  0.669090  0.261180  1
  Cl  Cl938  1  0.682000  0.169090  0.738820  1
  Cl  Cl939  1  0.182000  0.169090  0.761180  1
  Cl  Cl940  1  0.818000  0.669090  0.238820  1
  Cl  Cl941  1  0.805050  0.677610  0.575610  1
  Cl  Cl942  1  0.194950  0.177610  0.424390  1
  Cl  Cl943  1  0.694950  0.177610  0.075610  1
  Cl  Cl944  1  0.305050  0.677610  0.924390  1
  Cl  Cl945  1  0.301500  0.666750  0.587430  1
  Cl  Cl946  1  0.698500  0.166750  0.412570  1
  Cl  Cl947  1  0.198500  0.166750  0.087430  1
  Cl  Cl948  1  0.801500  0.666750  0.912570  1
  Cl  Cl949  1  0.007000  0.518170  0.393020  1
  Cl  Cl950  1  0.993000  0.018170  0.606980  1
  Cl  Cl951  1  0.493000  0.018170  0.893020  1
  Cl  Cl952  1  0.507000  0.518170  0.106980  1
  Cl  Cl953  1  0.009400  0.864590  0.448060  1
  Cl  Cl954  1  0.990600  0.364590  0.551940  1
  Cl  Cl955  1  0.490600  0.364590  0.948060  1
  Cl  Cl956  1  0.509400  0.864590  0.051940  1
  Cl  Cl957  1  0.502300  0.876300  0.440720  1
  Cl  Cl958  1  0.497700  0.376300  0.559280  1
  Cl  Cl959  1  0.997700  0.376300  0.940720  1
  Cl  Cl960  1  0.002300  0.876300  0.059280  1
  Cl  Cl961  1  0.501300  0.531900  0.379970  1
  Cl  Cl962  1  0.498700  0.031900  0.620030  1
  Cl  Cl963  1  0.998700  0.031900  0.879970  1
  Cl  Cl964  1  0.001300  0.531900  0.120030  1
  Cl  Cl965  1  0.524700  0.770710  0.746930  1
  Cl  Cl966  1  0.475300  0.270710  0.253070  1
  Cl  Cl967  1  0.975300  0.270710  0.246930  1
  Cl  Cl968  1  0.024700  0.770710  0.753070  1
  Cl  Cl969  1  0.504900  0.451930  0.749020  1
  Cl  Cl970  1  0.495100  0.951930  0.250980  1
  Cl  Cl971  1  0.995100  0.951930  0.249020  1
  Cl  Cl972  1  0.004900  0.451930  0.750980  1
  O  O973  1  0.346300  0.616300  0.280700  1
  O  O974  1  0.653700  0.116300  0.719300  1
  O  O975  1  0.153700  0.116300  0.780700  1
  O  O976  1  0.846300  0.616300  0.219300  1
  O  O977  1  0.349800  0.724600  0.279200  1
  O  O978  1  0.650200  0.224600  0.720800  1
  O  O979  1  0.150200  0.224600  0.779200  1
  O  O980  1  0.849800  0.724600  0.220800  1
  O  O981  1  0.358100  0.667900  0.227200  1
  O  O982  1  0.641900  0.167900  0.772800  1
  O  O983  1  0.141900  0.167900  0.727200  1
  O  O984  1  0.858100  0.667900  0.272800  1
  O  O985  1  0.219300  0.670200  0.258400  1
  O  O986  1  0.780700  0.170200  0.741600  1
  O  O987  1  0.280700  0.170200  0.758400  1
  O  O988  1  0.719300  0.670200  0.241600  1
  O  O989  1  0.829100  0.737100  0.560800  1
  O  O990  1  0.170900  0.237100  0.439200  1
  O  O991  1  0.670900  0.237100  0.060800  1
  O  O992  1  0.329100  0.737100  0.939200  1
  O  O993  1  0.836700  0.628400  0.553800  1
  O  O994  1  0.163300  0.128400  0.446200  1
  O  O995  1  0.663300  0.128400  0.053800  1
  O  O996  1  0.336700  0.628400  0.946200  1
  O  O997  1  0.849500  0.672700  0.608700  1
  O  O998  1  0.150500  0.172700  0.391300  1
  O  O999  1  0.650500  0.172700  0.108700  1
  O  O1000  1  0.349500  0.672700  0.891300  1
  O  O1001  1  0.708000  0.672900  0.579800  1
  O  O1002  1  0.292000  0.172900  0.420200  1
  O  O1003  1  0.792000  0.172900  0.079800  1
  O  O1004  1  0.208000  0.672900  0.920200  1
  O  O1005  1  0.333200  0.704500  0.615800  1
  O  O1006  1  0.666800  0.204500  0.384200  1
  O  O1007  1  0.166800  0.204500  0.115800  1
  O  O1008  1  0.833200  0.704500  0.884200  1
  O  O1009  1  0.335500  0.604300  0.590500  1
  O  O1010  1  0.664500  0.104300  0.409500  1
  O  O1011  1  0.164500  0.104300  0.090500  1
  O  O1012  1  0.835500  0.604300  0.909500  1
  O  O1013  1  0.336100  0.692500  0.555700  1
  O  O1014  1  0.663900  0.192500  0.444300  1
  O  O1015  1  0.163900  0.192500  0.055700  1
  O  O1016  1  0.836100  0.692500  0.944300  1
  O  O1017  1  0.203100  0.665400  0.587000  1
  O  O1018  1  0.796900  0.165400  0.413000  1
  O  O1019  1  0.296900  0.165400  0.087000  1
  O  O1020  1  0.703100  0.665400  0.913000  1
  O  O1021  1  0.925800  0.506000  0.373600  1
  O  O1022  1  0.074200  0.006000  0.626400  1
  O  O1023  1  0.574200  0.006000  0.873600  1
  O  O1024  1  0.425800  0.506000  0.126400  1
  O  O1025  1  0.999100  0.495600  0.426400  1
  O  O1026  1  0.000900  0.995600  0.573600  1
  O  O1027  1  0.500900  0.995600  0.926400  1
  O  O1028  1  0.499100  0.495600  0.073600  1
  O  O1029  1  0.017200  0.584200  0.394300  1
  O  O1030  1  0.982800  0.084200  0.605700  1
  O  O1031  1  0.482800  0.084200  0.894300  1
  O  O1032  1  0.517200  0.584200  0.105700  1
  O  O1033  1  0.086600  0.492100  0.376300  1
  O  O1034  1  0.913400  0.992100  0.623700  1
  O  O1035  1  0.413400  0.992100  0.876300  1
  O  O1036  1  0.586600  0.492100  0.123700  1
  O  O1037  1  0.914500  0.861900  0.439000  1
  O  O1038  1  0.085500  0.361900  0.561000  1
  O  O1039  1  0.585500  0.361900  0.939000  1
  O  O1040  1  0.414500  0.861900  0.061000  1
  O  O1041  1  0.018600  0.866600  0.484600  1
  O  O1042  1  0.981400  0.366600  0.515400  1
  O  O1043  1  0.481400  0.366600  0.984600  1
  O  O1044  1  0.518600  0.866600  0.015400  1
  O  O1045  1  0.050600  0.916500  0.431400  1
  O  O1046  1  0.949400  0.416500  0.568600  1
  O  O1047  1  0.449400  0.416500  0.931400  1
  O  O1048  1  0.550600  0.916500  0.068600  1
  O  O1049  1  0.054000  0.809700  0.435400  1
  O  O1050  1  0.946000  0.309700  0.564600  1
  O  O1051  1  0.446000  0.309700  0.935400  1
  O  O1052  1  0.554000  0.809700  0.064600  1
  O  O1053  1  0.417900  0.885700  0.458600  1
  O  O1054  1  0.582100  0.385700  0.541400  1
  O  O1055  1  0.082100  0.385700  0.958600  1
  O  O1056  1  0.917900  0.885700  0.041400  1
  O  O1057  1  0.577800  0.902200  0.459100  1
  O  O1058  1  0.422200  0.402200  0.540900  1
  O  O1059  1  0.922200  0.402200  0.959100  1
  O  O1060  1  0.077800  0.902200  0.040900  1
  O  O1061  1  0.492400  0.907400  0.408200  1
  O  O1062  1  0.507600  0.407400  0.591800  1
  O  O1063  1  0.007600  0.407400  0.908200  1
  O  O1064  1  0.992400  0.907400  0.091800  1
  O  O1065  1  0.516600  0.811700  0.435600  1
  O  O1066  1  0.483400  0.311700  0.564400  1
  O  O1067  1  0.983400  0.311700  0.935600  1
  O  O1068  1  0.016600  0.811700  0.064400  1
  O  O1069  1  0.414800  0.559000  0.387900  1
  O  O1070  1  0.585200  0.059000  0.612100  1
  O  O1071  1  0.085200  0.059000  0.887900  1
  O  O1072  1  0.914800  0.559000  0.112100  1
  O  O1073  1  0.576500  0.571800  0.389500  1
  O  O1074  1  0.423500  0.071800  0.610500  1
  O  O1075  1  0.923500  0.071800  0.889500  1
  O  O1076  1  0.076500  0.571800  0.110500  1
  O  O1077  1  0.507500  0.520300  0.343700  1
  O  O1078  1  0.492500  0.020300  0.656300  1
  O  O1079  1  0.992500  0.020300  0.843700  1
  O  O1080  1  0.007500  0.520300  0.156300  1
  O  O1081  1  0.507800  0.475700  0.398300  1
  O  O1082  1  0.492200  0.975700  0.601700  1
  O  O1083  1  0.992200  0.975700  0.898300  1
  O  O1084  1  0.007800  0.475700  0.101700  1
  O  O1085  1  0.434800  0.784700  0.757400  1
  O  O1086  1  0.565200  0.284700  0.242600  1
  O  O1087  1  0.065200  0.284700  0.257400  1
  O  O1088  1  0.934800  0.784700  0.742600  1
  O  O1089  1  0.592300  0.800500  0.766500  1
  O  O1090  1  0.407700  0.300500  0.233500  1
  O  O1091  1  0.907700  0.300500  0.266500  1
  O  O1092  1  0.092300  0.800500  0.733500  1
  O  O1093  1  0.534700  0.780400  0.712000  1
  O  O1094  1  0.465300  0.280400  0.288000  1
  O  O1095  1  0.965300  0.280400  0.212000  1
  O  O1096  1  0.034700  0.780400  0.788000  1
  O  O1097  1  0.535500  0.705400  0.754200  1
  O  O1098  1  0.464500  0.205400  0.245800  1
  O  O1099  1  0.964500  0.205400  0.254200  1
  O  O1100  1  0.035500  0.705400  0.745800  1
  O  O1101  1  0.409200  0.442300  0.755900  1
  O  O1102  1  0.590800  0.942300  0.244100  1
  O  O1103  1  0.090800  0.942300  0.255900  1
  O  O1104  1  0.909200  0.442300  0.744100  1
  O  O1105  1  0.558600  0.401300  0.763300  1
  O  O1106  1  0.441400  0.901300  0.236700  1
  O  O1107  1  0.941400  0.901300  0.263300  1
  O  O1108  1  0.058600  0.401300  0.736700  1
  O  O1109  1  0.534900  0.508700  0.764200  1
  O  O1110  1  0.465100  0.008700  0.235800  1
  O  O1111  1  0.965100  0.008700  0.264200  1
  O  O1112  1  0.034900  0.508700  0.735800  1
  O  O1113  1  0.519300  0.455100  0.712300  1
  O  O1114  1  0.480700  0.955100  0.287700  1
  O  O1115  1  0.980700  0.955100  0.212300  1
  O  O1116  1  0.019300  0.455100  0.787700  1
