
#######################################################################
#
#                 Cambridge Crystallographic Data Centre
#                                CCDC 
#
#######################################################################
#
# If this CIF has been generated from an entry in the Cambridge 
# Structural Database, then it will include bibliographic, chemical, 
# crystal, experimental, refinement or atomic coordinate data resulting 
# from the CCDC's data processing and validation procedures.
#
#######################################################################

data_CITVEH
_chemical_formula_moiety         'C33 H33 Cu3 N9 3+,3(Cl1 O4 1-)'
_chemical_name_systematic        
'tris((\m~2~-4-(2-Pyridyl)pyrimidine)-(\h^2^-ethene))-tri-copper(i) perchlorate clathrate diperchlorate'
_symmetry_cell_setting           orthorhombic
_symmetry_space_group_name_H-M   'P n a 21'
_symmetry_Int_Tables_number      33
_space_group_name_Hall           'P 2c -2n'
loop_
_symmetry_equiv_pos_site_id
_symmetry_equiv_pos_as_xyz
1 x,y,z
2 -x,-y,1/2+z
3 1/2-x,1/2+y,1/2+z
4 1/2+x,1/2-y,z
_cell_length_a                   14.4419(7)
_cell_length_b                   38.607(2)
_cell_length_c                   21.448(1)
_cell_angle_alpha                90
_cell_angle_beta                 90
_cell_angle_gamma                90
_cell_volume                     11958.5
_exptl_crystal_colour            yellow
_exptl_crystal_description       Block
_cell_formula_units_Z            12
_chemical_properties_physical    air-sensitive
loop_
_atom_site_label
_atom_site_type_symbol
_atom_site_fract_x
_atom_site_fract_y
_atom_site_fract_z
Cu1 Cu 0.95063(5) 0.73116(2) 0.49296(3)
Cu2 Cu 0.94750(5) 0.67411(2) 0.22608(4)
Cu3 Cu 0.93941(5) 0.82656(2) 0.27808(4)
N1 N 0.9090(3) 0.6950(1) 0.4210(2)
N2 N 0.9046(3) 0.6708(1) 0.3183(2)
N3 N 0.8370(3) 0.7102(1) 0.5322(2)
N4 N 0.8997(3) 0.7255(1) 0.2098(2)
N5 N 0.8919(3) 0.7859(1) 0.2265(2)
N6 N 0.8299(3) 0.6636(1) 0.1783(2)
N7 N 0.8923(3) 0.8108(1) 0.3632(2)
N8 N 0.8934(3) 0.7732(1) 0.4504(2)
N9 N 0.8176(3) 0.8582(1) 0.2873(3)
C1 C 0.9432(4) 0.6895(2) 0.3636(3)
C2 C 0.8246(4) 0.6550(2) 0.3340(3)
C3 C 0.7848(4) 0.6583(2) 0.3918(3)
C4 C 0.8275(4) 0.6798(1) 0.4352(3)
C5 C 0.7887(4) 0.6873(2) 0.4967(3)
C6 C 0.7068(4) 0.6730(2) 0.5186(3)
C7 C 0.6725(5) 0.6835(2) 0.5755(4)
C8 C 0.7191(5) 0.7069(2) 0.6110(3)
C9 C 0.8030(5) 0.7193(2) 0.5879(3)
C10 C 1.0672(5) 0.7148(2) 0.5390(4)
C11 C 1.0879(5) 0.7395(2) 0.4992(4)
C12 C 0.9345(4) 0.7553(2) 0.2301(3)
C13 C 0.8079(4) 0.7863(2) 0.1999(3)
C14 C 0.7688(4) 0.7566(2) 0.1751(3)
C15 C 0.8167(4) 0.7260(2) 0.1806(3)
C16 C 0.7819(4) 0.6918(2) 0.1600(3)
C17 C 0.7027(4) 0.6884(2) 0.1235(3)
C18 C 0.6710(4) 0.6559(2) 0.1076(3)
C19 C 0.7194(5) 0.6274(2) 0.1285(3)
C20 C 0.7984(4) 0.6324(2) 0.1627(3)
C21 C 1.0588(5) 0.6570(2) 0.1744(4)
C22 C 1.0884(5) 0.6758(2) 0.2207(4)
C23 C 0.9292(4) 0.7864(2) 0.3985(3)
C24 C 0.8121(4) 0.7874(2) 0.4680(3)
C25 C 0.7699(4) 0.8137(2) 0.4365(3)
C26 C 0.8110(4) 0.8248(1) 0.3825(3)
C27 C 0.7708(4) 0.8526(2) 0.3410(3)
C28 C 0.6927(5) 0.8705(2) 0.3565(4)
C29 C 0.6581(5) 0.8948(2) 0.3170(4)
C30 C 0.7052(5) 0.9007(2) 0.2603(4)
C31 C 0.7851(5) 0.8827(2) 0.2487(3)
C32 C 1.0497(5) 0.8583(2) 0.2955(4)
C33 C 1.0515(5) 0.8496(2) 0.2366(4)
H1 H 1.0011 0.7001 0.3543
H2 H 0.7947 0.6410 0.3037
H3 H 0.7295 0.6461 0.4019
H4 H 0.6747 0.6562 0.4945
H5 H 0.6155 0.6743 0.5901
H6 H 0.6956 0.7144 0.6501
H7 H 0.8377 0.7349 0.6129
H8 H 1.0679 0.6913 0.5260
H9 H 1.0505 0.7206 0.5805
H10 H 1.0874 0.7629 0.5121
H11 H 1.1048 0.7336 0.4576
H12 H 0.9942 0.7548 0.2488
H13 H 0.7743 0.8075 0.1981
H14 H 0.7106 0.7572 0.1547
H15 H 0.6706 0.7084 0.1095
H16 H 0.6169 0.6532 0.0828
H17 H 0.6985 0.6047 0.1191
H18 H 0.8319 0.6125 0.1761
H19 H 1.0444 0.6675 0.1357
H20 H 1.0517 0.6326 0.1795
H21 H 1.1028 0.6652 0.2596
H22 H 1.0955 0.7001 0.2157
H23 H 0.9871 0.7773 0.3853
H24 H 0.7825 0.7785 0.5041
H25 H 0.7142 0.8238 0.4516
H26 H 0.6625 0.8660 0.3950
H27 H 0.6037 0.9076 0.3276
H28 H 0.6822 0.9170 0.2310
H29 H 0.8190 0.8877 0.2117
H30 H 1.0169 0.8784 0.3086
H31 H 1.0815 0.8445 0.3254
H32 H 1.0840 0.8296 0.2233
H33 H 1.0194 0.8634 0.2066
Cu4 Cu 0.45817(5) 0.42954(2) 0.16549(3)
Cu5 Cu 0.45734(5) 0.49842(2) 0.41993(4)
Cu6 Cu 0.45204(5) 0.34224(2) 0.39664(4)
N10 N 0.4142(3) 0.4687(1) 0.2323(2)
N11 N 0.4138(3) 0.4990(1) 0.3287(2)
N12 N 0.3414(3) 0.4487(1) 0.1244(2)
N13 N 0.4104(3) 0.4466(1) 0.4449(2)
N14 N 0.4052(3) 0.3855(1) 0.4391(2)
N15 N 0.3375(3) 0.5094(1) 0.4651(2)
N16 N 0.4093(3) 0.3540(1) 0.3041(2)
N17 N 0.4080(3) 0.3877(1) 0.2108(2)
N18 N 0.3327(3) 0.3117(1) 0.3878(2)
C34 C 0.4491(4) 0.4764(2) 0.2879(3)
C35 C 0.3396(5) 0.5173(2) 0.3082(3)
C36 C 0.3004(5) 0.5110(2) 0.2513(3)
C37 C 0.3365(4) 0.4856(2) 0.2145(3)
C38 C 0.2941(4) 0.4734(2) 0.1547(3)
C39 C 0.2091(5) 0.4852(2) 0.1344(3)
C40 C 0.1697(5) 0.4706(2) 0.0829(3)
C41 C 0.2169(4) 0.4455(2) 0.0502(3)
C42 C 0.3039(5) 0.4357(2) 0.0717(3)
C43 C 0.5698(5) 0.4515(2) 0.1229(4)
C44 C 0.5972(5) 0.4236(2) 0.1536(4)
C45 C 0.4464(4) 0.4161(2) 0.4299(3)
C46 C 0.3217(4) 0.3860(2) 0.4690(3)
C47 C 0.2821(4) 0.4166(2) 0.4872(3)
C48 C 0.3268(4) 0.4471(2) 0.4740(3)
C49 C 0.2880(4) 0.4821(2) 0.4863(3)
C50 C 0.2034(4) 0.4867(2) 0.5167(3)
C51 C 0.1688(4) 0.5200(2) 0.5238(3)
C52 C 0.2188(4) 0.5479(2) 0.5020(3)
C53 C 0.3040(4) 0.5413(2) 0.4740(3)
C54 C 0.5688(5) 0.5144(2) 0.4711(4)
C55 C 0.5989(5) 0.5032(3) 0.4189(4)
C56 C 0.4457(4) 0.3767(2) 0.2643(3)
C57 C 0.3275(4) 0.3728(2) 0.1953(3)
C58 C 0.2852(4) 0.3482(2) 0.2318(3)
C59 C 0.3275(4) 0.3389(2) 0.2879(3)
C60 C 0.2878(4) 0.3142(1) 0.3333(3)
C61 C 0.2089(4) 0.2949(2) 0.3204(4)
C62 C 0.1754(5) 0.2727(2) 0.3642(4)
C63 C 0.2204(5) 0.2699(2) 0.4196(4)
C64 C 0.2999(4) 0.2893(2) 0.4304(3)
C65 C 0.5555(6) 0.3067(2) 0.3861(5)
C66 C 0.5829(5) 0.3290(2) 0.4258(4)
H34 H 0.5041 0.4648 0.2999
H35 H 0.3141 0.5349 0.3338
H36 H 0.2489 0.5243 0.2375
H37 H 0.1787 0.5035 0.1558
H38 H 0.1098 0.4777 0.0696
H39 H 0.1907 0.4351 0.0141
H40 H 0.3384 0.4193 0.0483
H41 H 0.5692 0.4735 0.1430
H42 H 0.5509 0.4497 0.0806
H43 H 0.5978 0.4017 0.1337
H44 H 0.6160 0.4254 0.1962
H45 H 0.5062 0.4160 0.4111
H46 H 0.2906 0.3648 0.4774
H47 H 0.2244 0.4167 0.5086
H48 H 0.1703 0.4673 0.5323
H49 H 0.1107 0.5235 0.5436
H50 H 0.1958 0.5710 0.5058
H51 H 0.3403 0.5605 0.4606
H52 H 0.5623 0.4992 0.5053
H53 H 0.5528 0.5383 0.4753
H54 H 0.6053 0.5185 0.3845
H55 H 0.6149 0.4795 0.4145
H56 H 0.5047 0.3860 0.2749
H57 H 0.2984 0.3795 0.1573
H58 H 0.2282 0.3379 0.2193
H59 H 0.1788 0.2973 0.2811
H60 H 0.1218 0.2593 0.3558
H61 H 0.1970 0.2548 0.4509
H62 H 0.3321 0.2866 0.4688
H63 H 0.5669 0.3099 0.3430
H64 H 0.5229 0.2865 0.3999
H65 H 0.5709 0.3256 0.4688
H66 H 0.6149 0.3490 0.4119
Cu7 Cu 0.94409(5) 0.37420(2) 0.18059(3)
Cu8 Cu 0.95727(5) 0.35394(2) 0.46386(3)
Cu9 Cu 0.95506(5) 0.49613(2) 0.34655(4)
N19 N 0.9042(3) 0.3505(1) 0.2698(2)
N20 N 0.9136(3) 0.3375(1) 0.3782(2)
N21 N 0.8235(3) 0.3498(1) 0.1583(2)
N22 N 0.9144(3) 0.4089(1) 0.4579(2)
N23 N 0.9137(4) 0.4663(1) 0.4185(3)
N24 N 0.8383(3) 0.3539(1) 0.5137(2)
N25 N 0.9074(3) 0.4704(1) 0.2680(2)
N26 N 0.9057(3) 0.4236(1) 0.1975(2)
N27 N 0.8356(3) 0.5268(1) 0.3223(2)
C67 C 0.9437(4) 0.3525(2) 0.3262(3)
C68 C 0.8415(5) 0.3157(2) 0.3718(3)
C69 C 0.7984(5) 0.3113(2) 0.3152(3)
C70 C 0.8282(4) 0.3302(2) 0.2647(3)
C71 C 0.7811(4) 0.3312(2) 0.2038(3)
C72 C 0.6949(4) 0.3160(2) 0.1946(3)
C73 C 0.6497(5) 0.3210(2) 0.1383(4)
C74 C 0.6920(5) 0.3404(2) 0.0917(3)
C75 C 0.7799(5) 0.3535(2) 0.1042(3)
C76 C 1.0553(4) 0.3455(2) 0.1495(3)
C77 C 1.0828(4) 0.3774(2) 0.1644(3)
C78 C 0.9505(4) 0.4347(2) 0.4254(3)
C79 C 0.8369(5) 0.4727(2) 0.4527(3)
C80 C 0.7969(5) 0.4481(2) 0.4904(3)
C81 C 0.8365(4) 0.4153(2) 0.4904(3)
C82 C 0.7938(4) 0.3848(2) 0.5214(3)
C83 C 0.7089(4) 0.3866(2) 0.5511(3)
C84 C 0.6679(5) 0.3564(2) 0.5724(3)
C85 C 0.7118(5) 0.3256(2) 0.5638(3)
C86 C 0.7978(4) 0.3249(2) 0.5352(3)
C87 C 1.0711(4) 0.3507(2) 0.5220(3)
C88 C 1.0969(4) 0.3490(2) 0.4629(4)
C89 C 0.9404(4) 0.4414(2) 0.2454(3)
C90 C 0.8333(4) 0.4386(2) 0.1684(3)
C91 C 0.7977(4) 0.4696(2) 0.1865(3)
C92 C 0.8332(4) 0.4852(2) 0.2396(3)
C93 C 0.7937(4) 0.5164(1) 0.2689(3)
C94 C 0.7177(5) 0.5333(2) 0.2447(4)
C95 C 0.6806(5) 0.5611(2) 0.2761(4)
C96 C 0.7215(5) 0.5719(2) 0.3309(4)
C97 C 0.8002(5) 0.5546(2) 0.3516(3)
C98 C 1.0672(5) 0.5209(2) 0.3082(4)
C99 C 1.0757(5) 0.5224(2) 0.3701(3)
H67 H 0.9986 0.3661 0.3296
H68 H 0.8209 0.3029 0.4069
H69 H 0.7482 0.2954 0.3110
H70 H 0.6674 0.3022 0.2264
H71 H 0.5901 0.3113 0.1314
H72 H 0.6623 0.3446 0.0527
H73 H 0.8106 0.3658 0.0722
H74 H 1.0556 0.3277 0.1802
H75 H 1.0356 0.3405 0.1083
H76 H 1.0825 0.3951 0.1338
H77 H 1.1025 0.3823 0.2058
H78 H 1.0078 0.4304 0.4050
H79 H 0.8095 0.4951 0.4507
H80 H 0.7440 0.4533 0.5150
H81 H 0.6790 0.4083 0.5569
H82 H 0.6094 0.3571 0.5927
H83 H 0.6840 0.3047 0.5775
H84 H 0.8286 0.3033 0.5304
H85 H 1.0669 0.3724 0.5426
H86 H 1.0563 0.3300 0.5441
H87 H 1.1008 0.3273 0.4424
H88 H 1.1114 0.3697 0.4409
H89 H 0.9939 0.4321 0.2651
H90 H 0.8059 0.4270 0.1338
H91 H 0.7497 0.4804 0.1633
H92 H 0.6906 0.5256 0.2068
H93 H 0.6277 0.5727 0.2602
H94 H 0.6964 0.5908 0.3536
H95 H 0.8301 0.5627 0.3884
H96 H 1.0361 0.5389 0.2863
H97 H 1.0930 0.5019 0.2858
H98 H 1.1070 0.5045 0.3920
H99 H 1.0500 0.5414 0.3925
Cl1 Cl 0.6820(1) 0.73882(4) 0.33091(8)
O1 O 0.6537(4) 0.7193(2) 0.3837(3)
O2 O 0.6502(4) 0.7208(2) 0.2754(3)
O3 O 0.6419(4) 0.7728(1) 0.3321(3)
O4 O 0.7807(3) 0.7416(1) 0.3298(2)
Cl2 Cl 0.19495(9) 0.42439(4) 0.32239(7)
O5 O 0.1709(4) 0.4392(1) 0.2629(2)
O6 O 0.1633(4) 0.4462(2) 0.3716(3)
O7 O 0.1505(3) 0.3913(1) 0.3273(3)
O8 O 0.2920(3) 0.4202(1) 0.3271(2)
Cl3 Cl 0.6985(1) 0.41257(4) 0.33325(8)
O9 O 0.6668(4) 0.3842(2) 0.2955(3)
O10 O 0.6645(4) 0.4095(2) 0.3957(3)
O11 O 0.6639(4) 0.4443(2) 0.3075(3)
O12 O 0.7969(3) 0.4130(1) 0.3346(3)
Cl4 Cl 0.9930(1) 0.60698(4) 0.48183(8)
O13 O 1.0742(4) 0.6264(2) 0.4940(3)
O14 O 1.0009(5) 0.5736(2) 0.5044(5)
O15 O 0.9828(4) 0.6057(2) 0.4158(3)
O16 O 0.9134(4) 0.6237(1) 0.5079(2)
Cl5 Cl 0.9906(1) 0.55194(5) 0.13541(9)
O17 O 1.0855(4) 0.5610(2) 0.1381(4)
O18 O 0.9814(4) 0.5154(2) 0.1334(4)
O19 O 0.9494(5) 0.5686(2) 0.0835(4)
O20 O 0.9460(6) 0.5646(2) 0.1903(3)
Cl6 Cl 0.4977(1) 0.55928(5) 0.1237(1)
O21 O 0.5821(4) 0.5414(2) 0.1143(3)
O22 O 0.4222(4) 0.5409(2) 0.0978(4)
O23 O 0.5076(5) 0.5918(2) 0.0926(5)
O24 O 0.4834(6) 0.5644(3) 0.1883(4)
Cl7 Cl 0.4987(1) 0.62003(5) 0.4681(1)
O25 O 0.5852(4) 0.6121(2) 0.4410(3)
O26 O 0.4235(4) 0.6105(2) 0.4282(4)
O27 O 0.4925(4) 0.6563(2) 0.4797(3)
O28 O 0.4922(6) 0.6017(3) 0.5243(4)
Cl8 Cl 0.4753(1) 0.25307(5) 0.22929(9)
O29 O 0.5652(5) 0.2426(2) 0.2153(5)
O30 O 0.4077(6) 0.2335(2) 0.1995(3)
O31 O 0.4653(5) 0.2880(2) 0.2196(5)
O32 O 0.4645(6) 0.2458(3) 0.2946(4)
Cl9 Cl 0.4951(1) 0.25098(4) 0.54807(8)
O33 O 0.5908(3) 0.2441(2) 0.5577(3)
O34 O 0.4414(4) 0.2367(2) 0.5987(3)
O35 O 0.4651(4) 0.2358(2) 0.4913(3)
O36 O 0.4807(4) 0.2877(1) 0.5449(3)
loop_
_geom_bond_atom_site_label_1
_geom_bond_atom_site_label_2
_geom_bond_site_symmetry_1
_geom_bond_site_symmetry_2
Cu1 N1 1_555 1_555
Cu2 N2 1_555 1_555
Cu3 N5 1_555 1_555
Cu4 N10 1_555 1_555
Cu5 N11 1_555 1_555
Cu6 N14 1_555 1_555
Cu7 N19 1_555 1_555
Cu8 N20 1_555 1_555
Cu9 N23 1_555 1_555
Cl1 O1 1_555 1_555
Cl2 O5 1_555 1_555
Cl3 O9 1_555 1_555
Cl4 O13 1_555 1_555
Cl5 O17 1_555 1_555
Cl6 O21 1_555 1_555
Cl7 O25 1_555 1_555
Cl8 O29 1_555 1_555
Cl9 O33 1_555 1_555
O2 Cl1 1_555 1_555
O3 Cl1 1_555 1_555
O4 Cl1 1_555 1_555
O6 Cl2 1_555 1_555
O7 Cl2 1_555 1_555
O8 Cl2 1_555 1_555
O10 Cl3 1_555 1_555
O11 Cl3 1_555 1_555
O12 Cl3 1_555 1_555
O14 Cl4 1_555 1_555
O15 Cl4 1_555 1_555
O16 Cl4 1_555 1_555
O18 Cl5 1_555 1_555
O19 Cl5 1_555 1_555
O20 Cl5 1_555 1_555
O22 Cl6 1_555 1_555
O23 Cl6 1_555 1_555
O24 Cl6 1_555 1_555
O26 Cl7 1_555 1_555
O27 Cl7 1_555 1_555
O28 Cl7 1_555 1_555
O30 Cl8 1_555 1_555
O31 Cl8 1_555 1_555
O32 Cl8 1_555 1_555
O34 Cl9 1_555 1_555
O35 Cl9 1_555 1_555
O36 Cl9 1_555 1_555
N1 C1 1_555 1_555
N2 C1 1_555 1_555
N3 Cu1 1_555 1_555
N4 Cu2 1_555 1_555
N5 C12 1_555 1_555
N6 Cu2 1_555 1_555
N7 Cu3 1_555 1_555
N8 Cu1 1_555 1_555
N9 Cu3 1_555 1_555
N10 C34 1_555 1_555
N11 C34 1_555 1_555
N12 Cu4 1_555 1_555
N13 Cu5 1_555 1_555
N14 C45 1_555 1_555
N15 Cu5 1_555 1_555
N16 Cu6 1_555 1_555
N17 Cu4 1_555 1_555
N18 Cu6 1_555 1_555
N19 C67 1_555 1_555
N20 C67 1_555 1_555
N21 Cu7 1_555 1_555
N22 Cu8 1_555 1_555
N23 C78 1_555 1_555
N24 Cu8 1_555 1_555
N25 Cu9 1_555 1_555
N26 Cu7 1_555 1_555
N27 Cu9 1_555 1_555
C1 H1 1_555 1_555
C2 N2 1_555 1_555
C3 C2 1_555 1_555
C4 N1 1_555 1_555
C5 N3 1_555 1_555
C6 C5 1_555 1_555
C7 C6 1_555 1_555
C8 C7 1_555 1_555
C9 N3 1_555 1_555
C10 Cu1 1_555 1_555
C11 Cu1 1_555 1_555
C12 N4 1_555 1_555
C13 N5 1_555 1_555
C14 C13 1_555 1_555
C15 N4 1_555 1_555
C16 N6 1_555 1_555
C17 C16 1_555 1_555
C18 C17 1_555 1_555
C19 C18 1_555 1_555
C20 N6 1_555 1_555
C21 Cu2 1_555 1_555
C22 Cu2 1_555 1_555
C23 N7 1_555 1_555
C24 N8 1_555 1_555
C25 C24 1_555 1_555
C26 N7 1_555 1_555
C27 N9 1_555 1_555
C28 C27 1_555 1_555
C29 C28 1_555 1_555
C30 C29 1_555 1_555
C31 N9 1_555 1_555
C32 Cu3 1_555 1_555
C33 Cu3 1_555 1_555
C34 H34 1_555 1_555
C35 N11 1_555 1_555
C36 C35 1_555 1_555
C37 N10 1_555 1_555
C38 N12 1_555 1_555
C39 C38 1_555 1_555
C40 C39 1_555 1_555
C41 C40 1_555 1_555
C42 N12 1_555 1_555
C43 Cu4 1_555 1_555
C44 Cu4 1_555 1_555
C45 N13 1_555 1_555
C46 N14 1_555 1_555
C47 C46 1_555 1_555
C48 N13 1_555 1_555
C49 N15 1_555 1_555
C50 C49 1_555 1_555
C51 C50 1_555 1_555
C52 C51 1_555 1_555
C53 N15 1_555 1_555
C54 Cu5 1_555 1_555
C55 Cu5 1_555 1_555
C56 N16 1_555 1_555
C57 N17 1_555 1_555
C58 C57 1_555 1_555
C59 N16 1_555 1_555
C60 N18 1_555 1_555
C61 C60 1_555 1_555
C62 C61 1_555 1_555
C63 C62 1_555 1_555
C64 N18 1_555 1_555
C65 Cu6 1_555 1_555
C66 Cu6 1_555 1_555
C67 H67 1_555 1_555
C68 N20 1_555 1_555
C69 C68 1_555 1_555
C70 N19 1_555 1_555
C71 N21 1_555 1_555
C72 C71 1_555 1_555
C73 C72 1_555 1_555
C74 C73 1_555 1_555
C75 N21 1_555 1_555
C76 Cu7 1_555 1_555
C77 Cu7 1_555 1_555
C78 N22 1_555 1_555
C79 N23 1_555 1_555
C80 C79 1_555 1_555
C81 N22 1_555 1_555
C82 N24 1_555 1_555
C83 C82 1_555 1_555
C84 C83 1_555 1_555
C85 C84 1_555 1_555
C86 N24 1_555 1_555
C87 Cu8 1_555 1_555
C88 Cu8 1_555 1_555
C89 N25 1_555 1_555
C90 N26 1_555 1_555
C91 C90 1_555 1_555
C92 N25 1_555 1_555
C93 N27 1_555 1_555
C94 C93 1_555 1_555
C95 C94 1_555 1_555
C96 C95 1_555 1_555
C97 N27 1_555 1_555
C98 Cu9 1_555 1_555
C99 Cu9 1_555 1_555
H2 C2 1_555 1_555
H3 C3 1_555 1_555
H4 C6 1_555 1_555
H5 C7 1_555 1_555
H6 C8 1_555 1_555
H7 C9 1_555 1_555
H8 C10 1_555 1_555
H9 C10 1_555 1_555
H10 C11 1_555 1_555
H11 C11 1_555 1_555
H12 C12 1_555 1_555
H13 C13 1_555 1_555
H14 C14 1_555 1_555
H15 C17 1_555 1_555
H16 C18 1_555 1_555
H17 C19 1_555 1_555
H18 C20 1_555 1_555
H19 C21 1_555 1_555
H20 C21 1_555 1_555
H21 C22 1_555 1_555
H22 C22 1_555 1_555
H23 C23 1_555 1_555
H24 C24 1_555 1_555
H25 C25 1_555 1_555
H26 C28 1_555 1_555
H27 C29 1_555 1_555
H28 C30 1_555 1_555
H29 C31 1_555 1_555
H30 C32 1_555 1_555
H31 C32 1_555 1_555
H32 C33 1_555 1_555
H33 C33 1_555 1_555
H35 C35 1_555 1_555
H36 C36 1_555 1_555
H37 C39 1_555 1_555
H38 C40 1_555 1_555
H39 C41 1_555 1_555
H40 C42 1_555 1_555
H41 C43 1_555 1_555
H42 C43 1_555 1_555
H43 C44 1_555 1_555
H44 C44 1_555 1_555
H45 C45 1_555 1_555
H46 C46 1_555 1_555
H47 C47 1_555 1_555
H48 C50 1_555 1_555
H49 C51 1_555 1_555
H50 C52 1_555 1_555
H51 C53 1_555 1_555
H52 C54 1_555 1_555
H53 C54 1_555 1_555
H54 C55 1_555 1_555
H55 C55 1_555 1_555
H56 C56 1_555 1_555
H57 C57 1_555 1_555
H58 C58 1_555 1_555
H59 C61 1_555 1_555
H60 C62 1_555 1_555
H61 C63 1_555 1_555
H62 C64 1_555 1_555
H63 C65 1_555 1_555
H64 C65 1_555 1_555
H65 C66 1_555 1_555
H66 C66 1_555 1_555
H68 C68 1_555 1_555
H69 C69 1_555 1_555
H70 C72 1_555 1_555
H71 C73 1_555 1_555
H72 C74 1_555 1_555
H73 C75 1_555 1_555
H74 C76 1_555 1_555
H75 C76 1_555 1_555
H76 C77 1_555 1_555
H77 C77 1_555 1_555
H78 C78 1_555 1_555
H79 C79 1_555 1_555
H80 C80 1_555 1_555
H81 C83 1_555 1_555
H82 C84 1_555 1_555
H83 C85 1_555 1_555
H84 C86 1_555 1_555
H85 C87 1_555 1_555
H86 C87 1_555 1_555
H87 C88 1_555 1_555
H88 C88 1_555 1_555
H89 C89 1_555 1_555
H90 C90 1_555 1_555
H91 C91 1_555 1_555
H92 C94 1_555 1_555
H93 C95 1_555 1_555
H94 C96 1_555 1_555
H95 C97 1_555 1_555
H96 C98 1_555 1_555
H97 C98 1_555 1_555
H98 C99 1_555 1_555
H99 C99 1_555 1_555
N8 C23 1_555 1_555
N17 C56 1_555 1_555
N26 C89 1_555 1_555
C3 C4 1_555 1_555
C4 C5 1_555 1_555
C8 C9 1_555 1_555
C10 C11 1_555 1_555
C14 C15 1_555 1_555
C15 C16 1_555 1_555
C19 C20 1_555 1_555
C21 C22 1_555 1_555
C25 C26 1_555 1_555
C26 C27 1_555 1_555
C30 C31 1_555 1_555
C32 C33 1_555 1_555
C36 C37 1_555 1_555
C37 C38 1_555 1_555
C41 C42 1_555 1_555
C43 C44 1_555 1_555
C47 C48 1_555 1_555
C48 C49 1_555 1_555
C52 C53 1_555 1_555
C54 C55 1_555 1_555
C58 C59 1_555 1_555
C59 C60 1_555 1_555
C63 C64 1_555 1_555
C65 C66 1_555 1_555
C69 C70 1_555 1_555
C70 C71 1_555 1_555
C74 C75 1_555 1_555
C76 C77 1_555 1_555
C80 C81 1_555 1_555
C81 C82 1_555 1_555
C85 C86 1_555 1_555
C87 C88 1_555 1_555
C91 C92 1_555 1_555
C92 C93 1_555 1_555
C96 C97 1_555 1_555
C98 C99 1_555 1_555

#END
