
#######################################################################
#
#                 Cambridge Crystallographic Data Centre
#                                CCDC 
#
#######################################################################
#
# If this CIF has been generated from an entry in the Cambridge 
# Structural Database, then it will include bibliographic, chemical, 
# crystal, experimental, refinement or atomic coordinate data resulting 
# from the CCDC's data processing and validation procedures.
#
#######################################################################

data_COCBED
_chemical_formula_moiety         'C36 H48 N12 O4 Pd2 4+,4(Cl1 O4 1-),3(H2 O1)'
_chemical_name_systematic        
'bis(\m~2~-(piperazine-1,4-diylbis((pyridin-4-yl)methanone)))-bis(ethane-1,2-diamine)-di-palladium(ii) tetraperchlorate trihydrate'
_symmetry_cell_setting           orthorhombic
_symmetry_space_group_name_H-M   'C m c 21'
_symmetry_Int_Tables_number      36
_space_group_name_Hall           'C 2n -2'
loop_
_symmetry_equiv_pos_site_id
_symmetry_equiv_pos_as_xyz
1 x,y,z
2 -x,-y,1/2+z
3 -x,y,z
4 x,-y,1/2+z
5 1/2+x,1/2+y,z
6 1/2-x,1/2-y,1/2+z
7 1/2-x,1/2+y,z
8 1/2+x,1/2-y,1/2+z
_cell_length_a                   18.8926(6)
_cell_length_b                   17.6085(6)
_cell_length_c                   17.0599(6)
_cell_angle_alpha                90
_cell_angle_beta                 90
_cell_angle_gamma                90
_cell_volume                     5675.32
_exptl_crystal_colour            metallic
_exptl_crystal_description       Block
_cell_formula_units_Z            4
loop_
_atom_site_label
_atom_site_type_symbol
_atom_site_fract_x
_atom_site_fract_y
_atom_site_fract_z
C1 C 0.9624(4) 0.3300(6) 0.3473(6)
H1 H 0.9465 0.2783 0.3562
H2 H 0.9465 0.3446 0.2954
C2 C 0.8929(5) 0.5555(5) 0.4986(6)
H3 H 0.9153 0.5802 0.4573
C3 C 0.8338(5) 0.5875(5) 0.5278(7)
H4 H 0.8146 0.6302 0.5038
C4 C 0.8025(3) 0.5579(3) 0.5914(4)
C5 C 0.8336(6) 0.4952(7) 0.6208(7)
H5 H 0.8152 0.4723 0.6655
C6 C 0.8922(5) 0.4650(5) 0.5851(5)
H6 H 0.9123 0.4216 0.6067
C7 C 0.7351(3) 0.5896(4) 0.6261(4)
C8 C 0.8032(3) 0.6777(4) 0.7103(4)
H7 H 0.8446 0.6538 0.6873
H8 H 0.8030 0.6663 0.7659
C9 C 0.8073(4) 0.7603(5) 0.6991(5)
H9 H 0.8141 0.7715 0.6439
H10 H 0.8476 0.7802 0.7277
C10 C 0.6777(4) 0.7668(5) 0.6912(5)
H11 H 0.6782 0.7774 0.6354
H12 H 0.6364 0.7912 0.7136
C11 C 0.6733(3) 0.6825(5) 0.7042(5)
H13 H 0.6681 0.6719 0.7597
H14 H 0.6324 0.6621 0.6770
C12 C 0.7378(3) 0.8518(4) 0.7804(5)
C13 C 0.8065(3) 0.8794(3) 0.8186(4)
C14 C 0.8418(4) 0.9419(4) 0.7890(4)
H15 H 0.8268 0.9650 0.7428
C15 C 0.8996(3) 0.9696(4) 0.8291(4)
H16 H 0.9243 1.0106 0.8084
C16 C 0.8875(4) 0.8791(3) 0.9236(4)
H17 H 0.9029 0.8571 0.9701
C17 C 0.8301(3) 0.8475(3) 0.8850(4)
H18 H 0.8080 0.8044 0.9051
C18 C 1.0359(4) 1.0668(8) 1.1007(5)
H19 H 1.0516 1.0413 1.1480
H20 H 1.0516 1.1192 1.1044
N1 N 0.9281(3) 0.3778(3) 0.4029(4)
N2 N 0.9210(3) 0.4933(3) 0.5235(3)
N3 N 0.7390(3) 0.6464(3) 0.6740(4)
N4 N 0.7415(3) 0.7975(3) 0.7272(3)
N5 N 0.9214(2) 0.9396(2) 0.8964(3)
N6 N 1.0714(3) 1.0332(3) 1.0366(3)
H21 H 1.1015 0.9974 1.0541
H22 H 1.0967 1.0686 1.0109
O1 O 0.6792(3) 0.5595(4) 0.6082(5)
O2 O 0.6835(2) 0.8814(3) 0.8022(5)
Pd1 Pd 1.0000 0.43840(3) 0.46588(4)
Pd2 Pd 1.0000 0.98562(2) 0.96263(3)
H23 H 0.916(3) 0.417(2) 0.367(3)
H24 H 0.8837(19) 0.370(5) 0.427(5)
C1B C 1.0376(4) 0.3300(6) 0.3473(6)
H1B H 1.0535 0.2783 0.3562
H2B H 1.0535 0.3446 0.2954
N1B N 1.0719(3) 0.3778(3) 0.4029(4)
H23B H 1.084(3) 0.417(2) 0.367(3)
H24B H 1.1163(19) 0.370(5) 0.427(5)
C18B C 0.9641(4) 1.0668(8) 1.1007(5)
H19B H 0.9484 1.0413 1.1480
H20B H 0.9484 1.1192 1.1044
N6B N 0.9286(3) 1.0332(3) 1.0366(3)
H21B H 0.8985 0.9974 1.0541
H22B H 0.9033 1.0686 1.0109
C2B C 1.1071(5) 0.5555(5) 0.4986(6)
H3B H 1.0847 0.5802 0.4573
C3B C 1.1662(5) 0.5875(5) 0.5278(7)
H4B H 1.1854 0.6302 0.5038
C4B C 1.1975(3) 0.5579(3) 0.5914(4)
C5B C 1.1664(6) 0.4952(7) 0.6208(7)
H5B H 1.1848 0.4723 0.6655
C6B C 1.1078(5) 0.4650(5) 0.5851(5)
H6B H 1.0877 0.4216 0.6067
C7B C 1.2649(3) 0.5896(4) 0.6261(4)
C8B C 1.1968(3) 0.6777(4) 0.7103(4)
H7B H 1.1554 0.6538 0.6873
H8B H 1.1970 0.6663 0.7659
C9B C 1.1927(4) 0.7603(5) 0.6991(5)
H9B H 1.1859 0.7715 0.6439
H10B H 1.1524 0.7802 0.7277
C10B C 1.3223(4) 0.7668(5) 0.6912(5)
H11B H 1.3218 0.7774 0.6354
H12B H 1.3636 0.7912 0.7136
C11B C 1.3267(3) 0.6825(5) 0.7042(5)
H13B H 1.3319 0.6719 0.7597
H14B H 1.3676 0.6621 0.6770
C12B C 1.2622(3) 0.8518(4) 0.7804(5)
C13B C 1.1935(3) 0.8794(3) 0.8186(4)
C14B C 1.1582(4) 0.9419(4) 0.7890(4)
H15B H 1.1732 0.9650 0.7428
C15B C 1.1004(3) 0.9696(4) 0.8291(4)
H16B H 1.0757 1.0106 0.8084
C16B C 1.1125(4) 0.8791(3) 0.9236(4)
H17B H 1.0971 0.8571 0.9701
C17B C 1.1699(3) 0.8475(3) 0.8850(4)
H18B H 1.1920 0.8044 0.9051
N2B N 1.0790(3) 0.4933(3) 0.5235(3)
N3B N 1.2610(3) 0.6464(3) 0.6740(4)
N4B N 1.2585(3) 0.7975(3) 0.7272(3)
N5B N 1.0786(2) 0.9396(2) 0.8964(3)
O1B O 1.3208(3) 0.5595(4) 0.6082(5)
O2B O 1.3165(2) 0.8814(3) 0.8022(5)
Cl1 Cl 1.0000 0.71222(18) 0.62473(17)
O3 O 1.0000 0.6382(7) 0.6536(12)
O4 O 1.0000 0.7634(7) 0.6897(7)
O5 O 0.9426(5) 0.7274(6) 0.5789(7)
O5B O 1.0574(5) 0.7274(6) 0.5789(7)
Cl2 Cl 0.5000 0.74220(14) 0.58604(14)
O6 O 0.5000 0.7714(9) 0.6605(7)
O7 O 0.4369(3) 0.7652(4) 0.5459(4)
O8 O 0.5000 0.6614(5) 0.5875(8)
O7B O 0.5631(3) 0.7652(4) 0.5459(4)
Cl3 Cl 0.72101(9) 0.65834(11) 0.95958(17)
O9 O 0.6966(9) 0.5981(8) 0.9193(9)
O10 O 0.7876(5) 0.6710(6) 0.9476(12)
O11 O 0.6945(9) 0.7269(6) 0.9303(12)
O12 O 0.6924(12) 0.6508(11) 1.0270(10)
O13 O 0.6821(6) 0.0302(5) 0.8352(10)
O14 O 0.0000 0.1156(10) 0.782(2)
loop_
_geom_bond_atom_site_label_1
_geom_bond_atom_site_label_2
_geom_bond_site_symmetry_1
_geom_bond_site_symmetry_2
C1 H1 1_555 1_555
H2 C1 1_555 1_555
C2 H3 1_555 1_555
C3 C2 1_555 1_555
H4 C3 1_555 1_555
C4 C3 1_555 1_555
C5 C4 1_555 1_555
H5 C5 1_555 1_555
C6 C5 1_555 1_555
H6 C6 1_555 1_555
C7 C4 1_555 1_555
C8 H7 1_555 1_555
H8 C8 1_555 1_555
C9 C8 1_555 1_555
H9 C9 1_555 1_555
H10 C9 1_555 1_555
C10 H11 1_555 1_555
H12 C10 1_555 1_555
C11 C10 1_555 1_555
H13 C11 1_555 1_555
H14 C11 1_555 1_555
C12 C13 1_555 1_555
C13 C14 1_555 1_555
C14 H15 1_555 1_555
C15 C14 1_555 1_555
H16 C15 1_555 1_555
C16 H17 1_555 1_555
C17 C13 1_555 1_555
H18 C17 1_555 1_555
C18 H19 1_555 1_555
H20 C18 1_555 1_555
N1 C1 1_555 1_555
N2 C2 1_555 1_555
N3 C7 1_555 1_555
N4 C9 1_555 1_555
N5 C15 1_555 1_555
N6 C18 1_555 1_555
H21 N6 1_555 1_555
H22 N6 1_555 1_555
O1 C7 1_555 1_555
O2 C12 1_555 1_555
Pd1 N1 1_555 1_555
Pd2 N5 1_555 1_555
H23 N1 1_555 1_555
H24 N1 1_555 1_555
Cl1 O3 1_555 1_555
O4 Cl1 1_555 1_555
O5 Cl1 1_555 1_555
Cl2 O6 1_555 1_555
O7 Cl2 1_555 1_555
O8 Cl2 1_555 1_555
Cl3 O9 1_555 1_555
O10 Cl3 1_555 1_555
O11 Cl3 1_555 1_555
O12 Cl3 1_555 1_555
C1B C1 1_555 1_555
H1B C1B 1_555 1_555
H2B C1B 1_555 1_555
N1B Pd1 1_555 1_555
H23B N1B 1_555 1_555
H24B N1B 1_555 1_555
C18B C18 1_555 1_555
H19B C18B 1_555 1_555
H20B C18B 1_555 1_555
N6B Pd2 1_555 1_555
H21B N6B 1_555 1_555
H22B N6B 1_555 1_555
C2B H3B 1_555 1_555
C3B C2B 1_555 1_555
H4B C3B 1_555 1_555
C4B C3B 1_555 1_555
C5B C4B 1_555 1_555
H5B C5B 1_555 1_555
C6B C5B 1_555 1_555
H6B C6B 1_555 1_555
C7B C4B 1_555 1_555
C8B H7B 1_555 1_555
H8B C8B 1_555 1_555
C9B C8B 1_555 1_555
H9B C9B 1_555 1_555
H10B C9B 1_555 1_555
C10B H11B 1_555 1_555
H12B C10B 1_555 1_555
C11B C10B 1_555 1_555
H13B C11B 1_555 1_555
H14B C11B 1_555 1_555
C12B C13B 1_555 1_555
C13B C14B 1_555 1_555
C14B H15B 1_555 1_555
C15B C14B 1_555 1_555
H16B C15B 1_555 1_555
C16B H17B 1_555 1_555
C17B C13B 1_555 1_555
H18B C17B 1_555 1_555
N2B Pd1 1_555 1_555
N3B C7B 1_555 1_555
N4B C9B 1_555 1_555
N5B Pd2 1_555 1_555
O1B C7B 1_555 1_555
O2B C12B 1_555 1_555
O5B Cl1 1_555 1_555
O7B Cl2 1_555 1_555
C6 N2 1_555 1_555
C8 N3 1_555 1_555
C10 N4 1_555 1_555
C11 N3 1_555 1_555
C12 N4 1_555 1_555
C16 C17 1_555 1_555
C16 N5 1_555 1_555
N2 Pd1 1_555 1_555
N6 Pd2 1_555 1_555
C1B N1B 1_555 1_555
C18B N6B 1_555 1_555
C2B N2B 1_555 1_555
C6B N2B 1_555 1_555
C8B N3B 1_555 1_555
C10B N4B 1_555 1_555
C11B N3B 1_555 1_555
C12B N4B 1_555 1_555
C15B N5B 1_555 1_555
C16B C17B 1_555 1_555
C16B N5B 1_555 1_555

#END
