
#######################################################################
#
#                 Cambridge Crystallographic Data Centre
#                                CCDC 
#
#######################################################################
#
# If this CIF has been generated from an entry in the Cambridge 
# Structural Database, then it will include bibliographic, chemical, 
# crystal, experimental, refinement or atomic coordinate data resulting 
# from the CCDC's data processing and validation procedures.
#
#######################################################################

data_COHPAS
_chemical_formula_moiety         'C114 H204 N12 O24 Sn6 2+,6(C1 H4 O1),2(I1 1-)'
_chemical_name_systematic        
'hexakis(\m-1,3-dimethyl-1H-imidazol-3-ium-4,5-dicarboxylato)-octadecakis(n-butyl)-hexa-tin diiodidemethanol solvate'
_symmetry_cell_setting           rhombohedral
_symmetry_space_group_name_H-M   'R -3'
_symmetry_Int_Tables_number      148
_space_group_name_Hall           '-R 3'
loop_
_symmetry_equiv_pos_site_id
_symmetry_equiv_pos_as_xyz
1 x,y,z
2 -y,x-y,z
3 -x+y,-x,z
4 2/3+x,1/3+y,1/3+z
5 2/3-y,1/3+x-y,1/3+z
6 2/3-x+y,1/3-x,1/3+z
7 1/3+x,2/3+y,2/3+z
8 1/3-y,2/3+x-y,2/3+z
9 1/3-x+y,2/3-x,2/3+z
10 -x,-y,-z
11 y,-x+y,-z
12 x-y,x,-z
13 1/3-x,2/3-y,2/3-z
14 1/3+y,2/3-x+y,2/3-z
15 1/3+x-y,2/3+x,2/3-z
16 2/3-x,1/3-y,1/3-z
17 2/3+y,1/3-x+y,1/3-z
18 2/3+x-y,1/3+x,1/3-z
_cell_length_a                   26.535(5)
_cell_length_b                   26.535(5)
_cell_length_c                   20.282(5)
_cell_angle_alpha                90
_cell_angle_beta                 90
_cell_angle_gamma                120
_cell_volume                     12367.4
_exptl_crystal_colour            colorless
_exptl_crystal_description       needle
_cell_formula_units_Z            3
loop_
_atom_site_label
_atom_site_type_symbol
_atom_site_fract_x
_atom_site_fract_y
_atom_site_fract_z
I1 I 0.6667 0.3333 0.24210(16)
Sn1 Sn 0.51112(2) 0.02118(2) 0.18602(2)
O1 O 0.5733(2) 0.0345(3) 0.0994(3)
O2 O 0.6488(2) 0.0398(2) 0.1545(2)
O3 O 0.6742(2) -0.1033(3) 0.0714(3)
O4 O 0.6192(2) -0.0836(3) 0.1398(2)
N1 N 0.6392(3) 0.0319(3) -0.0165(3)
N2 N 0.6611(3) -0.0359(3) -0.0286(3)
C1 C 0.6180(3) 0.0297(3) 0.1054(3)
C2 C 0.6341(3) 0.0075(3) 0.0449(3)
C3 C 0.6473(3) -0.0355(3) 0.0381(3)
C4 C 0.6555(3) 0.0053(3) -0.0595(4)
H1 H 0.6620 0.0140 -0.1042
C5 C 0.6282(4) 0.0792(4) -0.0336(4)
H2 H 0.6334 0.0864 -0.0802
H3 H 0.6549 0.1138 -0.0101
H4 H 0.5890 0.0683 -0.0217
C6 C 0.6775(4) -0.0751(4) -0.0623(4)
H5 H 0.6828 -0.0660 -0.1085
H6 H 0.6473 -0.1147 -0.0564
H7 H 0.7132 -0.0698 -0.0439
C7 C 0.6458(3) -0.0778(4) 0.0882(3)
C8 C 0.4888(4) -0.0684(4) 0.1764(4)
H8 H 0.4683 -0.0823 0.1348
H9 H 0.5250 -0.0687 0.1722
C9 C 0.4531(4) -0.1128(4) 0.2281(4)
H10 H 0.4162 -0.1138 0.2334
H11 H 0.4734 -0.1013 0.2700
C10 C 0.4415(4) -0.1737(4) 0.2097(5)
H12 H 0.4196 -0.1854 0.1688
H13 H 0.4786 -0.1716 0.2015
C11 C 0.4087(5) -0.2203(5) 0.2610(6)
H14 H 0.4301 -0.2095 0.3017
H15 H 0.4041 -0.2567 0.2459
H16 H 0.3711 -0.2244 0.2680
C12 C 0.5741(4) 0.0772(4) 0.2568(4)
H17 H 0.6126 0.0923 0.2381
H18 H 0.5684 0.1101 0.2649
C13 C 0.5715(4) 0.0482(5) 0.3224(4)
H19 H 0.5832 0.0193 0.3155
H20 H 0.5316 0.0280 0.3379
C14 C 0.6101(5) 0.0905(5) 0.3756(5)
H21 H 0.6011 0.1215 0.3796
H22 H 0.6505 0.1078 0.3621
C15 C 0.6024(5) 0.0614(6) 0.4429(5)
H23 H 0.5624 0.0437 0.4562
H24 H 0.6265 0.0902 0.4748
H25 H 0.6136 0.0322 0.4398
C16 C 0.4816(4) 0.0628(4) 0.1182(4)
H26 H 0.4737 0.0430 0.0761
H27 H 0.4453 0.0586 0.1344
C17 C 0.5251(4) 0.1278(4) 0.1076(4)
H28 H 0.5286 0.1485 0.1483
H29 H 0.5630 0.1324 0.0977
C18 C 0.5085(5) 0.1553(4) 0.0528(4)
H30 H 0.5330 0.1972 0.0553
H31 H 0.4685 0.1459 0.0590
C19 C 0.5148(4) 0.1346(4) -0.0157(4)
H32 H 0.5546 0.1450 -0.0227
H33 H 0.5032 0.1527 -0.0487
H34 H 0.4905 0.0931 -0.0184
Sn1P Sn 0.68785(2) -0.15661(3) 0.14731(2)
O1P O 0.7012(3) -0.2055(4) 0.2339(3)
O2P O 0.7065(2) -0.2757(3) 0.1788(2)
O3P O 0.5634(3) -0.4442(4) 0.2619(3)
O4P O 0.5831(3) -0.3695(4) 0.1935(2)
N1P N 0.6986(3) -0.2740(4) 0.3498(3)
N2P N 0.6308(3) -0.3637(4) 0.3619(3)
C1P C 0.6964(3) -0.2550(4) 0.2279(3)
C2P C 0.6742(3) -0.2933(4) 0.2884(3)
C3P C 0.6312(3) -0.3495(4) 0.2952(3)
C4P C 0.6720(3) -0.3169(4) 0.3928(4)
H1P H 0.6807 -0.3147 0.4375
C5P C 0.7459(4) -0.2157(6) 0.3669(4)
H2P H 0.7531 -0.2137 0.4135
H3P H 0.7805 -0.2078 0.3434
H4P H 0.7350 -0.1874 0.3550
C6P C 0.5916(4) -0.4193(6) 0.3956(4)
H5P H 0.6007 -0.4155 0.4418
H6P H 0.5520 -0.4287 0.3897
H7P H 0.5969 -0.4497 0.3772
C7P C 0.5889(4) -0.3903(5) 0.2451(3)
C8P C 0.5983(4) -0.2239(6) 0.1569(4)
H8P H 0.5844 -0.2173 0.1985
H9P H 0.5980 -0.2604 0.1611
C9P C 0.5539(4) -0.2326(6) 0.1052(4)
H10P H 0.5529 -0.1967 0.0999
H11P H 0.5654 -0.2414 0.0633
C10P C 0.4930(4) -0.2819(6) 0.1236(5)
H12P H 0.4813 -0.2717 0.1645
H13P H 0.4951 -0.3169 0.1318
C11P C 0.4464(5) -0.2957(7) 0.0723(6)
H14P H 0.4572 -0.3063 0.0316
H15P H 0.4100 -0.3275 0.0874
H16P H 0.4423 -0.2622 0.0653
C12P C 0.7439(4) -0.1636(6) 0.0765(4)
H17P H 0.7590 -0.1870 0.0952
H18P H 0.7768 -0.1250 0.0684
C13P C 0.7149(5) -0.1900(6) 0.0109(4)
H19P H 0.6860 -0.2306 0.0178
H20P H 0.6947 -0.1703 -0.0046
C14P C 0.7572(5) -0.1863(7) -0.0423(5)
H21P H 0.7882 -0.1463 -0.0463
H22P H 0.7745 -0.2094 -0.0288
C15P C 0.7281(6) -0.2077(8) -0.1096(5)
H23P H 0.7104 -0.1854 -0.1229
H24P H 0.7569 -0.2030 -0.1415
H25P H 0.6989 -0.2481 -0.1065
C16P C 0.7295(4) -0.0855(6) 0.2151(4)
H26P H 0.7097 -0.0974 0.2572
H27P H 0.7253 -0.0534 0.1989
C17P C 0.7945(4) -0.0640(6) 0.2257(4)
H28P H 0.8152 -0.0468 0.1850
H29P H 0.7991 -0.0973 0.2356
C18P C 0.8220(4) -0.0199(6) 0.2805(4)
H30P H 0.8639 -0.0025 0.2780
H31P H 0.8126 0.0107 0.2743
C19P C 0.8013(4) -0.0469(6) 0.3490(4)
H32P H 0.8117 -0.0763 0.3560
H33P H 0.8194 -0.0172 0.3820
H34P H 0.7598 -0.0641 0.3517
Sn1Q Sn 0.15661(3) -0.15555(2) 0.14731(2)
O1Q O 0.2055(4) -0.0934(2) 0.2339(3)
O2Q O 0.2757(3) -0.0179(2) 0.1788(2)
O3Q O 0.4442(4) 0.0075(2) 0.2619(3)
O4Q O 0.3695(4) -0.0475(2) 0.1935(2)
N1Q N 0.2740(4) -0.0275(3) 0.3498(3)
N2Q N 0.3637(4) -0.0056(3) 0.3619(3)
C1Q C 0.2550(4) -0.0487(3) 0.2279(3)
C2Q C 0.2933(4) -0.0326(3) 0.2884(3)
C3Q C 0.3495(4) -0.0194(3) 0.2952(3)
C4Q C 0.3169(4) -0.0112(3) 0.3928(4)
H1Q H 0.3147 -0.0047 0.4375
C5Q C 0.2157(6) -0.0385(4) 0.3669(4)
H2Q H 0.2137 -0.0333 0.4135
H3Q H 0.2078 -0.0118 0.3434
H4Q H 0.1874 -0.0777 0.3550
C6Q C 0.4193(6) 0.0108(4) 0.3956(4)
H5Q H 0.4155 0.0161 0.4418
H6Q H 0.4287 -0.0194 0.3897
H7Q H 0.4497 0.0465 0.3772
C7Q C 0.3903(5) -0.0209(3) 0.2451(3)
C8Q C 0.2239(6) -0.1779(4) 0.1569(4)
H8Q H 0.2173 -0.1984 0.1985
H9Q H 0.2604 -0.1417 0.1611
C9Q C 0.2326(6) -0.2136(4) 0.1052(4)
H10Q H 0.1967 -0.2505 0.0999
H11Q H 0.2414 -0.1933 0.0633
C10Q C 0.2819(6) -0.2252(4) 0.1236(5)
H12Q H 0.2717 -0.2471 0.1645
H13Q H 0.3169 -0.1881 0.1318
C11Q C 0.2957(7) -0.2580(5) 0.0723(6)
H14Q H 0.3063 -0.2366 0.0316
H15Q H 0.3275 -0.2626 0.0874
H16Q H 0.2622 -0.2956 0.0653
C12Q C 0.1636(6) -0.0926(4) 0.0765(4)
H17Q H 0.1870 -0.0541 0.0952
H18Q H 0.1250 -0.0983 0.0684
C13Q C 0.1900(6) -0.0952(4) 0.0109(4)
H19Q H 0.2306 -0.0835 0.0178
H20Q H 0.1703 -0.1351 -0.0046
C14Q C 0.1863(7) -0.0566(5) -0.0423(5)
H21Q H 0.1463 -0.0656 -0.0463
H22Q H 0.2094 -0.0162 -0.0288
C15Q C 0.2077(8) -0.0643(5) -0.1096(5)
H23Q H 0.1854 -0.1043 -0.1229
H24Q H 0.2030 -0.0402 -0.1415
H25Q H 0.2481 -0.0531 -0.1065
C16Q C 0.0855(6) -0.1851(4) 0.2151(4)
H26Q H 0.0974 -0.1930 0.2572
H27Q H 0.0534 -0.2214 0.1989
C17Q C 0.0640(6) -0.1416(4) 0.2257(4)
H28Q H 0.0468 -0.1381 0.1850
H29Q H 0.0973 -0.1037 0.2356
C18Q C 0.0199(6) -0.1582(5) 0.2805(4)
H30Q H 0.0025 -0.1337 0.2780
H31Q H -0.0107 -0.1982 0.2743
C19Q C 0.0469(6) -0.1519(4) 0.3490(4)
H32Q H 0.0763 -0.1121 0.3560
H33Q H 0.0172 -0.1635 0.3820
H34Q H 0.0641 -0.1762 0.3517
Sn1A Sn -0.02118(2) -0.51006(3) 0.18602(2)
O1A O -0.0345(3) -0.4612(4) 0.0994(3)
O2A O -0.0398(2) -0.3910(3) 0.1545(2)
O3A O 0.1033(3) -0.2225(4) 0.0714(3)
O4A O 0.0836(3) -0.2972(4) 0.1398(2)
N1A N -0.0319(3) -0.3927(4) -0.0165(3)
N2A N 0.0359(3) -0.3030(4) -0.0286(3)
C1A C -0.0297(3) -0.4117(4) 0.1054(3)
C2A C -0.0075(3) -0.3734(4) 0.0449(3)
C3A C 0.0355(3) -0.3172(4) 0.0381(3)
C4A C -0.0053(3) -0.3498(4) -0.0595(4)
H1A H -0.0140 -0.3520 -0.1042
C5A C -0.0792(4) -0.4510(6) -0.0336(4)
H2A H -0.0864 -0.4530 -0.0802
H3A H -0.1138 -0.4589 -0.0101
H4A H -0.0683 -0.4793 -0.0217
C6A C 0.0751(4) -0.2474(6) -0.0623(4)
H5A H 0.0660 -0.2512 -0.1085
H6A H 0.1147 -0.2380 -0.0564
H7A H 0.0698 -0.2170 -0.0439
C7A C 0.0778(4) -0.2764(5) 0.0882(3)
C8A C 0.0684(4) -0.4428(6) 0.1764(4)
H8A H 0.0823 -0.4494 0.1348
H9A H 0.0687 -0.4063 0.1722
C9A C 0.1128(4) -0.4341(6) 0.2281(4)
H10A H 0.1138 -0.4700 0.2334
H11A H 0.1013 -0.4253 0.2700
C10A C 0.1737(4) -0.3848(6) 0.2097(5)
H12A H 0.1854 -0.3950 0.1688
H13A H 0.1716 -0.3498 0.2015
C11A C 0.2203(5) -0.3710(7) 0.2610(6)
H14A H 0.2095 -0.3604 0.3017
H15A H 0.2567 -0.3392 0.2459
H16A H 0.2244 -0.4045 0.2680
C12A C -0.0772(4) -0.5031(6) 0.2568(4)
H17A H -0.0923 -0.4797 0.2381
H18A H -0.1101 -0.5417 0.2649
C13A C -0.0482(5) -0.4767(6) 0.3224(4)
H19A H -0.0193 -0.4361 0.3155
H20A H -0.0280 -0.4964 0.3379
C14A C -0.0905(5) -0.4804(7) 0.3756(5)
H21A H -0.1215 -0.5204 0.3796
H22A H -0.1078 -0.4573 0.3621
C15A C -0.0614(6) -0.4590(8) 0.4429(5)
H23A H -0.0437 -0.4813 0.4562
H24A H -0.0902 -0.4637 0.4748
H25A H -0.0322 -0.4186 0.4398
C16A C -0.0628(4) -0.5812(6) 0.1182(4)
H26A H -0.0430 -0.5693 0.0761
H27A H -0.0586 -0.6133 0.1344
C17A C -0.1278(4) -0.6027(6) 0.1076(4)
H28A H -0.1485 -0.6199 0.1483
H29A H -0.1324 -0.5694 0.0977
C18A C -0.1553(4) -0.6468(6) 0.0528(4)
H30A H -0.1972 -0.6642 0.0553
H31A H -0.1459 -0.6774 0.0590
C19A C -0.1346(4) -0.6198(6) -0.0157(4)
H32A H -0.1450 -0.5904 -0.0227
H33A H -0.1527 -0.6495 -0.0487
H34A H -0.0931 -0.6026 -0.0184
Sn1B Sn 0.51006(3) -0.51112(2) 0.18602(2)
O1B O 0.4612(4) -0.5733(2) 0.0994(3)
O2B O 0.3910(3) -0.6488(2) 0.1545(2)
O3B O 0.2225(4) -0.6742(2) 0.0714(3)
O4B O 0.2972(4) -0.6192(2) 0.1398(2)
N1B N 0.3927(4) -0.6392(3) -0.0165(3)
N2B N 0.3030(4) -0.6611(3) -0.0286(3)
C1B C 0.4117(4) -0.6180(3) 0.1054(3)
C2B C 0.3734(4) -0.6341(3) 0.0449(3)
C3B C 0.3172(4) -0.6473(3) 0.0381(3)
C4B C 0.3498(4) -0.6555(3) -0.0595(4)
H1B H 0.3520 -0.6620 -0.1042
C5B C 0.4510(6) -0.6282(4) -0.0336(4)
H2B H 0.4530 -0.6334 -0.0802
H3B H 0.4589 -0.6549 -0.0101
H4B H 0.4793 -0.5890 -0.0217
C6B C 0.2474(6) -0.6775(4) -0.0623(4)
H5B H 0.2512 -0.6828 -0.1085
H6B H 0.2380 -0.6473 -0.0564
H7B H 0.2170 -0.7132 -0.0439
C7B C 0.2764(5) -0.6458(3) 0.0882(3)
C8B C 0.4428(6) -0.4888(4) 0.1764(4)
H8B H 0.4494 -0.4683 0.1348
H9B H 0.4063 -0.5250 0.1722
C9B C 0.4341(6) -0.4531(4) 0.2281(4)
H10B H 0.4700 -0.4162 0.2334
H11B H 0.4253 -0.4734 0.2700
C10B C 0.3848(6) -0.4415(4) 0.2097(5)
H12B H 0.3950 -0.4196 0.1688
H13B H 0.3498 -0.4786 0.2015
C11B C 0.3710(7) -0.4087(5) 0.2610(6)
H14B H 0.3604 -0.4301 0.3017
H15B H 0.3392 -0.4041 0.2459
H16B H 0.4045 -0.3711 0.2680
C12B C 0.5031(6) -0.5741(4) 0.2568(4)
H17B H 0.4797 -0.6126 0.2381
H18B H 0.5417 -0.5684 0.2649
C13B C 0.4767(6) -0.5715(4) 0.3224(4)
H19B H 0.4361 -0.5832 0.3155
H20B H 0.4964 -0.5316 0.3379
C14B C 0.4804(7) -0.6101(5) 0.3756(5)
H21B H 0.5204 -0.6011 0.3796
H22B H 0.4573 -0.6505 0.3621
C15B C 0.4590(8) -0.6024(5) 0.4429(5)
H23B H 0.4813 -0.5624 0.4562
H24B H 0.4637 -0.6265 0.4748
H25B H 0.4186 -0.6136 0.4398
C16B C 0.5812(6) -0.4816(4) 0.1182(4)
H26B H 0.5693 -0.4737 0.0761
H27B H 0.6133 -0.4453 0.1344
C17B C 0.6027(6) -0.5251(4) 0.1076(4)
H28B H 0.6199 -0.5286 0.1483
H29B H 0.5694 -0.5630 0.0977
C18B C 0.6468(6) -0.5085(5) 0.0528(4)
H30B H 0.6642 -0.5330 0.0553
H31B H 0.6774 -0.4685 0.0590
C19B C 0.6198(6) -0.5148(4) -0.0157(4)
H32B H 0.5904 -0.5546 -0.0227
H33B H 0.6495 -0.5032 -0.0487
H34B H 0.6026 -0.4905 -0.0184
Sn1O Sn 0.15555(2) -0.68785(2) 0.14731(2)
O1O O 0.0934(2) -0.7012(3) 0.2339(3)
O2O O 0.0179(2) -0.7065(2) 0.1788(2)
O3O O -0.0075(2) -0.5634(3) 0.2619(3)
O4O O 0.0475(2) -0.5831(3) 0.1935(2)
N1O N 0.0275(3) -0.6986(3) 0.3498(3)
N2O N 0.0056(3) -0.6308(3) 0.3619(3)
C1O C 0.0487(3) -0.6964(3) 0.2279(3)
C2O C 0.0326(3) -0.6742(3) 0.2884(3)
C3O C 0.0194(3) -0.6312(3) 0.2952(3)
C4O C 0.0112(3) -0.6720(3) 0.3928(4)
H1O H 0.0047 -0.6807 0.4375
C5O C 0.0385(4) -0.7459(4) 0.3669(4)
H2O H 0.0333 -0.7531 0.4135
H3O H 0.0118 -0.7805 0.3434
H4O H 0.0777 -0.7350 0.3550
C6O C -0.0108(4) -0.5916(4) 0.3956(4)
H5O H -0.0161 -0.6007 0.4418
H6O H 0.0194 -0.5520 0.3897
H7O H -0.0465 -0.5969 0.3772
C7O C 0.0209(3) -0.5889(4) 0.2451(3)
C8O C 0.1779(4) -0.5983(4) 0.1569(4)
H8O H 0.1984 -0.5844 0.1985
H9O H 0.1417 -0.5980 0.1611
C9O C 0.2136(4) -0.5539(4) 0.1052(4)
H10O H 0.2505 -0.5529 0.0999
H11O H 0.1933 -0.5654 0.0633
C10O C 0.2252(4) -0.4930(4) 0.1236(5)
H12O H 0.2471 -0.4813 0.1645
H13O H 0.1881 -0.4951 0.1318
C11O C 0.2580(5) -0.4464(5) 0.0723(6)
H14O H 0.2366 -0.4572 0.0316
H15O H 0.2626 -0.4100 0.0874
H16O H 0.2956 -0.4423 0.0653
C12O C 0.0926(4) -0.7439(4) 0.0765(4)
H17O H 0.0541 -0.7590 0.0952
H18O H 0.0983 -0.7768 0.0684
C13O C 0.0952(4) -0.7149(5) 0.0109(4)
H19O H 0.0835 -0.6860 0.0178
H20O H 0.1351 -0.6947 -0.0046
C14O C 0.0566(5) -0.7572(5) -0.0423(5)
H21O H 0.0656 -0.7882 -0.0463
H22O H 0.0162 -0.7745 -0.0288
C15O C 0.0643(5) -0.7281(6) -0.1096(5)
H23O H 0.1043 -0.7104 -0.1229
H24O H 0.0402 -0.7569 -0.1415
H25O H 0.0531 -0.6989 -0.1065
C16O C 0.1851(4) -0.7295(4) 0.2151(4)
H26O H 0.1930 -0.7097 0.2572
H27O H 0.2214 -0.7253 0.1989
C17O C 0.1416(4) -0.7945(4) 0.2257(4)
H28O H 0.1381 -0.8152 0.1850
H29O H 0.1037 -0.7991 0.2356
C18O C 0.1582(5) -0.8220(4) 0.2805(4)
H30O H 0.1337 -0.8639 0.2780
H31O H 0.1982 -0.8126 0.2743
C19O C 0.1519(4) -0.8013(4) 0.3490(4)
H32O H 0.1121 -0.8117 0.3560
H33O H 0.1635 -0.8194 0.3820
H34O H 0.1762 -0.7598 0.3517
O5 O 0.7010(10) 0.2490(9) 0.1725(11)
H35 H 0.6845 0.2411 0.2083
C20 C 0.7118(12) 0.2019(10) 0.1528(14)
H36 H 0.7457 0.2064 0.1752
H37 H 0.7180 0.2035 0.1060
H38 H 0.6788 0.1650 0.1642
loop_
_geom_bond_atom_site_label_1
_geom_bond_atom_site_label_2
_geom_bond_site_symmetry_1
_geom_bond_site_symmetry_2
Sn1 O1 1_555 1_555
O1 C1 1_555 1_555
O2 C1 1_555 1_555
O3 C7 1_555 1_555
O4 C7 1_555 1_555
N1 C2 1_555 1_555
N2 C3 1_555 1_555
C1 C2 1_555 1_555
C2 C3 1_555 1_555
C3 C7 1_555 1_555
C4 N1 1_555 1_555
H1 C4 1_555 1_555
C5 N1 1_555 1_555
H2 C5 1_555 1_555
H3 C5 1_555 1_555
H4 C5 1_555 1_555
C6 N2 1_555 1_555
H5 C6 1_555 1_555
H6 C6 1_555 1_555
H7 C6 1_555 1_555
C8 Sn1 1_555 1_555
H8 C8 1_555 1_555
H9 C8 1_555 1_555
C9 C8 1_555 1_555
H10 C9 1_555 1_555
H11 C9 1_555 1_555
C10 C9 1_555 1_555
H12 C10 1_555 1_555
H13 C10 1_555 1_555
C11 C10 1_555 1_555
H14 C11 1_555 1_555
H15 C11 1_555 1_555
H16 C11 1_555 1_555
C12 Sn1 1_555 1_555
H17 C12 1_555 1_555
H18 C12 1_555 1_555
C13 C12 1_555 1_555
H19 C13 1_555 1_555
H20 C13 1_555 1_555
C14 C13 1_555 1_555
H21 C14 1_555 1_555
H22 C14 1_555 1_555
C15 C14 1_555 1_555
H23 C15 1_555 1_555
H24 C15 1_555 1_555
H25 C15 1_555 1_555
C16 Sn1 1_555 1_555
H26 C16 1_555 1_555
H27 C16 1_555 1_555
C17 C16 1_555 1_555
H28 C17 1_555 1_555
H29 C17 1_555 1_555
C18 C17 1_555 1_555
H30 C18 1_555 1_555
H31 C18 1_555 1_555
C19 C18 1_555 1_555
H32 C19 1_555 1_555
H33 C19 1_555 1_555
H34 C19 1_555 1_555
O5 H35 1_555 1_555
C20 O5 1_555 1_555
H36 C20 1_555 1_555
H37 C20 1_555 1_555
H38 C20 1_555 1_555
Sn1P O3 1_555 1_555
O1P Sn1P 1_555 1_555
O2P C1P 1_555 1_555
O3P C7P 1_555 1_555
O4P C7P 1_555 1_555
N1P C2P 1_555 1_555
N2P C3P 1_555 1_555
C1P O1P 1_555 1_555
C2P C1P 1_555 1_555
C3P C2P 1_555 1_555
C4P N1P 1_555 1_555
H1P C4P 1_555 1_555
C5P N1P 1_555 1_555
H2P C5P 1_555 1_555
H3P C5P 1_555 1_555
H4P C5P 1_555 1_555
C6P N2P 1_555 1_555
H5P C6P 1_555 1_555
H6P C6P 1_555 1_555
H7P C6P 1_555 1_555
C7P C3P 1_555 1_555
C8P Sn1P 1_555 1_555
H8P C8P 1_555 1_555
H9P C8P 1_555 1_555
C9P C8P 1_555 1_555
H10P C9P 1_555 1_555
H11P C9P 1_555 1_555
C10P C9P 1_555 1_555
H12P C10P 1_555 1_555
H13P C10P 1_555 1_555
C11P C10P 1_555 1_555
H14P C11P 1_555 1_555
H15P C11P 1_555 1_555
H16P C11P 1_555 1_555
C12P Sn1P 1_555 1_555
H17P C12P 1_555 1_555
H18P C12P 1_555 1_555
C13P C12P 1_555 1_555
H19P C13P 1_555 1_555
H20P C13P 1_555 1_555
C14P C13P 1_555 1_555
H21P C14P 1_555 1_555
H22P C14P 1_555 1_555
C15P C14P 1_555 1_555
H23P C15P 1_555 1_555
H24P C15P 1_555 1_555
H25P C15P 1_555 1_555
C16P Sn1P 1_555 1_555
H26P C16P 1_555 1_555
H27P C16P 1_555 1_555
C17P C16P 1_555 1_555
H28P C17P 1_555 1_555
H29P C17P 1_555 1_555
C18P C17P 1_555 1_555
H30P C18P 1_555 1_555
H31P C18P 1_555 1_555
C19P C18P 1_555 1_555
H32P C19P 1_555 1_555
H33P C19P 1_555 1_555
H34P C19P 1_555 1_555
Sn1Q O1Q 1_555 1_555
O1Q C1Q 1_555 1_555
O2Q C1Q 1_555 1_555
O3Q Sn1 1_555 1_555
O4Q C7Q 1_555 1_555
N1Q C2Q 1_555 1_555
N2Q C3Q 1_555 1_555
C1Q C2Q 1_555 1_555
C2Q C3Q 1_555 1_555
C3Q C7Q 1_555 1_555
C4Q N1Q 1_555 1_555
H1Q C4Q 1_555 1_555
C5Q N1Q 1_555 1_555
H2Q C5Q 1_555 1_555
H3Q C5Q 1_555 1_555
H4Q C5Q 1_555 1_555
C6Q N2Q 1_555 1_555
H5Q C6Q 1_555 1_555
H6Q C6Q 1_555 1_555
H7Q C6Q 1_555 1_555
C7Q O3Q 1_555 1_555
C8Q Sn1Q 1_555 1_555
H8Q C8Q 1_555 1_555
H9Q C8Q 1_555 1_555
C9Q C8Q 1_555 1_555
H10Q C9Q 1_555 1_555
H11Q C9Q 1_555 1_555
C10Q C9Q 1_555 1_555
H12Q C10Q 1_555 1_555
H13Q C10Q 1_555 1_555
C11Q C10Q 1_555 1_555
H14Q C11Q 1_555 1_555
H15Q C11Q 1_555 1_555
H16Q C11Q 1_555 1_555
C12Q Sn1Q 1_555 1_555
H17Q C12Q 1_555 1_555
H18Q C12Q 1_555 1_555
C13Q C12Q 1_555 1_555
H19Q C13Q 1_555 1_555
H20Q C13Q 1_555 1_555
C14Q C13Q 1_555 1_555
H21Q C14Q 1_555 1_555
H22Q C14Q 1_555 1_555
C15Q C14Q 1_555 1_555
H23Q C15Q 1_555 1_555
H24Q C15Q 1_555 1_555
H25Q C15Q 1_555 1_555
C16Q Sn1Q 1_555 1_555
H26Q C16Q 1_555 1_555
H27Q C16Q 1_555 1_555
C17Q C16Q 1_555 1_555
H28Q C17Q 1_555 1_555
H29Q C17Q 1_555 1_555
C18Q C17Q 1_555 1_555
H30Q C18Q 1_555 1_555
H31Q C18Q 1_555 1_555
C19Q C18Q 1_555 1_555
H32Q C19Q 1_555 1_555
H33Q C19Q 1_555 1_555
H34Q C19Q 1_555 1_555
Sn1A O1A 1_555 1_555
O1A C1A 1_555 1_555
O2A C1A 1_555 1_555
O3A Sn1Q 1_555 1_555
O4A C7A 1_555 1_555
N1A C2A 1_555 1_555
N2A C3A 1_555 1_555
C1A C2A 1_555 1_555
C2A C3A 1_555 1_555
C3A C7A 1_555 1_555
C4A N1A 1_555 1_555
H1A C4A 1_555 1_555
C5A N1A 1_555 1_555
H2A C5A 1_555 1_555
H3A C5A 1_555 1_555
H4A C5A 1_555 1_555
C6A N2A 1_555 1_555
H5A C6A 1_555 1_555
H6A C6A 1_555 1_555
H7A C6A 1_555 1_555
C7A O3A 1_555 1_555
C8A Sn1A 1_555 1_555
H8A C8A 1_555 1_555
H9A C8A 1_555 1_555
C9A C8A 1_555 1_555
H10A C9A 1_555 1_555
H11A C9A 1_555 1_555
C10A C9A 1_555 1_555
H12A C10A 1_555 1_555
H13A C10A 1_555 1_555
C11A C10A 1_555 1_555
H14A C11A 1_555 1_555
H15A C11A 1_555 1_555
H16A C11A 1_555 1_555
C12A Sn1A 1_555 1_555
H17A C12A 1_555 1_555
H18A C12A 1_555 1_555
C13A C12A 1_555 1_555
H19A C13A 1_555 1_555
H20A C13A 1_555 1_555
C14A C13A 1_555 1_555
H21A C14A 1_555 1_555
H22A C14A 1_555 1_555
C15A C14A 1_555 1_555
H23A C15A 1_555 1_555
H24A C15A 1_555 1_555
H25A C15A 1_555 1_555
C16A Sn1A 1_555 1_555
H26A C16A 1_555 1_555
H27A C16A 1_555 1_555
C17A C16A 1_555 1_555
H28A C17A 1_555 1_555
H29A C17A 1_555 1_555
C18A C17A 1_555 1_555
H30A C18A 1_555 1_555
H31A C18A 1_555 1_555
C19A C18A 1_555 1_555
H32A C19A 1_555 1_555
H33A C19A 1_555 1_555
H34A C19A 1_555 1_555
Sn1B O3P 1_555 1_555
O1B Sn1B 1_555 1_555
O2B C1B 1_555 1_555
O3B C7B 1_555 1_555
O4B C7B 1_555 1_555
N1B C2B 1_555 1_555
N2B C3B 1_555 1_555
C1B O1B 1_555 1_555
C2B C1B 1_555 1_555
C3B C2B 1_555 1_555
C4B N1B 1_555 1_555
H1B C4B 1_555 1_555
C5B N1B 1_555 1_555
H2B C5B 1_555 1_555
H3B C5B 1_555 1_555
H4B C5B 1_555 1_555
C6B N2B 1_555 1_555
H5B C6B 1_555 1_555
H6B C6B 1_555 1_555
H7B C6B 1_555 1_555
C7B C3B 1_555 1_555
C8B Sn1B 1_555 1_555
H8B C8B 1_555 1_555
H9B C8B 1_555 1_555
C9B C8B 1_555 1_555
H10B C9B 1_555 1_555
H11B C9B 1_555 1_555
C10B C9B 1_555 1_555
H12B C10B 1_555 1_555
H13B C10B 1_555 1_555
C11B C10B 1_555 1_555
H14B C11B 1_555 1_555
H15B C11B 1_555 1_555
H16B C11B 1_555 1_555
C12B Sn1B 1_555 1_555
H17B C12B 1_555 1_555
H18B C12B 1_555 1_555
C13B C12B 1_555 1_555
H19B C13B 1_555 1_555
H20B C13B 1_555 1_555
C14B C13B 1_555 1_555
H21B C14B 1_555 1_555
H22B C14B 1_555 1_555
C15B C14B 1_555 1_555
H23B C15B 1_555 1_555
H24B C15B 1_555 1_555
H25B C15B 1_555 1_555
C16B Sn1B 1_555 1_555
H26B C16B 1_555 1_555
H27B C16B 1_555 1_555
C17B C16B 1_555 1_555
H28B C17B 1_555 1_555
H29B C17B 1_555 1_555
C18B C17B 1_555 1_555
H30B C18B 1_555 1_555
H31B C18B 1_555 1_555
C19B C18B 1_555 1_555
H32B C19B 1_555 1_555
H33B C19B 1_555 1_555
H34B C19B 1_555 1_555
Sn1O O3B 1_555 1_555
O1O Sn1O 1_555 1_555
O2O C1O 1_555 1_555
O3O Sn1A 1_555 1_555
O4O C7O 1_555 1_555
N1O C2O 1_555 1_555
N2O C3O 1_555 1_555
C1O O1O 1_555 1_555
C2O C1O 1_555 1_555
C3O C2O 1_555 1_555
C4O N1O 1_555 1_555
H1O C4O 1_555 1_555
C5O N1O 1_555 1_555
H2O C5O 1_555 1_555
H3O C5O 1_555 1_555
H4O C5O 1_555 1_555
C6O N2O 1_555 1_555
H5O C6O 1_555 1_555
H6O C6O 1_555 1_555
H7O C6O 1_555 1_555
C7O O3O 1_555 1_555
C8O Sn1O 1_555 1_555
H8O C8O 1_555 1_555
H9O C8O 1_555 1_555
C9O C8O 1_555 1_555
H10O C9O 1_555 1_555
H11O C9O 1_555 1_555
C10O C9O 1_555 1_555
H12O C10O 1_555 1_555
H13O C10O 1_555 1_555
C11O C10O 1_555 1_555
H14O C11O 1_555 1_555
H15O C11O 1_555 1_555
H16O C11O 1_555 1_555
C12O Sn1O 1_555 1_555
H17O C12O 1_555 1_555
H18O C12O 1_555 1_555
C13O C12O 1_555 1_555
H19O C13O 1_555 1_555
H20O C13O 1_555 1_555
C14O C13O 1_555 1_555
H21O C14O 1_555 1_555
H22O C14O 1_555 1_555
C15O C14O 1_555 1_555
H23O C15O 1_555 1_555
H24O C15O 1_555 1_555
H25O C15O 1_555 1_555
C16O Sn1O 1_555 1_555
H26O C16O 1_555 1_555
H27O C16O 1_555 1_555
C17O C16O 1_555 1_555
H28O C17O 1_555 1_555
H29O C17O 1_555 1_555
C18O C17O 1_555 1_555
H30O C18O 1_555 1_555
H31O C18O 1_555 1_555
C19O C18O 1_555 1_555
H32O C19O 1_555 1_555
H33O C19O 1_555 1_555
H34O C19O 1_555 1_555
N2 C4 1_555 1_555
N2P C4P 1_555 1_555
N2Q C4Q 1_555 1_555
N2A C4A 1_555 1_555
N2B C4B 1_555 1_555
N2O C4O 1_555 1_555
C3O C7O 1_555 1_555

#END
