
#######################################################################
#
#                 Cambridge Crystallographic Data Centre
#                                CCDC 
#
#######################################################################
#
# If this CIF has been generated from an entry in the Cambridge 
# Structural Database, then it will include bibliographic, chemical, 
# crystal, experimental, refinement or atomic coordinate data resulting 
# from the CCDC's data processing and validation procedures.
#
#######################################################################

data_COJFUD
_chemical_formula_moiety         
'C132 H96 Ag9 N24 O12 S12 9+,9(C1 F3 O3 S1 1-),7(C1 H4 O1)'
_chemical_name_systematic        
'bis(\m~6~-1,3,5-tris(4-(1,3-Oxazolin-2-yl)phenyl)-2,4,6-tris(1,3-oxazolin-2-yl)benzene)-bis(\m~3~-hexakis(1,3-thiazol-2-yl)benzene)-nona-silver(i) nonakis(trifluoromethanesulfonate) methanol solvate'
_symmetry_cell_setting           triclinic
_symmetry_space_group_name_H-M   'P -1'
_symmetry_Int_Tables_number      2
_space_group_name_Hall           '-P 1'
loop_
_symmetry_equiv_pos_site_id
_symmetry_equiv_pos_as_xyz
1 x,y,z
2 -x,-y,-z
_cell_length_a                   21.2194(9)
_cell_length_b                   21.3055(8)
_cell_length_c                   24.4632(10)
_cell_angle_alpha                89.325(3)
_cell_angle_beta                 79.310(3)
_cell_angle_gamma                63.263(3)
_cell_volume                     9673.25
_exptl_crystal_colour            yellow
_exptl_crystal_description       platelet
_cell_formula_units_Z            2
_exptl_crystal_recrystallization_method methanol
loop_
_atom_site_label
_atom_site_type_symbol
_atom_site_fract_x
_atom_site_fract_y
_atom_site_fract_z
Ag1 Ag -0.18359(8) 0.83821(6) 0.70855(5)
Ag2 Ag 0.08133(8) 0.88320(6) 0.71912(6)
Ag3 Ag -0.07320(9) 0.81506(6) 0.93335(6)
Ag4 Ag 0.25267(8) 0.68950(6) 0.45394(5)
Ag5 Ag 0.28572(10) 0.56540(6) 0.99897(6)
Ag6 Ag -0.22765(9) 0.50669(6) 0.78173(6)
Ag7 Ag 0.25068(8) 0.35277(6) 0.55057(6)
Ag8 Ag 0.42280(8) 0.37022(6) 0.71852(6)
Ag9 Ag 0.19337(9) 0.27700(6) 0.79263(5)
S1 S -0.3521(3) 1.0104(2) 0.8483(2)
S2 S -0.2739(2) 1.0536(2) 0.7004(2)
S3 S -0.1117(2) 1.0944(2) 0.6927(2)
S4 S -0.0095(3) 1.0686(2) 0.8165(2)
S5 S -0.1117(3) 1.0464(2) 0.9543(2)
S6 S -0.2726(3) 0.9953(2) 0.9692(2)
S7 S 0.4917(2) 0.1842(2) 0.4988(2)
S8 S 0.5820(3) 0.1961(3) 0.6072(2)
S9 S 0.5273(3) 0.1346(2) 0.7581(2)
S10 S 0.3926(3) 0.0772(2) 0.7852(2)
S11 S 0.2711(3) 0.0855(2) 0.6644(2)
S12 S 0.3310(3) 0.1348(2) 0.5222(2)
O1 O 0.0187(6) 0.6663(5) 0.6228(4)
O2 O 0.1145(7) 0.9059(5) 0.5150(4)
O3 O 0.2042(6) 0.6794(5) 0.7774(4)
O4 O 0.1084(7) 0.7703(6) 1.0475(4)
O5 O -0.0404(7) 0.6150(5) 0.8649(4)
O6 O -0.3547(8) 0.7334(7) 0.7926(8)
O7 O 0.3706(7) 0.4637(5) 0.4136(4)
O8 O 0.2727(7) 0.5753(5) 0.6777(4)
O9 O 0.4633(7) 0.3722(6) 0.9141(5)
O10 O 0.1240(7) 0.4833(5) 0.8721(4)
O11 O -0.0679(7) 0.2861(5) 0.7531(4)
O12 O 0.0400(6) 0.5014(5) 0.6429(5)
N1 N -0.2678(9) 0.9126(6) 0.7715(5)
N2 N -0.1531(8) 0.9470(6) 0.6679(6)
N3 N 0.0005(9) 0.9789(6) 0.6972(5)
N4 N 0.0390(11) 0.9392(8) 0.8387(5)
N5 N -0.0813(8) 0.9164(7) 0.9514(5)
N6 N -0.2284(8) 0.8823(7) 0.9066(6)
N7 N -0.0933(10) 0.7568(7) 0.6555(5)
N8 N 0.2025(8) 0.8010(7) 0.4735(5)
N9 N 0.1548(9) 0.7883(6) 0.7486(5)
N10 N 0.1994(9) 0.6584(7) 1.0364(6)
N11 N -0.0730(8) 0.7187(7) 0.9104(5)
N12 N -0.3022(11) 0.6145(8) 0.7833(7)
N13 N 0.3132(9) 0.5831(7) 0.4228(5)
N14 N 0.3648(9) 0.4743(7) 0.6947(5)
N15 N 0.3816(10) 0.4786(9) 0.9641(6)
N16 N 0.1619(7) 0.3670(6) 0.8455(5)
N17 N -0.1601(9) 0.3965(7) 0.7684(6)
N18 N 0.1408(9) 0.4202(7) 0.5877(6)
N19 N 0.3601(8) 0.2823(7) 0.5171(5)
N20 N 0.4667(8) 0.3150(7) 0.6063(6)
N21 N 0.4711(8) 0.2657(7) 0.7458(5)
N22 N 0.3451(9) 0.2094(8) 0.8131(6)
N23 N 0.2162(9) 0.1923(7) 0.7355(5)
N24 N 0.2244(10) 0.2313(7) 0.5901(5)
C1 C -0.2043(10) 0.9666(7) 0.8106(6)
C2 C -0.1649(12) 0.9832(9) 0.7651(7)
C3 C -0.1052(12) 0.9939(8) 0.7713(8)
C4 C -0.0856(10) 0.9865(7) 0.8231(6)
C5 C -0.1228(12) 0.9729(9) 0.8665(8)
C6 C -0.1795(11) 0.9596(8) 0.8639(6)
C7 C -0.2682(10) 0.9591(8) 0.8059(7)
C8 C -0.3901(11) 0.9690(9) 0.8182(7)
C9 C -0.3368(13) 0.9181(9) 0.7777(7)
C10 C -0.1909(10) 0.9913(8) 0.7118(7)
C11 C -0.2544(11) 1.0173(8) 0.6319(7)
C12 C -0.1868(12) 0.9594(9) 0.6231(7)
C13 C -0.0680(10) 1.0129(7) 0.7219(6)
C14 C -0.0314(11) 1.0757(9) 0.6491(6)
C15 C 0.0209(11) 1.0133(8) 0.6544(7)
C16 C -0.0208(14) 0.9951(9) 0.8258(6)
C17 C 0.0736(11) 1.0245(11) 0.8296(9)
C18 C 0.0909(13) 0.9580(9) 0.8421(8)
C19 C -0.1042(11) 0.9687(9) 0.9219(8)
C20 C -0.0822(11) 1.0008(9) 1.0082(7)
C21 C -0.0667(11) 0.9316(9) 1.0007(7)
C22 C -0.2201(12) 0.9389(9) 0.9087(7)
C23 C -0.2992(12) 0.9339(13) 0.9892(9)
C24 C -0.2727(12) 0.8808(12) 0.9520(9)
C25 C -0.0043(12) 0.7143(8) 0.7161(7)
C26 C 0.0564(11) 0.7279(8) 0.7131(8)
C27 C 0.0847(11) 0.7224(8) 0.7624(7)
C28 C 0.0541(9) 0.7066(7) 0.8104(6)
C29 C -0.0046(11) 0.6946(8) 0.8138(8)
C30 C -0.0348(11) 0.6984(8) 0.7661(7)
C31 C -0.0317(13) 0.7139(9) 0.6633(8)
C32 C -0.0152(10) 0.6828(9) 0.5728(7)
C33 C -0.0926(11) 0.7347(8) 0.5969(6)
C34 C 0.0812(10) 0.7536(7) 0.6610(6)
C35 C 0.0345(11) 0.8116(8) 0.6404(7)
C36 C 0.0556(10) 0.8414(8) 0.5937(7)
C37 C 0.1257(10) 0.8074(8) 0.5673(7)
C38 C 0.1762(10) 0.7439(8) 0.5855(6)
C39 C 0.1529(9) 0.7189(8) 0.6309(6)
C40 C 0.1515(11) 0.8352(9) 0.5160(7)
C41 C 0.1412(10) 0.9235(8) 0.4615(6)
C42 C 0.2068(11) 0.8526(8) 0.4350(7)
C43 C 0.1468(12) 0.7348(9) 0.7603(7)
C44 C 0.2526(12) 0.7089(11) 0.7891(9)
C45 C 0.2290(10) 0.7772(8) 0.7565(7)
C46 C 0.0838(9) 0.7039(8) 0.8638(6)
C47 C 0.0826(10) 0.7661(7) 0.8837(7)
C48 C 0.1041(10) 0.7691(8) 0.9344(6)
C49 C 0.1290(10) 0.7087(8) 0.9620(6)
C50 C 0.1338(11) 0.6432(9) 0.9404(7)
C51 C 0.1094(9) 0.6436(8) 0.8903(7)
C52 C 0.1486(11) 0.7097(9) 1.0156(7)
C53 C 0.1253(12) 0.7617(11) 1.1022(8)
C54 C 0.1964(16) 0.6857(11) 1.0923(8)
C55 C -0.0408(10) 0.6774(8) 0.8665(7)
C56 C -0.0783(10) 0.6116(9) 0.9219(6)
C57 C -0.1024(13) 0.6802(10) 0.9498(8)
C58 C -0.1034(11) 0.6892(8) 0.7716(7)
C59 C -0.1649(11) 0.7376(8) 0.8071(7)
C60 C -0.2299(10) 0.7330(8) 0.8094(7)
C61 C -0.2275(11) 0.6773(9) 0.7771(8)
C62 C -0.1641(14) 0.6268(9) 0.7445(7)
C63 C -0.1016(11) 0.6349(8) 0.7395(7)
C64 C -0.2924(13) 0.6675(10) 0.7849(9)
C65 C -0.4170(13) 0.7124(13) 0.8031(19)
C66 C -0.3788(14) 0.6331(10) 0.7835(14)
C67 C 0.2027(11) 0.4828(8) 0.6638(8)
C68 C 0.2398(11) 0.4845(8) 0.7073(8)
C69 C 0.2238(11) 0.4654(7) 0.7610(6)
C70 C 0.1653(10) 0.4475(8) 0.7718(7)
C71 C 0.1255(9) 0.4489(8) 0.7302(6)
C72 C 0.1491(10) 0.4635(7) 0.6795(6)
C73 C 0.2307(10) 0.4963(8) 0.6072(6)
C74 C 0.3052(9) 0.4468(9) 0.5823(7)
C75 C 0.3315(10) 0.4578(9) 0.5262(7)
C76 C 0.2910(10) 0.5153(9) 0.4990(6)
C77 C 0.2220(9) 0.5616(7) 0.5264(6)
C78 C 0.1898(9) 0.5512(7) 0.5788(6)
C79 C 0.3234(11) 0.5243(8) 0.4450(7)
C80 C 0.3975(13) 0.4834(8) 0.3593(7)
C81 C 0.3595(11) 0.5644(10) 0.3668(7)
C82 C 0.2964(10) 0.5091(8) 0.6936(7)
C83 C 0.3409(11) 0.5810(9) 0.6549(7)
C84 C 0.3977(10) 0.5194(8) 0.6761(8)
C85 C 0.2679(10) 0.4600(8) 0.8037(6)
C86 C 0.3070(10) 0.3926(9) 0.8186(7)
C87 C 0.3461(11) 0.3851(8) 0.8578(8)
C88 C 0.3531(10) 0.4430(9) 0.8832(7)
C89 C 0.3134(9) 0.5101(7) 0.8634(7)
C90 C 0.2714(10) 0.5174(9) 0.8239(7)
C91 C 0.3992(14) 0.4335(13) 0.9232(9)
C92 C 0.4941(11) 0.3747(11) 0.9618(9)
C93 C 0.4435(12) 0.4439(9) 0.9953(9)
C94 C 0.1507(9) 0.4298(8) 0.8301(7)
C95 C 0.1280(11) 0.4493(8) 0.9245(6)
C96 C 0.1453(11) 0.3709(8) 0.9079(6)
C97 C 0.0715(11) 0.4254(9) 0.7441(6)
C98 C 0.0852(11) 0.3595(8) 0.7144(7)
C99 C 0.0333(10) 0.3370(8) 0.7237(7)
C100 C -0.0365(10) 0.3819(8) 0.7564(6)
C101 C -0.0478(12) 0.4432(8) 0.7868(7)
C102 C 0.0030(10) 0.4648(8) 0.7804(7)
C103 C -0.0914(13) 0.3569(8) 0.7613(7)
C104 C -0.1320(11) 0.2759(9) 0.7537(7)
C105 C -0.1980(11) 0.3523(9) 0.7637(8)
C106 C 0.1132(11) 0.4605(8) 0.6336(8)
C107 C 0.0143(11) 0.4781(11) 0.5998(7)
C108 C 0.0810(11) 0.4385(10) 0.5554(8)
C109 C 0.3949(12) 0.2171(8) 0.6012(7)
C110 C 0.4363(11) 0.2238(8) 0.6380(9)
C111 C 0.4233(10) 0.2070(8) 0.6929(8)
C112 C 0.3709(13) 0.1851(8) 0.7113(8)
C113 C 0.3256(12) 0.1798(9) 0.6753(10)
C114 C 0.3397(11) 0.1976(8) 0.6187(8)
C115 C 0.4096(8) 0.2326(7) 0.5439(8)
C116 C 0.4581(11) 0.2341(9) 0.4458(7)
C117 C 0.3893(10) 0.2830(9) 0.4606(7)
C118 C 0.4869(11) 0.2496(10) 0.6172(7)
C119 C 0.5984(14) 0.2632(16) 0.5844(10)
C120 C 0.5294(15) 0.3243(12) 0.5863(7)
C121 C 0.4662(10) 0.2090(8) 0.7309(8)
C122 C 0.5547(12) 0.1844(10) 0.7923(8)
C123 C 0.5179(11) 0.2527(9) 0.7799(7)
C124 C 0.3647(10) 0.1611(8) 0.7685(8)
C125 C 0.3781(13) 0.1027(11) 0.8534(8)
C126 C 0.3514(11) 0.1756(11) 0.8617(7)
C127 C 0.2726(10) 0.1572(8) 0.6943(8)
C128 C 0.1956(11) 0.1006(8) 0.7084(7)
C129 C 0.1729(11) 0.1590(10) 0.7416(8)
C130 C 0.2978(12) 0.1922(9) 0.5815(7)
C131 C 0.2441(11) 0.1671(9) 0.5074(8)
C132 C 0.1949(11) 0.2155(9) 0.5477(8)
H1 H -0.4393 0.9787 0.8273
H2 H -0.3469 0.8887 0.7556
H3 H -0.2847 1.0342 0.6055
H4 H -0.1654 0.9305 0.5889
H5 H -0.0250 1.1073 0.6235
H6 H 0.0676 0.9939 0.6313
H7 H 0.1056 1.0447 0.8282
H8 H 0.1351 0.9273 0.8523
H9 H -0.0769 1.0208 1.0405
H10 H -0.0479 0.8978 1.0266
H11 H -0.3300 0.9375 1.0238
H12 H -0.2845 0.8427 0.9570
H13 H 0.0065 0.6651 0.5350
H14 H -0.1324 0.7502 0.5789
H15 H -0.0148 0.8330 0.6585
H16 H 0.0223 0.8835 0.5811
H17 H 0.2248 0.7201 0.5660
H18 H 0.1857 0.6765 0.6434
H19 H 0.1232 0.9679 0.4460
H20 H 0.2413 0.8447 0.4016
H21 H 0.2887 0.6909 0.8109
H22 H 0.2538 0.8042 0.7450
H23 H 0.0673 0.8064 0.8629
H24 H 0.1015 0.8115 0.9490
H25 H 0.1527 0.6015 0.9592
H26 H 0.1109 0.6020 0.8752
H27 H 0.1013 0.7924 1.1353
H28 H 0.2286 0.6638 1.1169
H29 H -0.0851 0.5730 0.9365
H30 H -0.1313 0.6974 0.9861
H31 H -0.1636 0.7730 0.8294
H32 H -0.2738 0.7664 0.8321
H33 H -0.1631 0.5874 0.7259
H34 H -0.0586 0.6039 0.7145
H35 H -0.4667 0.7414 0.8180
H36 H -0.3989 0.6039 0.7741
H37 H 0.3345 0.4097 0.6019
H38 H 0.3782 0.4247 0.5072
H39 H 0.1952 0.6025 0.5089
H40 H 0.1407 0.5815 0.5945
H41 H 0.4302 0.4534 0.3277
H42 H 0.3648 0.5959 0.3407
H43 H 0.3464 0.6156 0.6325
H44 H 0.4452 0.5116 0.6772
H45 H 0.3064 0.3530 0.8017
H46 H 0.3707 0.3393 0.8699
H47 H 0.3156 0.5503 0.8774
H48 H 0.2453 0.5624 0.8110
H49 H 0.5376 0.3395 0.9703
H50 H 0.4489 0.4619 1.0286
H51 H 0.1216 0.4698 0.9606
H52 H 0.1451 0.3353 0.9315
H53 H 0.1295 0.3329 0.6890
H54 H 0.0435 0.2918 0.7085
H55 H -0.0922 0.4694 0.8122
H56 H -0.0065 0.5072 0.8002
H57 H -0.1335 0.2324 0.7491
H58 H -0.2478 0.3663 0.7661
H59 H -0.0335 0.4861 0.5996
H60 H 0.0847 0.4276 0.5171
H61 H 0.4859 0.2276 0.4092
H62 H 0.3631 0.3145 0.4359
H63 H 0.6444 0.2614 0.5725
H64 H 0.5260 0.3682 0.5748
H65 H 0.5891 0.1678 0.8156
H66 H 0.5251 0.2894 0.7947
H67 H 0.3871 0.0715 0.8823
H68 H 0.3387 0.1997 0.8975
H69 H 0.1718 0.0718 0.7098
H70 H 0.1289 0.1769 0.7682
H71 H 0.2335 0.1523 0.4753
H72 H 0.1448 0.2373 0.5479
S13 S 0.2076(3) 0.4073(2) 0.4044(2)
F1 F 0.2174(6) 0.5248(5) 0.3837(4)
F2 F 0.1169(5) 0.5403(5) 0.4346(4)
F3 F 0.1387(6) 0.5125(5) 0.3460(4)
O13 O 0.2347(7) 0.4056(6) 0.4558(4)
O14 O 0.1469(7) 0.3920(5) 0.4083(5)
O15 O 0.2649(7) 0.3748(6) 0.3564(5)
C133 C 0.1668(15) 0.5021(11) 0.3917(11)
S14 S -0.0798(3) 0.7852(2) 1.0964(2)
F4 F -0.1814(6) 0.8919(6) 1.0599(5)
F5 F -0.1990(7) 0.8016(6) 1.0677(5)
F6 F -0.2134(6) 0.8654(5) 1.1408(4)
O16 O -0.0608(7) 0.8339(6) 1.1185(5)
O17 O -0.0473(7) 0.7609(6) 1.0383(5)
O18 O -0.0836(7) 0.7311(6) 1.1317(4)
C134 C -0.1715(14) 0.8383(11) 1.0903(7)
S15 S 0.7466(3) 0.1791(2) 0.8360(2)
F7 F 0.6155(9) 0.2369(11) 0.8971(9)
F8 F 0.6888(13) 0.1408(11) 0.9213(6)
F9 F 0.6975(10) 0.2310(8) 0.9378(5)
O19 O 0.7381(8) 0.2477(6) 0.8208(4)
O20 O 0.7225(7) 0.1428(6) 0.8011(5)
O21 O 0.8141(9) 0.1356(7) 0.8501(6)
C135 C 0.676(2) 0.2033(17) 0.8987(9)
S16 S 0.0836(2) 0.7529(2) 0.4297(2)
F10 F 0.0729(6) 0.6636(4) 0.3652(4)
F11 F -0.0129(6) 0.7056(5) 0.4382(4)
F12 F -0.0131(6) 0.7704(4) 0.3707(4)
O22 O 0.1332(7) 0.7563(6) 0.3821(4)
O23 O 0.1166(7) 0.6991(6) 0.4654(4)
O24 O 0.0319(6) 0.8197(5) 0.4583(4)
C136 C 0.0307(11) 0.7210(10) 0.3992(9)
S17 S -0.4271(3) 0.9964(3) 0.6312(3)
F13 F -0.4966(9) 1.0286(8) 0.5508(6)
F14 F -0.5622(7) 1.0289(6) 0.6304(6)
F15 F -0.4830(7) 0.9293(6) 0.5836(5)
O25 O -0.3593(8) 0.9522(7) 0.5930(6)
O26 O -0.4456(8) 1.0702(6) 0.6360(6)
O27 O -0.4398(10) 0.9659(8) 0.6847(7)
C137 C -0.4929(13) 0.9934(12) 0.5937(10)
S18 S 0.2352(2) 0.9109(2) 0.6443(2)
F16 F 0.3425(5) 0.9118(6) 0.5715(4)
F17 F 0.2716(6) 0.8886(6) 0.5356(2)
F18 F 0.3448(4) 0.8120(4) 0.5783(4)
O28 O 0.2792(4) 0.8935(5) 0.6858(2)
O29 O 0.1951(4) 0.9852(2) 0.6387(3)
O30 O 0.1957(4) 0.8710(4) 0.6431(3)
C138 C 0.3004(3) 0.8803(4) 0.5806(2)
S19 S 0.3766(4) 0.6530(3) 0.9200(3)
F19 F 0.4018(5) 0.7534(4) 0.9523(3)
F20 F 0.4167(6) 0.7397(5) 0.8648(3)
F21 F 0.4943(3) 0.6674(5) 0.9068(4)
O31 O 0.3948(6) 0.6193(5) 0.9701(3)
O32 O 0.3027(3) 0.7050(5) 0.9250(5)
O33 O 0.4066(6) 0.6062(4) 0.8697(3)
C139 C 0.4238(3) 0.7048(3) 0.9103(2)
S20 S 0.2452(2) 0.4393(2) 1.0694(2)
F22 F 0.3323(4) 0.3089(3) 1.0846(3)
F23 F 0.2648(5) 0.3176(3) 1.0286(4)
F24 F 0.3532(4) 0.3392(4) 1.0034(3)
O34 O 0.2959(4) 0.4608(3) 1.0836(3)
O35 O 0.1939(3) 0.4371(3) 1.1163(2)
O36 O 0.2154(4) 0.4695(3) 1.0216(3)
C140 C 0.3004(3) 0.3485(2) 1.0462(2)
S21 S -0.4591(7) 0.8921(6) 1.0140(5)
F25 F -0.4797(12) 0.7868(9) 0.9821(9)
F26 F -0.5748(8) 0.8776(11) 1.0179(10)
F27 F -0.5069(13) 0.8113(11) 1.0693(8)
O37 O -0.3866(7) 0.8414(9) 1.0166(9)
O38 O -0.4960(11) 0.9436(8) 1.0613(7)
O39 O -0.4687(12) 0.9193(10) 0.9605(6)
C141 C -0.5061(8) 0.8400(8) 1.0209(7)
O43 O -0.2635(7) 0.8410(6) 0.6436(5)
C143 C -0.2904(11) 0.7906(9) 0.6426(9)
O44 O -0.1153(7) 0.8752(7) 0.5000(5)
C144 C -0.1429(13) 0.9216(9) 0.4594(7)
O45 O 0.6600(8) 0.3146(7) 0.7402(5)
C145 C 0.6977(12) 0.2612(9) 0.6950(7)
O46 O 0.5207(9) 0.4039(8) 0.7380(6)
C146 C 0.4992(19) 0.4564(14) 0.7818(11)
O47 O 0.0218(9) 0.6011(10) 1.0224(7)
C147 C 0.0583(14) 0.5775(14) 1.0665(10)
O48 O 0.2142(11) 0.8486(9) 0.9131(9)
C148 C 0.2552(18) 0.885(2) 0.9179(17)
O49 O -0.3431(17) 0.4723(13) 0.8355(17)
C149 C -0.3821(16) 0.4442(13) 0.8706(10)
loop_
_geom_bond_atom_site_label_1
_geom_bond_atom_site_label_2
_geom_bond_site_symmetry_1
_geom_bond_site_symmetry_2
Ag1 N1 1_555 1_555
Ag2 N3 1_555 1_555
Ag3 N5 1_555 1_555
Ag4 N8 1_555 1_555
Ag5 N10 1_555 1_555
Ag6 N12 1_555 1_555
Ag7 N18 1_555 1_555
Ag8 N14 1_555 1_555
Ag9 N16 1_555 1_555
S1 C7 1_555 1_555
S2 C10 1_555 1_555
S3 C13 1_555 1_555
S4 C16 1_555 1_555
S5 C19 1_555 1_555
S6 C22 1_555 1_555
S7 C115 1_555 1_555
S8 C118 1_555 1_555
S9 C121 1_555 1_555
S10 C124 1_555 1_555
S11 C127 1_555 1_555
S12 C130 1_555 1_555
S13 O13 1_555 1_555
S14 O16 1_555 1_555
S15 O19 1_555 1_555
S16 O22 1_555 1_555
S17 O25 1_555 1_555
F1 C133 1_555 1_555
F2 C133 1_555 1_555
F3 C133 1_555 1_555
F4 C134 1_555 1_555
F5 C134 1_555 1_555
F6 C134 1_555 1_555
F7 C135 1_555 1_555
F8 C135 1_555 1_555
F9 C135 1_555 1_555
F10 C136 1_555 1_555
F11 C136 1_555 1_555
F12 C136 1_555 1_555
F13 C137 1_555 1_555
F14 C137 1_555 1_555
F15 C137 1_555 1_555
O1 C31 1_555 1_555
O2 C40 1_555 1_555
O3 C43 1_555 1_555
O4 C52 1_555 1_555
O5 C55 1_555 1_555
O6 C64 1_555 1_555
O7 C79 1_555 1_555
O8 C82 1_555 1_555
O9 C91 1_555 1_555
O10 C94 1_555 1_555
O11 C103 1_555 1_555
O12 C106 1_555 1_555
O14 S13 1_555 1_555
O15 S13 1_555 1_555
O17 S14 1_555 1_555
O18 S14 1_555 1_555
O20 S15 1_555 1_555
O21 S15 1_555 1_555
O23 S16 1_555 1_555
O24 S16 1_555 1_555
O26 S17 1_555 1_555
O27 S17 1_555 1_555
N1 C7 1_555 1_555
N2 C10 1_555 1_555
N3 C13 1_555 1_555
N4 C16 1_555 1_555
N5 C19 1_555 1_555
N6 C22 1_555 1_555
N7 Ag1 1_555 1_555
N8 C40 1_555 1_555
N9 Ag2 1_555 1_555
N10 C52 1_555 1_555
N11 Ag3 1_555 1_555
N12 C64 1_555 1_555
N13 Ag4 1_555 1_555
N14 C82 1_555 1_555
N15 Ag5 1_555 1_555
N16 C94 1_555 1_555
N17 Ag6 1_555 1_555
N18 C106 1_555 1_555
N19 Ag7 1_555 1_555
N20 C118 1_555 1_555
N21 Ag8 1_555 1_555
N22 C124 1_555 1_555
N23 Ag9 1_555 1_555
N24 C130 1_555 1_555
C1 C2 1_555 1_555
C2 C3 1_555 1_555
C3 C4 1_555 1_555
C4 C5 1_555 1_555
C5 C6 1_555 1_555
C6 C1 1_555 1_555
C7 C1 1_555 1_555
C8 S1 1_555 1_555
C9 N1 1_555 1_555
C10 C2 1_555 1_555
C11 S2 1_555 1_555
C12 N2 1_555 1_555
C13 C3 1_555 1_555
C14 S3 1_555 1_555
C15 N3 1_555 1_555
C16 C4 1_555 1_555
C17 S4 1_555 1_555
C18 N4 1_555 1_555
C19 C5 1_555 1_555
C20 S5 1_555 1_555
C21 N5 1_555 1_555
C22 C6 1_555 1_555
C23 S6 1_555 1_555
C24 N6 1_555 1_555
C25 C26 1_555 1_555
C26 C27 1_555 1_555
C27 C28 1_555 1_555
C28 C29 1_555 1_555
C29 C30 1_555 1_555
C30 C25 1_555 1_555
C31 N7 1_555 1_555
C32 O1 1_555 1_555
C33 N7 1_555 1_555
C34 C26 1_555 1_555
C35 C34 1_555 1_555
C36 C35 1_555 1_555
C37 C36 1_555 1_555
C38 C37 1_555 1_555
C39 C34 1_555 1_555
C40 C37 1_555 1_555
C41 O2 1_555 1_555
C42 N8 1_555 1_555
C43 N9 1_555 1_555
C44 O3 1_555 1_555
C45 N9 1_555 1_555
C46 C28 1_555 1_555
C47 C46 1_555 1_555
C48 C47 1_555 1_555
C49 C48 1_555 1_555
C50 C49 1_555 1_555
C51 C46 1_555 1_555
C52 C49 1_555 1_555
C53 O4 1_555 1_555
C54 N10 1_555 1_555
C55 N11 1_555 1_555
C56 O5 1_555 1_555
C57 N11 1_555 1_555
C58 C30 1_555 1_555
C59 C58 1_555 1_555
C60 C59 1_555 1_555
C61 C60 1_555 1_555
C62 C61 1_555 1_555
C63 C58 1_555 1_555
C64 C61 1_555 1_555
C65 O6 1_555 1_555
C66 N12 1_555 1_555
C67 C68 1_555 1_555
C68 C69 1_555 1_555
C69 C70 1_555 1_555
C70 C71 1_555 1_555
C71 C72 1_555 1_555
C72 C67 1_555 1_555
C73 C67 1_555 1_555
C74 C73 1_555 1_555
C75 C74 1_555 1_555
C76 C75 1_555 1_555
C77 C76 1_555 1_555
C78 C73 1_555 1_555
C79 N13 1_555 1_555
C80 O7 1_555 1_555
C81 N13 1_555 1_555
C82 C68 1_555 1_555
C83 O8 1_555 1_555
C84 N14 1_555 1_555
C85 C69 1_555 1_555
C86 C85 1_555 1_555
C87 C86 1_555 1_555
C88 C87 1_555 1_555
C89 C88 1_555 1_555
C90 C85 1_555 1_555
C91 N15 1_555 1_555
C92 O9 1_555 1_555
C93 N15 1_555 1_555
C94 C70 1_555 1_555
C95 O10 1_555 1_555
C96 N16 1_555 1_555
C97 C71 1_555 1_555
C98 C97 1_555 1_555
C99 C98 1_555 1_555
C100 C99 1_555 1_555
C101 C100 1_555 1_555
C102 C97 1_555 1_555
C103 N17 1_555 1_555
C104 O11 1_555 1_555
C105 N17 1_555 1_555
C106 C72 1_555 1_555
C107 O12 1_555 1_555
C108 N18 1_555 1_555
C109 C110 1_555 1_555
C110 C111 1_555 1_555
C111 C112 1_555 1_555
C112 C113 1_555 1_555
C113 C114 1_555 1_555
C114 C109 1_555 1_555
C115 N19 1_555 1_555
C116 S7 1_555 1_555
C117 N19 1_555 1_555
C118 C110 1_555 1_555
C119 S8 1_555 1_555
C120 N20 1_555 1_555
C121 N21 1_555 1_555
C122 S9 1_555 1_555
C123 N21 1_555 1_555
C124 C112 1_555 1_555
C125 S10 1_555 1_555
C126 N22 1_555 1_555
C127 N23 1_555 1_555
C128 S11 1_555 1_555
C129 N23 1_555 1_555
C130 C114 1_555 1_555
C131 S12 1_555 1_555
C132 N24 1_555 1_555
C133 S13 1_555 1_555
C134 S14 1_555 1_555
C135 S15 1_555 1_555
C136 S16 1_555 1_555
C137 S17 1_555 1_555
S18 O28 1_555 1_555
F16 C138 1_555 1_555
F17 C138 1_555 1_555
F18 C138 1_555 1_555
O29 S18 1_555 1_555
O30 S18 1_555 1_555
C138 S18 1_555 1_555
S19 O31 1_555 1_555
F19 C139 1_555 1_555
F20 C139 1_555 1_555
F21 C139 1_555 1_555
O32 S19 1_555 1_555
O33 S19 1_555 1_555
C139 S19 1_555 1_555
S20 O34 1_555 1_555
F22 C140 1_555 1_555
F23 C140 1_555 1_555
F24 C140 1_555 1_555
O35 S20 1_555 1_555
O36 S20 1_555 1_555
C140 S20 1_555 1_555
S21 O37 1_555 1_555
F25 C141 1_555 1_555
F26 C141 1_555 1_555
F27 C141 1_555 1_555
O38 S21 1_555 1_555
O39 S21 1_555 1_555
C141 S21 1_555 1_555
O43 C143 1_555 1_555
O44 C144 1_555 1_555
O45 C145 1_555 1_555
O46 C146 1_555 1_555
O47 C147 1_555 1_555
O48 C148 1_555 1_555
O49 C149 1_555 1_555
H1 C8 1_555 1_555
H2 C9 1_555 1_555
H3 C11 1_555 1_555
H4 C12 1_555 1_555
H5 C14 1_555 1_555
H6 C15 1_555 1_555
H7 C17 1_555 1_555
H8 C18 1_555 1_555
H9 C20 1_555 1_555
H10 C21 1_555 1_555
H11 C23 1_555 1_555
H12 C24 1_555 1_555
H13 C32 1_555 1_555
H14 C33 1_555 1_555
H15 C35 1_555 1_555
H16 C36 1_555 1_555
H17 C38 1_555 1_555
H18 C39 1_555 1_555
H19 C41 1_555 1_555
H20 C42 1_555 1_555
H21 C44 1_555 1_555
H22 C45 1_555 1_555
H23 C47 1_555 1_555
H24 C48 1_555 1_555
H25 C50 1_555 1_555
H26 C51 1_555 1_555
H27 C53 1_555 1_555
H28 C54 1_555 1_555
H29 C56 1_555 1_555
H30 C57 1_555 1_555
H31 C59 1_555 1_555
H32 C60 1_555 1_555
H33 C62 1_555 1_555
H34 C63 1_555 1_555
H35 C65 1_555 1_555
H36 C66 1_555 1_555
H37 C74 1_555 1_555
H38 C75 1_555 1_555
H39 C77 1_555 1_555
H40 C78 1_555 1_555
H41 C80 1_555 1_555
H42 C81 1_555 1_555
H43 C83 1_555 1_555
H44 C84 1_555 1_555
H45 C86 1_555 1_555
H46 C87 1_555 1_555
H47 C89 1_555 1_555
H48 C90 1_555 1_555
H49 C92 1_555 1_555
H50 C93 1_555 1_555
H51 C95 1_555 1_555
H52 C96 1_555 1_555
H53 C98 1_555 1_555
H54 C99 1_555 1_555
H55 C101 1_555 1_555
H56 C102 1_555 1_555
H57 C104 1_555 1_555
H58 C105 1_555 1_555
H59 C107 1_555 1_555
H60 C108 1_555 1_555
H61 C116 1_555 1_555
H62 C117 1_555 1_555
H63 C119 1_555 1_555
H64 C120 1_555 1_555
H65 C122 1_555 1_555
H66 C123 1_555 1_555
H67 C125 1_555 1_555
H68 C126 1_555 1_555
H69 C128 1_555 1_555
H70 C129 1_555 1_555
H71 C131 1_555 1_555
H72 C132 1_555 1_555
C8 C9 1_555 1_555
C11 C12 1_555 1_555
C14 C15 1_555 1_555
C17 C18 1_555 1_555
C20 C21 1_555 1_555
C23 C24 1_555 1_555
C25 C31 1_555 1_555
C27 C43 1_555 1_555
C29 C55 1_555 1_555
C32 C33 1_555 1_555
C38 C39 1_555 1_555
C41 C42 1_555 1_555
C44 C45 1_555 1_555
C50 C51 1_555 1_555
C53 C54 1_555 1_555
C56 C57 1_555 1_555
C62 C63 1_555 1_555
C65 C66 1_555 1_555
C76 C79 1_555 1_555
C77 C78 1_555 1_555
C80 C81 1_555 1_555
C83 C84 1_555 1_555
C88 C91 1_555 1_555
C89 C90 1_555 1_555
C92 C93 1_555 1_555
C95 C96 1_555 1_555
C100 C103 1_555 1_555
C101 C102 1_555 1_555
C104 C105 1_555 1_555
C107 C108 1_555 1_555
C109 C115 1_555 1_555
C111 C121 1_555 1_555
C113 C127 1_555 1_555
C116 C117 1_555 1_555
C119 C120 1_555 1_555
C122 C123 1_555 1_555
C125 C126 1_555 1_555
C128 C129 1_555 1_555
C131 C132 1_555 1_555

#END
