
#######################################################################
#
#                 Cambridge Crystallographic Data Centre
#                                CCDC 
#
#######################################################################
#
# If this CIF has been generated from an entry in the Cambridge 
# Structural Database, then it will include bibliographic, chemical, 
# crystal, experimental, refinement or atomic coordinate data resulting 
# from the CCDC's data processing and validation procedures.
#
#######################################################################

data_COPPAA
_chemical_formula_moiety         
'C108 H144 N36 Pd6 12+,12(N1 O3 1-),40(H2 O1),0.7(C16 H36 Ag1 N1 O3 Se2),0.3(C16 H37 Ag1 O1 Se2)'
_chemical_name_systematic        
"tetrakis(\m-2,4,6-tris(pyridin-4-yl)-1,3,5-triazine)-hexakis(N,N,N',N'-tetramethylethane-1,2-diamine)-hexa-palladium bis(dibutyl selenide)-(nitrato)-silver bis(dibutyl selenide)-(hydroxy)-silver  dodecanitrate tetracontahydrate"
_symmetry_cell_setting           tetragonal
_symmetry_space_group_name_H-M   'I 41/a'
_symmetry_Int_Tables_number      88
_space_group_name_Hall           '-I 4ad'
loop_
_symmetry_equiv_pos_site_id
_symmetry_equiv_pos_as_xyz
1 x,y,z
2 1/2-x,-y,1/2+z
3 3/4-y,1/4+x,1/4+z
4 3/4+y,3/4-x,3/4+z
5 1/2+x,1/2+y,1/2+z
6 -x,1/2-y,z
7 1/4-y,3/4+x,3/4+z
8 1/4+y,1/4-x,1/4+z
9 -x,-y,-z
10 1/2+x,y,1/2-z
11 1/4+y,3/4-x,3/4-z
12 1/4-y,1/4+x,1/4-z
13 1/2-x,1/2-y,1/2-z
14 x,1/2+y,-z
15 3/4+y,1/4-x,1/4-z
16 3/4-y,3/4+x,3/4-z
_cell_length_a                   26.216(7)
_cell_length_b                   26.216(7)
_cell_length_c                   31.195(9)
_cell_angle_alpha                90
_cell_angle_beta                 90
_cell_angle_gamma                90
_cell_volume                     21439.7
_exptl_crystal_colour            yellow
_exptl_crystal_description       block
_cell_formula_units_Z            4
_exptl_crystal_recrystallization_method water
loop_
_atom_site_label
_atom_site_type_symbol
_atom_site_fract_x
_atom_site_fract_y
_atom_site_fract_z
Ag1 Ag 0.5000 0.2500 0.38281(6)
Se1 Se 0.57664(11) 0.30839(13) 0.38870(10)
C28 C 0.5485(8) 0.3736(7) 0.4045(6)
H37 H 0.5214 0.3823 0.3836
H38 H 0.5756 0.3996 0.4017
C29 C 0.5256(11) 0.3776(9) 0.4500(7)
H39 H 0.4885 0.3712 0.4509
H40 H 0.5436 0.3561 0.4713
C30 C 0.5399(13) 0.4363(10) 0.4535(12)
H41 H 0.5642 0.4465 0.4308
H42 H 0.5547 0.4445 0.4819
C31 C 0.4872(15) 0.4625(19) 0.4473(12)
H43 H 0.4604 0.4365 0.4459
H44 H 0.4805 0.4854 0.4716
H45 H 0.4874 0.4823 0.4207
C32 C 0.6064(12) 0.2037(15) 0.3271(14)
H46 H 0.6265 0.2171 0.3515
H47 H 0.6265 0.1766 0.3129
C33 C 0.5944(17) 0.2489(13) 0.2936(11)
H48 H 0.6069 0.2406 0.2645
C34 C 0.6226(13) 0.2902(11) 0.3124(11)
H49 H 0.6412 0.3066 0.2885
H50 H 0.6489 0.2741 0.3308
C35 C 0.6006(17) 0.3317(14) 0.3378(14)
H51 H 0.5767 0.3512 0.3200
H52 H 0.6279 0.3543 0.3478
N10 N 0.4996(6) 0.2346(8) 0.4757(5)
O1 O 0.4594(6) 0.2315(13) 0.4548(6)
O2 O 0.5403(5) 0.2409(12) 0.4555(6)
O3 O 0.5011(7) 0.2218(9) 0.5138(5)
Se1J Se 0.55839(13) 0.17336(11) 0.36130(10)
C28J C 0.6236(7) 0.2015(8) 0.3455(6)
H37J H 0.6323 0.2286 0.3664
H38J H 0.6496 0.1744 0.3483
C29J C 0.6276(9) 0.2244(11) 0.3000(7)
H39J H 0.6212 0.2615 0.2991
H40J H 0.6061 0.2064 0.2787
C30J C 0.6863(10) 0.2101(13) 0.2965(12)
H41J H 0.6965 0.1858 0.3192
H42J H 0.6945 0.1953 0.2681
C31J C 0.7125(19) 0.2628(15) 0.3027(12)
H43J H 0.6865 0.2896 0.3041
H44J H 0.7354 0.2695 0.2784
H45J H 0.7323 0.2626 0.3293
C32J C 0.4537(15) 0.1436(12) 0.4229(14)
H46J H 0.4671 0.1235 0.3985
H47J H 0.4266 0.1235 0.4371
C33J C 0.4989(13) 0.1556(17) 0.4564(11)
H48J H 0.4906 0.1431 0.4855
C34J C 0.5402(11) 0.1274(13) 0.4376(11)
H49J H 0.5566 0.1088 0.4615
H50J H 0.5241 0.1011 0.4192
C35J C 0.5817(14) 0.1494(17) 0.4122(14)
H51J H 0.6012 0.1733 0.4300
H52J H 0.6043 0.1221 0.4022
Se1O Se 0.44161(13) 0.32664(11) 0.36130(10)
C28O C 0.3764(7) 0.2985(8) 0.3455(6)
H37O H 0.3677 0.2714 0.3664
H38O H 0.3504 0.3256 0.3483
C29O C 0.3724(9) 0.2756(11) 0.3000(7)
H39O H 0.3788 0.2385 0.2991
H40O H 0.3939 0.2936 0.2787
C30O C 0.3137(10) 0.2899(13) 0.2965(12)
H41O H 0.3035 0.3142 0.3192
H42O H 0.3055 0.3047 0.2681
C31O C 0.2875(19) 0.2372(15) 0.3027(12)
H43O H 0.3135 0.2104 0.3041
H44O H 0.2646 0.2305 0.2784
H45O H 0.2677 0.2374 0.3293
C32O C 0.5463(15) 0.3564(12) 0.4229(14)
H46O H 0.5329 0.3765 0.3985
H47O H 0.5734 0.3765 0.4371
C33O C 0.5011(13) 0.3444(17) 0.4564(11)
H48O H 0.5094 0.3569 0.4855
C34O C 0.4598(11) 0.3726(13) 0.4376(11)
H49O H 0.4434 0.3912 0.4615
H50O H 0.4759 0.3989 0.4192
C35O C 0.4183(14) 0.3506(17) 0.4122(14)
H51O H 0.3988 0.3267 0.4300
H52O H 0.3957 0.3779 0.4022
Se1E Se 0.42336(11) 0.19161(13) 0.38870(10)
C28E C 0.4515(8) 0.1264(7) 0.4045(6)
H37E H 0.4786 0.1177 0.3836
H38E H 0.4244 0.1004 0.4017
C29E C 0.4744(11) 0.1224(9) 0.4500(7)
H39E H 0.5115 0.1288 0.4509
H40E H 0.4564 0.1439 0.4713
C30E C 0.4601(13) 0.0637(10) 0.4535(12)
H41E H 0.4358 0.0535 0.4308
H42E H 0.4453 0.0555 0.4819
C31E C 0.5128(15) 0.0375(19) 0.4473(12)
H43E H 0.5396 0.0635 0.4459
H44E H 0.5195 0.0146 0.4716
H45E H 0.5126 0.0177 0.4207
C32E C 0.3936(12) 0.2963(15) 0.3271(14)
H46E H 0.3735 0.2829 0.3515
H47E H 0.3735 0.3234 0.3129
C33E C 0.4056(17) 0.2511(13) 0.2936(11)
H48E H 0.3931 0.2594 0.2645
C34E C 0.3774(13) 0.2098(11) 0.3124(11)
H49E H 0.3588 0.1934 0.2885
H50E H 0.3511 0.2259 0.3308
C35E C 0.3994(17) 0.1683(14) 0.3378(14)
H51E H 0.4233 0.1488 0.3200
H52E H 0.3721 0.1457 0.3478
N10E N 0.5004(6) 0.2654(8) 0.4757(5)
O1E O 0.5406(6) 0.2685(13) 0.4548(6)
O2E O 0.4597(5) 0.2591(12) 0.4555(6)
O3E O 0.4989(7) 0.2782(9) 0.5138(5)
Ag1J Ag 0.5000 0.2500 0.36719(6)
N10J N 0.4846(8) 0.2504(6) 0.2743(5)
O1J O 0.4815(13) 0.2906(6) 0.2952(6)
O2J O 0.4909(12) 0.2097(5) 0.2945(6)
O3J O 0.4718(9) 0.2489(7) 0.2362(5)
N10O N 0.5154(8) 0.2496(6) 0.2743(5)
O1O O 0.5185(13) 0.2094(6) 0.2952(6)
O2O O 0.5091(12) 0.2903(5) 0.2945(6)
O3O O 0.5282(9) 0.2511(7) 0.2362(5)
O4 O 0.4972(3) 0.4222(3) 0.5769(3)
O5 O 0.5000 0.2500 -0.1250
O6 O 0.5862(4) 0.0323(4) 0.0392(3)
O7 O 0.1612(5) 0.7011(5) 0.3912(4)
O8 O 0.7106(4) 0.1567(4) 0.1911(4)
O9 O 0.1842(4) 0.7921(4) 0.2839(3)
O10 O 0.3852(5) 0.1656(5) -0.1744(5)
O11 O 0.4070(5) 0.2247(5) -0.0956(4)
N11 N 0.1882(2) 0.36737(19) 0.26290(16)
O12 O 0.1599(2) 0.3815(3) 0.29110(18)
O13 O 0.2086(3) 0.3239(2) 0.2660(3)
O14 O 0.2042(2) 0.39527(19) 0.23422(16)
N12 N 0.2701(4) 0.5725(3) 0.4514(4)
O15 O 0.2404(3) 0.6049(3) 0.4645(3)
O16 O 0.2607(3) 0.5264(2) 0.4528(3)
O17 O 0.3116(3) 0.5851(3) 0.4336(3)
O18 O 0.3576(8) 0.6132(8) 0.3563(7)
O19 O 0.1814(5) 0.5759(5) 0.5379(4)
N13 N 0.2854(6) 0.7192(4) 0.3915(4)
O20 O 0.2664(5) 0.7561(4) 0.4108(4)
O21 O 0.2776(6) 0.6752(4) 0.4048(5)
O22 O 0.3096(4) 0.7260(4) 0.3581(3)
O23 O 0.2197(8) 0.6974(8) 0.4794(7)
N14 N 0.6858(6) 0.2896(4) -0.0003(4)
O24 O 0.6607(6) 0.3222(5) 0.0196(4)
O25 O 0.7073(5) 0.2998(5) -0.0343(4)
O26 O 0.6947(6) 0.2484(4) 0.0177(4)
O27 O 0.5964(9) 0.3769(9) -0.0475(7)
O28 O 0.6224(6) 0.2842(6) 0.0939(4)
Pd1 Pd 0.5000 0.2500 0.087066(13)
Pd2 Pd 0.211492(10) 0.462837(11) 0.372717(8)
N1 N 0.28186(12) 0.46173(13) 0.34516(11)
N2 N 0.47006(13) 0.45579(16) 0.31421(13)
N3 N 0.52145(13) 0.41683(14) 0.26101(11)
N4 N 0.43198(13) 0.40482(15) 0.26043(12)
N5 N 0.64766(12) 0.51532(13) 0.34787(11)
N6 N 0.49208(13) 0.30179(13) 0.13537(10)
N7 N 0.50964(17) 0.19736(15) 0.03852(12)
N8 N 0.18803(14) 0.52816(14) 0.34216(11)
N9 N 0.14002(14) 0.46198(15) 0.39973(12)
C1 C 0.32330(17) 0.47702(19) 0.36700(16)
H1 H 0.3189 0.4937 0.3938
C2 C 0.37179(17) 0.4692(2) 0.35179(17)
H2 H 0.4005 0.4807 0.3677
C3 C 0.37839(16) 0.44438(18) 0.31294(14)
C4 C 0.33572(16) 0.42865(19) 0.29069(14)
H3 H 0.3392 0.4113 0.2641
C5 C 0.28794(15) 0.43841(18) 0.30742(13)
H4 H 0.2586 0.4283 0.2917
C6 C 0.42993(16) 0.43444(18) 0.29489(14)
C7 C 0.51464(16) 0.44649(18) 0.29538(14)
C8 C 0.47883(16) 0.39682(17) 0.24486(13)
C9 C 0.65073(15) 0.48728(17) 0.31186(13)
H5 H 0.6829 0.4830 0.2984
C10 C 0.60787(16) 0.46442(18) 0.29393(13)
H6 H 0.6106 0.4449 0.2684
C11 C 0.56119(15) 0.47050(17) 0.31392(14)
C12 C 0.55838(16) 0.49949(18) 0.35102(15)
H7 H 0.5266 0.5041 0.3652
C13 C 0.60211(16) 0.52147(17) 0.36717(14)
H8 H 0.6001 0.5414 0.3925
C14 C 0.53378(16) 0.32153(17) 0.15393(13)
H9 H 0.5663 0.3141 0.1421
C15 C 0.53072(16) 0.35227(17) 0.18961(13)
H10 H 0.5609 0.3656 0.2023
C16 C 0.48345(15) 0.36372(16) 0.20691(13)
C17 C 0.44055(16) 0.34290(19) 0.18762(15)
H11 H 0.4075 0.3497 0.1988
C18 C 0.44626(16) 0.31213(17) 0.15196(14)
H12 H 0.4168 0.2979 0.1389
C19 C 0.1102(5) 0.4189(7) 0.3821(10)
H13 H 0.1087 0.4218 0.3508
H14 H 0.0756 0.4198 0.3938
H15 H 0.1267 0.3867 0.3899
C20 C 0.1422(4) 0.4501(6) 0.4488(3)
H16 H 0.1583 0.4168 0.4533
H17 H 0.1075 0.4495 0.4605
H18 H 0.1621 0.4765 0.4634
C21 C 0.1188(4) 0.5116(3) 0.3963(4)
H19 H 0.1353 0.5353 0.4168
H20 H 0.0817 0.5109 0.4020
C22 C 0.1293(3) 0.5277(4) 0.3507(4)
H21 H 0.1151 0.5621 0.3457
H22 H 0.1125 0.5037 0.3307
C23 C 0.1948(6) 0.5238(9) 0.2961(8)
H23 H 0.1748 0.5503 0.2817
H24 H 0.1833 0.4902 0.2865
H25 H 0.2310 0.5281 0.2890
C24 C 0.2116(5) 0.5716(3) 0.3605(3)
H26 H 0.2487 0.5689 0.3572
H27 H 0.2030 0.5736 0.3910
H28 H 0.1995 0.6024 0.3459
C25 C 0.4790(2) 0.15040(19) 0.04539(16)
H29 H 0.4803 0.1291 0.0196
H30 H 0.4435 0.1598 0.0514
H31 H 0.4929 0.1313 0.0697
C26 C 0.5639(2) 0.1830(2) 0.0351(2)
H32 H 0.5683 0.1587 0.0115
H33 H 0.5751 0.1672 0.0620
H34 H 0.5844 0.2135 0.0295
C27 C 0.4911(3) 0.2226(2) -0.00199(16)
H35 H 0.4534 0.2213 -0.0034
H36 H 0.5050 0.2046 -0.0273
N7E N 0.49036(17) 0.30264(15) 0.03852(12)
C25E C 0.5210(2) 0.34960(19) 0.04539(16)
H29E H 0.5197 0.3709 0.0196
H30E H 0.5565 0.3402 0.0514
H31E H 0.5071 0.3687 0.0697
C26E C 0.4361(2) 0.3170(2) 0.0351(2)
H32E H 0.4317 0.3413 0.0115
H33E H 0.4249 0.3328 0.0620
H34E H 0.4156 0.2865 0.0295
C27E C 0.5089(3) 0.2774(2) -0.00199(16)
H35E H 0.5466 0.2787 -0.0034
H36E H 0.4950 0.2954 -0.0273
Pd2E Pd 0.788508(10) 0.037163(11) 0.372717(8)
N1E N 0.71814(12) 0.03827(13) 0.34516(11)
N2E N 0.52994(13) 0.04421(16) 0.31421(13)
N3E N 0.47855(13) 0.08317(14) 0.26101(11)
N4E N 0.56802(13) 0.09518(15) 0.26043(12)
N5E N 0.35234(12) -0.01532(13) 0.34787(11)
N6E N 0.50792(13) 0.19821(13) 0.13537(10)
N8E N 0.81197(14) -0.02816(14) 0.34216(11)
N9E N 0.85998(14) 0.03802(15) 0.39973(12)
C1E C 0.67670(17) 0.02298(19) 0.36700(16)
H1E H 0.6811 0.0063 0.3938
C2E C 0.62821(17) 0.0308(2) 0.35179(17)
H2E H 0.5995 0.0193 0.3677
C3E C 0.62161(16) 0.05562(18) 0.31294(14)
C4E C 0.66428(16) 0.07135(19) 0.29069(14)
H3E H 0.6608 0.0887 0.2641
C5E C 0.71206(15) 0.06159(18) 0.30742(13)
H4E H 0.7414 0.0717 0.2917
C6E C 0.57007(16) 0.06556(18) 0.29489(14)
C7E C 0.48536(16) 0.05351(18) 0.29538(14)
C8E C 0.52117(16) 0.10318(17) 0.24486(13)
C9E C 0.34927(15) 0.01272(17) 0.31186(13)
H5E H 0.3171 0.0170 0.2984
C10E C 0.39213(16) 0.03558(18) 0.29393(13)
H6E H 0.3894 0.0551 0.2684
C11E C 0.43881(15) 0.02950(17) 0.31392(14)
C12E C 0.44162(16) 0.00051(18) 0.35102(15)
H7E H 0.4734 -0.0041 0.3652
C13E C 0.39789(16) -0.02147(17) 0.36717(14)
H8E H 0.3999 -0.0414 0.3925
C14E C 0.46622(16) 0.17847(17) 0.15393(13)
H9E H 0.4337 0.1859 0.1421
C15E C 0.46928(16) 0.14773(17) 0.18961(13)
H10E H 0.4391 0.1344 0.2023
C16E C 0.51655(15) 0.13628(16) 0.20691(13)
C17E C 0.55945(16) 0.15710(19) 0.18762(15)
H11E H 0.5925 0.1503 0.1988
C18E C 0.55374(16) 0.18787(17) 0.15196(14)
H12E H 0.5832 0.2021 0.1389
C19E C 0.8898(5) 0.0811(7) 0.3821(10)
H13E H 0.8913 0.0782 0.3508
H14E H 0.9244 0.0802 0.3938
H15E H 0.8733 0.1133 0.3899
C20E C 0.8578(4) 0.0499(6) 0.4488(3)
H16E H 0.8417 0.0832 0.4533
H17E H 0.8925 0.0505 0.4605
H18E H 0.8379 0.0235 0.4634
C21E C 0.8812(4) -0.0116(3) 0.3963(4)
H19E H 0.8647 -0.0353 0.4168
H20E H 0.9183 -0.0109 0.4020
C22E C 0.8707(3) -0.0277(4) 0.3507(4)
H21E H 0.8849 -0.0621 0.3457
H22E H 0.8875 -0.0037 0.3307
C23E C 0.8052(6) -0.0238(9) 0.2961(8)
H23E H 0.8252 -0.0503 0.2817
H24E H 0.8167 0.0098 0.2865
H25E H 0.7690 -0.0281 0.2890
C24E C 0.7884(5) -0.0716(3) 0.3605(3)
H26E H 0.7513 -0.0689 0.3572
H27E H 0.7970 -0.0736 0.3910
H28E H 0.8005 -0.1024 0.3459
Pd1J Pd 0.5000 0.2500 0.662934(13)
Pd2J Pd 0.712837(11) 0.538508(10) 0.377283(8)
N1J N 0.71173(13) 0.46814(12) 0.40484(11)
N2J N 0.70579(16) 0.27994(13) 0.43579(13)
N3J N 0.66683(14) 0.22855(13) 0.48899(11)
N4J N 0.65482(15) 0.31802(13) 0.48957(12)
N5J N 0.76532(13) 0.10234(12) 0.40213(11)
N6J N 0.55179(13) 0.25792(13) 0.61463(10)
N7J N 0.44736(15) 0.24036(17) 0.71148(12)
N8J N 0.77816(14) 0.56197(14) 0.40784(11)
N9J N 0.71198(15) 0.60998(14) 0.35027(12)
C1J C 0.72702(19) 0.42670(17) 0.38300(16)
H1J H 0.7437 0.4311 0.3562
C2J C 0.7192(2) 0.37821(17) 0.39821(17)
H2J H 0.7307 0.3495 0.3823
C3J C 0.69438(18) 0.37161(16) 0.43706(14)
C4J C 0.67865(19) 0.41428(16) 0.45931(14)
H3J H 0.6613 0.4108 0.4859
C5J C 0.68841(18) 0.46206(15) 0.44258(13)
H4J H 0.6783 0.4914 0.4583
C6J C 0.68444(18) 0.32007(16) 0.45511(14)
C7J C 0.69649(18) 0.23536(16) 0.45462(14)
C8J C 0.64682(17) 0.27117(16) 0.50514(13)
C9J C 0.73728(17) 0.09927(15) 0.43814(13)
H5J H 0.7330 0.0671 0.4516
C10J C 0.71442(18) 0.14213(16) 0.45607(13)
H6J H 0.6949 0.1394 0.4816
C11J C 0.72050(17) 0.18881(15) 0.43608(14)
C12J C 0.74949(18) 0.19162(16) 0.39898(15)
H7J H 0.7541 0.2234 0.3848
C13J C 0.77147(17) 0.14789(16) 0.38283(14)
H8J H 0.7914 0.1499 0.3575
C14J C 0.57153(17) 0.21622(16) 0.59607(13)
H9J H 0.5641 0.1837 0.6079
C15J C 0.60227(17) 0.21928(16) 0.56039(13)
H10J H 0.6156 0.1891 0.5477
C16J C 0.61372(16) 0.26655(15) 0.54309(13)
C17J C 0.59290(19) 0.30945(16) 0.56238(15)
H11J H 0.5997 0.3425 0.5512
C18J C 0.56213(17) 0.30374(16) 0.59804(14)
H12J H 0.5479 0.3332 0.6111
C19J C 0.6689(7) 0.6398(5) 0.3679(10)
H13J H 0.6718 0.6413 0.3992
H14J H 0.6698 0.6744 0.3562
H15J H 0.6367 0.6233 0.3601
C20J C 0.7001(6) 0.6078(4) 0.3012(3)
H16J H 0.6668 0.5917 0.2967
H17J H 0.6995 0.6425 0.2895
H18J H 0.7265 0.5879 0.2866
C21J C 0.7616(3) 0.6312(4) 0.3537(4)
H19J H 0.7853 0.6147 0.3332
H20J H 0.7609 0.6683 0.3480
C22J C 0.7777(4) 0.6207(3) 0.3993(4)
H21J H 0.8121 0.6349 0.4043
H22J H 0.7537 0.6375 0.4193
C23J C 0.7738(9) 0.5552(6) 0.4539(8)
H23J H 0.8003 0.5752 0.4683
H24J H 0.7402 0.5667 0.4635
H25J H 0.7781 0.5190 0.4610
C24J C 0.8216(3) 0.5384(5) 0.3895(3)
H26J H 0.8189 0.5013 0.3928
H27J H 0.8236 0.5470 0.3590
H28J H 0.8524 0.5505 0.4041
C25J C 0.40040(19) 0.2710(2) 0.70461(16)
H29J H 0.3791 0.2697 0.7304
H30J H 0.4098 0.3065 0.6986
H31J H 0.3813 0.2571 0.6803
C26J C 0.4330(2) 0.1861(2) 0.7149(2)
H32J H 0.4087 0.1817 0.7385
H33J H 0.4172 0.1749 0.6880
H34J H 0.4635 0.1656 0.7205
C27J C 0.4726(2) 0.2589(3) 0.75199(16)
H35J H 0.4713 0.2966 0.7534
H36J H 0.4546 0.2450 0.7773
N7O N 0.55264(15) 0.25964(17) 0.71148(12)
C25O C 0.59960(19) 0.2290(2) 0.70461(16)
H29O H 0.6209 0.2303 0.7304
H30O H 0.5902 0.1935 0.6986
H31O H 0.6187 0.2429 0.6803
C26O C 0.5670(2) 0.3139(2) 0.7149(2)
H32O H 0.5913 0.3183 0.7385
H33O H 0.5828 0.3251 0.6880
H34O H 0.5365 0.3344 0.7205
C27O C 0.5274(2) 0.2411(3) 0.75199(16)
H35O H 0.5287 0.2034 0.7534
H36O H 0.5454 0.2550 0.7773
Pd2O Pd 0.287163(11) -0.038508(10) 0.377283(8)
N1O N 0.28827(13) 0.03186(12) 0.40484(11)
N2O N 0.29421(16) 0.22006(13) 0.43579(13)
N3O N 0.33317(14) 0.27145(13) 0.48899(11)
N4O N 0.34518(15) 0.18198(13) 0.48957(12)
N5O N 0.23468(13) 0.39766(12) 0.40213(11)
N6O N 0.44821(13) 0.24208(13) 0.61463(10)
N8O N 0.22184(14) -0.06197(14) 0.40784(11)
N9O N 0.28802(15) -0.10998(14) 0.35027(12)
C1O C 0.27298(19) 0.07330(17) 0.38300(16)
H1O H 0.2563 0.0689 0.3562
C2O C 0.2808(2) 0.12179(17) 0.39821(17)
H2O H 0.2693 0.1505 0.3823
C3O C 0.30562(18) 0.12839(16) 0.43706(14)
C4O C 0.32135(19) 0.08572(16) 0.45931(14)
H3O H 0.3387 0.0892 0.4859
C5O C 0.31159(18) 0.03794(15) 0.44258(13)
H4O H 0.3217 0.0086 0.4583
C6O C 0.31556(18) 0.17993(16) 0.45511(14)
C7O C 0.30351(18) 0.26464(16) 0.45462(14)
C8O C 0.35318(17) 0.22883(16) 0.50514(13)
C9O C 0.26272(17) 0.40073(15) 0.43814(13)
H5O H 0.2670 0.4329 0.4516
C10O C 0.28558(18) 0.35787(16) 0.45607(13)
H6O H 0.3051 0.3606 0.4816
C11O C 0.27950(17) 0.31119(15) 0.43608(14)
C12O C 0.25051(18) 0.30838(16) 0.39898(15)
H7O H 0.2459 0.2766 0.3848
C13O C 0.22853(17) 0.35211(16) 0.38283(14)
H8O H 0.2086 0.3501 0.3575
C14O C 0.42847(17) 0.28378(16) 0.59607(13)
H9O H 0.4359 0.3163 0.6079
C15O C 0.39773(17) 0.28072(16) 0.56039(13)
H10O H 0.3844 0.3109 0.5477
C16O C 0.38628(16) 0.23345(15) 0.54309(13)
C17O C 0.40710(19) 0.19055(16) 0.56238(15)
H11O H 0.4003 0.1575 0.5512
C18O C 0.43787(17) 0.19626(16) 0.59804(14)
H12O H 0.4521 0.1668 0.6111
C19O C 0.3311(7) -0.1398(5) 0.3679(10)
H13O H 0.3282 -0.1413 0.3992
H14O H 0.3302 -0.1744 0.3562
H15O H 0.3633 -0.1233 0.3601
C20O C 0.2999(6) -0.1078(4) 0.3012(3)
H16O H 0.3332 -0.0917 0.2967
H17O H 0.3005 -0.1425 0.2895
H18O H 0.2735 -0.0879 0.2866
C21O C 0.2384(3) -0.1312(4) 0.3537(4)
H19O H 0.2147 -0.1147 0.3332
H20O H 0.2391 -0.1683 0.3480
C22O C 0.2223(4) -0.1207(3) 0.3993(4)
H21O H 0.1879 -0.1349 0.4043
H22O H 0.2463 -0.1375 0.4193
C23O C 0.2262(9) -0.0552(6) 0.4539(8)
H23O H 0.1997 -0.0752 0.4683
H24O H 0.2598 -0.0667 0.4635
H25O H 0.2219 -0.0190 0.4610
C24O C 0.1784(3) -0.0384(5) 0.3895(3)
H26O H 0.1811 -0.0013 0.3928
H27O H 0.1764 -0.0470 0.3590
H28O H 0.1476 -0.0505 0.4041
C36? C 0.1115(17) 0.4179(18) 0.3906(17)
H53? H 0.1171 0.4079 0.3607
H54? H 0.0752 0.4249 0.3952
H55? H 0.1224 0.3902 0.4095
C37? C 0.1406(6) 0.4784(8) 0.4428(4)
H56? H 0.1556 0.5125 0.4445
H57? H 0.1609 0.4546 0.4600
H58? H 0.1056 0.4793 0.4539
C38? C 0.1110(5) 0.5070(6) 0.3745(6)
H59? H 0.0974 0.4934 0.3472
H60? H 0.0818 0.5190 0.3919
C39? C 0.1454(6) 0.5509(6) 0.3652(5)
H61? H 0.1279 0.5767 0.3473
H62? H 0.1571 0.5672 0.3921
C40? C 0.1776(8) 0.5208(14) 0.2958(12)
H63? H 0.1675 0.5535 0.2830
H64? H 0.1501 0.4960 0.2922
H65? H 0.2085 0.5083 0.2815
C41? C 0.2310(6) 0.5709(5) 0.3410(7)
H66? H 0.2612 0.5577 0.3262
H67? H 0.2402 0.5804 0.3704
H68? H 0.2181 0.6010 0.3258
O29? O 0.1682(10) 0.3969(9) 0.2840(8)
O30? O 0.1788(11) 0.3182(8) 0.2565(8)
O31? O 0.6297(6) 0.2668(7) 0.1011(6)
O32? O 0.2408(5) 0.5251(4) 0.4618(4)
O33? O 0.3344(12) 0.5925(11) 0.4127(10)
O34? O 0.3202(6) 0.6970(6) 0.3618(5)
O35? O 0.2540(4) 0.7057(4) 0.4343(4)
O36? O 0.4103(8) 0.5818(8) 0.3455(7)
N15? N 0.6497(6) 0.2816(7) 0.0625(6)
O37? O 0.6725(10) 0.2461(9) 0.0444(8)
O38? O 0.6474(13) 0.3235(8) 0.0437(10)
O39? O 0.6215(10) 0.2729(11) 0.0935(7)
O40? O 0.6111(6) 0.3553(7) -0.0413(5)
N16? N 0.6463(5) 0.3255(4) -0.0028(4)
O41? O 0.6250(6) 0.3324(6) -0.0377(4)
O42? O 0.6540(7) 0.3621(5) 0.0211(5)
O43? O 0.6578(9) 0.2820(5) 0.0101(6)
O44? O 0.5610(5) 0.4290(5) -0.0520(4)
C42? C 0.6008(9) 0.3230(9) 0.3282(7)
H69? H 0.6022 0.3600 0.3217
H70? H 0.5804 0.3050 0.3062
C43? C 0.6525(16) 0.300(2) 0.334(2)
H71? H 0.6769 0.3284 0.3300
H72? H 0.6544 0.2911 0.3651
C44? C 0.6750(17) 0.2553(19) 0.311(2)
H73? H 0.6721 0.2241 0.3285
H74? H 0.6567 0.2496 0.2835
C45? C 0.7328(17) 0.268(2) 0.3020(18)
H75? H 0.7398 0.3034 0.3101
H76? H 0.7545 0.2451 0.3189
H77? H 0.7401 0.2633 0.2714
Se2? Se 0.5409(5) 0.2567(7) 0.4487(5)
C46? C 0.491(2) 0.287(2) 0.488(2)
H78? H 0.4636 0.3028 0.4714
H79? H 0.4762 0.2597 0.5059
C47? C 0.512(2) 0.3275(12) 0.5186(12)
H80? H 0.5385 0.3471 0.5028
H81? H 0.5299 0.3096 0.5423
C48? C 0.4749(18) 0.3661(15) 0.5388(7)
H82? H 0.4476 0.3456 0.5523
H83? H 0.4589 0.3845 0.5146
C49? C 0.4902(19) 0.4071(12) 0.5718(16)
H84? H 0.4745 0.3992 0.5996
H85? H 0.4783 0.4406 0.5620
H86? H 0.5273 0.4077 0.5749
C50? C 0.525(3) 0.1831(12) 0.460(2)
H87? H 0.5253 0.1768 0.4910
H88? H 0.4907 0.1751 0.4487
C51? C 0.563(3) 0.1492(17) 0.4387(18)
H89? H 0.5625 0.1159 0.4537
H90? H 0.5975 0.1640 0.4436
C52? C 0.558(3) 0.139(3) 0.3916(19)
H91? H 0.5328 0.1627 0.3787
H92? H 0.5463 0.1036 0.3865
C53? C 0.611(3) 0.148(5) 0.372(3)
H93? H 0.6371 0.1306 0.3894
H94? H 0.6186 0.1841 0.3704
H95? H 0.6121 0.1332 0.3427
O45? O 0.475(3) 0.163(2) 0.345(2)
O46? O 0.4893(18) 0.3853(19) 0.5597(15)
C54? C 0.6008(9) 0.3230(9) 0.3282(7)
H96? H 0.6332 0.3424 0.3297
H97? H 0.5753 0.3451 0.3139
C55? C 0.6090(12) 0.2775(11) 0.3015(7)
H98? H 0.6151 0.2869 0.2711
C56? C 0.6592(11) 0.2525(10) 0.3228(9)
H99? H 0.6524 0.2414 0.3526
H100? H 0.6879 0.2770 0.3229
C57? C 0.6708(15) 0.2068(12) 0.2939(10)
H101? H 0.6393 0.1953 0.2800
H102? H 0.6957 0.2168 0.2720
H103? H 0.6850 0.1790 0.3113
Se3? Se 0.5411(2) 0.1760(2) 0.34771(18)
C58? C 0.570(2) 0.159(4) 0.4061(13)
H104? H 0.5885 0.1267 0.4045
H105? H 0.5940 0.1863 0.4146
C59? C 0.528(3) 0.155(3) 0.4399(12)
H106? H 0.5169 0.1891 0.4500
H107? H 0.5397 0.1347 0.4648
C60? C 0.485(3) 0.127(4) 0.415(2)
H108? H 0.4626 0.1533 0.4013
H109? H 0.5008 0.1072 0.3912
C61? C 0.453(4) 0.092(4) 0.442(3)
H110? H 0.4490 0.1064 0.4710
H111? H 0.4692 0.0584 0.4442
H112? H 0.4189 0.0879 0.4292
H113? H 0.5825 0.3175 0.3625
H114? H 0.5574 0.2566 0.2923
H115? H 0.5795 0.2540 0.3030
loop_
_geom_bond_atom_site_label_1
_geom_bond_atom_site_label_2
_geom_bond_site_symmetry_1
_geom_bond_site_symmetry_2
Pd1 N6 1_555 1_555
Pd2 N1 1_555 1_555
N1 C1 1_555 1_555
N2 C6 1_555 1_555
N3 C7 1_555 1_555
N4 C6 1_555 1_555
N5 C9 1_555 1_555
N6 C14 1_555 1_555
N7 Pd1 1_555 1_555
N8 Pd2 1_555 1_555
N9 Pd2 1_555 1_555
C1 H1 1_555 1_555
C2 C1 1_555 1_555
H2 C2 1_555 1_555
C3 C2 1_555 1_555
C4 C3 1_555 1_555
H3 C4 1_555 1_555
C5 N1 1_555 1_555
H4 C5 1_555 1_555
C6 C3 1_555 1_555
C7 N2 1_555 1_555
C8 N3 1_555 1_555
C9 H5 1_555 1_555
C10 C9 1_555 1_555
H6 C10 1_555 1_555
C11 C7 1_555 1_555
C12 C11 1_555 1_555
H7 C12 1_555 1_555
C13 N5 1_555 1_555
H8 C13 1_555 1_555
C14 H9 1_555 1_555
C15 C14 1_555 1_555
H10 C15 1_555 1_555
C16 C8 1_555 1_555
C17 C16 1_555 1_555
H11 C17 1_555 1_555
C18 N6 1_555 1_555
H12 C18 1_555 1_555
C19 N9 1_555 1_555
H13 C19 1_555 1_555
H14 C19 1_555 1_555
H15 C19 1_555 1_555
C20 N9 1_555 1_555
H16 C20 1_555 1_555
H17 C20 1_555 1_555
H18 C20 1_555 1_555
C21 N9 1_555 1_555
H19 C21 1_555 1_555
H20 C21 1_555 1_555
C22 N8 1_555 1_555
H21 C22 1_555 1_555
H22 C22 1_555 1_555
C23 N8 1_555 1_555
H23 C23 1_555 1_555
H24 C23 1_555 1_555
H25 C23 1_555 1_555
C24 N8 1_555 1_555
H26 C24 1_555 1_555
H27 C24 1_555 1_555
H28 C24 1_555 1_555
C25 N7 1_555 1_555
H29 C25 1_555 1_555
H30 C25 1_555 1_555
H31 C25 1_555 1_555
C26 N7 1_555 1_555
H32 C26 1_555 1_555
H33 C26 1_555 1_555
H34 C26 1_555 1_555
C27 N7 1_555 1_555
H35 C27 1_555 1_555
H36 C27 1_555 1_555
Ag1 Se1 1_555 1_555
Se1 C28 1_555 1_555
C28 H37 1_555 1_555
H38 C28 1_555 1_555
C29 C28 1_555 1_555
H39 C29 1_555 1_555
H40 C29 1_555 1_555
C30 C29 1_555 1_555
H41 C30 1_555 1_555
H42 C30 1_555 1_555
C31 C30 1_555 1_555
H43 C31 1_555 1_555
H44 C31 1_555 1_555
H45 C31 1_555 1_555
C32 H46 1_555 1_555
H47 C32 1_555 1_555
C33 C32 1_555 1_555
H48 C33 1_555 1_555
C34 C33 1_555 1_555
H49 C34 1_555 1_555
H50 C34 1_555 1_555
C35 Se1 1_555 1_555
H51 C35 1_555 1_555
H52 C35 1_555 1_555
N10 O1 1_555 1_555
O1 Ag1 1_555 1_555
O2 Ag1 1_555 1_555
O3 N10 1_555 1_555
N11 O12 1_555 1_555
O13 N11 1_555 1_555
O14 N11 1_555 1_555
N12 O15 1_555 1_555
O16 N12 1_555 1_555
O17 N12 1_555 1_555
N13 O20 1_555 1_555
O21 N13 1_555 1_555
O22 N13 1_555 1_555
N14 O24 1_555 1_555
O25 N14 1_555 1_555
O26 N14 1_555 1_555
N7E Pd1 1_555 1_555
C25E N7E 1_555 1_555
H29E C25E 1_555 1_555
H30E C25E 1_555 1_555
H31E C25E 1_555 1_555
C26E N7E 1_555 1_555
H32E C26E 1_555 1_555
H33E C26E 1_555 1_555
H34E C26E 1_555 1_555
C27E C27 1_555 1_555
H35E C27E 1_555 1_555
H36E C27E 1_555 1_555
Pd2E N1E 1_555 1_555
N1E C1E 1_555 1_555
N2E C6E 1_555 1_555
N3E C7E 1_555 1_555
N4E C6E 1_555 1_555
N5E C9E 1_555 1_555
N6E Pd1 1_555 1_555
N8E Pd2E 1_555 1_555
N9E Pd2E 1_555 1_555
C1E H1E 1_555 1_555
C2E C1E 1_555 1_555
H2E C2E 1_555 1_555
C3E C2E 1_555 1_555
C4E C3E 1_555 1_555
H3E C4E 1_555 1_555
C5E N1E 1_555 1_555
H4E C5E 1_555 1_555
C6E C3E 1_555 1_555
C7E N2E 1_555 1_555
C8E N3E 1_555 1_555
C9E H5E 1_555 1_555
C10E C9E 1_555 1_555
H6E C10E 1_555 1_555
C11E C7E 1_555 1_555
C12E C11E 1_555 1_555
H7E C12E 1_555 1_555
C13E N5E 1_555 1_555
H8E C13E 1_555 1_555
C14E N6E 1_555 1_555
H9E C14E 1_555 1_555
C15E C14E 1_555 1_555
H10E C15E 1_555 1_555
C16E C8E 1_555 1_555
C17E C16E 1_555 1_555
H11E C17E 1_555 1_555
C18E N6E 1_555 1_555
H12E C18E 1_555 1_555
C19E N9E 1_555 1_555
H13E C19E 1_555 1_555
H14E C19E 1_555 1_555
H15E C19E 1_555 1_555
C20E N9E 1_555 1_555
H16E C20E 1_555 1_555
H17E C20E 1_555 1_555
H18E C20E 1_555 1_555
C21E N9E 1_555 1_555
H19E C21E 1_555 1_555
H20E C21E 1_555 1_555
C22E N8E 1_555 1_555
H21E C22E 1_555 1_555
H22E C22E 1_555 1_555
C23E N8E 1_555 1_555
H23E C23E 1_555 1_555
H24E C23E 1_555 1_555
H25E C23E 1_555 1_555
C24E N8E 1_555 1_555
H26E C24E 1_555 1_555
H27E C24E 1_555 1_555
H28E C24E 1_555 1_555
Pd1J N6J 1_555 1_555
Pd2J N5 1_555 1_555
N1J Pd2J 1_555 1_555
N2J C6J 1_555 1_555
N3J C7J 1_555 1_555
N4J C6J 1_555 1_555
N5J Pd2E 1_555 1_555
N6J C14J 1_555 1_555
N7J Pd1J 1_555 1_555
N8J Pd2J 1_555 1_555
N9J Pd2J 1_555 1_555
C1J N1J 1_555 1_555
H1J C1J 1_555 1_555
C2J C1J 1_555 1_555
H2J C2J 1_555 1_555
C3J C2J 1_555 1_555
C4J C3J 1_555 1_555
H3J C4J 1_555 1_555
C5J N1J 1_555 1_555
H4J C5J 1_555 1_555
C6J C3J 1_555 1_555
C7J N2J 1_555 1_555
C8J N3J 1_555 1_555
C9J N5J 1_555 1_555
H5J C9J 1_555 1_555
C10J C9J 1_555 1_555
H6J C10J 1_555 1_555
C11J C7J 1_555 1_555
C12J C11J 1_555 1_555
H7J C12J 1_555 1_555
C13J N5J 1_555 1_555
H8J C13J 1_555 1_555
C14J H9J 1_555 1_555
C15J C14J 1_555 1_555
H10J C15J 1_555 1_555
C16J C8J 1_555 1_555
C17J C16J 1_555 1_555
H11J C17J 1_555 1_555
C18J N6J 1_555 1_555
H12J C18J 1_555 1_555
C19J N9J 1_555 1_555
H13J C19J 1_555 1_555
H14J C19J 1_555 1_555
H15J C19J 1_555 1_555
C20J N9J 1_555 1_555
H16J C20J 1_555 1_555
H17J C20J 1_555 1_555
H18J C20J 1_555 1_555
C21J N9J 1_555 1_555
H19J C21J 1_555 1_555
H20J C21J 1_555 1_555
C22J N8J 1_555 1_555
H21J C22J 1_555 1_555
H22J C22J 1_555 1_555
C23J N8J 1_555 1_555
H23J C23J 1_555 1_555
H24J C23J 1_555 1_555
H25J C23J 1_555 1_555
C24J N8J 1_555 1_555
H26J C24J 1_555 1_555
H27J C24J 1_555 1_555
H28J C24J 1_555 1_555
C25J N7J 1_555 1_555
H29J C25J 1_555 1_555
H30J C25J 1_555 1_555
H31J C25J 1_555 1_555
C26J N7J 1_555 1_555
H32J C26J 1_555 1_555
H33J C26J 1_555 1_555
H34J C26J 1_555 1_555
C27J N7J 1_555 1_555
H35J C27J 1_555 1_555
H36J C27J 1_555 1_555
N7O Pd1J 1_555 1_555
C25O N7O 1_555 1_555
H29O C25O 1_555 1_555
H30O C25O 1_555 1_555
H31O C25O 1_555 1_555
C26O N7O 1_555 1_555
H32O C26O 1_555 1_555
H33O C26O 1_555 1_555
H34O C26O 1_555 1_555
C27O C27J 1_555 1_555
H35O C27O 1_555 1_555
H36O C27O 1_555 1_555
Pd2O N5E 1_555 1_555
N1O Pd2O 1_555 1_555
N2O C6O 1_555 1_555
N3O C7O 1_555 1_555
N4O C6O 1_555 1_555
N5O Pd2 1_555 1_555
N6O Pd1J 1_555 1_555
N8O Pd2O 1_555 1_555
N9O Pd2O 1_555 1_555
C1O N1O 1_555 1_555
H1O C1O 1_555 1_555
C2O C1O 1_555 1_555
H2O C2O 1_555 1_555
C3O C2O 1_555 1_555
C4O C3O 1_555 1_555
H3O C4O 1_555 1_555
C5O N1O 1_555 1_555
H4O C5O 1_555 1_555
C6O C3O 1_555 1_555
C7O N2O 1_555 1_555
C8O N3O 1_555 1_555
C9O N5O 1_555 1_555
H5O C9O 1_555 1_555
C10O C9O 1_555 1_555
H6O C10O 1_555 1_555
C11O C7O 1_555 1_555
C12O C11O 1_555 1_555
H7O C12O 1_555 1_555
C13O N5O 1_555 1_555
H8O C13O 1_555 1_555
C14O N6O 1_555 1_555
H9O C14O 1_555 1_555
C15O C14O 1_555 1_555
H10O C15O 1_555 1_555
C16O C8O 1_555 1_555
C17O C16O 1_555 1_555
H11O C17O 1_555 1_555
C18O N6O 1_555 1_555
H12O C18O 1_555 1_555
C19O N9O 1_555 1_555
H13O C19O 1_555 1_555
H14O C19O 1_555 1_555
H15O C19O 1_555 1_555
C20O N9O 1_555 1_555
H16O C20O 1_555 1_555
H17O C20O 1_555 1_555
H18O C20O 1_555 1_555
C21O N9O 1_555 1_555
H19O C21O 1_555 1_555
H20O C21O 1_555 1_555
C22O N8O 1_555 1_555
H21O C22O 1_555 1_555
H22O C22O 1_555 1_555
C23O N8O 1_555 1_555
H23O C23O 1_555 1_555
H24O C23O 1_555 1_555
H25O C23O 1_555 1_555
C24O N8O 1_555 1_555
H26O C24O 1_555 1_555
H27O C24O 1_555 1_555
H28O C24O 1_555 1_555
Se1J Ag1 1_555 1_555
C28J C32 1_555 1_555
H37J C28J 1_555 1_555
H38J C28J 1_555 1_555
C29J C32 1_555 1_555
H39J C33 1_555 1_555
H40J C33 1_555 1_555
C30J C29J 1_555 1_555
H41J C30J 1_555 1_555
H42J C30J 1_555 1_555
C31J C30J 1_555 1_555
H43J C31J 1_555 1_555
H44J C31J 1_555 1_555
H45J C31J 1_555 1_555
C32J H46J 1_555 1_555
H47J C32J 1_555 1_555
C33J C32J 1_555 1_555
H48J C33J 1_555 1_555
C34J C33J 1_555 1_555
H49J C34J 1_555 1_555
H50J C34J 1_555 1_555
C35J Se1J 1_555 1_555
H51J C35J 1_555 1_555
H52J C35J 1_555 1_555
Se1O Ag1 1_555 1_555
C28O Se1O 1_555 1_555
H37O C28O 1_555 1_555
H38O C28O 1_555 1_555
C29O C28O 1_555 1_555
H39O C29O 1_555 1_555
H40O C29O 1_555 1_555
C30O C29O 1_555 1_555
H41O C30O 1_555 1_555
H42O C30O 1_555 1_555
C31O C30O 1_555 1_555
H43O C31O 1_555 1_555
H44O C31O 1_555 1_555
H45O C31O 1_555 1_555
C32O Se1 1_555 1_555
H46O C32O 1_555 1_555
H47O C28 1_555 1_555
C33O C29 1_555 1_555
H48O C29 1_555 1_555
C34O C29 1_555 1_555
H49O C34O 1_555 1_555
H50O C34O 1_555 1_555
C35O Se1O 1_555 1_555
H51O C35O 1_555 1_555
H52O C35O 1_555 1_555
Se1E Ag1 1_555 1_555
C28E C32J 1_555 1_555
H37E C28E 1_555 1_555
H38E C28E 1_555 1_555
C29E C32J 1_555 1_555
H39E C33J 1_555 1_555
H40E C33J 1_555 1_555
C30E C29E 1_555 1_555
H41E C30E 1_555 1_555
H42E C30E 1_555 1_555
C31E C30E 1_555 1_555
H43E C31E 1_555 1_555
H44E C31E 1_555 1_555
H45E C31E 1_555 1_555
C32E Se1O 1_555 1_555
H46E C32E 1_555 1_555
H47E C28O 1_555 1_555
C33E C29O 1_555 1_555
H48E C29O 1_555 1_555
C34E C29O 1_555 1_555
H49E C34E 1_555 1_555
H50E C34E 1_555 1_555
C35E Se1E 1_555 1_555
H51E C35E 1_555 1_555
H52E C35E 1_555 1_555
N10E N10 1_555 1_555
O1E Ag1 1_555 1_555
O2E Ag1 1_555 1_555
O3E N10 1_555 1_555
Ag1J Se1 1_555 1_555
N10J O1J 1_555 1_555
O1J Ag1J 1_555 1_555
O2J Ag1J 1_555 1_555
O3J N10J 1_555 1_555
N10O N10J 1_555 1_555
O1O Ag1J 1_555 1_555
O2O Ag1J 1_555 1_555
O3O N10J 1_555 1_555
N4 C8 1_555 1_555
C4 C5 1_555 1_555
C10 C11 1_555 1_555
C12 C13 1_555 1_555
C15 C16 1_555 1_555
C17 C18 1_555 1_555
C21 C22 1_555 1_555
C28 C32O 1_555 1_555
C29 C32O 1_555 1_555
C29 H47O 1_555 1_555
H39 C33O 1_555 1_555
H39 C34O 1_555 1_555
H40 C33O 1_555 1_555
C32 Se1J 1_555 1_555
H47 C28J 1_555 1_555
H47 C29J 1_555 1_555
C33 C29J 1_555 1_555
H48 C29J 1_555 1_555
C34 C35 1_555 1_555
C34 C29J 1_555 1_555
C34 H39J 1_555 1_555
N10 O2 1_555 1_555
N10 O1E 1_555 1_555
N10 O2E 1_555 1_555
O1 N10E 1_555 1_555
O1 O2E 1_555 1_555
O2 N10E 1_555 1_555
O2 O1E 1_555 1_555
O3 N10E 1_555 1_555
O3 O3E 1_555 1_555
N7E C27E 1_555 1_555
N4E C8E 1_555 1_555
C4E C5E 1_555 1_555
C10E C11E 1_555 1_555
C12E C13E 1_555 1_555
C15E C16E 1_555 1_555
C17E C18E 1_555 1_555
C21E C22E 1_555 1_555
N4J C8J 1_555 1_555
C4J C5J 1_555 1_555
C10J C11J 1_555 1_555
C12J C13J 1_555 1_555
C15J C16J 1_555 1_555
C17J C18J 1_555 1_555
C21J C22J 1_555 1_555
N7O C27O 1_555 1_555
N4O C8O 1_555 1_555
C4O C5O 1_555 1_555
C10O C11O 1_555 1_555
C12O C13O 1_555 1_555
C15O C16O 1_555 1_555
C17O C18O 1_555 1_555
C21O C22O 1_555 1_555
Se1J C28J 1_555 1_555
Se1J Ag1J 1_555 1_555
C28J C29J 1_555 1_555
C29J H39J 1_555 1_555
C29J H40J 1_555 1_555
C32J Se1E 1_555 1_555
H47J C28E 1_555 1_555
H47J C29E 1_555 1_555
C33J C29E 1_555 1_555
H48J C29E 1_555 1_555
C34J C35J 1_555 1_555
C34J C29E 1_555 1_555
C34J H39E 1_555 1_555
Se1O Ag1J 1_555 1_555
C28O C32E 1_555 1_555
C29O C32E 1_555 1_555
C29O H47E 1_555 1_555
H39O C33E 1_555 1_555
H39O C34E 1_555 1_555
H40O C33E 1_555 1_555
C32O H47O 1_555 1_555
C32O C33O 1_555 1_555
C33O H48O 1_555 1_555
C33O C34O 1_555 1_555
C34O C35O 1_555 1_555
Se1E C28E 1_555 1_555
Se1E Ag1J 1_555 1_555
C28E C29E 1_555 1_555
C29E H39E 1_555 1_555
C29E H40E 1_555 1_555
C32E H47E 1_555 1_555
C32E C33E 1_555 1_555
C33E H48E 1_555 1_555
C33E C34E 1_555 1_555
C34E C35E 1_555 1_555
N10E O1E 1_555 1_555
N10E O2E 1_555 1_555
N10E O3E 1_555 1_555
N10J O2J 1_555 1_555
N10J O1O 1_555 1_555
N10J O2O 1_555 1_555
O1J N10O 1_555 1_555
O1J O2O 1_555 1_555
O2J N10O 1_555 1_555
O2J O1O 1_555 1_555
O3J N10O 1_555 1_555
O3J O3O 1_555 1_555
N10O O1O 1_555 1_555
N10O O2O 1_555 1_555
N10O O3O 1_555 1_555

#END
