# generated using pymatgen
data_Ag2H460Pd6C240Se12N64O181
_symmetry_space_group_name_H-M   'P 1'
_cell_length_a   26.21600000
_cell_length_b   26.21600000
_cell_length_c   31.19500000
_cell_angle_alpha   90.00000000
_cell_angle_beta   90.00000000
_cell_angle_gamma   90.00000000
_symmetry_Int_Tables_number   1
_chemical_formula_structural   Ag2H460Pd6C240Se12N64O181
_chemical_formula_sum   'Ag8 H1840 Pd24 C960 Se48 N256 O724'
_cell_volume   21439.65767392
_cell_formula_units_Z   4
loop_
 _symmetry_equiv_pos_site_id
 _symmetry_equiv_pos_as_xyz
  1  'x, y, z'
loop_
 _atom_site_type_symbol
 _atom_site_label
 _atom_site_symmetry_multiplicity
 _atom_site_fract_x
 _atom_site_fract_y
 _atom_site_fract_z
 _atom_site_occupancy
  Ag  Ag1  1  0.500000  0.250000  0.382810  1.0
  Ag  Ag2  1  0.000000  0.750000  0.882810  1.0
  Ag  Ag3  1  0.500000  0.750000  0.632810  1.0
  Ag  Ag4  1  0.000000  0.250000  0.132810  1.0
  Ag  Ag5  1  0.500000  0.750000  0.617190  1.0
  Ag  Ag6  1  0.000000  0.250000  0.117190  1.0
  Ag  Ag7  1  0.500000  0.250000  0.367190  1.0
  Ag  Ag8  1  0.000000  0.750000  0.867190  1.0
  H  H9  1  0.117100  0.407900  0.360700  1
  H  H10  1  0.382900  0.592100  0.860700  1
  H  H11  1  0.342100  0.367100  0.610700  1
  H  H12  1  0.157900  0.632900  0.110700  1
  H  H13  1  0.617100  0.907900  0.860700  1
  H  H14  1  0.882900  0.092100  0.360700  1
  H  H15  1  0.842100  0.867100  0.110700  1
  H  H16  1  0.657900  0.132900  0.610700  1
  H  H17  1  0.882900  0.592100  0.639300  1
  H  H18  1  0.617100  0.407900  0.139300  1
  H  H19  1  0.657900  0.632900  0.389300  1
  H  H20  1  0.842100  0.367100  0.889300  1
  H  H21  1  0.382900  0.092100  0.139300  1
  H  H22  1  0.117100  0.907900  0.639300  1
  H  H23  1  0.157900  0.132900  0.889300  1
  H  H24  1  0.342100  0.867100  0.389300  1
  H  H25  1  0.075200  0.424900  0.395200  1
  H  H26  1  0.424800  0.575100  0.895200  1
  H  H27  1  0.325100  0.325200  0.645200  1
  H  H28  1  0.174900  0.674800  0.145200  1
  H  H29  1  0.575200  0.924900  0.895200  1
  H  H30  1  0.924800  0.075100  0.395200  1
  H  H31  1  0.825100  0.825200  0.145200  1
  H  H32  1  0.674900  0.174800  0.645200  1
  H  H33  1  0.924800  0.575100  0.604800  1
  H  H34  1  0.575200  0.424900  0.104800  1
  H  H35  1  0.674900  0.674800  0.354800  1
  H  H36  1  0.825100  0.325200  0.854800  1
  H  H37  1  0.424800  0.075100  0.104800  1
  H  H38  1  0.075200  0.924900  0.604800  1
  H  H39  1  0.174900  0.174800  0.854800  1
  H  H40  1  0.325100  0.825200  0.354800  1
  H  H41  1  0.122400  0.390200  0.409500  1
  H  H42  1  0.377600  0.609800  0.909500  1
  H  H43  1  0.359800  0.372400  0.659500  1
  H  H44  1  0.140200  0.627600  0.159500  1
  H  H45  1  0.622400  0.890200  0.909500  1
  H  H46  1  0.877600  0.109800  0.409500  1
  H  H47  1  0.859800  0.872400  0.159500  1
  H  H48  1  0.640200  0.127600  0.659500  1
  H  H49  1  0.877600  0.609800  0.590500  1
  H  H50  1  0.622400  0.390200  0.090500  1
  H  H51  1  0.640200  0.627600  0.340500  1
  H  H52  1  0.859800  0.372400  0.840500  1
  H  H53  1  0.377600  0.109800  0.090500  1
  H  H54  1  0.122400  0.890200  0.590500  1
  H  H55  1  0.140200  0.127600  0.840500  1
  H  H56  1  0.359800  0.872400  0.340500  1
  H  H57  1  0.155600  0.512500  0.444500  1
  H  H58  1  0.344400  0.487500  0.944500  1
  H  H59  1  0.237500  0.405600  0.694500  1
  H  H60  1  0.262500  0.594400  0.194500  1
  H  H61  1  0.655600  0.012500  0.944500  1
  H  H62  1  0.844400  0.987500  0.444500  1
  H  H63  1  0.737500  0.905600  0.194500  1
  H  H64  1  0.762500  0.094400  0.694500  1
  H  H65  1  0.844400  0.487500  0.555500  1
  H  H66  1  0.655600  0.512500  0.055500  1
  H  H67  1  0.762500  0.594400  0.305500  1
  H  H68  1  0.737500  0.405600  0.805500  1
  H  H69  1  0.344400  0.987500  0.055500  1
  H  H70  1  0.155600  0.012500  0.555500  1
  H  H71  1  0.262500  0.094400  0.805500  1
  H  H72  1  0.237500  0.905600  0.305500  1
  H  H73  1  0.160900  0.454600  0.460000  1
  H  H74  1  0.339100  0.545400  0.960000  1
  H  H75  1  0.295400  0.410900  0.710000  1
  H  H76  1  0.204600  0.589100  0.210000  1
  H  H77  1  0.660900  0.954600  0.960000  1
  H  H78  1  0.839100  0.045400  0.460000  1
  H  H79  1  0.795400  0.910900  0.210000  1
  H  H80  1  0.704600  0.089100  0.710000  1
  H  H81  1  0.839100  0.545400  0.540000  1
  H  H82  1  0.660900  0.454600  0.040000  1
  H  H83  1  0.704600  0.589100  0.290000  1
  H  H84  1  0.795400  0.410900  0.790000  1
  H  H85  1  0.339100  0.045400  0.040000  1
  H  H86  1  0.160900  0.954600  0.540000  1
  H  H87  1  0.204600  0.089100  0.790000  1
  H  H88  1  0.295400  0.910900  0.290000  1
  H  H89  1  0.105600  0.479300  0.453900  1
  H  H90  1  0.394400  0.520700  0.953900  1
  H  H91  1  0.270700  0.355600  0.703900  1
  H  H92  1  0.229300  0.644400  0.203900  1
  H  H93  1  0.605600  0.979300  0.953900  1
  H  H94  1  0.894400  0.020700  0.453900  1
  H  H95  1  0.770700  0.855600  0.203900  1
  H  H96  1  0.729300  0.144400  0.703900  1
  H  H97  1  0.894400  0.520700  0.546100  1
  H  H98  1  0.605600  0.479300  0.046100  1
  H  H99  1  0.729300  0.644400  0.296100  1
  H  H100  1  0.770700  0.355600  0.796100  1
  H  H101  1  0.394400  0.020700  0.046100  1
  H  H102  1  0.105600  0.979300  0.546100  1
  H  H103  1  0.229300  0.144400  0.796100  1
  H  H104  1  0.270700  0.855600  0.296100  1
  H  H105  1  0.097400  0.493400  0.347200  1
  H  H106  1  0.402600  0.506600  0.847200  1
  H  H107  1  0.256600  0.347400  0.597200  1
  H  H108  1  0.243400  0.652600  0.097200  1
  H  H109  1  0.597400  0.993400  0.847200  1
  H  H110  1  0.902600  0.006600  0.347200  1
  H  H111  1  0.756600  0.847400  0.097200  1
  H  H112  1  0.743400  0.152600  0.597200  1
  H  H113  1  0.902600  0.506600  0.652800  1
  H  H114  1  0.597400  0.493400  0.152800  1
  H  H115  1  0.743400  0.652600  0.402800  1
  H  H116  1  0.756600  0.347400  0.902800  1
  H  H117  1  0.402600  0.006600  0.152800  1
  H  H118  1  0.097400  0.993400  0.652800  1
  H  H119  1  0.243400  0.152600  0.902800  1
  H  H120  1  0.256600  0.847400  0.402800  1
  H  H121  1  0.081800  0.519000  0.391900  1
  H  H122  1  0.418200  0.481000  0.891900  1
  H  H123  1  0.231000  0.331800  0.641900  1
  H  H124  1  0.269000  0.668200  0.141900  1
  H  H125  1  0.581800  0.019000  0.891900  1
  H  H126  1  0.918200  0.981000  0.391900  1
  H  H127  1  0.731000  0.831800  0.141900  1
  H  H128  1  0.769000  0.168200  0.641900  1
  H  H129  1  0.918200  0.481000  0.608100  1
  H  H130  1  0.581800  0.519000  0.108100  1
  H  H131  1  0.769000  0.668200  0.358100  1
  H  H132  1  0.731000  0.331800  0.858100  1
  H  H133  1  0.418200  0.981000  0.108100  1
  H  H134  1  0.081800  0.019000  0.608100  1
  H  H135  1  0.269000  0.168200  0.858100  1
  H  H136  1  0.231000  0.831800  0.358100  1
  H  H137  1  0.127900  0.576700  0.347300  1
  H  H138  1  0.372100  0.423300  0.847300  1
  H  H139  1  0.173300  0.377900  0.597300  1
  H  H140  1  0.326700  0.622100  0.097300  1
  H  H141  1  0.627900  0.076700  0.847300  1
  H  H142  1  0.872100  0.923300  0.347300  1
  H  H143  1  0.673300  0.877900  0.097300  1
  H  H144  1  0.826700  0.122100  0.597300  1
  H  H145  1  0.872100  0.423300  0.652700  1
  H  H146  1  0.627900  0.576700  0.152700  1
  H  H147  1  0.826700  0.622100  0.402700  1
  H  H148  1  0.673300  0.377900  0.902700  1
  H  H149  1  0.372100  0.923300  0.152700  1
  H  H150  1  0.127900  0.076700  0.652700  1
  H  H151  1  0.326700  0.122100  0.902700  1
  H  H152  1  0.173300  0.877900  0.402700  1
  H  H153  1  0.157100  0.567200  0.392100  1
  H  H154  1  0.342900  0.432800  0.892100  1
  H  H155  1  0.182800  0.407100  0.642100  1
  H  H156  1  0.317200  0.592900  0.142100  1
  H  H157  1  0.657100  0.067200  0.892100  1
  H  H158  1  0.842900  0.932800  0.392100  1
  H  H159  1  0.682800  0.907100  0.142100  1
  H  H160  1  0.817200  0.092900  0.642100  1
  H  H161  1  0.842900  0.432800  0.607900  1
  H  H162  1  0.657100  0.567200  0.107900  1
  H  H163  1  0.817200  0.592900  0.357900  1
  H  H164  1  0.682800  0.407100  0.857900  1
  H  H165  1  0.342900  0.932800  0.107900  1
  H  H166  1  0.157100  0.067200  0.607900  1
  H  H167  1  0.317200  0.092900  0.857900  1
  H  H168  1  0.182800  0.907100  0.357900  1
  H  H169  1  0.167500  0.553500  0.283000  1
  H  H170  1  0.332500  0.446500  0.783000  1
  H  H171  1  0.196500  0.417500  0.533000  1
  H  H172  1  0.303500  0.582500  0.033000  1
  H  H173  1  0.667500  0.053500  0.783000  1
  H  H174  1  0.832500  0.946500  0.283000  1
  H  H175  1  0.696500  0.917500  0.033000  1
  H  H176  1  0.803500  0.082500  0.533000  1
  H  H177  1  0.832500  0.446500  0.717000  1
  H  H178  1  0.667500  0.553500  0.217000  1
  H  H179  1  0.803500  0.582500  0.467000  1
  H  H180  1  0.696500  0.417500  0.967000  1
  H  H181  1  0.332500  0.946500  0.217000  1
  H  H182  1  0.167500  0.053500  0.717000  1
  H  H183  1  0.303500  0.082500  0.967000  1
  H  H184  1  0.196500  0.917500  0.467000  1
  H  H185  1  0.150100  0.496000  0.292200  1
  H  H186  1  0.349900  0.504000  0.792200  1
  H  H187  1  0.254000  0.400100  0.542200  1
  H  H188  1  0.246000  0.599900  0.042200  1
  H  H189  1  0.650100  0.996000  0.792200  1
  H  H190  1  0.849900  0.004000  0.292200  1
  H  H191  1  0.754000  0.900100  0.042200  1
  H  H192  1  0.746000  0.099900  0.542200  1
  H  H193  1  0.849900  0.504000  0.707800  1
  H  H194  1  0.650100  0.496000  0.207800  1
  H  H195  1  0.746000  0.599900  0.457800  1
  H  H196  1  0.754000  0.400100  0.957800  1
  H  H197  1  0.349900  0.004000  0.207800  1
  H  H198  1  0.150100  0.996000  0.707800  1
  H  H199  1  0.246000  0.099900  0.957800  1
  H  H200  1  0.254000  0.900100  0.457800  1
  H  H201  1  0.208500  0.508300  0.281500  1
  H  H202  1  0.291500  0.491700  0.781500  1
  H  H203  1  0.241700  0.458500  0.531500  1
  H  H204  1  0.258300  0.541500  0.031500  1
  H  H205  1  0.708500  0.008300  0.781500  1
  H  H206  1  0.791500  0.991700  0.281500  1
  H  H207  1  0.741700  0.958500  0.031500  1
  H  H208  1  0.758300  0.041500  0.531500  1
  H  H209  1  0.791500  0.491700  0.718500  1
  H  H210  1  0.708500  0.508300  0.218500  1
  H  H211  1  0.758300  0.541500  0.468500  1
  H  H212  1  0.741700  0.458500  0.968500  1
  H  H213  1  0.291500  0.991700  0.218500  1
  H  H214  1  0.208500  0.008300  0.718500  1
  H  H215  1  0.258300  0.041500  0.968500  1
  H  H216  1  0.241700  0.958500  0.468500  1
  H  H217  1  0.261200  0.557700  0.326200  1
  H  H218  1  0.238800  0.442300  0.826200  1
  H  H219  1  0.192300  0.511200  0.576200  1
  H  H220  1  0.307700  0.488800  0.076200  1
  H  H221  1  0.761200  0.057700  0.826200  1
  H  H222  1  0.738800  0.942300  0.326200  1
  H  H223  1  0.692300  0.011200  0.076200  1
  H  H224  1  0.807700  0.988800  0.576200  1
  H  H225  1  0.738800  0.442300  0.673800  1
  H  H226  1  0.761200  0.557700  0.173800  1
  H  H227  1  0.807700  0.488800  0.423800  1
  H  H228  1  0.692300  0.511200  0.923800  1
  H  H229  1  0.238800  0.942300  0.173800  1
  H  H230  1  0.261200  0.057700  0.673800  1
  H  H231  1  0.307700  0.988800  0.923800  1
  H  H232  1  0.192300  0.011200  0.423800  1
  H  H233  1  0.240200  0.580400  0.370400  1
  H  H234  1  0.259800  0.419600  0.870400  1
  H  H235  1  0.169600  0.490200  0.620400  1
  H  H236  1  0.330400  0.509800  0.120400  1
  H  H237  1  0.740200  0.080400  0.870400  1
  H  H238  1  0.759800  0.919600  0.370400  1
  H  H239  1  0.669600  0.990200  0.120400  1
  H  H240  1  0.830400  0.009800  0.620400  1
  H  H241  1  0.759800  0.419600  0.629600  1
  H  H242  1  0.740200  0.580400  0.129600  1
  H  H243  1  0.830400  0.509800  0.379600  1
  H  H244  1  0.669600  0.490200  0.879600  1
  H  H245  1  0.259800  0.919600  0.129600  1
  H  H246  1  0.240200  0.080400  0.629600  1
  H  H247  1  0.330400  0.009800  0.879600  1
  H  H248  1  0.169600  0.990200  0.379600  1
  H  H249  1  0.218100  0.601000  0.325800  1
  H  H250  1  0.281900  0.399000  0.825800  1
  H  H251  1  0.149000  0.468100  0.575800  1
  H  H252  1  0.351000  0.531900  0.075800  1
  H  H253  1  0.718100  0.101000  0.825800  1
  H  H254  1  0.781900  0.899000  0.325800  1
  H  H255  1  0.649000  0.968100  0.075800  1
  H  H256  1  0.851000  0.031900  0.575800  1
  H  H257  1  0.781900  0.399000  0.674200  1
  H  H258  1  0.718100  0.601000  0.174200  1
  H  H259  1  0.851000  0.531900  0.424200  1
  H  H260  1  0.649000  0.468100  0.924200  1
  H  H261  1  0.281900  0.899000  0.174200  1
  H  H262  1  0.218100  0.101000  0.674200  1
  H  H263  1  0.351000  0.031900  0.924200  1
  H  H264  1  0.149000  0.968100  0.424200  1
  H  H265  1  0.602200  0.360000  0.321700  1
  H  H266  1  0.897800  0.640000  0.821700  1
  H  H267  1  0.390000  0.852200  0.571700  1
  H  H268  1  0.110000  0.147800  0.071700  1
  H  H269  1  0.102200  0.860000  0.821700  1
  H  H270  1  0.397800  0.140000  0.321700  1
  H  H271  1  0.890000  0.352200  0.071700  1
  H  H272  1  0.610000  0.647800  0.571700  1
  H  H273  1  0.397800  0.640000  0.678300  1
  H  H274  1  0.102200  0.360000  0.178300  1
  H  H275  1  0.610000  0.147800  0.428300  1
  H  H276  1  0.890000  0.852200  0.928300  1
  H  H277  1  0.897800  0.140000  0.178300  1
  H  H278  1  0.602200  0.860000  0.678300  1
  H  H279  1  0.110000  0.647800  0.928300  1
  H  H280  1  0.390000  0.352200  0.428300  1
  H  H281  1  0.580400  0.305000  0.306200  1
  H  H282  1  0.919600  0.695000  0.806200  1
  H  H283  1  0.445000  0.830400  0.556200  1
  H  H284  1  0.055000  0.169600  0.056200  1
  H  H285  1  0.080400  0.805000  0.806200  1
  H  H286  1  0.419600  0.195000  0.306200  1
  H  H287  1  0.945000  0.330400  0.056200  1
  H  H288  1  0.555000  0.669600  0.556200  1
  H  H289  1  0.419600  0.695000  0.693800  1
  H  H290  1  0.080400  0.305000  0.193800  1
  H  H291  1  0.555000  0.169600  0.443800  1
  H  H292  1  0.945000  0.830400  0.943800  1
  H  H293  1  0.919600  0.195000  0.193800  1
  H  H294  1  0.580400  0.805000  0.693800  1
  H  H295  1  0.055000  0.669600  0.943800  1
  H  H296  1  0.445000  0.330400  0.443800  1
  H  H297  1  0.676900  0.328400  0.330000  1
  H  H298  1  0.823100  0.671600  0.830000  1
  H  H299  1  0.421600  0.926900  0.580000  1
  H  H300  1  0.078400  0.073100  0.080000  1
  H  H301  1  0.176900  0.828400  0.830000  1
  H  H302  1  0.323100  0.171600  0.330000  1
  H  H303  1  0.921600  0.426900  0.080000  1
  H  H304  1  0.578400  0.573100  0.580000  1
  H  H305  1  0.323100  0.671600  0.670000  1
  H  H306  1  0.176900  0.328400  0.170000  1
  H  H307  1  0.578400  0.073100  0.420000  1
  H  H308  1  0.921600  0.926900  0.920000  1
  H  H309  1  0.823100  0.171600  0.170000  1
  H  H310  1  0.676900  0.828400  0.670000  1
  H  H311  1  0.078400  0.573100  0.920000  1
  H  H312  1  0.421600  0.426900  0.420000  1
  H  H313  1  0.654400  0.291100  0.365100  1
  H  H314  1  0.845600  0.708900  0.865100  1
  H  H315  1  0.458900  0.904400  0.615100  1
  H  H316  1  0.041100  0.095600  0.115100  1
  H  H317  1  0.154400  0.791100  0.865100  1
  H  H318  1  0.345600  0.208900  0.365100  1
  H  H319  1  0.958900  0.404400  0.115100  1
  H  H320  1  0.541100  0.595600  0.615100  1
  H  H321  1  0.345600  0.708900  0.634900  1
  H  H322  1  0.154400  0.291100  0.134900  1
  H  H323  1  0.541100  0.095600  0.384900  1
  H  H324  1  0.958900  0.904400  0.884900  1
  H  H325  1  0.845600  0.208900  0.134900  1
  H  H326  1  0.654400  0.791100  0.634900  1
  H  H327  1  0.041100  0.595600  0.884900  1
  H  H328  1  0.458900  0.404400  0.384900  1
  H  H329  1  0.672100  0.224100  0.328500  1
  H  H330  1  0.827900  0.775900  0.828500  1
  H  H331  1  0.525900  0.922100  0.578500  1
  H  H332  1  0.974100  0.077900  0.078500  1
  H  H333  1  0.172100  0.724100  0.828500  1
  H  H334  1  0.327900  0.275900  0.328500  1
  H  H335  1  0.025900  0.422100  0.078500  1
  H  H336  1  0.474100  0.577900  0.578500  1
  H  H337  1  0.327900  0.775900  0.671500  1
  H  H338  1  0.172100  0.224100  0.171500  1
  H  H339  1  0.474100  0.077900  0.421500  1
  H  H340  1  0.025900  0.922100  0.921500  1
  H  H341  1  0.827900  0.275900  0.171500  1
  H  H342  1  0.672100  0.724100  0.671500  1
  H  H343  1  0.974100  0.577900  0.921500  1
  H  H344  1  0.525900  0.422100  0.421500  1
  H  H345  1  0.656700  0.249600  0.283500  1
  H  H346  1  0.843300  0.750400  0.783500  1
  H  H347  1  0.500400  0.906700  0.533500  1
  H  H348  1  0.999600  0.093300  0.033500  1
  H  H349  1  0.156700  0.749600  0.783500  1
  H  H350  1  0.343300  0.250400  0.283500  1
  H  H351  1  0.000400  0.406700  0.033500  1
  H  H352  1  0.499600  0.593300  0.533500  1
  H  H353  1  0.343300  0.750400  0.716500  1
  H  H354  1  0.156700  0.249600  0.216500  1
  H  H355  1  0.499600  0.093300  0.466500  1
  H  H356  1  0.000400  0.906700  0.966500  1
  H  H357  1  0.843300  0.250400  0.216500  1
  H  H358  1  0.656700  0.749600  0.716500  1
  H  H359  1  0.999600  0.593300  0.966500  1
  H  H360  1  0.500400  0.406700  0.466500  1
  H  H361  1  0.739800  0.303400  0.310100  1
  H  H362  1  0.760200  0.696600  0.810100  1
  H  H363  1  0.446600  0.989800  0.560100  1
  H  H364  1  0.053400  0.010200  0.060100  1
  H  H365  1  0.239800  0.803400  0.810100  1
  H  H366  1  0.260200  0.196600  0.310100  1
  H  H367  1  0.946600  0.489800  0.060100  1
  H  H368  1  0.553400  0.510200  0.560100  1
  H  H369  1  0.260200  0.696600  0.689900  1
  H  H370  1  0.239800  0.303400  0.189900  1
  H  H371  1  0.553400  0.010200  0.439900  1
  H  H372  1  0.946600  0.989800  0.939900  1
  H  H373  1  0.760200  0.196600  0.189900  1
  H  H374  1  0.739800  0.803400  0.689900  1
  H  H375  1  0.053400  0.510200  0.939900  1
  H  H376  1  0.446600  0.489800  0.439900  1
  H  H377  1  0.754500  0.245100  0.318900  1
  H  H378  1  0.745500  0.754900  0.818900  1
  H  H379  1  0.504900  0.004500  0.568900  1
  H  H380  1  0.995100  0.995500  0.068900  1
  H  H381  1  0.254500  0.745100  0.818900  1
  H  H382  1  0.245500  0.254900  0.318900  1
  H  H383  1  0.004900  0.504500  0.068900  1
  H  H384  1  0.495100  0.495500  0.568900  1
  H  H385  1  0.245500  0.754900  0.681100  1
  H  H386  1  0.254500  0.245100  0.181100  1
  H  H387  1  0.495100  0.995500  0.431100  1
  H  H388  1  0.004900  0.004500  0.931100  1
  H  H389  1  0.745500  0.254900  0.181100  1
  H  H390  1  0.754500  0.745100  0.681100  1
  H  H391  1  0.995100  0.495500  0.931100  1
  H  H392  1  0.504900  0.504500  0.431100  1
  H  H393  1  0.740100  0.263300  0.271400  1
  H  H394  1  0.759900  0.736700  0.771400  1
  H  H395  1  0.486700  0.990100  0.521400  1
  H  H396  1  0.013300  0.009900  0.021400  1
  H  H397  1  0.240100  0.763300  0.771400  1
  H  H398  1  0.259900  0.236700  0.271400  1
  H  H399  1  0.986700  0.490100  0.021400  1
  H  H400  1  0.513300  0.509900  0.521400  1
  H  H401  1  0.259900  0.736700  0.728600  1
  H  H402  1  0.240100  0.263300  0.228600  1
  H  H403  1  0.513300  0.009900  0.478600  1
  H  H404  1  0.986700  0.990100  0.978600  1
  H  H405  1  0.759900  0.236700  0.228600  1
  H  H406  1  0.740100  0.763300  0.728600  1
  H  H407  1  0.013300  0.509900  0.978600  1
  H  H408  1  0.486700  0.490100  0.478600  1
  H  H409  1  0.463600  0.302800  0.471400  1
  H  H410  1  0.036400  0.697200  0.971400  1
  H  H411  1  0.447200  0.713600  0.721400  1
  H  H412  1  0.052800  0.286400  0.221400  1
  H  H413  1  0.963600  0.802800  0.971400  1
  H  H414  1  0.536400  0.197200  0.471400  1
  H  H415  1  0.947200  0.213600  0.221400  1
  H  H416  1  0.552800  0.786400  0.721400  1
  H  H417  1  0.536400  0.697200  0.528600  1
  H  H418  1  0.963600  0.302800  0.028600  1
  H  H419  1  0.552800  0.286400  0.278600  1
  H  H420  1  0.947200  0.713600  0.778600  1
  H  H421  1  0.036400  0.197200  0.028600  1
  H  H422  1  0.463600  0.802800  0.528600  1
  H  H423  1  0.052800  0.786400  0.778600  1
  H  H424  1  0.447200  0.213600  0.278600  1
  H  H425  1  0.476200  0.259700  0.505900  1
  H  H426  1  0.023800  0.740300  0.005900  1
  H  H427  1  0.490300  0.726200  0.755900  1
  H  H428  1  0.009700  0.273800  0.255900  1
  H  H429  1  0.976200  0.759700  0.005900  1
  H  H430  1  0.523800  0.240300  0.505900  1
  H  H431  1  0.990300  0.226200  0.255900  1
  H  H432  1  0.509700  0.773800  0.755900  1
  H  H433  1  0.523800  0.740300  0.494100  1
  H  H434  1  0.976200  0.259700  0.994100  1
  H  H435  1  0.509700  0.273800  0.244100  1
  H  H436  1  0.990300  0.726200  0.744100  1
  H  H437  1  0.023800  0.240300  0.994100  1
  H  H438  1  0.476200  0.759700  0.494100  1
  H  H439  1  0.009700  0.773800  0.744100  1
  H  H440  1  0.490300  0.226200  0.244100  1
  H  H441  1  0.538500  0.347100  0.502800  1
  H  H442  1  0.961500  0.652900  0.002800  1
  H  H443  1  0.402900  0.788500  0.752800  1
  H  H444  1  0.097100  0.211500  0.252800  1
  H  H445  1  0.038500  0.847100  0.002800  1
  H  H446  1  0.461500  0.152900  0.502800  1
  H  H447  1  0.902900  0.288500  0.252800  1
  H  H448  1  0.597100  0.711500  0.752800  1
  H  H449  1  0.461500  0.652900  0.497200  1
  H  H450  1  0.038500  0.347100  0.997200  1
  H  H451  1  0.597100  0.211500  0.247200  1
  H  H452  1  0.902900  0.788500  0.747200  1
  H  H453  1  0.961500  0.152900  0.997200  1
  H  H454  1  0.538500  0.847100  0.497200  1
  H  H455  1  0.097100  0.711500  0.747200  1
  H  H456  1  0.402900  0.288500  0.247200  1
  H  H457  1  0.529900  0.309600  0.542300  1
  H  H458  1  0.970100  0.690400  0.042300  1
  H  H459  1  0.440400  0.779900  0.792300  1
  H  H460  1  0.059600  0.220100  0.292300  1
  H  H461  1  0.029900  0.809600  0.042300  1
  H  H462  1  0.470100  0.190400  0.542300  1
  H  H463  1  0.940400  0.279900  0.292300  1
  H  H464  1  0.559600  0.720100  0.792300  1
  H  H465  1  0.470100  0.690400  0.457700  1
  H  H466  1  0.029900  0.309600  0.957700  1
  H  H467  1  0.559600  0.220100  0.207700  1
  H  H468  1  0.940400  0.779900  0.707700  1
  H  H469  1  0.970100  0.190400  0.957700  1
  H  H470  1  0.529900  0.809600  0.457700  1
  H  H471  1  0.059600  0.720100  0.707700  1
  H  H472  1  0.440400  0.279900  0.207700  1
  H  H473  1  0.447600  0.345600  0.552300  1
  H  H474  1  0.052400  0.654400  0.052300  1
  H  H475  1  0.404400  0.697600  0.802300  1
  H  H476  1  0.095600  0.302400  0.302300  1
  H  H477  1  0.947600  0.845600  0.052300  1
  H  H478  1  0.552400  0.154400  0.552300  1
  H  H479  1  0.904400  0.197600  0.302300  1
  H  H480  1  0.595600  0.802400  0.802300  1
  H  H481  1  0.552400  0.654400  0.447700  1
  H  H482  1  0.947600  0.345600  0.947700  1
  H  H483  1  0.595600  0.302400  0.197700  1
  H  H484  1  0.904400  0.697600  0.697700  1
  H  H485  1  0.052400  0.154400  0.947700  1
  H  H486  1  0.447600  0.845600  0.447700  1
  H  H487  1  0.095600  0.802400  0.697700  1
  H  H488  1  0.404400  0.197600  0.197700  1
  H  H489  1  0.458900  0.384500  0.514600  1
  H  H490  1  0.041100  0.615500  0.014600  1
  H  H491  1  0.365500  0.708900  0.764600  1
  H  H492  1  0.134500  0.291100  0.264600  1
  H  H493  1  0.958900  0.884500  0.014600  1
  H  H494  1  0.541100  0.115500  0.514600  1
  H  H495  1  0.865500  0.208900  0.264600  1
  H  H496  1  0.634500  0.791100  0.764600  1
  H  H497  1  0.541100  0.615500  0.485400  1
  H  H498  1  0.958900  0.384500  0.985400  1
  H  H499  1  0.634500  0.291100  0.235400  1
  H  H500  1  0.865500  0.708900  0.735400  1
  H  H501  1  0.041100  0.115500  0.985400  1
  H  H502  1  0.458900  0.884500  0.485400  1
  H  H503  1  0.134500  0.791100  0.735400  1
  H  H504  1  0.365500  0.208900  0.235400  1
  H  H505  1  0.474500  0.399200  0.599600  1
  H  H506  1  0.025500  0.600800  0.099600  1
  H  H507  1  0.350800  0.724500  0.849600  1
  H  H508  1  0.149200  0.275500  0.349600  1
  H  H509  1  0.974500  0.899200  0.099600  1
  H  H510  1  0.525500  0.100800  0.599600  1
  H  H511  1  0.850800  0.224500  0.349600  1
  H  H512  1  0.649200  0.775500  0.849600  1
  H  H513  1  0.525500  0.600800  0.400400  1
  H  H514  1  0.974500  0.399200  0.900400  1
  H  H515  1  0.649200  0.275500  0.150400  1
  H  H516  1  0.850800  0.724500  0.650400  1
  H  H517  1  0.025500  0.100800  0.900400  1
  H  H518  1  0.474500  0.899200  0.400400  1
  H  H519  1  0.149200  0.775500  0.650400  1
  H  H520  1  0.350800  0.224500  0.150400  1
  H  H521  1  0.478300  0.440600  0.562000  1
  H  H522  1  0.021700  0.559400  0.062000  1
  H  H523  1  0.309400  0.728300  0.812000  1
  H  H524  1  0.190600  0.271700  0.312000  1
  H  H525  1  0.978300  0.940600  0.062000  1
  H  H526  1  0.521700  0.059400  0.562000  1
  H  H527  1  0.809400  0.228300  0.312000  1
  H  H528  1  0.690600  0.771700  0.812000  1
  H  H529  1  0.521700  0.559400  0.438000  1
  H  H530  1  0.978300  0.440600  0.938000  1
  H  H531  1  0.690600  0.271700  0.188000  1
  H  H532  1  0.809400  0.728300  0.688000  1
  H  H533  1  0.021700  0.059400  0.938000  1
  H  H534  1  0.478300  0.940600  0.438000  1
  H  H535  1  0.190600  0.771700  0.688000  1
  H  H536  1  0.309400  0.228300  0.188000  1
  H  H537  1  0.527300  0.407700  0.574900  1
  H  H538  1  0.972700  0.592300  0.074900  1
  H  H539  1  0.342300  0.777300  0.824900  1
  H  H540  1  0.157700  0.222700  0.324900  1
  H  H541  1  0.027300  0.907700  0.074900  1
  H  H542  1  0.472700  0.092300  0.574900  1
  H  H543  1  0.842300  0.277300  0.324900  1
  H  H544  1  0.657700  0.722700  0.824900  1
  H  H545  1  0.472700  0.592300  0.425100  1
  H  H546  1  0.027300  0.407700  0.925100  1
  H  H547  1  0.657700  0.222700  0.175100  1
  H  H548  1  0.842300  0.777300  0.675100  1
  H  H549  1  0.972700  0.092300  0.925100  1
  H  H550  1  0.527300  0.907700  0.425100  1
  H  H551  1  0.157700  0.722700  0.675100  1
  H  H552  1  0.342300  0.277300  0.175100  1
  H  H553  1  0.525300  0.176800  0.491000  1
  H  H554  1  0.974700  0.823200  0.991000  1
  H  H555  1  0.573200  0.775300  0.741000  1
  H  H556  1  0.926800  0.224700  0.241000  1
  H  H557  1  0.025300  0.676800  0.991000  1
  H  H558  1  0.474700  0.323200  0.491000  1
  H  H559  1  0.073200  0.275300  0.241000  1
  H  H560  1  0.426800  0.724700  0.741000  1
  H  H561  1  0.474700  0.823200  0.509000  1
  H  H562  1  0.025300  0.176800  0.009000  1
  H  H563  1  0.426800  0.224700  0.259000  1
  H  H564  1  0.073200  0.775300  0.759000  1
  H  H565  1  0.974700  0.323200  0.009000  1
  H  H566  1  0.525300  0.676800  0.509000  1
  H  H567  1  0.926800  0.724700  0.759000  1
  H  H568  1  0.573200  0.275300  0.259000  1
  H  H569  1  0.490700  0.175100  0.448700  1
  H  H570  1  0.009300  0.824900  0.948700  1
  H  H571  1  0.574900  0.740700  0.698700  1
  H  H572  1  0.925100  0.259300  0.198700  1
  H  H573  1  0.990700  0.675100  0.948700  1
  H  H574  1  0.509300  0.324900  0.448700  1
  H  H575  1  0.074900  0.240700  0.198700  1
  H  H576  1  0.425100  0.759300  0.698700  1
  H  H577  1  0.509300  0.824900  0.551300  1
  H  H578  1  0.990700  0.175100  0.051300  1
  H  H579  1  0.425100  0.259300  0.301300  1
  H  H580  1  0.074900  0.740700  0.801300  1
  H  H581  1  0.009300  0.324900  0.051300  1
  H  H582  1  0.490700  0.675100  0.551300  1
  H  H583  1  0.925100  0.759300  0.801300  1
  H  H584  1  0.574900  0.240700  0.301300  1
  H  H585  1  0.562500  0.115900  0.453700  1
  H  H586  1  0.937500  0.884100  0.953700  1
  H  H587  1  0.634100  0.812500  0.703700  1
  H  H588  1  0.865900  0.187500  0.203700  1
  H  H589  1  0.062500  0.615900  0.953700  1
  H  H590  1  0.437500  0.384100  0.453700  1
  H  H591  1  0.134100  0.312500  0.203700  1
  H  H592  1  0.365900  0.687500  0.703700  1
  H  H593  1  0.437500  0.884100  0.546300  1
  H  H594  1  0.062500  0.115900  0.046300  1
  H  H595  1  0.365900  0.187500  0.296300  1
  H  H596  1  0.134100  0.812500  0.796300  1
  H  H597  1  0.937500  0.384100  0.046300  1
  H  H598  1  0.562500  0.615900  0.546300  1
  H  H599  1  0.865900  0.687500  0.796300  1
  H  H600  1  0.634100  0.312500  0.296300  1
  H  H601  1  0.597500  0.164000  0.443600  1
  H  H602  1  0.902500  0.836000  0.943600  1
  H  H603  1  0.586000  0.847500  0.693600  1
  H  H604  1  0.914000  0.152500  0.193600  1
  H  H605  1  0.097500  0.664000  0.943600  1
  H  H606  1  0.402500  0.336000  0.443600  1
  H  H607  1  0.086000  0.347500  0.193600  1
  H  H608  1  0.414000  0.652500  0.693600  1
  H  H609  1  0.402500  0.836000  0.556400  1
  H  H610  1  0.097500  0.164000  0.056400  1
  H  H611  1  0.414000  0.152500  0.306400  1
  H  H612  1  0.086000  0.847500  0.806400  1
  H  H613  1  0.902500  0.336000  0.056400  1
  H  H614  1  0.597500  0.664000  0.556400  1
  H  H615  1  0.914000  0.652500  0.806400  1
  H  H616  1  0.586000  0.347500  0.306400  1
  H  H617  1  0.532800  0.162700  0.378700  1
  H  H618  1  0.967200  0.837300  0.878700  1
  H  H619  1  0.587300  0.782800  0.628700  1
  H  H620  1  0.912700  0.217200  0.128700  1
  H  H621  1  0.032800  0.662700  0.878700  1
  H  H622  1  0.467200  0.337300  0.378700  1
  H  H623  1  0.087300  0.282800  0.128700  1
  H  H624  1  0.412700  0.717200  0.628700  1
  H  H625  1  0.467200  0.837300  0.621300  1
  H  H626  1  0.032800  0.162700  0.121300  1
  H  H627  1  0.412700  0.217200  0.371300  1
  H  H628  1  0.087300  0.782800  0.871300  1
  H  H629  1  0.967200  0.337300  0.121300  1
  H  H630  1  0.532800  0.662700  0.621300  1
  H  H631  1  0.912700  0.717200  0.871300  1
  H  H632  1  0.587300  0.282800  0.371300  1
  H  H633  1  0.546300  0.103600  0.386500  1
  H  H634  1  0.953700  0.896400  0.886500  1
  H  H635  1  0.646400  0.796300  0.636500  1
  H  H636  1  0.853600  0.203700  0.136500  1
  H  H637  1  0.046300  0.603600  0.886500  1
  H  H638  1  0.453700  0.396400  0.386500  1
  H  H639  1  0.146400  0.296300  0.136500  1
  H  H640  1  0.353600  0.703700  0.636500  1
  H  H641  1  0.453700  0.896400  0.613500  1
  H  H642  1  0.046300  0.103600  0.113500  1
  H  H643  1  0.353600  0.203700  0.363500  1
  H  H644  1  0.146400  0.796300  0.863500  1
  H  H645  1  0.953700  0.396400  0.113500  1
  H  H646  1  0.546300  0.603600  0.613500  1
  H  H647  1  0.853600  0.703700  0.863500  1
  H  H648  1  0.646400  0.296300  0.363500  1
  H  H649  1  0.637100  0.130600  0.389400  1
  H  H650  1  0.862900  0.869400  0.889400  1
  H  H651  1  0.619400  0.887100  0.639400  1
  H  H652  1  0.880600  0.112900  0.139400  1
  H  H653  1  0.137100  0.630600  0.889400  1
  H  H654  1  0.362900  0.369400  0.389400  1
  H  H655  1  0.119400  0.387100  0.139400  1
  H  H656  1  0.380600  0.612900  0.639400  1
  H  H657  1  0.362900  0.869400  0.610600  1
  H  H658  1  0.137100  0.130600  0.110600  1
  H  H659  1  0.380600  0.112900  0.360600  1
  H  H660  1  0.119400  0.887100  0.860600  1
  H  H661  1  0.862900  0.369400  0.110600  1
  H  H662  1  0.637100  0.630600  0.610600  1
  H  H663  1  0.880600  0.612900  0.860600  1
  H  H664  1  0.619400  0.387100  0.360600  1
  H  H665  1  0.618600  0.184100  0.370400  1
  H  H666  1  0.881400  0.815900  0.870400  1
  H  H667  1  0.565900  0.868600  0.620400  1
  H  H668  1  0.934100  0.131400  0.120400  1
  H  H669  1  0.118600  0.684100  0.870400  1
  H  H670  1  0.381400  0.315900  0.370400  1
  H  H671  1  0.065900  0.368600  0.120400  1
  H  H672  1  0.434100  0.631400  0.620400  1
  H  H673  1  0.381400  0.815900  0.629600  1
  H  H674  1  0.118600  0.184100  0.129600  1
  H  H675  1  0.434100  0.131400  0.379600  1
  H  H676  1  0.065900  0.868600  0.879600  1
  H  H677  1  0.881400  0.315900  0.129600  1
  H  H678  1  0.618600  0.684100  0.629600  1
  H  H679  1  0.934100  0.631400  0.879600  1
  H  H680  1  0.565900  0.368600  0.379600  1
  H  H681  1  0.612100  0.133200  0.342700  1
  H  H682  1  0.887900  0.866800  0.842700  1
  H  H683  1  0.616800  0.862100  0.592700  1
  H  H684  1  0.883200  0.137900  0.092700  1
  H  H685  1  0.112100  0.633200  0.842700  1
  H  H686  1  0.387900  0.366800  0.342700  1
  H  H687  1  0.116800  0.362100  0.092700  1
  H  H688  1  0.383200  0.637900  0.592700  1
  H  H689  1  0.387900  0.866800  0.657300  1
  H  H690  1  0.112100  0.133200  0.157300  1
  H  H691  1  0.383200  0.137900  0.407300  1
  H  H692  1  0.116800  0.862100  0.907300  1
  H  H693  1  0.887900  0.366800  0.157300  1
  H  H694  1  0.612100  0.633200  0.657300  1
  H  H695  1  0.883200  0.637900  0.907300  1
  H  H696  1  0.616800  0.362100  0.407300  1
  H  H697  1  0.633200  0.342400  0.329700  1
  H  H698  1  0.866800  0.657600  0.829700  1
  H  H699  1  0.407600  0.883200  0.579700  1
  H  H700  1  0.092400  0.116800  0.079700  1
  H  H701  1  0.133200  0.842400  0.829700  1
  H  H702  1  0.366800  0.157600  0.329700  1
  H  H703  1  0.907600  0.383200  0.079700  1
  H  H704  1  0.592400  0.616800  0.579700  1
  H  H705  1  0.366800  0.657600  0.670300  1
  H  H706  1  0.133200  0.342400  0.170300  1
  H  H707  1  0.592400  0.116800  0.420300  1
  H  H708  1  0.907600  0.883200  0.920300  1
  H  H709  1  0.866800  0.157600  0.170300  1
  H  H710  1  0.633200  0.842400  0.670300  1
  H  H711  1  0.092400  0.616800  0.920300  1
  H  H712  1  0.407600  0.383200  0.420300  1
  H  H713  1  0.575300  0.345100  0.313900  1
  H  H714  1  0.924700  0.654900  0.813900  1
  H  H715  1  0.404900  0.825300  0.563900  1
  H  H716  1  0.095100  0.174700  0.063900  1
  H  H717  1  0.075300  0.845100  0.813900  1
  H  H718  1  0.424700  0.154900  0.313900  1
  H  H719  1  0.904900  0.325300  0.063900  1
  H  H720  1  0.595100  0.674700  0.563900  1
  H  H721  1  0.424700  0.654900  0.686100  1
  H  H722  1  0.075300  0.345100  0.186100  1
  H  H723  1  0.595100  0.174700  0.436100  1
  H  H724  1  0.904900  0.825300  0.936100  1
  H  H725  1  0.924700  0.154900  0.186100  1
  H  H726  1  0.575300  0.845100  0.686100  1
  H  H727  1  0.095100  0.674700  0.936100  1
  H  H728  1  0.404900  0.325300  0.436100  1
  H  H729  1  0.615100  0.286900  0.271100  1
  H  H730  1  0.884900  0.713100  0.771100  1
  H  H731  1  0.463100  0.865100  0.521100  1
  H  H732  1  0.036900  0.134900  0.021100  1
  H  H733  1  0.115100  0.786900  0.771100  1
  H  H734  1  0.384900  0.213100  0.271100  1
  H  H735  1  0.963100  0.365100  0.021100  1
  H  H736  1  0.536900  0.634900  0.521100  1
  H  H737  1  0.384900  0.713100  0.728900  1
  H  H738  1  0.115100  0.286900  0.228900  1
  H  H739  1  0.536900  0.134900  0.478900  1
  H  H740  1  0.963100  0.865100  0.978900  1
  H  H741  1  0.884900  0.213100  0.228900  1
  H  H742  1  0.615100  0.786900  0.728900  1
  H  H743  1  0.036900  0.634900  0.978900  1
  H  H744  1  0.463100  0.365100  0.478900  1
  H  H745  1  0.652400  0.241400  0.352600  1
  H  H746  1  0.847600  0.758600  0.852600  1
  H  H747  1  0.508600  0.902400  0.602600  1
  H  H748  1  0.991400  0.097600  0.102600  1
  H  H749  1  0.152400  0.741400  0.852600  1
  H  H750  1  0.347600  0.258600  0.352600  1
  H  H751  1  0.008600  0.402400  0.102600  1
  H  H752  1  0.491400  0.597600  0.602600  1
  H  H753  1  0.347600  0.758600  0.647400  1
  H  H754  1  0.152400  0.241400  0.147400  1
  H  H755  1  0.491400  0.097600  0.397400  1
  H  H756  1  0.008600  0.902400  0.897400  1
  H  H757  1  0.847600  0.258600  0.147400  1
  H  H758  1  0.652400  0.741400  0.647400  1
  H  H759  1  0.991400  0.597600  0.897400  1
  H  H760  1  0.508600  0.402400  0.397400  1
  H  H761  1  0.687900  0.277000  0.322900  1
  H  H762  1  0.812100  0.723000  0.822900  1
  H  H763  1  0.473000  0.937900  0.572900  1
  H  H764  1  0.027000  0.062100  0.072900  1
  H  H765  1  0.187900  0.777000  0.822900  1
  H  H766  1  0.312100  0.223000  0.322900  1
  H  H767  1  0.973000  0.437900  0.072900  1
  H  H768  1  0.527000  0.562100  0.572900  1
  H  H769  1  0.312100  0.723000  0.677100  1
  H  H770  1  0.187900  0.277000  0.177100  1
  H  H771  1  0.527000  0.062100  0.427100  1
  H  H772  1  0.973000  0.937900  0.927100  1
  H  H773  1  0.812100  0.223000  0.177100  1
  H  H774  1  0.687900  0.777000  0.677100  1
  H  H775  1  0.027000  0.562100  0.927100  1
  H  H776  1  0.473000  0.437900  0.427100  1
  H  H777  1  0.639300  0.195300  0.280000  1
  H  H778  1  0.860700  0.804700  0.780000  1
  H  H779  1  0.554700  0.889300  0.530000  1
  H  H780  1  0.945300  0.110700  0.030000  1
  H  H781  1  0.139300  0.695300  0.780000  1
  H  H782  1  0.360700  0.304700  0.280000  1
  H  H783  1  0.054700  0.389300  0.030000  1
  H  H784  1  0.445300  0.610700  0.530000  1
  H  H785  1  0.360700  0.804700  0.720000  1
  H  H786  1  0.139300  0.195300  0.220000  1
  H  H787  1  0.445300  0.110700  0.470000  1
  H  H788  1  0.054700  0.889300  0.970000  1
  H  H789  1  0.860700  0.304700  0.220000  1
  H  H790  1  0.639300  0.695300  0.720000  1
  H  H791  1  0.945300  0.610700  0.970000  1
  H  H792  1  0.554700  0.389300  0.470000  1
  H  H793  1  0.695700  0.216800  0.272000  1
  H  H794  1  0.804300  0.783200  0.772000  1
  H  H795  1  0.533200  0.945700  0.522000  1
  H  H796  1  0.966800  0.054300  0.022000  1
  H  H797  1  0.195700  0.716800  0.772000  1
  H  H798  1  0.304300  0.283200  0.272000  1
  H  H799  1  0.033200  0.445700  0.022000  1
  H  H800  1  0.466800  0.554300  0.522000  1
  H  H801  1  0.304300  0.783200  0.728000  1
  H  H802  1  0.195700  0.216800  0.228000  1
  H  H803  1  0.466800  0.054300  0.478000  1
  H  H804  1  0.033200  0.945700  0.978000  1
  H  H805  1  0.804300  0.283200  0.228000  1
  H  H806  1  0.695700  0.716800  0.728000  1
  H  H807  1  0.966800  0.554300  0.978000  1
  H  H808  1  0.533200  0.445700  0.478000  1
  H  H809  1  0.685000  0.179000  0.311300  1
  H  H810  1  0.815000  0.821000  0.811300  1
  H  H811  1  0.571000  0.935000  0.561300  1
  H  H812  1  0.929000  0.065000  0.061300  1
  H  H813  1  0.185000  0.679000  0.811300  1
  H  H814  1  0.315000  0.321000  0.311300  1
  H  H815  1  0.071000  0.435000  0.061300  1
  H  H816  1  0.429000  0.565000  0.561300  1
  H  H817  1  0.315000  0.821000  0.688700  1
  H  H818  1  0.185000  0.179000  0.188700  1
  H  H819  1  0.429000  0.065000  0.438700  1
  H  H820  1  0.071000  0.935000  0.938700  1
  H  H821  1  0.815000  0.321000  0.188700  1
  H  H822  1  0.685000  0.679000  0.688700  1
  H  H823  1  0.929000  0.565000  0.938700  1
  H  H824  1  0.571000  0.435000  0.438700  1
  H  H825  1  0.588500  0.126700  0.404500  1
  H  H826  1  0.911500  0.873300  0.904500  1
  H  H827  1  0.623300  0.838500  0.654500  1
  H  H828  1  0.876700  0.161500  0.154500  1
  H  H829  1  0.088500  0.626700  0.904500  1
  H  H830  1  0.411500  0.373300  0.404500  1
  H  H831  1  0.123300  0.338500  0.154500  1
  H  H832  1  0.376700  0.661500  0.654500  1
  H  H833  1  0.411500  0.873300  0.595500  1
  H  H834  1  0.088500  0.126700  0.095500  1
  H  H835  1  0.376700  0.161500  0.345500  1
  H  H836  1  0.123300  0.838500  0.845500  1
  H  H837  1  0.911500  0.373300  0.095500  1
  H  H838  1  0.588500  0.626700  0.595500  1
  H  H839  1  0.876700  0.661500  0.845500  1
  H  H840  1  0.623300  0.338500  0.345500  1
  H  H841  1  0.594000  0.186300  0.414600  1
  H  H842  1  0.906000  0.813700  0.914600  1
  H  H843  1  0.563700  0.844000  0.664600  1
  H  H844  1  0.936300  0.156000  0.164600  1
  H  H845  1  0.094000  0.686300  0.914600  1
  H  H846  1  0.406000  0.313700  0.414600  1
  H  H847  1  0.063700  0.344000  0.164600  1
  H  H848  1  0.436300  0.656000  0.664600  1
  H  H849  1  0.406000  0.813700  0.585400  1
  H  H850  1  0.094000  0.186300  0.085400  1
  H  H851  1  0.436300  0.156000  0.335400  1
  H  H852  1  0.063700  0.844000  0.835400  1
  H  H853  1  0.906000  0.313700  0.085400  1
  H  H854  1  0.594000  0.686300  0.585400  1
  H  H855  1  0.936300  0.656000  0.835400  1
  H  H856  1  0.563700  0.344000  0.335400  1
  H  H857  1  0.516900  0.189100  0.450000  1
  H  H858  1  0.983100  0.810900  0.950000  1
  H  H859  1  0.560900  0.766900  0.700000  1
  H  H860  1  0.939100  0.233100  0.200000  1
  H  H861  1  0.016900  0.689100  0.950000  1
  H  H862  1  0.483100  0.310900  0.450000  1
  H  H863  1  0.060900  0.266900  0.200000  1
  H  H864  1  0.439100  0.733100  0.700000  1
  H  H865  1  0.483100  0.810900  0.550000  1
  H  H866  1  0.016900  0.189100  0.050000  1
  H  H867  1  0.439100  0.233100  0.300000  1
  H  H868  1  0.060900  0.766900  0.800000  1
  H  H869  1  0.983100  0.310900  0.050000  1
  H  H870  1  0.516900  0.689100  0.550000  1
  H  H871  1  0.939100  0.733100  0.800000  1
  H  H872  1  0.560900  0.266900  0.300000  1
  H  H873  1  0.539700  0.134700  0.464800  1
  H  H874  1  0.960300  0.865300  0.964800  1
  H  H875  1  0.615300  0.789700  0.714800  1
  H  H876  1  0.884700  0.210300  0.214800  1
  H  H877  1  0.039700  0.634700  0.964800  1
  H  H878  1  0.460300  0.365300  0.464800  1
  H  H879  1  0.115300  0.289700  0.214800  1
  H  H880  1  0.384700  0.710300  0.714800  1
  H  H881  1  0.460300  0.865300  0.535200  1
  H  H882  1  0.039700  0.134700  0.035200  1
  H  H883  1  0.384700  0.210300  0.285200  1
  H  H884  1  0.115300  0.789700  0.785200  1
  H  H885  1  0.960300  0.365300  0.035200  1
  H  H886  1  0.539700  0.634700  0.535200  1
  H  H887  1  0.884700  0.710300  0.785200  1
  H  H888  1  0.615300  0.289700  0.285200  1
  H  H889  1  0.462600  0.153300  0.401300  1
  H  H890  1  0.037400  0.846700  0.901300  1
  H  H891  1  0.596700  0.712600  0.651300  1
  H  H892  1  0.903300  0.287400  0.151300  1
  H  H893  1  0.962600  0.653300  0.901300  1
  H  H894  1  0.537400  0.346700  0.401300  1
  H  H895  1  0.096700  0.212600  0.151300  1
  H  H896  1  0.403300  0.787400  0.651300  1
  H  H897  1  0.537400  0.846700  0.598700  1
  H  H898  1  0.962600  0.153300  0.098700  1
  H  H899  1  0.403300  0.287400  0.348700  1
  H  H900  1  0.096700  0.712600  0.848700  1
  H  H901  1  0.037400  0.346700  0.098700  1
  H  H902  1  0.462600  0.653300  0.598700  1
  H  H903  1  0.903300  0.787400  0.848700  1
  H  H904  1  0.596700  0.212600  0.348700  1
  H  H905  1  0.500800  0.107200  0.391200  1
  H  H906  1  0.999200  0.892800  0.891200  1
  H  H907  1  0.642800  0.750800  0.641200  1
  H  H908  1  0.857200  0.249200  0.141200  1
  H  H909  1  0.000800  0.607200  0.891200  1
  H  H910  1  0.499200  0.392800  0.391200  1
  H  H911  1  0.142800  0.250800  0.141200  1
  H  H912  1  0.357200  0.749200  0.641200  1
  H  H913  1  0.499200  0.892800  0.608800  1
  H  H914  1  0.000800  0.107200  0.108800  1
  H  H915  1  0.357200  0.249200  0.358800  1
  H  H916  1  0.142800  0.750800  0.858800  1
  H  H917  1  0.999200  0.392800  0.108800  1
  H  H918  1  0.500800  0.607200  0.608800  1
  H  H919  1  0.857200  0.749200  0.858800  1
  H  H920  1  0.642800  0.250800  0.358800  1
  H  H921  1  0.449000  0.106400  0.471000  1
  H  H922  1  0.051000  0.893600  0.971000  1
  H  H923  1  0.643600  0.699000  0.721000  1
  H  H924  1  0.856400  0.301000  0.221000  1
  H  H925  1  0.949000  0.606400  0.971000  1
  H  H926  1  0.551000  0.393600  0.471000  1
  H  H927  1  0.143600  0.199000  0.221000  1
  H  H928  1  0.356400  0.801000  0.721000  1
  H  H929  1  0.551000  0.893600  0.529000  1
  H  H930  1  0.949000  0.106400  0.029000  1
  H  H931  1  0.356400  0.301000  0.279000  1
  H  H932  1  0.143600  0.699000  0.779000  1
  H  H933  1  0.051000  0.393600  0.029000  1
  H  H934  1  0.449000  0.606400  0.529000  1
  H  H935  1  0.856400  0.801000  0.779000  1
  H  H936  1  0.643600  0.199000  0.279000  1
  H  H937  1  0.469200  0.058400  0.444200  1
  H  H938  1  0.030800  0.941600  0.944200  1
  H  H939  1  0.691600  0.719200  0.694200  1
  H  H940  1  0.808400  0.280800  0.194200  1
  H  H941  1  0.969200  0.558400  0.944200  1
  H  H942  1  0.530800  0.441600  0.444200  1
  H  H943  1  0.191600  0.219200  0.194200  1
  H  H944  1  0.308400  0.780800  0.694200  1
  H  H945  1  0.530800  0.941600  0.555800  1
  H  H946  1  0.969200  0.058400  0.055800  1
  H  H947  1  0.308400  0.280800  0.305800  1
  H  H948  1  0.191600  0.719200  0.805800  1
  H  H949  1  0.030800  0.441600  0.055800  1
  H  H950  1  0.469200  0.558400  0.555800  1
  H  H951  1  0.808400  0.780800  0.805800  1
  H  H952  1  0.691600  0.219200  0.305800  1
  H  H953  1  0.418900  0.087900  0.429200  1
  H  H954  1  0.081100  0.912100  0.929200  1
  H  H955  1  0.662100  0.668900  0.679200  1
  H  H956  1  0.837900  0.331100  0.179200  1
  H  H957  1  0.918900  0.587900  0.929200  1
  H  H958  1  0.581100  0.412100  0.429200  1
  H  H959  1  0.162100  0.168900  0.179200  1
  H  H960  1  0.337900  0.831100  0.679200  1
  H  H961  1  0.581100  0.912100  0.570800  1
  H  H962  1  0.918900  0.087900  0.070800  1
  H  H963  1  0.337900  0.331100  0.320800  1
  H  H964  1  0.162100  0.668900  0.820800  1
  H  H965  1  0.081100  0.412100  0.070800  1
  H  H966  1  0.418900  0.587900  0.570800  1
  H  H967  1  0.837900  0.831100  0.820800  1
  H  H968  1  0.662100  0.168900  0.320800  1
  H  H969  1  0.582500  0.317500  0.362500  1
  H  H970  1  0.917500  0.682500  0.862500  1
  H  H971  1  0.432500  0.832500  0.612500  1
  H  H972  1  0.067500  0.167500  0.112500  1
  H  H973  1  0.082500  0.817500  0.862500  1
  H  H974  1  0.417500  0.182500  0.362500  1
  H  H975  1  0.932500  0.332500  0.112500  1
  H  H976  1  0.567500  0.667500  0.612500  1
  H  H977  1  0.417500  0.682500  0.637500  1
  H  H978  1  0.082500  0.317500  0.137500  1
  H  H979  1  0.567500  0.167500  0.387500  1
  H  H980  1  0.932500  0.832500  0.887500  1
  H  H981  1  0.917500  0.182500  0.137500  1
  H  H982  1  0.582500  0.817500  0.637500  1
  H  H983  1  0.067500  0.667500  0.887500  1
  H  H984  1  0.432500  0.332500  0.387500  1
  H  H985  1  0.557400  0.256600  0.292300  1
  H  H986  1  0.942600  0.743400  0.792300  1
  H  H987  1  0.493400  0.807400  0.542300  1
  H  H988  1  0.006600  0.192600  0.042300  1
  H  H989  1  0.057400  0.756600  0.792300  1
  H  H990  1  0.442600  0.243400  0.292300  1
  H  H991  1  0.993400  0.307400  0.042300  1
  H  H992  1  0.506600  0.692600  0.542300  1
  H  H993  1  0.442600  0.743400  0.707700  1
  H  H994  1  0.057400  0.256600  0.207700  1
  H  H995  1  0.506600  0.192600  0.457700  1
  H  H996  1  0.993400  0.807400  0.957700  1
  H  H997  1  0.942600  0.243400  0.207700  1
  H  H998  1  0.557400  0.756600  0.707700  1
  H  H999  1  0.006600  0.692600  0.957700  1
  H  H1000  1  0.493400  0.307400  0.457700  1
  H  H1001  1  0.579500  0.254000  0.303000  1
  H  H1002  1  0.920500  0.746000  0.803000  1
  H  H1003  1  0.496000  0.829500  0.553000  1
  H  H1004  1  0.004000  0.170500  0.053000  1
  H  H1005  1  0.079500  0.754000  0.803000  1
  H  H1006  1  0.420500  0.246000  0.303000  1
  H  H1007  1  0.996000  0.329500  0.053000  1
  H  H1008  1  0.504000  0.670500  0.553000  1
  H  H1009  1  0.420500  0.746000  0.697000  1
  H  H1010  1  0.079500  0.254000  0.197000  1
  H  H1011  1  0.504000  0.170500  0.447000  1
  H  H1012  1  0.996000  0.829500  0.947000  1
  H  H1013  1  0.920500  0.246000  0.197000  1
  H  H1014  1  0.579500  0.754000  0.697000  1
  H  H1015  1  0.004000  0.670500  0.947000  1
  H  H1016  1  0.496000  0.329500  0.447000  1
  H  H1017  1  0.521400  0.382300  0.383600  1.0
  H  H1018  1  0.978600  0.617700  0.883600  1.0
  H  H1019  1  0.367700  0.771400  0.633600  1.0
  H  H1020  1  0.132300  0.228600  0.133600  1.0
  H  H1021  1  0.021400  0.882300  0.883600  1.0
  H  H1022  1  0.478600  0.117700  0.383600  1.0
  H  H1023  1  0.867700  0.271400  0.133600  1.0
  H  H1024  1  0.632300  0.728600  0.633600  1.0
  H  H1025  1  0.478600  0.617700  0.616400  1.0
  H  H1026  1  0.021400  0.382300  0.116400  1.0
  H  H1027  1  0.632300  0.228600  0.366400  1.0
  H  H1028  1  0.867700  0.771400  0.866400  1.0
  H  H1029  1  0.978600  0.117700  0.116400  1.0
  H  H1030  1  0.521400  0.882300  0.616400  1.0
  H  H1031  1  0.132300  0.728600  0.866400  1.0
  H  H1032  1  0.367700  0.271400  0.366400  1.0
  H  H1033  1  0.575600  0.399600  0.401700  1.0
  H  H1034  1  0.924400  0.600400  0.901700  1.0
  H  H1035  1  0.350400  0.825600  0.651700  1.0
  H  H1036  1  0.149600  0.174400  0.151700  1.0
  H  H1037  1  0.075600  0.899600  0.901700  1.0
  H  H1038  1  0.424400  0.100400  0.401700  1.0
  H  H1039  1  0.850400  0.325600  0.151700  1.0
  H  H1040  1  0.649600  0.674400  0.651700  1.0
  H  H1041  1  0.424400  0.600400  0.598300  1.0
  H  H1042  1  0.075600  0.399600  0.098300  1.0
  H  H1043  1  0.649600  0.174400  0.348300  1.0
  H  H1044  1  0.850400  0.825600  0.848300  1.0
  H  H1045  1  0.924400  0.100400  0.098300  1.0
  H  H1046  1  0.575600  0.899600  0.598300  1.0
  H  H1047  1  0.149600  0.674400  0.848300  1.0
  H  H1048  1  0.350400  0.325600  0.348300  1.0
  H  H1049  1  0.488500  0.371200  0.450900  1.0
  H  H1050  1  0.011500  0.628800  0.950900  1.0
  H  H1051  1  0.378800  0.738500  0.700900  1.0
  H  H1052  1  0.121200  0.261500  0.200900  1.0
  H  H1053  1  0.988500  0.871200  0.950900  1.0
  H  H1054  1  0.511500  0.128800  0.450900  1.0
  H  H1055  1  0.878800  0.238500  0.200900  1.0
  H  H1056  1  0.621200  0.761500  0.700900  1.0
  H  H1057  1  0.511500  0.628800  0.549100  1.0
  H  H1058  1  0.988500  0.371200  0.049100  1.0
  H  H1059  1  0.621200  0.261500  0.299100  1.0
  H  H1060  1  0.878800  0.738500  0.799100  1.0
  H  H1061  1  0.011500  0.128800  0.049100  1.0
  H  H1062  1  0.488500  0.871200  0.549100  1.0
  H  H1063  1  0.121200  0.761500  0.799100  1.0
  H  H1064  1  0.378800  0.238500  0.299100  1.0
  H  H1065  1  0.543600  0.356100  0.471300  1.0
  H  H1066  1  0.956400  0.643900  0.971300  1.0
  H  H1067  1  0.393900  0.793600  0.721300  1.0
  H  H1068  1  0.106100  0.206400  0.221300  1.0
  H  H1069  1  0.043600  0.856100  0.971300  1.0
  H  H1070  1  0.456400  0.143900  0.471300  1.0
  H  H1071  1  0.893900  0.293600  0.221300  1.0
  H  H1072  1  0.606100  0.706400  0.721300  1.0
  H  H1073  1  0.456400  0.643900  0.528700  1.0
  H  H1074  1  0.043600  0.356100  0.028700  1.0
  H  H1075  1  0.606100  0.206400  0.278700  1.0
  H  H1076  1  0.893900  0.793600  0.778700  1.0
  H  H1077  1  0.956400  0.143900  0.028700  1.0
  H  H1078  1  0.543600  0.856100  0.528700  1.0
  H  H1079  1  0.106100  0.706400  0.778700  1.0
  H  H1080  1  0.393900  0.293600  0.278700  1.0
  H  H1081  1  0.564200  0.446500  0.430800  1.0
  H  H1082  1  0.935800  0.553500  0.930800  1.0
  H  H1083  1  0.303500  0.814200  0.680800  1.0
  H  H1084  1  0.196500  0.185800  0.180800  1.0
  H  H1085  1  0.064200  0.946500  0.930800  1.0
  H  H1086  1  0.435800  0.053500  0.430800  1.0
  H  H1087  1  0.803500  0.314200  0.180800  1.0
  H  H1088  1  0.696500  0.685800  0.680800  1.0
  H  H1089  1  0.435800  0.553500  0.569200  1.0
  H  H1090  1  0.064200  0.446500  0.069200  1.0
  H  H1091  1  0.696500  0.185800  0.319200  1.0
  H  H1092  1  0.803500  0.814200  0.819200  1.0
  H  H1093  1  0.935800  0.053500  0.069200  1.0
  H  H1094  1  0.564200  0.946500  0.569200  1.0
  H  H1095  1  0.196500  0.685800  0.819200  1.0
  H  H1096  1  0.303500  0.314200  0.319200  1.0
  H  H1097  1  0.554700  0.444500  0.481900  1.0
  H  H1098  1  0.945300  0.555500  0.981900  1.0
  H  H1099  1  0.305500  0.804700  0.731900  1.0
  H  H1100  1  0.194500  0.195300  0.231900  1.0
  H  H1101  1  0.054700  0.944500  0.981900  1.0
  H  H1102  1  0.445300  0.055500  0.481900  1.0
  H  H1103  1  0.805500  0.304700  0.231900  1.0
  H  H1104  1  0.694500  0.695300  0.731900  1.0
  H  H1105  1  0.445300  0.555500  0.518100  1.0
  H  H1106  1  0.054700  0.444500  0.018100  1.0
  H  H1107  1  0.694500  0.195300  0.268100  1.0
  H  H1108  1  0.805500  0.804700  0.768100  1.0
  H  H1109  1  0.945300  0.055500  0.018100  1.0
  H  H1110  1  0.554700  0.944500  0.518100  1.0
  H  H1111  1  0.194500  0.695300  0.768100  1.0
  H  H1112  1  0.305500  0.304700  0.268100  1.0
  H  H1113  1  0.460400  0.436500  0.445900  1.0
  H  H1114  1  0.039600  0.563500  0.945900  1.0
  H  H1115  1  0.313500  0.710400  0.695900  1.0
  H  H1116  1  0.186500  0.289600  0.195900  1.0
  H  H1117  1  0.960400  0.936500  0.945900  1.0
  H  H1118  1  0.539600  0.063500  0.445900  1.0
  H  H1119  1  0.813500  0.210400  0.195900  1.0
  H  H1120  1  0.686500  0.789600  0.695900  1.0
  H  H1121  1  0.539600  0.563500  0.554100  1.0
  H  H1122  1  0.960400  0.436500  0.054100  1.0
  H  H1123  1  0.686500  0.289600  0.304100  1.0
  H  H1124  1  0.813500  0.710400  0.804100  1.0
  H  H1125  1  0.039600  0.063500  0.054100  1.0
  H  H1126  1  0.460400  0.936500  0.554100  1.0
  H  H1127  1  0.186500  0.789600  0.804100  1.0
  H  H1128  1  0.313500  0.210400  0.304100  1.0
  H  H1129  1  0.480500  0.485400  0.471600  1.0
  H  H1130  1  0.019500  0.514600  0.971600  1.0
  H  H1131  1  0.264600  0.730500  0.721600  1.0
  H  H1132  1  0.235400  0.269500  0.221600  1.0
  H  H1133  1  0.980500  0.985400  0.971600  1.0
  H  H1134  1  0.519500  0.014600  0.471600  1.0
  H  H1135  1  0.764600  0.230500  0.221600  1.0
  H  H1136  1  0.735400  0.769500  0.721600  1.0
  H  H1137  1  0.519500  0.514600  0.528400  1.0
  H  H1138  1  0.980500  0.485400  0.028400  1.0
  H  H1139  1  0.735400  0.269500  0.278400  1.0
  H  H1140  1  0.764600  0.730500  0.778400  1.0
  H  H1141  1  0.019500  0.014600  0.028400  1.0
  H  H1142  1  0.480500  0.985400  0.528400  1.0
  H  H1143  1  0.235400  0.769500  0.778400  1.0
  H  H1144  1  0.264600  0.230500  0.278400  1.0
  H  H1145  1  0.487400  0.482300  0.420700  1.0
  H  H1146  1  0.012600  0.517700  0.920700  1.0
  H  H1147  1  0.267700  0.737400  0.670700  1.0
  H  H1148  1  0.232300  0.262600  0.170700  1.0
  H  H1149  1  0.987400  0.982300  0.920700  1.0
  H  H1150  1  0.512600  0.017700  0.420700  1.0
  H  H1151  1  0.767700  0.237400  0.170700  1.0
  H  H1152  1  0.732300  0.762600  0.670700  1.0
  H  H1153  1  0.512600  0.517700  0.579300  1.0
  H  H1154  1  0.987400  0.482300  0.079300  1.0
  H  H1155  1  0.732300  0.262600  0.329300  1.0
  H  H1156  1  0.767700  0.737400  0.829300  1.0
  H  H1157  1  0.012600  0.017700  0.079300  1.0
  H  H1158  1  0.487400  0.982300  0.579300  1.0
  H  H1159  1  0.232300  0.762600  0.829300  1.0
  H  H1160  1  0.267700  0.237400  0.329300  1.0
  H  H1161  1  0.626500  0.217100  0.351500  1.0
  H  H1162  1  0.873500  0.782900  0.851500  1.0
  H  H1163  1  0.532900  0.876500  0.601500  1.0
  H  H1164  1  0.967100  0.123500  0.101500  1.0
  H  H1165  1  0.126500  0.717100  0.851500  1.0
  H  H1166  1  0.373500  0.282900  0.351500  1.0
  H  H1167  1  0.032900  0.376500  0.101500  1.0
  H  H1168  1  0.467100  0.623500  0.601500  1.0
  H  H1169  1  0.373500  0.782900  0.648500  1.0
  H  H1170  1  0.126500  0.217100  0.148500  1.0
  H  H1171  1  0.467100  0.123500  0.398500  1.0
  H  H1172  1  0.032900  0.876500  0.898500  1.0
  H  H1173  1  0.873500  0.282900  0.148500  1.0
  H  H1174  1  0.626500  0.717100  0.648500  1.0
  H  H1175  1  0.967100  0.623500  0.898500  1.0
  H  H1176  1  0.532900  0.376500  0.398500  1.0
  H  H1177  1  0.626500  0.176600  0.312900  1.0
  H  H1178  1  0.873500  0.823400  0.812900  1.0
  H  H1179  1  0.573400  0.876500  0.562900  1.0
  H  H1180  1  0.926600  0.123500  0.062900  1.0
  H  H1181  1  0.126500  0.676600  0.812900  1.0
  H  H1182  1  0.373500  0.323400  0.312900  1.0
  H  H1183  1  0.073400  0.376500  0.062900  1.0
  H  H1184  1  0.426600  0.623500  0.562900  1.0
  H  H1185  1  0.373500  0.823400  0.687100  1.0
  H  H1186  1  0.126500  0.176600  0.187100  1.0
  H  H1187  1  0.426600  0.123500  0.437100  1.0
  H  H1188  1  0.073400  0.876500  0.937100  1.0
  H  H1189  1  0.873500  0.323400  0.187100  1.0
  H  H1190  1  0.626500  0.676600  0.687100  1.0
  H  H1191  1  0.926600  0.623500  0.937100  1.0
  H  H1192  1  0.573400  0.376500  0.437100  1.0
  H  H1193  1  0.606900  0.240600  0.264500  1.0
  H  H1194  1  0.893100  0.759400  0.764500  1.0
  H  H1195  1  0.509400  0.856900  0.514500  1.0
  H  H1196  1  0.990600  0.143100  0.014500  1.0
  H  H1197  1  0.106900  0.740600  0.764500  1.0
  H  H1198  1  0.393100  0.259400  0.264500  1.0
  H  H1199  1  0.009400  0.356900  0.014500  1.0
  H  H1200  1  0.490600  0.643100  0.514500  1.0
  H  H1201  1  0.393100  0.759400  0.735500  1.0
  H  H1202  1  0.106900  0.240600  0.235500  1.0
  H  H1203  1  0.490600  0.143100  0.485500  1.0
  H  H1204  1  0.009400  0.856900  0.985500  1.0
  H  H1205  1  0.893100  0.259400  0.235500  1.0
  H  H1206  1  0.606900  0.740600  0.735500  1.0
  H  H1207  1  0.990600  0.643100  0.985500  1.0
  H  H1208  1  0.509400  0.356900  0.485500  1.0
  H  H1209  1  0.641200  0.306600  0.288500  1.0
  H  H1210  1  0.858800  0.693400  0.788500  1.0
  H  H1211  1  0.443400  0.891200  0.538500  1.0
  H  H1212  1  0.056600  0.108800  0.038500  1.0
  H  H1213  1  0.141200  0.806600  0.788500  1.0
  H  H1214  1  0.358800  0.193400  0.288500  1.0
  H  H1215  1  0.943400  0.391200  0.038500  1.0
  H  H1216  1  0.556600  0.608800  0.538500  1.0
  H  H1217  1  0.358800  0.693400  0.711500  1.0
  H  H1218  1  0.141200  0.306600  0.211500  1.0
  H  H1219  1  0.556600  0.108800  0.461500  1.0
  H  H1220  1  0.943400  0.891200  0.961500  1.0
  H  H1221  1  0.858800  0.193400  0.211500  1.0
  H  H1222  1  0.641200  0.806600  0.711500  1.0
  H  H1223  1  0.056600  0.608800  0.961500  1.0
  H  H1224  1  0.443400  0.391200  0.461500  1.0
  H  H1225  1  0.648900  0.274100  0.330800  1.0
  H  H1226  1  0.851100  0.725900  0.830800  1.0
  H  H1227  1  0.475900  0.898900  0.580800  1.0
  H  H1228  1  0.024100  0.101100  0.080800  1.0
  H  H1229  1  0.148900  0.774100  0.830800  1.0
  H  H1230  1  0.351100  0.225900  0.330800  1.0
  H  H1231  1  0.975900  0.398900  0.080800  1.0
  H  H1232  1  0.524100  0.601100  0.580800  1.0
  H  H1233  1  0.351100  0.725900  0.669200  1.0
  H  H1234  1  0.148900  0.274100  0.169200  1.0
  H  H1235  1  0.524100  0.101100  0.419200  1.0
  H  H1236  1  0.975900  0.898900  0.919200  1.0
  H  H1237  1  0.851100  0.225900  0.169200  1.0
  H  H1238  1  0.648900  0.774100  0.669200  1.0
  H  H1239  1  0.024100  0.601100  0.919200  1.0
  H  H1240  1  0.475900  0.398900  0.419200  1.0
  H  H1241  1  0.576700  0.351200  0.320000  1.0
  H  H1242  1  0.923300  0.648800  0.820000  1.0
  H  H1243  1  0.398800  0.826700  0.570000  1.0
  H  H1244  1  0.101200  0.173300  0.070000  1.0
  H  H1245  1  0.076700  0.851200  0.820000  1.0
  H  H1246  1  0.423300  0.148800  0.320000  1.0
  H  H1247  1  0.898800  0.326700  0.070000  1.0
  H  H1248  1  0.601200  0.673300  0.570000  1.0
  H  H1249  1  0.423300  0.648800  0.680000  1.0
  H  H1250  1  0.076700  0.351200  0.180000  1.0
  H  H1251  1  0.601200  0.173300  0.430000  1.0
  H  H1252  1  0.898800  0.826700  0.930000  1.0
  H  H1253  1  0.923300  0.148800  0.180000  1.0
  H  H1254  1  0.576700  0.851200  0.680000  1.0
  H  H1255  1  0.101200  0.673300  0.930000  1.0
  H  H1256  1  0.398800  0.326700  0.430000  1.0
  H  H1257  1  0.627900  0.354300  0.347800  1.0
  H  H1258  1  0.872100  0.645700  0.847800  1.0
  H  H1259  1  0.395700  0.877900  0.597800  1.0
  H  H1260  1  0.104300  0.122100  0.097800  1.0
  H  H1261  1  0.127900  0.854300  0.847800  1.0
  H  H1262  1  0.372100  0.145700  0.347800  1.0
  H  H1263  1  0.895700  0.377900  0.097800  1.0
  H  H1264  1  0.604300  0.622100  0.597800  1.0
  H  H1265  1  0.372100  0.645700  0.652200  1.0
  H  H1266  1  0.127900  0.354300  0.152200  1.0
  H  H1267  1  0.604300  0.122100  0.402200  1.0
  H  H1268  1  0.895700  0.877900  0.902200  1.0
  H  H1269  1  0.872100  0.145700  0.152200  1.0
  H  H1270  1  0.627900  0.854300  0.652200  1.0
  H  H1271  1  0.104300  0.622100  0.902200  1.0
  H  H1272  1  0.395700  0.377900  0.402200  1.0
  H  H1273  1  0.318900  0.493700  0.393800  1.0
  H  H1274  1  0.181100  0.506300  0.893800  1.0
  H  H1275  1  0.256300  0.568900  0.643800  1.0
  H  H1276  1  0.243700  0.431100  0.143800  1.0
  H  H1277  1  0.818900  0.993700  0.893800  1.0
  H  H1278  1  0.681100  0.006300  0.393800  1.0
  H  H1279  1  0.756300  0.068900  0.143800  1.0
  H  H1280  1  0.743700  0.931100  0.643800  1.0
  H  H1281  1  0.681100  0.506300  0.606200  1.0
  H  H1282  1  0.818900  0.493700  0.106200  1.0
  H  H1283  1  0.743700  0.431100  0.356200  1.0
  H  H1284  1  0.756300  0.568900  0.856200  1.0
  H  H1285  1  0.181100  0.006300  0.106200  1.0
  H  H1286  1  0.318900  0.993700  0.606200  1.0
  H  H1287  1  0.243700  0.931100  0.856200  1.0
  H  H1288  1  0.256300  0.068900  0.356200  1.0
  H  H1289  1  0.400500  0.480700  0.367700  1.0
  H  H1290  1  0.099500  0.519300  0.867700  1.0
  H  H1291  1  0.269300  0.650500  0.617700  1.0
  H  H1292  1  0.230700  0.349500  0.117700  1.0
  H  H1293  1  0.900500  0.980700  0.867700  1.0
  H  H1294  1  0.599500  0.019300  0.367700  1.0
  H  H1295  1  0.769300  0.150500  0.117700  1.0
  H  H1296  1  0.730700  0.849500  0.617700  1.0
  H  H1297  1  0.599500  0.519300  0.632300  1.0
  H  H1298  1  0.900500  0.480700  0.132300  1.0
  H  H1299  1  0.730700  0.349500  0.382300  1.0
  H  H1300  1  0.769300  0.650500  0.882300  1.0
  H  H1301  1  0.099500  0.019300  0.132300  1.0
  H  H1302  1  0.400500  0.980700  0.632300  1.0
  H  H1303  1  0.230700  0.849500  0.882300  1.0
  H  H1304  1  0.269300  0.150500  0.382300  1.0
  H  H1305  1  0.339200  0.411300  0.264100  1.0
  H  H1306  1  0.160800  0.588700  0.764100  1.0
  H  H1307  1  0.338700  0.589200  0.514100  1.0
  H  H1308  1  0.161300  0.410800  0.014100  1.0
  H  H1309  1  0.839200  0.911300  0.764100  1.0
  H  H1310  1  0.660800  0.088700  0.264100  1.0
  H  H1311  1  0.838700  0.089200  0.014100  1.0
  H  H1312  1  0.661300  0.910800  0.514100  1.0
  H  H1313  1  0.660800  0.588700  0.735900  1.0
  H  H1314  1  0.839200  0.411300  0.235900  1.0
  H  H1315  1  0.661300  0.410800  0.485900  1.0
  H  H1316  1  0.838700  0.589200  0.985900  1.0
  H  H1317  1  0.160800  0.088700  0.235900  1.0
  H  H1318  1  0.339200  0.911300  0.735900  1.0
  H  H1319  1  0.161300  0.910800  0.985900  1.0
  H  H1320  1  0.338700  0.089200  0.485900  1.0
  H  H1321  1  0.258600  0.428300  0.291700  1.0
  H  H1322  1  0.241400  0.571700  0.791700  1.0
  H  H1323  1  0.321700  0.508600  0.541700  1.0
  H  H1324  1  0.178300  0.491400  0.041700  1.0
  H  H1325  1  0.758600  0.928300  0.791700  1.0
  H  H1326  1  0.741400  0.071700  0.291700  1.0
  H  H1327  1  0.821700  0.008600  0.041700  1.0
  H  H1328  1  0.678300  0.991400  0.541700  1.0
  H  H1329  1  0.741400  0.571700  0.708300  1.0
  H  H1330  1  0.758600  0.428300  0.208300  1.0
  H  H1331  1  0.678300  0.491400  0.458300  1.0
  H  H1332  1  0.821700  0.508600  0.958300  1.0
  H  H1333  1  0.241400  0.071700  0.208300  1.0
  H  H1334  1  0.258600  0.928300  0.708300  1.0
  H  H1335  1  0.178300  0.991400  0.958300  1.0
  H  H1336  1  0.321700  0.008600  0.458300  1.0
  H  H1337  1  0.682900  0.483000  0.298400  1.0
  H  H1338  1  0.817100  0.517000  0.798400  1.0
  H  H1339  1  0.267000  0.932900  0.548400  1.0
  H  H1340  1  0.233000  0.067100  0.048400  1.0
  H  H1341  1  0.182900  0.983000  0.798400  1.0
  H  H1342  1  0.317100  0.017000  0.298400  1.0
  H  H1343  1  0.767000  0.432900  0.048400  1.0
  H  H1344  1  0.733000  0.567100  0.548400  1.0
  H  H1345  1  0.317100  0.517000  0.701600  1.0
  H  H1346  1  0.182900  0.483000  0.201600  1.0
  H  H1347  1  0.733000  0.067100  0.451600  1.0
  H  H1348  1  0.767000  0.932900  0.951600  1.0
  H  H1349  1  0.817100  0.017000  0.201600  1.0
  H  H1350  1  0.682900  0.983000  0.701600  1.0
  H  H1351  1  0.233000  0.567100  0.951600  1.0
  H  H1352  1  0.267000  0.432900  0.451600  1.0
  H  H1353  1  0.610600  0.444900  0.268400  1.0
  H  H1354  1  0.889400  0.555100  0.768400  1.0
  H  H1355  1  0.305100  0.860600  0.518400  1.0
  H  H1356  1  0.194900  0.139400  0.018400  1.0
  H  H1357  1  0.110600  0.944900  0.768400  1.0
  H  H1358  1  0.389400  0.055100  0.268400  1.0
  H  H1359  1  0.805100  0.360600  0.018400  1.0
  H  H1360  1  0.694900  0.639400  0.518400  1.0
  H  H1361  1  0.389400  0.555100  0.731600  1.0
  H  H1362  1  0.110600  0.444900  0.231600  1.0
  H  H1363  1  0.694900  0.139400  0.481600  1.0
  H  H1364  1  0.805100  0.860600  0.981600  1.0
  H  H1365  1  0.889400  0.055100  0.231600  1.0
  H  H1366  1  0.610600  0.944900  0.731600  1.0
  H  H1367  1  0.194900  0.639400  0.981600  1.0
  H  H1368  1  0.305100  0.360600  0.481600  1.0
  H  H1369  1  0.526600  0.504100  0.365200  1.0
  H  H1370  1  0.973400  0.495900  0.865200  1.0
  H  H1371  1  0.245900  0.776600  0.615200  1.0
  H  H1372  1  0.254100  0.223400  0.115200  1.0
  H  H1373  1  0.026600  0.004100  0.865200  1.0
  H  H1374  1  0.473400  0.995900  0.365200  1.0
  H  H1375  1  0.745900  0.276600  0.115200  1.0
  H  H1376  1  0.754100  0.723400  0.615200  1.0
  H  H1377  1  0.473400  0.495900  0.634800  1.0
  H  H1378  1  0.026600  0.504100  0.134800  1.0
  H  H1379  1  0.754100  0.223400  0.384800  1.0
  H  H1380  1  0.745900  0.776600  0.884800  1.0
  H  H1381  1  0.973400  0.995900  0.134800  1.0
  H  H1382  1  0.526600  0.004100  0.634800  1.0
  H  H1383  1  0.254100  0.723400  0.884800  1.0
  H  H1384  1  0.245900  0.276600  0.384800  1.0
  H  H1385  1  0.600100  0.541400  0.392500  1.0
  H  H1386  1  0.899900  0.458600  0.892500  1.0
  H  H1387  1  0.208600  0.850100  0.642500  1.0
  H  H1388  1  0.291400  0.149900  0.142500  1.0
  H  H1389  1  0.100100  0.041400  0.892500  1.0
  H  H1390  1  0.399900  0.958600  0.392500  1.0
  H  H1391  1  0.708600  0.350100  0.142500  1.0
  H  H1392  1  0.791400  0.649900  0.642500  1.0
  H  H1393  1  0.399900  0.458600  0.607500  1.0
  H  H1394  1  0.100100  0.541400  0.107500  1.0
  H  H1395  1  0.791400  0.149900  0.357500  1.0
  H  H1396  1  0.708600  0.850100  0.857500  1.0
  H  H1397  1  0.899900  0.958600  0.107500  1.0
  H  H1398  1  0.600100  0.041400  0.607500  1.0
  H  H1399  1  0.291400  0.649900  0.857500  1.0
  H  H1400  1  0.208600  0.350100  0.357500  1.0
  H  H1401  1  0.566300  0.314100  0.142100  1.0
  H  H1402  1  0.933700  0.685900  0.642100  1.0
  H  H1403  1  0.435900  0.816300  0.392100  1.0
  H  H1404  1  0.064100  0.183700  0.892100  1.0
  H  H1405  1  0.066300  0.814100  0.642100  1.0
  H  H1406  1  0.433700  0.185900  0.142100  1.0
  H  H1407  1  0.935900  0.316300  0.892100  1.0
  H  H1408  1  0.564100  0.683700  0.392100  1.0
  H  H1409  1  0.433700  0.685900  0.857900  1.0
  H  H1410  1  0.066300  0.314100  0.357900  1.0
  H  H1411  1  0.564100  0.183700  0.607900  1.0
  H  H1412  1  0.935900  0.816300  0.107900  1.0
  H  H1413  1  0.933700  0.185900  0.357900  1.0
  H  H1414  1  0.566300  0.814100  0.857900  1.0
  H  H1415  1  0.064100  0.683700  0.107900  1.0
  H  H1416  1  0.435900  0.316300  0.607900  1.0
  H  H1417  1  0.560900  0.365600  0.202300  1.0
  H  H1418  1  0.939100  0.634400  0.702300  1.0
  H  H1419  1  0.384400  0.810900  0.452300  1.0
  H  H1420  1  0.115600  0.189100  0.952300  1.0
  H  H1421  1  0.060900  0.865600  0.702300  1.0
  H  H1422  1  0.439100  0.134400  0.202300  1.0
  H  H1423  1  0.884400  0.310900  0.952300  1.0
  H  H1424  1  0.615600  0.689100  0.452300  1.0
  H  H1425  1  0.439100  0.634400  0.797700  1.0
  H  H1426  1  0.060900  0.365600  0.297700  1.0
  H  H1427  1  0.615600  0.189100  0.547700  1.0
  H  H1428  1  0.884400  0.810900  0.047700  1.0
  H  H1429  1  0.939100  0.134400  0.297700  1.0
  H  H1430  1  0.560900  0.865600  0.797700  1.0
  H  H1431  1  0.115600  0.689100  0.047700  1.0
  H  H1432  1  0.384400  0.310900  0.547700  1.0
  H  H1433  1  0.407500  0.349700  0.198800  1.0
  H  H1434  1  0.092500  0.650300  0.698800  1.0
  H  H1435  1  0.400300  0.657500  0.448800  1.0
  H  H1436  1  0.099700  0.342500  0.948800  1.0
  H  H1437  1  0.907500  0.849700  0.698800  1.0
  H  H1438  1  0.592500  0.150300  0.198800  1.0
  H  H1439  1  0.900300  0.157500  0.948800  1.0
  H  H1440  1  0.599700  0.842500  0.448800  1.0
  H  H1441  1  0.592500  0.650300  0.801200  1.0
  H  H1442  1  0.907500  0.349700  0.301200  1.0
  H  H1443  1  0.599700  0.342500  0.551200  1.0
  H  H1444  1  0.900300  0.657500  0.051200  1.0
  H  H1445  1  0.092500  0.150300  0.301200  1.0
  H  H1446  1  0.407500  0.849700  0.801200  1.0
  H  H1447  1  0.099700  0.842500  0.051200  1.0
  H  H1448  1  0.400300  0.157500  0.551200  1.0
  H  H1449  1  0.416800  0.297900  0.138900  1.0
  H  H1450  1  0.083200  0.702100  0.638900  1.0
  H  H1451  1  0.452100  0.666800  0.388900  1.0
  H  H1452  1  0.047900  0.333200  0.888900  1.0
  H  H1453  1  0.916800  0.797900  0.638900  1.0
  H  H1454  1  0.583200  0.202100  0.138900  1.0
  H  H1455  1  0.952100  0.166800  0.888900  1.0
  H  H1456  1  0.547900  0.833200  0.388900  1.0
  H  H1457  1  0.583200  0.702100  0.861100  1.0
  H  H1458  1  0.916800  0.297900  0.361100  1.0
  H  H1459  1  0.547900  0.333200  0.611100  1.0
  H  H1460  1  0.952100  0.666800  0.111100  1.0
  H  H1461  1  0.083200  0.202100  0.361100  1.0
  H  H1462  1  0.416800  0.797900  0.861100  1.0
  H  H1463  1  0.047900  0.833200  0.111100  1.0
  H  H1464  1  0.452100  0.166800  0.611100  1.0
  H  H1465  1  0.108700  0.421800  0.350800  1.0
  H  H1466  1  0.391300  0.578200  0.850800  1.0
  H  H1467  1  0.328200  0.358700  0.600800  1.0
  H  H1468  1  0.171800  0.641300  0.100800  1.0
  H  H1469  1  0.608700  0.921800  0.850800  1.0
  H  H1470  1  0.891300  0.078200  0.350800  1.0
  H  H1471  1  0.828200  0.858700  0.100800  1.0
  H  H1472  1  0.671800  0.141300  0.600800  1.0
  H  H1473  1  0.891300  0.578200  0.649200  1.0
  H  H1474  1  0.608700  0.421800  0.149200  1.0
  H  H1475  1  0.671800  0.641300  0.399200  1.0
  H  H1476  1  0.828200  0.358700  0.899200  1.0
  H  H1477  1  0.391300  0.078200  0.149200  1.0
  H  H1478  1  0.108700  0.921800  0.649200  1.0
  H  H1479  1  0.171800  0.141300  0.899200  1.0
  H  H1480  1  0.328200  0.858700  0.399200  1.0
  H  H1481  1  0.075600  0.419800  0.393800  1.0
  H  H1482  1  0.424400  0.580200  0.893800  1.0
  H  H1483  1  0.330200  0.325600  0.643800  1.0
  H  H1484  1  0.169800  0.674400  0.143800  1.0
  H  H1485  1  0.575600  0.919800  0.893800  1.0
  H  H1486  1  0.924400  0.080200  0.393800  1.0
  H  H1487  1  0.830200  0.825600  0.143800  1.0
  H  H1488  1  0.669800  0.174400  0.643800  1.0
  H  H1489  1  0.924400  0.580200  0.606200  1.0
  H  H1490  1  0.575600  0.419800  0.106200  1.0
  H  H1491  1  0.669800  0.674400  0.356200  1.0
  H  H1492  1  0.830200  0.325600  0.856200  1.0
  H  H1493  1  0.424400  0.080200  0.106200  1.0
  H  H1494  1  0.075600  0.919800  0.606200  1.0
  H  H1495  1  0.169800  0.174400  0.856200  1.0
  H  H1496  1  0.330200  0.825600  0.356200  1.0
  H  H1497  1  0.126700  0.386700  0.389900  1.0
  H  H1498  1  0.373300  0.613300  0.889900  1.0
  H  H1499  1  0.363300  0.376700  0.639900  1.0
  H  H1500  1  0.136700  0.623300  0.139900  1.0
  H  H1501  1  0.626700  0.886700  0.889900  1.0
  H  H1502  1  0.873300  0.113300  0.389900  1.0
  H  H1503  1  0.863300  0.876700  0.139900  1.0
  H  H1504  1  0.636700  0.123300  0.639900  1.0
  H  H1505  1  0.873300  0.613300  0.610100  1.0
  H  H1506  1  0.626700  0.386700  0.110100  1.0
  H  H1507  1  0.636700  0.623300  0.360100  1.0
  H  H1508  1  0.863300  0.376700  0.860100  1.0
  H  H1509  1  0.373300  0.113300  0.110100  1.0
  H  H1510  1  0.126700  0.886700  0.610100  1.0
  H  H1511  1  0.136700  0.123300  0.860100  1.0
  H  H1512  1  0.363300  0.876700  0.360100  1.0
  H  H1513  1  0.158300  0.416800  0.453300  1.0
  H  H1514  1  0.341700  0.583200  0.953300  1.0
  H  H1515  1  0.333200  0.408300  0.703300  1.0
  H  H1516  1  0.166800  0.591700  0.203300  1.0
  H  H1517  1  0.658300  0.916800  0.953300  1.0
  H  H1518  1  0.841700  0.083200  0.453300  1.0
  H  H1519  1  0.833200  0.908300  0.203300  1.0
  H  H1520  1  0.666800  0.091700  0.703300  1.0
  H  H1521  1  0.841700  0.583200  0.546700  1.0
  H  H1522  1  0.658300  0.416800  0.046700  1.0
  H  H1523  1  0.666800  0.591700  0.296700  1.0
  H  H1524  1  0.833200  0.408300  0.796700  1.0
  H  H1525  1  0.341700  0.083200  0.046700  1.0
  H  H1526  1  0.158300  0.916800  0.546700  1.0
  H  H1527  1  0.166800  0.091700  0.796700  1.0
  H  H1528  1  0.333200  0.908300  0.296700  1.0
  H  H1529  1  0.107500  0.449500  0.460500  1.0
  H  H1530  1  0.392500  0.550500  0.960500  1.0
  H  H1531  1  0.300500  0.357500  0.710500  1.0
  H  H1532  1  0.199500  0.642500  0.210500  1.0
  H  H1533  1  0.607500  0.949500  0.960500  1.0
  H  H1534  1  0.892500  0.050500  0.460500  1.0
  H  H1535  1  0.800500  0.857500  0.210500  1.0
  H  H1536  1  0.699500  0.142500  0.710500  1.0
  H  H1537  1  0.892500  0.550500  0.539500  1.0
  H  H1538  1  0.607500  0.449500  0.039500  1.0
  H  H1539  1  0.699500  0.642500  0.289500  1.0
  H  H1540  1  0.800500  0.357500  0.789500  1.0
  H  H1541  1  0.392500  0.050500  0.039500  1.0
  H  H1542  1  0.107500  0.949500  0.539500  1.0
  H  H1543  1  0.199500  0.142500  0.789500  1.0
  H  H1544  1  0.300500  0.857500  0.289500  1.0
  H  H1545  1  0.162100  0.476500  0.463400  1.0
  H  H1546  1  0.337900  0.523500  0.963400  1.0
  H  H1547  1  0.273500  0.412100  0.713400  1.0
  H  H1548  1  0.226500  0.587900  0.213400  1.0
  H  H1549  1  0.662100  0.976500  0.963400  1.0
  H  H1550  1  0.837900  0.023500  0.463400  1.0
  H  H1551  1  0.773500  0.912100  0.213400  1.0
  H  H1552  1  0.726500  0.087900  0.713400  1.0
  H  H1553  1  0.837900  0.523500  0.536600  1.0
  H  H1554  1  0.662100  0.476500  0.036600  1.0
  H  H1555  1  0.726500  0.587900  0.286600  1.0
  H  H1556  1  0.773500  0.412100  0.786600  1.0
  H  H1557  1  0.337900  0.023500  0.036600  1.0
  H  H1558  1  0.162100  0.976500  0.536600  1.0
  H  H1559  1  0.226500  0.087900  0.786600  1.0
  H  H1560  1  0.273500  0.912100  0.286600  1.0
  H  H1561  1  0.135300  0.535300  0.416800  1.0
  H  H1562  1  0.364700  0.464700  0.916800  1.0
  H  H1563  1  0.214700  0.385300  0.666800  1.0
  H  H1564  1  0.285300  0.614700  0.166800  1.0
  H  H1565  1  0.635300  0.035300  0.916800  1.0
  H  H1566  1  0.864700  0.964700  0.416800  1.0
  H  H1567  1  0.714700  0.885300  0.166800  1.0
  H  H1568  1  0.785300  0.114700  0.666800  1.0
  H  H1569  1  0.864700  0.464700  0.583200  1.0
  H  H1570  1  0.635300  0.535300  0.083200  1.0
  H  H1571  1  0.785300  0.614700  0.333200  1.0
  H  H1572  1  0.714700  0.385300  0.833200  1.0
  H  H1573  1  0.364700  0.964700  0.083200  1.0
  H  H1574  1  0.135300  0.035300  0.583200  1.0
  H  H1575  1  0.285300  0.114700  0.833200  1.0
  H  H1576  1  0.214700  0.885300  0.333200  1.0
  H  H1577  1  0.081700  0.510900  0.402000  1.0
  H  H1578  1  0.418300  0.489100  0.902000  1.0
  H  H1579  1  0.239100  0.331700  0.652000  1.0
  H  H1580  1  0.260900  0.668300  0.152000  1.0
  H  H1581  1  0.581700  0.010900  0.902000  1.0
  H  H1582  1  0.918300  0.989100  0.402000  1.0
  H  H1583  1  0.739100  0.831700  0.152000  1.0
  H  H1584  1  0.760900  0.168300  0.652000  1.0
  H  H1585  1  0.918300  0.489100  0.598000  1.0
  H  H1586  1  0.581700  0.510900  0.098000  1.0
  H  H1587  1  0.760900  0.668300  0.348000  1.0
  H  H1588  1  0.739100  0.331700  0.848000  1.0
  H  H1589  1  0.418300  0.989100  0.098000  1.0
  H  H1590  1  0.081700  0.010900  0.598000  1.0
  H  H1591  1  0.260900  0.168300  0.848000  1.0
  H  H1592  1  0.239100  0.831700  0.348000  1.0
  H  H1593  1  0.115100  0.562100  0.345700  1.0
  H  H1594  1  0.384900  0.437900  0.845700  1.0
  H  H1595  1  0.187900  0.365100  0.595700  1.0
  H  H1596  1  0.312100  0.634900  0.095700  1.0
  H  H1597  1  0.615100  0.062100  0.845700  1.0
  H  H1598  1  0.884900  0.937900  0.345700  1.0
  H  H1599  1  0.687900  0.865100  0.095700  1.0
  H  H1600  1  0.812100  0.134900  0.595700  1.0
  H  H1601  1  0.884900  0.437900  0.654300  1.0
  H  H1602  1  0.615100  0.562100  0.154300  1.0
  H  H1603  1  0.812100  0.634900  0.404300  1.0
  H  H1604  1  0.687900  0.365100  0.904300  1.0
  H  H1605  1  0.384900  0.937900  0.154300  1.0
  H  H1606  1  0.115100  0.062100  0.654300  1.0
  H  H1607  1  0.312100  0.134900  0.904300  1.0
  H  H1608  1  0.187900  0.865100  0.404300  1.0
  H  H1609  1  0.112500  0.503700  0.330700  1.0
  H  H1610  1  0.387500  0.496300  0.830700  1.0
  H  H1611  1  0.246300  0.362500  0.580700  1.0
  H  H1612  1  0.253700  0.637500  0.080700  1.0
  H  H1613  1  0.612500  0.003700  0.830700  1.0
  H  H1614  1  0.887500  0.996300  0.330700  1.0
  H  H1615  1  0.746300  0.862500  0.080700  1.0
  H  H1616  1  0.753700  0.137500  0.580700  1.0
  H  H1617  1  0.887500  0.496300  0.669300  1.0
  H  H1618  1  0.612500  0.503700  0.169300  1.0
  H  H1619  1  0.753700  0.637500  0.419300  1.0
  H  H1620  1  0.746300  0.362500  0.919300  1.0
  H  H1621  1  0.387500  0.996300  0.169300  1.0
  H  H1622  1  0.112500  0.003700  0.669300  1.0
  H  H1623  1  0.253700  0.137500  0.919300  1.0
  H  H1624  1  0.246300  0.862500  0.419300  1.0
  H  H1625  1  0.174800  0.550300  0.281700  1.0
  H  H1626  1  0.325200  0.449700  0.781700  1.0
  H  H1627  1  0.199700  0.424800  0.531700  1.0
  H  H1628  1  0.300300  0.575200  0.031700  1.0
  H  H1629  1  0.674800  0.050300  0.781700  1.0
  H  H1630  1  0.825200  0.949700  0.281700  1.0
  H  H1631  1  0.699700  0.924800  0.031700  1.0
  H  H1632  1  0.800300  0.075200  0.531700  1.0
  H  H1633  1  0.825200  0.449700  0.718300  1.0
  H  H1634  1  0.674800  0.550300  0.218300  1.0
  H  H1635  1  0.800300  0.575200  0.468300  1.0
  H  H1636  1  0.699700  0.424800  0.968300  1.0
  H  H1637  1  0.325200  0.949700  0.218300  1.0
  H  H1638  1  0.174800  0.050300  0.718300  1.0
  H  H1639  1  0.300300  0.075200  0.968300  1.0
  H  H1640  1  0.199700  0.924800  0.468300  1.0
  H  H1641  1  0.183300  0.490200  0.286500  1.0
  H  H1642  1  0.316700  0.509800  0.786500  1.0
  H  H1643  1  0.259800  0.433300  0.536500  1.0
  H  H1644  1  0.240200  0.566700  0.036500  1.0
  H  H1645  1  0.683300  0.990200  0.786500  1.0
  H  H1646  1  0.816700  0.009800  0.286500  1.0
  H  H1647  1  0.759800  0.933300  0.036500  1.0
  H  H1648  1  0.740200  0.066700  0.536500  1.0
  H  H1649  1  0.816700  0.509800  0.713500  1.0
  H  H1650  1  0.683300  0.490200  0.213500  1.0
  H  H1651  1  0.740200  0.566700  0.463500  1.0
  H  H1652  1  0.759800  0.433300  0.963500  1.0
  H  H1653  1  0.316700  0.009800  0.213500  1.0
  H  H1654  1  0.183300  0.990200  0.713500  1.0
  H  H1655  1  0.240200  0.066700  0.963500  1.0
  H  H1656  1  0.259800  0.933300  0.463500  1.0
  H  H1657  1  0.231000  0.528100  0.289000  1.0
  H  H1658  1  0.269000  0.471900  0.789000  1.0
  H  H1659  1  0.221900  0.481000  0.539000  1.0
  H  H1660  1  0.278100  0.519000  0.039000  1.0
  H  H1661  1  0.731000  0.028100  0.789000  1.0
  H  H1662  1  0.769000  0.971900  0.289000  1.0
  H  H1663  1  0.721900  0.981000  0.039000  1.0
  H  H1664  1  0.778100  0.019000  0.539000  1.0
  H  H1665  1  0.769000  0.471900  0.711000  1.0
  H  H1666  1  0.731000  0.528100  0.211000  1.0
  H  H1667  1  0.778100  0.519000  0.461000  1.0
  H  H1668  1  0.721900  0.481000  0.961000  1.0
  H  H1669  1  0.269000  0.971900  0.211000  1.0
  H  H1670  1  0.231000  0.028100  0.711000  1.0
  H  H1671  1  0.278100  0.019000  0.961000  1.0
  H  H1672  1  0.221900  0.981000  0.461000  1.0
  H  H1673  1  0.248700  0.568900  0.357200  1.0
  H  H1674  1  0.251300  0.431100  0.857200  1.0
  H  H1675  1  0.181100  0.498700  0.607200  1.0
  H  H1676  1  0.318900  0.501300  0.107200  1.0
  H  H1677  1  0.748700  0.068900  0.857200  1.0
  H  H1678  1  0.751300  0.931100  0.357200  1.0
  H  H1679  1  0.681100  0.998700  0.107200  1.0
  H  H1680  1  0.818900  0.001300  0.607200  1.0
  H  H1681  1  0.751300  0.431100  0.642800  1.0
  H  H1682  1  0.748700  0.568900  0.142800  1.0
  H  H1683  1  0.818900  0.501300  0.392800  1.0
  H  H1684  1  0.681100  0.498700  0.892800  1.0
  H  H1685  1  0.251300  0.931100  0.142800  1.0
  H  H1686  1  0.248700  0.068900  0.642800  1.0
  H  H1687  1  0.318900  0.001300  0.892800  1.0
  H  H1688  1  0.181100  0.998700  0.392800  1.0
  H  H1689  1  0.203000  0.573600  0.391000  1.0
  H  H1690  1  0.297000  0.426400  0.891000  1.0
  H  H1691  1  0.176400  0.453000  0.641000  1.0
  H  H1692  1  0.323600  0.547000  0.141000  1.0
  H  H1693  1  0.703000  0.073600  0.891000  1.0
  H  H1694  1  0.797000  0.926400  0.391000  1.0
  H  H1695  1  0.676400  0.953000  0.141000  1.0
  H  H1696  1  0.823600  0.047000  0.641000  1.0
  H  H1697  1  0.797000  0.426400  0.609000  1.0
  H  H1698  1  0.703000  0.573600  0.109000  1.0
  H  H1699  1  0.823600  0.547000  0.359000  1.0
  H  H1700  1  0.676400  0.453000  0.859000  1.0
  H  H1701  1  0.297000  0.926400  0.109000  1.0
  H  H1702  1  0.203000  0.073600  0.609000  1.0
  H  H1703  1  0.323600  0.047000  0.859000  1.0
  H  H1704  1  0.176400  0.953000  0.359000  1.0
  H  H1705  1  0.199500  0.602400  0.345900  1.0
  H  H1706  1  0.300500  0.397600  0.845900  1.0
  H  H1707  1  0.147600  0.449500  0.595900  1.0
  H  H1708  1  0.352400  0.550500  0.095900  1.0
  H  H1709  1  0.699500  0.102400  0.845900  1.0
  H  H1710  1  0.800500  0.897600  0.345900  1.0
  H  H1711  1  0.647600  0.949500  0.095900  1.0
  H  H1712  1  0.852400  0.050500  0.595900  1.0
  H  H1713  1  0.800500  0.397600  0.654100  1.0
  H  H1714  1  0.699500  0.602400  0.154100  1.0
  H  H1715  1  0.852400  0.550500  0.404100  1.0
  H  H1716  1  0.647600  0.449500  0.904100  1.0
  H  H1717  1  0.300500  0.897600  0.154100  1.0
  H  H1718  1  0.199500  0.102400  0.654100  1.0
  H  H1719  1  0.352400  0.050500  0.904100  1.0
  H  H1720  1  0.147600  0.949500  0.404100  1.0
  H  H1721  1  0.480300  0.129100  0.019600  1.0
  H  H1722  1  0.019700  0.870900  0.519600  1.0
  H  H1723  1  0.620900  0.730300  0.269600  1.0
  H  H1724  1  0.879100  0.269700  0.769600  1.0
  H  H1725  1  0.980300  0.629100  0.519600  1.0
  H  H1726  1  0.519700  0.370900  0.019600  1.0
  H  H1727  1  0.120900  0.230300  0.769600  1.0
  H  H1728  1  0.379100  0.769700  0.269600  1.0
  H  H1729  1  0.519700  0.870900  0.980400  1.0
  H  H1730  1  0.980300  0.129100  0.480400  1.0
  H  H1731  1  0.379100  0.269700  0.730400  1.0
  H  H1732  1  0.120900  0.730300  0.230400  1.0
  H  H1733  1  0.019700  0.370900  0.480400  1.0
  H  H1734  1  0.480300  0.629100  0.980400  1.0
  H  H1735  1  0.879100  0.769700  0.230400  1.0
  H  H1736  1  0.620900  0.230300  0.730400  1.0
  H  H1737  1  0.443500  0.159800  0.051400  1.0
  H  H1738  1  0.056500  0.840200  0.551400  1.0
  H  H1739  1  0.590200  0.693500  0.301400  1.0
  H  H1740  1  0.909800  0.306500  0.801400  1.0
  H  H1741  1  0.943500  0.659800  0.551400  1.0
  H  H1742  1  0.556500  0.340200  0.051400  1.0
  H  H1743  1  0.090200  0.193500  0.801400  1.0
  H  H1744  1  0.409800  0.806500  0.301400  1.0
  H  H1745  1  0.556500  0.840200  0.948600  1.0
  H  H1746  1  0.943500  0.159800  0.448600  1.0
  H  H1747  1  0.409800  0.306500  0.698600  1.0
  H  H1748  1  0.090200  0.693500  0.198600  1.0
  H  H1749  1  0.056500  0.340200  0.448600  1.0
  H  H1750  1  0.443500  0.659800  0.948600  1.0
  H  H1751  1  0.909800  0.806500  0.198600  1.0
  H  H1752  1  0.590200  0.193500  0.698600  1.0
  H  H1753  1  0.492900  0.131300  0.069700  1.0
  H  H1754  1  0.007100  0.868700  0.569700  1.0
  H  H1755  1  0.618700  0.742900  0.319700  1.0
  H  H1756  1  0.881300  0.257100  0.819700  1.0
  H  H1757  1  0.992900  0.631300  0.569700  1.0
  H  H1758  1  0.507100  0.368700  0.069700  1.0
  H  H1759  1  0.118700  0.242900  0.819700  1.0
  H  H1760  1  0.381300  0.757100  0.319700  1.0
  H  H1761  1  0.507100  0.868700  0.930300  1.0
  H  H1762  1  0.992900  0.131300  0.430300  1.0
  H  H1763  1  0.381300  0.257100  0.680300  1.0
  H  H1764  1  0.118700  0.742900  0.180300  1.0
  H  H1765  1  0.007100  0.368700  0.430300  1.0
  H  H1766  1  0.492900  0.631300  0.930300  1.0
  H  H1767  1  0.881300  0.757100  0.180300  1.0
  H  H1768  1  0.618700  0.242900  0.680300  1.0
  H  H1769  1  0.568300  0.158700  0.011500  1.0
  H  H1770  1  0.931700  0.841300  0.511500  1.0
  H  H1771  1  0.591300  0.818300  0.261500  1.0
  H  H1772  1  0.908700  0.181700  0.761500  1.0
  H  H1773  1  0.068300  0.658700  0.511500  1.0
  H  H1774  1  0.431700  0.341300  0.011500  1.0
  H  H1775  1  0.091300  0.318300  0.761500  1.0
  H  H1776  1  0.408700  0.681700  0.261500  1.0
  H  H1777  1  0.431700  0.841300  0.988500  1.0
  H  H1778  1  0.068300  0.158700  0.488500  1.0
  H  H1779  1  0.408700  0.181700  0.738500  1.0
  H  H1780  1  0.091300  0.818300  0.238500  1.0
  H  H1781  1  0.931700  0.341300  0.488500  1.0
  H  H1782  1  0.568300  0.658700  0.988500  1.0
  H  H1783  1  0.908700  0.681700  0.238500  1.0
  H  H1784  1  0.591300  0.318300  0.738500  1.0
  H  H1785  1  0.575100  0.167200  0.062000  1.0
  H  H1786  1  0.924900  0.832800  0.562000  1.0
  H  H1787  1  0.582800  0.825100  0.312000  1.0
  H  H1788  1  0.917200  0.174900  0.812000  1.0
  H  H1789  1  0.075100  0.667200  0.562000  1.0
  H  H1790  1  0.424900  0.332800  0.062000  1.0
  H  H1791  1  0.082800  0.325100  0.812000  1.0
  H  H1792  1  0.417200  0.674900  0.312000  1.0
  H  H1793  1  0.424900  0.832800  0.938000  1.0
  H  H1794  1  0.075100  0.167200  0.438000  1.0
  H  H1795  1  0.417200  0.174900  0.688000  1.0
  H  H1796  1  0.082800  0.825100  0.188000  1.0
  H  H1797  1  0.924900  0.332800  0.438000  1.0
  H  H1798  1  0.575100  0.667200  0.938000  1.0
  H  H1799  1  0.917200  0.674900  0.188000  1.0
  H  H1800  1  0.582800  0.325100  0.688000  1.0
  H  H1801  1  0.584400  0.213500  0.029500  1.0
  H  H1802  1  0.915600  0.786500  0.529500  1.0
  H  H1803  1  0.536500  0.834400  0.279500  1.0
  H  H1804  1  0.963500  0.165600  0.779500  1.0
  H  H1805  1  0.084400  0.713500  0.529500  1.0
  H  H1806  1  0.415600  0.286500  0.029500  1.0
  H  H1807  1  0.036500  0.334400  0.779500  1.0
  H  H1808  1  0.463500  0.665600  0.279500  1.0
  H  H1809  1  0.415600  0.786500  0.970500  1.0
  H  H1810  1  0.084400  0.213500  0.470500  1.0
  H  H1811  1  0.463500  0.165600  0.720500  1.0
  H  H1812  1  0.036500  0.834400  0.220500  1.0
  H  H1813  1  0.915600  0.286500  0.470500  1.0
  H  H1814  1  0.584400  0.713500  0.970500  1.0
  H  H1815  1  0.963500  0.665600  0.220500  1.0
  H  H1816  1  0.536500  0.334400  0.720500  1.0
  H  H1817  1  0.453400  0.221300  0.996600  1.0
  H  H1818  1  0.046600  0.778700  0.496600  1.0
  H  H1819  1  0.528700  0.703400  0.246600  1.0
  H  H1820  1  0.971300  0.296600  0.746600  1.0
  H  H1821  1  0.953400  0.721300  0.496600  1.0
  H  H1822  1  0.546600  0.278700  0.996600  1.0
  H  H1823  1  0.028700  0.203400  0.746600  1.0
  H  H1824  1  0.471300  0.796600  0.246600  1.0
  H  H1825  1  0.546600  0.778700  0.003400  1.0
  H  H1826  1  0.953400  0.221300  0.503400  1.0
  H  H1827  1  0.471300  0.296600  0.753400  1.0
  H  H1828  1  0.028700  0.703400  0.253400  1.0
  H  H1829  1  0.046600  0.278700  0.503400  1.0
  H  H1830  1  0.453400  0.721300  0.003400  1.0
  H  H1831  1  0.971300  0.796600  0.253400  1.0
  H  H1832  1  0.528700  0.203400  0.753400  1.0
  H  H1833  1  0.505000  0.204600  0.972700  1.0
  H  H1834  1  0.995000  0.795400  0.472700  1.0
  H  H1835  1  0.545400  0.755000  0.222700  1.0
  H  H1836  1  0.954600  0.245000  0.722700  1.0
  H  H1837  1  0.005000  0.704600  0.472700  1.0
  H  H1838  1  0.495000  0.295400  0.972700  1.0
  H  H1839  1  0.045400  0.255000  0.722700  1.0
  H  H1840  1  0.454600  0.745000  0.222700  1.0
  H  H1841  1  0.495000  0.795400  0.027300  1.0
  H  H1842  1  0.005000  0.204600  0.527300  1.0
  H  H1843  1  0.454600  0.245000  0.777300  1.0
  H  H1844  1  0.045400  0.755000  0.277300  1.0
  H  H1845  1  0.995000  0.295400  0.527300  1.0
  H  H1846  1  0.505000  0.704600  0.027300  1.0
  H  H1847  1  0.954600  0.745000  0.277300  1.0
  H  H1848  1  0.545400  0.255000  0.777300  1.0
  Pd  Pd1849  1  0.500000  0.250000  0.087066  1.0
  Pd  Pd1850  1  0.000000  0.750000  0.587066  1.0
  Pd  Pd1851  1  0.500000  0.750000  0.337066  1.0
  Pd  Pd1852  1  0.000000  0.250000  0.837066  1.0
  Pd  Pd1853  1  0.500000  0.750000  0.912934  1.0
  Pd  Pd1854  1  0.000000  0.250000  0.412934  1.0
  Pd  Pd1855  1  0.500000  0.250000  0.662934  1.0
  Pd  Pd1856  1  0.000000  0.750000  0.162934  1.0
  Pd  Pd1857  1  0.211492  0.462837  0.372717  1.0
  Pd  Pd1858  1  0.288508  0.537163  0.872717  1.0
  Pd  Pd1859  1  0.287163  0.461492  0.622717  1.0
  Pd  Pd1860  1  0.212837  0.538508  0.122717  1.0
  Pd  Pd1861  1  0.711492  0.962837  0.872717  1.0
  Pd  Pd1862  1  0.788508  0.037163  0.372717  1.0
  Pd  Pd1863  1  0.787163  0.961492  0.122717  1.0
  Pd  Pd1864  1  0.712837  0.038508  0.622717  1.0
  Pd  Pd1865  1  0.788508  0.537163  0.627283  1.0
  Pd  Pd1866  1  0.711492  0.462837  0.127283  1.0
  Pd  Pd1867  1  0.712837  0.538508  0.377283  1.0
  Pd  Pd1868  1  0.787163  0.461492  0.877283  1.0
  Pd  Pd1869  1  0.288508  0.037163  0.127283  1.0
  Pd  Pd1870  1  0.211492  0.962837  0.627283  1.0
  Pd  Pd1871  1  0.212837  0.038508  0.877283  1.0
  Pd  Pd1872  1  0.287163  0.961492  0.377283  1.0
  C  C1873  1  0.111500  0.417900  0.390600  1
  C  C1874  1  0.388500  0.582100  0.890600  1
  C  C1875  1  0.332100  0.361500  0.640600  1
  C  C1876  1  0.167900  0.638500  0.140600  1
  C  C1877  1  0.611500  0.917900  0.890600  1
  C  C1878  1  0.888500  0.082100  0.390600  1
  C  C1879  1  0.832100  0.861500  0.140600  1
  C  C1880  1  0.667900  0.138500  0.640600  1
  C  C1881  1  0.888500  0.582100  0.609400  1
  C  C1882  1  0.611500  0.417900  0.109400  1
  C  C1883  1  0.667900  0.638500  0.359400  1
  C  C1884  1  0.832100  0.361500  0.859400  1
  C  C1885  1  0.388500  0.082100  0.109400  1
  C  C1886  1  0.111500  0.917900  0.609400  1
  C  C1887  1  0.167900  0.138500  0.859400  1
  C  C1888  1  0.332100  0.861500  0.359400  1
  C  C1889  1  0.140600  0.478400  0.442800  1
  C  C1890  1  0.359400  0.521600  0.942800  1
  C  C1891  1  0.271600  0.390600  0.692800  1
  C  C1892  1  0.228400  0.609400  0.192800  1
  C  C1893  1  0.640600  0.978400  0.942800  1
  C  C1894  1  0.859400  0.021600  0.442800  1
  C  C1895  1  0.771600  0.890600  0.192800  1
  C  C1896  1  0.728400  0.109400  0.692800  1
  C  C1897  1  0.859400  0.521600  0.557200  1
  C  C1898  1  0.640600  0.478400  0.057200  1
  C  C1899  1  0.728400  0.609400  0.307200  1
  C  C1900  1  0.771600  0.390600  0.807200  1
  C  C1901  1  0.359400  0.021600  0.057200  1
  C  C1902  1  0.140600  0.978400  0.557200  1
  C  C1903  1  0.228400  0.109400  0.807200  1
  C  C1904  1  0.271600  0.890600  0.307200  1
  C  C1905  1  0.111000  0.507000  0.374500  1
  C  C1906  1  0.389000  0.493000  0.874500  1
  C  C1907  1  0.243000  0.361000  0.624500  1
  C  C1908  1  0.257000  0.639000  0.124500  1
  C  C1909  1  0.611000  0.007000  0.874500  1
  C  C1910  1  0.889000  0.993000  0.374500  1
  C  C1911  1  0.743000  0.861000  0.124500  1
  C  C1912  1  0.757000  0.139000  0.624500  1
  C  C1913  1  0.889000  0.493000  0.625500  1
  C  C1914  1  0.611000  0.507000  0.125500  1
  C  C1915  1  0.757000  0.639000  0.375500  1
  C  C1916  1  0.743000  0.361000  0.875500  1
  C  C1917  1  0.389000  0.993000  0.125500  1
  C  C1918  1  0.111000  0.007000  0.625500  1
  C  C1919  1  0.257000  0.139000  0.875500  1
  C  C1920  1  0.243000  0.861000  0.375500  1
  C  C1921  1  0.145400  0.550900  0.365200  1
  C  C1922  1  0.354600  0.449100  0.865200  1
  C  C1923  1  0.199100  0.395400  0.615200  1
  C  C1924  1  0.300900  0.604600  0.115200  1
  C  C1925  1  0.645400  0.050900  0.865200  1
  C  C1926  1  0.854600  0.949100  0.365200  1
  C  C1927  1  0.699100  0.895400  0.115200  1
  C  C1928  1  0.800900  0.104600  0.615200  1
  C  C1929  1  0.854600  0.449100  0.634800  1
  C  C1930  1  0.645400  0.550900  0.134800  1
  C  C1931  1  0.800900  0.604600  0.384800  1
  C  C1932  1  0.699100  0.395400  0.884800  1
  C  C1933  1  0.354600  0.949100  0.134800  1
  C  C1934  1  0.145400  0.050900  0.634800  1
  C  C1935  1  0.300900  0.104600  0.884800  1
  C  C1936  1  0.199100  0.895400  0.384800  1
  C  C1937  1  0.177600  0.520800  0.295800  1
  C  C1938  1  0.322400  0.479200  0.795800  1
  C  C1939  1  0.229200  0.427600  0.545800  1
  C  C1940  1  0.270800  0.572400  0.045800  1
  C  C1941  1  0.677600  0.020800  0.795800  1
  C  C1942  1  0.822400  0.979200  0.295800  1
  C  C1943  1  0.729200  0.927600  0.045800  1
  C  C1944  1  0.770800  0.072400  0.545800  1
  C  C1945  1  0.822400  0.479200  0.704200  1
  C  C1946  1  0.677600  0.520800  0.204200  1
  C  C1947  1  0.770800  0.572400  0.454200  1
  C  C1948  1  0.729200  0.427600  0.954200  1
  C  C1949  1  0.322400  0.979200  0.204200  1
  C  C1950  1  0.177600  0.020800  0.704200  1
  C  C1951  1  0.270800  0.072400  0.954200  1
  C  C1952  1  0.229200  0.927600  0.454200  1
  C  C1953  1  0.231000  0.570900  0.341000  1
  C  C1954  1  0.269000  0.429100  0.841000  1
  C  C1955  1  0.179100  0.481000  0.591000  1
  C  C1956  1  0.320900  0.519000  0.091000  1
  C  C1957  1  0.731000  0.070900  0.841000  1
  C  C1958  1  0.769000  0.929100  0.341000  1
  C  C1959  1  0.679100  0.981000  0.091000  1
  C  C1960  1  0.820900  0.019000  0.591000  1
  C  C1961  1  0.769000  0.429100  0.659000  1
  C  C1962  1  0.731000  0.570900  0.159000  1
  C  C1963  1  0.820900  0.519000  0.409000  1
  C  C1964  1  0.679100  0.481000  0.909000  1
  C  C1965  1  0.269000  0.929100  0.159000  1
  C  C1966  1  0.231000  0.070900  0.659000  1
  C  C1967  1  0.320900  0.019000  0.909000  1
  C  C1968  1  0.179100  0.981000  0.409000  1
  C  C1969  1  0.652500  0.300000  0.334000  1
  C  C1970  1  0.847500  0.700000  0.834000  1
  C  C1971  1  0.450000  0.902500  0.584000  1
  C  C1972  1  0.050000  0.097500  0.084000  1
  C  C1973  1  0.152500  0.800000  0.834000  1
  C  C1974  1  0.347500  0.200000  0.334000  1
  C  C1975  1  0.950000  0.402500  0.084000  1
  C  C1976  1  0.550000  0.597500  0.584000  1
  C  C1977  1  0.347500  0.700000  0.666000  1
  C  C1978  1  0.152500  0.300000  0.166000  1
  C  C1979  1  0.550000  0.097500  0.416000  1
  C  C1980  1  0.950000  0.902500  0.916000  1
  C  C1981  1  0.847500  0.200000  0.166000  1
  C  C1982  1  0.652500  0.800000  0.666000  1
  C  C1983  1  0.050000  0.597500  0.916000  1
  C  C1984  1  0.450000  0.402500  0.416000  1
  C  C1985  1  0.675000  0.255300  0.311000  1
  C  C1986  1  0.825000  0.744700  0.811000  1
  C  C1987  1  0.494700  0.925000  0.561000  1
  C  C1988  1  0.005300  0.075000  0.061000  1
  C  C1989  1  0.175000  0.755300  0.811000  1
  C  C1990  1  0.325000  0.244700  0.311000  1
  C  C1991  1  0.994700  0.425000  0.061000  1
  C  C1992  1  0.505300  0.575000  0.561000  1
  C  C1993  1  0.325000  0.744700  0.689000  1
  C  C1994  1  0.175000  0.255300  0.189000  1
  C  C1995  1  0.505300  0.075000  0.439000  1
  C  C1996  1  0.994700  0.925000  0.939000  1
  C  C1997  1  0.825000  0.244700  0.189000  1
  C  C1998  1  0.675000  0.755300  0.689000  1
  C  C1999  1  0.005300  0.575000  0.939000  1
  C  C2000  1  0.494700  0.425000  0.439000  1
  C  C2001  1  0.732800  0.268000  0.302000  1
  C  C2002  1  0.767200  0.732000  0.802000  1
  C  C2003  1  0.482000  0.982800  0.552000  1
  C  C2004  1  0.018000  0.017200  0.052000  1
  C  C2005  1  0.232800  0.768000  0.802000  1
  C  C2006  1  0.267200  0.232000  0.302000  1
  C  C2007  1  0.982000  0.482800  0.052000  1
  C  C2008  1  0.518000  0.517200  0.552000  1
  C  C2009  1  0.267200  0.732000  0.698000  1
  C  C2010  1  0.232800  0.268000  0.198000  1
  C  C2011  1  0.518000  0.017200  0.448000  1
  C  C2012  1  0.982000  0.982800  0.948000  1
  C  C2013  1  0.767200  0.232000  0.198000  1
  C  C2014  1  0.732800  0.768000  0.698000  1
  C  C2015  1  0.018000  0.517200  0.948000  1
  C  C2016  1  0.482000  0.482800  0.448000  1
  C  C2017  1  0.491000  0.287000  0.488000  1
  C  C2018  1  0.009000  0.713000  0.988000  1
  C  C2019  1  0.463000  0.741000  0.738000  1
  C  C2020  1  0.037000  0.259000  0.238000  1
  C  C2021  1  0.991000  0.787000  0.988000  1
  C  C2022  1  0.509000  0.213000  0.488000  1
  C  C2023  1  0.963000  0.241000  0.238000  1
  C  C2024  1  0.537000  0.759000  0.738000  1
  C  C2025  1  0.509000  0.713000  0.512000  1
  C  C2026  1  0.991000  0.287000  0.012000  1
  C  C2027  1  0.537000  0.259000  0.262000  1
  C  C2028  1  0.963000  0.741000  0.762000  1
  C  C2029  1  0.009000  0.213000  0.012000  1
  C  C2030  1  0.491000  0.787000  0.512000  1
  C  C2031  1  0.037000  0.759000  0.762000  1
  C  C2032  1  0.463000  0.241000  0.262000  1
  C  C2033  1  0.512000  0.327500  0.518600  1
  C  C2034  1  0.988000  0.672500  0.018600  1
  C  C2035  1  0.422500  0.762000  0.768600  1
  C  C2036  1  0.077500  0.238000  0.268600  1
  C  C2037  1  0.012000  0.827500  0.018600  1
  C  C2038  1  0.488000  0.172500  0.518600  1
  C  C2039  1  0.922500  0.262000  0.268600  1
  C  C2040  1  0.577500  0.738000  0.768600  1
  C  C2041  1  0.488000  0.672500  0.481400  1
  C  C2042  1  0.012000  0.327500  0.981400  1
  C  C2043  1  0.577500  0.238000  0.231400  1
  C  C2044  1  0.922500  0.762000  0.731400  1
  C  C2045  1  0.988000  0.172500  0.981400  1
  C  C2046  1  0.512000  0.827500  0.481400  1
  C  C2047  1  0.077500  0.738000  0.731400  1
  C  C2048  1  0.422500  0.262000  0.231400  1
  C  C2049  1  0.474900  0.366100  0.538800  1
  C  C2050  1  0.025100  0.633900  0.038800  1
  C  C2051  1  0.383900  0.724900  0.788800  1
  C  C2052  1  0.116100  0.275100  0.288800  1
  C  C2053  1  0.974900  0.866100  0.038800  1
  C  C2054  1  0.525100  0.133900  0.538800  1
  C  C2055  1  0.883900  0.224900  0.288800  1
  C  C2056  1  0.616100  0.775100  0.788800  1
  C  C2057  1  0.525100  0.633900  0.461200  1
  C  C2058  1  0.974900  0.366100  0.961200  1
  C  C2059  1  0.616100  0.275100  0.211200  1
  C  C2060  1  0.883900  0.724900  0.711200  1
  C  C2061  1  0.025100  0.133900  0.961200  1
  C  C2062  1  0.474900  0.866100  0.461200  1
  C  C2063  1  0.116100  0.775100  0.711200  1
  C  C2064  1  0.383900  0.224900  0.211200  1
  C  C2065  1  0.490200  0.407100  0.571800  1
  C  C2066  1  0.009800  0.592900  0.071800  1
  C  C2067  1  0.342900  0.740200  0.821800  1
  C  C2068  1  0.157100  0.259800  0.321800  1
  C  C2069  1  0.990200  0.907100  0.071800  1
  C  C2070  1  0.509800  0.092900  0.571800  1
  C  C2071  1  0.842900  0.240200  0.321800  1
  C  C2072  1  0.657100  0.759800  0.821800  1
  C  C2073  1  0.509800  0.592900  0.428200  1
  C  C2074  1  0.990200  0.407100  0.928200  1
  C  C2075  1  0.657100  0.259800  0.178200  1
  C  C2076  1  0.842900  0.740200  0.678200  1
  C  C2077  1  0.009800  0.092900  0.928200  1
  C  C2078  1  0.490200  0.907100  0.428200  1
  C  C2079  1  0.157100  0.759800  0.678200  1
  C  C2080  1  0.342900  0.240200  0.178200  1
  C  C2081  1  0.525000  0.183100  0.460000  1
  C  C2082  1  0.975000  0.816900  0.960000  1
  C  C2083  1  0.566900  0.775000  0.710000  1
  C  C2084  1  0.933100  0.225000  0.210000  1
  C  C2085  1  0.025000  0.683100  0.960000  1
  C  C2086  1  0.475000  0.316900  0.460000  1
  C  C2087  1  0.066900  0.275000  0.210000  1
  C  C2088  1  0.433100  0.725000  0.710000  1
  C  C2089  1  0.475000  0.816900  0.540000  1
  C  C2090  1  0.025000  0.183100  0.040000  1
  C  C2091  1  0.433100  0.225000  0.290000  1
  C  C2092  1  0.066900  0.775000  0.790000  1
  C  C2093  1  0.975000  0.316900  0.040000  1
  C  C2094  1  0.525000  0.683100  0.540000  1
  C  C2095  1  0.933100  0.725000  0.790000  1
  C  C2096  1  0.566900  0.275000  0.290000  1
  C  C2097  1  0.563000  0.149200  0.438700  1
  C  C2098  1  0.937000  0.850800  0.938700  1
  C  C2099  1  0.600800  0.813000  0.688700  1
  C  C2100  1  0.899200  0.187000  0.188700  1
  C  C2101  1  0.063000  0.649200  0.938700  1
  C  C2102  1  0.437000  0.350800  0.438700  1
  C  C2103  1  0.100800  0.313000  0.188700  1
  C  C2104  1  0.399200  0.687000  0.688700  1
  C  C2105  1  0.437000  0.850800  0.561300  1
  C  C2106  1  0.063000  0.149200  0.061300  1
  C  C2107  1  0.399200  0.187000  0.311300  1
  C  C2108  1  0.100800  0.813000  0.811300  1
  C  C2109  1  0.937000  0.350800  0.061300  1
  C  C2110  1  0.563000  0.649200  0.561300  1
  C  C2111  1  0.899200  0.687000  0.811300  1
  C  C2112  1  0.600800  0.313000  0.311300  1
  C  C2113  1  0.558000  0.139000  0.391600  1
  C  C2114  1  0.942000  0.861000  0.891600  1
  C  C2115  1  0.611000  0.808000  0.641600  1
  C  C2116  1  0.889000  0.192000  0.141600  1
  C  C2117  1  0.058000  0.639000  0.891600  1
  C  C2118  1  0.442000  0.361000  0.391600  1
  C  C2119  1  0.111000  0.308000  0.141600  1
  C  C2120  1  0.389000  0.692000  0.641600  1
  C  C2121  1  0.442000  0.861000  0.608400  1
  C  C2122  1  0.058000  0.139000  0.108400  1
  C  C2123  1  0.389000  0.192000  0.358400  1
  C  C2124  1  0.111000  0.808000  0.858400  1
  C  C2125  1  0.942000  0.361000  0.108400  1
  C  C2126  1  0.558000  0.639000  0.608400  1
  C  C2127  1  0.889000  0.692000  0.858400  1
  C  C2128  1  0.611000  0.308000  0.358400  1
  C  C2129  1  0.611000  0.148000  0.372000  1
  C  C2130  1  0.889000  0.852000  0.872000  1
  C  C2131  1  0.602000  0.861000  0.622000  1
  C  C2132  1  0.898000  0.139000  0.122000  1
  C  C2133  1  0.111000  0.648000  0.872000  1
  C  C2134  1  0.389000  0.352000  0.372000  1
  C  C2135  1  0.102000  0.361000  0.122000  1
  C  C2136  1  0.398000  0.639000  0.622000  1
  C  C2137  1  0.389000  0.852000  0.628000  1
  C  C2138  1  0.111000  0.148000  0.128000  1
  C  C2139  1  0.398000  0.139000  0.378000  1
  C  C2140  1  0.102000  0.861000  0.878000  1
  C  C2141  1  0.889000  0.352000  0.128000  1
  C  C2142  1  0.611000  0.648000  0.628000  1
  C  C2143  1  0.898000  0.639000  0.878000  1
  C  C2144  1  0.602000  0.361000  0.378000  1
  C  C2145  1  0.609000  0.277500  0.301500  1
  C  C2146  1  0.891000  0.722500  0.801500  1
  C  C2147  1  0.472500  0.859000  0.551500  1
  C  C2148  1  0.027500  0.141000  0.051500  1
  C  C2149  1  0.109000  0.777500  0.801500  1
  C  C2150  1  0.391000  0.222500  0.301500  1
  C  C2151  1  0.972500  0.359000  0.051500  1
  C  C2152  1  0.527500  0.641000  0.551500  1
  C  C2153  1  0.391000  0.722500  0.698500  1
  C  C2154  1  0.109000  0.277500  0.198500  1
  C  C2155  1  0.527500  0.141000  0.448500  1
  C  C2156  1  0.972500  0.859000  0.948500  1
  C  C2157  1  0.891000  0.222500  0.198500  1
  C  C2158  1  0.609000  0.777500  0.698500  1
  C  C2159  1  0.027500  0.641000  0.948500  1
  C  C2160  1  0.472500  0.359000  0.448500  1
  C  C2161  1  0.659200  0.252500  0.322800  1
  C  C2162  1  0.840800  0.747500  0.822800  1
  C  C2163  1  0.497500  0.909200  0.572800  1
  C  C2164  1  0.002500  0.090800  0.072800  1
  C  C2165  1  0.159200  0.752500  0.822800  1
  C  C2166  1  0.340800  0.247500  0.322800  1
  C  C2167  1  0.997500  0.409200  0.072800  1
  C  C2168  1  0.502500  0.590800  0.572800  1
  C  C2169  1  0.340800  0.747500  0.677200  1
  C  C2170  1  0.159200  0.252500  0.177200  1
  C  C2171  1  0.502500  0.090800  0.427200  1
  C  C2172  1  0.997500  0.909200  0.927200  1
  C  C2173  1  0.840800  0.247500  0.177200  1
  C  C2174  1  0.659200  0.752500  0.677200  1
  C  C2175  1  0.002500  0.590800  0.927200  1
  C  C2176  1  0.497500  0.409200  0.427200  1
  C  C2177  1  0.670800  0.206800  0.293900  1
  C  C2178  1  0.829200  0.793200  0.793900  1
  C  C2179  1  0.543200  0.920800  0.543900  1
  C  C2180  1  0.956800  0.079200  0.043900  1
  C  C2181  1  0.170800  0.706800  0.793900  1
  C  C2182  1  0.329200  0.293200  0.293900  1
  C  C2183  1  0.043200  0.420800  0.043900  1
  C  C2184  1  0.456800  0.579200  0.543900  1
  C  C2185  1  0.329200  0.793200  0.706100  1
  C  C2186  1  0.170800  0.206800  0.206100  1
  C  C2187  1  0.456800  0.079200  0.456100  1
  C  C2188  1  0.043200  0.920800  0.956100  1
  C  C2189  1  0.829200  0.293200  0.206100  1
  C  C2190  1  0.670800  0.706800  0.706100  1
  C  C2191  1  0.956800  0.579200  0.956100  1
  C  C2192  1  0.543200  0.420800  0.456100  1
  C  C2193  1  0.570000  0.159000  0.406100  1
  C  C2194  1  0.930000  0.841000  0.906100  1
  C  C2195  1  0.591000  0.820000  0.656100  1
  C  C2196  1  0.909000  0.180000  0.156100  1
  C  C2197  1  0.070000  0.659000  0.906100  1
  C  C2198  1  0.430000  0.341000  0.406100  1
  C  C2199  1  0.091000  0.320000  0.156100  1
  C  C2200  1  0.409000  0.680000  0.656100  1
  C  C2201  1  0.430000  0.841000  0.593900  1
  C  C2202  1  0.070000  0.159000  0.093900  1
  C  C2203  1  0.409000  0.180000  0.343900  1
  C  C2204  1  0.091000  0.820000  0.843900  1
  C  C2205  1  0.930000  0.341000  0.093900  1
  C  C2206  1  0.570000  0.659000  0.593900  1
  C  C2207  1  0.909000  0.680000  0.843900  1
  C  C2208  1  0.591000  0.320000  0.343900  1
  C  C2209  1  0.528000  0.155000  0.439900  1
  C  C2210  1  0.972000  0.845000  0.939900  1
  C  C2211  1  0.595000  0.778000  0.689900  1
  C  C2212  1  0.905000  0.222000  0.189900  1
  C  C2213  1  0.028000  0.655000  0.939900  1
  C  C2214  1  0.472000  0.345000  0.439900  1
  C  C2215  1  0.095000  0.278000  0.189900  1
  C  C2216  1  0.405000  0.722000  0.689900  1
  C  C2217  1  0.472000  0.845000  0.560100  1
  C  C2218  1  0.028000  0.155000  0.060100  1
  C  C2219  1  0.405000  0.222000  0.310100  1
  C  C2220  1  0.095000  0.778000  0.810100  1
  C  C2221  1  0.972000  0.345000  0.060100  1
  C  C2222  1  0.528000  0.655000  0.560100  1
  C  C2223  1  0.905000  0.722000  0.810100  1
  C  C2224  1  0.595000  0.278000  0.310100  1
  C  C2225  1  0.485000  0.127000  0.415000  1
  C  C2226  1  0.015000  0.873000  0.915000  1
  C  C2227  1  0.623000  0.735000  0.665000  1
  C  C2228  1  0.877000  0.265000  0.165000  1
  C  C2229  1  0.985000  0.627000  0.915000  1
  C  C2230  1  0.515000  0.373000  0.415000  1
  C  C2231  1  0.123000  0.235000  0.165000  1
  C  C2232  1  0.377000  0.765000  0.665000  1
  C  C2233  1  0.515000  0.873000  0.585000  1
  C  C2234  1  0.985000  0.127000  0.085000  1
  C  C2235  1  0.377000  0.265000  0.335000  1
  C  C2236  1  0.123000  0.735000  0.835000  1
  C  C2237  1  0.015000  0.373000  0.085000  1
  C  C2238  1  0.485000  0.627000  0.585000  1
  C  C2239  1  0.877000  0.765000  0.835000  1
  C  C2240  1  0.623000  0.235000  0.335000  1
  C  C2241  1  0.453000  0.092000  0.442000  1
  C  C2242  1  0.047000  0.908000  0.942000  1
  C  C2243  1  0.658000  0.703000  0.692000  1
  C  C2244  1  0.842000  0.297000  0.192000  1
  C  C2245  1  0.953000  0.592000  0.942000  1
  C  C2246  1  0.547000  0.408000  0.442000  1
  C  C2247  1  0.158000  0.203000  0.192000  1
  C  C2248  1  0.342000  0.797000  0.692000  1
  C  C2249  1  0.547000  0.908000  0.558000  1
  C  C2250  1  0.953000  0.092000  0.058000  1
  C  C2251  1  0.342000  0.297000  0.308000  1
  C  C2252  1  0.158000  0.703000  0.808000  1
  C  C2253  1  0.047000  0.408000  0.058000  1
  C  C2254  1  0.453000  0.592000  0.558000  1
  C  C2255  1  0.842000  0.797000  0.808000  1
  C  C2256  1  0.658000  0.203000  0.308000  1
  C  C2257  1  0.600800  0.323000  0.328200  1.0
  C  C2258  1  0.899200  0.677000  0.828200  1.0
  C  C2259  1  0.427000  0.850800  0.578200  1.0
  C  C2260  1  0.073000  0.149200  0.078200  1.0
  C  C2261  1  0.100800  0.823000  0.828200  1.0
  C  C2262  1  0.399200  0.177000  0.328200  1.0
  C  C2263  1  0.927000  0.350800  0.078200  1.0
  C  C2264  1  0.573000  0.649200  0.578200  1.0
  C  C2265  1  0.399200  0.677000  0.671800  1.0
  C  C2266  1  0.100800  0.323000  0.171800  1.0
  C  C2267  1  0.573000  0.149200  0.421800  1.0
  C  C2268  1  0.927000  0.850800  0.921800  1.0
  C  C2269  1  0.899200  0.177000  0.171800  1.0
  C  C2270  1  0.600800  0.823000  0.671800  1.0
  C  C2271  1  0.073000  0.649200  0.921800  1.0
  C  C2272  1  0.427000  0.350800  0.421800  1.0
  C  C2273  1  0.548500  0.373600  0.404500  1.0
  C  C2274  1  0.951500  0.626400  0.904500  1.0
  C  C2275  1  0.376400  0.798500  0.654500  1.0
  C  C2276  1  0.123600  0.201500  0.154500  1.0
  C  C2277  1  0.048500  0.873600  0.904500  1.0
  C  C2278  1  0.451500  0.126400  0.404500  1.0
  C  C2279  1  0.876400  0.298500  0.154500  1.0
  C  C2280  1  0.623600  0.701500  0.654500  1.0
  C  C2281  1  0.451500  0.626400  0.595500  1.0
  C  C2282  1  0.048500  0.373600  0.095500  1.0
  C  C2283  1  0.623600  0.201500  0.345500  1.0
  C  C2284  1  0.876400  0.798500  0.845500  1.0
  C  C2285  1  0.951500  0.126400  0.095500  1.0
  C  C2286  1  0.548500  0.873600  0.595500  1.0
  C  C2287  1  0.123600  0.701500  0.845500  1.0
  C  C2288  1  0.376400  0.298500  0.345500  1.0
  C  C2289  1  0.525600  0.377600  0.450000  1.0
  C  C2290  1  0.974400  0.622400  0.950000  1.0
  C  C2291  1  0.372400  0.775600  0.700000  1.0
  C  C2292  1  0.127600  0.224400  0.200000  1.0
  C  C2293  1  0.025600  0.877600  0.950000  1.0
  C  C2294  1  0.474400  0.122400  0.450000  1.0
  C  C2295  1  0.872400  0.275600  0.200000  1.0
  C  C2296  1  0.627600  0.724400  0.700000  1.0
  C  C2297  1  0.474400  0.622400  0.550000  1.0
  C  C2298  1  0.025600  0.377600  0.050000  1.0
  C  C2299  1  0.627600  0.224400  0.300000  1.0
  C  C2300  1  0.872400  0.775600  0.800000  1.0
  C  C2301  1  0.974400  0.122400  0.050000  1.0
  C  C2302  1  0.525600  0.877600  0.550000  1.0
  C  C2303  1  0.127600  0.724400  0.800000  1.0
  C  C2304  1  0.372400  0.275600  0.300000  1.0
  C  C2305  1  0.539900  0.436300  0.453500  1.0
  C  C2306  1  0.960100  0.563700  0.953500  1.0
  C  C2307  1  0.313700  0.789900  0.703500  1.0
  C  C2308  1  0.186300  0.210100  0.203500  1.0
  C  C2309  1  0.039900  0.936300  0.953500  1.0
  C  C2310  1  0.460100  0.063700  0.453500  1.0
  C  C2311  1  0.813700  0.289900  0.203500  1.0
  C  C2312  1  0.686300  0.710100  0.703500  1.0
  C  C2313  1  0.460100  0.563700  0.546500  1.0
  C  C2314  1  0.039900  0.436300  0.046500  1.0
  C  C2315  1  0.686300  0.210100  0.296500  1.0
  C  C2316  1  0.813700  0.789900  0.796500  1.0
  C  C2317  1  0.960100  0.063700  0.046500  1.0
  C  C2318  1  0.539900  0.936300  0.546500  1.0
  C  C2319  1  0.186300  0.710100  0.796500  1.0
  C  C2320  1  0.313700  0.289900  0.296500  1.0
  C  C2321  1  0.487200  0.462500  0.447300  1.0
  C  C2322  1  0.012800  0.537500  0.947300  1.0
  C  C2323  1  0.287500  0.737200  0.697300  1.0
  C  C2324  1  0.212500  0.262800  0.197300  1.0
  C  C2325  1  0.987200  0.962500  0.947300  1.0
  C  C2326  1  0.512800  0.037500  0.447300  1.0
  C  C2327  1  0.787500  0.237200  0.197300  1.0
  C  C2328  1  0.712500  0.762800  0.697300  1.0
  C  C2329  1  0.512800  0.537500  0.552700  1.0
  C  C2330  1  0.987200  0.462500  0.052700  1.0
  C  C2331  1  0.712500  0.262800  0.302700  1.0
  C  C2332  1  0.787500  0.737200  0.802700  1.0
  C  C2333  1  0.012800  0.037500  0.052700  1.0
  C  C2334  1  0.487200  0.962500  0.552700  1.0
  C  C2335  1  0.212500  0.762800  0.802700  1.0
  C  C2336  1  0.287500  0.237200  0.302700  1.0
  C  C2337  1  0.606400  0.203700  0.327100  1.0
  C  C2338  1  0.893600  0.796300  0.827100  1.0
  C  C2339  1  0.546300  0.856400  0.577100  1.0
  C  C2340  1  0.953700  0.143600  0.077100  1.0
  C  C2341  1  0.106400  0.703700  0.827100  1.0
  C  C2342  1  0.393600  0.296300  0.327100  1.0
  C  C2343  1  0.046300  0.356400  0.077100  1.0
  C  C2344  1  0.453700  0.643600  0.577100  1.0
  C  C2345  1  0.393600  0.796300  0.672900  1.0
  C  C2346  1  0.106400  0.203700  0.172900  1.0
  C  C2347  1  0.453700  0.143600  0.422900  1.0
  C  C2348  1  0.046300  0.856400  0.922900  1.0
  C  C2349  1  0.893600  0.296300  0.172900  1.0
  C  C2350  1  0.606400  0.703700  0.672900  1.0
  C  C2351  1  0.953700  0.643600  0.922900  1.0
  C  C2352  1  0.546300  0.356400  0.422900  1.0
  C  C2353  1  0.594400  0.248900  0.293600  1.0
  C  C2354  1  0.905600  0.751100  0.793600  1.0
  C  C2355  1  0.501100  0.844400  0.543600  1.0
  C  C2356  1  0.998900  0.155600  0.043600  1.0
  C  C2357  1  0.094400  0.748900  0.793600  1.0
  C  C2358  1  0.405600  0.251100  0.293600  1.0
  C  C2359  1  0.001100  0.344400  0.043600  1.0
  C  C2360  1  0.498900  0.655600  0.543600  1.0
  C  C2361  1  0.405600  0.751100  0.706400  1.0
  C  C2362  1  0.094400  0.248900  0.206400  1.0
  C  C2363  1  0.498900  0.155600  0.456400  1.0
  C  C2364  1  0.001100  0.844400  0.956400  1.0
  C  C2365  1  0.905600  0.251100  0.206400  1.0
  C  C2366  1  0.594400  0.748900  0.706400  1.0
  C  C2367  1  0.998900  0.655600  0.956400  1.0
  C  C2368  1  0.501100  0.344400  0.456400  1.0
  C  C2369  1  0.622600  0.290200  0.312400  1.0
  C  C2370  1  0.877400  0.709800  0.812400  1.0
  C  C2371  1  0.459800  0.872600  0.562400  1.0
  C  C2372  1  0.040200  0.127400  0.062400  1.0
  C  C2373  1  0.122600  0.790200  0.812400  1.0
  C  C2374  1  0.377400  0.209800  0.312400  1.0
  C  C2375  1  0.959800  0.372600  0.062400  1.0
  C  C2376  1  0.540200  0.627400  0.562400  1.0
  C  C2377  1  0.377400  0.709800  0.687600  1.0
  C  C2378  1  0.122600  0.290200  0.187600  1.0
  C  C2379  1  0.540200  0.127400  0.437600  1.0
  C  C2380  1  0.959800  0.872600  0.937600  1.0
  C  C2381  1  0.877400  0.209800  0.187600  1.0
  C  C2382  1  0.622600  0.790200  0.687600  1.0
  C  C2383  1  0.040200  0.627400  0.937600  1.0
  C  C2384  1  0.459800  0.372600  0.437600  1.0
  C  C2385  1  0.600600  0.331700  0.337800  1.0
  C  C2386  1  0.899400  0.668300  0.837800  1.0
  C  C2387  1  0.418300  0.850600  0.587800  1.0
  C  C2388  1  0.081700  0.149400  0.087800  1.0
  C  C2389  1  0.100600  0.831700  0.837800  1.0
  C  C2390  1  0.399400  0.168300  0.337800  1.0
  C  C2391  1  0.918300  0.350600  0.087800  1.0
  C  C2392  1  0.581700  0.649400  0.587800  1.0
  C  C2393  1  0.399400  0.668300  0.662200  1.0
  C  C2394  1  0.100600  0.331700  0.162200  1.0
  C  C2395  1  0.581700  0.149400  0.412200  1.0
  C  C2396  1  0.918300  0.850600  0.912200  1.0
  C  C2397  1  0.899400  0.168300  0.162200  1.0
  C  C2398  1  0.600600  0.831700  0.662200  1.0
  C  C2399  1  0.081700  0.649400  0.912200  1.0
  C  C2400  1  0.418300  0.350600  0.412200  1.0
  C  C2401  1  0.323300  0.477020  0.367000  1.0
  C  C2402  1  0.176700  0.522980  0.867000  1.0
  C  C2403  1  0.272980  0.573300  0.617000  1.0
  C  C2404  1  0.227020  0.426700  0.117000  1.0
  C  C2405  1  0.823300  0.977020  0.867000  1.0
  C  C2406  1  0.676700  0.022980  0.367000  1.0
  C  C2407  1  0.772980  0.073300  0.117000  1.0
  C  C2408  1  0.727020  0.926700  0.617000  1.0
  C  C2409  1  0.676700  0.522980  0.633000  1.0
  C  C2410  1  0.823300  0.477020  0.133000  1.0
  C  C2411  1  0.727020  0.426700  0.383000  1.0
  C  C2412  1  0.772980  0.573300  0.883000  1.0
  C  C2413  1  0.176700  0.022980  0.133000  1.0
  C  C2414  1  0.323300  0.977020  0.633000  1.0
  C  C2415  1  0.227020  0.926700  0.883000  1.0
  C  C2416  1  0.272980  0.073300  0.383000  1.0
  C  C2417  1  0.371790  0.469200  0.351790  1.0
  C  C2418  1  0.128210  0.530800  0.851790  1.0
  C  C2419  1  0.280800  0.621790  0.601790  1.0
  C  C2420  1  0.219200  0.378210  0.101790  1.0
  C  C2421  1  0.871790  0.969200  0.851790  1.0
  C  C2422  1  0.628210  0.030800  0.351790  1.0
  C  C2423  1  0.780800  0.121790  0.101790  1.0
  C  C2424  1  0.719200  0.878210  0.601790  1.0
  C  C2425  1  0.628210  0.530800  0.648210  1.0
  C  C2426  1  0.871790  0.469200  0.148210  1.0
  C  C2427  1  0.719200  0.378210  0.398210  1.0
  C  C2428  1  0.780800  0.621790  0.898210  1.0
  C  C2429  1  0.128210  0.030800  0.148210  1.0
  C  C2430  1  0.371790  0.969200  0.648210  1.0
  C  C2431  1  0.219200  0.878210  0.898210  1.0
  C  C2432  1  0.280800  0.121790  0.398210  1.0
  C  C2433  1  0.378390  0.444380  0.312940  1.0
  C  C2434  1  0.121610  0.555620  0.812940  1.0
  C  C2435  1  0.305620  0.628390  0.562940  1.0
  C  C2436  1  0.194380  0.371610  0.062940  1.0
  C  C2437  1  0.878390  0.944380  0.812940  1.0
  C  C2438  1  0.621610  0.055620  0.312940  1.0
  C  C2439  1  0.805620  0.128390  0.062940  1.0
  C  C2440  1  0.694380  0.871610  0.562940  1.0
  C  C2441  1  0.621610  0.555620  0.687060  1.0
  C  C2442  1  0.878390  0.444380  0.187060  1.0
  C  C2443  1  0.694380  0.371610  0.437060  1.0
  C  C2444  1  0.805620  0.628390  0.937060  1.0
  C  C2445  1  0.121610  0.055620  0.187060  1.0
  C  C2446  1  0.378390  0.944380  0.687060  1.0
  C  C2447  1  0.194380  0.871610  0.937060  1.0
  C  C2448  1  0.305620  0.128390  0.437060  1.0
  C  C2449  1  0.335720  0.428650  0.290690  1.0
  C  C2450  1  0.164280  0.571350  0.790690  1.0
  C  C2451  1  0.321350  0.585720  0.540690  1.0
  C  C2452  1  0.178650  0.414280  0.040690  1.0
  C  C2453  1  0.835720  0.928650  0.790690  1.0
  C  C2454  1  0.664280  0.071350  0.290690  1.0
  C  C2455  1  0.821350  0.085720  0.040690  1.0
  C  C2456  1  0.678650  0.914280  0.540690  1.0
  C  C2457  1  0.664280  0.571350  0.709310  1.0
  C  C2458  1  0.835720  0.428650  0.209310  1.0
  C  C2459  1  0.678650  0.414280  0.459310  1.0
  C  C2460  1  0.821350  0.585720  0.959310  1.0
  C  C2461  1  0.164280  0.071350  0.209310  1.0
  C  C2462  1  0.335720  0.928650  0.709310  1.0
  C  C2463  1  0.178650  0.914280  0.959310  1.0
  C  C2464  1  0.321350  0.085720  0.459310  1.0
  C  C2465  1  0.287940  0.438410  0.307420  1.0
  C  C2466  1  0.212060  0.561590  0.807420  1.0
  C  C2467  1  0.311590  0.537940  0.557420  1.0
  C  C2468  1  0.188410  0.462060  0.057420  1.0
  C  C2469  1  0.787940  0.938410  0.807420  1.0
  C  C2470  1  0.712060  0.061590  0.307420  1.0
  C  C2471  1  0.811590  0.037940  0.057420  1.0
  C  C2472  1  0.688410  0.962060  0.557420  1.0
  C  C2473  1  0.712060  0.561590  0.692580  1.0
  C  C2474  1  0.787940  0.438410  0.192580  1.0
  C  C2475  1  0.688410  0.462060  0.442580  1.0
  C  C2476  1  0.811590  0.537940  0.942580  1.0
  C  C2477  1  0.212060  0.061590  0.192580  1.0
  C  C2478  1  0.287940  0.938410  0.692580  1.0
  C  C2479  1  0.188410  0.962060  0.942580  1.0
  C  C2480  1  0.311590  0.037940  0.442580  1.0
  C  C2481  1  0.429930  0.434440  0.294890  1.0
  C  C2482  1  0.070070  0.565560  0.794890  1.0
  C  C2483  1  0.315560  0.679930  0.544890  1.0
  C  C2484  1  0.184440  0.320070  0.044890  1.0
  C  C2485  1  0.929930  0.934440  0.794890  1.0
  C  C2486  1  0.570070  0.065560  0.294890  1.0
  C  C2487  1  0.815560  0.179930  0.044890  1.0
  C  C2488  1  0.684440  0.820070  0.544890  1.0
  C  C2489  1  0.570070  0.565560  0.705110  1.0
  C  C2490  1  0.929930  0.434440  0.205110  1.0
  C  C2491  1  0.684440  0.320070  0.455110  1.0
  C  C2492  1  0.815560  0.679930  0.955110  1.0
  C  C2493  1  0.070070  0.065560  0.205110  1.0
  C  C2494  1  0.429930  0.934440  0.705110  1.0
  C  C2495  1  0.184440  0.820070  0.955110  1.0
  C  C2496  1  0.315560  0.179930  0.455110  1.0
  C  C2497  1  0.514640  0.446490  0.295380  1.0
  C  C2498  1  0.985360  0.553510  0.795380  1.0
  C  C2499  1  0.303510  0.764640  0.545380  1.0
  C  C2500  1  0.196490  0.235360  0.045380  1.0
  C  C2501  1  0.014640  0.946490  0.795380  1.0
  C  C2502  1  0.485360  0.053510  0.295380  1.0
  C  C2503  1  0.803510  0.264640  0.045380  1.0
  C  C2504  1  0.696490  0.735360  0.545380  1.0
  C  C2505  1  0.485360  0.553510  0.704620  1.0
  C  C2506  1  0.014640  0.446490  0.204620  1.0
  C  C2507  1  0.696490  0.235360  0.454620  1.0
  C  C2508  1  0.803510  0.764640  0.954620  1.0
  C  C2509  1  0.985360  0.053510  0.204620  1.0
  C  C2510  1  0.514640  0.946490  0.704620  1.0
  C  C2511  1  0.196490  0.735360  0.954620  1.0
  C  C2512  1  0.303510  0.264640  0.454620  1.0
  C  C2513  1  0.478830  0.396820  0.244860  1.0
  C  C2514  1  0.021170  0.603180  0.744860  1.0
  C  C2515  1  0.353180  0.728830  0.494860  1.0
  C  C2516  1  0.146820  0.271170  0.994860  1.0
  C  C2517  1  0.978830  0.896820  0.744860  1.0
  C  C2518  1  0.521170  0.103180  0.244860  1.0
  C  C2519  1  0.853180  0.228830  0.994860  1.0
  C  C2520  1  0.646820  0.771170  0.494860  1.0
  C  C2521  1  0.521170  0.603180  0.755140  1.0
  C  C2522  1  0.978830  0.396820  0.255140  1.0
  C  C2523  1  0.646820  0.271170  0.505140  1.0
  C  C2524  1  0.853180  0.728830  0.005140  1.0
  C  C2525  1  0.021170  0.103180  0.255140  1.0
  C  C2526  1  0.478830  0.896820  0.755140  1.0
  C  C2527  1  0.146820  0.771170  0.005140  1.0
  C  C2528  1  0.353180  0.228830  0.505140  1.0
  C  C2529  1  0.650730  0.487280  0.311860  1.0
  C  C2530  1  0.849270  0.512720  0.811860  1.0
  C  C2531  1  0.262720  0.900730  0.561860  1.0
  C  C2532  1  0.237280  0.099270  0.061860  1.0
  C  C2533  1  0.150730  0.987280  0.811860  1.0
  C  C2534  1  0.349270  0.012720  0.311860  1.0
  C  C2535  1  0.762720  0.400730  0.061860  1.0
  C  C2536  1  0.737280  0.599270  0.561860  1.0
  C  C2537  1  0.349270  0.512720  0.688140  1.0
  C  C2538  1  0.150730  0.487280  0.188140  1.0
  C  C2539  1  0.737280  0.099270  0.438140  1.0
  C  C2540  1  0.762720  0.900730  0.938140  1.0
  C  C2541  1  0.849270  0.012720  0.188140  1.0
  C  C2542  1  0.650730  0.987280  0.688140  1.0
  C  C2543  1  0.237280  0.599270  0.938140  1.0
  C  C2544  1  0.262720  0.400730  0.438140  1.0
  C  C2545  1  0.607870  0.464420  0.293930  1.0
  C  C2546  1  0.892130  0.535580  0.793930  1.0
  C  C2547  1  0.285580  0.857870  0.543930  1.0
  C  C2548  1  0.214420  0.142130  0.043930  1.0
  C  C2549  1  0.107870  0.964420  0.793930  1.0
  C  C2550  1  0.392130  0.035580  0.293930  1.0
  C  C2551  1  0.785580  0.357870  0.043930  1.0
  C  C2552  1  0.714420  0.642130  0.543930  1.0
  C  C2553  1  0.392130  0.535580  0.706070  1.0
  C  C2554  1  0.107870  0.464420  0.206070  1.0
  C  C2555  1  0.714420  0.142130  0.456070  1.0
  C  C2556  1  0.785580  0.857870  0.956070  1.0
  C  C2557  1  0.892130  0.035580  0.206070  1.0
  C  C2558  1  0.607870  0.964420  0.706070  1.0
  C  C2559  1  0.214420  0.642130  0.956070  1.0
  C  C2560  1  0.285580  0.357870  0.456070  1.0
  C  C2561  1  0.561190  0.470500  0.313920  1.0
  C  C2562  1  0.938810  0.529500  0.813920  1.0
  C  C2563  1  0.279500  0.811190  0.563920  1.0
  C  C2564  1  0.220500  0.188810  0.063920  1.0
  C  C2565  1  0.061190  0.970500  0.813920  1.0
  C  C2566  1  0.438810  0.029500  0.313920  1.0
  C  C2567  1  0.779500  0.311190  0.063920  1.0
  C  C2568  1  0.720500  0.688810  0.563920  1.0
  C  C2569  1  0.438810  0.529500  0.686080  1.0
  C  C2570  1  0.061190  0.470500  0.186080  1.0
  C  C2571  1  0.720500  0.188810  0.436080  1.0
  C  C2572  1  0.779500  0.811190  0.936080  1.0
  C  C2573  1  0.938810  0.029500  0.186080  1.0
  C  C2574  1  0.561190  0.970500  0.686080  1.0
  C  C2575  1  0.220500  0.688810  0.936080  1.0
  C  C2576  1  0.279500  0.311190  0.436080  1.0
  C  C2577  1  0.558380  0.499490  0.351020  1.0
  C  C2578  1  0.941620  0.500510  0.851020  1.0
  C  C2579  1  0.250510  0.808380  0.601020  1.0
  C  C2580  1  0.249490  0.191620  0.101020  1.0
  C  C2581  1  0.058380  0.999490  0.851020  1.0
  C  C2582  1  0.441620  0.000510  0.351020  1.0
  C  C2583  1  0.750510  0.308380  0.101020  1.0
  C  C2584  1  0.749490  0.691620  0.601020  1.0
  C  C2585  1  0.441620  0.500510  0.648980  1.0
  C  C2586  1  0.058380  0.499490  0.148980  1.0
  C  C2587  1  0.749490  0.191620  0.398980  1.0
  C  C2588  1  0.750510  0.808380  0.898980  1.0
  C  C2589  1  0.941620  0.000510  0.148980  1.0
  C  C2590  1  0.558380  0.999490  0.648980  1.0
  C  C2591  1  0.249490  0.691620  0.898980  1.0
  C  C2592  1  0.250510  0.308380  0.398980  1.0
  C  C2593  1  0.602110  0.521470  0.367170  1.0
  C  C2594  1  0.897890  0.478530  0.867170  1.0
  C  C2595  1  0.228530  0.852110  0.617170  1.0
  C  C2596  1  0.271470  0.147890  0.117170  1.0
  C  C2597  1  0.102110  0.021470  0.867170  1.0
  C  C2598  1  0.397890  0.978530  0.367170  1.0
  C  C2599  1  0.728530  0.352110  0.117170  1.0
  C  C2600  1  0.771470  0.647890  0.617170  1.0
  C  C2601  1  0.397890  0.478530  0.632830  1.0
  C  C2602  1  0.102110  0.521470  0.132830  1.0
  C  C2603  1  0.771470  0.147890  0.382830  1.0
  C  C2604  1  0.728530  0.852110  0.882830  1.0
  C  C2605  1  0.897890  0.978530  0.132830  1.0
  C  C2606  1  0.602110  0.021470  0.632830  1.0
  C  C2607  1  0.271470  0.647890  0.882830  1.0
  C  C2608  1  0.228530  0.352110  0.382830  1.0
  C  C2609  1  0.533780  0.321530  0.153930  1.0
  C  C2610  1  0.966220  0.678470  0.653930  1.0
  C  C2611  1  0.428470  0.783780  0.403930  1.0
  C  C2612  1  0.071530  0.216220  0.903930  1.0
  C  C2613  1  0.033780  0.821530  0.653930  1.0
  C  C2614  1  0.466220  0.178470  0.153930  1.0
  C  C2615  1  0.928470  0.283780  0.903930  1.0
  C  C2616  1  0.571530  0.716220  0.403930  1.0
  C  C2617  1  0.466220  0.678470  0.846070  1.0
  C  C2618  1  0.033780  0.321530  0.346070  1.0
  C  C2619  1  0.571530  0.216220  0.596070  1.0
  C  C2620  1  0.928470  0.783780  0.096070  1.0
  C  C2621  1  0.966220  0.178470  0.346070  1.0
  C  C2622  1  0.533780  0.821530  0.846070  1.0
  C  C2623  1  0.071530  0.716220  0.096070  1.0
  C  C2624  1  0.428470  0.283780  0.596070  1.0
  C  C2625  1  0.530720  0.352270  0.189610  1.0
  C  C2626  1  0.969280  0.647730  0.689610  1.0
  C  C2627  1  0.397730  0.780720  0.439610  1.0
  C  C2628  1  0.102270  0.219280  0.939610  1.0
  C  C2629  1  0.030720  0.852270  0.689610  1.0
  C  C2630  1  0.469280  0.147730  0.189610  1.0
  C  C2631  1  0.897730  0.280720  0.939610  1.0
  C  C2632  1  0.602270  0.719280  0.439610  1.0
  C  C2633  1  0.469280  0.647730  0.810390  1.0
  C  C2634  1  0.030720  0.352270  0.310390  1.0
  C  C2635  1  0.602270  0.219280  0.560390  1.0
  C  C2636  1  0.897730  0.780720  0.060390  1.0
  C  C2637  1  0.969280  0.147730  0.310390  1.0
  C  C2638  1  0.530720  0.852270  0.810390  1.0
  C  C2639  1  0.102270  0.719280  0.060390  1.0
  C  C2640  1  0.397730  0.280720  0.560390  1.0
  C  C2641  1  0.483450  0.363720  0.206910  1.0
  C  C2642  1  0.016550  0.636280  0.706910  1.0
  C  C2643  1  0.386280  0.733450  0.456910  1.0
  C  C2644  1  0.113720  0.266550  0.956910  1.0
  C  C2645  1  0.983450  0.863720  0.706910  1.0
  C  C2646  1  0.516550  0.136280  0.206910  1.0
  C  C2647  1  0.886280  0.233450  0.956910  1.0
  C  C2648  1  0.613720  0.766550  0.456910  1.0
  C  C2649  1  0.516550  0.636280  0.793090  1.0
  C  C2650  1  0.983450  0.363720  0.293090  1.0
  C  C2651  1  0.613720  0.266550  0.543090  1.0
  C  C2652  1  0.886280  0.733450  0.043090  1.0
  C  C2653  1  0.016550  0.136280  0.293090  1.0
  C  C2654  1  0.483450  0.863720  0.793090  1.0
  C  C2655  1  0.113720  0.766550  0.043090  1.0
  C  C2656  1  0.386280  0.233450  0.543090  1.0
  C  C2657  1  0.440550  0.342900  0.187620  1.0
  C  C2658  1  0.059450  0.657100  0.687620  1.0
  C  C2659  1  0.407100  0.690550  0.437620  1.0
  C  C2660  1  0.092900  0.309450  0.937620  1.0
  C  C2661  1  0.940550  0.842900  0.687620  1.0
  C  C2662  1  0.559450  0.157100  0.187620  1.0
  C  C2663  1  0.907100  0.190550  0.937620  1.0
  C  C2664  1  0.592900  0.809450  0.437620  1.0
  C  C2665  1  0.559450  0.657100  0.812380  1.0
  C  C2666  1  0.940550  0.342900  0.312380  1.0
  C  C2667  1  0.592900  0.309450  0.562380  1.0
  C  C2668  1  0.907100  0.690550  0.062380  1.0
  C  C2669  1  0.059450  0.157100  0.312380  1.0
  C  C2670  1  0.440550  0.842900  0.812380  1.0
  C  C2671  1  0.092900  0.809450  0.062380  1.0
  C  C2672  1  0.407100  0.190550  0.562380  1.0
  C  C2673  1  0.446260  0.312130  0.151960  1.0
  C  C2674  1  0.053740  0.687870  0.651960  1.0
  C  C2675  1  0.437870  0.696260  0.401960  1.0
  C  C2676  1  0.062130  0.303740  0.901960  1.0
  C  C2677  1  0.946260  0.812130  0.651960  1.0
  C  C2678  1  0.553740  0.187870  0.151960  1.0
  C  C2679  1  0.937870  0.196260  0.901960  1.0
  C  C2680  1  0.562130  0.803740  0.401960  1.0
  C  C2681  1  0.553740  0.687870  0.848040  1.0
  C  C2682  1  0.946260  0.312130  0.348040  1.0
  C  C2683  1  0.562130  0.303740  0.598040  1.0
  C  C2684  1  0.937870  0.696260  0.098040  1.0
  C  C2685  1  0.053740  0.187870  0.348040  1.0
  C  C2686  1  0.446260  0.812130  0.848040  1.0
  C  C2687  1  0.062130  0.803740  0.098040  1.0
  C  C2688  1  0.437870  0.196260  0.598040  1.0
  C  C2689  1  0.110200  0.418900  0.382100  1.0
  C  C2690  1  0.389800  0.581100  0.882100  1.0
  C  C2691  1  0.331100  0.360200  0.632100  1.0
  C  C2692  1  0.168900  0.639800  0.132100  1.0
  C  C2693  1  0.610200  0.918900  0.882100  1.0
  C  C2694  1  0.889800  0.081100  0.382100  1.0
  C  C2695  1  0.831100  0.860200  0.132100  1.0
  C  C2696  1  0.668900  0.139800  0.632100  1.0
  C  C2697  1  0.889800  0.581100  0.617900  1.0
  C  C2698  1  0.610200  0.418900  0.117900  1.0
  C  C2699  1  0.668900  0.639800  0.367900  1.0
  C  C2700  1  0.831100  0.360200  0.867900  1.0
  C  C2701  1  0.389800  0.081100  0.117900  1.0
  C  C2702  1  0.110200  0.918900  0.617900  1.0
  C  C2703  1  0.168900  0.139800  0.867900  1.0
  C  C2704  1  0.331100  0.860200  0.367900  1.0
  C  C2705  1  0.142200  0.450100  0.448800  1.0
  C  C2706  1  0.357800  0.549900  0.948800  1.0
  C  C2707  1  0.299900  0.392200  0.698800  1.0
  C  C2708  1  0.200100  0.607800  0.198800  1.0
  C  C2709  1  0.642200  0.950100  0.948800  1.0
  C  C2710  1  0.857800  0.049900  0.448800  1.0
  C  C2711  1  0.799900  0.892200  0.198800  1.0
  C  C2712  1  0.700100  0.107800  0.698800  1.0
  C  C2713  1  0.857800  0.549900  0.551200  1.0
  C  C2714  1  0.642200  0.450100  0.051200  1.0
  C  C2715  1  0.700100  0.607800  0.301200  1.0
  C  C2716  1  0.799900  0.392200  0.801200  1.0
  C  C2717  1  0.357800  0.049900  0.051200  1.0
  C  C2718  1  0.142200  0.950100  0.551200  1.0
  C  C2719  1  0.200100  0.107800  0.801200  1.0
  C  C2720  1  0.299900  0.892200  0.301200  1.0
  C  C2721  1  0.118800  0.511600  0.396300  1.0
  C  C2722  1  0.381200  0.488400  0.896300  1.0
  C  C2723  1  0.238400  0.368800  0.646300  1.0
  C  C2724  1  0.261600  0.631200  0.146300  1.0
  C  C2725  1  0.618800  0.011600  0.896300  1.0
  C  C2726  1  0.881200  0.988400  0.396300  1.0
  C  C2727  1  0.738400  0.868800  0.146300  1.0
  C  C2728  1  0.761600  0.131200  0.646300  1.0
  C  C2729  1  0.881200  0.488400  0.603700  1.0
  C  C2730  1  0.618800  0.511600  0.103700  1.0
  C  C2731  1  0.761600  0.631200  0.353700  1.0
  C  C2732  1  0.738400  0.368800  0.853700  1.0
  C  C2733  1  0.381200  0.988400  0.103700  1.0
  C  C2734  1  0.118800  0.011600  0.603700  1.0
  C  C2735  1  0.261600  0.131200  0.853700  1.0
  C  C2736  1  0.238400  0.868800  0.353700  1.0
  C  C2737  1  0.129300  0.527700  0.350700  1.0
  C  C2738  1  0.370700  0.472300  0.850700  1.0
  C  C2739  1  0.222300  0.379300  0.600700  1.0
  C  C2740  1  0.277700  0.620700  0.100700  1.0
  C  C2741  1  0.629300  0.027700  0.850700  1.0
  C  C2742  1  0.870700  0.972300  0.350700  1.0
  C  C2743  1  0.722300  0.879300  0.100700  1.0
  C  C2744  1  0.777700  0.120700  0.600700  1.0
  C  C2745  1  0.870700  0.472300  0.649300  1.0
  C  C2746  1  0.629300  0.527700  0.149300  1.0
  C  C2747  1  0.777700  0.620700  0.399300  1.0
  C  C2748  1  0.722300  0.379300  0.899300  1.0
  C  C2749  1  0.370700  0.972300  0.149300  1.0
  C  C2750  1  0.129300  0.027700  0.649300  1.0
  C  C2751  1  0.277700  0.120700  0.899300  1.0
  C  C2752  1  0.222300  0.879300  0.399300  1.0
  C  C2753  1  0.194800  0.523800  0.296100  1.0
  C  C2754  1  0.305200  0.476200  0.796100  1.0
  C  C2755  1  0.226200  0.444800  0.546100  1.0
  C  C2756  1  0.273800  0.555200  0.046100  1.0
  C  C2757  1  0.694800  0.023800  0.796100  1.0
  C  C2758  1  0.805200  0.976200  0.296100  1.0
  C  C2759  1  0.726200  0.944800  0.046100  1.0
  C  C2760  1  0.773800  0.055200  0.546100  1.0
  C  C2761  1  0.805200  0.476200  0.703900  1.0
  C  C2762  1  0.694800  0.523800  0.203900  1.0
  C  C2763  1  0.773800  0.555200  0.453900  1.0
  C  C2764  1  0.726200  0.444800  0.953900  1.0
  C  C2765  1  0.305200  0.976200  0.203900  1.0
  C  C2766  1  0.194800  0.023800  0.703900  1.0
  C  C2767  1  0.273800  0.055200  0.953900  1.0
  C  C2768  1  0.226200  0.944800  0.453900  1.0
  C  C2769  1  0.211600  0.571600  0.360500  1.0
  C  C2770  1  0.288400  0.428400  0.860500  1.0
  C  C2771  1  0.178400  0.461600  0.610500  1.0
  C  C2772  1  0.321600  0.538400  0.110500  1.0
  C  C2773  1  0.711600  0.071600  0.860500  1.0
  C  C2774  1  0.788400  0.928400  0.360500  1.0
  C  C2775  1  0.678400  0.961600  0.110500  1.0
  C  C2776  1  0.821600  0.038400  0.610500  1.0
  C  C2777  1  0.788400  0.428400  0.639500  1.0
  C  C2778  1  0.711600  0.571600  0.139500  1.0
  C  C2779  1  0.821600  0.538400  0.389500  1.0
  C  C2780  1  0.678400  0.461600  0.889500  1.0
  C  C2781  1  0.288400  0.928400  0.139500  1.0
  C  C2782  1  0.211600  0.071600  0.639500  1.0
  C  C2783  1  0.321600  0.038400  0.889500  1.0
  C  C2784  1  0.178400  0.961600  0.389500  1.0
  C  C2785  1  0.479000  0.150400  0.045390  1.0
  C  C2786  1  0.021000  0.849600  0.545390  1.0
  C  C2787  1  0.599600  0.729000  0.295390  1.0
  C  C2788  1  0.900400  0.271000  0.795390  1.0
  C  C2789  1  0.979000  0.650400  0.545390  1.0
  C  C2790  1  0.521000  0.349600  0.045390  1.0
  C  C2791  1  0.099600  0.229000  0.795390  1.0
  C  C2792  1  0.400400  0.771000  0.295390  1.0
  C  C2793  1  0.521000  0.849600  0.954610  1.0
  C  C2794  1  0.979000  0.150400  0.454610  1.0
  C  C2795  1  0.400400  0.271000  0.704610  1.0
  C  C2796  1  0.099600  0.729000  0.204610  1.0
  C  C2797  1  0.021000  0.349600  0.454610  1.0
  C  C2798  1  0.479000  0.650400  0.954610  1.0
  C  C2799  1  0.900400  0.771000  0.204610  1.0
  C  C2800  1  0.599600  0.229000  0.704610  1.0
  C  C2801  1  0.563900  0.183000  0.035100  1.0
  C  C2802  1  0.936100  0.817000  0.535100  1.0
  C  C2803  1  0.567000  0.813900  0.285100  1.0
  C  C2804  1  0.933000  0.186100  0.785100  1.0
  C  C2805  1  0.063900  0.683000  0.535100  1.0
  C  C2806  1  0.436100  0.317000  0.035100  1.0
  C  C2807  1  0.067000  0.313900  0.785100  1.0
  C  C2808  1  0.433000  0.686100  0.285100  1.0
  C  C2809  1  0.436100  0.817000  0.964900  1.0
  C  C2810  1  0.063900  0.183000  0.464900  1.0
  C  C2811  1  0.433000  0.186100  0.714900  1.0
  C  C2812  1  0.067000  0.813900  0.214900  1.0
  C  C2813  1  0.936100  0.317000  0.464900  1.0
  C  C2814  1  0.563900  0.683000  0.964900  1.0
  C  C2815  1  0.933000  0.686100  0.214900  1.0
  C  C2816  1  0.567000  0.313900  0.714900  1.0
  C  C2817  1  0.491100  0.222600  0.998010  1.0
  C  C2818  1  0.008900  0.777400  0.498010  1.0
  C  C2819  1  0.527400  0.741100  0.248010  1.0
  C  C2820  1  0.972600  0.258900  0.748010  1.0
  C  C2821  1  0.991100  0.722600  0.498010  1.0
  C  C2822  1  0.508900  0.277400  0.998010  1.0
  C  C2823  1  0.027400  0.241100  0.748010  1.0
  C  C2824  1  0.472600  0.758900  0.248010  1.0
  C  C2825  1  0.508900  0.777400  0.001990  1.0
  C  C2826  1  0.991100  0.222600  0.501990  1.0
  C  C2827  1  0.472600  0.258900  0.751990  1.0
  C  C2828  1  0.027400  0.741100  0.251990  1.0
  C  C2829  1  0.008900  0.277400  0.501990  1.0
  C  C2830  1  0.491100  0.722600  0.001990  1.0
  C  C2831  1  0.972600  0.758900  0.251990  1.0
  C  C2832  1  0.527400  0.241100  0.751990  1.0
  Se  Se2833  1  0.540900  0.256700  0.448700  1
  Se  Se2834  1  0.959100  0.743300  0.948700  1
  Se  Se2835  1  0.493300  0.790900  0.698700  1
  Se  Se2836  1  0.006700  0.209100  0.198700  1
  Se  Se2837  1  0.040900  0.756700  0.948700  1
  Se  Se2838  1  0.459100  0.243300  0.448700  1
  Se  Se2839  1  0.993300  0.290900  0.198700  1
  Se  Se2840  1  0.506700  0.709100  0.698700  1
  Se  Se2841  1  0.459100  0.743300  0.551300  1
  Se  Se2842  1  0.040900  0.256700  0.051300  1
  Se  Se2843  1  0.506700  0.209100  0.301300  1
  Se  Se2844  1  0.993300  0.790900  0.801300  1
  Se  Se2845  1  0.959100  0.243300  0.051300  1
  Se  Se2846  1  0.540900  0.756700  0.551300  1
  Se  Se2847  1  0.006700  0.709100  0.801300  1
  Se  Se2848  1  0.493300  0.290900  0.301300  1
  Se  Se2849  1  0.541100  0.176000  0.347710  1
  Se  Se2850  1  0.958900  0.824000  0.847710  1
  Se  Se2851  1  0.574000  0.791100  0.597710  1
  Se  Se2852  1  0.926000  0.208900  0.097710  1
  Se  Se2853  1  0.041100  0.676000  0.847710  1
  Se  Se2854  1  0.458900  0.324000  0.347710  1
  Se  Se2855  1  0.074000  0.291100  0.097710  1
  Se  Se2856  1  0.426000  0.708900  0.597710  1
  Se  Se2857  1  0.458900  0.824000  0.652290  1
  Se  Se2858  1  0.041100  0.176000  0.152290  1
  Se  Se2859  1  0.426000  0.208900  0.402290  1
  Se  Se2860  1  0.074000  0.791100  0.902290  1
  Se  Se2861  1  0.958900  0.324000  0.152290  1
  Se  Se2862  1  0.541100  0.676000  0.652290  1
  Se  Se2863  1  0.926000  0.708900  0.902290  1
  Se  Se2864  1  0.574000  0.291100  0.402290  1
  Se  Se2865  1  0.576640  0.308390  0.388700  1.0
  Se  Se2866  1  0.923360  0.691610  0.888700  1.0
  Se  Se2867  1  0.441610  0.826640  0.638700  1.0
  Se  Se2868  1  0.058390  0.173360  0.138700  1.0
  Se  Se2869  1  0.076640  0.808390  0.888700  1.0
  Se  Se2870  1  0.423360  0.191610  0.388700  1.0
  Se  Se2871  1  0.941610  0.326640  0.138700  1.0
  Se  Se2872  1  0.558390  0.673360  0.638700  1.0
  Se  Se2873  1  0.423360  0.691610  0.611300  1.0
  Se  Se2874  1  0.076640  0.308390  0.111300  1.0
  Se  Se2875  1  0.558390  0.173360  0.361300  1.0
  Se  Se2876  1  0.941610  0.826640  0.861300  1.0
  Se  Se2877  1  0.923360  0.191610  0.111300  1.0
  Se  Se2878  1  0.576640  0.808390  0.611300  1.0
  Se  Se2879  1  0.058390  0.673360  0.861300  1.0
  Se  Se2880  1  0.441610  0.326640  0.361300  1.0
  N  N2881  1  0.188200  0.367370  0.262900  1
  N  N2882  1  0.311800  0.632630  0.762900  1
  N  N2883  1  0.382630  0.438200  0.512900  1
  N  N2884  1  0.117370  0.561800  0.012900  1
  N  N2885  1  0.688200  0.867370  0.762900  1
  N  N2886  1  0.811800  0.132630  0.262900  1
  N  N2887  1  0.882630  0.938200  0.012900  1
  N  N2888  1  0.617370  0.061800  0.512900  1
  N  N2889  1  0.811800  0.632630  0.737100  1
  N  N2890  1  0.688200  0.367370  0.237100  1
  N  N2891  1  0.617370  0.561800  0.487100  1
  N  N2892  1  0.882630  0.438200  0.987100  1
  N  N2893  1  0.311800  0.132630  0.237100  1
  N  N2894  1  0.188200  0.867370  0.737100  1
  N  N2895  1  0.117370  0.061800  0.987100  1
  N  N2896  1  0.382630  0.938200  0.487100  1
  N  N2897  1  0.270100  0.572500  0.451400  1
  N  N2898  1  0.229900  0.427500  0.951400  1
  N  N2899  1  0.177500  0.520100  0.701400  1
  N  N2900  1  0.322500  0.479900  0.201400  1
  N  N2901  1  0.770100  0.072500  0.951400  1
  N  N2902  1  0.729900  0.927500  0.451400  1
  N  N2903  1  0.677500  0.020100  0.201400  1
  N  N2904  1  0.822500  0.979900  0.701400  1
  N  N2905  1  0.729900  0.427500  0.548600  1
  N  N2906  1  0.770100  0.572500  0.048600  1
  N  N2907  1  0.822500  0.479900  0.298600  1
  N  N2908  1  0.677500  0.520100  0.798600  1
  N  N2909  1  0.229900  0.927500  0.048600  1
  N  N2910  1  0.270100  0.072500  0.548600  1
  N  N2911  1  0.322500  0.979900  0.798600  1
  N  N2912  1  0.177500  0.020100  0.298600  1
  N  N2913  1  0.285400  0.719200  0.391500  1
  N  N2914  1  0.214600  0.280800  0.891500  1
  N  N2915  1  0.030800  0.535400  0.641500  1
  N  N2916  1  0.469200  0.464600  0.141500  1
  N  N2917  1  0.785400  0.219200  0.891500  1
  N  N2918  1  0.714600  0.780800  0.391500  1
  N  N2919  1  0.530800  0.035400  0.141500  1
  N  N2920  1  0.969200  0.964600  0.641500  1
  N  N2921  1  0.714600  0.280800  0.608500  1
  N  N2922  1  0.785400  0.719200  0.108500  1
  N  N2923  1  0.969200  0.464600  0.358500  1
  N  N2924  1  0.530800  0.535400  0.858500  1
  N  N2925  1  0.214600  0.780800  0.108500  1
  N  N2926  1  0.285400  0.219200  0.608500  1
  N  N2927  1  0.469200  0.964600  0.858500  1
  N  N2928  1  0.030800  0.035400  0.358500  1
  N  N2929  1  0.685800  0.289600  0.999700  1
  N  N2930  1  0.814200  0.710400  0.499700  1
  N  N2931  1  0.460400  0.935800  0.249700  1
  N  N2932  1  0.039600  0.064200  0.749700  1
  N  N2933  1  0.185800  0.789600  0.499700  1
  N  N2934  1  0.314200  0.210400  0.999700  1
  N  N2935  1  0.960400  0.435800  0.749700  1
  N  N2936  1  0.539600  0.564200  0.249700  1
  N  N2937  1  0.314200  0.710400  0.000300  1
  N  N2938  1  0.185800  0.289600  0.500300  1
  N  N2939  1  0.539600  0.064200  0.750300  1
  N  N2940  1  0.960400  0.935800  0.250300  1
  N  N2941  1  0.814200  0.210400  0.500300  1
  N  N2942  1  0.685800  0.789600  0.000300  1
  N  N2943  1  0.039600  0.564200  0.250300  1
  N  N2944  1  0.460400  0.435800  0.750300  1
  N  N2945  1  0.649700  0.281600  0.062500  1
  N  N2946  1  0.850300  0.718400  0.562500  1
  N  N2947  1  0.468400  0.899700  0.312500  1
  N  N2948  1  0.031600  0.100300  0.812500  1
  N  N2949  1  0.149700  0.781600  0.562500  1
  N  N2950  1  0.350300  0.218400  0.062500  1
  N  N2951  1  0.968400  0.399700  0.812500  1
  N  N2952  1  0.531600  0.600300  0.312500  1
  N  N2953  1  0.350300  0.718400  0.937500  1
  N  N2954  1  0.149700  0.281600  0.437500  1
  N  N2955  1  0.531600  0.100300  0.687500  1
  N  N2956  1  0.968400  0.899700  0.187500  1
  N  N2957  1  0.850300  0.218400  0.437500  1
  N  N2958  1  0.649700  0.781600  0.937500  1
  N  N2959  1  0.031600  0.600300  0.187500  1
  N  N2960  1  0.468400  0.399700  0.687500  1
  N  N2961  1  0.646300  0.325500  0.997200  1
  N  N2962  1  0.853700  0.674500  0.497200  1
  N  N2963  1  0.424500  0.896300  0.247200  1
  N  N2964  1  0.075500  0.103700  0.747200  1
  N  N2965  1  0.146300  0.825500  0.497200  1
  N  N2966  1  0.353700  0.174500  0.997200  1
  N  N2967  1  0.924500  0.396300  0.747200  1
  N  N2968  1  0.575500  0.603700  0.247200  1
  N  N2969  1  0.353700  0.674500  0.002800  1
  N  N2970  1  0.146300  0.325500  0.502800  1
  N  N2971  1  0.575500  0.103700  0.752800  1
  N  N2972  1  0.924500  0.896300  0.252800  1
  N  N2973  1  0.853700  0.174500  0.502800  1
  N  N2974  1  0.646300  0.825500  0.002800  1
  N  N2975  1  0.075500  0.603700  0.252800  1
  N  N2976  1  0.424500  0.396300  0.752800  1
  N  N2977  1  0.499600  0.234600  0.475700  1.0
  N  N2978  1  0.000400  0.765400  0.975700  1.0
  N  N2979  1  0.515400  0.749600  0.725700  1.0
  N  N2980  1  0.984600  0.250400  0.225700  1.0
  N  N2981  1  0.999600  0.734600  0.975700  1.0
  N  N2982  1  0.500400  0.265400  0.475700  1.0
  N  N2983  1  0.015400  0.249600  0.225700  1.0
  N  N2984  1  0.484600  0.750400  0.725700  1.0
  N  N2985  1  0.500400  0.765400  0.524300  1.0
  N  N2986  1  0.999600  0.234600  0.024300  1.0
  N  N2987  1  0.484600  0.250400  0.274300  1.0
  N  N2988  1  0.015400  0.749600  0.774300  1.0
  N  N2989  1  0.000400  0.265400  0.024300  1.0
  N  N2990  1  0.499600  0.734600  0.524300  1.0
  N  N2991  1  0.984600  0.750400  0.774300  1.0
  N  N2992  1  0.515400  0.249600  0.274300  1.0
  N  N2993  1  0.281860  0.461730  0.345160  1.0
  N  N2994  1  0.218140  0.538270  0.845160  1.0
  N  N2995  1  0.288270  0.531860  0.595160  1.0
  N  N2996  1  0.211730  0.468140  0.095160  1.0
  N  N2997  1  0.781860  0.961730  0.845160  1.0
  N  N2998  1  0.718140  0.038270  0.345160  1.0
  N  N2999  1  0.788270  0.031860  0.095160  1.0
  N  N3000  1  0.711730  0.968140  0.595160  1.0
  N  N3001  1  0.718140  0.538270  0.654840  1.0
  N  N3002  1  0.781860  0.461730  0.154840  1.0
  N  N3003  1  0.711730  0.468140  0.404840  1.0
  N  N3004  1  0.788270  0.531860  0.904840  1.0
  N  N3005  1  0.218140  0.038270  0.154840  1.0
  N  N3006  1  0.281860  0.961730  0.654840  1.0
  N  N3007  1  0.211730  0.968140  0.904840  1.0
  N  N3008  1  0.288270  0.031860  0.404840  1.0
  N  N3009  1  0.470060  0.455790  0.314210  1.0
  N  N3010  1  0.029940  0.544210  0.814210  1.0
  N  N3011  1  0.294210  0.720060  0.564210  1.0
  N  N3012  1  0.205790  0.279940  0.064210  1.0
  N  N3013  1  0.970060  0.955790  0.814210  1.0
  N  N3014  1  0.529940  0.044210  0.314210  1.0
  N  N3015  1  0.794210  0.220060  0.064210  1.0
  N  N3016  1  0.705790  0.779940  0.564210  1.0
  N  N3017  1  0.529940  0.544210  0.685790  1.0
  N  N3018  1  0.970060  0.455790  0.185790  1.0
  N  N3019  1  0.705790  0.279940  0.435790  1.0
  N  N3020  1  0.794210  0.720060  0.935790  1.0
  N  N3021  1  0.029940  0.044210  0.185790  1.0
  N  N3022  1  0.470060  0.955790  0.685790  1.0
  N  N3023  1  0.205790  0.779940  0.935790  1.0
  N  N3024  1  0.294210  0.220060  0.435790  1.0
  N  N3025  1  0.521450  0.416830  0.261010  1.0
  N  N3026  1  0.978550  0.583170  0.761010  1.0
  N  N3027  1  0.333170  0.771450  0.511010  1.0
  N  N3028  1  0.166830  0.228550  0.011010  1.0
  N  N3029  1  0.021450  0.916830  0.761010  1.0
  N  N3030  1  0.478550  0.083170  0.261010  1.0
  N  N3031  1  0.833170  0.271450  0.011010  1.0
  N  N3032  1  0.666830  0.728550  0.511010  1.0
  N  N3033  1  0.478550  0.583170  0.738990  1.0
  N  N3034  1  0.021450  0.416830  0.238990  1.0
  N  N3035  1  0.666830  0.228550  0.488990  1.0
  N  N3036  1  0.833170  0.771450  0.988990  1.0
  N  N3037  1  0.978550  0.083170  0.238990  1.0
  N  N3038  1  0.521450  0.916830  0.738990  1.0
  N  N3039  1  0.166830  0.728550  0.988990  1.0
  N  N3040  1  0.333170  0.271450  0.488990  1.0
  N  N3041  1  0.431980  0.404820  0.260430  1.0
  N  N3042  1  0.068020  0.595180  0.760430  1.0
  N  N3043  1  0.345180  0.681980  0.510430  1.0
  N  N3044  1  0.154820  0.318020  0.010430  1.0
  N  N3045  1  0.931980  0.904820  0.760430  1.0
  N  N3046  1  0.568020  0.095180  0.260430  1.0
  N  N3047  1  0.845180  0.181980  0.010430  1.0
  N  N3048  1  0.654820  0.818020  0.510430  1.0
  N  N3049  1  0.568020  0.595180  0.739570  1.0
  N  N3050  1  0.931980  0.404820  0.239570  1.0
  N  N3051  1  0.654820  0.318020  0.489570  1.0
  N  N3052  1  0.845180  0.681980  0.989570  1.0
  N  N3053  1  0.068020  0.095180  0.239570  1.0
  N  N3054  1  0.431980  0.904820  0.739570  1.0
  N  N3055  1  0.154820  0.818020  0.989570  1.0
  N  N3056  1  0.345180  0.181980  0.489570  1.0
  N  N3057  1  0.647660  0.515320  0.347870  1.0
  N  N3058  1  0.852340  0.484680  0.847870  1.0
  N  N3059  1  0.234680  0.897660  0.597870  1.0
  N  N3060  1  0.265320  0.102340  0.097870  1.0
  N  N3061  1  0.147660  0.015320  0.847870  1.0
  N  N3062  1  0.352340  0.984680  0.347870  1.0
  N  N3063  1  0.734680  0.397660  0.097870  1.0
  N  N3064  1  0.765320  0.602340  0.597870  1.0
  N  N3065  1  0.352340  0.484680  0.652130  1.0
  N  N3066  1  0.147660  0.515320  0.152130  1.0
  N  N3067  1  0.765320  0.102340  0.402130  1.0
  N  N3068  1  0.734680  0.897660  0.902130  1.0
  N  N3069  1  0.852340  0.984680  0.152130  1.0
  N  N3070  1  0.647660  0.015320  0.652130  1.0
  N  N3071  1  0.265320  0.602340  0.902130  1.0
  N  N3072  1  0.234680  0.397660  0.402130  1.0
  N  N3073  1  0.492080  0.301790  0.135370  1.0
  N  N3074  1  0.007920  0.698210  0.635370  1.0
  N  N3075  1  0.448210  0.742080  0.385370  1.0
  N  N3076  1  0.051790  0.257920  0.885370  1.0
  N  N3077  1  0.992080  0.801790  0.635370  1.0
  N  N3078  1  0.507920  0.198210  0.135370  1.0
  N  N3079  1  0.948210  0.242080  0.885370  1.0
  N  N3080  1  0.551790  0.757920  0.385370  1.0
  N  N3081  1  0.507920  0.698210  0.864630  1.0
  N  N3082  1  0.992080  0.301790  0.364630  1.0
  N  N3083  1  0.551790  0.257920  0.614630  1.0
  N  N3084  1  0.948210  0.742080  0.114630  1.0
  N  N3085  1  0.007920  0.198210  0.364630  1.0
  N  N3086  1  0.492080  0.801790  0.864630  1.0
  N  N3087  1  0.051790  0.757920  0.114630  1.0
  N  N3088  1  0.448210  0.242080  0.614630  1.0
  N  N3089  1  0.509640  0.197360  0.038520  1.0
  N  N3090  1  0.990360  0.802640  0.538520  1.0
  N  N3091  1  0.552640  0.759640  0.288520  1.0
  N  N3092  1  0.947360  0.240360  0.788520  1.0
  N  N3093  1  0.009640  0.697360  0.538520  1.0
  N  N3094  1  0.490360  0.302640  0.038520  1.0
  N  N3095  1  0.052640  0.259640  0.788520  1.0
  N  N3096  1  0.447360  0.740360  0.288520  1.0
  N  N3097  1  0.490360  0.802640  0.961480  1.0
  N  N3098  1  0.009640  0.197360  0.461480  1.0
  N  N3099  1  0.447360  0.240360  0.711480  1.0
  N  N3100  1  0.052640  0.759640  0.211480  1.0
  N  N3101  1  0.990360  0.302640  0.461480  1.0
  N  N3102  1  0.509640  0.697360  0.961480  1.0
  N  N3103  1  0.947360  0.740360  0.211480  1.0
  N  N3104  1  0.552640  0.259640  0.711480  1.0
  N  N3105  1  0.188030  0.528160  0.342160  1.0
  N  N3106  1  0.311970  0.471840  0.842160  1.0
  N  N3107  1  0.221840  0.438030  0.592160  1.0
  N  N3108  1  0.278160  0.561970  0.092160  1.0
  N  N3109  1  0.688030  0.028160  0.842160  1.0
  N  N3110  1  0.811970  0.971840  0.342160  1.0
  N  N3111  1  0.721840  0.938030  0.092160  1.0
  N  N3112  1  0.778160  0.061970  0.592160  1.0
  N  N3113  1  0.811970  0.471840  0.657840  1.0
  N  N3114  1  0.688030  0.528160  0.157840  1.0
  N  N3115  1  0.778160  0.561970  0.407840  1.0
  N  N3116  1  0.721840  0.438030  0.907840  1.0
  N  N3117  1  0.311970  0.971840  0.157840  1.0
  N  N3118  1  0.188030  0.028160  0.657840  1.0
  N  N3119  1  0.278160  0.061970  0.907840  1.0
  N  N3120  1  0.221840  0.938030  0.407840  1.0
  N  N3121  1  0.140020  0.461980  0.399730  1.0
  N  N3122  1  0.359980  0.538020  0.899730  1.0
  N  N3123  1  0.288020  0.390020  0.649730  1.0
  N  N3124  1  0.211980  0.609980  0.149730  1.0
  N  N3125  1  0.640020  0.961980  0.899730  1.0
  N  N3126  1  0.859980  0.038020  0.399730  1.0
  N  N3127  1  0.788020  0.890020  0.149730  1.0
  N  N3128  1  0.711980  0.109980  0.649730  1.0
  N  N3129  1  0.859980  0.538020  0.600270  1.0
  N  N3130  1  0.640020  0.461980  0.100270  1.0
  N  N3131  1  0.711980  0.609980  0.350270  1.0
  N  N3132  1  0.788020  0.390020  0.850270  1.0
  N  N3133  1  0.359980  0.038020  0.100270  1.0
  N  N3134  1  0.140020  0.961980  0.600270  1.0
  N  N3135  1  0.211980  0.109980  0.850270  1.0
  N  N3136  1  0.288020  0.890020  0.350270  1.0
  O  O3137  1  0.497200  0.422200  0.576900  1
  O  O3138  1  0.002800  0.577800  0.076900  1
  O  O3139  1  0.327800  0.747200  0.826900  1
  O  O3140  1  0.172200  0.252800  0.326900  1
  O  O3141  1  0.997200  0.922200  0.076900  1
  O  O3142  1  0.502800  0.077800  0.576900  1
  O  O3143  1  0.827800  0.247200  0.326900  1
  O  O3144  1  0.672200  0.752800  0.826900  1
  O  O3145  1  0.502800  0.577800  0.423100  1
  O  O3146  1  0.997200  0.422200  0.923100  1
  O  O3147  1  0.672200  0.252800  0.173100  1
  O  O3148  1  0.827800  0.747200  0.673100  1
  O  O3149  1  0.002800  0.077800  0.923100  1
  O  O3150  1  0.497200  0.922200  0.423100  1
  O  O3151  1  0.172200  0.752800  0.673100  1
  O  O3152  1  0.327800  0.247200  0.173100  1
  O  O3153  1  0.500000  0.250000  0.875000  1
  O  O3154  1  0.000000  0.750000  0.375000  1
  O  O3155  1  0.500000  0.750000  0.125000  1
  O  O3156  1  0.000000  0.250000  0.625000  1
  O  O3157  1  0.586200  0.032300  0.039200  1
  O  O3158  1  0.913800  0.967700  0.539200  1
  O  O3159  1  0.717700  0.836200  0.289200  1
  O  O3160  1  0.782300  0.163800  0.789200  1
  O  O3161  1  0.086200  0.532300  0.539200  1
  O  O3162  1  0.413800  0.467700  0.039200  1
  O  O3163  1  0.217700  0.336200  0.789200  1
  O  O3164  1  0.282300  0.663800  0.289200  1
  O  O3165  1  0.413800  0.967700  0.960800  1
  O  O3166  1  0.086200  0.032300  0.460800  1
  O  O3167  1  0.282300  0.163800  0.710800  1
  O  O3168  1  0.217700  0.836200  0.210800  1
  O  O3169  1  0.913800  0.467700  0.460800  1
  O  O3170  1  0.586200  0.532300  0.960800  1
  O  O3171  1  0.782300  0.663800  0.210800  1
  O  O3172  1  0.717700  0.336200  0.710800  1
  O  O3173  1  0.161200  0.701100  0.391200  1
  O  O3174  1  0.338800  0.298900  0.891200  1
  O  O3175  1  0.048900  0.411200  0.641200  1
  O  O3176  1  0.451100  0.588800  0.141200  1
  O  O3177  1  0.661200  0.201100  0.891200  1
  O  O3178  1  0.838800  0.798900  0.391200  1
  O  O3179  1  0.548900  0.911200  0.141200  1
  O  O3180  1  0.951100  0.088800  0.641200  1
  O  O3181  1  0.838800  0.298900  0.608800  1
  O  O3182  1  0.661200  0.701100  0.108800  1
  O  O3183  1  0.951100  0.588800  0.358800  1
  O  O3184  1  0.548900  0.411200  0.858800  1
  O  O3185  1  0.338800  0.798900  0.108800  1
  O  O3186  1  0.161200  0.201100  0.608800  1
  O  O3187  1  0.451100  0.088800  0.858800  1
  O  O3188  1  0.048900  0.911200  0.358800  1
  O  O3189  1  0.710600  0.156700  0.191100  1
  O  O3190  1  0.789400  0.843300  0.691100  1
  O  O3191  1  0.593300  0.960600  0.441100  1
  O  O3192  1  0.906700  0.039400  0.941100  1
  O  O3193  1  0.210600  0.656700  0.691100  1
  O  O3194  1  0.289400  0.343300  0.191100  1
  O  O3195  1  0.093300  0.460600  0.941100  1
  O  O3196  1  0.406700  0.539400  0.441100  1
  O  O3197  1  0.289400  0.843300  0.808900  1
  O  O3198  1  0.210600  0.156700  0.308900  1
  O  O3199  1  0.406700  0.039400  0.558900  1
  O  O3200  1  0.093300  0.960600  0.058900  1
  O  O3201  1  0.789400  0.343300  0.308900  1
  O  O3202  1  0.710600  0.656700  0.808900  1
  O  O3203  1  0.906700  0.539400  0.058900  1
  O  O3204  1  0.593300  0.460600  0.558900  1
  O  O3205  1  0.184200  0.792100  0.283900  1
  O  O3206  1  0.315800  0.207900  0.783900  1
  O  O3207  1  0.957900  0.434200  0.533900  1
  O  O3208  1  0.542100  0.565800  0.033900  1
  O  O3209  1  0.684200  0.292100  0.783900  1
  O  O3210  1  0.815800  0.707900  0.283900  1
  O  O3211  1  0.457900  0.934200  0.033900  1
  O  O3212  1  0.042100  0.065800  0.533900  1
  O  O3213  1  0.815800  0.207900  0.716100  1
  O  O3214  1  0.684200  0.792100  0.216100  1
  O  O3215  1  0.042100  0.565800  0.466100  1
  O  O3216  1  0.457900  0.434200  0.966100  1
  O  O3217  1  0.315800  0.707900  0.216100  1
  O  O3218  1  0.184200  0.292100  0.716100  1
  O  O3219  1  0.542100  0.065800  0.966100  1
  O  O3220  1  0.957900  0.934200  0.466100  1
  O  O3221  1  0.385200  0.165600  0.825600  1
  O  O3222  1  0.114800  0.834400  0.325600  1
  O  O3223  1  0.584400  0.635200  0.075600  1
  O  O3224  1  0.915600  0.364800  0.575600  1
  O  O3225  1  0.885200  0.665600  0.325600  1
  O  O3226  1  0.614800  0.334400  0.825600  1
  O  O3227  1  0.084400  0.135200  0.575600  1
  O  O3228  1  0.415600  0.864800  0.075600  1
  O  O3229  1  0.614800  0.834400  0.174400  1
  O  O3230  1  0.885200  0.165600  0.674400  1
  O  O3231  1  0.415600  0.364800  0.924400  1
  O  O3232  1  0.084400  0.635200  0.424400  1
  O  O3233  1  0.114800  0.334400  0.674400  1
  O  O3234  1  0.385200  0.665600  0.174400  1
  O  O3235  1  0.915600  0.864800  0.424400  1
  O  O3236  1  0.584400  0.135200  0.924400  1
  O  O3237  1  0.407000  0.224700  0.904400  1
  O  O3238  1  0.093000  0.775300  0.404400  1
  O  O3239  1  0.525300  0.657000  0.154400  1
  O  O3240  1  0.974700  0.343000  0.654400  1
  O  O3241  1  0.907000  0.724700  0.404400  1
  O  O3242  1  0.593000  0.275300  0.904400  1
  O  O3243  1  0.025300  0.157000  0.654400  1
  O  O3244  1  0.474700  0.843000  0.154400  1
  O  O3245  1  0.593000  0.775300  0.095600  1
  O  O3246  1  0.907000  0.224700  0.595600  1
  O  O3247  1  0.474700  0.343000  0.845600  1
  O  O3248  1  0.025300  0.657000  0.345600  1
  O  O3249  1  0.093000  0.275300  0.595600  1
  O  O3250  1  0.407000  0.724700  0.095600  1
  O  O3251  1  0.974700  0.843000  0.345600  1
  O  O3252  1  0.525300  0.157000  0.845600  1
  O  O3253  1  0.159900  0.381500  0.291100  1
  O  O3254  1  0.340100  0.618500  0.791100  1
  O  O3255  1  0.368500  0.409900  0.541100  1
  O  O3256  1  0.131500  0.590100  0.041100  1
  O  O3257  1  0.659900  0.881500  0.791100  1
  O  O3258  1  0.840100  0.118500  0.291100  1
  O  O3259  1  0.868500  0.909900  0.041100  1
  O  O3260  1  0.631500  0.090100  0.541100  1
  O  O3261  1  0.840100  0.618500  0.708900  1
  O  O3262  1  0.659900  0.381500  0.208900  1
  O  O3263  1  0.631500  0.590100  0.458900  1
  O  O3264  1  0.868500  0.409900  0.958900  1
  O  O3265  1  0.340100  0.118500  0.208900  1
  O  O3266  1  0.159900  0.881500  0.708900  1
  O  O3267  1  0.131500  0.090100  0.958900  1
  O  O3268  1  0.368500  0.909900  0.458900  1
  O  O3269  1  0.208600  0.323900  0.266000  1
  O  O3270  1  0.291400  0.676100  0.766000  1
  O  O3271  1  0.426100  0.458600  0.516000  1
  O  O3272  1  0.073900  0.541400  0.016000  1
  O  O3273  1  0.708600  0.823900  0.766000  1
  O  O3274  1  0.791400  0.176100  0.266000  1
  O  O3275  1  0.926100  0.958600  0.016000  1
  O  O3276  1  0.573900  0.041400  0.516000  1
  O  O3277  1  0.791400  0.676100  0.734000  1
  O  O3278  1  0.708600  0.323900  0.234000  1
  O  O3279  1  0.573900  0.541400  0.484000  1
  O  O3280  1  0.926100  0.458600  0.984000  1
  O  O3281  1  0.291400  0.176100  0.234000  1
  O  O3282  1  0.208600  0.823900  0.734000  1
  O  O3283  1  0.073900  0.041400  0.984000  1
  O  O3284  1  0.426100  0.958600  0.484000  1
  O  O3285  1  0.204200  0.395270  0.234220  1
  O  O3286  1  0.295800  0.604730  0.734220  1
  O  O3287  1  0.354730  0.454200  0.484220  1
  O  O3288  1  0.145270  0.545800  0.984220  1
  O  O3289  1  0.704200  0.895270  0.734220  1
  O  O3290  1  0.795800  0.104730  0.234220  1
  O  O3291  1  0.854730  0.954200  0.984220  1
  O  O3292  1  0.645270  0.045800  0.484220  1
  O  O3293  1  0.795800  0.604730  0.765780  1
  O  O3294  1  0.704200  0.395270  0.265780  1
  O  O3295  1  0.645270  0.545800  0.515780  1
  O  O3296  1  0.854730  0.454200  0.015780  1
  O  O3297  1  0.295800  0.104730  0.265780  1
  O  O3298  1  0.204200  0.895270  0.765780  1
  O  O3299  1  0.145270  0.045800  0.015780  1
  O  O3300  1  0.354730  0.954200  0.515780  1
  O  O3301  1  0.240400  0.604900  0.464500  1
  O  O3302  1  0.259600  0.395100  0.964500  1
  O  O3303  1  0.145100  0.490400  0.714500  1
  O  O3304  1  0.354900  0.509600  0.214500  1
  O  O3305  1  0.740400  0.104900  0.964500  1
  O  O3306  1  0.759600  0.895100  0.464500  1
  O  O3307  1  0.645100  0.990400  0.214500  1
  O  O3308  1  0.854900  0.009600  0.714500  1
  O  O3309  1  0.759600  0.395100  0.535500  1
  O  O3310  1  0.740400  0.604900  0.035500  1
  O  O3311  1  0.854900  0.509600  0.285500  1
  O  O3312  1  0.645100  0.490400  0.785500  1
  O  O3313  1  0.259600  0.895100  0.035500  1
  O  O3314  1  0.240400  0.104900  0.535500  1
  O  O3315  1  0.354900  0.009600  0.785500  1
  O  O3316  1  0.145100  0.990400  0.285500  1
  O  O3317  1  0.260700  0.526400  0.452800  1
  O  O3318  1  0.239300  0.473600  0.952800  1
  O  O3319  1  0.223600  0.510700  0.702800  1
  O  O3320  1  0.276400  0.489300  0.202800  1
  O  O3321  1  0.760700  0.026400  0.952800  1
  O  O3322  1  0.739300  0.973600  0.452800  1
  O  O3323  1  0.723600  0.010700  0.202800  1
  O  O3324  1  0.776400  0.989300  0.702800  1
  O  O3325  1  0.739300  0.473600  0.547200  1
  O  O3326  1  0.760700  0.526400  0.047200  1
  O  O3327  1  0.776400  0.489300  0.297200  1
  O  O3328  1  0.723600  0.510700  0.797200  1
  O  O3329  1  0.239300  0.973600  0.047200  1
  O  O3330  1  0.260700  0.026400  0.547200  1
  O  O3331  1  0.276400  0.989300  0.797200  1
  O  O3332  1  0.223600  0.010700  0.297200  1
  O  O3333  1  0.311600  0.585100  0.433600  1
  O  O3334  1  0.188400  0.414900  0.933600  1
  O  O3335  1  0.164900  0.561600  0.683600  1
  O  O3336  1  0.335100  0.438400  0.183600  1
  O  O3337  1  0.811600  0.085100  0.933600  1
  O  O3338  1  0.688400  0.914900  0.433600  1
  O  O3339  1  0.664900  0.061600  0.183600  1
  O  O3340  1  0.835100  0.938400  0.683600  1
  O  O3341  1  0.688400  0.414900  0.566400  1
  O  O3342  1  0.811600  0.585100  0.066400  1
  O  O3343  1  0.835100  0.438400  0.316400  1
  O  O3344  1  0.664900  0.561600  0.816400  1
  O  O3345  1  0.188400  0.914900  0.066400  1
  O  O3346  1  0.311600  0.085100  0.566400  1
  O  O3347  1  0.335100  0.938400  0.816400  1
  O  O3348  1  0.164900  0.061600  0.316400  1
  O  O3349  1  0.357600  0.613200  0.356300  1
  O  O3350  1  0.142400  0.386800  0.856300  1
  O  O3351  1  0.136800  0.607600  0.606300  1
  O  O3352  1  0.363200  0.392400  0.106300  1
  O  O3353  1  0.857600  0.113200  0.856300  1
  O  O3354  1  0.642400  0.886800  0.356300  1
  O  O3355  1  0.636800  0.107600  0.106300  1
  O  O3356  1  0.863200  0.892400  0.606300  1
  O  O3357  1  0.642400  0.386800  0.643700  1
  O  O3358  1  0.857600  0.613200  0.143700  1
  O  O3359  1  0.863200  0.392400  0.393700  1
  O  O3360  1  0.636800  0.607600  0.893700  1
  O  O3361  1  0.142400  0.886800  0.143700  1
  O  O3362  1  0.357600  0.113200  0.643700  1
  O  O3363  1  0.363200  0.892400  0.893700  1
  O  O3364  1  0.136800  0.107600  0.393700  1
  O  O3365  1  0.181400  0.575900  0.537900  1
  O  O3366  1  0.318600  0.424100  0.037900  1
  O  O3367  1  0.174100  0.431400  0.787900  1
  O  O3368  1  0.325900  0.568600  0.287900  1
  O  O3369  1  0.681400  0.075900  0.037900  1
  O  O3370  1  0.818600  0.924100  0.537900  1
  O  O3371  1  0.674100  0.931400  0.287900  1
  O  O3372  1  0.825900  0.068600  0.787900  1
  O  O3373  1  0.818600  0.424100  0.462100  1
  O  O3374  1  0.681400  0.575900  0.962100  1
  O  O3375  1  0.825900  0.568600  0.212100  1
  O  O3376  1  0.674100  0.431400  0.712100  1
  O  O3377  1  0.318600  0.924100  0.962100  1
  O  O3378  1  0.181400  0.075900  0.462100  1
  O  O3379  1  0.325900  0.068600  0.712100  1
  O  O3380  1  0.174100  0.931400  0.212100  1
  O  O3381  1  0.266400  0.756100  0.410800  1
  O  O3382  1  0.233600  0.243900  0.910800  1
  O  O3383  1  0.993900  0.516400  0.660800  1
  O  O3384  1  0.506100  0.483600  0.160800  1
  O  O3385  1  0.766400  0.256100  0.910800  1
  O  O3386  1  0.733600  0.743900  0.410800  1
  O  O3387  1  0.493900  0.016400  0.160800  1
  O  O3388  1  0.006100  0.983600  0.660800  1
  O  O3389  1  0.733600  0.243900  0.589200  1
  O  O3390  1  0.766400  0.756100  0.089200  1
  O  O3391  1  0.006100  0.483600  0.339200  1
  O  O3392  1  0.493900  0.516400  0.839200  1
  O  O3393  1  0.233600  0.743900  0.089200  1
  O  O3394  1  0.266400  0.256100  0.589200  1
  O  O3395  1  0.506100  0.983600  0.839200  1
  O  O3396  1  0.993900  0.016400  0.339200  1
  O  O3397  1  0.277600  0.675200  0.404800  1
  O  O3398  1  0.222400  0.324800  0.904800  1
  O  O3399  1  0.074800  0.527600  0.654800  1
  O  O3400  1  0.425200  0.472400  0.154800  1
  O  O3401  1  0.777600  0.175200  0.904800  1
  O  O3402  1  0.722400  0.824800  0.404800  1
  O  O3403  1  0.574800  0.027600  0.154800  1
  O  O3404  1  0.925200  0.972400  0.654800  1
  O  O3405  1  0.722400  0.324800  0.595200  1
  O  O3406  1  0.777600  0.675200  0.095200  1
  O  O3407  1  0.925200  0.472400  0.345200  1
  O  O3408  1  0.574800  0.527600  0.845200  1
  O  O3409  1  0.222400  0.824800  0.095200  1
  O  O3410  1  0.277600  0.175200  0.595200  1
  O  O3411  1  0.425200  0.972400  0.845200  1
  O  O3412  1  0.074800  0.027600  0.345200  1
  O  O3413  1  0.309600  0.726000  0.358100  1
  O  O3414  1  0.190400  0.274000  0.858100  1
  O  O3415  1  0.024000  0.559600  0.608100  1
  O  O3416  1  0.476000  0.440400  0.108100  1
  O  O3417  1  0.809600  0.226000  0.858100  1
  O  O3418  1  0.690400  0.774000  0.358100  1
  O  O3419  1  0.524000  0.059600  0.108100  1
  O  O3420  1  0.976000  0.940400  0.608100  1
  O  O3421  1  0.690400  0.274000  0.641900  1
  O  O3422  1  0.809600  0.726000  0.141900  1
  O  O3423  1  0.976000  0.440400  0.391900  1
  O  O3424  1  0.524000  0.559600  0.891900  1
  O  O3425  1  0.190400  0.774000  0.141900  1
  O  O3426  1  0.309600  0.226000  0.641900  1
  O  O3427  1  0.476000  0.940400  0.891900  1
  O  O3428  1  0.024000  0.059600  0.391900  1
  O  O3429  1  0.219700  0.697400  0.479400  1
  O  O3430  1  0.280300  0.302600  0.979400  1
  O  O3431  1  0.052600  0.469700  0.729400  1
  O  O3432  1  0.447400  0.530300  0.229400  1
  O  O3433  1  0.719700  0.197400  0.979400  1
  O  O3434  1  0.780300  0.802600  0.479400  1
  O  O3435  1  0.552600  0.969700  0.229400  1
  O  O3436  1  0.947400  0.030300  0.729400  1
  O  O3437  1  0.780300  0.302600  0.520600  1
  O  O3438  1  0.719700  0.697400  0.020600  1
  O  O3439  1  0.947400  0.530300  0.270600  1
  O  O3440  1  0.552600  0.469700  0.770600  1
  O  O3441  1  0.280300  0.802600  0.020600  1
  O  O3442  1  0.219700  0.197400  0.520600  1
  O  O3443  1  0.447400  0.030300  0.770600  1
  O  O3444  1  0.052600  0.969700  0.270600  1
  O  O3445  1  0.660700  0.322200  0.019600  1
  O  O3446  1  0.839300  0.677800  0.519600  1
  O  O3447  1  0.427800  0.910700  0.269600  1
  O  O3448  1  0.072200  0.089300  0.769600  1
  O  O3449  1  0.160700  0.822200  0.519600  1
  O  O3450  1  0.339300  0.177800  0.019600  1
  O  O3451  1  0.927800  0.410700  0.769600  1
  O  O3452  1  0.572200  0.589300  0.269600  1
  O  O3453  1  0.339300  0.677800  0.980400  1
  O  O3454  1  0.160700  0.322200  0.480400  1
  O  O3455  1  0.572200  0.089300  0.730400  1
  O  O3456  1  0.927800  0.910700  0.230400  1
  O  O3457  1  0.839300  0.177800  0.480400  1
  O  O3458  1  0.660700  0.822200  0.980400  1
  O  O3459  1  0.072200  0.589300  0.230400  1
  O  O3460  1  0.427800  0.410700  0.730400  1
  O  O3461  1  0.707300  0.299800  0.965700  1
  O  O3462  1  0.792700  0.700200  0.465700  1
  O  O3463  1  0.450200  0.957300  0.215700  1
  O  O3464  1  0.049800  0.042700  0.715700  1
  O  O3465  1  0.207300  0.799800  0.465700  1
  O  O3466  1  0.292700  0.200200  0.965700  1
  O  O3467  1  0.950200  0.457300  0.715700  1
  O  O3468  1  0.549800  0.542700  0.215700  1
  O  O3469  1  0.292700  0.700200  0.034300  1
  O  O3470  1  0.207300  0.299800  0.534300  1
  O  O3471  1  0.549800  0.042700  0.784300  1
  O  O3472  1  0.950200  0.957300  0.284300  1
  O  O3473  1  0.792700  0.200200  0.534300  1
  O  O3474  1  0.707300  0.799800  0.034300  1
  O  O3475  1  0.049800  0.542700  0.284300  1
  O  O3476  1  0.450200  0.457300  0.784300  1
  O  O3477  1  0.694700  0.248400  0.017700  1
  O  O3478  1  0.805300  0.751600  0.517700  1
  O  O3479  1  0.501600  0.944700  0.267700  1
  O  O3480  1  0.998400  0.055300  0.767700  1
  O  O3481  1  0.194700  0.748400  0.517700  1
  O  O3482  1  0.305300  0.251600  0.017700  1
  O  O3483  1  0.001600  0.444700  0.767700  1
  O  O3484  1  0.498400  0.555300  0.267700  1
  O  O3485  1  0.305300  0.751600  0.982300  1
  O  O3486  1  0.194700  0.248400  0.482300  1
  O  O3487  1  0.498400  0.055300  0.732300  1
  O  O3488  1  0.001600  0.944700  0.232300  1
  O  O3489  1  0.805300  0.251600  0.482300  1
  O  O3490  1  0.694700  0.748400  0.982300  1
  O  O3491  1  0.998400  0.555300  0.232300  1
  O  O3492  1  0.501600  0.444700  0.732300  1
  O  O3493  1  0.596400  0.376900  0.952500  1
  O  O3494  1  0.903600  0.623100  0.452500  1
  O  O3495  1  0.373100  0.846400  0.202500  1
  O  O3496  1  0.126900  0.153600  0.702500  1
  O  O3497  1  0.096400  0.876900  0.452500  1
  O  O3498  1  0.403600  0.123100  0.952500  1
  O  O3499  1  0.873100  0.346400  0.702500  1
  O  O3500  1  0.626900  0.653600  0.202500  1
  O  O3501  1  0.403600  0.623100  0.047500  1
  O  O3502  1  0.096400  0.376900  0.547500  1
  O  O3503  1  0.626900  0.153600  0.797500  1
  O  O3504  1  0.873100  0.846400  0.297500  1
  O  O3505  1  0.903600  0.123100  0.547500  1
  O  O3506  1  0.596400  0.876900  0.047500  1
  O  O3507  1  0.126900  0.653600  0.297500  1
  O  O3508  1  0.373100  0.346400  0.797500  1
  O  O3509  1  0.622400  0.284200  0.093900  1
  O  O3510  1  0.877600  0.715800  0.593900  1
  O  O3511  1  0.465800  0.872400  0.343900  1
  O  O3512  1  0.034200  0.127600  0.843900  1
  O  O3513  1  0.122400  0.784200  0.593900  1
  O  O3514  1  0.377600  0.215800  0.093900  1
  O  O3515  1  0.965800  0.372400  0.843900  1
  O  O3516  1  0.534200  0.627600  0.343900  1
  O  O3517  1  0.377600  0.715800  0.906100  1
  O  O3518  1  0.122400  0.284200  0.406100  1
  O  O3519  1  0.534200  0.127600  0.656100  1
  O  O3520  1  0.965800  0.872400  0.156100  1
  O  O3521  1  0.877600  0.215800  0.406100  1
  O  O3522  1  0.622400  0.784200  0.906100  1
  O  O3523  1  0.034200  0.627600  0.156100  1
  O  O3524  1  0.465800  0.372400  0.656100  1
  O  O3525  1  0.168200  0.396900  0.284000  1
  O  O3526  1  0.331800  0.603100  0.784000  1
  O  O3527  1  0.353100  0.418200  0.534000  1
  O  O3528  1  0.146900  0.581800  0.034000  1
  O  O3529  1  0.668200  0.896900  0.784000  1
  O  O3530  1  0.831800  0.103100  0.284000  1
  O  O3531  1  0.853100  0.918200  0.034000  1
  O  O3532  1  0.646900  0.081800  0.534000  1
  O  O3533  1  0.831800  0.603100  0.716000  1
  O  O3534  1  0.668200  0.396900  0.216000  1
  O  O3535  1  0.646900  0.581800  0.466000  1
  O  O3536  1  0.853100  0.418200  0.966000  1
  O  O3537  1  0.331800  0.103100  0.216000  1
  O  O3538  1  0.168200  0.896900  0.716000  1
  O  O3539  1  0.146900  0.081800  0.966000  1
  O  O3540  1  0.353100  0.918200  0.466000  1
  O  O3541  1  0.178800  0.318200  0.256500  1
  O  O3542  1  0.321200  0.681800  0.756500  1
  O  O3543  1  0.431800  0.428800  0.506500  1
  O  O3544  1  0.068200  0.571200  0.006500  1
  O  O3545  1  0.678800  0.818200  0.756500  1
  O  O3546  1  0.821200  0.181800  0.256500  1
  O  O3547  1  0.931800  0.928800  0.006500  1
  O  O3548  1  0.568200  0.071200  0.506500  1
  O  O3549  1  0.821200  0.681800  0.743500  1
  O  O3550  1  0.678800  0.318200  0.243500  1
  O  O3551  1  0.568200  0.571200  0.493500  1
  O  O3552  1  0.931800  0.428800  0.993500  1
  O  O3553  1  0.321200  0.181800  0.243500  1
  O  O3554  1  0.178800  0.818200  0.743500  1
  O  O3555  1  0.068200  0.071200  0.993500  1
  O  O3556  1  0.431800  0.928800  0.493500  1
  O  O3557  1  0.629700  0.266800  0.101100  1
  O  O3558  1  0.870300  0.733200  0.601100  1
  O  O3559  1  0.483200  0.879700  0.351100  1
  O  O3560  1  0.016800  0.120300  0.851100  1
  O  O3561  1  0.129700  0.766800  0.601100  1
  O  O3562  1  0.370300  0.233200  0.101100  1
  O  O3563  1  0.983200  0.379700  0.851100  1
  O  O3564  1  0.516800  0.620300  0.351100  1
  O  O3565  1  0.370300  0.733200  0.898900  1
  O  O3566  1  0.129700  0.266800  0.398900  1
  O  O3567  1  0.516800  0.120300  0.648900  1
  O  O3568  1  0.983200  0.879700  0.148900  1
  O  O3569  1  0.870300  0.233200  0.398900  1
  O  O3570  1  0.629700  0.766800  0.898900  1
  O  O3571  1  0.016800  0.620300  0.148900  1
  O  O3572  1  0.483200  0.379700  0.648900  1
  O  O3573  1  0.240800  0.525100  0.461800  1
  O  O3574  1  0.259200  0.474900  0.961800  1
  O  O3575  1  0.224900  0.490800  0.711800  1
  O  O3576  1  0.275100  0.509200  0.211800  1
  O  O3577  1  0.740800  0.025100  0.961800  1
  O  O3578  1  0.759200  0.974900  0.461800  1
  O  O3579  1  0.724900  0.990800  0.211800  1
  O  O3580  1  0.775100  0.009200  0.711800  1
  O  O3581  1  0.759200  0.474900  0.538200  1
  O  O3582  1  0.740800  0.525100  0.038200  1
  O  O3583  1  0.775100  0.509200  0.288200  1
  O  O3584  1  0.724900  0.490800  0.788200  1
  O  O3585  1  0.259200  0.974900  0.038200  1
  O  O3586  1  0.240800  0.025100  0.538200  1
  O  O3587  1  0.275100  0.009200  0.788200  1
  O  O3588  1  0.224900  0.990800  0.288200  1
  O  O3589  1  0.334400  0.592500  0.412700  1
  O  O3590  1  0.165600  0.407500  0.912700  1
  O  O3591  1  0.157500  0.584400  0.662700  1
  O  O3592  1  0.342500  0.415600  0.162700  1
  O  O3593  1  0.834400  0.092500  0.912700  1
  O  O3594  1  0.665600  0.907500  0.412700  1
  O  O3595  1  0.657500  0.084400  0.162700  1
  O  O3596  1  0.842500  0.915600  0.662700  1
  O  O3597  1  0.665600  0.407500  0.587300  1
  O  O3598  1  0.834400  0.592500  0.087300  1
  O  O3599  1  0.842500  0.415600  0.337300  1
  O  O3600  1  0.657500  0.584400  0.837300  1
  O  O3601  1  0.165600  0.907500  0.087300  1
  O  O3602  1  0.334400  0.092500  0.587300  1
  O  O3603  1  0.342500  0.915600  0.837300  1
  O  O3604  1  0.157500  0.084400  0.337300  1
  O  O3605  1  0.320200  0.697000  0.361800  1
  O  O3606  1  0.179800  0.303000  0.861800  1
  O  O3607  1  0.053000  0.570200  0.611800  1
  O  O3608  1  0.447000  0.429800  0.111800  1
  O  O3609  1  0.820200  0.197000  0.861800  1
  O  O3610  1  0.679800  0.803000  0.361800  1
  O  O3611  1  0.553000  0.070200  0.111800  1
  O  O3612  1  0.947000  0.929800  0.611800  1
  O  O3613  1  0.679800  0.303000  0.638200  1
  O  O3614  1  0.820200  0.697000  0.138200  1
  O  O3615  1  0.947000  0.429800  0.388200  1
  O  O3616  1  0.553000  0.570200  0.888200  1
  O  O3617  1  0.179800  0.803000  0.138200  1
  O  O3618  1  0.320200  0.197000  0.638200  1
  O  O3619  1  0.447000  0.929800  0.888200  1
  O  O3620  1  0.053000  0.070200  0.388200  1
  O  O3621  1  0.254000  0.705700  0.434300  1
  O  O3622  1  0.246000  0.294300  0.934300  1
  O  O3623  1  0.044300  0.504000  0.684300  1
  O  O3624  1  0.455700  0.496000  0.184300  1
  O  O3625  1  0.754000  0.205700  0.934300  1
  O  O3626  1  0.746000  0.794300  0.434300  1
  O  O3627  1  0.544300  0.004000  0.184300  1
  O  O3628  1  0.955700  0.996000  0.684300  1
  O  O3629  1  0.746000  0.294300  0.565700  1
  O  O3630  1  0.754000  0.705700  0.065700  1
  O  O3631  1  0.955700  0.496000  0.315700  1
  O  O3632  1  0.544300  0.504000  0.815700  1
  O  O3633  1  0.246000  0.794300  0.065700  1
  O  O3634  1  0.254000  0.205700  0.565700  1
  O  O3635  1  0.455700  0.996000  0.815700  1
  O  O3636  1  0.044300  0.004000  0.315700  1
  O  O3637  1  0.410300  0.581800  0.345500  1
  O  O3638  1  0.089700  0.418200  0.845500  1
  O  O3639  1  0.168200  0.660300  0.595500  1
  O  O3640  1  0.331800  0.339700  0.095500  1
  O  O3641  1  0.910300  0.081800  0.845500  1
  O  O3642  1  0.589700  0.918200  0.345500  1
  O  O3643  1  0.668200  0.160300  0.095500  1
  O  O3644  1  0.831800  0.839700  0.595500  1
  O  O3645  1  0.589700  0.418200  0.654500  1
  O  O3646  1  0.910300  0.581800  0.154500  1
  O  O3647  1  0.831800  0.339700  0.404500  1
  O  O3648  1  0.668200  0.660300  0.904500  1
  O  O3649  1  0.089700  0.918200  0.154500  1
  O  O3650  1  0.410300  0.081800  0.654500  1
  O  O3651  1  0.331800  0.839700  0.904500  1
  O  O3652  1  0.168200  0.160300  0.404500  1
  O  O3653  1  0.672500  0.246100  0.044400  1
  O  O3654  1  0.827500  0.753900  0.544400  1
  O  O3655  1  0.503900  0.922500  0.294400  1
  O  O3656  1  0.996100  0.077500  0.794400  1
  O  O3657  1  0.172500  0.746100  0.544400  1
  O  O3658  1  0.327500  0.253900  0.044400  1
  O  O3659  1  0.003900  0.422500  0.794400  1
  O  O3660  1  0.496100  0.577500  0.294400  1
  O  O3661  1  0.327500  0.753900  0.955600  1
  O  O3662  1  0.172500  0.246100  0.455600  1
  O  O3663  1  0.496100  0.077500  0.705600  1
  O  O3664  1  0.003900  0.922500  0.205600  1
  O  O3665  1  0.827500  0.253900  0.455600  1
  O  O3666  1  0.672500  0.746100  0.955600  1
  O  O3667  1  0.996100  0.577500  0.205600  1
  O  O3668  1  0.503900  0.422500  0.705600  1
  O  O3669  1  0.647400  0.323500  0.043700  1
  O  O3670  1  0.852600  0.676500  0.543700  1
  O  O3671  1  0.426500  0.897400  0.293700  1
  O  O3672  1  0.073500  0.102600  0.793700  1
  O  O3673  1  0.147400  0.823500  0.543700  1
  O  O3674  1  0.352600  0.176500  0.043700  1
  O  O3675  1  0.926500  0.397400  0.793700  1
  O  O3676  1  0.573500  0.602600  0.293700  1
  O  O3677  1  0.352600  0.676500  0.956300  1
  O  O3678  1  0.147400  0.323500  0.456300  1
  O  O3679  1  0.573500  0.102600  0.706300  1
  O  O3680  1  0.926500  0.897400  0.206300  1
  O  O3681  1  0.852600  0.176500  0.456300  1
  O  O3682  1  0.647400  0.823500  0.956300  1
  O  O3683  1  0.073500  0.602600  0.206300  1
  O  O3684  1  0.426500  0.397400  0.706300  1
  O  O3685  1  0.621500  0.272900  0.093500  1
  O  O3686  1  0.878500  0.727100  0.593500  1
  O  O3687  1  0.477100  0.871500  0.343500  1
  O  O3688  1  0.022900  0.128500  0.843500  1
  O  O3689  1  0.121500  0.772900  0.593500  1
  O  O3690  1  0.378500  0.227100  0.093500  1
  O  O3691  1  0.977100  0.371500  0.843500  1
  O  O3692  1  0.522900  0.628500  0.343500  1
  O  O3693  1  0.378500  0.727100  0.906500  1
  O  O3694  1  0.121500  0.272900  0.406500  1
  O  O3695  1  0.522900  0.128500  0.656500  1
  O  O3696  1  0.977100  0.871500  0.156500  1
  O  O3697  1  0.878500  0.227100  0.406500  1
  O  O3698  1  0.621500  0.772900  0.906500  1
  O  O3699  1  0.022900  0.628500  0.156500  1
  O  O3700  1  0.477100  0.371500  0.656500  1
  O  O3701  1  0.611100  0.355300  0.958700  1
  O  O3702  1  0.888900  0.644700  0.458700  1
  O  O3703  1  0.394700  0.861100  0.208700  1
  O  O3704  1  0.105300  0.138900  0.708700  1
  O  O3705  1  0.111100  0.855300  0.458700  1
  O  O3706  1  0.388900  0.144700  0.958700  1
  O  O3707  1  0.894700  0.361100  0.708700  1
  O  O3708  1  0.605300  0.638900  0.208700  1
  O  O3709  1  0.388900  0.644700  0.041300  1
  O  O3710  1  0.111100  0.355300  0.541300  1
  O  O3711  1  0.605300  0.138900  0.791300  1
  O  O3712  1  0.894700  0.861100  0.291300  1
  O  O3713  1  0.888900  0.144700  0.541300  1
  O  O3714  1  0.611100  0.855300  0.041300  1
  O  O3715  1  0.105300  0.638900  0.291300  1
  O  O3716  1  0.394700  0.361100  0.791300  1
  O  O3717  1  0.625000  0.332400  0.962300  1
  O  O3718  1  0.875000  0.667600  0.462300  1
  O  O3719  1  0.417600  0.875000  0.212300  1
  O  O3720  1  0.082400  0.125000  0.712300  1
  O  O3721  1  0.125000  0.832400  0.462300  1
  O  O3722  1  0.375000  0.167600  0.962300  1
  O  O3723  1  0.917600  0.375000  0.712300  1
  O  O3724  1  0.582400  0.625000  0.212300  1
  O  O3725  1  0.375000  0.667600  0.037700  1
  O  O3726  1  0.125000  0.332400  0.537700  1
  O  O3727  1  0.582400  0.125000  0.787700  1
  O  O3728  1  0.917600  0.875000  0.287700  1
  O  O3729  1  0.875000  0.167600  0.537700  1
  O  O3730  1  0.625000  0.832400  0.037700  1
  O  O3731  1  0.082400  0.625000  0.287700  1
  O  O3732  1  0.417600  0.375000  0.787700  1
  O  O3733  1  0.654000  0.362100  0.021100  1
  O  O3734  1  0.846000  0.637900  0.521100  1
  O  O3735  1  0.387900  0.904000  0.271100  1
  O  O3736  1  0.112100  0.096000  0.771100  1
  O  O3737  1  0.154000  0.862100  0.521100  1
  O  O3738  1  0.346000  0.137900  0.021100  1
  O  O3739  1  0.887900  0.404000  0.771100  1
  O  O3740  1  0.612100  0.596000  0.271100  1
  O  O3741  1  0.346000  0.637900  0.978900  1
  O  O3742  1  0.154000  0.362100  0.478900  1
  O  O3743  1  0.612100  0.096000  0.728900  1
  O  O3744  1  0.887900  0.904000  0.228900  1
  O  O3745  1  0.846000  0.137900  0.478900  1
  O  O3746  1  0.654000  0.862100  0.978900  1
  O  O3747  1  0.112100  0.596000  0.228900  1
  O  O3748  1  0.387900  0.404000  0.728900  1
  O  O3749  1  0.657800  0.282000  0.010100  1
  O  O3750  1  0.842200  0.718000  0.510100  1
  O  O3751  1  0.468000  0.907800  0.260100  1
  O  O3752  1  0.032000  0.092200  0.760100  1
  O  O3753  1  0.157800  0.782000  0.510100  1
  O  O3754  1  0.342200  0.218000  0.010100  1
  O  O3755  1  0.968000  0.407800  0.760100  1
  O  O3756  1  0.532000  0.592200  0.260100  1
  O  O3757  1  0.342200  0.718000  0.989900  1
  O  O3758  1  0.157800  0.282000  0.489900  1
  O  O3759  1  0.532000  0.092200  0.739900  1
  O  O3760  1  0.968000  0.907800  0.239900  1
  O  O3761  1  0.842200  0.218000  0.489900  1
  O  O3762  1  0.657800  0.782000  0.989900  1
  O  O3763  1  0.032000  0.592200  0.239900  1
  O  O3764  1  0.468000  0.407800  0.739900  1
  O  O3765  1  0.561000  0.429000  0.948000  1
  O  O3766  1  0.939000  0.571000  0.448000  1
  O  O3767  1  0.321000  0.811000  0.198000  1
  O  O3768  1  0.179000  0.189000  0.698000  1
  O  O3769  1  0.061000  0.929000  0.448000  1
  O  O3770  1  0.439000  0.071000  0.948000  1
  O  O3771  1  0.821000  0.311000  0.698000  1
  O  O3772  1  0.679000  0.689000  0.198000  1
  O  O3773  1  0.439000  0.571000  0.052000  1
  O  O3774  1  0.061000  0.429000  0.552000  1
  O  O3775  1  0.679000  0.189000  0.802000  1
  O  O3776  1  0.821000  0.811000  0.302000  1
  O  O3777  1  0.939000  0.071000  0.552000  1
  O  O3778  1  0.561000  0.929000  0.052000  1
  O  O3779  1  0.179000  0.689000  0.302000  1
  O  O3780  1  0.321000  0.311000  0.802000  1
  O  O3781  1  0.475000  0.163000  0.345000  1
  O  O3782  1  0.025000  0.837000  0.845000  1
  O  O3783  1  0.587000  0.725000  0.595000  1
  O  O3784  1  0.913000  0.275000  0.095000  1
  O  O3785  1  0.975000  0.663000  0.845000  1
  O  O3786  1  0.525000  0.337000  0.345000  1
  O  O3787  1  0.087000  0.225000  0.095000  1
  O  O3788  1  0.413000  0.775000  0.595000  1
  O  O3789  1  0.525000  0.837000  0.655000  1
  O  O3790  1  0.975000  0.163000  0.155000  1
  O  O3791  1  0.413000  0.275000  0.405000  1
  O  O3792  1  0.087000  0.725000  0.905000  1
  O  O3793  1  0.025000  0.337000  0.155000  1
  O  O3794  1  0.475000  0.663000  0.655000  1
  O  O3795  1  0.913000  0.775000  0.905000  1
  O  O3796  1  0.587000  0.225000  0.405000  1
  O  O3797  1  0.489300  0.385300  0.559700  1
  O  O3798  1  0.010700  0.614700  0.059700  1
  O  O3799  1  0.364700  0.739300  0.809700  1
  O  O3800  1  0.135300  0.260700  0.309700  1
  O  O3801  1  0.989300  0.885300  0.059700  1
  O  O3802  1  0.510700  0.114700  0.559700  1
  O  O3803  1  0.864700  0.239300  0.309700  1
  O  O3804  1  0.635300  0.760700  0.809700  1
  O  O3805  1  0.510700  0.614700  0.440300  1
  O  O3806  1  0.989300  0.385300  0.940300  1
  O  O3807  1  0.635300  0.260700  0.190300  1
  O  O3808  1  0.864700  0.739300  0.690300  1
  O  O3809  1  0.010700  0.114700  0.940300  1
  O  O3810  1  0.489300  0.885300  0.440300  1
  O  O3811  1  0.135300  0.760700  0.690300  1
  O  O3812  1  0.364700  0.239300  0.190300  1
  O  O3813  1  0.459400  0.231500  0.454800  1.0
  O  O3814  1  0.040600  0.768500  0.954800  1.0
  O  O3815  1  0.518500  0.709400  0.704800  1.0
  O  O3816  1  0.981500  0.290600  0.204800  1.0
  O  O3817  1  0.959400  0.731500  0.954800  1.0
  O  O3818  1  0.540600  0.268500  0.454800  1.0
  O  O3819  1  0.018500  0.209400  0.204800  1.0
  O  O3820  1  0.481500  0.790600  0.704800  1.0
  O  O3821  1  0.540600  0.768500  0.545200  1.0
  O  O3822  1  0.959400  0.231500  0.045200  1.0
  O  O3823  1  0.481500  0.290600  0.295200  1.0
  O  O3824  1  0.018500  0.709400  0.795200  1.0
  O  O3825  1  0.040600  0.268500  0.045200  1.0
  O  O3826  1  0.459400  0.731500  0.545200  1.0
  O  O3827  1  0.981500  0.790600  0.795200  1.0
  O  O3828  1  0.518500  0.209400  0.295200  1.0
  O  O3829  1  0.540300  0.240900  0.455500  1.0
  O  O3830  1  0.959700  0.759100  0.955500  1.0
  O  O3831  1  0.509100  0.790300  0.705500  1.0
  O  O3832  1  0.990900  0.209700  0.205500  1.0
  O  O3833  1  0.040300  0.740900  0.955500  1.0
  O  O3834  1  0.459700  0.259100  0.455500  1.0
  O  O3835  1  0.009100  0.290300  0.205500  1.0
  O  O3836  1  0.490900  0.709700  0.705500  1.0
  O  O3837  1  0.459700  0.759100  0.544500  1.0
  O  O3838  1  0.040300  0.240900  0.044500  1.0
  O  O3839  1  0.490900  0.209700  0.294500  1.0
  O  O3840  1  0.009100  0.790300  0.794500  1.0
  O  O3841  1  0.959700  0.259100  0.044500  1.0
  O  O3842  1  0.540300  0.740900  0.544500  1.0
  O  O3843  1  0.990900  0.709700  0.794500  1.0
  O  O3844  1  0.509100  0.290300  0.294500  1.0
  O  O3845  1  0.501100  0.221800  0.513800  1.0
  O  O3846  1  0.998900  0.778200  0.013800  1.0
  O  O3847  1  0.528200  0.751100  0.763800  1.0
  O  O3848  1  0.971800  0.248900  0.263800  1.0
  O  O3849  1  0.001100  0.721800  0.013800  1.0
  O  O3850  1  0.498900  0.278200  0.513800  1.0
  O  O3851  1  0.028200  0.251100  0.263800  1.0
  O  O3852  1  0.471800  0.748900  0.763800  1.0
  O  O3853  1  0.498900  0.778200  0.486200  1.0
  O  O3854  1  0.001100  0.221800  0.986200  1.0
  O  O3855  1  0.471800  0.248900  0.236200  1.0
  O  O3856  1  0.028200  0.751100  0.736200  1.0
  O  O3857  1  0.998900  0.278200  0.986200  1.0
  O  O3858  1  0.501100  0.721800  0.486200  1.0
  O  O3859  1  0.971800  0.748900  0.736200  1.0
  O  O3860  1  0.528200  0.251100  0.236200  1.0
