
#######################################################################
#
#                 Cambridge Crystallographic Data Centre
#                                CCDC 
#
#######################################################################
#
# If this CIF has been generated from an entry in the Cambridge 
# Structural Database, then it will include bibliographic, chemical, 
# crystal, experimental, refinement or atomic coordinate data resulting 
# from the CCDC's data processing and validation procedures.
#
#######################################################################

data_COSZUG
_chemical_name_common            
"bis(mu!3$-2,4,6-tris(pyridin-4-yl)-1,3,5-triazine)-tris(mu!2$-4,4'-ethene-1,2-diyldipyridine)-hexakis(1,2-diaminoethane)-hexa-palladium(ii) tris(pyrene-4,5-dione) dodecanitrate hydrate"
_chemical_formula_moiety         
'C108 H150 N30 Pd6 12+,3(C16 H8 O2),12(N1 O3 1-),23.5(H2 O1)'
_chemical_name_systematic        
"bis[\m~3~-2,4,6-tris(pyridin-4-yl)-1,3,5-triazine]-tris(\m~2~-4-[2-(pyridin-4-yl)ethenyl]pyridine-N)-hexakis(N,N,N',N'-tetramethylethane-1,2-diamine-N,N')-hexa-palladium(ii) tris(pyrene-4,5-dione) clathrate dodecanitrate hydrate"
_symmetry_cell_setting           monoclinic
_symmetry_space_group_name_H-M   'P 21/c'
_symmetry_Int_Tables_number      14
_space_group_name_Hall           '-P 2ybc'
loop_
_symmetry_equiv_pos_site_id
_symmetry_equiv_pos_as_xyz
1 x,y,z
2 -x,1/2+y,1/2-z
3 -x,-y,-z
4 x,1/2-y,1/2+z
_cell_length_a                   28.563(4)
_cell_length_b                   16.085(2)
_cell_length_c                   41.635(5)
_cell_angle_alpha                90
_cell_angle_beta                 94.598(3)
_cell_angle_gamma                90
_cell_volume                     19067
_exptl_crystal_colour            'bright orange'
_exptl_crystal_description       plate
_chemical_melting_point          230deg.C(dec.)
_cell_formula_units_Z            4
loop_
_atom_site_label
_atom_site_type_symbol
_atom_site_fract_x
_atom_site_fract_y
_atom_site_fract_z
Pd1 Pd 0.57635(3) 0.71576(7) 0.50885(2)
Pd2 Pd 1.01782(5) 0.66655(15) 0.62495(3)
Pd3 Pd 0.77906(5) 1.37274(6) 0.61059(3)
Pd4 Pd 0.49757(3) 0.65950(6) 0.81682(2)
Pd5 Pd 0.94334(4) 0.68361(7) 0.93445(2)
Pd6 Pd 0.70299(6) 1.35415(6) 0.91815(3)
N1 N 0.6409(3) 0.7640(6) 0.5182(2)
N2 N 0.9626(5) 0.7360(11) 0.6070(3)
N3 N 0.7890(5) 1.2528(6) 0.5973(2)
N4 N 0.8048(3) 0.8346(5) 0.5647(2)
N5 N 0.8427(3) 0.9587(6) 0.5830(2)
N6 N 0.7645(3) 0.9633(5) 0.5589(2)
C1 C 0.6793(4) 0.7186(7) 0.5271(3)
H1 H 0.6771 0.6598 0.5256
C2 C 0.7220(4) 0.7538(6) 0.5384(2)
H2 H 0.7490 0.7205 0.5435
C3 C 0.7234(4) 0.8390(6) 0.5419(2)
C4 C 0.6838(4) 0.8862(7) 0.5326(3)
H3 H 0.6846 0.9451 0.5343
C5 C 0.6443(4) 0.8467(7) 0.5213(3)
H4 H 0.6173 0.8793 0.5151
C6 C 0.9628(5) 0.8169(17) 0.6097(3)
H5 H 0.9911 0.8430 0.6180
C7 C 0.9253(5) 0.8658(10) 0.6013(3)
H6 H 0.9271 0.9242 0.6044
C8 C 0.8832(4) 0.8280(8) 0.5876(3)
C9 C 0.8844(4) 0.7439(9) 0.5838(3)
H7 H 0.8579 0.7158 0.5737
C10 C 0.9243(5) 0.6989(11) 0.5945(3)
H8 H 0.9238 0.6400 0.5928
C11 C 0.7523(6) 1.2113(7) 0.5830(3)
H9 H 0.7231 1.2388 0.5785
C12 C 0.7569(5) 1.1276(7) 0.5744(3)
H10 H 0.7308 1.0979 0.5646
C13 C 0.7991(4) 1.0894(7) 0.5804(3)
C14 C 0.8373(5) 1.1311(8) 0.5954(3)
H11 H 0.8667 1.1044 0.6004
C15 C 0.8301(6) 1.2149(9) 0.6027(3)
H12 H 0.8559 1.2461 0.6121
C16 C 0.7675(4) 0.8814(6) 0.5552(2)
C17 C 0.8420(4) 0.8777(7) 0.5776(3)
C18 C 0.8040(5) 0.9969(7) 0.5735(3)
N7 N 0.5553(3) 0.7206(6) 0.8359(2)
N8 N 0.8785(3) 0.7347(6) 0.9248(3)
N9 N 0.7014(5) 1.2282(6) 0.9114(2)
N10 N 0.7142(3) 0.8082(5) 0.8835(2)
N11 N 0.7497(3) 0.9346(5) 0.8996(2)
N12 N 0.6692(3) 0.9312(5) 0.8812(2)
C19 C 0.5962(4) 0.6776(7) 0.8425(2)
H13 H 0.5977 0.6199 0.8379
C20 C 0.6356(4) 0.7195(6) 0.8560(2)
H14 H 0.6641 0.6901 0.8612
C21 C 0.6333(4) 0.8040(6) 0.8618(2)
C22 C 0.5914(4) 0.8466(7) 0.8533(2)
H15 H 0.5892 0.9050 0.8562
C23 C 0.5533(4) 0.8012(7) 0.8403(3)
H16 H 0.5247 0.8294 0.8344
C24 C 0.8742(4) 0.8164(8) 0.9286(3)
H17 H 0.9001 0.8473 0.9381
C25 C 0.8328(4) 0.8573(7) 0.9193(3)
H18 H 0.8301 0.9157 0.9219
C26 C 0.7954(4) 0.8109(6) 0.9058(3)
C27 C 0.8007(4) 0.7256(7) 0.9016(3)
H19 H 0.7758 0.6927 0.8920
C28 C 0.8444(5) 0.6899(7) 0.9122(3)
H20 H 0.8487 0.6317 0.9100
C29 C 0.6657(5) 1.1912(8) 0.8996(4)
H21 H 0.6375 1.2220 0.8954
C30 C 0.6654(5) 1.1056(8) 0.8922(3)
H22 H 0.6376 1.0799 0.8828
C31 C 0.7049(4) 1.0608(7) 0.8987(3)
C32 C 0.7458(5) 1.1047(7) 0.9097(3)
H23 H 0.7751 1.0769 0.9126
C33 C 0.7426(5) 1.1882(7) 0.9162(3)
H24 H 0.7698 1.2180 0.9242
C34 C 0.6750(4) 0.8498(6) 0.8763(2)
C35 C 0.7510(4) 0.8538(6) 0.8960(2)
C36 C 0.7085(4) 0.9716(6) 0.8926(3)
N13 N 0.5711(4) 0.7234(8) 0.5575(2)
N14 N 0.5220(3) 0.6758(7) 0.7726(2)
C37 C 0.5554(5) 0.7945(11) 0.5704(3)
H25 H 0.5464 0.8403 0.5569
C38 C 0.5526(5) 0.8001(13) 0.6031(4)
H26 H 0.5410 0.8499 0.6118
C39 C 0.5653(5) 0.7391(12) 0.6224(4)
C40 C 0.5843(6) 0.6677(13) 0.6105(4)
H27 H 0.5949 0.6243 0.6248
C41 C 0.5879(5) 0.6595(11) 0.5759(3)
H28 H 0.6014 0.6118 0.5669
C42 C 0.5582(5) 0.7440(12) 0.6580(4)
H29 H 0.5456 0.7945 0.6654
C43 C 0.5488(4) 0.6162(9) 0.7610(3)
H30 H 0.5569 0.5685 0.7737
C44 C 0.5647(5) 0.6234(10) 0.7306(3)
H31 H 0.5832 0.5804 0.7225
C45 C 0.5538(5) 0.6930(10) 0.7121(3)
C46 C 0.5286(4) 0.7540(9) 0.7250(3)
H32 H 0.5215 0.8033 0.7130
C47 C 0.5129(4) 0.7449(9) 0.7559(3)
H33 H 0.4956 0.7883 0.7649
C48 C 0.5669(5) 0.6903(12) 0.6781(4)
H34 H 0.5835 0.6427 0.6717
N15 N 0.9916(4) 0.6760(11) 0.6689(3)
N16 N 0.9516(4) 0.6984(8) 0.8869(3)
C49 C 0.9600(6) 0.6193(13) 0.6783(4)
H35 H 0.9484 0.5771 0.6637
C50 C 0.9450(6) 0.6231(11) 0.7085(3)
H36 H 0.9233 0.5832 0.7153
C51 C 0.9616(5) 0.6860(11) 0.7295(3)
C52 C 0.9893(5) 0.7476(11) 0.7190(3)
H37 H 0.9980 0.7942 0.7321
C53 C 1.0041(6) 0.7395(13) 0.6888(3)
H38 H 1.0243 0.7810 0.6814
C54 C 0.9693(5) 0.7666(11) 0.8748(3)
H39 H 0.9805 0.8096 0.8891
C55 C 0.9718(5) 0.7771(11) 0.8424(3)
H40 H 0.9854 0.8265 0.8348
C56 C 0.9482(5) 0.6766(10) 0.7638(3)
H41 H 0.9286 0.6316 0.7690
C57 C 0.9556(5) 0.7196(10) 0.8211(3)
C58 C 0.9353(5) 0.6487(9) 0.8334(3)
H42 H 0.9225 0.6067 0.8193
C59 C 0.9342(5) 0.6402(9) 0.8661(4)
H43 H 0.9207 0.5914 0.8743
C60 C 0.9632(5) 0.7298(10) 0.7870(3)
H44 H 0.9799 0.7776 0.7809
N17 N 0.7626(6) 1.3301(7) 0.6541(3)
N18 N 0.7163(7) 1.3579(7) 0.8703(3)
C61 C 0.7961(6) 1.3164(7) 0.6778(4)
H45 H 0.8279 1.3197 0.6726
C62 C 0.7876(7) 1.2975(8) 0.7099(4)
H46 H 0.8123 1.2854 0.7259
C63 C 0.7404(8) 1.2978(9) 0.7167(4)
C64 C 0.7073(8) 1.3066(9) 0.6918(4)
H47 H 0.6750 1.3012 0.6956
C65 C 0.7193(7) 1.3230(8) 0.6614(4)
H48 H 0.6949 1.3297 0.6447
C66 C 0.7267(9) 1.2965(9) 0.7499(5)
H49 H 0.6949 1.2829 0.7526
C67 C 0.6825(9) 1.3462(11) 0.8481(5)
H50 H 0.6510 1.3511 0.8535
C68 C 0.6914(9) 1.3257(10) 0.8148(4)
H51 H 0.6668 1.3144 0.7986
C69 C 0.7399(10) 1.3239(11) 0.8084(5)
C70 C 0.7688(11) 1.3382(13) 0.8316(5)
H52 H 0.8007 1.3400 0.8266
C71 C 0.7619(9) 1.3515(12) 0.8625(5)
H53 H 0.7875 1.3562 0.8785
C72 C 0.7515(9) 1.3111(10) 0.7742(4)
H54 H 0.7840 1.3151 0.7711
N19 N 0.5814(3) 0.7073(6) 0.4601(2)
C73 C 0.5320(5) 0.6993(10) 0.4464(3)
H55 H 0.5314 0.6778 0.4241
H56 H 0.5168 0.7546 0.4457
C74 C 0.6028(5) 0.7800(9) 0.4460(3)
H57 H 0.6039 0.7717 0.4228
H58 H 0.6348 0.7876 0.4560
H59 H 0.5840 0.8296 0.4498
C75 C 0.6084(5) 0.6315(8) 0.4530(3)
H60 H 0.6108 0.6272 0.4298
H61 H 0.5923 0.5824 0.4606
H62 H 0.6400 0.6350 0.4641
N20 N 0.5081(4) 0.6759(11) 0.4996(3)
C76 C 0.5055(5) 0.6415(12) 0.4664(3)
H63 H 0.4723 0.6375 0.4576
H64 H 0.5195 0.5853 0.4665
C77 C 0.4760(5) 0.7479(17) 0.5021(5)
H65 H 0.4434 0.7295 0.4978
H66 H 0.4832 0.7904 0.4863
H67 H 0.4803 0.7714 0.5239
C78 C 0.4943(7) 0.6069(17) 0.5217(5)
H68 H 0.4615 0.5915 0.5161
H69 H 0.4981 0.6260 0.5441
H70 H 0.5145 0.5584 0.5191
N21 N 0.7905(5) 1.4184(7) 0.5651(3)
C79 C 0.7739(8) 1.5090(10) 0.5657(4)
H71 H 0.7875 1.5410 0.5484
H72 H 0.7393 1.5116 0.5621
C80 C 0.8391(6) 1.4123(11) 0.5604(4)
H73 H 0.8447 1.4338 0.5390
H74 H 0.8489 1.3540 0.5620
H75 H 0.8572 1.4450 0.5769
C81 C 0.7632(6) 1.3794(11) 0.5393(4)
H76 H 0.7707 1.4040 0.5188
H77 H 0.7297 1.3874 0.5421
H78 H 0.7703 1.3198 0.5393
N22 N 0.7700(6) 1.4957(7) 0.6241(3)
C82 C 0.7896(7) 1.5448(9) 0.5977(4)
H79 H 0.7790 1.6032 0.5987
H80 H 0.8244 1.5443 0.6006
C83 C 0.7946(10) 1.5139(10) 0.6552(4)
H81 H 0.7896 1.5723 0.6606
H82 H 0.8282 1.5036 0.6542
H83 H 0.7824 1.4782 0.6716
C84 C 0.7190(9) 1.5142(11) 0.6278(6)
H84 H 0.7156 1.5724 0.6342
H85 H 0.7075 1.4778 0.6443
H86 H 0.7006 1.5046 0.6072
N23 N 0.4733(3) 0.6411(7) 0.8615(2)
C85 C 0.4048(4) 0.6015(11) 0.8252(3)
H87 H 0.3890 0.6559 0.8269
H88 H 0.3804 0.5583 0.8209
C86 C 0.4122(6) 0.6504(13) 0.7711(3)
H89 H 0.3835 0.6206 0.7634
H90 H 0.4328 0.6554 0.7535
H91 H 0.4040 0.7060 0.7785
C87 C 0.4469(6) 0.5188(10) 0.7877(4)
H92 H 0.4177 0.4923 0.7790
H93 H 0.4608 0.4864 0.8059
H94 H 0.4690 0.5211 0.7708
N24 N 0.4369(4) 0.6034(8) 0.7984(2)
C88 C 0.4336(5) 0.5826(11) 0.8555(3)
H95 H 0.4134 0.5853 0.8738
H96 H 0.4459 0.5252 0.8545
C89 C 0.4556(5) 0.7203(11) 0.8736(3)
H97 H 0.4441 0.7115 0.8949
H98 H 0.4298 0.7407 0.8587
H99 H 0.4810 0.7614 0.8752
C90 C 0.5083(5) 0.6058(10) 0.8855(3)
H100 H 0.4942 0.5988 0.9060
H101 H 0.5353 0.6434 0.8885
H102 H 0.5187 0.5516 0.8780
N25 N 0.9281(8) 0.6570(15) 0.9807(5)
C91 C 0.9667(8) 0.6025(16) 0.9932(5)
H103 H 0.9714 0.6099 1.0169
H104 H 0.9573 0.5440 0.9891
C92 C 0.8810(11) 0.625(2) 0.9846(8)
H105 H 0.8778 0.6136 1.0074
H106 H 0.8760 0.5739 0.9721
H107 H 0.8576 0.6667 0.9769
C93 C 0.9246(11) 0.7367(18) 0.9987(7)
H108 H 0.9166 0.7249 1.0207
H109 H 0.9001 0.7716 0.9878
H110 H 0.9548 0.7659 0.9994
N26 N 1.0032(7) 0.6234(14) 0.9449(4)
C94 C 1.0094(9) 0.6171(18) 0.9799(6)
H111 H 1.0314 0.5713 0.9860
H112 H 1.0233 0.6694 0.9888
C95 C 1.0071(12) 0.541(2) 0.9325(8)
H113 H 1.0381 0.5181 0.9393
H114 H 1.0030 0.5422 0.9089
H115 H 0.9828 0.5055 0.9407
C96 C 1.0418(12) 0.671(2) 0.9330(8)
H116 H 1.0715 0.6419 0.9380
H117 H 1.0434 0.7262 0.9434
H118 H 1.0365 0.6784 0.9096
N27 N 0.6899(5) 1.3459(6) 0.9663(3)
C97 C 0.7030(9) 1.4277(9) 0.9810(4)
H119 H 0.6867 1.4358 1.0009
H120 H 0.7373 1.4298 0.9868
C98 C 0.7226(6) 1.2824(10) 0.9844(4)
H121 H 0.7157 1.2805 1.0071
H122 H 0.7554 1.2992 0.9830
H123 H 0.7175 1.2273 0.9747
C99 C 0.6422(6) 1.3206(12) 0.9701(4)
H124 H 0.6373 1.3172 0.9931
H125 H 0.6365 1.2660 0.9601
H126 H 0.6205 1.3614 0.9597
N28 N 0.7083(7) 1.4811(7) 0.9261(3)
C100 C 0.6892(8) 1.4941(9) 0.9574(4)
H127 H 0.6545 1.4964 0.9542
H128 H 0.7003 1.5483 0.9663
C101 C 0.7632(9) 1.5044(11) 0.9296(5)
H129 H 0.7668 1.5643 0.9332
H130 H 0.7775 1.4890 0.9098
H131 H 0.7788 1.4741 0.9478
C102 C 0.6915(10) 1.5308(10) 0.9025(4)
H132 H 0.6953 1.5889 0.9093
H133 H 0.6581 1.5189 0.8973
H134 H 0.7086 1.5213 0.8833
N29 N 1.0401(10) 0.6308(19) 0.5824(6)
C103 C 1.0747(15) 0.568(3) 0.5866(9)
H135 H 1.0985 0.5781 0.5710
H136 H 1.0595 0.5139 0.5807
C104 C 1.0116(14) 0.599(3) 0.5588(9)
H137 H 1.0295 0.5871 0.5401
H138 H 0.9865 0.6383 0.5526
H139 H 0.9980 0.5468 0.5662
C105 C 1.0557(16) 0.713(3) 0.5723(11)
H140 H 1.0679 0.7084 0.5510
H141 H 1.0806 0.7334 0.5878
H142 H 1.0291 0.7515 0.5712
N30 N 1.0664(8) 0.5693(14) 0.6430(6)
C106 C 1.0986(12) 0.559(2) 0.6175(8)
H143 H 1.1238 0.6013 0.6203
H144 H 1.1133 0.5035 0.6194
C107 C 1.0504(15) 0.491(3) 0.6487(10)
H145 H 1.0766 0.4560 0.6570
H146 H 1.0359 0.4673 0.6286
H147 H 1.0269 0.4939 0.6646
C108 C 1.0947(9) 0.6007(17) 0.6707(6)
H148 H 1.1165 0.5573 0.6791
H149 H 1.0742 0.6168 0.6875
H150 H 1.1126 0.6492 0.6644
O1 O 0.6874(3) 1.0521(6) 0.7189(2)
O2 O 0.6467(3) 0.9123(7) 0.6940(2)
C109 C 0.7093(4) 0.9870(7) 0.7201(3)
C110 C 0.7588(4) 0.9819(8) 0.7343(2)
C111 C 0.7814(5) 1.0529(9) 0.7455(3)
H151 H 0.7650 1.1044 0.7442
C112 C 0.8273(5) 1.0513(11) 0.7587(3)
H152 H 0.8426 1.1008 0.7662
C113 C 0.8508(5) 0.9744(10) 0.7605(3)
H153 H 0.8826 0.9719 0.7693
C114 C 0.8280(4) 0.9021(9) 0.7498(3)
C115 C 0.7825(4) 0.9047(8) 0.7365(3)
C116 C 0.8523(5) 0.8267(11) 0.7521(4)
H154 H 0.8839 0.8260 0.7612
C117 C 0.6865(4) 0.9077(8) 0.7071(3)
C118 C 0.7129(4) 0.8290(8) 0.7102(3)
C119 C 0.6918(5) 0.7560(9) 0.6994(3)
H155 H 0.6606 0.7563 0.6895
C120 C 0.7168(6) 0.6817(9) 0.7030(4)
H156 H 0.7022 0.6309 0.6963
C121 C 0.7631(6) 0.6814(9) 0.7165(4)
H157 H 0.7802 0.6308 0.7185
C122 C 0.7835(4) 0.7538(9) 0.7267(3)
C123 C 0.7601(4) 0.8312(8) 0.7247(3)
C124 C 0.8320(5) 0.7552(11) 0.7418(3)
H158 H 0.8491 0.7047 0.7442
O3 O 0.7309(4) 0.7243(5) 0.6194(2)
O4 O 0.8208(3) 0.7102(5) 0.6448(2)
C125 C 0.7512(4) 0.7870(6) 0.6304(3)
C126 C 0.7288(5) 0.8678(6) 0.6304(3)
C127 C 0.6847(5) 0.8784(8) 0.6168(3)
H159 H 0.6677 0.8315 0.6085
C128 C 0.6635(4) 0.9572(8) 0.6148(3)
H160 H 0.6326 0.9640 0.6049
C129 C 0.6882(5) 1.0238(8) 0.6274(3)
H161 H 0.6738 1.0771 0.6259
C130 C 0.7335(4) 1.0175(7) 0.6425(3)
C131 C 0.7550(4) 0.9375(6) 0.6433(3)
C132 C 0.7586(5) 1.0869(7) 0.6558(3)
H162 H 0.7436 1.1396 0.6557
C133 C 0.8015(5) 0.7784(7) 0.6449(3)
C134 C 0.8261(4) 0.8531(7) 0.6583(3)
C135 C 0.8719(5) 0.8499(9) 0.6715(3)
H163 H 0.8873 0.7976 0.6723
C136 C 0.8966(6) 0.9184(9) 0.6837(3)
H164 H 0.9281 0.9140 0.6927
C137 C 0.8730(6) 0.9937(9) 0.6822(3)
H165 H 0.8892 1.0418 0.6904
C138 C 0.8259(5) 1.0025(7) 0.6692(3)
C139 C 0.8029(4) 0.9293(7) 0.6572(3)
C140 C 0.8029(5) 1.0804(7) 0.6685(3)
H166 H 0.8190 1.1282 0.6770
O5 O 0.8404(10) 0.907(2) 0.8387(10)
O6 O 0.7988(12) 1.0576(19) 0.8385(12)
C141 C 0.7992(10) 0.9117(17) 0.8285(9)
C142 C 0.7705(8) 0.8407(16) 0.8143(5)
C143 C 0.7894(10) 0.7619(17) 0.8149(7)
H167 H 0.8213 0.7553 0.8227
C144 C 0.7645(12) 0.6920(19) 0.8048(13)
H168 H 0.7782 0.6383 0.8069
C145 C 0.7176(10) 0.7029(18) 0.7911(8)
H169 H 0.7003 0.6569 0.7822
C146 C 0.6975(8) 0.7819(17) 0.7909(6)
C147 C 0.7225(9) 0.8493(16) 0.8026(9)
C148 C 0.6507(10) 0.789(2) 0.7779(14)
H170 H 0.6347 0.7433 0.7680
C149 C 0.7759(12) 0.9968(19) 0.828(2)
C150 C 0.7246(9) 0.9995(17) 0.8192(10)
C151 C 0.7023(10) 1.0765(18) 0.8189(7)
H171 H 0.7190 1.1253 0.8257
C152 C 0.6549(11) 1.0798(19) 0.8082(8)
H172 H 0.6382 1.1304 0.8102
C153 C 0.6315(10) 1.0110(19) 0.7949(8)
H173 H 0.5998 1.0161 0.7863
C154 C 0.6535(9) 0.9371(18) 0.7940(8)
C155 C 0.7016(8) 0.9282(16) 0.8046(10)
C156 C 0.6290(8) 0.8633(18) 0.7799(5)
H174 H 0.5970 0.8681 0.7719
O7 O 0.0381(10) 0.5353(19) 0.7499(6)
N31 N 0.8442(10) 0.110(2) 0.5102(7)
O8 O 0.8138(11) 0.0773(19) 0.4953(7)
O9 O 0.8420(6) 0.1963(13) 0.5190(4)
O10 O 0.8708(7) 0.0538(13) 0.5255(5)
N32 N 0.4533(5) 0.9203(8) 0.6735(3)
O11 O 0.4845(5) 0.9085(8) 0.6551(3)
O12 O 0.4349(5) 0.8591(9) 0.6877(4)
O13 O 0.4366(4) 0.9913(7) 0.6773(3)
N33 N 0.6212(7) 0.1246(13) 0.5575(5)
O14 O 0.6407(8) 0.0685(13) 0.5443(5)
O15 O 0.6436(11) 0.167(2) 0.5800(8)
O16 O 0.5791(8) 0.147(2) 0.5526(8)
O17 O 0.5523(9) 0.9758(16) 0.5292(6)
N34 N 0.5739(8) 0.4131(14) 0.9133(6)
O18 O 0.5813(8) 0.4879(13) 0.9206(6)
O19 O 0.6014(6) 0.3771(10) 0.8948(4)
O20 O 0.5427(7) 0.3700(12) 0.9243(5)
N35 N 0.9775(11) 0.0341(19) 0.6590(6)
O21 O 1.0033(12) -0.023(2) 0.6517(8)
O22 O 0.9803(15) 0.052(3) 0.6895(6)
O23 O 0.9515(9) 0.0795(19) 0.6416(6)
N36 N 0.4828(9) 0.5004(19) 0.6954(7)
O24 O 0.4862(6) 0.4475(11) 0.7166(4)
O25 O 0.4576(8) 0.5753(15) 0.7001(5)
O26 O 0.5000(10) 0.5028(18) 0.6690(7)
O27 O 0.4360(9) 0.8616(18) 0.8037(6)
O28 O 0.9549(11) 0.5153(19) 0.6087(7)
O29 O 0.8959(12) 0.411(2) 0.7099(8)
O30 O 0.6329(7) 0.5114(13) 0.6774(5)
O31 O 0.6473(7) 0.3275(13) 0.5892(5)
loop_
_geom_bond_atom_site_label_1
_geom_bond_atom_site_label_2
_geom_bond_site_symmetry_1
_geom_bond_site_symmetry_2
Pd1 N1 1_555 1_555
Pd2 N2 1_555 1_555
Pd3 N3 1_555 1_555
Pd4 N7 1_555 1_555
Pd5 N8 1_555 1_555
Pd6 N9 1_555 1_555
N1 C1 1_555 1_555
N2 C6 1_555 1_555
N3 C11 1_555 1_555
N4 C16 1_555 1_555
N5 C17 1_555 1_555
N6 C16 1_555 1_555
C1 H1 1_555 1_555
C2 C1 1_555 1_555
H2 C2 1_555 1_555
C3 C2 1_555 1_555
C4 C3 1_555 1_555
H3 C4 1_555 1_555
C5 N1 1_555 1_555
H4 C5 1_555 1_555
C6 H5 1_555 1_555
C7 C6 1_555 1_555
H6 C7 1_555 1_555
C8 C7 1_555 1_555
C9 C8 1_555 1_555
H7 C9 1_555 1_555
C10 N2 1_555 1_555
H8 C10 1_555 1_555
C11 H9 1_555 1_555
C12 C11 1_555 1_555
H10 C12 1_555 1_555
C13 C12 1_555 1_555
C14 C13 1_555 1_555
H11 C14 1_555 1_555
C15 N3 1_555 1_555
H12 C15 1_555 1_555
C16 C3 1_555 1_555
C17 N4 1_555 1_555
C18 N5 1_555 1_555
N7 C19 1_555 1_555
N8 C24 1_555 1_555
N9 C29 1_555 1_555
N10 C34 1_555 1_555
N11 C35 1_555 1_555
N12 C34 1_555 1_555
C19 H13 1_555 1_555
C20 C19 1_555 1_555
H14 C20 1_555 1_555
C21 C20 1_555 1_555
C22 C21 1_555 1_555
H15 C22 1_555 1_555
C23 N7 1_555 1_555
H16 C23 1_555 1_555
C24 H17 1_555 1_555
C25 C24 1_555 1_555
H18 C25 1_555 1_555
C26 C25 1_555 1_555
C27 C26 1_555 1_555
H19 C27 1_555 1_555
C28 N8 1_555 1_555
H20 C28 1_555 1_555
C29 H21 1_555 1_555
C30 C29 1_555 1_555
H22 C30 1_555 1_555
C31 C30 1_555 1_555
C32 C31 1_555 1_555
H23 C32 1_555 1_555
C33 N9 1_555 1_555
H24 C33 1_555 1_555
C34 C21 1_555 1_555
C35 N10 1_555 1_555
C36 N11 1_555 1_555
N13 Pd1 1_555 1_555
N14 Pd4 1_555 1_555
C37 N13 1_555 1_555
H25 C37 1_555 1_555
C38 C37 1_555 1_555
H26 C38 1_555 1_555
C39 C38 1_555 1_555
C40 C39 1_555 1_555
H27 C40 1_555 1_555
C41 N13 1_555 1_555
H28 C41 1_555 1_555
C42 C39 1_555 1_555
H29 C42 1_555 1_555
C43 N14 1_555 1_555
H30 C43 1_555 1_555
C44 C43 1_555 1_555
H31 C44 1_555 1_555
C45 C44 1_555 1_555
C46 C45 1_555 1_555
H32 C46 1_555 1_555
C47 N14 1_555 1_555
H33 C47 1_555 1_555
C48 C42 1_555 1_555
H34 C48 1_555 1_555
N15 Pd2 1_555 1_555
N16 Pd5 1_555 1_555
C49 N15 1_555 1_555
H35 C49 1_555 1_555
C50 C49 1_555 1_555
H36 C50 1_555 1_555
C51 C50 1_555 1_555
C52 C51 1_555 1_555
H37 C52 1_555 1_555
C53 N15 1_555 1_555
H38 C53 1_555 1_555
C54 N16 1_555 1_555
H39 C54 1_555 1_555
C55 C54 1_555 1_555
H40 C55 1_555 1_555
C56 C51 1_555 1_555
H41 C56 1_555 1_555
C57 C55 1_555 1_555
C58 C57 1_555 1_555
H42 C58 1_555 1_555
C59 N16 1_555 1_555
H43 C59 1_555 1_555
C60 C56 1_555 1_555
H44 C60 1_555 1_555
N17 Pd3 1_555 1_555
N18 Pd6 1_555 1_555
C61 N17 1_555 1_555
H45 C61 1_555 1_555
C62 C61 1_555 1_555
H46 C62 1_555 1_555
C63 C62 1_555 1_555
C64 C63 1_555 1_555
H47 C64 1_555 1_555
C65 N17 1_555 1_555
H48 C65 1_555 1_555
C66 C63 1_555 1_555
H49 C66 1_555 1_555
C67 N18 1_555 1_555
H50 C67 1_555 1_555
C68 C67 1_555 1_555
H51 C68 1_555 1_555
C69 C68 1_555 1_555
C70 C69 1_555 1_555
H52 C70 1_555 1_555
C71 N18 1_555 1_555
H53 C71 1_555 1_555
C72 C66 1_555 1_555
H54 C72 1_555 1_555
N19 Pd1 1_555 1_555
C73 N19 1_555 1_555
H55 C73 1_555 1_555
H56 C73 1_555 1_555
C74 N19 1_555 1_555
H57 C74 1_555 1_555
H58 C74 1_555 1_555
H59 C74 1_555 1_555
C75 N19 1_555 1_555
H60 C75 1_555 1_555
H61 C75 1_555 1_555
H62 C75 1_555 1_555
N20 Pd1 1_555 1_555
C76 C73 1_555 1_555
H63 C76 1_555 1_555
H64 C76 1_555 1_555
C77 N20 1_555 1_555
H65 C77 1_555 1_555
H66 C77 1_555 1_555
H67 C77 1_555 1_555
C78 N20 1_555 1_555
H68 C78 1_555 1_555
H69 C78 1_555 1_555
H70 C78 1_555 1_555
N21 Pd3 1_555 1_555
C79 N21 1_555 1_555
H71 C79 1_555 1_555
H72 C79 1_555 1_555
C80 N21 1_555 1_555
H73 C80 1_555 1_555
H74 C80 1_555 1_555
H75 C80 1_555 1_555
C81 N21 1_555 1_555
H76 C81 1_555 1_555
H77 C81 1_555 1_555
H78 C81 1_555 1_555
N22 Pd3 1_555 1_555
C82 C79 1_555 1_555
H79 C82 1_555 1_555
H80 C82 1_555 1_555
C83 N22 1_555 1_555
H81 C83 1_555 1_555
H82 C83 1_555 1_555
H83 C83 1_555 1_555
C84 N22 1_555 1_555
H84 C84 1_555 1_555
H85 C84 1_555 1_555
H86 C84 1_555 1_555
N23 Pd4 1_555 1_555
C85 H87 1_555 1_555
H88 C85 1_555 1_555
C86 H89 1_555 1_555
H90 C86 1_555 1_555
H91 C86 1_555 1_555
C87 H92 1_555 1_555
H93 C87 1_555 1_555
H94 C87 1_555 1_555
N24 Pd4 1_555 1_555
C88 N23 1_555 1_555
H95 C88 1_555 1_555
H96 C88 1_555 1_555
C89 N23 1_555 1_555
H97 C89 1_555 1_555
H98 C89 1_555 1_555
H99 C89 1_555 1_555
C90 N23 1_555 1_555
H100 C90 1_555 1_555
H101 C90 1_555 1_555
H102 C90 1_555 1_555
N25 Pd5 1_555 1_555
C91 N25 1_555 1_555
H103 C91 1_555 1_555
H104 C91 1_555 1_555
C92 N25 1_555 1_555
H105 C92 1_555 1_555
H106 C92 1_555 1_555
H107 C92 1_555 1_555
C93 N25 1_555 1_555
H108 C93 1_555 1_555
H109 C93 1_555 1_555
H110 C93 1_555 1_555
N26 Pd5 1_555 1_555
C94 C91 1_555 1_555
H111 C94 1_555 1_555
H112 C94 1_555 1_555
C95 N26 1_555 1_555
H113 C95 1_555 1_555
H114 C95 1_555 1_555
H115 C95 1_555 1_555
C96 N26 1_555 1_555
H116 C96 1_555 1_555
H117 C96 1_555 1_555
H118 C96 1_555 1_555
N27 Pd6 1_555 1_555
C97 N27 1_555 1_555
H119 C97 1_555 1_555
H120 C97 1_555 1_555
C98 N27 1_555 1_555
H121 C98 1_555 1_555
H122 C98 1_555 1_555
H123 C98 1_555 1_555
C99 N27 1_555 1_555
H124 C99 1_555 1_555
H125 C99 1_555 1_555
H126 C99 1_555 1_555
N28 Pd6 1_555 1_555
C100 C97 1_555 1_555
H127 C100 1_555 1_555
H128 C100 1_555 1_555
C101 N28 1_555 1_555
H129 C101 1_555 1_555
H130 C101 1_555 1_555
H131 C101 1_555 1_555
C102 N28 1_555 1_555
H132 C102 1_555 1_555
H133 C102 1_555 1_555
H134 C102 1_555 1_555
N29 Pd2 1_555 1_555
C103 N29 1_555 1_555
H135 C103 1_555 1_555
H136 C103 1_555 1_555
C104 N29 1_555 1_555
H137 C104 1_555 1_555
H138 C104 1_555 1_555
H139 C104 1_555 1_555
C105 N29 1_555 1_555
H140 C105 1_555 1_555
H141 C105 1_555 1_555
H142 C105 1_555 1_555
N30 Pd2 1_555 1_555
C106 C103 1_555 1_555
H143 C106 1_555 1_555
H144 C106 1_555 1_555
C107 N30 1_555 1_555
H145 C107 1_555 1_555
H146 C107 1_555 1_555
H147 C107 1_555 1_555
C108 N30 1_555 1_555
H148 C108 1_555 1_555
H149 C108 1_555 1_555
H150 C108 1_555 1_555
O1 C109 1_555 1_555
O2 C117 1_555 1_555
C109 C110 1_555 1_555
C110 C111 1_555 1_555
C111 H151 1_555 1_555
C112 C111 1_555 1_555
H152 C112 1_555 1_555
C113 C112 1_555 1_555
H153 C113 1_555 1_555
C114 C113 1_555 1_555
C115 C110 1_555 1_555
C116 C114 1_555 1_555
H154 C116 1_555 1_555
C117 C109 1_555 1_555
C118 C117 1_555 1_555
C119 C118 1_555 1_555
H155 C119 1_555 1_555
C120 C119 1_555 1_555
H156 C120 1_555 1_555
C121 C120 1_555 1_555
H157 C121 1_555 1_555
C122 C121 1_555 1_555
C123 C115 1_555 1_555
C124 C116 1_555 1_555
H158 C124 1_555 1_555
O3 C125 1_555 1_555
O4 C133 1_555 1_555
C125 C126 1_555 1_555
C126 C127 1_555 1_555
C127 H159 1_555 1_555
C128 C127 1_555 1_555
H160 C128 1_555 1_555
C129 C128 1_555 1_555
H161 C129 1_555 1_555
C130 C129 1_555 1_555
C131 C126 1_555 1_555
C132 C130 1_555 1_555
H162 C132 1_555 1_555
C133 C125 1_555 1_555
C134 C133 1_555 1_555
C135 C134 1_555 1_555
H163 C135 1_555 1_555
C136 C135 1_555 1_555
H164 C136 1_555 1_555
C137 C136 1_555 1_555
H165 C137 1_555 1_555
C138 C137 1_555 1_555
C139 C131 1_555 1_555
C140 C132 1_555 1_555
H166 C140 1_555 1_555
O5 C141 1_555 1_555
O6 C149 1_555 1_555
C141 C142 1_555 1_555
C142 C143 1_555 1_555
C143 H167 1_555 1_555
C144 C143 1_555 1_555
H168 C144 1_555 1_555
C145 C144 1_555 1_555
H169 C145 1_555 1_555
C146 C145 1_555 1_555
C147 C142 1_555 1_555
C148 C146 1_555 1_555
H170 C148 1_555 1_555
C149 C141 1_555 1_555
C150 C149 1_555 1_555
C151 C150 1_555 1_555
H171 C151 1_555 1_555
C152 C151 1_555 1_555
H172 C152 1_555 1_555
C153 C152 1_555 1_555
H173 C153 1_555 1_555
C154 C153 1_555 1_555
C155 C147 1_555 1_555
C156 C148 1_555 1_555
H174 C156 1_555 1_555
N31 O8 1_555 1_555
O9 N31 1_555 1_555
O10 N31 1_555 1_555
N32 O11 1_555 1_555
O12 N32 1_555 1_555
O13 N32 1_555 1_555
N33 O14 1_555 1_555
O15 N33 1_555 1_555
O16 N33 1_555 1_555
N34 O18 1_555 1_555
O19 N34 1_555 1_555
O20 N34 1_555 1_555
N35 O21 1_555 1_555
O22 N35 1_555 1_555
O23 N35 1_555 1_555
N36 O24 1_555 1_555
O25 N36 1_555 1_555
O26 N36 1_555 1_555
N6 C18 1_555 1_555
C4 C5 1_555 1_555
C8 C17 1_555 1_555
C9 C10 1_555 1_555
C13 C18 1_555 1_555
C14 C15 1_555 1_555
N12 C36 1_555 1_555
C22 C23 1_555 1_555
C26 C35 1_555 1_555
C27 C28 1_555 1_555
C31 C36 1_555 1_555
C32 C33 1_555 1_555
C40 C41 1_555 1_555
C45 C48 1_555 1_555
C46 C47 1_555 1_555
C52 C53 1_555 1_555
C57 C60 1_555 1_555
C58 C59 1_555 1_555
C64 C65 1_555 1_555
C69 C72 1_555 1_555
C70 C71 1_555 1_555
N20 C76 1_555 1_555
N22 C82 1_555 1_555
C85 N24 1_555 1_555
C85 C88 1_555 1_555
C86 N24 1_555 1_555
C87 N24 1_555 1_555
N26 C94 1_555 1_555
N28 C100 1_555 1_555
N30 C106 1_555 1_555
C114 C115 1_555 1_555
C118 C123 1_555 1_555
C122 C123 1_555 1_555
C122 C124 1_555 1_555
C130 C131 1_555 1_555
C134 C139 1_555 1_555
C138 C139 1_555 1_555
C138 C140 1_555 1_555
C146 C147 1_555 1_555
C150 C155 1_555 1_555
C154 C155 1_555 1_555
C154 C156 1_555 1_555

#END
