
#######################################################################
#
#                 Cambridge Crystallographic Data Centre
#                                CCDC 
#
#######################################################################
#
# If this CIF has been generated from an entry in the Cambridge 
# Structural Database, then it will include bibliographic, chemical, 
# crystal, experimental, refinement or atomic coordinate data resulting 
# from the CCDC's data processing and validation procedures.
#
#######################################################################

data_COSZOA
_chemical_formula_moiety         
'4(C4 H12 N1 1+),C144 H96 Fe4 N24 O36 S12 4-,0.75(P4),38.5(H2 O1)'
_chemical_name_systematic        
"tetrakis(tetramethylammonium) hexakis(\m~2~-4,4'-bis([(pyridin-2-yl-kN)methylidene]amino-kN)biphenyl-2,2'-disulfonite)-tetra-iron tetraphosphorus clathrate hydrate"
_symmetry_cell_setting           monoclinic
_symmetry_space_group_name_H-M   'P 21/n'
_symmetry_Int_Tables_number      14
_space_group_name_Hall           '-P 2yn'
loop_
_symmetry_equiv_pos_site_id
_symmetry_equiv_pos_as_xyz
1 x,y,z
2 1/2-x,1/2+y,1/2-z
3 -x,-y,-z
4 1/2+x,1/2-y,1/2+z
_cell_length_a                   21.9507(4)
_cell_length_b                   33.3175(6)
_cell_length_c                   32.8597(6)
_cell_angle_alpha                90
_cell_angle_beta                 90.9070(10)
_cell_angle_gamma                90
_cell_volume                     24028.7
_exptl_crystal_colour            purple
_exptl_crystal_description       prism
_cell_formula_units_Z            4
_exptl_crystal_recrystallization_method dioxane/water
loop_
_atom_site_label
_atom_site_type_symbol
_atom_site_fract_x
_atom_site_fract_y
_atom_site_fract_z
O1 O 0.4199(4) 0.4716(2) 0.8993(3)
O2 O 0.1378(4) 0.1240(3) 1.0017(3)
O3 O 0.6959(4) 0.3564(3) 0.5742(3)
O4 O 0.4199(4) -0.1003(3) 1.0232(4)
O5 O 0.3244(6) 0.0908(4) 1.1559(3)
O6 O 0.1675(6) 0.5297(4) 0.7365(4)
O7 O 0.1991(6) 0.0907(4) 1.1367(4)
O8 O 0.4147(10) 0.2635(3) 1.1289(4)
O9 O 0.0581(7) 0.2315(5) 0.6312(5)
O10 O 0.2544(8) 0.4789(4) 0.7847(5)
O11 O 0.3833(7) -0.1660(3) 0.8708(4)
O12 O 0.2580(5) 0.5421(2) 0.7648(3)
O13 O 0.2541(8) 0.4469(6) 1.1243(6)
O14 O 0.1279(8) 0.4654(6) 0.6975(6)
O15 O 0.3937(8) 0.4003(7) 0.8120(6)
O16 O 0.6544(7) 0.3851(5) 0.7073(5)
O17 O -0.1500(8) 0.3725(6) 0.7295(6)
O18 O 0.0547(9) 0.0319(5) 0.9100(6)
O19 O 0.1785(7) 0.3984(4) 0.6689(7)
O20 O 0.7564(9) 0.2309(6) 0.9658(5)
O21 O 0.5789(9) -0.0328(5) 0.8386(6)
O22 O 0.0084(9) 0.4765(5) 0.7171(6)
O23 O 0.2437(9) 0.2327(8) 1.0031(6)
O24 O 0.5054(10) 0.4626(6) 0.6143(10)
O25 O 0.2763(8) 0.3716(7) 1.1717(6)
O26 O 0.2976(7) -0.1075(5) 0.9898(8)
O27 O -0.2602(8) 0.3604(7) 0.7655(6)
O28 O 0.3008(11) 0.3149(6) 1.1177(7)
O29 O 0.5695(10) 0.4256(7) 0.7462(5)
O30 O 0.5819(10) 0.1971(6) 0.9001(6)
O31 O 0.1341(10) 0.0244(6) 1.1174(8)
O32 O 0.3799(11) 0.5355(5) 0.8522(7)
O33 O 0.4763(10) 0.4322(8) 0.6873(8)
O34 O 0.0928(15) 0.1808(7) 0.7389(9)
O35 O 0.7304(10) 0.3008(13) 0.9437(7)
O36 O 0.3814(14) 0.5206(7) 0.7808(7)
O37 O 0.2765(10) 0.1650(5) 0.7529(6)
O38 O 0.1995(10) -0.0822(8) 1.0382(8)
O39 O 0.4182(10) 0.2606(7) 0.5710(6)
O40 O 0.1763(10) 0.3742(6) 1.2139(7)
O41 O 0.3374(12) 0.4426(7) 0.7438(7)
O42 O 0.1412(12) -0.0155(8) 1.0417(9)
O43 O -0.1442(10) 0.4361(6) 0.8584(9)
O44 O 0.8159(13) 0.2223(9) 0.8140(9)
O45 O 0.1111(15) 0.0441(7) 0.9862(9)
O46 O 0.597(2) 0.2084(6) 0.5121(8)
O47 O 0.7232(17) 0.2436(9) 1.0214(11)
O48 O 0.0077(12) 0.1337(13) 0.7028(9)
O49 O 0.2619(13) 0.2718(17) 1.0785(11)
O50 O 0.7560(13) 0.4284(12) 1.1063(14)
O51 O 0.4283(13) 0.0750(8) 0.6098(10)
O52 O 0.7041(13) 0.4707(8) 0.8871(12)
O53 O 0.3313(8) 0.2186(6) 0.6159(6)
O54 O 0.6013(12) 0.0622(6) 0.6907(10)
O55 O 0.1381(12) 0.4795(7) 1.1253(10)
O56 O 0.6799(10) 0.1328(8) 0.7987(9)
O57 O -0.1160(16) 0.4398(10) 0.7722(9)
O58 O 0.4071(17) 0.3023(11) 1.2000(11)
O59 O 0.4836(16) 0.4398(10) 0.5376(11)
O60 O 0.1720(16) 0.4898(10) 1.0021(11)
O61 O 0.0872(15) 0.3714(10) 0.9893(10)
O62 O 0.2047(18) 0.6001(11) 0.7942(12)
O63 O 0.0847(14) -0.1090(9) 1.0026(9)
O64 O 0.3750(18) 0.3406(12) 0.5600(12)
O65 O 0.275(2) -0.1392(13) 0.9230(14)
Fe1 Fe 0.05407(7) 0.34639(5) 0.81168(5)
Fe2 Fe 0.33336(7) 0.02905(4) 0.94153(5)
Fe3 Fe 0.57943(7) 0.25116(5) 0.67234(5)
Fe4 Fe 0.53423(7) 0.38125(4) 1.03733(4)
S1 S 0.25871(19) 0.43964(10) 0.88717(13)
S2 S 0.25580(16) 0.38992(14) 1.01787(10)
O66 O 0.2984(6) 0.4291(4) 0.8515(3)
O67 O 0.2054(6) 0.4662(3) 0.8770(5)
O68 O 0.2941(5) 0.4537(2) 0.9199(3)
O69 O 0.2781(5) 0.4082(5) 1.0538(3)
O70 O 0.2366(7) 0.3508(5) 1.0243(4)
O71 O 0.2077(5) 0.4093(5) 0.9964(3)
S3 S 0.20792(14) 0.26039(9) 0.68988(9)
S4 S 0.35253(18) 0.35595(11) 0.66764(17)
O72 O 0.2199(6) 0.2247(3) 0.7096(3)
O73 O 0.1431(4) 0.2654(3) 0.6798(3)
O74 O 0.2417(6) 0.2663(3) 0.6555(3)
O75 O 0.3735(8) 0.3816(4) 0.7030(8)
O76 O 0.2950(5) 0.3651(4) 0.6720(6)
S5 S 0.1306(2) 0.10834(12) 0.84066(15)
S6 S 0.0792(2) 0.20809(12) 0.93342(12)
O77 O 0.1287(6) 0.2257(4) 0.9605(3)
O78 O 0.0738(5) 0.1665(3) 0.9387(3)
O79 O 0.0242(6) 0.2301(4) 0.9358(3)
O80 O 0.1620(10) 0.1181(4) 0.8042(3)
O81 O 0.1251(5) 0.0655(3) 0.8465(3)
O82 O 0.0718(7) 0.1272(5) 0.8473(6)
S7 S 0.56918(18) 0.41328(10) 0.86078(11)
S8 S 0.6844(2) 0.29592(19) 0.83535(14)
O83 O 0.5028(5) 0.4174(3) 0.8526(3)
O84 O 0.5935(5) 0.4450(2) 0.8871(3)
O85 O 0.6019(5) 0.4076(2) 0.8248(3)
O86 O 0.6659(8) 0.2539(5) 0.8586(5)
O87 O 0.6999(5) 0.3265(5) 0.8635(4)
O88 O 0.7253(5) 0.2890(4) 0.8052(3)
S9 S 0.56358(16) 0.20076(9) 1.02764(15)
S10 S 0.37109(14) 0.16222(8) 1.06770(9)
O89 O 0.5879(5) 0.2009(4) 0.9842(4)
O90 O 0.6050(5) 0.2195(3) 1.0555(4)
O91 O 0.5435(5) 0.1627(3) 1.0387(5)
O92 O 0.3110(4) 0.1780(3) 1.0573(3)
O93 O 0.4061(4) 0.1914(3) 1.0873(2)
O94 O 0.3695(5) 0.1246(2) 1.0889(3)
S11 S 0.4573(3) 0.09725(14) 0.72257(12)
O95 O 0.4872(8) 0.0917(3) 0.6851(3)
O96 O 0.4497(9) 0.0647(3) 0.7450(3)
O97 O 0.3869(10) 0.1219(7) 0.7133(7)
S12 S 0.55014(18) 0.07819(13) 0.84866(15)
O98 O 0.5571(4) 0.0405(3) 0.8691(3)
O99 O 0.5631(6) 0.1131(4) 0.8798(5)
O100 O 0.5813(5) 0.0853(5) 0.8162(5)
N1 N -0.0241(4) 0.3324(3) 0.8350(3)
N2 N 0.0402(5) 0.4048(3) 0.8180(3)
N3 N 0.0205(4) 0.3465(3) 0.7556(3)
N4 N 0.5941(4) 0.3589(2) 1.0783(3)
N5 N 0.4889(4) 0.4114(2) 1.0785(2)
N6 N 0.6668(4) 0.2626(3) 0.6750(3)
N7 N 0.0798(4) 0.3417(2) 0.8694(2)
N8 N 0.1317(4) 0.3672(2) 0.7898(2)
N9 N 0.0673(4) 0.2886(2) 0.7988(2)
N10 N 0.5838(4) 0.3469(2) 1.0015(3)
N11 N 0.4722(4) 0.3398(2) 1.0514(2)
N12 N 0.6012(4) 0.2186(2) 0.7201(3)
N13 N 0.4832(4) 0.4070(2) 0.9938(2)
N14 N 0.4930(3) 0.2341(2) 0.6683(2)
N15 N 0.2772(4) 0.0737(2) 0.9580(2)
N16 N 0.5608(4) 0.3022(2) 0.7016(2)
N17 N 0.4092(4) 0.0591(2) 0.9557(3)
N18 N 0.3318(4) 0.0405(2) 0.8818(3)
N19 N 0.5874(4) 0.4279(2) 1.0244(3)
N20 N 0.5902(5) 0.2027(3) 0.6382(3)
N21 N 0.3241(4) 0.0148(2) 0.9990(3)
N22 N 0.5648(4) 0.2869(3) 0.6250(3)
N23 N 0.3933(4) -0.0139(2) 0.9317(3)
N24 N 0.2640(4) -0.0043(2) 0.9259(3)
C1 C -0.0778(6) 0.3273(5) 0.8166(5)
H1 H -0.0805 0.331 0.7879
C2 C -0.0075(7) 0.4226(4) 0.8362(4)
H2 H -0.0406 0.4075 0.8465
C3 C 0.0018(6) 0.3764(5) 0.7319(3)
H3 H 0.0044 0.4029 0.7424
C4 C 0.5982(6) 0.3688(3) 1.1176(3)
H4 H 0.5677 0.3853 1.1291
C5 C 0.4982(6) 0.4485(3) 1.0926(3)
H5 H 0.5314 0.4632 1.0821
C6 C 0.6991(7) 0.2894(5) 0.6517(4)
H6 H 0.6791 0.3044 0.6309
C7 C -0.1307(7) 0.3169(6) 0.8374(7)
H7 H -0.168 0.3134 0.8227
C8 C -0.0054(8) 0.4669(5) 0.8394(5)
H8 H -0.0373 0.4804 0.8531
C9 C -0.0213(7) 0.3714(4) 0.6928(4)
H9 H -0.0354 0.394 0.6778
C10 C 0.6471(7) 0.3552(3) 1.1424(4)
H10 H 0.6499 0.3624 1.1703
C11 C 0.4630(6) 0.4667(4) 1.1212(4)
H11 H 0.4716 0.4934 1.1298
C12 C 0.7627(7) 0.2941(5) 0.6592(5)
H12 H 0.7855 0.3115 0.6423
C13 C -0.1291(7) 0.3118(7) 0.8783(6)
H13 H -0.1649 0.3048 0.8925
C14 C 0.0386(10) 0.4883(5) 0.8241(5)
H14 H 0.0372 0.5167 0.8256
C15 C -0.0239(7) 0.3350(4) 0.6763(4)
H15 H -0.0384 0.3315 0.6491
C16 C 0.6915(7) 0.3307(4) 1.1248(4)
H16 H 0.7251 0.3206 1.1403
C17 C 0.4158(7) 0.4461(3) 1.1370(4)
H17 H 0.3909 0.4584 1.1568
C18 C 0.7911(7) 0.2744(5) 0.6898(5)
H18 H 0.8335 0.2782 0.6948
C19 C -0.0724(7) 0.3171(5) 0.8997(5)
H19 H -0.0691 0.3133 0.9283
C20 C 0.0851(8) 0.4706(4) 0.8065(5)
H20 H 0.1172 0.4862 0.7957
C21 C -0.0046(7) 0.3012(4) 0.6997(4)
H21 H -0.0068 0.2749 0.6887
C22 C 0.6843(5) 0.3220(3) 1.0847(4)
H22 H 0.7137 0.3052 1.0723
C23 C 0.4038(7) 0.4074(4) 1.1244(4)
H23 H 0.371 0.3925 1.1354
C24 C 0.7588(6) 0.2490(4) 0.7134(4)
H24 H 0.7781 0.2347 0.7351
C25 C -0.0215(5) 0.3282(4) 0.8765(4)
C26 C 0.0872(6) 0.4287(3) 0.8038(4)
C27 C 0.0170(5) 0.3077(4) 0.7384(3)
C28 C 0.6379(5) 0.3359(3) 1.0615(4)
C29 C 0.4406(6) 0.3913(3) 1.0956(3)
C30 C 0.6967(5) 0.2444(4) 0.7052(4)
C31 C 0.0361(5) 0.3329(3) 0.8937(3)
H25 H 0.0432 0.3299 0.9222
C32 C 0.1332(6) 0.4062(3) 0.7875(3)
H26 H 0.1662 0.4191 0.7744
C33 C 0.0438(5) 0.2778(3) 0.7646(3)
H27 H 0.0441 0.2504 0.7567
C34 C 0.6302(5) 0.3294(3) 1.0190(3)
H28 H 0.6575 0.3131 1.0041
C35 C 0.4343(5) 0.3504(3) 1.0787(3)
H29 H 0.4035 0.3326 1.0877
C36 C 0.6572(5) 0.2187(3) 0.7293(4)
H30 H 0.673 0.2027 0.7509
C37 C 0.1398(4) 0.3487(3) 0.8875(3)
C38 C 0.1846(5) 0.3461(3) 0.7742(3)
C39 C 0.0972(5) 0.2583(3) 0.8227(3)
C40 C 0.5780(4) 0.3409(3) 0.9576(3)
C41 C 0.4625(5) 0.3005(3) 1.0335(3)
C42 C 0.5613(5) 0.1938(3) 0.7448(3)
C43 C 0.1675(5) 0.3853(3) 0.8828(3)
H31 H 0.1474 0.4057 0.8676
C44 C 0.1758(5) 0.3183(3) 0.7422(3)
H32 H 0.1357 0.3133 0.7322
C45 C 0.0761(5) 0.2456(3) 0.8601(3)
H33 H 0.0407 0.2579 0.8707
C46 C 0.5814(4) 0.3730(3) 0.9319(3)
H34 H 0.5885 0.399 0.9429
C47 C 0.5091(5) 0.2724(3) 1.0377(3)
H35 H 0.5473 0.28 1.0494
C48 C 0.5354(6) 0.1602(3) 0.7272(4)
H36 H 0.5432 0.1539 0.6996
C49 C 0.2233(5) 0.3928(3) 0.8998(3)
C50 C 0.2245(4) 0.2981(3) 0.7250(3)
C51 C 0.1047(5) 0.2157(3) 0.8827(3)
C52 C 0.5747(4) 0.3684(3) 0.8896(3)
C53 C 0.4995(5) 0.2337(3) 1.0247(3)
C54 C 0.4992(6) 0.1362(3) 0.7491(3)
C55 C 0.2536(4) 0.3646(3) 0.9244(3)
C56 C 0.2825(5) 0.3079(3) 0.7396(3)
C57 C 0.1549(5) 0.1977(3) 0.8682(3)
C58 C 0.5665(5) 0.3298(4) 0.8736(4)
C59 C 0.4427(5) 0.2219(3) 1.0085(3)
C60 C 0.4888(5) 0.1431(3) 0.7900(3)
C61 C 0.2244(5) 0.3276(3) 0.9286(4)
H37 H 0.2439 0.3072 0.9442
C62 C 0.2904(5) 0.3338(3) 0.7700(3)
H38 H 0.3304 0.3389 0.7802
C63 C 0.1775(6) 0.2097(4) 0.8303(4)
H39 H 0.2127 0.1969 0.82
C64 C 0.5608(6) 0.2977(3) 0.8994(3)
H40 H 0.5532 0.2717 0.8887
C65 C 0.3978(5) 0.2499(3) 1.0046(3)
H41 H 0.3594 0.2422 0.9934
C66 C 0.5165(6) 0.1767(4) 0.8069(4)
H42 H 0.5106 0.1824 0.8349
C67 C 0.1670(5) 0.3194(3) 0.9105(3)
H43 H 0.1478 0.2942 0.9142
C68 C 0.2416(5) 0.3536(4) 0.7872(4)
H44 H 0.2487 0.3726 0.8083
C69 C 0.1494(6) 0.2401(4) 0.8077(4)
H45 H 0.1655 0.2483 0.7824
C70 C 0.5664(6) 0.3034(3) 0.9409(4)
H46 H 0.5621 0.281 0.9585
C71 C 0.4069(5) 0.2904(3) 1.0171(3)
H47 H 0.3755 0.3098 1.014
C72 C 0.5515(6) 0.2016(4) 0.7849(3)
H48 H 0.5695 0.2246 0.7973
C73 C 0.3125(4) 0.3718(3) 0.9454(3)
C74 C 0.3390(6) 0.2904(3) 0.7209(3)
C75 C 0.1890(5) 0.1642(3) 0.8911(3)
C76 C 0.5656(5) 0.3230(3) 0.8291(4)
C77 C 0.4309(5) 0.1794(3) 0.9943(3)
C78 C 0.4486(5) 0.1174(3) 0.8157(3)
C79 C 0.3196(5) 0.3860(3) 0.9851(3)
C80 C 0.3719(5) 0.3072(3) 0.6889(3)
C81 C 0.1796(5) 0.1243(3) 0.8823(3)
C82 C 0.6172(6) 0.3108(4) 0.8079(4)
C83 C 0.4017(4) 0.1518(3) 1.0193(3)
C84 C 0.4724(5) 0.0851(3) 0.8397(3)
C85 C 0.3755(4) 0.3963(3) 1.0001(3)
H49 H 0.379 0.4061 1.0271
C86 C 0.4199(5) 0.2885(3) 0.6714(3)
H50 H 0.4394 0.3006 0.6489
C87 C 0.2097(5) 0.0939(3) 0.9036(3)
H51 H 0.2022 0.0665 0.8973
C88 C 0.6148(5) 0.3034(3) 0.7673(3)
H52 H 0.6506 0.2945 0.7543
C89 C 0.3967(4) 0.1119(3) 1.0056(3)
H53 H 0.3809 0.0923 1.0236
C90 C 0.4322(5) 0.0608(3) 0.8592(3)
H54 H 0.4479 0.0378 0.8728
C91 C 0.4257(5) 0.3929(3) 0.9779(3)
C92 C 0.4403(5) 0.2524(3) 0.6861(3)
C93 C 0.2509(5) 0.1045(3) 0.9344(3)
C94 C 0.5615(5) 0.3086(3) 0.7441(3)
C95 C 0.4134(5) 0.1001(3) 0.9676(3)
C96 C 0.3699(5) 0.0676(3) 0.8602(3)
C97 C 0.4225(5) 0.3775(3) 0.9381(3)
H55 H 0.4578 0.3738 0.9222
C98 C 0.4107(5) 0.2345(3) 0.7181(3)
H56 H 0.4253 0.2101 0.7295
C99 C 0.2613(5) 0.1448(3) 0.9424(3)
H57 H 0.2898 0.1522 0.9631
C100 C 0.5090(5) 0.3210(4) 0.7645(4)
H58 H 0.4716 0.3249 0.7501
C101 C 0.4418(6) 0.1281(3) 0.9421(4)
H59 H 0.4563 0.1205 0.9162
C102 C 0.3472(6) 0.1002(3) 0.8388(4)
H60 H 0.3049 0.1063 0.8394
C103 C 0.3649(5) 0.3680(3) 0.9236(3)
H61 H 0.3614 0.358 0.8965
C104 C 0.3594(6) 0.2529(4) 0.7333(3)
H62 H 0.3368 0.2391 0.7533
C105 C 0.2323(5) 0.1730(3) 0.9215(4)
H63 H 0.2411 0.2003 0.9275
C106 C 0.5128(5) 0.3275(4) 0.8061(3)
H64 H 0.4769 0.3356 0.8196
C107 C 0.4478(5) 0.1670(3) 0.9561(3)
H65 H 0.4647 0.1864 0.9383
C108 C 0.3866(5) 0.1239(3) 0.8165(4)
H66 H 0.3701 0.1456 0.8012
C109 C 0.5054(5) 0.4395(3) 0.9795(3)
H67 H 0.4842 0.4544 0.9592
C110 C 0.4841(6) 0.2042(4) 0.6455(3)
H68 H 0.444 0.1946 0.6402
C111 C 0.2641(5) 0.0721(3) 0.9948(4)
H69 H 0.2369 0.0912 1.006
C112 C 0.5488(5) 0.3323(4) 0.6780(3)
H70 H 0.5392 0.358 0.6887
C113 C 0.4563(6) 0.0383(3) 0.9537(3)
H71 H 0.495 0.0494 0.9605
C114 C 0.2904(4) 0.0225(3) 0.8608(4)
H72 H 0.2865 0.0257 0.8321
C115 C 0.5644(5) 0.4528(3) 0.9956(3)
C116 C 0.5354(6) 0.1851(3) 0.6279(3)
C117 C 0.2905(5) 0.0409(3) 1.0205(3)
C118 C 0.5505(5) 0.3256(3) 0.6360(4)
C119 C 0.4507(5) -0.0038(3) 0.9406(3)
C120 C 0.2504(5) -0.0030(3) 0.8835(4)
C121 C 0.5938(5) 0.4864(3) 0.9819(3)
H73 H 0.5755 0.5031 0.9616
C122 C 0.5317(7) 0.1493(4) 0.6047(4)
H74 H 0.4939 0.1369 0.5979
C123 C 0.2793(5) 0.0366(3) 1.0623(3)
H75 H 0.2551 0.0558 1.0759
C124 C 0.5352(6) 0.3540(4) 0.6056(4)
H76 H 0.5238 0.3805 0.6128
C125 C 0.5011(5) -0.0296(3) 0.9357(3)
H77 H 0.5414 -0.0207 0.9416
C126 C 0.2022(6) -0.0244(4) 0.8651(5)
H78 H 0.1944 -0.0233 0.8366
C127 C 0.6516(5) 0.4958(4) 0.9984(4)
H79 H 0.6742 0.5182 0.989
C128 C 0.5895(9) 0.1329(5) 0.5921(4)
H80 H 0.5909 0.1085 0.5771
C129 C 0.3028(6) 0.0055(4) 1.0828(4)
H81 H 0.2954 0.0018 1.111
C130 C 0.5372(6) 0.3429(5) 0.5658(4)
H82 H 0.527 0.3616 0.545
C131 C 0.4897(6) -0.0685(3) 0.9218(4)
H83 H 0.5216 -0.0875 0.9191
C132 C 0.1649(6) -0.0484(4) 0.8921(5)
H84 H 0.1313 -0.0634 0.8818
C133 C 0.6747(6) 0.4705(3) 1.0297(4)
H85 H 0.7129 0.4761 1.0425
C134 C 0.6424(9) 0.1530(5) 0.6021(4)
H86 H 0.6798 0.1436 0.5915
C135 C 0.3403(6) -0.0223(3) 1.0602(4)
H87 H 0.3578 -0.0449 1.0735
C136 C 0.5539(8) 0.3044(5) 0.5560(4)
H88 H 0.556 0.2967 0.5283
C137 C 0.4311(6) -0.0781(3) 0.9123(4)
H89 H 0.4226 -0.1041 0.9018
C138 C 0.1800(6) -0.0488(4) 0.9334(4)
H90 H 0.1568 -0.0646 0.9516
C139 C 0.6412(5) 0.4377(3) 1.0412(3)
H91 H 0.657 0.421 1.0624
C140 C 0.6428(7) 0.1854(4) 0.6263(4)
H92 H 0.6806 0.1964 0.6352
C141 C 0.3507(5) -0.0159(3) 1.0195(4)
H93 H 0.3771 -0.0335 1.0055
C142 C 0.5679(7) 0.2765(5) 0.5865(4)
H94 H 0.5795 0.2499 0.5795
C143 C 0.3841(5) -0.0522(3) 0.9171(3)
H95 H 0.3439 -0.0607 0.9104
C144 C 0.2285(5) -0.0264(3) 0.9480(4)
H96 H 0.2365 -0.027 0.9765
O101 O 0.3981(5) 0.3671(4) 0.6439(5)
P1 P 0.3123(4) 0.2688(3) 0.8581(3)
P2 P 0.3579(6) 0.2111(2) 0.8703(4)
P3 P 0.4046(6) 0.2576(4) 0.8360(4)
P4 P 0.3908(7) 0.2657(4) 0.9008(3)
loop_
_geom_bond_atom_site_label_1
_geom_bond_atom_site_label_2
_geom_bond_site_symmetry_1
_geom_bond_site_symmetry_2
P1 P2 1_555 1_555
P2 P3 1_555 1_555
P3 P1 1_555 1_555
P4 P1 1_555 1_555
Fe1 N1 1_555 1_555
Fe2 N15 1_555 1_555
Fe3 N6 1_555 1_555
Fe4 N4 1_555 1_555
S1 O66 1_555 1_555
S2 O69 1_555 1_555
O67 S1 1_555 1_555
O68 S1 1_555 1_555
O70 S2 1_555 1_555
O71 S2 1_555 1_555
S3 O72 1_555 1_555
S4 O75 1_555 1_555
O73 S3 1_555 1_555
O74 S3 1_555 1_555
O76 S4 1_555 1_555
S5 O80 1_555 1_555
S6 O77 1_555 1_555
O78 S6 1_555 1_555
O79 S6 1_555 1_555
O81 S5 1_555 1_555
O82 S5 1_555 1_555
S7 O83 1_555 1_555
S8 O86 1_555 1_555
O84 S7 1_555 1_555
O85 S7 1_555 1_555
O87 S8 1_555 1_555
O88 S8 1_555 1_555
S9 O89 1_555 1_555
S10 O92 1_555 1_555
O90 S9 1_555 1_555
O91 S9 1_555 1_555
O93 S10 1_555 1_555
O94 S10 1_555 1_555
S11 O95 1_555 1_555
O96 S11 1_555 1_555
O97 S11 1_555 1_555
S12 O98 1_555 1_555
O99 S12 1_555 1_555
O100 S12 1_555 1_555
N1 C1 1_555 1_555
N2 Fe1 1_555 1_555
N3 Fe1 1_555 1_555
N4 C4 1_555 1_555
N5 Fe4 1_555 1_555
N6 C6 1_555 1_555
N7 Fe1 1_555 1_555
N8 Fe1 1_555 1_555
N9 Fe1 1_555 1_555
N10 Fe4 1_555 1_555
N11 Fe4 1_555 1_555
N12 Fe3 1_555 1_555
N13 Fe4 1_555 1_555
N14 Fe3 1_555 1_555
N15 C93 1_555 1_555
N16 Fe3 1_555 1_555
N17 Fe2 1_555 1_555
N18 Fe2 1_555 1_555
N19 Fe4 1_555 1_555
N20 Fe3 1_555 1_555
N21 Fe2 1_555 1_555
N22 Fe3 1_555 1_555
N23 Fe2 1_555 1_555
N24 Fe2 1_555 1_555
C1 H1 1_555 1_555
C2 N2 1_555 1_555
H2 C2 1_555 1_555
C3 N3 1_555 1_555
H3 C3 1_555 1_555
C4 H4 1_555 1_555
C5 N5 1_555 1_555
H5 C5 1_555 1_555
C6 H6 1_555 1_555
C7 C1 1_555 1_555
H7 C7 1_555 1_555
C8 C2 1_555 1_555
H8 C8 1_555 1_555
C9 C3 1_555 1_555
H9 C9 1_555 1_555
C10 C4 1_555 1_555
H10 C10 1_555 1_555
C11 C5 1_555 1_555
H11 C11 1_555 1_555
C12 C6 1_555 1_555
H12 C12 1_555 1_555
C13 C7 1_555 1_555
H13 C13 1_555 1_555
C14 C8 1_555 1_555
H14 C14 1_555 1_555
C15 C9 1_555 1_555
H15 C15 1_555 1_555
C16 C10 1_555 1_555
H16 C16 1_555 1_555
C17 C11 1_555 1_555
H17 C17 1_555 1_555
C18 C12 1_555 1_555
H18 C18 1_555 1_555
C19 C13 1_555 1_555
H19 C19 1_555 1_555
C20 C14 1_555 1_555
H20 C20 1_555 1_555
C21 C15 1_555 1_555
H21 C21 1_555 1_555
C22 C16 1_555 1_555
H22 C22 1_555 1_555
C23 C17 1_555 1_555
H23 C23 1_555 1_555
C24 C18 1_555 1_555
H24 C24 1_555 1_555
C25 N1 1_555 1_555
C26 N2 1_555 1_555
C27 N3 1_555 1_555
C28 N4 1_555 1_555
C29 N5 1_555 1_555
C30 N6 1_555 1_555
C31 N7 1_555 1_555
H25 C31 1_555 1_555
C32 N8 1_555 1_555
H26 C32 1_555 1_555
C33 N9 1_555 1_555
H27 C33 1_555 1_555
C34 N10 1_555 1_555
H28 C34 1_555 1_555
C35 N11 1_555 1_555
H29 C35 1_555 1_555
C36 N12 1_555 1_555
H30 C36 1_555 1_555
C37 N7 1_555 1_555
C38 N8 1_555 1_555
C39 N9 1_555 1_555
C40 N10 1_555 1_555
C41 N11 1_555 1_555
C42 N12 1_555 1_555
C43 C37 1_555 1_555
H31 C43 1_555 1_555
C44 C38 1_555 1_555
H32 C44 1_555 1_555
C45 C39 1_555 1_555
H33 C45 1_555 1_555
C46 C40 1_555 1_555
H34 C46 1_555 1_555
C47 C41 1_555 1_555
H35 C47 1_555 1_555
C48 C42 1_555 1_555
H36 C48 1_555 1_555
C49 S1 1_555 1_555
C50 S3 1_555 1_555
C51 S6 1_555 1_555
C52 S7 1_555 1_555
C53 S9 1_555 1_555
C54 S11 1_555 1_555
C55 C49 1_555 1_555
C56 C50 1_555 1_555
C57 C51 1_555 1_555
C58 C52 1_555 1_555
C59 C53 1_555 1_555
C60 C54 1_555 1_555
C61 C55 1_555 1_555
H37 C61 1_555 1_555
C62 C56 1_555 1_555
H38 C62 1_555 1_555
C63 C57 1_555 1_555
H39 C63 1_555 1_555
C64 C58 1_555 1_555
H40 C64 1_555 1_555
C65 C59 1_555 1_555
H41 C65 1_555 1_555
C66 C60 1_555 1_555
H42 C66 1_555 1_555
C67 C37 1_555 1_555
H43 C67 1_555 1_555
C68 C38 1_555 1_555
H44 C68 1_555 1_555
C69 C39 1_555 1_555
H45 C69 1_555 1_555
C70 C40 1_555 1_555
H46 C70 1_555 1_555
C71 C41 1_555 1_555
H47 C71 1_555 1_555
C72 C42 1_555 1_555
H48 C72 1_555 1_555
C73 C55 1_555 1_555
C74 C56 1_555 1_555
C75 C57 1_555 1_555
C76 C58 1_555 1_555
C77 C59 1_555 1_555
C78 C60 1_555 1_555
C79 S2 1_555 1_555
C80 S4 1_555 1_555
C81 S5 1_555 1_555
C82 S8 1_555 1_555
C83 S10 1_555 1_555
C84 S12 1_555 1_555
C85 C79 1_555 1_555
H49 C85 1_555 1_555
C86 C80 1_555 1_555
H50 C86 1_555 1_555
C87 C81 1_555 1_555
H51 C87 1_555 1_555
C88 C82 1_555 1_555
H52 C88 1_555 1_555
C89 C83 1_555 1_555
H53 C89 1_555 1_555
C90 C84 1_555 1_555
H54 C90 1_555 1_555
C91 N13 1_555 1_555
C92 N14 1_555 1_555
C93 C87 1_555 1_555
C94 N16 1_555 1_555
C95 N17 1_555 1_555
C96 N18 1_555 1_555
C97 C91 1_555 1_555
H55 C97 1_555 1_555
C98 C92 1_555 1_555
H56 C98 1_555 1_555
C99 C93 1_555 1_555
H57 C99 1_555 1_555
C100 C94 1_555 1_555
H58 C100 1_555 1_555
C101 C95 1_555 1_555
H59 C101 1_555 1_555
C102 C96 1_555 1_555
H60 C102 1_555 1_555
C103 C73 1_555 1_555
H61 C103 1_555 1_555
C104 C74 1_555 1_555
H62 C104 1_555 1_555
C105 C75 1_555 1_555
H63 C105 1_555 1_555
C106 C76 1_555 1_555
H64 C106 1_555 1_555
C107 C77 1_555 1_555
H65 C107 1_555 1_555
C108 C78 1_555 1_555
H66 C108 1_555 1_555
C109 N13 1_555 1_555
H67 C109 1_555 1_555
C110 N14 1_555 1_555
H68 C110 1_555 1_555
C111 N15 1_555 1_555
H69 C111 1_555 1_555
C112 N16 1_555 1_555
H70 C112 1_555 1_555
C113 N17 1_555 1_555
H71 C113 1_555 1_555
C114 N18 1_555 1_555
H72 C114 1_555 1_555
C115 N19 1_555 1_555
C116 N20 1_555 1_555
C117 N21 1_555 1_555
C118 N22 1_555 1_555
C119 N23 1_555 1_555
C120 N24 1_555 1_555
C121 C115 1_555 1_555
H73 C121 1_555 1_555
C122 C116 1_555 1_555
H74 C122 1_555 1_555
C123 C117 1_555 1_555
H75 C123 1_555 1_555
C124 C118 1_555 1_555
H76 C124 1_555 1_555
C125 C119 1_555 1_555
H77 C125 1_555 1_555
C126 C120 1_555 1_555
H78 C126 1_555 1_555
C127 C121 1_555 1_555
H79 C127 1_555 1_555
C128 C122 1_555 1_555
H80 C128 1_555 1_555
C129 C123 1_555 1_555
H81 C129 1_555 1_555
C130 C124 1_555 1_555
H82 C130 1_555 1_555
C131 C125 1_555 1_555
H83 C131 1_555 1_555
C132 C126 1_555 1_555
H84 C132 1_555 1_555
C133 C127 1_555 1_555
H85 C133 1_555 1_555
C134 C128 1_555 1_555
H86 C134 1_555 1_555
C135 C129 1_555 1_555
H87 C135 1_555 1_555
C136 C130 1_555 1_555
H88 C136 1_555 1_555
C137 C131 1_555 1_555
H89 C137 1_555 1_555
C138 C132 1_555 1_555
H90 C138 1_555 1_555
C139 N19 1_555 1_555
H91 C139 1_555 1_555
C140 N20 1_555 1_555
H92 C140 1_555 1_555
C141 N21 1_555 1_555
H93 C141 1_555 1_555
C142 N22 1_555 1_555
H94 C142 1_555 1_555
C143 N23 1_555 1_555
H95 C143 1_555 1_555
C144 N24 1_555 1_555
H96 C144 1_555 1_555
O101 S4 1_555 1_555
P2 P4 1_555 1_555
P3 P4 1_555 1_555
C19 C25 1_555 1_555
C20 C26 1_555 1_555
C21 C27 1_555 1_555
C22 C28 1_555 1_555
C23 C29 1_555 1_555
C24 C30 1_555 1_555
C25 C31 1_555 1_555
C26 C32 1_555 1_555
C27 C33 1_555 1_555
C28 C34 1_555 1_555
C29 C35 1_555 1_555
C30 C36 1_555 1_555
C43 C49 1_555 1_555
C44 C50 1_555 1_555
C45 C51 1_555 1_555
C46 C52 1_555 1_555
C47 C53 1_555 1_555
C48 C54 1_555 1_555
C61 C67 1_555 1_555
C62 C68 1_555 1_555
C63 C69 1_555 1_555
C64 C70 1_555 1_555
C65 C71 1_555 1_555
C66 C72 1_555 1_555
C73 C79 1_555 1_555
C74 C80 1_555 1_555
C75 C81 1_555 1_555
C76 C82 1_555 1_555
C77 C83 1_555 1_555
C78 C84 1_555 1_555
C85 C91 1_555 1_555
C86 C92 1_555 1_555
C88 C94 1_555 1_555
C89 C95 1_555 1_555
C90 C96 1_555 1_555
C97 C103 1_555 1_555
C98 C104 1_555 1_555
C99 C105 1_555 1_555
C100 C106 1_555 1_555
C101 C107 1_555 1_555
C102 C108 1_555 1_555
C109 C115 1_555 1_555
C110 C116 1_555 1_555
C111 C117 1_555 1_555
C112 C118 1_555 1_555
C113 C119 1_555 1_555
C114 C120 1_555 1_555
C133 C139 1_555 1_555
C134 C140 1_555 1_555
C135 C141 1_555 1_555
C136 C142 1_555 1_555
C137 C143 1_555 1_555
C138 C144 1_555 1_555

#END
