# generated using pymatgen
data_H217Pd6C184(N23O52)2
_symmetry_space_group_name_H-M   'P 1'
_cell_length_a   16.08500000
_cell_length_b   28.56300000
_cell_length_c   41.63500000
_cell_angle_alpha   94.59800000
_cell_angle_beta   90.00000000
_cell_angle_gamma   90.00000000
_symmetry_Int_Tables_number   1
_chemical_formula_structural   H217Pd6C184(N23O52)2
_chemical_formula_sum   'H868 Pd24 C736 N184 O416'
_cell_volume   19067.04977765
_cell_formula_units_Z   4
loop_
 _symmetry_equiv_pos_site_id
 _symmetry_equiv_pos_as_xyz
  1  'x, y, z'
loop_
 _atom_site_type_symbol
 _atom_site_label
 _atom_site_symmetry_multiplicity
 _atom_site_fract_x
 _atom_site_fract_y
 _atom_site_fract_z
 _atom_site_occupancy
  H  H1  1  0.340200  0.322900  0.474400  1
  H  H2  1  0.840200  0.677100  0.025600  1
  H  H3  1  0.659800  0.677100  0.525600  1
  H  H4  1  0.159800  0.322900  0.974400  1
  H  H5  1  0.279500  0.251000  0.456500  1
  H  H6  1  0.779500  0.749000  0.043500  1
  H  H7  1  0.720500  0.749000  0.543500  1
  H  H8  1  0.220500  0.251000  0.956500  1
  H  H9  1  0.054900  0.315400  0.465700  1
  H  H10  1  0.554900  0.684600  0.034300  1
  H  H11  1  0.945100  0.684600  0.534300  1
  H  H12  1  0.445100  0.315400  0.965700  1
  H  H13  1  0.120700  0.382700  0.484900  1
  H  H14  1  0.620700  0.617300  0.015100  1
  H  H15  1  0.879300  0.617300  0.515100  1
  H  H16  1  0.379300  0.382700  0.984900  1
  H  H17  1  0.157000  0.008900  0.382000  1
  H  H18  1  0.657000  0.991100  0.118000  1
  H  H19  1  0.843000  0.991100  0.618000  1
  H  H20  1  0.343000  0.008900  0.882000  1
  H  H21  1  0.075800  0.072900  0.395600  1
  H  H22  1  0.575800  0.927100  0.104400  1
  H  H23  1  0.924200  0.927100  0.604400  1
  H  H24  1  0.424200  0.072900  0.895600  1
  H  H25  1  0.284200  0.142100  0.426300  1
  H  H26  1  0.784200  0.857900  0.073700  1
  H  H27  1  0.715800  0.857900  0.573700  1
  H  H28  1  0.215800  0.142100  0.926300  1
  H  H29  1  0.360000  0.076200  0.407200  1
  H  H30  1  0.860000  0.923800  0.092800  1
  H  H31  1  0.640000  0.923800  0.592800  1
  H  H32  1  0.140000  0.076200  0.907200  1
  H  H33  1  0.761200  0.276900  0.421500  1
  H  H34  1  0.261200  0.723100  0.078500  1
  H  H35  1  0.238800  0.723100  0.578500  1
  H  H36  1  0.738800  0.276900  0.921500  1
  H  H37  1  0.902100  0.269200  0.435400  1
  H  H38  1  0.402100  0.730800  0.064600  1
  H  H39  1  0.097900  0.730800  0.564600  1
  H  H40  1  0.597900  0.269200  0.935400  1
  H  H41  1  0.895600  0.133300  0.399600  1
  H  H42  1  0.395600  0.866700  0.100400  1
  H  H43  1  0.104400  0.866700  0.600400  1
  H  H44  1  0.604400  0.133300  0.899600  1
  H  H45  1  0.753900  0.144100  0.387900  1
  H  H46  1  0.253900  0.855900  0.112100  1
  H  H47  1  0.246100  0.855900  0.612100  1
  H  H48  1  0.746100  0.144100  0.887900  1
  H  H49  1  0.380100  0.402300  0.162100  1
  H  H50  1  0.880100  0.597700  0.337900  1
  H  H51  1  0.619900  0.597700  0.837900  1
  H  H52  1  0.119900  0.402300  0.662100  1
  H  H53  1  0.309900  0.335900  0.138800  1
  H  H54  1  0.809900  0.664100  0.361200  1
  H  H55  1  0.690100  0.664100  0.861200  1
  H  H56  1  0.190100  0.335900  0.638800  1
  H  H57  1  0.095000  0.410800  0.143800  1
  H  H58  1  0.595000  0.589200  0.356200  1
  H  H59  1  0.905000  0.589200  0.856200  1
  H  H60  1  0.405000  0.410800  0.643800  1
  H  H61  1  0.170600  0.475300  0.165600  1
  H  H62  1  0.670600  0.524700  0.334400  1
  H  H63  1  0.829400  0.524700  0.834400  1
  H  H64  1  0.329400  0.475300  0.665600  1
  H  H65  1  0.152700  0.099900  0.061900  1
  H  H66  1  0.652700  0.900100  0.438100  1
  H  H67  1  0.847300  0.900100  0.938100  1
  H  H68  1  0.347300  0.099900  0.561900  1
  H  H69  1  0.084300  0.169900  0.078100  1
  H  H70  1  0.584300  0.830100  0.421900  1
  H  H71  1  0.915700  0.830100  0.921900  1
  H  H72  1  0.415700  0.169900  0.578100  1
  H  H73  1  0.307300  0.224200  0.108000  1
  H  H74  1  0.807300  0.775800  0.392000  1
  H  H75  1  0.692700  0.775800  0.892000  1
  H  H76  1  0.192700  0.224200  0.608000  1
  H  H77  1  0.368300  0.151300  0.090000  1
  H  H78  1  0.868300  0.848700  0.410000  1
  H  H79  1  0.631700  0.848700  0.910000  1
  H  H80  1  0.131700  0.151300  0.590000  1
  H  H81  1  0.778000  0.362500  0.104600  1
  H  H82  1  0.278000  0.637500  0.395400  1
  H  H83  1  0.222000  0.637500  0.895400  1
  H  H84  1  0.722000  0.362500  0.604600  1
  H  H85  1  0.920100  0.362400  0.117200  1
  H  H86  1  0.420100  0.637600  0.382800  1
  H  H87  1  0.079900  0.637600  0.882800  1
  H  H88  1  0.579900  0.362400  0.617200  1
  H  H89  1  0.923100  0.224900  0.087400  1
  H  H90  1  0.423100  0.775100  0.412600  1
  H  H91  1  0.076900  0.775100  0.912600  1
  H  H92  1  0.576900  0.224900  0.587400  1
  H  H93  1  0.782000  0.230200  0.075800  1
  H  H94  1  0.282000  0.769800  0.424200  1
  H  H95  1  0.218000  0.769800  0.924200  1
  H  H96  1  0.718000  0.230200  0.575800  1
  H  H97  1  0.159700  0.453600  0.443100  1
  H  H98  1  0.659700  0.546400  0.056900  1
  H  H99  1  0.840300  0.546400  0.556900  1
  H  H100  1  0.340300  0.453600  0.943100  1
  H  H101  1  0.150100  0.459000  0.388200  1
  H  H102  1  0.650100  0.541000  0.111800  1
  H  H103  1  0.849900  0.541000  0.611800  1
  H  H104  1  0.349900  0.459000  0.888200  1
  H  H105  1  0.375700  0.405100  0.375200  1
  H  H106  1  0.875700  0.594900  0.124800  1
  H  H107  1  0.624300  0.594900  0.624800  1
  H  H108  1  0.124300  0.405100  0.875200  1
  H  H109  1  0.388200  0.398600  0.433100  1
  H  H110  1  0.888200  0.601400  0.066900  1
  H  H111  1  0.611800  0.601400  0.566900  1
  H  H112  1  0.111800  0.398600  0.933100  1
  H  H113  1  0.205500  0.454400  0.334600  1
  H  H114  1  0.705500  0.545600  0.165400  1
  H  H115  1  0.794500  0.545600  0.665400  1
  H  H116  1  0.294500  0.454400  0.834600  1
  H  H117  1  0.431500  0.443100  0.226300  1
  H  H118  1  0.931500  0.556900  0.273700  1
  H  H119  1  0.568500  0.556900  0.773700  1
  H  H120  1  0.068500  0.443100  0.726300  1
  H  H121  1  0.419600  0.416800  0.277500  1
  H  H122  1  0.919600  0.583200  0.222500  1
  H  H123  1  0.580400  0.583200  0.722500  1
  H  H124  1  0.080400  0.416800  0.777500  1
  H  H125  1  0.196700  0.478500  0.287000  1
  H  H126  1  0.696700  0.521500  0.213000  1
  H  H127  1  0.803300  0.521500  0.713000  1
  H  H128  1  0.303300  0.478500  0.787000  1
  H  H129  1  0.211700  0.504400  0.235100  1
  H  H130  1  0.711700  0.495600  0.264900  1
  H  H131  1  0.788300  0.495600  0.764900  1
  H  H132  1  0.288300  0.504400  0.735100  1
  H  H133  1  0.357300  0.416500  0.328300  1
  H  H134  1  0.857300  0.583500  0.171700  1
  H  H135  1  0.642700  0.583500  0.671700  1
  H  H136  1  0.142700  0.416500  0.828300  1
  H  H137  1  0.422900  0.051600  0.336300  1
  H  H138  1  0.922900  0.948400  0.163700  1
  H  H139  1  0.577100  0.948400  0.663700  1
  H  H140  1  0.077100  0.051600  0.836300  1
  H  H141  1  0.416800  0.076700  0.284700  1
  H  H142  1  0.916800  0.923300  0.215300  1
  H  H143  1  0.583200  0.923300  0.715300  1
  H  H144  1  0.083200  0.076700  0.784700  1
  H  H145  1  0.205800  0.002000  0.267900  1
  H  H146  1  0.705800  0.998000  0.232100  1
  H  H147  1  0.794200  0.998000  0.732100  1
  H  H148  1  0.294200  0.002000  0.767900  1
  H  H149  1  0.219000  0.975700  0.318600  1
  H  H150  1  0.719000  0.024300  0.181400  1
  H  H151  1  0.781000  0.024300  0.681400  1
  H  H152  1  0.281000  0.975700  0.818600  1
  H  H153  1  0.190400  0.019500  0.110900  1
  H  H154  1  0.690400  0.980500  0.389100  1
  H  H155  1  0.809600  0.980500  0.889100  1
  H  H156  1  0.309600  0.019500  0.610900  1
  H  H157  1  0.173500  0.014600  0.165200  1
  H  H158  1  0.673500  0.985400  0.334800  1
  H  H159  1  0.826500  0.985400  0.834800  1
  H  H160  1  0.326500  0.014600  0.665200  1
  H  H161  1  0.368400  0.071400  0.231000  1
  H  H162  1  0.868400  0.928600  0.269000  1
  H  H163  1  0.631600  0.928600  0.769000  1
  H  H164  1  0.131600  0.071400  0.731000  1
  H  H165  1  0.393300  0.077500  0.180700  1
  H  H166  1  0.893300  0.922500  0.319300  1
  H  H167  1  0.606700  0.922500  0.819300  1
  H  H168  1  0.106700  0.077500  0.680700  1
  H  H169  1  0.408600  0.079300  0.125700  1
  H  H170  1  0.908600  0.920700  0.374300  1
  H  H171  1  0.591400  0.920700  0.874300  1
  H  H172  1  0.091400  0.079300  0.625700  1
  H  H173  1  0.222400  0.020100  0.219100  1
  H  H174  1  0.722400  0.979900  0.280900  1
  H  H175  1  0.777600  0.979900  0.780900  1
  H  H176  1  0.277600  0.020100  0.719100  1
  H  H177  1  0.680300  0.172100  0.327400  1
  H  H178  1  0.180300  0.827900  0.172600  1
  H  H179  1  0.319700  0.827900  0.672600  1
  H  H180  1  0.819700  0.172100  0.827400  1
  H  H181  1  0.714600  0.187700  0.274100  1
  H  H182  1  0.214600  0.812300  0.225900  1
  H  H183  1  0.285400  0.812300  0.725900  1
  H  H184  1  0.785400  0.187700  0.774100  1
  H  H185  1  0.698800  0.325000  0.304400  1
  H  H186  1  0.198800  0.675000  0.195600  1
  H  H187  1  0.301200  0.675000  0.695600  1
  H  H188  1  0.801200  0.325000  0.804400  1
  H  H189  1  0.670300  0.305100  0.355300  1
  H  H190  1  0.170300  0.694900  0.144700  1
  H  H191  1  0.329700  0.694900  0.644700  1
  H  H192  1  0.829700  0.305100  0.855300  1
  H  H193  1  0.717100  0.305100  0.247400  1
  H  H194  1  0.217100  0.694900  0.252600  1
  H  H195  1  0.282900  0.694900  0.752600  1
  H  H196  1  0.782900  0.305100  0.747400  1
  H  H197  1  0.648900  0.349000  0.146500  1
  H  H198  1  0.148900  0.651000  0.353500  1
  H  H199  1  0.351100  0.651000  0.853500  1
  H  H200  1  0.851100  0.349000  0.646500  1
  H  H201  1  0.685600  0.333200  0.201400  1
  H  H202  1  0.185600  0.666800  0.298600  1
  H  H203  1  0.314400  0.666800  0.798600  1
  H  H204  1  0.814400  0.333200  0.701400  1
  H  H205  1  0.660000  0.199300  0.173400  1
  H  H206  1  0.160000  0.800700  0.326600  1
  H  H207  1  0.340000  0.800700  0.826600  1
  H  H208  1  0.840000  0.199300  0.673400  1
  H  H209  1  0.643800  0.212500  0.121500  1
  H  H210  1  0.143800  0.787500  0.378500  1
  H  H211  1  0.356200  0.787500  0.878500  1
  H  H212  1  0.856200  0.212500  0.621500  1
  H  H213  1  0.684900  0.216000  0.228900  1
  H  H214  1  0.184900  0.784000  0.271100  1
  H  H215  1  0.315100  0.784000  0.771100  1
  H  H216  1  0.815100  0.216000  0.728900  1
  H  H217  1  0.322200  0.468600  0.575900  1
  H  H218  1  0.822200  0.531400  0.924100  1
  H  H219  1  0.677800  0.531400  0.424100  1
  H  H220  1  0.177800  0.468600  0.075900  1
  H  H221  1  0.245400  0.483200  0.554300  1
  H  H222  1  0.745400  0.516800  0.945700  1
  H  H223  1  0.754600  0.516800  0.445700  1
  H  H224  1  0.254600  0.483200  0.054300  1
  H  H225  1  0.228300  0.396100  0.577200  1
  H  H226  1  0.728300  0.603900  0.922800  1
  H  H227  1  0.771700  0.603900  0.422800  1
  H  H228  1  0.271700  0.396100  0.077200  1
  H  H229  1  0.212400  0.365200  0.544000  1
  H  H230  1  0.712400  0.634800  0.956000  1
  H  H231  1  0.787600  0.634800  0.456000  1
  H  H232  1  0.287600  0.365200  0.044000  1
  H  H233  1  0.170400  0.416000  0.550200  1
  H  H234  1  0.670400  0.584000  0.949800  1
  H  H235  1  0.829600  0.584000  0.449800  1
  H  H236  1  0.329600  0.416000  0.050200  1
  H  H237  1  0.372800  0.389200  0.570200  1
  H  H238  1  0.872800  0.610800  0.929800  1
  H  H239  1  0.627200  0.610800  0.429800  1
  H  H240  1  0.127200  0.389200  0.070200  1
  H  H241  1  0.417600  0.407700  0.539400  1
  H  H242  1  0.917600  0.592300  0.960600  1
  H  H243  1  0.582400  0.592300  0.460600  1
  H  H244  1  0.082400  0.407700  0.039400  1
  H  H245  1  0.365000  0.360000  0.535900  1
  H  H246  1  0.865000  0.640000  0.964100  1
  H  H247  1  0.635000  0.640000  0.464100  1
  H  H248  1  0.135000  0.360000  0.035900  1
  H  H249  1  0.362500  0.527700  0.542400  1
  H  H250  1  0.862500  0.472300  0.957600  1
  H  H251  1  0.637500  0.472300  0.457600  1
  H  H252  1  0.137500  0.527700  0.042400  1
  H  H253  1  0.414700  0.480500  0.533500  1
  H  H254  1  0.914700  0.519500  0.966500  1
  H  H255  1  0.585300  0.519500  0.466500  1
  H  H256  1  0.085300  0.480500  0.033500  1
  H  H257  1  0.270500  0.556600  0.502200  1
  H  H258  1  0.770500  0.443400  0.997800  1
  H  H259  1  0.729500  0.443400  0.497800  1
  H  H260  1  0.229500  0.556600  0.002200  1
  H  H261  1  0.209600  0.516800  0.513700  1
  H  H262  1  0.709600  0.483200  0.986300  1
  H  H263  1  0.790400  0.483200  0.486300  1
  H  H264  1  0.290400  0.516800  0.013700  1
  H  H265  1  0.228600  0.519700  0.476100  1
  H  H266  1  0.728600  0.480300  0.023900  1
  H  H267  1  0.771400  0.480300  0.523900  1
  H  H268  1  0.271400  0.519700  0.976100  1
  H  H269  1  0.408500  0.538500  0.483900  1
  H  H270  1  0.908500  0.461500  0.016100  1
  H  H271  1  0.591500  0.461500  0.516100  1
  H  H272  1  0.091500  0.538500  0.983900  1
  H  H273  1  0.374000  0.501900  0.455900  1
  H  H274  1  0.874000  0.498100  0.044100  1
  H  H275  1  0.626000  0.498100  0.544100  1
  H  H276  1  0.126000  0.501900  0.955900  1
  H  H277  1  0.441600  0.485500  0.480900  1
  H  H278  1  0.941600  0.514500  0.019100  1
  H  H279  1  0.558400  0.514500  0.519100  1
  H  H280  1  0.058400  0.485500  0.980900  1
  H  H281  1  0.459000  0.212500  0.451600  1
  H  H282  1  0.959000  0.787500  0.048400  1
  H  H283  1  0.541000  0.787500  0.548400  1
  H  H284  1  0.041000  0.212500  0.951600  1
  H  H285  1  0.488400  0.260700  0.437900  1
  H  H286  1  0.988400  0.739300  0.062100  1
  H  H287  1  0.511600  0.739300  0.562100  1
  H  H288  1  0.011600  0.260700  0.937900  1
  H  H289  1  0.566200  0.155300  0.461000  1
  H  H290  1  0.066200  0.844700  0.039000  1
  H  H291  1  0.433800  0.844700  0.539000  1
  H  H292  1  0.933800  0.155300  0.961000  1
  H  H293  1  0.646000  0.151100  0.438000  1
  H  H294  1  0.146000  0.848900  0.062000  1
  H  H295  1  0.354000  0.848900  0.562000  1
  H  H296  1  0.854000  0.151100  0.938000  1
  H  H297  1  0.555000  0.142800  0.423100  1
  H  H298  1  0.055000  0.857200  0.076900  1
  H  H299  1  0.445000  0.857200  0.576900  1
  H  H300  1  0.945000  0.142800  0.923100  1
  H  H301  1  0.596000  0.229300  0.481200  1
  H  H302  1  0.096000  0.770700  0.018800  1
  H  H303  1  0.404000  0.770700  0.518800  1
  H  H304  1  0.904000  0.229300  0.981200  1
  H  H305  1  0.612600  0.270300  0.457900  1
  H  H306  1  0.112600  0.729700  0.042100  1
  H  H307  1  0.387400  0.729700  0.542100  1
  H  H308  1  0.887400  0.270300  0.957900  1
  H  H309  1  0.680200  0.229700  0.460700  1
  H  H310  1  0.180200  0.770300  0.039300  1
  H  H311  1  0.319800  0.770300  0.539300  1
  H  H312  1  0.819800  0.229700  0.960700  1
  H  H313  1  0.396800  0.221000  0.401300  1
  H  H314  1  0.896800  0.779000  0.098700  1
  H  H315  1  0.603200  0.779000  0.598700  1
  H  H316  1  0.103200  0.221000  0.901300  1
  H  H317  1  0.455700  0.175600  0.399400  1
  H  H318  1  0.955700  0.824400  0.100600  1
  H  H319  1  0.544300  0.824400  0.600600  1
  H  H320  1  0.044300  0.175600  0.899400  1
  H  H321  1  0.427700  0.210400  0.339400  1
  H  H322  1  0.927700  0.789600  0.160600  1
  H  H323  1  0.572300  0.789600  0.660600  1
  H  H324  1  0.072300  0.210400  0.839400  1
  H  H325  1  0.496400  0.171800  0.345800  1
  H  H326  1  0.996400  0.828200  0.154200  1
  H  H327  1  0.503600  0.828200  0.654200  1
  H  H328  1  0.003600  0.171800  0.845800  1
  H  H329  1  0.521800  0.217600  0.328400  1
  H  H330  1  0.021800  0.782400  0.171600  1
  H  H331  1  0.478200  0.782400  0.671600  1
  H  H332  1  0.978200  0.217600  0.828400  1
  H  H333  1  0.427600  0.284400  0.365800  1
  H  H334  1  0.927600  0.715600  0.134200  1
  H  H335  1  0.572400  0.715600  0.634200  1
  H  H336  1  0.072400  0.284400  0.865800  1
  H  H337  1  0.522200  0.292500  0.355700  1
  H  H338  1  0.022200  0.707500  0.144300  1
  H  H339  1  0.477800  0.707500  0.644300  1
  H  H340  1  0.977800  0.292500  0.855700  1
  H  H341  1  0.495400  0.299400  0.392800  1
  H  H342  1  0.995400  0.700600  0.107200  1
  H  H343  1  0.504600  0.700600  0.607200  1
  H  H344  1  0.004600  0.299400  0.892800  1
  H  H345  1  0.344100  0.611000  0.173100  1
  H  H346  1  0.844100  0.389000  0.326900  1
  H  H347  1  0.655900  0.389000  0.826900  1
  H  H348  1  0.155900  0.611000  0.673100  1
  H  H349  1  0.441700  0.619600  0.179100  1
  H  H350  1  0.941700  0.380400  0.320900  1
  H  H351  1  0.558300  0.380400  0.820900  1
  H  H352  1  0.058300  0.619600  0.679100  1
  H  H353  1  0.379400  0.616500  0.236600  1
  H  H354  1  0.879400  0.383500  0.263400  1
  H  H355  1  0.620600  0.383500  0.763400  1
  H  H356  1  0.120600  0.616500  0.736600  1
  H  H357  1  0.344600  0.567200  0.246500  1
  H  H358  1  0.844600  0.432800  0.253500  1
  H  H359  1  0.655400  0.432800  0.753500  1
  H  H360  1  0.155400  0.567200  0.746500  1
  H  H361  1  0.294000  0.596000  0.221500  1
  H  H362  1  0.794000  0.404000  0.278500  1
  H  H363  1  0.706000  0.404000  0.778500  1
  H  H364  1  0.206000  0.596000  0.721500  1
  H  H365  1  0.507700  0.582300  0.221000  1
  H  H366  1  0.007700  0.417700  0.279000  1
  H  H367  1  0.492300  0.417700  0.779000  1
  H  H368  1  0.992300  0.582300  0.721000  1
  H  H369  1  0.513600  0.539200  0.194100  1
  H  H370  1  0.013600  0.460800  0.305900  1
  H  H371  1  0.486400  0.460800  0.805900  1
  H  H372  1  0.986400  0.539200  0.694100  1
  H  H373  1  0.478900  0.531000  0.229200  1
  H  H374  1  0.978900  0.469000  0.270800  1
  H  H375  1  0.521100  0.469000  0.770800  1
  H  H376  1  0.021100  0.531000  0.729200  1
  H  H377  1  0.414700  0.586600  0.126200  1
  H  H378  1  0.914700  0.413400  0.373800  1
  H  H379  1  0.585300  0.413400  0.873800  1
  H  H380  1  0.085300  0.586600  0.626200  1
  H  H381  1  0.474800  0.554100  0.145500  1
  H  H382  1  0.974800  0.445900  0.354500  1
  H  H383  1  0.525200  0.445900  0.854500  1
  H  H384  1  0.025200  0.554100  0.645500  1
  H  H385  1  0.288500  0.555900  0.105100  1
  H  H386  1  0.788500  0.444100  0.394900  1
  H  H387  1  0.711500  0.444100  0.894900  1
  H  H388  1  0.211500  0.555900  0.605100  1
  H  H389  1  0.259300  0.570200  0.141300  1
  H  H390  1  0.759300  0.429800  0.358700  1
  H  H391  1  0.740700  0.429800  0.858700  1
  H  H392  1  0.240700  0.570200  0.641300  1
  H  H393  1  0.238600  0.519000  0.124800  1
  H  H394  1  0.738600  0.481000  0.375200  1
  H  H395  1  0.761400  0.481000  0.875200  1
  H  H396  1  0.261400  0.519000  0.624800  1
  H  H397  1  0.401200  0.505800  0.094000  1
  H  H398  1  0.901200  0.494200  0.406000  1
  H  H399  1  0.598800  0.494200  0.906000  1
  H  H400  1  0.098800  0.505800  0.594000  1
  H  H401  1  0.356600  0.464700  0.111500  1
  H  H402  1  0.856600  0.535300  0.388500  1
  H  H403  1  0.643400  0.535300  0.888500  1
  H  H404  1  0.143400  0.464700  0.611500  1
  H  H405  1  0.448400  0.481300  0.122000  1
  H  H406  1  0.948400  0.518700  0.378000  1
  H  H407  1  0.551600  0.518700  0.878000  1
  H  H408  1  0.051600  0.481300  0.622000  1
  H  H409  1  0.390100  0.028600  0.983100  1
  H  H410  1  0.890100  0.971400  0.516900  1
  H  H411  1  0.609900  0.971400  0.016900  1
  H  H412  1  0.109900  0.028600  0.483100  1
  H  H413  1  0.456000  0.042700  0.010900  1
  H  H414  1  0.956000  0.957300  0.489100  1
  H  H415  1  0.544000  0.957300  0.989100  1
  H  H416  1  0.044000  0.042700  0.510900  1
  H  H417  1  0.386400  0.122200  0.992600  1
  H  H418  1  0.886400  0.877800  0.507400  1
  H  H419  1  0.613600  0.877800  0.007400  1
  H  H420  1  0.113600  0.122200  0.492600  1
  H  H421  1  0.426100  0.124000  0.027900  1
  H  H422  1  0.926100  0.876000  0.472100  1
  H  H423  1  0.573900  0.876000  0.972100  1
  H  H424  1  0.073900  0.124000  0.527900  1
  H  H425  1  0.333333  0.142400  0.023100  1
  H  H426  1  0.833333  0.857600  0.476900  1
  H  H427  1  0.666667  0.857600  0.976900  1
  H  H428  1  0.166667  0.142400  0.523100  1
  H  H429  1  0.275100  0.083400  0.979300  1
  H  H430  1  0.775100  0.916600  0.520700  1
  H  H431  1  0.724900  0.916600  0.020700  1
  H  H432  1  0.224900  0.083400  0.479300  1
  H  H433  1  0.228400  0.099900  0.012200  1
  H  H434  1  0.728400  0.900100  0.487800  1
  H  H435  1  0.771600  0.900100  0.987800  1
  H  H436  1  0.271600  0.099900  0.512200  1
  H  H437  1  0.234100  0.045200  0.000600  1
  H  H438  1  0.734100  0.954800  0.499400  1
  H  H439  1  0.765900  0.954800  0.999400  1
  H  H440  1  0.265900  0.045200  0.500600  1
  H  H441  1  0.428700  0.968600  0.014000  1
  H  H442  1  0.928700  0.031400  0.486000  1
  H  H443  1  0.571300  0.031400  0.986000  1
  H  H444  1  0.071300  0.968600  0.514000  1
  H  H445  1  0.330600  0.976700  0.011200  1
  H  H446  1  0.830600  0.023300  0.488800  1
  H  H447  1  0.669400  0.023300  0.988800  1
  H  H448  1  0.169400  0.976700  0.511200  1
  H  H449  1  0.481900  0.961900  0.060700  1
  H  H450  1  0.981900  0.038100  0.439300  1
  H  H451  1  0.518100  0.038100  0.939300  1
  H  H452  1  0.018100  0.961900  0.560700  1
  H  H453  1  0.457800  0.997000  0.091100  1
  H  H454  1  0.957800  0.003000  0.408900  1
  H  H455  1  0.542200  0.003000  0.908900  1
  H  H456  1  0.042200  0.997000  0.591100  1
  H  H457  1  0.494500  0.017200  0.059300  1
  H  H458  1  0.994500  0.982800  0.440700  1
  H  H459  1  0.505500  0.982800  0.940700  1
  H  H460  1  0.005500  0.017200  0.559300  1
  H  H461  1  0.358100  0.928500  0.062000  1
  H  H462  1  0.858100  0.071500  0.438000  1
  H  H463  1  0.641900  0.071500  0.938000  1
  H  H464  1  0.141900  0.928500  0.562000  1
  H  H465  1  0.273800  0.956600  0.056600  1
  H  H466  1  0.773800  0.043400  0.443400  1
  H  H467  1  0.726200  0.043400  0.943400  1
  H  H468  1  0.226200  0.956600  0.556600  1
  H  H469  1  0.321600  0.963500  0.090400  1
  H  H470  1  0.821600  0.036500  0.409600  1
  H  H471  1  0.678400  0.036500  0.909600  1
  H  H472  1  0.178400  0.963500  0.590400  1
  H  H473  1  0.564200  0.313300  0.999100  1
  H  H474  1  0.064200  0.686700  0.500900  1
  H  H475  1  0.435800  0.686700  0.000900  1
  H  H476  1  0.935800  0.313300  0.499100  1
  H  H477  1  0.570200  0.262700  0.013200  1
  H  H478  1  0.070200  0.737300  0.486800  1
  H  H479  1  0.429800  0.737300  0.986800  1
  H  H480  1  0.929800  0.262700  0.513200  1
  H  H481  1  0.719500  0.284300  0.992900  1
  H  H482  1  0.219500  0.715700  0.507100  1
  H  H483  1  0.280500  0.715700  0.007100  1
  H  H484  1  0.780500  0.284300  0.492900  1
  H  H485  1  0.700800  0.244600  0.017000  1
  H  H486  1  0.200800  0.755400  0.483000  1
  H  H487  1  0.299200  0.755400  0.983000  1
  H  H488  1  0.799200  0.244600  0.517000  1
  H  H489  1  0.772700  0.282500  0.025300  1
  H  H490  1  0.272700  0.717500  0.474700  1
  H  H491  1  0.227300  0.717500  0.974700  1
  H  H492  1  0.727300  0.282500  0.525300  1
  H  H493  1  0.682800  0.362700  0.006900  1
  H  H494  1  0.182800  0.637300  0.493100  1
  H  H495  1  0.317200  0.637300  0.993100  1
  H  H496  1  0.817200  0.362700  0.506900  1
  H  H497  1  0.734000  0.363500  0.039900  1
  H  H498  1  0.234000  0.636500  0.460100  1
  H  H499  1  0.266000  0.636500  0.960100  1
  H  H500  1  0.766000  0.363500  0.539900  1
  H  H501  1  0.638600  0.379500  0.040300  1
  H  H502  1  0.138600  0.620500  0.459700  1
  H  H503  1  0.361400  0.620500  0.959700  1
  H  H504  1  0.861400  0.379500  0.540300  1
  H  H505  1  0.503600  0.345500  0.045800  1
  H  H506  1  0.003600  0.654500  0.454200  1
  H  H507  1  0.496400  0.654500  0.954200  1
  H  H508  1  0.996400  0.345500  0.545800  1
  H  H509  1  0.451700  0.299700  0.033700  1
  H  H510  1  0.951700  0.700300  0.466300  1
  H  H511  1  0.548300  0.700300  0.966300  1
  H  H512  1  0.048300  0.299700  0.533700  1
  H  H513  1  0.435700  0.233200  0.066800  1
  H  H514  1  0.935700  0.766800  0.433200  1
  H  H515  1  0.564300  0.766800  0.933200  1
  H  H516  1  0.064300  0.233200  0.566800  1
  H  H517  1  0.511000  0.222500  0.090200  1
  H  H518  1  0.011000  0.777500  0.409800  1
  H  H519  1  0.489000  0.777500  0.909800  1
  H  H520  1  0.989000  0.222500  0.590200  1
  H  H521  1  0.525900  0.221200  0.052200  1
  H  H522  1  0.025900  0.778800  0.447800  1
  H  H523  1  0.474100  0.778800  0.947800  1
  H  H524  1  0.974100  0.221200  0.552200  1
  H  H525  1  0.411100  0.304700  0.090700  1
  H  H526  1  0.911100  0.695300  0.409300  1
  H  H527  1  0.588900  0.695300  0.909300  1
  H  H528  1  0.088900  0.304700  0.590700  1
  H  H529  1  0.481100  0.341900  0.102700  1
  H  H530  1  0.981100  0.658100  0.397300  1
  H  H531  1  0.518900  0.658100  0.897300  1
  H  H532  1  0.018900  0.341900  0.602700  1
  H  H533  1  0.478700  0.291400  0.116700  1
  H  H534  1  0.978700  0.708600  0.383300  1
  H  H535  1  0.521300  0.708600  0.883300  1
  H  H536  1  0.021300  0.291400  0.616700  1
  H  H537  1  0.421900  0.901500  0.429000  1
  H  H538  1  0.921900  0.098500  0.071000  1
  H  H539  1  0.578100  0.098500  0.571000  1
  H  H540  1  0.078100  0.901500  0.929000  1
  H  H541  1  0.486100  0.940500  0.419300  1
  H  H542  1  0.986100  0.059500  0.080700  1
  H  H543  1  0.513900  0.059500  0.580700  1
  H  H544  1  0.013900  0.940500  0.919300  1
  H  H545  1  0.412900  0.970500  0.459900  1
  H  H546  1  0.912900  0.029500  0.040100  1
  H  H547  1  0.587100  0.029500  0.540100  1
  H  H548  1  0.087100  0.970500  0.959900  1
  H  H549  1  0.361700  0.013500  0.447400  1
  H  H550  1  0.861700  0.986500  0.052600  1
  H  H551  1  0.638300  0.986500  0.552600  1
  H  H552  1  0.138300  0.013500  0.947400  1
  H  H553  1  0.453200  0.002000  0.433800  1
  H  H554  1  0.953200  0.998000  0.066200  1
  H  H555  1  0.546800  0.998000  0.566200  1
  H  H556  1  0.046800  0.002000  0.933800  1
  H  H557  1  0.291600  0.932100  0.449000  1
  H  H558  1  0.791600  0.067900  0.051000  1
  H  H559  1  0.708400  0.067900  0.551000  1
  H  H560  1  0.208400  0.932100  0.949000  1
  H  H561  1  0.266600  0.919400  0.412200  1
  H  H562  1  0.766600  0.080600  0.087800  1
  H  H563  1  0.733400  0.080600  0.587800  1
  H  H564  1  0.233400  0.919400  0.912200  1
  H  H565  1  0.248500  0.970900  0.428800  1
  H  H566  1  0.748500  0.029100  0.071200  1
  H  H567  1  0.751500  0.029100  0.571200  1
  H  H568  1  0.251500  0.970900  0.928800  1
  H  H569  1  0.398700  0.876200  0.379700  1
  H  H570  1  0.898700  0.123800  0.120300  1
  H  H571  1  0.601300  0.123800  0.620300  1
  H  H572  1  0.101300  0.876200  0.879700  1
  H  H573  1  0.496500  0.886700  0.380600  1
  H  H574  1  0.996500  0.113300  0.119400  1
  H  H575  1  0.503500  0.113300  0.619400  1
  H  H576  1  0.003500  0.886700  0.880600  1
  H  H577  1  0.544000  0.923400  0.343000  1
  H  H578  1  0.044000  0.076600  0.157000  1
  H  H579  1  0.456000  0.076600  0.657000  1
  H  H580  1  0.956000  0.923400  0.843000  1
  H  H581  1  0.532700  0.964100  0.371400  1
  H  H582  1  0.032700  0.035900  0.128600  1
  H  H583  1  0.467300  0.035900  0.628600  1
  H  H584  1  0.967300  0.964100  0.871400  1
  H  H585  1  0.506100  0.973100  0.335400  1
  H  H586  1  0.006100  0.026900  0.164600  1
  H  H587  1  0.493900  0.026900  0.664600  1
  H  H588  1  0.993900  0.973100  0.835400  1
  H  H589  1  0.442700  0.883500  0.320900  1
  H  H590  1  0.942700  0.116500  0.179100  1
  H  H591  1  0.557300  0.116500  0.679100  1
  H  H592  1  0.057300  0.883500  0.820900  1
  H  H593  1  0.383200  0.925800  0.312500  1
  H  H594  1  0.883200  0.074200  0.187500  1
  H  H595  1  0.616800  0.074200  0.687500  1
  H  H596  1  0.116800  0.925800  0.812500  1
  H  H597  1  0.350800  0.887400  0.335600  1
  H  H598  1  0.850800  0.112600  0.164400  1
  H  H599  1  0.649200  0.112600  0.664400  1
  H  H600  1  0.149200  0.887400  0.835600  1
  H  H601  1  0.895600  0.235000  0.255800  1
  H  H602  1  0.395600  0.765000  0.244200  1
  H  H603  1  0.104400  0.765000  0.744200  1
  H  H604  1  0.604400  0.235000  0.755800  1
  H  H605  1  0.899200  0.157400  0.233800  1
  H  H606  1  0.399200  0.842600  0.266200  1
  H  H607  1  0.100800  0.842600  0.766200  1
  H  H608  1  0.600800  0.157400  0.733800  1
  H  H609  1  0.028100  0.117400  0.230700  1
  H  H610  1  0.528100  0.882600  0.269300  1
  H  H611  1  0.971900  0.882600  0.769300  1
  H  H612  1  0.471900  0.117400  0.730700  1
  H  H613  1  0.174000  0.116100  0.238800  1
  H  H614  1  0.674000  0.883900  0.261200  1
  H  H615  1  0.826000  0.883900  0.761200  1
  H  H616  1  0.326000  0.116100  0.738800  1
  H  H617  1  0.243700  0.339400  0.310500  1
  H  H618  1  0.743700  0.660600  0.189500  1
  H  H619  1  0.756300  0.660600  0.689500  1
  H  H620  1  0.256300  0.339400  0.810500  1
  H  H621  1  0.369100  0.297800  0.303700  1
  H  H622  1  0.869100  0.702200  0.196300  1
  H  H623  1  0.630900  0.702200  0.696300  1
  H  H624  1  0.130900  0.297800  0.803700  1
  H  H625  1  0.369200  0.219800  0.281500  1
  H  H626  1  0.869200  0.780200  0.218500  1
  H  H627  1  0.630800  0.780200  0.718500  1
  H  H628  1  0.130800  0.219800  0.781500  1
  H  H629  1  0.295300  0.150900  0.255800  1
  H  H630  1  0.795300  0.849100  0.244200  1
  H  H631  1  0.704700  0.849100  0.744200  1
  H  H632  1  0.204700  0.150900  0.755800  1
  H  H633  1  0.168500  0.332300  0.391500  1
  H  H634  1  0.668500  0.667700  0.108500  1
  H  H635  1  0.831500  0.667700  0.608500  1
  H  H636  1  0.331500  0.332300  0.891500  1
  H  H637  1  0.036000  0.367400  0.395100  1
  H  H638  1  0.536000  0.632600  0.104900  1
  H  H639  1  0.964000  0.632600  0.604900  1
  H  H640  1  0.464000  0.367400  0.895100  1
  H  H641  1  0.922900  0.326200  0.374100  1
  H  H642  1  0.422900  0.673800  0.125900  1
  H  H643  1  0.077100  0.673800  0.625900  1
  H  H644  1  0.577100  0.326200  0.874100  1
  H  H645  1  0.860400  0.256400  0.344300  1
  H  H646  1  0.360400  0.743600  0.155700  1
  H  H647  1  0.139600  0.743600  0.655700  1
  H  H648  1  0.639600  0.256400  0.844300  1
  H  H649  1  0.202400  0.112700  0.327700  1
  H  H650  1  0.702400  0.887300  0.172300  1
  H  H651  1  0.797600  0.887300  0.672300  1
  H  H652  1  0.297600  0.112700  0.827700  1
  H  H653  1  0.086000  0.071900  0.307300  1
  H  H654  1  0.586000  0.928100  0.192700  1
  H  H655  1  0.914000  0.928100  0.692700  1
  H  H656  1  0.414000  0.071900  0.807300  1
  H  H657  1  0.958200  0.110800  0.309600  1
  H  H658  1  0.458200  0.889200  0.190400  1
  H  H659  1  0.041800  0.889200  0.690400  1
  H  H660  1  0.541800  0.110800  0.809600  1
  H  H661  1  0.871800  0.181000  0.323000  1
  H  H662  1  0.371800  0.819000  0.177000  1
  H  H663  1  0.128200  0.819000  0.677000  1
  H  H664  1  0.628200  0.181000  0.823000  1
  H  H665  1  0.244700  0.178700  0.177300  1
  H  H666  1  0.744700  0.821300  0.322700  1
  H  H667  1  0.755300  0.821300  0.822700  1
  H  H668  1  0.255300  0.178700  0.677300  1
  H  H669  1  0.361700  0.221800  0.193100  1
  H  H670  1  0.861700  0.778200  0.306900  1
  H  H671  1  0.638300  0.778200  0.806900  1
  H  H672  1  0.138300  0.221800  0.693100  1
  H  H673  1  0.343100  0.299700  0.217800  1
  H  H674  1  0.843100  0.700300  0.282200  1
  H  H675  1  0.656900  0.700300  0.782200  1
  H  H676  1  0.156900  0.299700  0.717800  1
  H  H677  1  0.256700  0.365300  0.232000  1
  H  H678  1  0.756700  0.634700  0.268000  1
  H  H679  1  0.743300  0.634700  0.768000  1
  H  H680  1  0.243300  0.365300  0.732000  1
  H  H681  1  0.874700  0.281000  0.174300  1
  H  H682  1  0.374700  0.719000  0.325700  1
  H  H683  1  0.125300  0.719000  0.825700  1
  H  H684  1  0.625300  0.281000  0.674300  1
  H  H685  1  0.869600  0.361800  0.189800  1
  H  H686  1  0.369600  0.638200  0.310200  1
  H  H687  1  0.130400  0.638200  0.810200  1
  H  H688  1  0.630400  0.361800  0.689800  1
  H  H689  1  0.983900  0.400200  0.213700  1
  H  H690  1  0.483900  0.599800  0.286300  1
  H  H691  1  0.016100  0.599800  0.786300  1
  H  H692  1  0.516100  0.400200  0.713700  1
  H  H693  1  0.131900  0.403000  0.228100  1
  H  H694  1  0.631900  0.597000  0.271900  1
  H  H695  1  0.868100  0.597000  0.771900  1
  H  H696  1  0.368100  0.403000  0.728100  1
  H  H697  1  0.245800  0.283800  0.119700  1
  H  H698  1  0.745800  0.716200  0.380300  1
  H  H699  1  0.754200  0.716200  0.880300  1
  H  H700  1  0.254200  0.283800  0.619700  1
  H  H701  1  0.037000  0.225100  0.093600  1
  H  H702  1  0.537000  0.774900  0.406400  1
  H  H703  1  0.963000  0.774900  0.906400  1
  H  H704  1  0.463000  0.225100  0.593600  1
  H  H705  1  0.043700  0.358000  0.122700  1
  H  H706  1  0.543700  0.642000  0.377300  1
  H  H707  1  0.956300  0.642000  0.877300  1
  H  H708  1  0.456300  0.358000  0.622700  1
  H  H709  1  0.316100  0.003800  0.983500  1
  H  H710  1  0.816100  0.996200  0.516500  1
  H  H711  1  0.683900  0.996200  0.016500  1
  H  H712  1  0.183900  0.003800  0.483500  1
  H  H713  1  0.407700  0.014600  0.996000  1
  H  H714  1  0.907700  0.985400  0.504000  1
  H  H715  1  0.592300  0.985400  0.004000  1
  H  H716  1  0.092300  0.014600  0.496000  1
  H  H717  1  0.393100  0.094900  0.988100  1
  H  H718  1  0.893100  0.905100  0.511900  1
  H  H719  1  0.606900  0.905100  0.011900  1
  H  H720  1  0.106900  0.094900  0.488100  1
  H  H721  1  0.438300  0.081800  0.020400  1
  H  H722  1  0.938300  0.918200  0.479600  1
  H  H723  1  0.561700  0.918200  0.979600  1
  H  H724  1  0.061700  0.081800  0.520400  1
  H  H725  1  0.368500  0.121800  0.022000  1
  H  H726  1  0.868500  0.878200  0.478000  1
  H  H727  1  0.631500  0.878200  0.978000  1
  H  H728  1  0.131500  0.121800  0.522000  1
  H  H729  1  0.259000  0.059400  0.975700  1
  H  H730  1  0.759000  0.940600  0.524300  1
  H  H731  1  0.741000  0.940600  0.024300  1
  H  H732  1  0.241000  0.059400  0.475700  1
  H  H733  1  0.215900  0.085900  0.006700  1
  H  H734  1  0.715900  0.914100  0.493300  1
  H  H735  1  0.784100  0.914100  0.993300  1
  H  H736  1  0.284100  0.085900  0.506700  1
  H  H737  1  0.216400  0.029700  0.002200  1
  H  H738  1  0.716400  0.970300  0.497800  1
  H  H739  1  0.783600  0.970300  0.997800  1
  H  H740  1  0.283600  0.029700  0.502200  1
  H  H741  1  0.398600  0.954700  0.013500  1
  H  H742  1  0.898600  0.045300  0.486500  1
  H  H743  1  0.601400  0.045300  0.986500  1
  H  H744  1  0.101400  0.954700  0.513500  1
  H  H745  1  0.299500  0.954100  0.011500  1
  H  H746  1  0.799500  0.045900  0.488500  1
  H  H747  1  0.700500  0.045900  0.988500  1
  H  H748  1  0.200500  0.954100  0.511500  1
  H  H749  1  0.437100  0.938300  0.070500  1
  H  H750  1  0.937100  0.061700  0.429500  1
  H  H751  1  0.562900  0.061700  0.929500  1
  H  H752  1  0.062900  0.938300  0.570500  1
  H  H753  1  0.409300  0.978500  0.097400  1
  H  H754  1  0.909300  0.021500  0.402600  1
  H  H755  1  0.590700  0.021500  0.902600  1
  H  H756  1  0.090700  0.978500  0.597400  1
  H  H757  1  0.466700  0.991400  0.068000  1
  H  H758  1  0.966700  0.008600  0.432000  1
  H  H759  1  0.533300  0.008600  0.932000  1
  H  H760  1  0.033300  0.991400  0.568000  1
  H  H761  1  0.300800  0.917200  0.059600  1
  H  H762  1  0.800800  0.082800  0.440400  1
  H  H763  1  0.699200  0.082800  0.940400  1
  H  H764  1  0.199200  0.917200  0.559600  1
  H  H765  1  0.229700  0.955300  0.054900  1
  H  H766  1  0.729700  0.044700  0.445100  1
  H  H767  1  0.770300  0.044700  0.945100  1
  H  H768  1  0.270300  0.955300  0.554900  1
  H  H769  1  0.276900  0.954800  0.088700  1
  H  H770  1  0.776900  0.045200  0.411300  1
  H  H771  1  0.723100  0.045200  0.911300  1
  H  H772  1  0.223100  0.954800  0.588700  1
  H  H773  1  0.353100  0.881300  0.428100  1
  H  H774  1  0.853100  0.118700  0.071900  1
  H  H775  1  0.646900  0.118700  0.571900  1
  H  H776  1  0.146900  0.881300  0.928100  1
  H  H777  1  0.289000  0.880900  0.398700  1
  H  H778  1  0.789000  0.119100  0.101300  1
  H  H779  1  0.711000  0.119100  0.601300  1
  H  H780  1  0.211000  0.880900  0.898700  1
  H  H781  1  0.346400  0.956600  0.463600  1
  H  H782  1  0.846400  0.043400  0.036400  1
  H  H783  1  0.653600  0.043400  0.536400  1
  H  H784  1  0.153600  0.956600  0.963600  1
  H  H785  1  0.333100  0.003700  0.445800  1
  H  H786  1  0.833100  0.996300  0.054200  1
  H  H787  1  0.666900  0.996300  0.554200  1
  H  H788  1  0.166900  0.003700  0.945800  1
  H  H789  1  0.415000  0.972700  0.438900  1
  H  H790  1  0.915000  0.027300  0.061100  1
  H  H791  1  0.585000  0.027300  0.561100  1
  H  H792  1  0.085000  0.972700  0.938900  1
  H  H793  1  0.227300  0.927000  0.453100  1
  H  H794  1  0.727300  0.073000  0.046900  1
  H  H795  1  0.772700  0.073000  0.546900  1
  H  H796  1  0.272700  0.927000  0.953100  1
  H  H797  1  0.186400  0.930200  0.418300  1
  H  H798  1  0.686400  0.069800  0.081700  1
  H  H799  1  0.813600  0.069800  0.581700  1
  H  H800  1  0.313600  0.930200  0.918300  1
  H  H801  1  0.207200  0.977200  0.440400  1
  H  H802  1  0.707200  0.022800  0.059600  1
  H  H803  1  0.792800  0.022800  0.559600  1
  H  H804  1  0.292800  0.977200  0.940400  1
  H  H805  1  0.412400  0.860200  0.382800  1
  H  H806  1  0.912400  0.139800  0.117200  1
  H  H807  1  0.587600  0.139800  0.617200  1
  H  H808  1  0.087600  0.860200  0.882800  1
  H  H809  1  0.449000  0.909500  0.398000  1
  H  H810  1  0.949000  0.090500  0.102000  1
  H  H811  1  0.551000  0.090500  0.602000  1
  H  H812  1  0.051000  0.909500  0.898000  1
  H  H813  1  0.461600  0.900800  0.326800  1
  H  H814  1  0.961600  0.099200  0.173200  1
  H  H815  1  0.538400  0.099200  0.673200  1
  H  H816  1  0.038400  0.900800  0.826800  1
  H  H817  1  0.481100  0.946400  0.350500  1
  H  H818  1  0.981100  0.053600  0.149500  1
  H  H819  1  0.518900  0.053600  0.649500  1
  H  H820  1  0.018900  0.946400  0.850500  1
  H  H821  1  0.419500  0.950100  0.320600  1
  H  H822  1  0.919500  0.049900  0.179400  1
  H  H823  1  0.580500  0.049900  0.679400  1
  H  H824  1  0.080500  0.950100  0.820600  1
  H  H825  1  0.342400  0.857500  0.331200  1
  H  H826  1  0.842400  0.142500  0.168800  1
  H  H827  1  0.657600  0.142500  0.668800  1
  H  H828  1  0.157600  0.857500  0.831200  1
  H  H829  1  0.296300  0.901800  0.318100  1
  H  H830  1  0.796300  0.098200  0.181900  1
  H  H831  1  0.703700  0.098200  0.681900  1
  H  H832  1  0.203700  0.901800  0.818100  1
  H  H833  1  0.263300  0.879900  0.349900  1
  H  H834  1  0.763300  0.120100  0.150100  1
  H  H835  1  0.736700  0.120100  0.650100  1
  H  H836  1  0.236700  0.879900  0.849900  1
  H  H837  1  0.238800  0.154400  0.163400  1
  H  H838  1  0.738800  0.845600  0.336600  1
  H  H839  1  0.761200  0.845600  0.836600  1
  H  H840  1  0.261200  0.154400  0.663400  1
  H  H841  1  0.364300  0.184200  0.182600  1
  H  H842  1  0.864300  0.815800  0.317400  1
  H  H843  1  0.635700  0.815800  0.817400  1
  H  H844  1  0.135700  0.184200  0.682600  1
  H  H845  1  0.373300  0.262900  0.205800  1
  H  H846  1  0.873300  0.737100  0.294200  1
  H  H847  1  0.626700  0.737100  0.794200  1
  H  H848  1  0.126700  0.262900  0.705800  1
  H  H849  1  0.306500  0.331500  0.226600  1
  H  H850  1  0.806500  0.668500  0.273400  1
  H  H851  1  0.693500  0.668500  0.773400  1
  H  H852  1  0.193500  0.331500  0.726600  1
  H  H853  1  0.895900  0.284400  0.185700  1
  H  H854  1  0.395900  0.715600  0.314300  1
  H  H855  1  0.104100  0.715600  0.814300  1
  H  H856  1  0.604100  0.284400  0.685700  1
  H  H857  1  0.915300  0.364000  0.203300  1
  H  H858  1  0.415300  0.636000  0.296700  1
  H  H859  1  0.084700  0.636000  0.796700  1
  H  H860  1  0.584700  0.364000  0.703300  1
  H  H861  1  0.042900  0.390100  0.223500  1
  H  H862  1  0.542900  0.609900  0.276500  1
  H  H863  1  0.957100  0.609900  0.776500  1
  H  H864  1  0.457100  0.390100  0.723500  1
  H  H865  1  0.197100  0.383800  0.223700  1
  H  H866  1  0.697100  0.616200  0.276300  1
  H  H867  1  0.802900  0.616200  0.776300  1
  H  H868  1  0.302900  0.383800  0.723700  1
  Pd  Pd869  1  0.284240  0.423650  0.491150  1
  Pd  Pd870  1  0.784240  0.576350  0.008850  1
  Pd  Pd871  1  0.715760  0.576350  0.508850  1
  Pd  Pd872  1  0.215760  0.423650  0.991150  1
  Pd  Pd873  1  0.333450  0.982180  0.375050  1
  Pd  Pd874  1  0.833450  0.017820  0.124950  1
  Pd  Pd875  1  0.666550  0.017820  0.624950  1
  Pd  Pd876  1  0.166550  0.982180  0.875050  1
  Pd  Pd877  1  0.627260  0.220940  0.389410  1
  Pd  Pd878  1  0.127260  0.779060  0.110590  1
  Pd  Pd879  1  0.372740  0.779060  0.610590  1
  Pd  Pd880  1  0.872740  0.220940  0.889410  1
  Pd  Pd881  1  0.340500  0.502430  0.183180  1
  Pd  Pd882  1  0.840500  0.497570  0.316820  1
  Pd  Pd883  1  0.659500  0.497570  0.816820  1
  Pd  Pd884  1  0.159500  0.502430  0.683180  1
  Pd  Pd885  1  0.316390  0.056660  0.065550  1
  Pd  Pd886  1  0.816390  0.943340  0.434450  1
  Pd  Pd887  1  0.683610  0.943340  0.934450  1
  Pd  Pd888  1  0.183610  0.056660  0.565550  1
  Pd  Pd889  1  0.645850  0.297010  0.081850  1
  Pd  Pd890  1  0.145850  0.702990  0.418150  1
  Pd  Pd891  1  0.354150  0.702990  0.918150  1
  Pd  Pd892  1  0.854150  0.297010  0.581850  1
  C  C893  1  0.281400  0.320700  0.472900  1
  C  C894  1  0.781400  0.679300  0.027100  1
  C  C895  1  0.718600  0.679300  0.527100  1
  C  C896  1  0.218600  0.320700  0.972900  1
  C  C897  1  0.246200  0.278000  0.461600  1
  C  C898  1  0.746200  0.722000  0.038400  1
  C  C899  1  0.753800  0.722000  0.538400  1
  C  C900  1  0.253800  0.278000  0.961600  1
  C  C901  1  0.161000  0.276600  0.458100  1
  C  C902  1  0.661000  0.723400  0.041900  1
  C  C903  1  0.839000  0.723400  0.541900  1
  C  C904  1  0.339000  0.276600  0.958100  1
  C  C905  1  0.113800  0.316200  0.467400  1
  C  C906  1  0.613800  0.683800  0.032600  1
  C  C907  1  0.886200  0.683800  0.532600  1
  C  C908  1  0.386200  0.316200  0.967400  1
  C  C909  1  0.153300  0.355700  0.478700  1
  C  C910  1  0.653300  0.644300  0.021300  1
  C  C911  1  0.846700  0.644300  0.521300  1
  C  C912  1  0.346700  0.355700  0.978700  1
  C  C913  1  0.183100  0.037200  0.390300  1
  C  C914  1  0.683100  0.962800  0.109700  1
  C  C915  1  0.816900  0.962800  0.609700  1
  C  C916  1  0.316900  0.037200  0.890300  1
  C  C917  1  0.134200  0.074700  0.398700  1
  C  C918  1  0.634200  0.925300  0.101300  1
  C  C919  1  0.865800  0.925300  0.601300  1
  C  C920  1  0.365800  0.074700  0.898700  1
  C  C921  1  0.172000  0.116800  0.412400  1
  C  C922  1  0.672000  0.883200  0.087600  1
  C  C923  1  0.828000  0.883200  0.587600  1
  C  C924  1  0.328000  0.116800  0.912400  1
  C  C925  1  0.256100  0.115600  0.416200  1
  C  C926  1  0.756100  0.884400  0.083800  1
  C  C927  1  0.743900  0.884400  0.583800  1
  C  C928  1  0.243900  0.115600  0.916200  1
  C  C929  1  0.301100  0.075700  0.405500  1
  C  C930  1  0.801100  0.924300  0.094500  1
  C  C931  1  0.698900  0.924300  0.594500  1
  C  C932  1  0.198900  0.075700  0.905500  1
  C  C933  1  0.788700  0.247700  0.417000  1
  C  C934  1  0.288700  0.752300  0.083000  1
  C  C935  1  0.211300  0.752300  0.583000  1
  C  C936  1  0.711300  0.247700  0.917000  1
  C  C937  1  0.872400  0.243100  0.425600  1
  C  C938  1  0.372400  0.756900  0.074400  1
  C  C939  1  0.127600  0.756900  0.574400  1
  C  C940  1  0.627600  0.243100  0.925600  1
  C  C941  1  0.910600  0.200900  0.419600  1
  C  C942  1  0.410600  0.799100  0.080400  1
  C  C943  1  0.089400  0.799100  0.580400  1
  C  C944  1  0.589400  0.200900  0.919600  1
  C  C945  1  0.868900  0.162700  0.404600  1
  C  C946  1  0.368900  0.837300  0.095400  1
  C  C947  1  0.131100  0.837300  0.595400  1
  C  C948  1  0.631100  0.162700  0.904600  1
  C  C949  1  0.785100  0.169900  0.397300  1
  C  C950  1  0.285100  0.830100  0.102700  1
  C  C951  1  0.214900  0.830100  0.602700  1
  C  C952  1  0.714900  0.169900  0.897300  1
  C  C953  1  0.118600  0.232500  0.444800  1
  C  C954  1  0.618600  0.767500  0.055200  1
  C  C955  1  0.881400  0.767500  0.555200  1
  C  C956  1  0.381400  0.232500  0.944800  1
  C  C957  1  0.122300  0.158000  0.422400  1
  C  C958  1  0.622300  0.842000  0.077600  1
  C  C959  1  0.877700  0.842000  0.577600  1
  C  C960  1  0.377700  0.158000  0.922400  1
  C  C961  1  0.003100  0.196000  0.426500  1
  C  C962  1  0.503100  0.804000  0.073500  1
  C  C963  1  0.996900  0.804000  0.573500  1
  C  C964  1  0.496900  0.196000  0.926500  1
  C  C965  1  0.322400  0.403800  0.157500  1
  C  C966  1  0.822400  0.596200  0.342500  1
  C  C967  1  0.677600  0.596200  0.842500  1
  C  C968  1  0.177600  0.403800  0.657500  1
  C  C969  1  0.280500  0.364400  0.144000  1
  C  C970  1  0.780500  0.635600  0.356000  1
  C  C971  1  0.719500  0.635600  0.856000  1
  C  C972  1  0.219500  0.364400  0.644000  1
  C  C973  1  0.196000  0.366700  0.138200  1
  C  C974  1  0.696000  0.633300  0.361800  1
  C  C975  1  0.804000  0.633300  0.861800  1
  C  C976  1  0.304000  0.366700  0.638200  1
  C  C977  1  0.153400  0.408600  0.146700  1
  C  C978  1  0.653400  0.591400  0.353300  1
  C  C979  1  0.846600  0.591400  0.853300  1
  C  C980  1  0.346600  0.408600  0.646700  1
  C  C981  1  0.198800  0.446700  0.159700  1
  C  C982  1  0.698800  0.553300  0.340300  1
  C  C983  1  0.801200  0.553300  0.840300  1
  C  C984  1  0.301200  0.446700  0.659700  1
  C  C985  1  0.183600  0.125800  0.071400  1
  C  C986  1  0.683600  0.874200  0.428600  1
  C  C987  1  0.816400  0.874200  0.928600  1
  C  C988  1  0.316400  0.125800  0.571400  1
  C  C989  1  0.142700  0.167200  0.080700  1
  C  C990  1  0.642700  0.832800  0.419300  1
  C  C991  1  0.857300  0.832800  0.919300  1
  C  C992  1  0.357300  0.167200  0.580700  1
  C  C993  1  0.189100  0.204600  0.094200  1
  C  C994  1  0.689100  0.795400  0.405800  1
  C  C995  1  0.810900  0.795400  0.905800  1
  C  C996  1  0.310900  0.204600  0.594200  1
  C  C997  1  0.274400  0.199300  0.098400  1
  C  C998  1  0.774400  0.800700  0.401600  1
  C  C999  1  0.725600  0.800700  0.901600  1
  C  C1000  1  0.225600  0.199300  0.598400  1
  C  C1001  1  0.310100  0.155600  0.087800  1
  C  C1002  1  0.810100  0.844400  0.412200  1
  C  C1003  1  0.689900  0.844400  0.912200  1
  C  C1004  1  0.189900  0.155600  0.587800  1
  C  C1005  1  0.808800  0.334300  0.100400  1
  C  C1006  1  0.308800  0.665700  0.399600  1
  C  C1007  1  0.191200  0.665700  0.899600  1
  C  C1008  1  0.691200  0.334300  0.600400  1
  C  C1009  1  0.894400  0.334600  0.107800  1
  C  C1010  1  0.394400  0.665400  0.392200  1
  C  C1011  1  0.105600  0.665400  0.892200  1
  C  C1012  1  0.605600  0.334600  0.607800  1
  C  C1013  1  0.939200  0.295100  0.101300  1
  C  C1014  1  0.439200  0.704900  0.398700  1
  C  C1015  1  0.060800  0.704900  0.898700  1
  C  C1016  1  0.560800  0.295100  0.601300  1
  C  C1017  1  0.895300  0.254200  0.090300  1
  C  C1018  1  0.395300  0.745800  0.409700  1
  C  C1019  1  0.104700  0.745800  0.909700  1
  C  C1020  1  0.604700  0.254200  0.590300  1
  C  C1021  1  0.811800  0.257400  0.083800  1
  C  C1022  1  0.311800  0.742600  0.416200  1
  C  C1023  1  0.188200  0.742600  0.916200  1
  C  C1024  1  0.688200  0.257400  0.583800  1
  C  C1025  1  0.150200  0.325000  0.123700  1
  C  C1026  1  0.650200  0.675000  0.376300  1
  C  C1027  1  0.849800  0.675000  0.876300  1
  C  C1028  1  0.349800  0.325000  0.623700  1
  C  C1029  1  0.146200  0.249000  0.104000  1
  C  C1030  1  0.646200  0.751000  0.396000  1
  C  C1031  1  0.853800  0.751000  0.896000  1
  C  C1032  1  0.353800  0.249000  0.604000  1
  C  C1033  1  0.028400  0.291500  0.107400  1
  C  C1034  1  0.528400  0.708500  0.392600  1
  C  C1035  1  0.971600  0.708500  0.892600  1
  C  C1036  1  0.471600  0.291500  0.607400  1
  C  C1037  1  0.205500  0.444600  0.429600  1
  C  C1038  1  0.705500  0.555400  0.070400  1
  C  C1039  1  0.794500  0.555400  0.570400  1
  C  C1040  1  0.294500  0.444600  0.929600  1
  C  C1041  1  0.199900  0.447400  0.396900  1
  C  C1042  1  0.699900  0.552600  0.103100  1
  C  C1043  1  0.800100  0.552600  0.603100  1
  C  C1044  1  0.300100  0.447400  0.896900  1
  C  C1045  1  0.260900  0.434700  0.377600  1
  C  C1046  1  0.760900  0.565300  0.122400  1
  C  C1047  1  0.739100  0.565300  0.622400  1
  C  C1048  1  0.239100  0.434700  0.877600  1
  C  C1049  1  0.332300  0.415700  0.389500  1
  C  C1050  1  0.832300  0.584300  0.110500  1
  C  C1051  1  0.667700  0.584300  0.610500  1
  C  C1052  1  0.167700  0.415700  0.889500  1
  C  C1053  1  0.340500  0.412100  0.424100  1
  C  C1054  1  0.840500  0.587900  0.075900  1
  C  C1055  1  0.659500  0.587900  0.575900  1
  C  C1056  1  0.159500  0.412100  0.924100  1
  C  C1057  1  0.256000  0.441800  0.342000  1
  C  C1058  1  0.756000  0.558200  0.158000  1
  C  C1059  1  0.744000  0.558200  0.658000  1
  C  C1060  1  0.244000  0.441800  0.842000  1
  C  C1061  1  0.383800  0.451200  0.239000  1
  C  C1062  1  0.883800  0.548800  0.261000  1
  C  C1063  1  0.616200  0.548800  0.761000  1
  C  C1064  1  0.116200  0.451200  0.739000  1
  C  C1065  1  0.376600  0.435300  0.269400  1
  C  C1066  1  0.876600  0.564700  0.230600  1
  C  C1067  1  0.623400  0.564700  0.730600  1
  C  C1068  1  0.123400  0.435300  0.769400  1
  C  C1069  1  0.307000  0.446200  0.287900  1
  C  C1070  1  0.807000  0.553800  0.212100  1
  C  C1071  1  0.693000  0.553800  0.712100  1
  C  C1072  1  0.193000  0.446200  0.787900  1
  C  C1073  1  0.246000  0.471400  0.275000  1
  C  C1074  1  0.746000  0.528600  0.225000  1
  C  C1075  1  0.754000  0.528600  0.725000  1
  C  C1076  1  0.254000  0.471400  0.775000  1
  C  C1077  1  0.255100  0.487100  0.244100  1
  C  C1078  1  0.755100  0.512900  0.255900  1
  C  C1079  1  0.744900  0.512900  0.755900  1
  C  C1080  1  0.244900  0.487100  0.744100  1
  C  C1081  1  0.309700  0.433100  0.321900  1
  C  C1082  1  0.809700  0.566900  0.178100  1
  C  C1083  1  0.690300  0.566900  0.678100  1
  C  C1084  1  0.190300  0.433100  0.821900  1
  C  C1085  1  0.380700  0.040000  0.321700  1
  C  C1086  1  0.880700  0.960000  0.178300  1
  C  C1087  1  0.619300  0.960000  0.678300  1
  C  C1088  1  0.119300  0.040000  0.821700  1
  C  C1089  1  0.376900  0.055000  0.291500  1
  C  C1090  1  0.876900  0.945000  0.208500  1
  C  C1091  1  0.623100  0.945000  0.708500  1
  C  C1092  1  0.123100  0.055000  0.791500  1
  C  C1093  1  0.314000  0.038400  0.270500  1
  C  C1094  1  0.814000  0.961600  0.229500  1
  C  C1095  1  0.686000  0.961600  0.729500  1
  C  C1096  1  0.186000  0.038400  0.770500  1
  C  C1097  1  0.252400  0.010700  0.281000  1
  C  C1098  1  0.752400  0.989300  0.219000  1
  C  C1099  1  0.747600  0.989300  0.719000  1
  C  C1100  1  0.247600  0.010700  0.781000  1
  C  C1101  1  0.260500  0.995900  0.311200  1
  C  C1102  1  0.760500  0.004100  0.188800  1
  C  C1103  1  0.739500  0.004100  0.688800  1
  C  C1104  1  0.239500  0.995900  0.811200  1
  C  C1105  1  0.233400  0.030700  0.125200  1
  C  C1106  1  0.733400  0.969300  0.374800  1
  C  C1107  1  0.766600  0.969300  0.874800  1
  C  C1108  1  0.266600  0.030700  0.625200  1
  C  C1109  1  0.222900  0.028200  0.157600  1
  C  C1110  1  0.722900  0.971800  0.342400  1
  C  C1111  1  0.777100  0.971800  0.842400  1
  C  C1112  1  0.277100  0.028200  0.657600  1
  C  C1113  1  0.323400  0.051800  0.236200  1
  C  C1114  1  0.823400  0.948200  0.263800  1
  C  C1115  1  0.676600  0.948200  0.763800  1
  C  C1116  1  0.176600  0.051800  0.736200  1
  C  C1117  1  0.280400  0.044400  0.178900  1
  C  C1118  1  0.780400  0.955600  0.321100  1
  C  C1119  1  0.719600  0.955600  0.821100  1
  C  C1120  1  0.219600  0.044400  0.678900  1
  C  C1121  1  0.351300  0.064700  0.166600  1
  C  C1122  1  0.851300  0.935300  0.333400  1
  C  C1123  1  0.648700  0.935300  0.833400  1
  C  C1124  1  0.148700  0.064700  0.666600  1
  C  C1125  1  0.359800  0.065800  0.133900  1
  C  C1126  1  0.859800  0.934200  0.366100  1
  C  C1127  1  0.640200  0.934200  0.866100  1
  C  C1128  1  0.140200  0.065800  0.633900  1
  C  C1129  1  0.270200  0.036800  0.213000  1
  C  C1130  1  0.770200  0.963200  0.287000  1
  C  C1131  1  0.729800  0.963200  0.787000  1
  C  C1132  1  0.229800  0.036800  0.713000  1
  C  C1133  1  0.683600  0.203900  0.322200  1
  C  C1134  1  0.183600  0.796100  0.177800  1
  C  C1135  1  0.316400  0.796100  0.677800  1
  C  C1136  1  0.816400  0.203900  0.822200  1
  C  C1137  1  0.702500  0.212400  0.290100  1
  C  C1138  1  0.202500  0.787600  0.209900  1
  C  C1139  1  0.297500  0.787600  0.709900  1
  C  C1140  1  0.797500  0.212400  0.790100  1
  C  C1141  1  0.702200  0.259600  0.283300  1
  C  C1142  1  0.202200  0.740400  0.216700  1
  C  C1143  1  0.297800  0.740400  0.716700  1
  C  C1144  1  0.797800  0.259600  0.783300  1
  C  C1145  1  0.693400  0.292700  0.308200  1
  C  C1146  1  0.193400  0.707300  0.191800  1
  C  C1147  1  0.306600  0.707300  0.691800  1
  C  C1148  1  0.806600  0.292700  0.808200  1
  C  C1149  1  0.677000  0.280700  0.338600  1
  C  C1150  1  0.177000  0.719300  0.161400  1
  C  C1151  1  0.323000  0.719300  0.661400  1
  C  C1152  1  0.823000  0.280700  0.838600  1
  C  C1153  1  0.703500  0.273300  0.250100  1
  C  C1154  1  0.203500  0.726700  0.249900  1
  C  C1155  1  0.296500  0.726700  0.749900  1
  C  C1156  1  0.796500  0.273300  0.750100  1
  C  C1157  1  0.653800  0.317500  0.151900  1
  C  C1158  1  0.153800  0.682500  0.348100  1
  C  C1159  1  0.346200  0.682500  0.848100  1
  C  C1160  1  0.846200  0.317500  0.651900  1
  C  C1161  1  0.674300  0.308600  0.185200  1
  C  C1162  1  0.174300  0.691400  0.314800  1
  C  C1163  1  0.325700  0.691400  0.814800  1
  C  C1164  1  0.825700  0.308600  0.685200  1
  C  C1165  1  0.676100  0.260100  0.191600  1
  C  C1166  1  0.176100  0.739900  0.308400  1
  C  C1167  1  0.323900  0.739900  0.808400  1
  C  C1168  1  0.823900  0.260100  0.691600  1
  C  C1169  1  0.661800  0.231200  0.168400  1
  C  C1170  1  0.161800  0.768800  0.331600  1
  C  C1171  1  0.338200  0.768800  0.831600  1
  C  C1172  1  0.838200  0.231200  0.668400  1
  C  C1173  1  0.648500  0.238100  0.137500  1
  C  C1174  1  0.148500  0.761900  0.362500  1
  C  C1175  1  0.351500  0.761900  0.862500  1
  C  C1176  1  0.851500  0.238100  0.637500  1
  C  C1177  1  0.688900  0.248500  0.225800  1
  C  C1178  1  0.188900  0.751500  0.274200  1
  C  C1179  1  0.311100  0.751500  0.774200  1
  C  C1180  1  0.811100  0.248500  0.725800  1
  C  C1181  1  0.300700  0.468000  0.553600  1
  C  C1182  1  0.800700  0.532000  0.946400  1
  C  C1183  1  0.699300  0.532000  0.446400  1
  C  C1184  1  0.199300  0.468000  0.053600  1
  C  C1185  1  0.220000  0.397200  0.554000  1
  C  C1186  1  0.720000  0.602800  0.946000  1
  C  C1187  1  0.780000  0.602800  0.446000  1
  C  C1188  1  0.280000  0.397200  0.054000  1
  C  C1189  1  0.368500  0.391600  0.547000  1
  C  C1190  1  0.868500  0.608400  0.953000  1
  C  C1191  1  0.631500  0.608400  0.453000  1
  C  C1192  1  0.131500  0.391600  0.047000  1
  C  C1193  1  0.358500  0.494500  0.533600  1
  C  C1194  1  0.858500  0.505500  0.966400  1
  C  C1195  1  0.641500  0.505500  0.466400  1
  C  C1196  1  0.141500  0.494500  0.033600  1
  C  C1197  1  0.252100  0.524000  0.497900  1
  C  C1198  1  0.752100  0.476000  0.002100  1
  C  C1199  1  0.747900  0.476000  0.502100  1
  C  C1200  1  0.247900  0.524000  0.997900  1
  C  C1201  1  0.393100  0.505700  0.478300  1
  C  C1202  1  0.893100  0.494300  0.021700  1
  C  C1203  1  0.606900  0.494300  0.521700  1
  C  C1204  1  0.106900  0.505700  0.978300  1
  C  C1205  1  0.491000  0.226100  0.434300  1
  C  C1206  1  0.991000  0.773900  0.065700  1
  C  C1207  1  0.509000  0.773900  0.565700  1
  C  C1208  1  0.009000  0.226100  0.934300  1
  C  C1209  1  0.587700  0.160900  0.439600  1
  C  C1210  1  0.087700  0.839100  0.060400  1
  C  C1211  1  0.412300  0.839100  0.560400  1
  C  C1212  1  0.912300  0.160900  0.939600  1
  C  C1213  1  0.620600  0.236800  0.460700  1
  C  C1214  1  0.120600  0.763200  0.039300  1
  C  C1215  1  0.379400  0.763200  0.539300  1
  C  C1216  1  0.879400  0.236800  0.960700  1
  C  C1217  1  0.455200  0.210400  0.402300  1
  C  C1218  1  0.955200  0.789600  0.097700  1
  C  C1219  1  0.544800  0.789600  0.597700  1
  C  C1220  1  0.044800  0.210400  0.902300  1
  C  C1221  1  0.486100  0.205400  0.344800  1
  C  C1222  1  0.986100  0.794600  0.155200  1
  C  C1223  1  0.513900  0.794600  0.655200  1
  C  C1224  1  0.013900  0.205400  0.844800  1
  C  C1225  1  0.485800  0.281000  0.372200  1
  C  C1226  1  0.985800  0.719000  0.127800  1
  C  C1227  1  0.514200  0.719000  0.627800  1
  C  C1228  1  0.014200  0.281000  0.872200  1
  C  C1229  1  0.398500  0.595200  0.174800  1
  C  C1230  1  0.898500  0.404800  0.325200  1
  C  C1231  1  0.601500  0.404800  0.825200  1
  C  C1232  1  0.101500  0.595200  0.674800  1
  C  C1233  1  0.349600  0.587800  0.228900  1
  C  C1234  1  0.849600  0.412200  0.271100  1
  C  C1235  1  0.650400  0.412200  0.771100  1
  C  C1236  1  0.150400  0.587800  0.728900  1
  C  C1237  1  0.481200  0.553100  0.212300  1
  C  C1238  1  0.981200  0.446900  0.287700  1
  C  C1239  1  0.518800  0.446900  0.787700  1
  C  C1240  1  0.018800  0.553100  0.712300  1
  C  C1241  1  0.417400  0.566400  0.144500  1
  C  C1242  1  0.917400  0.433600  0.355500  1
  C  C1243  1  0.582600  0.433600  0.855500  1
  C  C1244  1  0.082600  0.566400  0.644500  1
  C  C1245  1  0.279700  0.544400  0.126400  1
  C  C1246  1  0.779700  0.455600  0.373600  1
  C  C1247  1  0.720300  0.455600  0.873600  1
  C  C1248  1  0.220300  0.544400  0.626400  1
  C  C1249  1  0.394200  0.491700  0.114500  1
  C  C1250  1  0.894200  0.508300  0.385500  1
  C  C1251  1  0.605800  0.508300  0.885500  1
  C  C1252  1  0.105800  0.491700  0.614500  1
  C  C1253  1  0.397500  0.033300  0.006800  1
  C  C1254  1  0.897500  0.966700  0.493200  1
  C  C1255  1  0.602500  0.966700  0.993200  1
  C  C1256  1  0.102500  0.033300  0.506800  1
  C  C1257  1  0.375000  0.119000  0.015400  1
  C  C1258  1  0.875000  0.881000  0.484600  1
  C  C1259  1  0.625000  0.881000  0.984600  1
  C  C1260  1  0.125000  0.119000  0.515400  1
  C  C1261  1  0.263300  0.075400  0.001300  1
  C  C1262  1  0.763300  0.924600  0.498700  1
  C  C1263  1  0.736700  0.924600  0.998700  1
  C  C1264  1  0.236700  0.075400  0.501300  1
  C  C1265  1  0.382900  0.990600  0.020100  1
  C  C1266  1  0.882900  0.009400  0.479900  1
  C  C1267  1  0.617100  0.009400  0.979900  1
  C  C1268  1  0.117100  0.990600  0.520100  1
  C  C1269  1  0.459000  0.992900  0.067500  1
  C  C1270  1  0.959000  0.007100  0.432500  1
  C  C1271  1  0.541000  0.007100  0.932500  1
  C  C1272  1  0.041000  0.992900  0.567500  1
  C  C1273  1  0.329000  0.958200  0.067000  1
  C  C1274  1  0.829000  0.041800  0.433000  1
  C  C1275  1  0.671000  0.041800  0.933000  1
  C  C1276  1  0.171000  0.958200  0.567000  1
  C  C1277  1  0.572300  0.297000  0.019000  1
  C  C1278  1  0.072300  0.703000  0.481000  1
  C  C1279  1  0.427700  0.703000  0.981000  1
  C  C1280  1  0.927700  0.297000  0.519000  1
  C  C1281  1  0.717600  0.277400  0.015600  1
  C  C1282  1  0.217600  0.722600  0.484400  1
  C  C1283  1  0.282400  0.722600  0.984400  1
  C  C1284  1  0.782400  0.277400  0.515600  1
  C  C1285  1  0.679400  0.357800  0.029900  1
  C  C1286  1  0.179400  0.642200  0.470100  1
  C  C1287  1  0.320600  0.642200  0.970100  1
  C  C1288  1  0.820600  0.357800  0.529900  1
  C  C1289  1  0.505900  0.310800  0.042600  1
  C  C1290  1  0.005900  0.689200  0.457400  1
  C  C1291  1  0.494100  0.689200  0.957400  1
  C  C1292  1  0.994100  0.310800  0.542600  1
  C  C1293  1  0.495600  0.236800  0.070400  1
  C  C1294  1  0.995600  0.763200  0.429600  1
  C  C1295  1  0.504400  0.763200  0.929600  1
  C  C1296  1  0.004400  0.236800  0.570400  1
  C  C1297  1  0.469200  0.308500  0.097500  1
  C  C1298  1  0.969200  0.691500  0.402500  1
  C  C1299  1  0.530800  0.691500  0.902500  1
  C  C1300  1  0.030800  0.308500  0.597500  1
  C  C1301  1  0.432000  0.925300  0.413400  1
  C  C1302  1  0.932000  0.074700  0.086600  1
  C  C1303  1  0.568000  0.074700  0.586600  1
  C  C1304  1  0.068000  0.925300  0.913400  1
  C  C1305  1  0.401000  0.988400  0.441200  1
  C  C1306  1  0.901000  0.011600  0.058800  1
  C  C1307  1  0.599000  0.011600  0.558800  1
  C  C1308  1  0.099000  0.988400  0.941200  1
  C  C1309  1  0.287000  0.944300  0.427700  1
  C  C1310  1  0.787000  0.055700  0.072300  1
  C  C1311  1  0.713000  0.055700  0.572300  1
  C  C1312  1  0.213000  0.944300  0.927700  1
  C  C1313  1  0.441000  0.901400  0.382500  1
  C  C1314  1  0.941000  0.098600  0.117500  1
  C  C1315  1  0.559000  0.098600  0.617500  1
  C  C1316  1  0.059000  0.901400  0.882500  1
  C  C1317  1  0.509000  0.949600  0.351300  1
  C  C1318  1  0.009000  0.050400  0.148700  1
  C  C1319  1  0.491000  0.050400  0.648700  1
  C  C1320  1  0.991000  0.949600  0.851300  1
  C  C1321  1  0.399300  0.905300  0.329300  1
  C  C1322  1  0.899300  0.094700  0.170700  1
  C  C1323  1  0.600700  0.094700  0.670700  1
  C  C1324  1  0.100700  0.905300  0.829300  1
  C  C1325  1  0.013000  0.290700  0.279900  1
  C  C1326  1  0.513000  0.709300  0.220100  1
  C  C1327  1  0.987000  0.709300  0.720100  1
  C  C1328  1  0.487000  0.290700  0.779900  1
  C  C1329  1  0.018100  0.241200  0.265700  1
  C  C1330  1  0.518100  0.758800  0.234300  1
  C  C1331  1  0.981900  0.758800  0.734300  1
  C  C1332  1  0.481900  0.241200  0.765700  1
  C  C1333  1  0.947100  0.218600  0.254500  1
  C  C1334  1  0.447100  0.781400  0.245500  1
  C  C1335  1  0.052900  0.781400  0.745500  1
  C  C1336  1  0.552900  0.218600  0.754500  1
  C  C1337  1  0.948700  0.172700  0.241300  1
  C  C1338  1  0.448700  0.827300  0.258700  1
  C  C1339  1  0.051300  0.827300  0.758700  1
  C  C1340  1  0.551300  0.172700  0.741300  1
  C  C1341  1  0.025600  0.149200  0.239500  1
  C  C1342  1  0.525600  0.850800  0.260500  1
  C  C1343  1  0.974400  0.850800  0.760500  1
  C  C1344  1  0.474400  0.149200  0.739500  1
  C  C1345  1  0.097900  0.172000  0.250200  1
  C  C1346  1  0.597900  0.828000  0.249800  1
  C  C1347  1  0.902100  0.828000  0.749800  1
  C  C1348  1  0.402100  0.172000  0.750200  1
  C  C1349  1  0.095300  0.217500  0.263500  1
  C  C1350  1  0.595300  0.782500  0.236500  1
  C  C1351  1  0.904700  0.782500  0.736500  1
  C  C1352  1  0.404700  0.217500  0.763500  1
  C  C1353  1  0.173300  0.147700  0.247900  1
  C  C1354  1  0.673300  0.852300  0.252100  1
  C  C1355  1  0.826700  0.852300  0.752100  1
  C  C1356  1  0.326700  0.147700  0.747900  1
  C  C1357  1  0.092300  0.313500  0.292900  1
  C  C1358  1  0.592300  0.686500  0.207100  1
  C  C1359  1  0.907700  0.686500  0.707100  1
  C  C1360  1  0.407700  0.313500  0.792900  1
  C  C1361  1  0.171000  0.287100  0.289800  1
  C  C1362  1  0.671000  0.712900  0.210200  1
  C  C1363  1  0.829000  0.712900  0.710200  1
  C  C1364  1  0.329000  0.287100  0.789800  1
  C  C1365  1  0.244000  0.308200  0.300600  1
  C  C1366  1  0.744000  0.691800  0.199400  1
  C  C1367  1  0.756000  0.691800  0.699400  1
  C  C1368  1  0.256000  0.308200  0.800600  1
  C  C1369  1  0.318300  0.283200  0.297000  1
  C  C1370  1  0.818300  0.716800  0.203000  1
  C  C1371  1  0.681700  0.716800  0.703000  1
  C  C1372  1  0.181700  0.283200  0.797000  1
  C  C1373  1  0.318600  0.236900  0.283500  1
  C  C1374  1  0.818600  0.763100  0.216500  1
  C  C1375  1  0.681400  0.763100  0.716500  1
  C  C1376  1  0.181400  0.236900  0.783500  1
  C  C1377  1  0.246200  0.216500  0.273300  1
  C  C1378  1  0.746200  0.783500  0.226700  1
  C  C1379  1  0.753800  0.783500  0.726700  1
  C  C1380  1  0.253800  0.216500  0.773300  1
  C  C1381  1  0.168800  0.239900  0.275300  1
  C  C1382  1  0.668800  0.760100  0.224700  1
  C  C1383  1  0.831200  0.760100  0.724700  1
  C  C1384  1  0.331200  0.239900  0.775300  1
  C  C1385  1  0.244800  0.168000  0.258200  1
  C  C1386  1  0.744800  0.832000  0.241800  1
  C  C1387  1  0.755200  0.832000  0.741800  1
  C  C1388  1  0.255200  0.168000  0.758200  1
  C  C1389  1  0.213000  0.248800  0.369600  1
  C  C1390  1  0.713000  0.751200  0.130400  1
  C  C1391  1  0.787000  0.751200  0.630400  1
  C  C1392  1  0.287000  0.248800  0.869600  1
  C  C1393  1  0.132200  0.271200  0.369600  1
  C  C1394  1  0.632200  0.728800  0.130400  1
  C  C1395  1  0.867800  0.728800  0.630400  1
  C  C1396  1  0.367800  0.271200  0.869600  1
  C  C1397  1  0.121600  0.315300  0.383200  1
  C  C1398  1  0.621600  0.684700  0.116800  1
  C  C1399  1  0.878400  0.684700  0.616800  1
  C  C1400  1  0.378400  0.315300  0.883200  1
  C  C1401  1  0.042800  0.336500  0.385200  1
  C  C1402  1  0.542800  0.663500  0.114800  1
  C  C1403  1  0.957200  0.663500  0.614800  1
  C  C1404  1  0.457200  0.336500  0.885200  1
  C  C1405  1  0.976200  0.311800  0.372600  1
  C  C1406  1  0.476200  0.688200  0.127400  1
  C  C1407  1  0.023800  0.688200  0.627400  1
  C  C1408  1  0.523800  0.311800  0.872600  1
  C  C1409  1  0.982500  0.266500  0.357500  1
  C  C1410  1  0.482500  0.733500  0.142500  1
  C  C1411  1  0.017500  0.733500  0.642500  1
  C  C1412  1  0.517500  0.266500  0.857500  1
  C  C1413  1  0.062500  0.245000  0.356700  1
  C  C1414  1  0.562500  0.755000  0.143300  1
  C  C1415  1  0.937500  0.755000  0.643300  1
  C  C1416  1  0.437500  0.245000  0.856700  1
  C  C1417  1  0.913100  0.241400  0.344200  1
  C  C1418  1  0.413100  0.758600  0.155800  1
  C  C1419  1  0.086900  0.758600  0.655800  1
  C  C1420  1  0.586900  0.241400  0.844200  1
  C  C1421  1  0.221600  0.198500  0.355100  1
  C  C1422  1  0.721600  0.801500  0.144900  1
  C  C1423  1  0.778400  0.801500  0.644900  1
  C  C1424  1  0.278400  0.198500  0.855100  1
  C  C1425  1  0.146900  0.173900  0.341700  1
  C  C1426  1  0.646900  0.826100  0.158300  1
  C  C1427  1  0.853100  0.826100  0.658300  1
  C  C1428  1  0.353100  0.173900  0.841700  1
  C  C1429  1  0.150100  0.128100  0.328500  1
  C  C1430  1  0.650100  0.871900  0.171500  1
  C  C1431  1  0.849900  0.871900  0.671500  1
  C  C1432  1  0.349900  0.128100  0.828500  1
  C  C1433  1  0.081600  0.103400  0.316300  1
  C  C1434  1  0.581600  0.896600  0.183700  1
  C  C1435  1  0.918400  0.896600  0.683700  1
  C  C1436  1  0.418400  0.103400  0.816300  1
  C  C1437  1  0.006300  0.127000  0.317800  1
  C  C1438  1  0.506300  0.873000  0.182200  1
  C  C1439  1  0.993700  0.873000  0.682200  1
  C  C1440  1  0.493700  0.127000  0.817800  1
  C  C1441  1  0.997500  0.174100  0.330800  1
  C  C1442  1  0.497500  0.825900  0.169200  1
  C  C1443  1  0.002500  0.825900  0.669200  1
  C  C1444  1  0.502500  0.174100  0.830800  1
  C  C1445  1  0.070700  0.197100  0.342800  1
  C  C1446  1  0.570700  0.802900  0.157200  1
  C  C1447  1  0.929300  0.802900  0.657200  1
  C  C1448  1  0.429300  0.197100  0.842800  1
  C  C1449  1  0.919600  0.197100  0.331500  1
  C  C1450  1  0.419600  0.802900  0.168500  1
  C  C1451  1  0.080400  0.802900  0.668500  1
  C  C1452  1  0.580400  0.197100  0.831500  1
  C  C1453  1  0.088300  0.200800  0.171500  1
  C  C1454  1  0.588300  0.799200  0.328500  1
  C  C1455  1  0.911700  0.799200  0.828500  1
  C  C1456  1  0.411700  0.200800  0.671500  1
  C  C1457  1  0.159300  0.229500  0.185700  1
  C  C1458  1  0.659300  0.770500  0.314300  1
  C  C1459  1  0.840700  0.770500  0.814300  1
  C  C1460  1  0.340700  0.229500  0.685700  1
  C  C1461  1  0.238100  0.210600  0.185100  1
  C  C1462  1  0.738100  0.789400  0.314900  1
  C  C1463  1  0.761900  0.789400  0.814900  1
  C  C1464  1  0.261900  0.210600  0.685100  1
  C  C1465  1  0.308000  0.235500  0.195200  1
  C  C1466  1  0.808000  0.764500  0.304800  1
  C  C1467  1  0.692000  0.764500  0.804800  1
  C  C1468  1  0.192000  0.235500  0.695200  1
  C  C1469  1  0.297100  0.282400  0.208900  1
  C  C1470  1  0.797100  0.717600  0.291100  1
  C  C1471  1  0.702900  0.717600  0.791100  1
  C  C1472  1  0.202900  0.282400  0.708900  1
  C  C1473  1  0.218100  0.302500  0.209100  1
  C  C1474  1  0.718100  0.697500  0.290900  1
  C  C1475  1  0.781900  0.697500  0.790900  1
  C  C1476  1  0.281900  0.302500  0.709100  1
  C  C1477  1  0.150700  0.277500  0.197400  1
  C  C1478  1  0.650700  0.722500  0.302600  1
  C  C1479  1  0.849300  0.722500  0.802600  1
  C  C1480  1  0.349300  0.277500  0.697400  1
  C  C1481  1  0.211000  0.349300  0.222100  1
  C  C1482  1  0.711000  0.650700  0.277900  1
  C  C1483  1  0.789000  0.650700  0.777900  1
  C  C1484  1  0.289000  0.349300  0.722100  1
  C  C1485  1  0.003200  0.224100  0.172000  1
  C  C1486  1  0.503200  0.775900  0.328000  1
  C  C1487  1  0.996800  0.775900  0.828000  1
  C  C1488  1  0.496800  0.224100  0.672000  1
  C  C1489  1  0.000500  0.275400  0.180800  1
  C  C1490  1  0.500500  0.724600  0.319200  1
  C  C1491  1  0.999500  0.724600  0.819200  1
  C  C1492  1  0.499500  0.275400  0.680800  1
  C  C1493  1  0.923500  0.297700  0.181100  1
  C  C1494  1  0.423500  0.702300  0.318900  1
  C  C1495  1  0.076500  0.702300  0.818900  1
  C  C1496  1  0.576500  0.297700  0.681100  1
  C  C1497  1  0.920200  0.345100  0.191800  1
  C  C1498  1  0.420200  0.654900  0.308200  1
  C  C1499  1  0.079800  0.654900  0.808200  1
  C  C1500  1  0.579800  0.345100  0.691800  1
  C  C1501  1  0.989000  0.368500  0.205100  1
  C  C1502  1  0.489000  0.631500  0.294900  1
  C  C1503  1  0.011000  0.631500  0.794900  1
  C  C1504  1  0.511000  0.368500  0.705100  1
  C  C1505  1  0.062900  0.346500  0.206000  1
  C  C1506  1  0.562900  0.653500  0.294000  1
  C  C1507  1  0.937100  0.653500  0.794000  1
  C  C1508  1  0.437100  0.346500  0.706000  1
  C  C1509  1  0.071800  0.298400  0.195400  1
  C  C1510  1  0.571800  0.701600  0.304600  1
  C  C1511  1  0.928200  0.701600  0.804600  1
  C  C1512  1  0.428200  0.298400  0.695400  1
  C  C1513  1  0.136700  0.371000  0.220100  1
  C  C1514  1  0.636700  0.629000  0.279900  1
  C  C1515  1  0.863300  0.629000  0.779900  1
  C  C1516  1  0.363300  0.371000  0.720100  1
  C  C1517  1  0.350000  0.011300  0.003200  1
  C  C1518  1  0.850000  0.988700  0.496800  1
  C  C1519  1  0.650000  0.988700  0.996800  1
  C  C1520  1  0.150000  0.011300  0.503200  1
  C  C1521  1  0.386000  0.092000  0.011200  1
  C  C1522  1  0.886000  0.908000  0.488800  1
  C  C1523  1  0.614000  0.908000  0.988800  1
  C  C1524  1  0.114000  0.092000  0.511200  1
  C  C1525  1  0.248000  0.058200  0.998700  1
  C  C1526  1  0.748000  0.941800  0.501300  1
  C  C1527  1  0.752000  0.941800  0.001300  1
  C  C1528  1  0.252000  0.058200  0.498700  1
  C  C1529  1  0.348000  0.973300  0.019100  1
  C  C1530  1  0.848000  0.026700  0.480900  1
  C  C1531  1  0.652000  0.026700  0.980900  1
  C  C1532  1  0.152000  0.973300  0.519100  1
  C  C1533  1  0.421000  0.971400  0.074400  1
  C  C1534  1  0.921000  0.028600  0.425600  1
  C  C1535  1  0.579000  0.028600  0.925600  1
  C  C1536  1  0.079000  0.971400  0.574400  1
  C  C1537  1  0.283000  0.949600  0.065300  1
  C  C1538  1  0.783000  0.050400  0.434700  1
  C  C1539  1  0.717000  0.050400  0.934700  1
  C  C1540  1  0.217000  0.949600  0.565300  1
  C  C1541  1  0.338000  0.897300  0.408700  1
  C  C1542  1  0.838000  0.102700  0.091300  1
  C  C1543  1  0.662000  0.102700  0.591300  1
  C  C1544  1  0.162000  0.897300  0.908700  1
  C  C1545  1  0.355000  0.971700  0.443500  1
  C  C1546  1  0.855000  0.028300  0.056500  1
  C  C1547  1  0.645000  0.028300  0.556500  1
  C  C1548  1  0.145000  0.971700  0.943500  1
  C  C1549  1  0.225000  0.945000  0.434100  1
  C  C1550  1  0.725000  0.055000  0.065900  1
  C  C1551  1  0.775000  0.055000  0.565900  1
  C  C1552  1  0.275000  0.945000  0.934100  1
  C  C1553  1  0.399000  0.893700  0.388600  1
  C  C1554  1  0.899000  0.106300  0.111400  1
  C  C1555  1  0.601000  0.106300  0.611400  1
  C  C1556  1  0.101000  0.893700  0.888600  1
  C  C1557  1  0.438000  0.929900  0.337200  1
  C  C1558  1  0.938000  0.070100  0.162800  1
  C  C1559  1  0.562000  0.070100  0.662800  1
  C  C1560  1  0.062000  0.929900  0.837200  1
  C  C1561  1  0.313000  0.886800  0.337500  1
  C  C1562  1  0.813000  0.113200  0.162500  1
  C  C1563  1  0.687000  0.113200  0.662500  1
  C  C1564  1  0.187000  0.886800  0.837500  1
  C  C1565  1  0.086000  0.189400  0.165800  1
  C  C1566  1  0.586000  0.810600  0.334200  1
  C  C1567  1  0.914000  0.810600  0.834200  1
  C  C1568  1  0.414000  0.189400  0.665800  1
  C  C1569  1  0.167900  0.211100  0.176100  1
  C  C1570  1  0.667900  0.788900  0.323900  1
  C  C1571  1  0.832100  0.788900  0.823900  1
  C  C1572  1  0.332100  0.211100  0.676100  1
  C  C1573  1  0.241000  0.185500  0.173300  1
  C  C1574  1  0.741000  0.814500  0.326700  1
  C  C1575  1  0.759000  0.814500  0.826700  1
  C  C1576  1  0.259000  0.185500  0.673300  1
  C  C1577  1  0.316000  0.203400  0.184400  1
  C  C1578  1  0.816000  0.796600  0.315600  1
  C  C1579  1  0.684000  0.796600  0.815600  1
  C  C1580  1  0.184000  0.203400  0.684400  1
  C  C1581  1  0.322000  0.250000  0.198400  1
  C  C1582  1  0.822000  0.750000  0.301600  1
  C  C1583  1  0.678000  0.750000  0.801600  1
  C  C1584  1  0.178000  0.250000  0.698400  1
  C  C1585  1  0.248500  0.276600  0.201000  1
  C  C1586  1  0.748500  0.723400  0.299000  1
  C  C1587  1  0.751500  0.723400  0.799000  1
  C  C1588  1  0.251500  0.276600  0.701000  1
  C  C1589  1  0.173100  0.256700  0.193000  1
  C  C1590  1  0.673100  0.743300  0.307000  1
  C  C1591  1  0.826900  0.743300  0.807000  1
  C  C1592  1  0.326900  0.256700  0.693000  1
  C  C1593  1  0.255000  0.321700  0.216700  1
  C  C1594  1  0.755000  0.678300  0.283300  1
  C  C1595  1  0.745000  0.678300  0.783300  1
  C  C1596  1  0.245000  0.321700  0.716700  1
  C  C1597  1  0.011000  0.221600  0.169000  1
  C  C1598  1  0.511000  0.778400  0.331000  1
  C  C1599  1  0.989000  0.778400  0.831000  1
  C  C1600  1  0.489000  0.221600  0.669000  1
  C  C1601  1  0.020000  0.268100  0.186900  1
  C  C1602  1  0.520000  0.731900  0.313100  1
  C  C1603  1  0.980000  0.731900  0.813100  1
  C  C1604  1  0.480000  0.268100  0.686900  1
  C  C1605  1  0.950000  0.296400  0.190900  1
  C  C1606  1  0.450000  0.703600  0.309100  1
  C  C1607  1  0.050000  0.703600  0.809100  1
  C  C1608  1  0.550000  0.296400  0.690900  1
  C  C1609  1  0.961000  0.342900  0.202700  1
  C  C1610  1  0.461000  0.657100  0.297300  1
  C  C1611  1  0.039000  0.657100  0.797300  1
  C  C1612  1  0.539000  0.342900  0.702700  1
  C  C1613  1  0.038000  0.359100  0.213600  1
  C  C1614  1  0.538000  0.640900  0.286400  1
  C  C1615  1  0.962000  0.640900  0.786400  1
  C  C1616  1  0.462000  0.359100  0.713600  1
  C  C1617  1  0.106000  0.331500  0.210400  1
  C  C1618  1  0.606000  0.668500  0.289600  1
  C  C1619  1  0.894000  0.668500  0.789600  1
  C  C1620  1  0.394000  0.331500  0.710400  1
  C  C1621  1  0.101000  0.284800  0.196200  1
  C  C1622  1  0.601000  0.715200  0.303800  1
  C  C1623  1  0.899000  0.715200  0.803800  1
  C  C1624  1  0.399000  0.284800  0.696200  1
  C  C1625  1  0.190000  0.351200  0.218000  1
  C  C1626  1  0.690000  0.648800  0.282000  1
  C  C1627  1  0.810000  0.648800  0.782000  1
  C  C1628  1  0.310000  0.351200  0.718000  1
  N  N1629  1  0.236000  0.359100  0.481800  1
  N  N1630  1  0.736000  0.640900  0.018200  1
  N  N1631  1  0.764000  0.640900  0.518200  1
  N  N1632  1  0.264000  0.359100  0.981800  1
  N  N1633  1  0.264000  0.037400  0.393000  1
  N  N1634  1  0.764000  0.962600  0.107000  1
  N  N1635  1  0.736000  0.962600  0.607000  1
  N  N1636  1  0.236000  0.037400  0.893000  1
  N  N1637  1  0.747200  0.211000  0.402700  1
  N  N1638  1  0.247200  0.789000  0.097300  1
  N  N1639  1  0.252800  0.789000  0.597300  1
  N  N1640  1  0.752800  0.211000  0.902700  1
  N  N1641  1  0.165400  0.195200  0.435300  1
  N  N1642  1  0.665400  0.804800  0.064700  1
  N  N1643  1  0.834600  0.804800  0.564700  1
  N  N1644  1  0.334600  0.195200  0.935300  1
  N  N1645  1  0.041300  0.157300  0.417000  1
  N  N1646  1  0.541300  0.842700  0.083000  1
  N  N1647  1  0.958700  0.842700  0.583000  1
  N  N1648  1  0.458700  0.157300  0.917000  1
  N  N1649  1  0.036700  0.235500  0.441100  1
  N  N1650  1  0.536700  0.764500  0.058900  1
  N  N1651  1  0.963300  0.764500  0.558900  1
  N  N1652  1  0.463300  0.235500  0.941100  1
  N  N1653  1  0.279400  0.444700  0.164100  1
  N  N1654  1  0.779400  0.555300  0.335900  1
  N  N1655  1  0.720600  0.555300  0.835900  1
  N  N1656  1  0.220600  0.444700  0.664100  1
  N  N1657  1  0.265300  0.121500  0.075200  1
  N  N1658  1  0.765300  0.878500  0.424800  1
  N  N1659  1  0.734700  0.878500  0.924800  1
  N  N1660  1  0.234700  0.121500  0.575200  1
  N  N1661  1  0.771800  0.298600  0.088600  1
  N  N1662  1  0.271800  0.701400  0.411400  1
  N  N1663  1  0.228200  0.701400  0.911400  1
  N  N1664  1  0.728200  0.298600  0.588600  1
  N  N1665  1  0.191800  0.285800  0.116500  1
  N  N1666  1  0.691800  0.714200  0.383500  1
  N  N1667  1  0.808200  0.714200  0.883500  1
  N  N1668  1  0.308200  0.285800  0.616500  1
  N  N1669  1  0.065400  0.250300  0.100400  1
  N  N1670  1  0.565400  0.749700  0.399600  1
  N  N1671  1  0.934600  0.749700  0.899600  1
  N  N1672  1  0.434600  0.250300  0.600400  1
  N  N1673  1  0.068800  0.330800  0.118800  1
  N  N1674  1  0.568800  0.669200  0.381200  1
  N  N1675  1  0.931200  0.669200  0.881200  1
  N  N1676  1  0.431200  0.330800  0.618800  1
  N  N1677  1  0.276600  0.428900  0.442500  1
  N  N1678  1  0.776600  0.571100  0.057500  1
  N  N1679  1  0.723400  0.571100  0.557500  1
  N  N1680  1  0.223400  0.428900  0.942500  1
  N  N1681  1  0.324200  0.478000  0.227400  1
  N  N1682  1  0.824200  0.522000  0.272600  1
  N  N1683  1  0.675800  0.522000  0.772600  1
  N  N1684  1  0.175800  0.478000  0.727400  1
  N  N1685  1  0.324000  0.008400  0.331100  1
  N  N1686  1  0.824000  0.991600  0.168900  1
  N  N1687  1  0.676000  0.991600  0.668900  1
  N  N1688  1  0.176000  0.008400  0.831100  1
  N  N1689  1  0.301600  0.048400  0.113100  1
  N  N1690  1  0.801600  0.951600  0.386900  1
  N  N1691  1  0.698400  0.951600  0.886900  1
  N  N1692  1  0.198400  0.048400  0.613100  1
  N  N1693  1  0.669900  0.237400  0.345900  1
  N  N1694  1  0.169900  0.762600  0.154100  1
  N  N1695  1  0.330100  0.762600  0.654100  1
  N  N1696  1  0.830100  0.237400  0.845900  1
  N  N1697  1  0.642100  0.283700  0.129700  1
  N  N1698  1  0.142100  0.716300  0.370300  1
  N  N1699  1  0.357900  0.716300  0.870300  1
  N  N1700  1  0.857900  0.283700  0.629700  1
  N  N1701  1  0.292700  0.418600  0.539900  1
  N  N1702  1  0.792700  0.581400  0.960100  1
  N  N1703  1  0.707300  0.581400  0.460100  1
  N  N1704  1  0.207300  0.418600  0.039900  1
  N  N1705  1  0.324100  0.491900  0.500400  1
  N  N1706  1  0.824100  0.508100  0.999600  1
  N  N1707  1  0.675900  0.508100  0.499600  1
  N  N1708  1  0.175900  0.491900  0.000400  1
  N  N1709  1  0.581600  0.209500  0.434900  1
  N  N1710  1  0.081600  0.790500  0.065100  1
  N  N1711  1  0.418400  0.790500  0.565100  1
  N  N1712  1  0.918400  0.209500  0.934900  1
  N  N1713  1  0.504300  0.230000  0.375900  1
  N  N1714  1  0.004300  0.770000  0.124100  1
  N  N1715  1  0.495700  0.770000  0.624100  1
  N  N1716  1  0.995700  0.230000  0.875900  1
  N  N1717  1  0.358900  0.526700  0.138500  1
  N  N1718  1  0.858900  0.473300  0.361500  1
  N  N1719  1  0.641100  0.473300  0.861500  1
  N  N1720  1  0.141100  0.526700  0.638500  1
  N  N1721  1  0.396600  0.563100  0.201600  1
  N  N1722  1  0.896600  0.436900  0.298400  1
  N  N1723  1  0.603400  0.436900  0.798400  1
  N  N1724  1  0.103400  0.563100  0.701600  1
  N  N1725  1  0.343000  0.071900  0.019300  1
  N  N1726  1  0.843000  0.928100  0.480700  1
  N  N1727  1  0.657000  0.928100  0.980700  1
  N  N1728  1  0.157000  0.071900  0.519300  1
  N  N1729  1  0.376600  0.996800  0.055100  1
  N  N1730  1  0.876600  0.003200  0.444900  1
  N  N1731  1  0.623400  0.003200  0.944900  1
  N  N1732  1  0.123400  0.996800  0.555100  1
  N  N1733  1  0.654100  0.310100  0.033700  1
  N  N1734  1  0.154100  0.689900  0.466300  1
  N  N1735  1  0.345900  0.689900  0.966300  1
  N  N1736  1  0.845900  0.310100  0.533700  1
  N  N1737  1  0.518900  0.291700  0.073900  1
  N  N1738  1  0.018900  0.708300  0.426100  1
  N  N1739  1  0.481100  0.708300  0.926100  1
  N  N1740  1  0.981100  0.291700  0.573900  1
  N  N1741  1  0.369200  0.959900  0.417600  1
  N  N1742  1  0.869200  0.040100  0.082400  1
  N  N1743  1  0.630800  0.040100  0.582400  1
  N  N1744  1  0.130800  0.959900  0.917600  1
  N  N1745  1  0.430700  0.933600  0.357000  1
  N  N1746  1  0.930700  0.066400  0.143000  1
  N  N1747  1  0.569300  0.066400  0.643000  1
  N  N1748  1  0.069300  0.933600  0.857000  1
  N  N1749  1  0.890000  0.155800  0.489800  1
  N  N1750  1  0.390000  0.844200  0.010200  1
  N  N1751  1  0.110000  0.844200  0.510200  1
  N  N1752  1  0.610000  0.155800  0.989800  1
  N  N1753  1  0.079700  0.546700  0.326500  1
  N  N1754  1  0.579700  0.453300  0.173500  1
  N  N1755  1  0.920300  0.453300  0.673500  1
  N  N1756  1  0.420300  0.546700  0.826500  1
  N  N1757  1  0.875400  0.378800  0.442500  1
  N  N1758  1  0.375400  0.621200  0.057500  1
  N  N1759  1  0.124600  0.621200  0.557500  1
  N  N1760  1  0.624600  0.378800  0.942500  1
  N  N1761  1  0.586900  0.426100  0.086700  1
  N  N1762  1  0.086900  0.573900  0.413300  1
  N  N1763  1  0.413100  0.573900  0.913300  1
  N  N1764  1  0.913100  0.426100  0.586700  1
  N  N1765  1  0.965900  0.022500  0.341000  1
  N  N1766  1  0.465900  0.977500  0.159000  1
  N  N1767  1  0.034100  0.977500  0.659000  1
  N  N1768  1  0.534100  0.022500  0.841000  1
  N  N1769  1  0.499600  0.517200  0.304600  1
  N  N1770  1  0.999600  0.482800  0.195400  1
  N  N1771  1  0.500400  0.482800  0.695400  1
  N  N1772  1  0.000400  0.517200  0.804600  1
  N  N1773  1  0.324000  0.057500  0.015600  1
  N  N1774  1  0.824000  0.942500  0.484400  1
  N  N1775  1  0.676000  0.942500  0.984400  1
  N  N1776  1  0.176000  0.057500  0.515600  1
  N  N1777  1  0.343300  0.980800  0.054700  1
  N  N1778  1  0.843300  0.019200  0.445300  1
  N  N1779  1  0.656700  0.019200  0.945300  1
  N  N1780  1  0.156700  0.980800  0.554700  1
  N  N1781  1  0.315000  0.946200  0.418500  1
  N  N1782  1  0.815000  0.053800  0.081500  1
  N  N1783  1  0.685000  0.053800  0.581500  1
  N  N1784  1  0.185000  0.946200  0.918500  1
  N  N1785  1  0.368000  0.918800  0.357400  1
  N  N1786  1  0.868000  0.081200  0.142600  1
  N  N1787  1  0.632000  0.081200  0.642600  1
  N  N1788  1  0.132000  0.918800  0.857400  1
  N  N1789  1  0.983100  0.370700  0.965000  1
  N  N1790  1  0.483100  0.629300  0.535000  1
  N  N1791  1  0.016900  0.629300  0.035000  1
  N  N1792  1  0.516900  0.370700  0.465000  1
  N  N1793  1  0.529000  0.986400  0.252400  1
  N  N1794  1  0.029000  0.013600  0.247600  1
  N  N1795  1  0.471000  0.013600  0.747600  1
  N  N1796  1  0.971000  0.986400  0.752400  1
  N  N1797  1  0.251600  0.252800  0.032100  1
  N  N1798  1  0.751600  0.747200  0.467900  1
  N  N1799  1  0.748400  0.747200  0.967900  1
  N  N1800  1  0.248400  0.252800  0.532100  1
  N  N1801  1  0.503000  0.288100  0.253400  1
  N  N1802  1  0.003000  0.711900  0.246600  1
  N  N1803  1  0.497000  0.711900  0.746600  1
  N  N1804  1  0.997000  0.288100  0.753400  1
  N  N1805  1  0.594000  0.014100  0.464100  1
  N  N1806  1  0.094000  0.985900  0.035900  1
  N  N1807  1  0.406000  0.985900  0.535900  1
  N  N1808  1  0.906000  0.014100  0.964100  1
  N  N1809  1  0.577500  0.108100  0.070800  1
  N  N1810  1  0.077500  0.891900  0.429200  1
  N  N1811  1  0.422500  0.891900  0.929200  1
  N  N1812  1  0.922500  0.108100  0.570800  1
  O  O1813  1  0.947900  0.312600  0.281100  1
  O  O1814  1  0.447900  0.687400  0.218900  1
  O  O1815  1  0.052100  0.687400  0.718900  1
  O  O1816  1  0.552100  0.312600  0.781100  1
  O  O1817  1  0.087700  0.353300  0.306000  1
  O  O1818  1  0.587700  0.646700  0.194000  1
  O  O1819  1  0.912300  0.646700  0.694000  1
  O  O1820  1  0.412300  0.353300  0.806000  1
  O  O1821  1  0.275700  0.269100  0.380600  1
  O  O1822  1  0.775700  0.730900  0.119400  1
  O  O1823  1  0.724300  0.730900  0.619400  1
  O  O1824  1  0.224300  0.269100  0.880600  1
  O  O1825  1  0.289800  0.179200  0.355200  1
  O  O1826  1  0.789800  0.820800  0.144800  1
  O  O1827  1  0.710200  0.820800  0.644800  1
  O  O1828  1  0.210200  0.179200  0.855200  1
  O  O1829  1  0.093000  0.159600  0.161300  1
  O  O1830  1  0.593000  0.840400  0.338700  1
  O  O1831  1  0.907000  0.840400  0.838700  1
  O  O1832  1  0.407000  0.159600  0.661300  1
  O  O1833  1  0.942400  0.201200  0.161500  1
  O  O1834  1  0.442400  0.798800  0.338500  1
  O  O1835  1  0.057600  0.798800  0.838500  1
  O  O1836  1  0.557600  0.201200  0.661500  1
  O  O1837  1  0.464700  0.961900  0.250100  1
  O  O1838  1  0.964700  0.038100  0.249900  1
  O  O1839  1  0.535300  0.038100  0.749900  1
  O  O1840  1  0.035300  0.961900  0.750100  1
  O  O1841  1  0.922700  0.186200  0.504700  1
  O  O1842  1  0.422700  0.813800  0.995300  1
  O  O1843  1  0.077300  0.813800  0.495300  1
  O  O1844  1  0.577300  0.186200  0.004700  1
  O  O1845  1  0.803700  0.158000  0.481000  1
  O  O1846  1  0.303700  0.842000  0.019000  1
  O  O1847  1  0.196300  0.842000  0.519000  1
  O  O1848  1  0.696300  0.158000  0.981000  1
  O  O1849  1  0.946200  0.129200  0.474500  1
  O  O1850  1  0.446200  0.870800  0.025500  1
  O  O1851  1  0.053800  0.870800  0.525500  1
  O  O1852  1  0.553800  0.129200  0.974500  1
  O  O1853  1  0.091500  0.515500  0.344900  1
  O  O1854  1  0.591500  0.484500  0.155100  1
  O  O1855  1  0.908500  0.484500  0.655100  1
  O  O1856  1  0.408500  0.515500  0.844900  1
  O  O1857  1  0.140900  0.565100  0.312300  1
  O  O1858  1  0.640900  0.434900  0.187700  1
  O  O1859  1  0.859100  0.434900  0.687700  1
  O  O1860  1  0.359100  0.565100  0.812300  1
  O  O1861  1  0.008700  0.563400  0.322700  1
  O  O1862  1  0.508700  0.436600  0.177300  1
  O  O1863  1  0.991300  0.436600  0.677300  1
  O  O1864  1  0.491300  0.563400  0.822700  1
  O  O1865  1  0.931500  0.359300  0.455700  1
  O  O1866  1  0.431500  0.640700  0.044300  1
  O  O1867  1  0.068500  0.640700  0.544300  1
  O  O1868  1  0.568500  0.359300  0.955700  1
  O  O1869  1  0.833000  0.356400  0.420000  1
  O  O1870  1  0.333000  0.643600  0.080000  1
  O  O1871  1  0.167000  0.643600  0.580000  1
  O  O1872  1  0.667000  0.356400  0.920000  1
  O  O1873  1  0.853000  0.420900  0.447400  1
  O  O1874  1  0.353000  0.579100  0.052600  1
  O  O1875  1  0.147000  0.579100  0.552600  1
  O  O1876  1  0.647000  0.420900  0.947400  1
  O  O1877  1  0.024200  0.447700  0.470800  1
  O  O1878  1  0.524200  0.552300  0.029200  1
  O  O1879  1  0.975800  0.552300  0.529200  1
  O  O1880  1  0.475800  0.447700  0.970800  1
  O  O1881  1  0.512100  0.418700  0.079400  1
  O  O1882  1  0.012100  0.581300  0.420600  1
  O  O1883  1  0.487900  0.581300  0.920600  1
  O  O1884  1  0.987900  0.418700  0.579400  1
  O  O1885  1  0.622900  0.398600  0.105200  1
  O  O1886  1  0.122900  0.601400  0.394800  1
  O  O1887  1  0.377100  0.601400  0.894800  1
  O  O1888  1  0.877100  0.398600  0.605200  1
  O  O1889  1  0.630000  0.457300  0.075700  1
  O  O1890  1  0.130000  0.542700  0.424300  1
  O  O1891  1  0.370000  0.542700  0.924300  1
  O  O1892  1  0.870000  0.457300  0.575700  1
  O  O1893  1  0.023000  0.996700  0.348300  1
  O  O1894  1  0.523000  0.003300  0.151700  1
  O  O1895  1  0.977000  0.003300  0.651700  1
  O  O1896  1  0.477000  0.996700  0.848300  1
  O  O1897  1  0.948000  0.019700  0.310500  1
  O  O1898  1  0.448000  0.980300  0.189500  1
  O  O1899  1  0.052000  0.980300  0.689500  1
  O  O1900  1  0.552000  0.019700  0.810500  1
  O  O1901  1  0.920500  0.048500  0.358400  1
  O  O1902  1  0.420500  0.951500  0.141600  1
  O  O1903  1  0.079500  0.951500  0.641600  1
  O  O1904  1  0.579500  0.048500  0.858400  1
  O  O1905  1  0.552500  0.513800  0.283400  1
  O  O1906  1  0.052500  0.486200  0.216600  1
  O  O1907  1  0.447500  0.486200  0.716600  1
  O  O1908  1  0.947500  0.513800  0.783400  1
  O  O1909  1  0.424700  0.542400  0.299900  1
  O  O1910  1  0.924700  0.457600  0.200100  1
  O  O1911  1  0.575300  0.457600  0.700100  1
  O  O1912  1  0.075300  0.542400  0.799900  1
  O  O1913  1  0.497200  0.500000  0.331000  1
  O  O1914  1  0.997200  0.500000  0.169000  1
  O  O1915  1  0.502800  0.500000  0.669000  1
  O  O1916  1  0.002800  0.500000  0.831000  1
  O  O1917  1  0.138400  0.564000  0.196300  1
  O  O1918  1  0.638400  0.436000  0.303700  1
  O  O1919  1  0.861600  0.436000  0.803700  1
  O  O1920  1  0.361600  0.564000  0.696300  1
  O  O1921  1  0.484700  0.045100  0.391300  1
  O  O1922  1  0.984700  0.954900  0.108700  1
  O  O1923  1  0.515300  0.954900  0.608700  1
  O  O1924  1  0.015300  0.045100  0.891300  1
  O  O1925  1  0.589000  0.104100  0.290100  1
  O  O1926  1  0.089000  0.895900  0.209900  1
  O  O1927  1  0.411000  0.895900  0.709900  1
  O  O1928  1  0.911000  0.104100  0.790100  1
  O  O1929  1  0.488600  0.367100  0.322600  1
  O  O1930  1  0.988600  0.632900  0.177400  1
  O  O1931  1  0.511400  0.632900  0.677400  1
  O  O1932  1  0.011400  0.367100  0.822600  1
  O  O1933  1  0.672500  0.352700  0.410800  1
  O  O1934  1  0.172500  0.647300  0.089200  1
  O  O1935  1  0.327500  0.647300  0.589200  1
  O  O1936  1  0.827500  0.352700  0.910800  1
  O  O1937  1  0.078000  0.150600  0.151500  1
  O  O1938  1  0.578000  0.849400  0.348500  1
  O  O1939  1  0.922000  0.849400  0.848500  1
  O  O1940  1  0.422000  0.150600  0.651500  1
  O  O1941  1  0.942100  0.206400  0.159400  1
  O  O1942  1  0.442100  0.793600  0.340600  1
  O  O1943  1  0.057900  0.793600  0.840600  1
  O  O1944  1  0.557900  0.206400  0.659400  1
  O  O1945  1  0.903300  0.375300  0.973900  1
  O  O1946  1  0.403300  0.624700  0.526100  1
  O  O1947  1  0.096700  0.624700  0.026100  1
  O  O1948  1  0.596700  0.375300  0.473900  1
  O  O1949  1  0.992000  0.348800  0.936600  1
  O  O1950  1  0.492000  0.651200  0.563400  1
  O  O1951  1  0.008000  0.651200  0.063400  1
  O  O1952  1  0.508000  0.348800  0.436600  1
  O  O1953  1  0.028100  0.396600  0.982000  1
  O  O1954  1  0.528100  0.603400  0.518000  1
  O  O1955  1  0.971900  0.603400  0.018000  1
  O  O1956  1  0.471900  0.396600  0.482000  1
  O  O1957  1  0.021000  0.336600  0.971800  1
  O  O1958  1  0.521000  0.663400  0.528200  1
  O  O1959  1  0.979000  0.663400  0.028200  1
  O  O1960  1  0.479000  0.336600  0.471800  1
  O  O1961  1  0.923600  0.340300  0.033700  1
  O  O1962  1  0.423600  0.659700  0.466300  1
  O  O1963  1  0.076400  0.659700  0.966300  1
  O  O1964  1  0.576400  0.340300  0.533700  1
  O  O1965  1  0.951000  0.352000  0.001800  1
  O  O1966  1  0.451000  0.648000  0.498200  1
  O  O1967  1  0.049000  0.648000  0.998200  1
  O  O1968  1  0.549000  0.352000  0.501800  1
  O  O1969  1  0.564300  0.988500  0.279600  1
  O  O1970  1  0.064300  0.011500  0.220400  1
  O  O1971  1  0.435700  0.011500  0.720400  1
  O  O1972  1  0.935700  0.988500  0.779600  1
  O  O1973  1  0.540000  0.021100  0.236300  1
  O  O1974  1  0.040000  0.978900  0.263700  1
  O  O1975  1  0.460000  0.978900  0.763700  1
  O  O1976  1  0.960000  0.021100  0.736300  1
  O  O1977  1  0.305000  0.910800  0.235800  1
  O  O1978  1  0.805000  0.089200  0.264200  1
  O  O1979  1  0.695000  0.089200  0.764200  1
  O  O1980  1  0.195000  0.910800  0.735800  1
  O  O1981  1  0.392000  0.939600  0.247300  1
  O  O1982  1  0.892000  0.060400  0.252700  1
  O  O1983  1  0.608000  0.060400  0.752700  1
  O  O1984  1  0.108000  0.939600  0.747300  1
  O  O1985  1  0.874000  0.118000  0.512600  1
  O  O1986  1  0.374000  0.882000  0.987400  1
  O  O1987  1  0.126000  0.882000  0.487400  1
  O  O1988  1  0.626000  0.118000  0.012600  1
  O  O1989  1  0.947000  0.138000  0.495800  1
  O  O1990  1  0.447000  0.862000  0.004200  1
  O  O1991  1  0.053000  0.862000  0.504200  1
  O  O1992  1  0.553000  0.138000  0.995800  1
  O  O1993  1  0.257600  0.213700  0.019100  1
  O  O1994  1  0.757600  0.786300  0.480900  1
  O  O1995  1  0.742400  0.786300  0.980900  1
  O  O1996  1  0.242400  0.213700  0.519100  1
  O  O1997  1  0.181300  0.272300  0.037600  1
  O  O1998  1  0.681300  0.727700  0.462400  1
  O  O1999  1  0.818700  0.727700  0.962400  1
  O  O2000  1  0.318700  0.272300  0.537600  1
  O  O2001  1  0.302100  0.284900  0.045400  1
  O  O2002  1  0.802100  0.715100  0.454600  1
  O  O2003  1  0.697900  0.715100  0.954600  1
  O  O2004  1  0.197900  0.284900  0.545400  1
  O  O2005  1  0.319000  0.269600  0.038400  1
  O  O2006  1  0.819000  0.730400  0.461600  1
  O  O2007  1  0.681000  0.730400  0.961600  1
  O  O2008  1  0.181000  0.269600  0.538400  1
  O  O2009  1  0.940000  0.386200  0.455900  1
  O  O2010  1  0.440000  0.613800  0.044100  1
  O  O2011  1  0.060000  0.613800  0.544100  1
  O  O2012  1  0.560000  0.386200  0.955900  1
  O  O2013  1  0.887000  0.416100  0.434200  1
  O  O2014  1  0.387000  0.583900  0.065800  1
  O  O2015  1  0.113000  0.583900  0.565800  1
  O  O2016  1  0.613000  0.416100  0.934200  1
  O  O2017  1  0.826800  0.354100  0.445300  1
  O  O2018  1  0.326800  0.645900  0.054700  1
  O  O2019  1  0.173200  0.645900  0.554700  1
  O  O2020  1  0.673200  0.354100  0.945300  1
  O  O2021  1  0.793000  0.451300  0.094800  1
  O  O2022  1  0.293000  0.548700  0.405200  1
  O  O2023  1  0.207000  0.548700  0.905200  1
  O  O2024  1  0.707000  0.451300  0.594800  1
  O  O2025  1  0.495200  0.254800  0.232400  1
  O  O2026  1  0.995200  0.745200  0.267600  1
  O  O2027  1  0.504800  0.745200  0.767600  1
  O  O2028  1  0.004800  0.254800  0.732400  1
  O  O2029  1  0.495100  0.329000  0.243000  1
  O  O2030  1  0.995100  0.671000  0.257000  1
  O  O2031  1  0.504900  0.671000  0.757000  1
  O  O2032  1  0.004900  0.329000  0.743000  1
  O  O2033  1  0.514600  0.284500  0.282400  1
  O  O2034  1  0.014600  0.715500  0.217600  1
  O  O2035  1  0.485400  0.715500  0.717600  1
  O  O2036  1  0.985400  0.284500  0.782400  1
  O  O2037  1  0.511000  0.247300  0.272100  1
  O  O2038  1  0.011000  0.752700  0.227900  1
  O  O2039  1  0.489000  0.752700  0.727900  1
  O  O2040  1  0.989000  0.247300  0.772100  1
  O  O2041  1  0.509000  0.322000  0.271300  1
  O  O2042  1  0.009000  0.678000  0.228700  1
  O  O2043  1  0.491000  0.678000  0.728700  1
  O  O2044  1  0.991000  0.322000  0.771300  1
  O  O2045  1  0.798000  0.082200  0.346100  1
  O  O2046  1  0.298000  0.917800  0.153900  1
  O  O2047  1  0.202000  0.917800  0.653900  1
  O  O2048  1  0.702000  0.082200  0.846100  1
  O  O2049  1  0.779000  0.090100  0.321400  1
  O  O2050  1  0.279000  0.909900  0.178600  1
  O  O2051  1  0.221000  0.909900  0.678600  1
  O  O2052  1  0.721000  0.090100  0.821400  1
  O  O2053  1  0.863000  0.061600  0.348500  1
  O  O2054  1  0.363000  0.938400  0.151500  1
  O  O2055  1  0.137000  0.938400  0.651500  1
  O  O2056  1  0.637000  0.061600  0.848500  1
  O  O2057  1  0.647000  0.020400  0.485700  1
  O  O2058  1  0.147000  0.979600  0.014300  1
  O  O2059  1  0.353000  0.979600  0.514300  1
  O  O2060  1  0.853000  0.020400  0.985700  1
  O  O2061  1  0.613900  0.981300  0.443000  1
  O  O2062  1  0.113900  0.018700  0.057000  1
  O  O2063  1  0.386100  0.018700  0.557000  1
  O  O2064  1  0.886100  0.981300  0.943000  1
  O  O2065  1  0.561200  0.050400  0.454000  1
  O  O2066  1  0.061200  0.949600  0.046000  1
  O  O2067  1  0.438800  0.949600  0.546000  1
  O  O2068  1  0.938800  0.050400  0.954000  1
  O  O2069  1  0.461800  0.096900  0.504600  1
  O  O2070  1  0.961800  0.903100  0.995400  1
  O  O2071  1  0.538200  0.903100  0.495400  1
  O  O2072  1  0.038200  0.096900  0.004600  1
  O  O2073  1  0.553000  0.065300  0.494700  1
  O  O2074  1  0.053000  0.934700  0.005300  1
  O  O2075  1  0.447000  0.934700  0.505300  1
  O  O2076  1  0.947000  0.065300  0.994700  1
  O  O2077  1  0.509300  0.113500  0.084300  1
  O  O2078  1  0.009300  0.886500  0.415700  1
  O  O2079  1  0.490700  0.886500  0.915700  1
  O  O2080  1  0.990700  0.113500  0.584300  1
  O  O2081  1  0.636000  0.136200  0.080400  1
  O  O2082  1  0.136000  0.863800  0.419600  1
  O  O2083  1  0.364000  0.863800  0.919600  1
  O  O2084  1  0.864000  0.136200  0.580400  1
  O  O2085  1  0.586500  0.080700  0.046100  1
  O  O2086  1  0.086500  0.919300  0.453900  1
  O  O2087  1  0.413500  0.919300  0.953900  1
  O  O2088  1  0.913500  0.080700  0.546100  1
  O  O2089  1  0.596000  0.125000  0.115500  1
  O  O2090  1  0.096000  0.875000  0.384500  1
  O  O2091  1  0.404000  0.875000  0.884500  1
  O  O2092  1  0.904000  0.125000  0.615500  1
  O  O2093  1  0.668000  0.175400  0.064100  1
  O  O2094  1  0.168000  0.824600  0.435900  1
  O  O2095  1  0.332000  0.824600  0.935900  1
  O  O2096  1  0.832000  0.175400  0.564100  1
  O  O2097  1  0.525000  0.159000  0.084500  1
  O  O2098  1  0.025000  0.841000  0.415500  1
  O  O2099  1  0.475000  0.841000  0.915500  1
  O  O2100  1  0.975000  0.159000  0.584500  1
  O  O2101  1  0.615000  0.109300  0.359100  1
  O  O2102  1  0.115000  0.890700  0.140900  1
  O  O2103  1  0.385000  0.890700  0.640900  1
  O  O2104  1  0.885000  0.109300  0.859100  1
  O  O2105  1  0.624600  0.384300  0.243300  1
  O  O2106  1  0.124600  0.615700  0.256700  1
  O  O2107  1  0.375400  0.615700  0.756700  1
  O  O2108  1  0.875400  0.384300  0.743300  1
  O  O2109  1  0.800300  0.426600  0.160300  1
  O  O2110  1  0.300300  0.573400  0.339700  1
  O  O2111  1  0.199700  0.573400  0.839700  1
  O  O2112  1  0.699700  0.426600  0.660300  1
  O  O2113  1  0.195000  0.909400  0.355600  1
  O  O2114  1  0.695000  0.090600  0.144400  1
  O  O2115  1  0.805000  0.090600  0.644400  1
  O  O2116  1  0.305000  0.909400  0.855600  1
  O  O2117  1  0.099000  0.590100  0.136100  1
  O  O2118  1  0.599000  0.409900  0.363900  1
  O  O2119  1  0.901000  0.409900  0.863900  1
  O  O2120  1  0.401000  0.590100  0.636100  1
  O  O2121  1  0.947100  0.426300  0.071200  1
  O  O2122  1  0.447100  0.573700  0.428800  1
  O  O2123  1  0.052900  0.573700  0.928800  1
  O  O2124  1  0.552900  0.426300  0.571200  1
  O  O2125  1  0.051400  0.496600  0.109900  1
  O  O2126  1  0.551400  0.503400  0.390100  1
  O  O2127  1  0.948600  0.503400  0.890100  1
  O  O2128  1  0.448600  0.496600  0.609900  1
  O  O2129  1  0.611000  0.064000  0.330600  1
  O  O2130  1  0.111000  0.936000  0.169400  1
  O  O2131  1  0.389000  0.936000  0.669400  1
  O  O2132  1  0.889000  0.064000  0.830600  1
  O  O2133  1  0.180000  0.577700  0.191200  1
  O  O2134  1  0.680000  0.422300  0.308800  1
  O  O2135  1  0.820000  0.422300  0.808800  1
  O  O2136  1  0.320000  0.577700  0.691200  1
  O  O2137  1  0.508000  0.068400  0.385200  1
  O  O2138  1  0.008000  0.931600  0.114800  1
  O  O2139  1  0.492000  0.931600  0.614800  1
  O  O2140  1  0.992000  0.068400  0.885200  1
  O  O2141  1  0.595000  0.408800  0.247700  1
  O  O2142  1  0.095000  0.591200  0.252300  1
  O  O2143  1  0.405000  0.591200  0.752300  1
  O  O2144  1  0.905000  0.408800  0.747700  1
  O  O2145  1  0.791000  0.444700  0.145300  1
  O  O2146  1  0.291000  0.555300  0.354700  1
  O  O2147  1  0.209000  0.555300  0.854700  1
  O  O2148  1  0.709000  0.444700  0.645300  1
  O  O2149  1  0.093000  0.938000  0.353400  1
  O  O2150  1  0.593000  0.062000  0.146600  1
  O  O2151  1  0.907000  0.062000  0.646600  1
  O  O2152  1  0.407000  0.938000  0.853400  1
  O  O2153  1  0.053000  0.594000  0.100300  1
  O  O2154  1  0.553000  0.406000  0.399700  1
  O  O2155  1  0.947000  0.406000  0.899700  1
  O  O2156  1  0.447000  0.594000  0.600300  1
  O  O2157  1  0.011000  0.478000  0.109900  1
  O  O2158  1  0.511000  0.522000  0.390100  1
  O  O2159  1  0.989000  0.522000  0.890100  1
  O  O2160  1  0.489000  0.478000  0.609900  1
  O  O2161  1  0.955000  0.447000  0.085300  1
  O  O2162  1  0.455000  0.553000  0.414700  1
  O  O2163  1  0.045000  0.553000  0.914700  1
  O  O2164  1  0.545000  0.447000  0.585300  1
  O  O2165  1  0.661000  0.073000  0.379200  1
  O  O2166  1  0.161000  0.927000  0.120800  1
  O  O2167  1  0.339000  0.927000  0.620800  1
  O  O2168  1  0.839000  0.073000  0.879200  1
  O  O2169  1  0.584000  0.081300  0.376100  1
  O  O2170  1  0.084000  0.918700  0.123900  1
  O  O2171  1  0.416000  0.918700  0.623900  1
  O  O2172  1  0.916000  0.081300  0.876100  1
  O  O2173  1  0.655000  0.090000  0.355600  1
  O  O2174  1  0.155000  0.910000  0.144400  1
  O  O2175  1  0.345000  0.910000  0.644400  1
  O  O2176  1  0.845000  0.090000  0.855600  1
  O  O2177  1  0.220000  0.875500  0.270900  1
  O  O2178  1  0.720000  0.124500  0.229100  1
  O  O2179  1  0.780000  0.124500  0.729100  1
  O  O2180  1  0.280000  0.875500  0.770900  1
  O  O2181  1  0.466700  0.334400  0.179200  1
  O  O2182  1  0.966700  0.665600  0.320800  1
  O  O2183  1  0.533300  0.665600  0.820800  1
  O  O2184  1  0.033300  0.334400  0.679200  1
  O  O2185  1  0.950100  0.169500  0.036300  1
  O  O2186  1  0.450100  0.830500  0.463700  1
  O  O2187  1  0.049900  0.830500  0.963700  1
  O  O2188  1  0.549900  0.169500  0.536300  1
  O  O2189  1  0.358600  0.165500  0.476400  1
  O  O2190  1  0.858600  0.834500  0.023600  1
  O  O2191  1  0.641400  0.834500  0.523600  1
  O  O2192  1  0.141400  0.165500  0.976400  1
  O  O2193  1  0.015100  0.256500  0.022900  1
  O  O2194  1  0.515100  0.743500  0.477100  1
  O  O2195  1  0.984900  0.743500  0.977100  1
  O  O2196  1  0.484900  0.256500  0.522900  1
  O  O2197  1  0.514000  0.012000  0.184400  1
  O  O2198  1  0.014000  0.988000  0.315600  1
  O  O2199  1  0.486000  0.988000  0.815600  1
  O  O2200  1  0.986000  0.012000  0.684400  1
  O  O2201  1  0.483000  0.164400  0.140000  1
  O  O2202  1  0.983000  0.835600  0.360000  1
  O  O2203  1  0.517000  0.835600  0.860000  1
  O  O2204  1  0.017000  0.164400  0.640000  1
  O  O2205  1  0.789000  0.140200  0.003300  1
  O  O2206  1  0.289000  0.859800  0.496700  1
  O  O2207  1  0.211000  0.859800  0.996700  1
  O  O2208  1  0.711000  0.140200  0.503300  1
  O  O2209  1  0.774800  0.164900  0.037200  1
  O  O2210  1  0.274800  0.835100  0.462800  1
  O  O2211  1  0.225200  0.835100  0.962800  1
  O  O2212  1  0.725200  0.164900  0.537200  1
  O  O2213  1  0.438600  0.464900  0.030400  1
  O  O2214  1  0.938600  0.535100  0.469600  1
  O  O2215  1  0.561400  0.535100  0.969600  1
  O  O2216  1  0.061400  0.464900  0.530400  1
  O  O2217  1  0.501000  0.187000  0.258400  1
  O  O2218  1  0.001000  0.813000  0.241600  1
  O  O2219  1  0.499000  0.813000  0.741600  1
  O  O2220  1  0.999000  0.187000  0.758400  1
  O  O2221  1  0.486000  0.157700  0.256200  1
  O  O2222  1  0.986000  0.842300  0.243800  1
  O  O2223  1  0.514000  0.842300  0.743800  1
  O  O2224  1  0.014000  0.157700  0.756200  1
  O  O2225  1  0.516000  0.188000  0.228000  1
  O  O2226  1  0.016000  0.812000  0.272000  1
  O  O2227  1  0.484000  0.812000  0.772000  1
  O  O2228  1  0.984000  0.188000  0.728000  1
