# generated using pymatgen
data_Fe2P4H48C72S6(N4O17)3
_symmetry_space_group_name_H-M   'P 1'
_cell_length_a   21.95070000
_cell_length_b   32.85970000
_cell_length_c   33.31750000
_cell_angle_alpha   90.00000000
_cell_angle_beta   90.00000000
_cell_angle_gamma   90.90700000
_symmetry_Int_Tables_number   1
_chemical_formula_structural   Fe2P4H48C72S6(N4O17)3
_chemical_formula_sum   'Fe16 P32 H384 C576 S48 N96 O408'
_cell_volume   24028.68238711
_cell_formula_units_Z   8
loop_
 _symmetry_equiv_pos_site_id
 _symmetry_equiv_pos_as_xyz
  1  'x, y, z'
loop_
 _atom_site_type_symbol
 _atom_site_label
 _atom_site_symmetry_multiplicity
 _atom_site_fract_x
 _atom_site_fract_y
 _atom_site_fract_z
 _atom_site_occupancy
  Fe  Fe1  1  0.945930  0.188320  0.653610  1
  Fe  Fe2  1  0.554070  0.311680  0.153610  1
  Fe  Fe3  1  0.054070  0.811680  0.346390  1
  Fe  Fe4  1  0.445930  0.688320  0.846390  1
  Fe  Fe5  1  0.666667  0.058470  0.970950  1
  Fe  Fe6  1  0.833333  0.441530  0.470950  1
  Fe  Fe7  1  0.333333  0.941530  0.029050  1
  Fe  Fe8  1  0.166667  0.558470  0.529050  1
  Fe  Fe9  1  0.420570  0.327660  0.748840  1
  Fe  Fe10  1  0.079430  0.172340  0.248840  1
  Fe  Fe11  1  0.579430  0.672340  0.251160  1
  Fe  Fe12  1  0.920570  0.827660  0.751160  1
  Fe  Fe13  1  0.465770  0.962670  0.618750  1
  Fe  Fe14  1  0.034230  0.537330  0.118750  1
  Fe  Fe15  1  0.534230  0.037330  0.381250  1
  Fe  Fe16  1  0.965770  0.462670  0.881250  1
  P  P17  1  0.687700  0.141900  0.731200  1
  P  P18  1  0.812300  0.358100  0.231200  1
  P  P19  1  0.312300  0.858100  0.268800  1
  P  P20  1  0.187700  0.641900  0.768800  1
  P  P21  1  0.642100  0.129700  0.788900  1
  P  P22  1  0.857900  0.370300  0.288900  1
  P  P23  1  0.357900  0.870300  0.211100  1
  P  P24  1  0.142100  0.629700  0.711100  1
  P  P25  1  0.595400  0.164000  0.742400  1
  P  P26  1  0.904600  0.336000  0.242400  1
  P  P27  1  0.404600  0.836000  0.257600  1
  P  P28  1  0.095400  0.664000  0.757600  1
  P  P29  1  0.609200  0.099200  0.734300  1
  P  P30  1  0.890800  0.400800  0.234300  1
  P  P31  1  0.390800  0.900800  0.265700  1
  P  P32  1  0.109200  0.599200  0.765700  1
  P  P33  1  0.656700  0.094800  0.746900  1
  P  P34  1  0.843300  0.405200  0.246900  1
  P  P35  1  0.343300  0.905200  0.253100  1
  P  P36  1  0.156700  0.594800  0.753100  1
  P  P37  1  0.654900  0.152100  0.781000  1
  P  P38  1  0.845100  0.347900  0.281000  1
  P  P39  1  0.345100  0.847900  0.219000  1
  P  P40  1  0.154900  0.652100  0.719000  1
  P  P41  1  0.654200  0.152900  0.715000  1
  P  P42  1  0.845800  0.347100  0.215000  1
  P  P43  1  0.345800  0.847100  0.285000  1
  P  P44  1  0.154200  0.652900  0.785000  1
  P  P45  1  0.573600  0.131200  0.748000  1
  P  P46  1  0.926400  0.368800  0.248000  1
  P  P47  1  0.426400  0.868800  0.252000  1
  P  P48  1  0.073600  0.631200  0.752000  1
  H  H49  1  0.080500  0.212100  0.669000  1
  H  H50  1  0.419500  0.287900  0.169000  1
  H  H51  1  0.919500  0.787900  0.331000  1
  H  H52  1  0.580500  0.712100  0.831000  1
  H  H53  1  0.040600  0.153500  0.592500  1
  H  H54  1  0.459400  0.346500  0.092500  1
  H  H55  1  0.959400  0.846500  0.407500  1
  H  H56  1  0.540600  0.653500  0.907500  1
  H  H57  1  0.995600  0.257600  0.597100  1
  H  H58  1  0.504400  0.242400  0.097100  1
  H  H59  1  0.004400  0.742400  0.402900  1
  H  H60  1  0.495600  0.757600  0.902900  1
  H  H61  1  0.432300  0.870900  0.614700  1
  H  H62  1  0.067700  0.629100  0.114700  1
  H  H63  1  0.567700  0.129100  0.385300  1
  H  H64  1  0.932300  0.370900  0.885300  1
  H  H65  1  0.468600  0.917900  0.536800  1
  H  H66  1  0.031400  0.582100  0.036800  1
  H  H67  1  0.531400  0.082100  0.463200  1
  H  H68  1  0.968600  0.417900  0.963200  1
  H  H69  1  0.320900  0.369100  0.695600  1
  H  H70  1  0.179100  0.130900  0.195600  1
  H  H71  1  0.679100  0.630900  0.304400  1
  H  H72  1  0.820900  0.869100  0.804400  1
  H  H73  1  0.168000  0.177300  0.686600  1
  H  H74  1  0.332000  0.322700  0.186600  1
  H  H75  1  0.832000  0.822700  0.313400  1
  H  H76  1  0.668000  0.677300  0.813400  1
  H  H77  1  0.037300  0.146900  0.519600  1
  H  H78  1  0.462700  0.353100  0.019600  1
  H  H79  1  0.962700  0.853100  0.480400  1
  H  H80  1  0.537300  0.646900  0.980400  1
  H  H81  1  0.035400  0.322200  0.606000  1
  H  H82  1  0.464600  0.177800  0.106000  1
  H  H83  1  0.964600  0.677800  0.394000  1
  H  H84  1  0.535400  0.822200  0.894000  1
  H  H85  1  0.350100  0.829700  0.637600  1
  H  H86  1  0.149900  0.670300  0.137600  1
  H  H87  1  0.649900  0.170300  0.362400  1
  H  H88  1  0.850100  0.329700  0.862400  1
  H  H89  1  0.528400  0.870200  0.506600  1
  H  H90  1  0.971600  0.629800  0.006600  1
  H  H91  1  0.471600  0.129800  0.493400  1
  H  H92  1  0.028400  0.370200  0.993400  1
  H  H93  1  0.214500  0.357700  0.688500  1
  H  H94  1  0.285500  0.142300  0.188500  1
  H  H95  1  0.785500  0.642300  0.311500  1
  H  H96  1  0.714500  0.857700  0.811500  1
  H  H97  1  0.164900  0.107500  0.695200  1
  H  H98  1  0.335100  0.392500  0.195200  1
  H  H99  1  0.835100  0.892500  0.304800  1
  H  H100  1  0.664900  0.607500  0.804800  1
  H  H101  1  0.962800  0.174400  0.483300  1
  H  H102  1  0.537200  0.325600  0.983300  1
  H  H103  1  0.037200  0.825600  0.516700  1
  H  H104  1  0.462800  0.674400  0.016700  1
  H  H105  1  0.038400  0.350900  0.668500  1
  H  H106  1  0.461600  0.149100  0.168500  1
  H  H107  1  0.961600  0.649100  0.331500  1
  H  H108  1  0.538400  0.850900  0.831500  1
  H  H109  1  0.274900  0.859700  0.679400  1
  H  H110  1  0.225100  0.640300  0.179400  1
  H  H111  1  0.725100  0.140300  0.320600  1
  H  H112  1  0.774900  0.359700  0.820600  1
  H  H113  1  0.609100  0.843200  0.541600  1
  H  H114  1  0.890900  0.656800  0.041600  1
  H  H115  1  0.390900  0.156800  0.458400  1
  H  H116  1  0.109100  0.343200  0.958400  1
  H  H117  1  0.166500  0.305200  0.721800  1
  H  H118  1  0.333500  0.194800  0.221800  1
  H  H119  1  0.833500  0.694800  0.278200  1
  H  H120  1  0.666500  0.805200  0.778200  1
  H  H121  1  0.069100  0.071700  0.686700  1
  H  H122  1  0.430900  0.428300  0.186700  1
  H  H123  1  0.930900  0.928300  0.313300  1
  H  H124  1  0.569100  0.571700  0.813300  1
  H  H125  1  0.882800  0.204300  0.513800  1
  H  H126  1  0.617200  0.295700  0.013800  1
  H  H127  1  0.117200  0.795700  0.486200  1
  H  H128  1  0.382800  0.704300  0.986200  1
  H  H129  1  0.006800  0.311300  0.725100  1
  H  H130  1  0.493200  0.188700  0.225100  1
  H  H131  1  0.993200  0.688700  0.274900  1
  H  H132  1  0.506800  0.811300  0.774900  1
  H  H133  1  0.286300  0.927700  0.694800  1
  H  H134  1  0.213700  0.572300  0.194800  1
  H  H135  1  0.713700  0.072300  0.305200  1
  H  H136  1  0.786300  0.427700  0.805200  1
  H  H137  1  0.629000  0.864600  0.607500  1
  H  H138  1  0.871000  0.635400  0.107500  1
  H  H139  1  0.371000  0.135400  0.392500  1
  H  H140  1  0.129000  0.364600  0.892500  1
  H  H141  1  0.221900  0.264900  0.765300  1
  H  H142  1  0.278100  0.235100  0.265300  1
  H  H143  1  0.778100  0.735100  0.234700  1
  H  H144  1  0.721900  0.764900  0.734700  1
  H  H145  1  0.956800  0.077800  0.670100  1
  H  H146  1  0.543200  0.422200  0.170100  1
  H  H147  1  0.043200  0.922200  0.329900  1
  H  H148  1  0.456800  0.577800  0.829900  1
  H  H149  1  0.833800  0.225600  0.580900  1
  H  H150  1  0.666200  0.274400  0.080900  1
  H  H151  1  0.166200  0.774400  0.419100  1
  H  H152  1  0.333800  0.725600  0.919100  1
  H  H153  1  0.955900  0.243300  0.749600  1
  H  H154  1  0.544100  0.256700  0.249600  1
  H  H155  1  0.044100  0.756700  0.250400  1
  H  H156  1  0.455900  0.743300  0.750400  1
  H  H157  1  0.342500  0.995900  0.686900  1
  H  H158  1  0.157500  0.504100  0.186900  1
  H  H159  1  0.657500  0.004100  0.313100  1
  H  H160  1  0.842500  0.495900  0.813100  1
  H  H161  1  0.596500  0.912300  0.667400  1
  H  H162  1  0.903500  0.587700  0.167400  1
  H  H163  1  0.403500  0.087700  0.332600  1
  H  H164  1  0.096500  0.412300  0.832600  1
  H  H165  1  0.327000  0.249100  0.797300  1
  H  H166  1  0.173000  0.250900  0.297300  1
  H  H167  1  0.673000  0.750900  0.202700  1
  H  H168  1  0.827000  0.749100  0.702700  1
  H  H169  1  0.852600  0.132400  0.594300  1
  H  H170  1  0.647400  0.367600  0.094300  1
  H  H171  1  0.147400  0.867600  0.405700  1
  H  H172  1  0.352600  0.632400  0.905700  1
  H  H173  1  0.864300  0.267800  0.686700  1
  H  H174  1  0.635700  0.232200  0.186700  1
  H  H175  1  0.135700  0.732200  0.313300  1
  H  H176  1  0.364300  0.767800  0.813300  1
  H  H177  1  0.959300  0.129300  0.742100  1
  H  H178  1  0.540700  0.370700  0.242100  1
  H  H179  1  0.040700  0.870700  0.257900  1
  H  H180  1  0.459300  0.629300  0.757900  1
  H  H181  1  0.411500  0.057100  0.601000  1
  H  H182  1  0.088500  0.442900  0.101000  1
  H  H183  1  0.588500  0.942900  0.399000  1
  H  H184  1  0.911500  0.557100  0.899000  1
  H  H185  1  0.452700  0.950600  0.720000  1
  H  H186  1  0.047300  0.549400  0.220000  1
  H  H187  1  0.547300  0.049400  0.280000  1
  H  H188  1  0.952700  0.450600  0.780000  1
  H  H189  1  0.456800  0.300400  0.846100  1
  H  H190  1  0.043200  0.199600  0.346100  1
  H  H191  1  0.543200  0.699600  0.153900  1
  H  H192  1  0.956800  0.800400  0.653900  1
  H  H193  1  0.756100  0.055800  0.692800  1
  H  H194  1  0.743900  0.444200  0.192800  1
  H  H195  1  0.243900  0.944200  0.307200  1
  H  H196  1  0.256100  0.555800  0.807200  1
  H  H197  1  0.669600  0.219800  0.661100  1
  H  H198  1  0.830400  0.280200  0.161100  1
  H  H199  1  0.330400  0.780200  0.338900  1
  H  H200  1  0.169600  0.719800  0.838900  1
  H  H201  1  0.787300  0.180000  0.803100  1
  H  H202  1  0.712700  0.320000  0.303100  1
  H  H203  1  0.212700  0.820000  0.196900  1
  H  H204  1  0.287300  0.680000  0.696900  1
  H  H205  1  0.446800  0.111300  0.728300  1
  H  H206  1  0.053200  0.388700  0.228300  1
  H  H207  1  0.553200  0.888700  0.271700  1
  H  H208  1  0.946800  0.611300  0.771700  1
  H  H209  1  0.640600  0.006600  0.757800  1
  H  H210  1  0.859400  0.493400  0.257800  1
  H  H211  1  0.359400  0.993400  0.242200  1
  H  H212  1  0.140600  0.506600  0.742200  1
  H  H213  1  0.489400  0.165100  0.817600  1
  H  H214  1  0.010600  0.334900  0.317600  1
  H  H215  1  0.510600  0.834900  0.182400  1
  H  H216  1  0.989400  0.665100  0.682400  1
  H  H217  1  0.852200  0.085800  0.705800  1
  H  H218  1  0.647800  0.414200  0.205800  1
  H  H219  1  0.147800  0.914200  0.294200  1
  H  H220  1  0.352200  0.585800  0.794200  1
  H  H221  1  0.751300  0.191700  0.627400  1
  H  H222  1  0.748700  0.308300  0.127400  1
  H  H223  1  0.248700  0.808300  0.372600  1
  H  H224  1  0.251300  0.691700  0.872600  1
  H  H225  1  0.834500  0.217600  0.751700  1
  H  H226  1  0.665500  0.282400  0.251700  1
  H  H227  1  0.165500  0.782400  0.248300  1
  H  H228  1  0.334500  0.717600  0.748300  1
  H  H229  1  0.437900  0.041500  0.719000  1
  H  H230  1  0.062100  0.458500  0.219000  1
  H  H231  1  0.562100  0.958500  0.281000  1
  H  H232  1  0.937900  0.541500  0.781000  1
  H  H233  1  0.624500  0.986000  0.690200  1
  H  H234  1  0.875500  0.514000  0.190200  1
  H  H235  1  0.375500  0.014000  0.309800  1
  H  H236  1  0.124500  0.486000  0.809800  1
  H  H237  1  0.430500  0.202700  0.775400  1
  H  H238  1  0.069500  0.297300  0.275400  1
  H  H239  1  0.569500  0.797300  0.224600  1
  H  H240  1  0.930500  0.702700  0.724600  1
  H  H241  1  0.621000  0.972900  0.593900  1
  H  H242  1  0.879000  0.527100  0.093900  1
  H  H243  1  0.379000  0.027100  0.406100  1
  H  H244  1  0.121000  0.472900  0.906100  1
  H  H245  1  0.560600  0.351100  0.699400  1
  H  H246  1  0.939400  0.148900  0.199400  1
  H  H247  1  0.439400  0.648900  0.300600  1
  H  H248  1  0.060600  0.851100  0.800600  1
  H  H249  1  0.797800  0.102700  0.933500  1
  H  H250  1  0.702200  0.397300  0.433500  1
  H  H251  1  0.202200  0.897300  0.066500  1
  H  H252  1  0.297800  0.602700  0.566500  1
  H  H253  1  0.349400  0.245700  0.705500  1
  H  H254  1  0.150600  0.254300  0.205500  1
  H  H255  1  0.650600  0.754300  0.294500  1
  H  H256  1  0.849400  0.745700  0.794500  1
  H  H257  1  0.619100  0.976400  0.907700  1
  H  H258  1  0.880900  0.523600  0.407700  1
  H  H259  1  0.380900  0.023600  0.092300  1
  H  H260  1  0.119100  0.476400  0.592300  1
  H  H261  1  0.552100  0.127200  0.962200  1
  H  H262  1  0.947900  0.372800  0.462200  1
  H  H263  1  0.447900  0.872800  0.037800  1
  H  H264  1  0.052100  0.627200  0.537800  1
  H  H265  1  0.542200  0.077800  0.626200  1
  H  H266  1  0.957800  0.422200  0.126200  1
  H  H267  1  0.457800  0.922200  0.373800  1
  H  H268  1  0.042200  0.577800  0.873800  1
  H  H269  1  0.574700  0.270500  0.789900  1
  H  H270  1  0.925300  0.229500  0.289900  1
  H  H271  1  0.425300  0.729500  0.210100  1
  H  H272  1  0.074700  0.770500  0.710100  1
  H  H273  1  0.710200  0.036900  0.847800  1
  H  H274  1  0.789800  0.463100  0.347800  1
  H  H275  1  0.289800  0.963100  0.152200  1
  H  H276  1  0.210200  0.536900  0.652200  1
  H  H277  1  0.528400  0.249900  0.675100  1
  H  H278  1  0.971600  0.250100  0.175100  1
  H  H279  1  0.471600  0.750100  0.324900  1
  H  H280  1  0.028400  0.749900  0.824900  1
  H  H281  1  0.543700  0.083800  0.879500  1
  H  H282  1  0.956300  0.416200  0.379500  1
  H  H283  1  0.456300  0.916200  0.120500  1
  H  H284  1  0.043700  0.583800  0.620500  1
  H  H285  1  0.695100  0.160600  0.893700  1
  H  H286  1  0.804900  0.339400  0.393700  1
  H  H287  1  0.304900  0.839400  0.106300  1
  H  H288  1  0.195100  0.660600  0.606300  1
  H  H289  1  0.638600  0.103500  0.642000  1
  H  H290  1  0.861400  0.396500  0.142000  1
  H  H291  1  0.361400  0.896500  0.358000  1
  H  H292  1  0.138600  0.603500  0.858000  1
  H  H293  1  0.663200  0.246700  0.760900  1
  H  H294  1  0.836800  0.253300  0.260900  1
  H  H295  1  0.336800  0.753300  0.239100  1
  H  H296  1  0.163200  0.746700  0.739100  1
  H  H297  1  0.758900  0.072500  0.799700  1
  H  H298  1  0.741100  0.427500  0.299700  1
  H  H299  1  0.241100  0.927500  0.200300  1
  H  H300  1  0.258900  0.572500  0.700300  1
  H  H301  1  0.523100  0.180400  0.664400  1
  H  H302  1  0.976900  0.319600  0.164400  1
  H  H303  1  0.476900  0.819600  0.335600  1
  H  H304  1  0.023100  0.680400  0.835600  1
  H  H305  1  0.535300  0.061700  0.813600  1
  H  H306  1  0.964700  0.438300  0.313600  1
  H  H307  1  0.464700  0.938300  0.186400  1
  H  H308  1  0.035300  0.561700  0.686400  1
  H  H309  1  0.629900  0.198800  0.854400  1
  H  H310  1  0.870100  0.301200  0.354400  1
  H  H311  1  0.370100  0.801200  0.145600  1
  H  H312  1  0.129900  0.698800  0.645600  1
  H  H313  1  0.515800  0.040800  0.545600  1
  H  H314  1  0.984200  0.459200  0.045600  1
  H  H315  1  0.484200  0.959200  0.454400  1
  H  H316  1  0.015800  0.540800  0.954400  1
  H  H317  1  0.556000  0.359800  0.805400  1
  H  H318  1  0.944000  0.140200  0.305400  1
  H  H319  1  0.444000  0.640200  0.194600  1
  H  H320  1  0.056000  0.859800  0.694600  1
  H  H321  1  0.763100  0.994000  0.908800  1
  H  H322  1  0.736900  0.506000  0.408800  1
  H  H323  1  0.236900  0.006000  0.091200  1
  H  H324  1  0.263100  0.494000  0.591200  1
  H  H325  1  0.460800  0.311300  0.642000  1
  H  H326  1  0.039200  0.188700  0.142000  1
  H  H327  1  0.539200  0.688700  0.358000  1
  H  H328  1  0.960800  0.811300  0.858000  1
  H  H329  1  0.505000  0.039500  0.950600  1
  H  H330  1  0.995000  0.460500  0.450600  1
  H  H331  1  0.495000  0.960500  0.049400  1
  H  H332  1  0.005000  0.539500  0.549400  1
  H  H333  1  0.713500  0.167900  0.974300  1
  H  H334  1  0.786500  0.332100  0.474300  1
  H  H335  1  0.286500  0.832100  0.025700  1
  H  H336  1  0.213500  0.667900  0.525700  1
  H  H337  1  0.424500  0.038400  0.496900  1
  H  H338  1  0.075500  0.461600  0.996900  1
  H  H339  1  0.575500  0.961600  0.503100  1
  H  H340  1  0.924500  0.538400  0.003100  1
  H  H341  1  0.506100  0.402100  0.863100  1
  H  H342  1  0.993900  0.097900  0.363100  1
  H  H343  1  0.493900  0.597900  0.136900  1
  H  H344  1  0.006100  0.902100  0.636900  1
  H  H345  1  0.744900  0.924100  0.944200  1
  H  H346  1  0.755100  0.575900  0.444200  1
  H  H347  1  0.255100  0.075900  0.055800  1
  H  H348  1  0.244900  0.424100  0.555800  1
  H  H349  1  0.476200  0.387200  0.619500  1
  H  H350  1  0.023800  0.112800  0.119500  1
  H  H351  1  0.523800  0.612800  0.380500  1
  H  H352  1  0.976200  0.887200  0.880500  1
  H  H353  1  0.458600  0.058400  0.020700  1
  H  H354  1  0.041400  0.441600  0.520700  1
  H  H355  1  0.541400  0.941600  0.979300  1
  H  H356  1  0.958600  0.558400  0.479300  1
  H  H357  1  0.805600  0.163400  0.023300  1
  H  H358  1  0.694400  0.336600  0.523300  1
  H  H359  1  0.194400  0.836600  0.976700  1
  H  H360  1  0.305600  0.663400  0.476700  1
  H  H361  1  0.325800  0.011000  0.481800  1
  H  H362  1  0.174200  0.489000  0.981800  1
  H  H363  1  0.674200  0.989000  0.518200  1
  H  H364  1  0.825800  0.511000  0.018200  1
  H  H365  1  0.409100  0.422900  0.891500  1
  H  H366  1  0.090900  0.077100  0.391500  1
  H  H367  1  0.590900  0.577100  0.108500  1
  H  H368  1  0.909100  0.922900  0.608500  1
  H  H369  1  0.704600  0.889000  0.998200  1
  H  H370  1  0.795400  0.611000  0.498200  1
  H  H371  1  0.295400  0.111000  0.001800  1
  H  H372  1  0.204600  0.389000  0.501800  1
  H  H373  1  0.473000  0.455000  0.638400  1
  H  H374  1  0.027000  0.045000  0.138400  1
  H  H375  1  0.527000  0.545000  0.361600  1
  H  H376  1  0.973000  0.955000  0.861600  1
  H  H377  1  0.478400  0.080900  0.087500  1
  H  H378  1  0.021600  0.419100  0.587500  1
  H  H379  1  0.521600  0.919100  0.912500  1
  H  H380  1  0.978400  0.580900  0.412500  1
  H  H381  1  0.868700  0.118200  0.063400  1
  H  H382  1  0.631300  0.381800  0.563400  1
  H  H383  1  0.131300  0.881800  0.936600  1
  H  H384  1  0.368700  0.618200  0.436600  1
  H  H385  1  0.287100  0.957500  0.523900  1
  H  H386  1  0.212900  0.542500  0.023900  1
  H  H387  1  0.712900  0.042500  0.476100  1
  H  H388  1  0.787100  0.457500  0.976100  1
  H  H389  1  0.320200  0.408500  0.856400  1
  H  H390  1  0.179800  0.091500  0.356400  1
  H  H391  1  0.679800  0.591500  0.143600  1
  H  H392  1  0.820200  0.908500  0.643600  1
  H  H393  1  0.642200  0.926500  0.044900  1
  H  H394  1  0.857800  0.573500  0.544900  1
  H  H395  1  0.357800  0.073500  0.955100  1
  H  H396  1  0.142200  0.426500  0.455100  1
  H  H397  1  0.444000  0.471700  0.703300  1
  H  H398  1  0.056000  0.028300  0.203300  1
  H  H399  1  0.556000  0.528300  0.296700  1
  H  H400  1  0.944000  0.971700  0.796700  1
  H  H401  1  0.577400  0.098200  0.104100  1
  H  H402  1  0.922600  0.401800  0.604100  1
  H  H403  1  0.422600  0.901800  0.895900  1
  H  H404  1  0.077400  0.598200  0.395900  1
  H  H405  1  0.843200  0.048400  0.064600  1
  H  H406  1  0.656800  0.451600  0.564600  1
  H  H407  1  0.156800  0.951600  0.935400  1
  H  H408  1  0.343200  0.548400  0.435400  1
  H  H409  1  0.343000  0.937600  0.579000  1
  H  H410  1  0.157000  0.562400  0.079000  1
  H  H411  1  0.657000  0.062400  0.421000  1
  H  H412  1  0.843000  0.437600  0.921000  1
  H  H413  1  0.319400  0.364800  0.803600  1
  H  H414  1  0.180600  0.135200  0.303600  1
  H  H415  1  0.680600  0.635200  0.196400  1
  H  H416  1  0.819400  0.864800  0.696400  1
  H  H417  1  0.622900  0.994500  0.033500  1
  H  H418  1  0.877100  0.505500  0.533500  1
  H  H419  1  0.377100  0.005500  0.966500  1
  H  H420  1  0.122900  0.494500  0.466500  1
  H  H421  1  0.420500  0.420500  0.750100  1
  H  H422  1  0.079500  0.079500  0.250100  1
  H  H423  1  0.579500  0.579500  0.249900  1
  H  H424  1  0.920500  0.920500  0.749900  1
  H  H425  1  0.656100  0.089600  0.060700  1
  H  H426  1  0.843900  0.410400  0.560700  1
  H  H427  1  0.343900  0.910400  0.939300  1
  H  H428  1  0.156100  0.589600  0.439300  1
  H  H429  1  0.763500  0.023500  0.027000  1
  H  H430  1  0.736500  0.476500  0.527000  1
  H  H431  1  0.236500  0.976500  0.973000  1
  H  H432  1  0.263500  0.523500  0.473000  1
  C  C433  1  0.077800  0.183400  0.672700  1
  C  C434  1  0.422200  0.316600  0.172700  1
  C  C435  1  0.922200  0.816600  0.327300  1
  C  C436  1  0.577800  0.683400  0.827300  1
  C  C437  1  0.007500  0.163800  0.577400  1
  C  C438  1  0.492500  0.336200  0.077400  1
  C  C439  1  0.992500  0.836200  0.422600  1
  C  C440  1  0.507500  0.663800  0.922600  1
  C  C441  1  0.998200  0.268100  0.623600  1
  C  C442  1  0.501800  0.231900  0.123600  1
  C  C443  1  0.001800  0.731900  0.376400  1
  C  C444  1  0.498200  0.768100  0.876400  1
  C  C445  1  0.401800  0.882400  0.631200  1
  C  C446  1  0.098200  0.617600  0.131200  1
  C  C447  1  0.598200  0.117600  0.368800  1
  C  C448  1  0.901800  0.382400  0.868800  1
  C  C449  1  0.501800  0.907400  0.551500  1
  C  C450  1  0.998200  0.592600  0.051500  1
  C  C451  1  0.498200  0.092600  0.448500  1
  C  C452  1  0.001800  0.407400  0.948500  1
  C  C453  1  0.300900  0.348300  0.710600  1
  C  C454  1  0.199100  0.151700  0.210600  1
  C  C455  1  0.699100  0.651700  0.289400  1
  C  C456  1  0.800900  0.848300  0.789400  1
  C  C457  1  0.130700  0.162600  0.683100  1
  C  C458  1  0.369300  0.337400  0.183100  1
  C  C459  1  0.869300  0.837400  0.316900  1
  C  C460  1  0.630700  0.662600  0.816900  1
  C  C461  1  0.005400  0.160600  0.533100  1
  C  C462  1  0.494600  0.339400  0.033100  1
  C  C463  1  0.994600  0.839400  0.466900  1
  C  C464  1  0.505400  0.660600  0.966900  1
  C  C465  1  0.021300  0.307200  0.628600  1
  C  C466  1  0.478700  0.192800  0.128600  1
  C  C467  1  0.978700  0.692800  0.371400  1
  C  C468  1  0.521300  0.807200  0.871400  1
  C  C469  1  0.352900  0.857600  0.644800  1
  C  C470  1  0.147100  0.642400  0.144800  1
  C  C471  1  0.647100  0.142400  0.355200  1
  C  C472  1  0.852900  0.357600  0.855200  1
  C  C473  1  0.537000  0.878800  0.533300  1
  C  C474  1  0.963000  0.621200  0.033300  1
  C  C475  1  0.463000  0.121200  0.466700  1
  C  C476  1  0.037000  0.378800  0.966700  1
  C  C477  1  0.237300  0.340800  0.705900  1
  C  C478  1  0.262700  0.159200  0.205900  1
  C  C479  1  0.762700  0.659200  0.294100  1
  C  C480  1  0.737300  0.840800  0.794100  1
  C  C481  1  0.129100  0.121700  0.688200  1
  C  C482  1  0.370900  0.378300  0.188200  1
  C  C483  1  0.870900  0.878300  0.311800  1
  C  C484  1  0.629100  0.621700  0.811800  1
  C  C485  1  0.961400  0.175900  0.511700  1
  C  C486  1  0.538600  0.324100  0.011700  1
  C  C487  1  0.038600  0.824100  0.488300  1
  C  C488  1  0.461400  0.675900  0.988300  1
  C  C489  1  0.023900  0.323700  0.665000  1
  C  C490  1  0.476100  0.176300  0.165000  1
  C  C491  1  0.976100  0.676300  0.335000  1
  C  C492  1  0.523900  0.823700  0.835000  1
  C  C493  1  0.308500  0.875200  0.669300  1
  C  C494  1  0.191500  0.624800  0.169300  1
  C  C495  1  0.691500  0.124800  0.330700  1
  C  C496  1  0.808500  0.375200  0.830700  1
  C  C497  1  0.584200  0.863000  0.553900  1
  C  C498  1  0.915800  0.637000  0.053900  1
  C  C499  1  0.415800  0.137000  0.446100  1
  C  C500  1  0.084200  0.363000  0.946100  1
  C  C501  1  0.208900  0.310200  0.725600  1
  C  C502  1  0.291100  0.189800  0.225600  1
  C  C503  1  0.791100  0.689800  0.274400  1
  C  C504  1  0.708900  0.810200  0.774400  1
  C  C505  1  0.072400  0.100300  0.682900  1
  C  C506  1  0.427600  0.399700  0.182900  1
  C  C507  1  0.927600  0.899700  0.317100  1
  C  C508  1  0.572400  0.600300  0.817100  1
  C  C509  1  0.914900  0.193500  0.529400  1
  C  C510  1  0.585100  0.306500  0.029400  1
  C  C511  1  0.085100  0.806500  0.470600  1
  C  C512  1  0.414900  0.693500  0.970600  1
  C  C513  1  0.004600  0.300300  0.698800  1
  C  C514  1  0.495400  0.199700  0.198800  1
  C  C515  1  0.995400  0.699700  0.301200  1
  C  C516  1  0.504600  0.800300  0.801200  1
  C  C517  1  0.315700  0.915300  0.678000  1
  C  C518  1  0.184300  0.584700  0.178000  1
  C  C519  1  0.684300  0.084700  0.322000  1
  C  C520  1  0.815700  0.415300  0.822000  1
  C  C521  1  0.596200  0.875600  0.592600  1
  C  C522  1  0.903800  0.624400  0.092600  1
  C  C523  1  0.403800  0.124400  0.407400  1
  C  C524  1  0.096200  0.375600  0.907400  1
  C  C525  1  0.241200  0.286600  0.751000  1
  C  C526  1  0.258800  0.213400  0.251000  1
  C  C527  1  0.758800  0.713400  0.249000  1
  C  C528  1  0.741200  0.786600  0.749000  1
  C  C529  1  0.021500  0.123500  0.671800  1
  C  C530  1  0.478500  0.376500  0.171800  1
  C  C531  1  0.978500  0.876500  0.328200  1
  C  C532  1  0.521500  0.623500  0.828200  1
  C  C533  1  0.912800  0.196200  0.571300  1
  C  C534  1  0.587200  0.303800  0.071300  1
  C  C535  1  0.087200  0.803800  0.428700  1
  C  C536  1  0.412800  0.696200  0.928700  1
  C  C537  1  0.983000  0.261600  0.692300  1
  C  C538  1  0.517000  0.238400  0.192300  1
  C  C539  1  0.017000  0.738400  0.307700  1
  C  C540  1  0.483000  0.761600  0.807700  1
  C  C541  1  0.362100  0.938500  0.664100  1
  C  C542  1  0.137900  0.561500  0.164100  1
  C  C543  1  0.637900  0.061500  0.335900  1
  C  C544  1  0.862100  0.438500  0.835900  1
  C  C545  1  0.559400  0.904400  0.608700  1
  C  C546  1  0.940600  0.595600  0.108700  1
  C  C547  1  0.440600  0.095600  0.391300  1
  C  C548  1  0.059400  0.404400  0.891300  1
  C  C549  1  0.303300  0.294800  0.755600  1
  C  C550  1  0.196700  0.205200  0.255600  1
  C  C551  1  0.696700  0.705200  0.244400  1
  C  C552  1  0.803300  0.794800  0.744400  1
  C  C553  1  0.963900  0.106300  0.667100  1
  C  C554  1  0.536100  0.393700  0.167100  1
  C  C555  1  0.036100  0.893700  0.332900  1
  C  C556  1  0.463900  0.606300  0.832900  1
  C  C557  1  0.866800  0.212500  0.593800  1
  C  C558  1  0.633200  0.287500  0.093800  1
  C  C559  1  0.133200  0.787500  0.406200  1
  C  C560  1  0.366800  0.712500  0.906200  1
  C  C561  1  0.956200  0.235400  0.722200  1
  C  C562  1  0.543800  0.264600  0.222200  1
  C  C563  1  0.043800  0.764600  0.277800  1
  C  C564  1  0.456200  0.735400  0.777800  1
  C  C565  1  0.369800  0.981000  0.670600  1
  C  C566  1  0.130200  0.519000  0.170600  1
  C  C567  1  0.630200  0.019000  0.329400  1
  C  C568  1  0.869800  0.481000  0.829400  1
  C  C569  1  0.565700  0.921300  0.649600  1
  C  C570  1  0.934300  0.578700  0.149600  1
  C  C571  1  0.434300  0.078700  0.350400  1
  C  C572  1  0.065700  0.421300  0.850400  1
  C  C573  1  0.342800  0.270700  0.781300  1
  C  C574  1  0.157200  0.229300  0.281300  1
  C  C575  1  0.657200  0.729300  0.218700  1
  C  C576  1  0.842800  0.770700  0.718700  1
  C  C577  1  0.860200  0.112500  0.651300  1
  C  C578  1  0.639800  0.387500  0.151300  1
  C  C579  1  0.139800  0.887500  0.348700  1
  C  C580  1  0.360200  0.612500  0.848700  1
  C  C581  1  0.815400  0.225800  0.653900  1
  C  C582  1  0.684600  0.274200  0.153900  1
  C  C583  1  0.184600  0.774200  0.346100  1
  C  C584  1  0.315400  0.725800  0.846100  1
  C  C585  1  0.902800  0.177300  0.741700  1
  C  C586  1  0.597200  0.322700  0.241700  1
  C  C587  1  0.097200  0.822700  0.258300  1
  C  C588  1  0.402800  0.677300  0.758300  1
  C  C589  1  0.422000  0.042400  0.659100  1
  C  C590  1  0.078000  0.457600  0.159100  1
  C  C591  1  0.578000  0.957600  0.340900  1
  C  C592  1  0.922000  0.542400  0.840900  1
  C  C593  1  0.537500  0.966500  0.699500  1
  C  C594  1  0.962500  0.533500  0.199500  1
  C  C595  1  0.462500  0.033500  0.300500  1
  C  C596  1  0.037500  0.466500  0.800500  1
  C  C597  1  0.438700  0.255200  0.806200  1
  C  C598  1  0.061300  0.244800  0.306200  1
  C  C599  1  0.561300  0.744800  0.193800  1
  C  C600  1  0.938700  0.755200  0.693800  1
  C  C601  1  0.832500  0.117200  0.614700  1
  C  C602  1  0.667500  0.382800  0.114700  1
  C  C603  1  0.167500  0.882800  0.385300  1
  C  C604  1  0.332500  0.617200  0.885300  1
  C  C605  1  0.824200  0.257800  0.681700  1
  C  C606  1  0.675800  0.242200  0.181700  1
  C  C607  1  0.175800  0.742200  0.318300  1
  C  C608  1  0.324200  0.757800  0.818300  1
  C  C609  1  0.923900  0.139900  0.754400  1
  C  C610  1  0.576100  0.360100  0.254400  1
  C  C611  1  0.076100  0.860100  0.245600  1
  C  C612  1  0.423900  0.639900  0.745600  1
  C  C613  1  0.418600  0.068100  0.627000  1
  C  C614  1  0.081400  0.431900  0.127000  1
  C  C615  1  0.581400  0.931900  0.373000  1
  C  C616  1  0.918600  0.568100  0.873000  1
  C  C617  1  0.490900  0.962300  0.727600  1
  C  C618  1  0.009100  0.537700  0.227600  1
  C  C619  1  0.509100  0.037700  0.272400  1
  C  C620  1  0.990900  0.462300  0.772400  1
  C  C621  1  0.464600  0.272800  0.839800  1
  C  C622  1  0.035400  0.227200  0.339800  1
  C  C623  1  0.535400  0.727200  0.160200  1
  C  C624  1  0.964600  0.772800  0.660200  1
  C  C625  1  0.776700  0.100200  0.607200  1
  C  C626  1  0.723300  0.399800  0.107200  1
  C  C627  1  0.223300  0.899800  0.392800  1
  C  C628  1  0.276700  0.600200  0.892800  1
  C  C629  1  0.775500  0.275000  0.701900  1
  C  C630  1  0.724500  0.225000  0.201900  1
  C  C631  1  0.224500  0.725000  0.298100  1
  C  C632  1  0.275500  0.775000  0.798100  1
  C  C633  1  0.895300  0.117300  0.784300  1
  C  C634  1  0.604700  0.382700  0.284300  1
  C  C635  1  0.104700  0.882700  0.215700  1
  C  C636  1  0.395300  0.617300  0.715700  1
  C  C637  1  0.425300  0.110400  0.631600  1
  C  C638  1  0.074700  0.389600  0.131600  1
  C  C639  1  0.574700  0.889600  0.368400  1
  C  C640  1  0.925300  0.610400  0.868400  1
  C  C641  1  0.500500  0.975300  0.766300  1
  C  C642  1  0.999500  0.524700  0.266300  1
  C  C643  1  0.499500  0.024700  0.233700  1
  C  C644  1  0.000500  0.475300  0.733700  1
  C  C645  1  0.500800  0.250900  0.863800  1
  C  C646  1  0.999200  0.249100  0.363800  1
  C  C647  1  0.499200  0.749100  0.136200  1
  C  C648  1  0.000800  0.750900  0.636200  1
  C  C649  1  0.746400  0.075600  0.635400  1
  C  C650  1  0.753600  0.424400  0.135400  1
  C  C651  1  0.253600  0.924400  0.364600  1
  C  C652  1  0.246400  0.575600  0.864600  1
  C  C653  1  0.717500  0.260400  0.692100  1
  C  C654  1  0.782500  0.239600  0.192100  1
  C  C655  1  0.282500  0.739600  0.307900  1
  C  C656  1  0.217500  0.760400  0.807900  1
  C  C657  1  0.845100  0.131800  0.802300  1
  C  C658  1  0.654900  0.368200  0.302300  1
  C  C659  1  0.154900  0.868200  0.197700  1
  C  C660  1  0.345100  0.631800  0.697700  1
  C  C661  1  0.433500  0.126400  0.670200  1
  C  C662  1  0.066500  0.373600  0.170200  1
  C  C663  1  0.566500  0.873600  0.329800  1
  C  C664  1  0.933500  0.626400  0.829800  1
  C  C665  1  0.557300  0.991500  0.778100  1
  C  C666  1  0.942700  0.508500  0.278100  1
  C  C667  1  0.442700  0.008500  0.221900  1
  C  C668  1  0.057300  0.491500  0.721900  1
  C  C669  1  0.511200  0.210000  0.856900  1
  C  C670  1  0.988800  0.290000  0.356900  1
  C  C671  1  0.488800  0.790000  0.143100  1
  C  C672  1  0.011200  0.710000  0.643100  1
  C  C673  1  0.775600  0.071400  0.672400  1
  C  C674  1  0.724400  0.428600  0.172400  1
  C  C675  1  0.224400  0.928600  0.327600  1
  C  C676  1  0.275600  0.571400  0.827600  1
  C  C677  1  0.709600  0.230000  0.666200  1
  C  C678  1  0.790400  0.270000  0.166200  1
  C  C679  1  0.290400  0.770000  0.333800  1
  C  C680  1  0.209600  0.730000  0.833800  1
  C  C681  1  0.822500  0.169700  0.790300  1
  C  C682  1  0.677500  0.330300  0.290300  1
  C  C683  1  0.177500  0.830300  0.209700  1
  C  C684  1  0.322500  0.669700  0.709700  1
  C  C685  1  0.439200  0.100600  0.702300  1
  C  C686  1  0.060800  0.399400  0.202300  1
  C  C687  1  0.560800  0.899400  0.297700  1
  C  C688  1  0.939200  0.600600  0.797700  1
  C  C689  1  0.602200  0.995400  0.750100  1
  C  C690  1  0.897800  0.504600  0.250100  1
  C  C691  1  0.397800  0.004600  0.249900  1
  C  C692  1  0.102200  0.495400  0.749900  1
  C  C693  1  0.483500  0.193100  0.823300  1
  C  C694  1  0.016500  0.306900  0.323300  1
  C  C695  1  0.516500  0.806900  0.176700  1
  C  C696  1  0.983500  0.693100  0.676700  1
  C  C697  1  0.833000  0.089500  0.680600  1
  C  C698  1  0.667000  0.410500  0.180600  1
  C  C699  1  0.167000  0.910500  0.319400  1
  C  C700  1  0.333000  0.589500  0.819400  1
  C  C701  1  0.758400  0.212800  0.646400  1
  C  C702  1  0.741600  0.287200  0.146400  1
  C  C703  1  0.241600  0.787200  0.353600  1
  C  C704  1  0.258400  0.712800  0.853600  1
  C  C705  1  0.850600  0.192300  0.759900  1
  C  C706  1  0.649400  0.307700  0.259900  1
  C  C707  1  0.149400  0.807700  0.240100  1
  C  C708  1  0.350600  0.692300  0.740100  1
  C  C709  1  0.433600  0.059100  0.696600  1
  C  C710  1  0.066400  0.440900  0.196600  1
  C  C711  1  0.566400  0.940900  0.303400  1
  C  C712  1  0.933600  0.559100  0.803400  1
  C  C713  1  0.593100  0.982900  0.709600  1
  C  C714  1  0.906900  0.517100  0.209600  1
  C  C715  1  0.406900  0.017100  0.290400  1
  C  C716  1  0.093100  0.482900  0.790400  1
  C  C717  1  0.448500  0.215100  0.798400  1
  C  C718  1  0.051500  0.284900  0.298400  1
  C  C719  1  0.551500  0.784900  0.201600  1
  C  C720  1  0.948500  0.715100  0.701600  1
  C  C721  1  0.687500  0.054600  0.628200  1
  C  C722  1  0.812500  0.445400  0.128200  1
  C  C723  1  0.312500  0.945400  0.371800  1
  C  C724  1  0.187500  0.554600  0.871800  1
  C  C725  1  0.661000  0.279100  0.709600  1
  C  C726  1  0.839000  0.220900  0.209600  1
  C  C727  1  0.339000  0.720900  0.290400  1
  C  C728  1  0.161000  0.779100  0.790400  1
  C  C729  1  0.811000  0.108900  0.835800  1
  C  C730  1  0.689000  0.391100  0.335800  1
  C  C731  1  0.189000  0.891100  0.164200  1
  C  C732  1  0.311000  0.608900  0.664200  1
  C  C733  1  0.434400  0.170900  0.677000  1
  C  C734  1  0.065600  0.329100  0.177000  1
  C  C735  1  0.565600  0.829100  0.323000  1
  C  C736  1  0.934400  0.670900  0.823000  1
  C  C737  1  0.569100  0.005700  0.820600  1
  C  C738  1  0.930900  0.494300  0.320600  1
  C  C739  1  0.430900  0.994300  0.179400  1
  C  C740  1  0.069100  0.505700  0.679400  1
  C  C741  1  0.551400  0.184300  0.882600  1
  C  C742  1  0.948600  0.315700  0.382600  1
  C  C743  1  0.448600  0.815700  0.117400  1
  C  C744  1  0.051400  0.684300  0.617400  1
  C  C745  1  0.680400  0.014900  0.614000  1
  C  C746  1  0.819600  0.485100  0.114000  1
  C  C747  1  0.319600  0.985100  0.386000  1
  C  C748  1  0.180400  0.514900  0.886000  1
  C  C749  1  0.628100  0.311100  0.692800  1
  C  C750  1  0.871900  0.188900  0.192800  1
  C  C751  1  0.371900  0.688900  0.307200  1
  C  C752  1  0.128100  0.811100  0.807200  1
  C  C753  1  0.820400  0.117700  0.875700  1
  C  C754  1  0.679600  0.382300  0.375700  1
  C  C755  1  0.179600  0.882300  0.124300  1
  C  C756  1  0.320400  0.617700  0.624300  1
  C  C757  1  0.382800  0.192100  0.689200  1
  C  C758  1  0.117200  0.307900  0.189200  1
  C  C759  1  0.617200  0.807900  0.310800  1
  C  C760  1  0.882800  0.692100  0.810800  1
  C  C761  1  0.598300  0.980700  0.848200  1
  C  C762  1  0.901700  0.519300  0.348200  1
  C  C763  1  0.401700  0.019300  0.151800  1
  C  C764  1  0.098300  0.480700  0.651800  1
  C  C765  1  0.527600  0.160300  0.914900  1
  C  C766  1  0.972400  0.339700  0.414900  1
  C  C767  1  0.472400  0.839700  0.085100  1
  C  C768  1  0.027600  0.660300  0.585100  1
  C  C769  1  0.624500  0.999900  0.603700  1
  C  C770  1  0.875500  0.500100  0.103700  1
  C  C771  1  0.375500  0.000100  0.396300  1
  C  C772  1  0.124500  0.499900  0.896300  1
  C  C773  1  0.580100  0.328600  0.711500  1
  C  C774  1  0.919900  0.171400  0.211500  1
  C  C775  1  0.419900  0.671400  0.288500  1
  C  C776  1  0.080100  0.828600  0.788500  1
  C  C777  1  0.790300  0.096400  0.906100  1
  C  C778  1  0.709700  0.403600  0.406100  1
  C  C779  1  0.209700  0.903600  0.093900  1
  C  C780  1  0.290300  0.596400  0.593900  1
  C  C781  1  0.385200  0.232700  0.696600  1
  C  C782  1  0.114800  0.267300  0.196600  1
  C  C783  1  0.614800  0.767300  0.303400  1
  C  C784  1  0.885200  0.732700  0.803400  1
  C  C785  1  0.603300  0.994400  0.888100  1
  C  C786  1  0.896700  0.505600  0.388100  1
  C  C787  1  0.396700  0.005600  0.111900  1
  C  C788  1  0.103300  0.494400  0.611900  1
  C  C789  1  0.567800  0.140800  0.939200  1
  C  C790  1  0.932200  0.359200  0.439200  1
  C  C791  1  0.432200  0.859200  0.060800  1
  C  C792  1  0.067800  0.640800  0.560800  1
  C  C793  1  0.574300  0.022100  0.607100  1
  C  C794  1  0.925700  0.477900  0.107100  1
  C  C795  1  0.425700  0.977900  0.392900  1
  C  C796  1  0.074300  0.522100  0.892900  1
  C  C797  1  0.559700  0.313900  0.747600  1
  C  C798  1  0.940300  0.186100  0.247600  1
  C  C799  1  0.440300  0.686100  0.252400  1
  C  C800  1  0.059700  0.813900  0.752400  1
  C  C801  1  0.749100  0.065600  0.895500  1
  C  C802  1  0.750900  0.434400  0.395500  1
  C  C803  1  0.250900  0.934400  0.104500  1
  C  C804  1  0.249100  0.565600  0.604500  1
  C  C805  1  0.438500  0.255900  0.691400  1
  C  C806  1  0.061500  0.244100  0.191400  1
  C  C807  1  0.561500  0.744100  0.308600  1
  C  C808  1  0.938500  0.755900  0.808600  1
  C  C809  1  0.586600  0.032400  0.899900  1
  C  C810  1  0.913400  0.467600  0.399900  1
  C  C811  1  0.413400  0.967600  0.100100  1
  C  C812  1  0.086600  0.532400  0.600100  1
  C  C813  1  0.630100  0.139800  0.932400  1
  C  C814  1  0.869900  0.360200  0.432400  1
  C  C815  1  0.369900  0.860200  0.067600  1
  C  C816  1  0.130100  0.639800  0.567600  1
  C  C817  1  0.577500  0.061900  0.622500  1
  C  C818  1  0.922500  0.438100  0.122500  1
  C  C819  1  0.422500  0.938100  0.377500  1
  C  C820  1  0.077500  0.561900  0.877500  1
  C  C821  1  0.589300  0.281900  0.765500  1
  C  C822  1  0.910700  0.218100  0.265500  1
  C  C823  1  0.410700  0.718100  0.234500  1
  C  C824  1  0.089300  0.781900  0.734500  1
  C  C825  1  0.738700  0.057600  0.855200  1
  C  C826  1  0.761300  0.442400  0.355200  1
  C  C827  1  0.261300  0.942400  0.144800  1
  C  C828  1  0.238700  0.557600  0.644800  1
  C  C829  1  0.491000  0.235500  0.679000  1
  C  C830  1  0.009000  0.264500  0.179000  1
  C  C831  1  0.509000  0.764500  0.321000  1
  C  C832  1  0.991000  0.735500  0.821000  1
  C  C833  1  0.558200  0.057900  0.871900  1
  C  C834  1  0.941800  0.442100  0.371900  1
  C  C835  1  0.441800  0.942100  0.128100  1
  C  C836  1  0.058200  0.557900  0.628100  1
  C  C837  1  0.652800  0.161200  0.899800  1
  C  C838  1  0.847200  0.338800  0.399800  1
  C  C839  1  0.347200  0.838800  0.100200  1
  C  C840  1  0.152800  0.661200  0.600200  1
  C  C841  1  0.635100  0.076400  0.632000  1
  C  C842  1  0.864900  0.423600  0.132000  1
  C  C843  1  0.364900  0.923600  0.368000  1
  C  C844  1  0.135100  0.576400  0.868000  1
  C  C845  1  0.640600  0.266700  0.747100  1
  C  C846  1  0.859400  0.233300  0.247100  1
  C  C847  1  0.359400  0.733300  0.252900  1
  C  C848  1  0.140600  0.766700  0.752900  1
  C  C849  1  0.767700  0.078500  0.827000  1
  C  C850  1  0.732300  0.421500  0.327000  1
  C  C851  1  0.232300  0.921500  0.173000  1
  C  C852  1  0.267700  0.578500  0.673000  1
  C  C853  1  0.487200  0.193900  0.672500  1
  C  C854  1  0.012800  0.306100  0.172500  1
  C  C855  1  0.512800  0.806100  0.327500  1
  C  C856  1  0.987200  0.693900  0.827500  1
  C  C857  1  0.552200  0.043900  0.833000  1
  C  C858  1  0.947800  0.456100  0.333000  1
  C  C859  1  0.447800  0.956100  0.167000  1
  C  C860  1  0.052200  0.543900  0.667000  1
  C  C861  1  0.613400  0.183500  0.876100  1
  C  C862  1  0.886600  0.316500  0.376100  1
  C  C863  1  0.386600  0.816500  0.123900  1
  C  C864  1  0.113400  0.683500  0.623900  1
  C  C865  1  0.494600  0.020500  0.560500  1
  C  C866  1  0.005400  0.479500  0.060500  1
  C  C867  1  0.505400  0.979500  0.439500  1
  C  C868  1  0.994600  0.520500  0.939500  1
  C  C869  1  0.515900  0.354500  0.795800  1
  C  C870  1  0.984100  0.145500  0.295800  1
  C  C871  1  0.484100  0.645500  0.204200  1
  C  C872  1  0.015900  0.854500  0.704200  1
  C  C873  1  0.735900  0.005200  0.927900  1
  C  C874  1  0.764100  0.494800  0.427900  1
  C  C875  1  0.264100  0.994800  0.072100  1
  C  C876  1  0.235900  0.505200  0.572100  1
  C  C877  1  0.451200  0.322000  0.667700  1
  C  C878  1  0.048800  0.178000  0.167700  1
  C  C879  1  0.548800  0.678000  0.332300  1
  C  C880  1  0.951200  0.822000  0.832300  1
  C  C881  1  0.543700  0.046300  0.961700  1
  C  C882  1  0.956300  0.453700  0.461700  1
  C  C883  1  0.456300  0.953700  0.038300  1
  C  C884  1  0.043700  0.546300  0.538300  1
  C  C885  1  0.709600  0.139200  0.977500  1
  C  C886  1  0.790400  0.360800  0.477500  1
  C  C887  1  0.290400  0.860800  0.022500  1
  C  C888  1  0.209600  0.639200  0.522500  1
  C  C889  1  0.435600  0.004400  0.547200  1
  C  C890  1  0.064400  0.495600  0.047200  1
  C  C891  1  0.564400  0.995600  0.452800  1
  C  C892  1  0.935600  0.504400  0.952800  1
  C  C893  1  0.464600  0.372100  0.814900  1
  C  C894  1  0.035400  0.127900  0.314900  1
  C  C895  1  0.535400  0.627900  0.185100  1
  C  C896  1  0.964600  0.872100  0.685100  1
  C  C897  1  0.709500  0.979500  0.959100  1
  C  C898  1  0.790500  0.520500  0.459100  1
  C  C899  1  0.290500  0.020500  0.040900  1
  C  C900  1  0.209500  0.479500  0.540900  1
  C  C901  1  0.449500  0.364000  0.674400  1
  C  C902  1  0.050500  0.136000  0.174400  1
  C  C903  1  0.550500  0.636000  0.325600  1
  C  C904  1  0.949500  0.864000  0.825600  1
  C  C905  1  0.549300  0.059400  0.003800  1
  C  C906  1  0.950700  0.440600  0.503800  1
  C  C907  1  0.450700  0.940600  0.996200  1
  C  C908  1  0.049300  0.559400  0.496200  1
  C  C909  1  0.749600  0.116500  0.003000  1
  C  C910  1  0.750400  0.383500  0.503000  1
  C  C911  1  0.250400  0.883500  0.997000  1
  C  C912  1  0.249600  0.616500  0.497000  1
  C  C913  1  0.406200  0.018100  0.513600  1
  C  C914  1  0.093800  0.481900  0.013600  1
  C  C915  1  0.593800  0.981900  0.486400  1
  C  C916  1  0.906200  0.518100  0.986400  1
  C  C917  1  0.468300  0.395300  0.850700  1
  C  C918  1  0.031700  0.104700  0.350700  1
  C  C919  1  0.531700  0.604700  0.149300  1
  C  C920  1  0.968300  0.895300  0.649300  1
  C  C921  1  0.720700  0.937700  0.963400  1
  C  C922  1  0.779300  0.562300  0.463400  1
  C  C923  1  0.279300  0.062300  0.036600  1
  C  C924  1  0.220700  0.437700  0.536600  1
  C  C925  1  0.464800  0.394400  0.646000  1
  C  C926  1  0.035200  0.105600  0.146000  1
  C  C927  1  0.535200  0.605600  0.354000  1
  C  C928  1  0.964800  0.894400  0.854000  1
  C  C929  1  0.498900  0.064300  0.029600  1
  C  C930  1  0.001100  0.435700  0.529600  1
  C  C931  1  0.501100  0.935700  0.970400  1
  C  C932  1  0.998900  0.564300  0.470400  1
  C  C933  1  0.797800  0.134900  0.024400  1
  C  C934  1  0.702200  0.365100  0.524400  1
  C  C935  1  0.202200  0.865100  0.975600  1
  C  C936  1  0.297800  0.634900  0.475600  1
  C  C937  1  0.348400  0.001600  0.504200  1
  C  C938  1  0.151600  0.498400  0.004200  1
  C  C939  1  0.651600  0.998400  0.495800  1
  C  C940  1  0.848400  0.501600  0.995800  1
  C  C941  1  0.410500  0.407900  0.867100  1
  C  C942  1  0.089500  0.092100  0.367100  1
  C  C943  1  0.589500  0.592100  0.132900  1
  C  C944  1  0.910500  0.907900  0.632900  1
  C  C945  1  0.697200  0.917200  0.994500  1
  C  C946  1  0.802800  0.582800  0.494500  1
  C  C947  1  0.302800  0.082800  0.005500  1
  C  C948  1  0.197200  0.417200  0.505500  1
  C  C949  1  0.462800  0.434200  0.657100  1
  C  C950  1  0.037200  0.065800  0.157100  1
  C  C951  1  0.537200  0.565800  0.342900  1
  C  C952  1  0.962800  0.934200  0.842900  1
  C  C953  1  0.510300  0.078200  0.068500  1
  C  C954  1  0.989700  0.421800  0.568500  1
  C  C955  1  0.489700  0.921800  0.931500  1
  C  C956  1  0.010300  0.578200  0.431500  1
  C  C957  1  0.835100  0.107900  0.048400  1
  C  C958  1  0.664900  0.392100  0.548400  1
  C  C959  1  0.164900  0.892100  0.951600  1
  C  C960  1  0.335100  0.607900  0.451600  1
  C  C961  1  0.325300  0.970300  0.529500  1
  C  C962  1  0.174700  0.529700  0.029500  1
  C  C963  1  0.674700  0.029700  0.470500  1
  C  C964  1  0.825300  0.470300  0.970500  1
  C  C965  1  0.357600  0.397900  0.847000  1
  C  C966  1  0.142400  0.102100  0.347000  1
  C  C967  1  0.642400  0.602100  0.153000  1
  C  C968  1  0.857600  0.897900  0.653000  1
  C  C969  1  0.659700  0.939800  0.022300  1
  C  C970  1  0.840300  0.560200  0.522300  1
  C  C971  1  0.340300  0.060200  0.977700  1
  C  C972  1  0.159700  0.439800  0.477700  1
  C  C973  1  0.446100  0.444000  0.695600  1
  C  C974  1  0.053900  0.056000  0.195600  1
  C  C975  1  0.553900  0.556000  0.304400  1
  C  C976  1  0.946100  0.944000  0.804400  1
  C  C977  1  0.568900  0.087700  0.078100  1
  C  C978  1  0.931100  0.412300  0.578100  1
  C  C979  1  0.431100  0.912300  0.921900  1
  C  C980  1  0.068900  0.587700  0.421900  1
  C  C981  1  0.820000  0.066600  0.048800  1
  C  C982  1  0.680000  0.433400  0.548800  1
  C  C983  1  0.180000  0.933400  0.951200  1
  C  C984  1  0.320000  0.566600  0.451200  1
  C  C985  1  0.358800  0.958800  0.562300  1
  C  C986  1  0.141200  0.541200  0.062300  1
  C  C987  1  0.641200  0.041200  0.437700  1
  C  C988  1  0.858800  0.458800  0.937700  1
  C  C989  1  0.357200  0.373700  0.814600  1
  C  C990  1  0.142800  0.126300  0.314600  1
  C  C991  1  0.642800  0.626300  0.185400  1
  C  C992  1  0.857200  0.873700  0.685400  1
  C  C993  1  0.649300  0.980500  0.015900  1
  C  C994  1  0.850700  0.519500  0.515900  1
  C  C995  1  0.350700  0.019500  0.984100  1
  C  C996  1  0.149300  0.480500  0.484100  1
  C  C997  1  0.432100  0.413500  0.723500  1
  C  C998  1  0.067900  0.086500  0.223500  1
  C  C999  1  0.567900  0.586500  0.276500  1
  C  C1000  1  0.932100  0.913500  0.776500  1
  C  C1001  1  0.615900  0.082900  0.052200  1
  C  C1002  1  0.884100  0.417100  0.552200  1
  C  C1003  1  0.384100  0.917100  0.947800  1
  C  C1004  1  0.115900  0.582900  0.447800  1
  C  C1005  1  0.771500  0.052000  0.026400  1
  C  C1006  1  0.728500  0.448000  0.526400  1
  C  C1007  1  0.228500  0.948000  0.973600  1
  C  C1008  1  0.271500  0.552000  0.473600  1
  S  S1009  1  0.741290  0.112830  0.560360  1
  S  S1010  1  0.758710  0.387170  0.060360  1
  S  S1011  1  0.258710  0.887170  0.439640  1
  S  S1012  1  0.241290  0.612830  0.939640  1
  S  S1013  1  0.744200  0.982130  0.610080  1
  S  S1014  1  0.755800  0.517870  0.110080  1
  S  S1015  1  0.255800  0.017870  0.389920  1
  S  S1016  1  0.244200  0.482130  0.889920  1
  S  S1017  1  0.792080  0.310120  0.739610  1
  S  S1018  1  0.707920  0.189880  0.239610  1
  S  S1019  1  0.207920  0.689880  0.260390  1
  S  S1020  1  0.292080  0.810120  0.760390  1
  S  S1021  1  0.647470  0.332360  0.644050  1
  S  S1022  1  0.852530  0.167640  0.144050  1
  S  S1023  1  0.352530  0.667640  0.355950  1
  S  S1024  1  0.147470  0.832360  0.855950  1
  S  S1025  1  0.869400  0.159340  0.891660  1
  S  S1026  1  0.630600  0.340660  0.391660  1
  S  S1027  1  0.130600  0.840660  0.108340  1
  S  S1028  1  0.369400  0.659340  0.608340  1
  S  S1029  1  0.920800  0.066580  0.791910  1
  S  S1030  1  0.579200  0.433420  0.291910  1
  S  S1031  1  0.079200  0.933420  0.208090  1
  S  S1032  1  0.420800  0.566580  0.708090  1
  S  S1033  1  0.430820  0.139220  0.586720  1
  S  S1034  1  0.069180  0.360780  0.086720  1
  S  S1035  1  0.569180  0.860780  0.413280  1
  S  S1036  1  0.930820  0.639220  0.913280  1
  S  S1037  1  0.315600  0.164650  0.704080  1
  S  S1038  1  0.184400  0.335350  0.204080  1
  S  S1039  1  0.684400  0.835350  0.295920  1
  S  S1040  1  0.815600  0.664650  0.795920  1
  S  S1041  1  0.436420  0.972360  0.799240  1
  S  S1042  1  0.063580  0.527640  0.299240  1
  S  S1043  1  0.563580  0.027640  0.200760  1
  S  S1044  1  0.936420  0.472360  0.700760  1
  S  S1045  1  0.628910  0.932300  0.837780  1
  S  S1046  1  0.871090  0.567700  0.337780  1
  S  S1047  1  0.371090  0.067700  0.162220  1
  S  S1048  1  0.128910  0.432300  0.662220  1
  S  S1049  1  0.542700  0.277430  0.902750  1
  S  S1050  1  0.957300  0.222570  0.402750  1
  S  S1051  1  0.457300  0.722570  0.097250  1
  S  S1052  1  0.042700  0.777430  0.597250  1
  S  S1053  1  0.449860  0.151340  0.921810  1
  S  S1054  1  0.050140  0.348660  0.421810  1
  S  S1055  1  0.550140  0.848660  0.078190  1
  S  S1056  1  0.949860  0.651340  0.578190  1
  N  N1057  1  0.024100  0.165000  0.667600  1
  N  N1058  1  0.475900  0.335000  0.167600  1
  N  N1059  1  0.975900  0.835000  0.332400  1
  N  N1060  1  0.524100  0.665000  0.832400  1
  N  N1061  1  0.959800  0.182000  0.595200  1
  N  N1062  1  0.540200  0.318000  0.095200  1
  N  N1063  1  0.040200  0.818000  0.404800  1
  N  N1064  1  0.459800  0.682000  0.904800  1
  N  N1065  1  0.979500  0.244400  0.653500  1
  N  N1066  1  0.520500  0.255600  0.153500  1
  N  N1067  1  0.020500  0.755600  0.346500  1
  N  N1068  1  0.479500  0.744400  0.846500  1
  N  N1069  1  0.405900  0.921700  0.641100  1
  N  N1070  1  0.094100  0.578300  0.141100  1
  N  N1071  1  0.594100  0.078300  0.358900  1
  N  N1072  1  0.905900  0.421700  0.858900  1
  N  N1073  1  0.511100  0.921500  0.588600  1
  N  N1074  1  0.988900  0.578500  0.088600  1
  N  N1075  1  0.488900  0.078500  0.411400  1
  N  N1076  1  0.011100  0.421500  0.911400  1
  N  N1077  1  0.333200  0.325000  0.737400  1
  N  N1078  1  0.166800  0.175000  0.237400  1
  N  N1079  1  0.666800  0.675000  0.262600  1
  N  N1080  1  0.833200  0.825000  0.762600  1
  N  N1081  1  0.920200  0.130600  0.658300  1
  N  N1082  1  0.579800  0.369400  0.158300  1
  N  N1083  1  0.079800  0.869400  0.341700  1
  N  N1084  1  0.420200  0.630600  0.841700  1
  N  N1085  1  0.868300  0.210200  0.632800  1
  N  N1086  1  0.631700  0.289800  0.132800  1
  N  N1087  1  0.131700  0.789800  0.367200  1
  N  N1088  1  0.368300  0.710200  0.867200  1
  N  N1089  1  0.932700  0.201200  0.711400  1
  N  N1090  1  0.567300  0.298800  0.211400  1
  N  N1091  1  0.067300  0.798800  0.288600  1
  N  N1092  1  0.432700  0.701200  0.788600  1
  N  N1093  1  0.416200  0.998500  0.653100  1
  N  N1094  1  0.083800  0.501500  0.153100  1
  N  N1095  1  0.583800  0.001500  0.346900  1
  N  N1096  1  0.916200  0.498500  0.846900  1
  N  N1097  1  0.527800  0.948600  0.660200  1
  N  N1098  1  0.972200  0.551400  0.160200  1
  N  N1099  1  0.472200  0.051400  0.339800  1
  N  N1100  1  0.027800  0.448600  0.839800  1
  N  N1101  1  0.398800  0.279900  0.781400  1
  N  N1102  1  0.101200  0.220100  0.281400  1
  N  N1103  1  0.601200  0.720100  0.218600  1
  N  N1104  1  0.898800  0.779900  0.718600  1
  N  N1105  1  0.516800  0.006200  0.593000  1
  N  N1106  1  0.983200  0.493800  0.093000  1
  N  N1107  1  0.483200  0.993800  0.407000  1
  N  N1108  1  0.016800  0.506200  0.907000  1
  N  N1109  1  0.507000  0.331700  0.765900  1
  N  N1110  1  0.993000  0.168300  0.265900  1
  N  N1111  1  0.493000  0.668300  0.234100  1
  N  N1112  1  0.007000  0.831700  0.734100  1
  N  N1113  1  0.722800  0.042000  0.926300  1
  N  N1114  1  0.777200  0.458000  0.426300  1
  N  N1115  1  0.277200  0.958000  0.073700  1
  N  N1116  1  0.222800  0.542000  0.573700  1
  N  N1117  1  0.439200  0.298400  0.697800  1
  N  N1118  1  0.060800  0.201600  0.197800  1
  N  N1119  1  0.560800  0.701600  0.302200  1
  N  N1120  1  0.939200  0.798400  0.802200  1
  N  N1121  1  0.590800  0.044300  0.940900  1
  N  N1122  1  0.909200  0.455700  0.440900  1
  N  N1123  1  0.409200  0.955700  0.059100  1
  N  N1124  1  0.090800  0.544300  0.559100  1
  N  N1125  1  0.668200  0.118200  0.959500  1
  N  N1126  1  0.831800  0.381800  0.459500  1
  N  N1127  1  0.331800  0.881800  0.040500  1
  N  N1128  1  0.168200  0.618200  0.540500  1
  N  N1129  1  0.412600  0.975600  0.572100  1
  N  N1130  1  0.087400  0.524400  0.072100  1
  N  N1131  1  0.587400  0.024400  0.427900  1
  N  N1132  1  0.912600  0.475600  0.927900  1
  N  N1133  1  0.409800  0.361800  0.797300  1
  N  N1134  1  0.090200  0.138200  0.297300  1
  N  N1135  1  0.590200  0.638200  0.202700  1
  N  N1136  1  0.909800  0.861800  0.702700  1
  N  N1137  1  0.675900  0.001000  0.985200  1
  N  N1138  1  0.824100  0.499000  0.485200  1
  N  N1139  1  0.324100  0.999000  0.014800  1
  N  N1140  1  0.175900  0.501000  0.514800  1
  N  N1141  1  0.435200  0.375000  0.713100  1
  N  N1142  1  0.064800  0.125000  0.213100  1
  N  N1143  1  0.564800  0.625000  0.286900  1
  N  N1144  1  0.935200  0.875000  0.786900  1
  N  N1145  1  0.606700  0.068300  0.013900  1
  N  N1146  1  0.893300  0.431700  0.513900  1
  N  N1147  1  0.393300  0.931700  0.986100  1
  N  N1148  1  0.106700  0.568300  0.486100  1
  N  N1149  1  0.736000  0.074100  0.004300  1
  N  N1150  1  0.764000  0.425900  0.504300  1
  N  N1151  1  0.264000  0.925900  0.995700  1
  N  N1152  1  0.236000  0.574100  0.495700  1
  O  O1153  1  0.580100  0.100700  0.528400  1
  O  O1154  1  0.919900  0.399300  0.028400  1
  O  O1155  1  0.419900  0.899300  0.471600  1
  O  O1156  1  0.080100  0.600700  0.971600  1
  O  O1157  1  0.862200  0.998300  0.876000  1
  O  O1158  1  0.637800  0.501700  0.376000  1
  O  O1159  1  0.137800  0.001700  0.124000  1
  O  O1160  1  0.362200  0.498300  0.624000  1
  O  O1161  1  0.304100  0.425800  0.643600  1
  O  O1162  1  0.195900  0.074200  0.143600  1
  O  O1163  1  0.695900  0.574200  0.356400  1
  O  O1164  1  0.804100  0.925800  0.856400  1
  O  O1165  1  0.580100  0.976800  0.100300  1
  O  O1166  1  0.919900  0.523200  0.600300  1
  O  O1167  1  0.419900  0.023200  0.899700  1
  O  O1168  1  0.080100  0.476800  0.399700  1
  O  O1169  1  0.675600  0.844100  0.909200  1
  O  O1170  1  0.824400  0.655900  0.409200  1
  O  O1171  1  0.324400  0.155900  0.090800  1
  O  O1172  1  0.175600  0.344100  0.590800  1
  O  O1173  1  0.832500  0.263500  0.470300  1
  O  O1174  1  0.667500  0.236500  0.970300  1
  O  O1175  1  0.167500  0.736500  0.529700  1
  O  O1176  1  0.332500  0.763500  0.029700  1
  O  O1177  1  0.800900  0.863300  0.909300  1
  O  O1178  1  0.699100  0.636700  0.409300  1
  O  O1179  1  0.199100  0.136700  0.090700  1
  O  O1180  1  0.300900  0.363300  0.590700  1
  O  O1181  1  0.585300  0.871100  0.736500  1
  O  O1182  1  0.914700  0.628900  0.236500  1
  O  O1183  1  0.414700  0.128900  0.263500  1
  O  O1184  1  0.085300  0.371100  0.763500  1
  O  O1185  1  0.941900  0.368800  0.768500  1
  O  O1186  1  0.558100  0.131200  0.268500  1
  O  O1187  1  0.058100  0.631200  0.231500  1
  O  O1188  1  0.441900  0.868800  0.731500  1
  O  O1189  1  0.745600  0.215300  0.521100  1
  O  O1190  1  0.754400  0.284700  0.021100  1
  O  O1191  1  0.254400  0.784700  0.478900  1
  O  O1192  1  0.245600  0.715300  0.978900  1
  O  O1193  1  0.616700  0.129200  0.166000  1
  O  O1194  1  0.883300  0.370800  0.666000  1
  O  O1195  1  0.383300  0.870800  0.834000  1
  O  O1196  1  0.116700  0.629200  0.334000  1
  O  O1197  1  0.742000  0.235200  0.457900  1
  O  O1198  1  0.758000  0.264800  0.957900  1
  O  O1199  1  0.258000  0.764800  0.542100  1
  O  O1200  1  0.242000  0.735200  0.042100  1
  O  O1201  1  0.745900  0.875700  0.553100  1
  O  O1202  1  0.754100  0.624300  0.053100  1
  O  O1203  1  0.254100  0.124300  0.446900  1
  O  O1204  1  0.245900  0.375700  0.946900  1
  O  O1205  1  0.872100  0.302500  0.534600  1
  O  O1206  1  0.627900  0.197500  0.034600  1
  O  O1207  1  0.127900  0.697500  0.465400  1
  O  O1208  1  0.372100  0.802500  0.965400  1
  O  O1209  1  0.606300  0.188000  0.599700  1
  O  O1210  1  0.893700  0.312000  0.099700  1
  O  O1211  1  0.393700  0.812000  0.400300  1
  O  O1212  1  0.106300  0.688000  0.900300  1
  O  O1213  1  0.345600  0.292700  0.614900  1
  O  O1214  1  0.154400  0.207300  0.114900  1
  O  O1215  1  0.654400  0.707300  0.385100  1
  O  O1216  1  0.845600  0.792700  0.885100  1
  O  O1217  1  0.150000  0.270500  0.627500  1
  O  O1218  1  0.350000  0.229500  0.127500  1
  O  O1219  1  0.850000  0.729500  0.372500  1
  O  O1220  1  0.650000  0.770500  0.872500  1
  O  O1221  1  0.945300  0.090000  0.968100  1
  O  O1222  1  0.554700  0.410000  0.468100  1
  O  O1223  1  0.054700  0.910000  0.031900  1
  O  O1224  1  0.445300  0.590000  0.531900  1
  O  O1225  1  0.821500  0.331100  0.601600  1
  O  O1226  1  0.678500  0.168900  0.101600  1
  O  O1227  1  0.178500  0.668900  0.398400  1
  O  O1228  1  0.321500  0.831100  0.898400  1
  O  O1229  1  0.243600  0.034200  0.769100  1
  O  O1230  1  0.256400  0.465800  0.269100  1
  O  O1231  1  0.756400  0.965800  0.230900  1
  O  O1232  1  0.743600  0.534200  0.730900  1
  O  O1233  1  0.421100  0.161400  0.032800  1
  O  O1234  1  0.078900  0.338600  0.532800  1
  O  O1235  1  0.578900  0.838600  0.967200  1
  O  O1236  1  0.921100  0.661400  0.467200  1
  O  O1237  1  0.991600  0.282900  0.523500  1
  O  O1238  1  0.508400  0.217100  0.023500  1
  O  O1239  1  0.008400  0.717100  0.476500  1
  O  O1240  1  0.491600  0.782900  0.976500  1
  O  O1241  1  0.756300  0.996900  0.767300  1
  O  O1242  1  0.743700  0.503100  0.267300  1
  O  O1243  1  0.243700  0.003100  0.232700  1
  O  O1244  1  0.256300  0.496900  0.732700  1
  O  O1245  1  0.494600  0.385700  0.537400  1
  O  O1246  1  0.005400  0.114300  0.037400  1
  O  O1247  1  0.505400  0.614300  0.462600  1
  O  O1248  1  0.994600  0.885700  0.962600  1
  O  O1249  1  0.723700  0.828300  0.628400  1
  O  O1250  1  0.776300  0.671700  0.128400  1
  O  O1251  1  0.276300  0.171700  0.371600  1
  O  O1252  1  0.223700  0.328300  0.871600  1
  O  O1253  1  0.702400  0.010200  0.107500  1
  O  O1254  1  0.797600  0.489800  0.607500  1
  O  O1255  1  0.297600  0.989800  0.892500  1
  O  O1256  1  0.202400  0.510200  0.392500  1
  O  O1257  1  0.260200  0.234500  0.639600  1
  O  O1258  1  0.239800  0.265500  0.139600  1
  O  O1259  1  0.739800  0.765500  0.360400  1
  O  O1260  1  0.760200  0.734500  0.860400  1
  O  O1261  1  0.699200  0.882300  0.685100  1
  O  O1262  1  0.800800  0.617700  0.185100  1
  O  O1263  1  0.300800  0.117700  0.314900  1
  O  O1264  1  0.199200  0.382300  0.814900  1
  O  O1265  1  0.430500  0.253800  0.574400  1
  O  O1266  1  0.069500  0.246200  0.074400  1
  O  O1267  1  0.569500  0.746200  0.425600  1
  O  O1268  1  0.930500  0.753800  0.925600  1
  O  O1269  1  0.418100  0.099900  0.802900  1
  O  O1270  1  0.081900  0.400100  0.302900  1
  O  O1271  1  0.581900  0.900100  0.197100  1
  O  O1272  1  0.918100  0.599900  0.697100  1
  O  O1273  1  0.865900  0.882600  0.975600  1
  O  O1274  1  0.634100  0.617400  0.475600  1
  O  O1275  1  0.134100  0.117400  0.024400  1
  O  O1276  1  0.365900  0.382600  0.524400  1
  O  O1277  1  0.620100  0.147800  0.464500  1
  O  O1278  1  0.879900  0.352200  0.964500  1
  O  O1279  1  0.379900  0.852200  0.535500  1
  O  O1280  1  0.120100  0.647800  0.035500  1
  O  O1281  1  0.523700  0.312700  0.567800  1
  O  O1282  1  0.976300  0.187300  0.067800  1
  O  O1283  1  0.476300  0.687300  0.432200  1
  O  O1284  1  0.023700  0.812700  0.932200  1
  O  O1285  1  0.907200  0.261100  0.819200  1
  O  O1286  1  0.592800  0.238900  0.319200  1
  O  O1287  1  0.092800  0.738900  0.180800  1
  O  O1288  1  0.407200  0.761100  0.680800  1
  O  O1289  1  0.269600  0.056300  0.699200  1
  O  O1290  1  0.230400  0.443700  0.199200  1
  O  O1291  1  0.730400  0.943700  0.300800  1
  O  O1292  1  0.769600  0.556300  0.800800  1
  O  O1293  1  0.618600  0.219200  0.479400  1
  O  O1294  1  0.881400  0.280800  0.979400  1
  O  O1295  1  0.381400  0.780800  0.520600  1
  O  O1296  1  0.118600  0.719200  0.020600  1
  O  O1297  1  0.723500  0.247100  0.835000  1
  O  O1298  1  0.776500  0.252900  0.335000  1
  O  O1299  1  0.276500  0.752900  0.165000  1
  O  O1300  1  0.223500  0.747100  0.665000  1
  O  O1301  1  0.800500  0.961800  0.082200  1
  O  O1302  1  0.699500  0.538200  0.582200  1
  O  O1303  1  0.199500  0.038200  0.917800  1
  O  O1304  1  0.300500  0.461800  0.417800  1
  O  O1305  1  0.581800  0.429000  0.739400  1
  O  O1306  1  0.918200  0.071000  0.239400  1
  O  O1307  1  0.418200  0.571000  0.260600  1
  O  O1308  1  0.081800  0.929000  0.760600  1
  O  O1309  1  0.823700  0.786100  0.625800  1
  O  O1310  1  0.676300  0.713900  0.125800  1
  O  O1311  1  0.176300  0.213900  0.374200  1
  O  O1312  1  0.323700  0.286100  0.874200  1
  O  O1313  1  0.662600  0.256200  0.557400  1
  O  O1314  1  0.837400  0.243800  0.057400  1
  O  O1315  1  0.337400  0.743800  0.442600  1
  O  O1316  1  0.162600  0.756200  0.942600  1
  O  O1317  1  0.858800  0.958300  0.015500  1
  O  O1318  1  0.641200  0.541700  0.515500  1
  O  O1319  1  0.141200  0.041700  0.984500  1
  O  O1320  1  0.358800  0.458300  0.484500  1
  O  O1321  1  0.144200  0.141600  0.563900  1
  O  O1322  1  0.355800  0.358400  0.063900  1
  O  O1323  1  0.855800  0.858400  0.436100  1
  O  O1324  1  0.644200  0.641600  0.936100  1
  O  O1325  1  0.184100  0.186000  0.777700  1
  O  O1326  1  0.315900  0.314000  0.277700  1
  O  O1327  1  0.815900  0.814000  0.222300  1
  O  O1328  1  0.684100  0.686000  0.722300  1
  O  O1329  1  0.888900  0.013800  0.955900  1
  O  O1330  1  0.611100  0.486200  0.455900  1
  O  O1331  1  0.111100  0.986200  0.044100  1
  O  O1332  1  0.388900  0.513800  0.544100  1
  O  O1333  1  0.403000  0.487900  0.791600  1
  O  O1334  1  0.097000  0.012100  0.291600  1
  O  O1335  1  0.597000  0.512100  0.208400  1
  O  O1336  1  0.903000  0.987900  0.708400  1
  O  O1337  1  0.276800  0.978600  0.756400  1
  O  O1338  1  0.223200  0.521400  0.256400  1
  O  O1339  1  0.723200  0.021400  0.243600  1
  O  O1340  1  0.776800  0.478600  0.743600  1
  O  O1341  1  0.992300  0.297200  0.866300  1
  O  O1342  1  0.507700  0.202800  0.366300  1
  O  O1343  1  0.007700  0.702800  0.133700  1
  O  O1344  1  0.492300  0.797200  0.633700  1
  O  O1345  1  0.738100  0.921500  0.728200  1
  O  O1346  1  0.761900  0.578500  0.228200  1
  O  O1347  1  0.261900  0.078500  0.271800  1
  O  O1348  1  0.238100  0.421500  0.771800  1
  O  O1349  1  0.244000  0.893700  0.571600  1
  O  O1350  1  0.256000  0.606300  0.071600  1
  O  O1351  1  0.756000  0.106300  0.428400  1
  O  O1352  1  0.744000  0.393700  0.928400  1
  O  O1353  1  0.571700  0.390200  0.925000  1
  O  O1354  1  0.928300  0.109800  0.425000  1
  O  O1355  1  0.428300  0.609800  0.075000  1
  O  O1356  1  0.071700  0.890200  0.575000  1
  O  O1357  1  0.295900  0.112900  0.529300  1
  O  O1358  1  0.204100  0.387100  0.029300  1
  O  O1359  1  0.704100  0.887100  0.470700  1
  O  O1360  1  0.795900  0.612900  0.970700  1
  O  O1361  1  0.668700  0.384100  0.781400  1
  O  O1362  1  0.831300  0.115900  0.281400  1
  O  O1363  1  0.331300  0.615900  0.218600  1
  O  O1364  1  0.168700  0.884100  0.718600  1
  O  O1365  1  0.398700  0.309300  0.937800  1
  O  O1366  1  0.101300  0.190700  0.437800  1
  O  O1367  1  0.601300  0.690700  0.062200  1
  O  O1368  1  0.898700  0.809300  0.562200  1
  O  O1369  1  0.861900  0.874700  0.520500  1
  O  O1370  1  0.638100  0.625300  0.020500  1
  O  O1371  1  0.138100  0.125300  0.479500  1
  O  O1372  1  0.361900  0.374700  0.979500  1
  O  O1373  1  0.320100  0.201300  0.867200  1
  O  O1374  1  0.179900  0.298700  0.367200  1
  O  O1375  1  0.679900  0.798700  0.132800  1
  O  O1376  1  0.820100  0.701300  0.632800  1
  O  O1377  1  0.116000  0.227800  0.560200  1
  O  O1378  1  0.384000  0.272200  0.060200  1
  O  O1379  1  0.884000  0.772200  0.439800  1
  O  O1380  1  0.616000  0.727800  0.939800  1
  O  O1381  1  0.592900  0.800000  0.697700  1
  O  O1382  1  0.907100  0.700000  0.197700  1
  O  O1383  1  0.407100  0.200000  0.302300  1
  O  O1384  1  0.092900  0.300000  0.802300  1
  O  O1385  1  0.516400  0.462400  0.560200  1
  O  O1386  1  0.983600  0.037600  0.060200  1
  O  O1387  1  0.483600  0.537600  0.439800  1
  O  O1388  1  0.016400  0.962400  0.939800  1
  O  O1389  1  0.828000  0.997900  0.510200  1
  O  O1390  1  0.672000  0.502100  0.010200  1
  O  O1391  1  0.172000  0.002100  0.489800  1
  O  O1392  1  0.328000  0.497900  0.989800  1
  O  O1393  1  0.912800  0.010700  0.628600  1
  O  O1394  1  0.587200  0.489300  0.128600  1
  O  O1395  1  0.087200  0.989300  0.371400  1
  O  O1396  1  0.412800  0.510700  0.871400  1
  O  O1397  1  0.795300  0.205800  0.399900  1
  O  O1398  1  0.704700  0.294200  0.899900  1
  O  O1399  1  0.204700  0.794200  0.600100  1
  O  O1400  1  0.295300  0.705800  0.100100  1
  O  O1401  1  0.915300  0.997400  0.109000  1
  O  O1402  1  0.584700  0.502600  0.609000  1
  O  O1403  1  0.084700  0.002600  0.891000  1
  O  O1404  1  0.415300  0.497400  0.391000  1
  O  O1405  1  0.625000  0.440000  0.659400  1
  O  O1406  1  0.875000  0.060000  0.159400  1
  O  O1407  1  0.375000  0.560000  0.340600  1
  O  O1408  1  0.125000  0.940000  0.840600  1
  O  O1409  1  0.725000  0.077000  0.139200  1
  O  O1410  1  0.775000  0.423000  0.639200  1
  O  O1411  1  0.275000  0.923000  0.860800  1
  O  O1412  1  0.225000  0.577000  0.360800  1
  O  O1413  1  0.701600  0.148500  0.570900  1
  O  O1414  1  0.798400  0.351500  0.070900  1
  O  O1415  1  0.298400  0.851500  0.429100  1
  O  O1416  1  0.201600  0.648500  0.929100  1
  O  O1417  1  0.794600  0.123000  0.533800  1
  O  O1418  1  0.705400  0.377000  0.033800  1
  O  O1419  1  0.205400  0.877000  0.466200  1
  O  O1420  1  0.294600  0.623000  0.966200  1
  O  O1421  1  0.705900  0.080100  0.546300  1
  O  O1422  1  0.794100  0.419900  0.046300  1
  O  O1423  1  0.294100  0.919900  0.453700  1
  O  O1424  1  0.205900  0.580100  0.953700  1
  O  O1425  1  0.721900  0.946200  0.591800  1
  O  O1426  1  0.778100  0.553800  0.091800  1
  O  O1427  1  0.278100  0.053800  0.408200  1
  O  O1428  1  0.221900  0.446200  0.908200  1
  O  O1429  1  0.763400  0.975700  0.649200  1
  O  O1430  1  0.736600  0.524300  0.149200  1
  O  O1431  1  0.236600  0.024300  0.350800  1
  O  O1432  1  0.263400  0.475700  0.850800  1
  O  O1433  1  0.792300  0.003600  0.590700  1
  O  O1434  1  0.707700  0.496400  0.090700  1
  O  O1435  1  0.207700  0.996400  0.409300  1
  O  O1436  1  0.292300  0.503600  0.909300  1
  O  O1437  1  0.780100  0.290400  0.775300  1
  O  O1438  1  0.719900  0.209600  0.275300  1
  O  O1439  1  0.219900  0.709600  0.224700  1
  O  O1440  1  0.280100  0.790400  0.724700  1
  O  O1441  1  0.856900  0.320200  0.734600  1
  O  O1442  1  0.643100  0.179800  0.234600  1
  O  O1443  1  0.143100  0.679800  0.265400  1
  O  O1444  1  0.356900  0.820200  0.765400  1
  O  O1445  1  0.758300  0.344500  0.733700  1
  O  O1446  1  0.741700  0.155500  0.233700  1
  O  O1447  1  0.241700  0.655500  0.266300  1
  O  O1448  1  0.258300  0.844500  0.766300  1
  O  O1449  1  0.626500  0.297000  0.618400  1
  O  O1450  1  0.873500  0.203000  0.118400  1
  O  O1451  1  0.373500  0.703000  0.381600  1
  O  O1452  1  0.126500  0.797000  0.881600  1
  O  O1453  1  0.705000  0.328000  0.634900  1
  O  O1454  1  0.795000  0.172000  0.134900  1
  O  O1455  1  0.295000  0.672000  0.365100  1
  O  O1456  1  0.205000  0.828000  0.865100  1
  O  O1457  1  0.871300  0.039500  0.774300  1
  O  O1458  1  0.628700  0.460500  0.274300  1
  O  O1459  1  0.128700  0.960500  0.225700  1
  O  O1460  1  0.371300  0.539500  0.725700  1
  O  O1461  1  0.926200  0.061300  0.833500  1
  O  O1462  1  0.573800  0.438700  0.333500  1
  O  O1463  1  0.073800  0.938700  0.166500  1
  O  O1464  1  0.426200  0.561300  0.666500  1
  O  O1465  1  0.975800  0.064200  0.769900  1
  O  O1466  1  0.524200  0.435800  0.269900  1
  O  O1467  1  0.024200  0.935800  0.230100  1
  O  O1468  1  0.475800  0.564200  0.730100  1
  O  O1469  1  0.838000  0.195800  0.881900  1
  O  O1470  1  0.662000  0.304200  0.381900  1
  O  O1471  1  0.162000  0.804200  0.118100  1
  O  O1472  1  0.338000  0.695800  0.618100  1
  O  O1473  1  0.874900  0.153500  0.934500  1
  O  O1474  1  0.625100  0.346500  0.434500  1
  O  O1475  1  0.125100  0.846500  0.065500  1
  O  O1476  1  0.374900  0.653500  0.565500  1
  O  O1477  1  0.928200  0.152700  0.872800  1
  O  O1478  1  0.571800  0.347300  0.372800  1
  O  O1479  1  0.071800  0.847300  0.127200  1
  O  O1480  1  0.428200  0.652700  0.627200  1
  O  O1481  1  0.497200  0.147400  0.582600  1
  O  O1482  1  0.002800  0.352600  0.082600  1
  O  O1483  1  0.502800  0.852600  0.417400  1
  O  O1484  1  0.997200  0.647400  0.917400  1
  O  O1485  1  0.406500  0.112900  0.555000  1
  O  O1486  1  0.093500  0.387100  0.055000  1
  O  O1487  1  0.593500  0.887100  0.445000  1
  O  O1488  1  0.906500  0.612900  0.945000  1
  O  O1489  1  0.398100  0.175200  0.592400  1
  O  O1490  1  0.101900  0.324800  0.092400  1
  O  O1491  1  0.601900  0.824800  0.407600  1
  O  O1492  1  0.898100  0.675200  0.907600  1
  O  O1493  1  0.334100  0.141400  0.746100  1
  O  O1494  1  0.165900  0.358600  0.246100  1
  O  O1495  1  0.665900  0.858600  0.253900  1
  O  O1496  1  0.834100  0.641400  0.753900  1
  O  O1497  1  0.300100  0.136500  0.673500  1
  O  O1498  1  0.199900  0.363500  0.173500  1
  O  O1499  1  0.699900  0.863500  0.326500  1
  O  O1500  1  0.800100  0.636500  0.826500  1
  O  O1501  1  0.274700  0.194800  0.711000  1
  O  O1502  1  0.225300  0.305200  0.211000  1
  O  O1503  1  0.725300  0.805200  0.289000  1
  O  O1504  1  0.774700  0.694800  0.789000  1
  O  O1505  1  0.412100  0.015800  0.799100  1
  O  O1506  1  0.087900  0.484200  0.299100  1
  O  O1507  1  0.587900  0.984200  0.200900  1
  O  O1508  1  0.912100  0.515800  0.700900  1
  O  O1509  1  0.395000  0.944500  0.780500  1
  O  O1510  1  0.105000  0.555500  0.280500  1
  O  O1511  1  0.605000  0.055500  0.219500  1
  O  O1512  1  0.895000  0.444500  0.719500  1
  O  O1513  1  0.456500  0.961300  0.837300  1
  O  O1514  1  0.043500  0.538700  0.337300  1
  O  O1515  1  0.543500  0.038700  0.162700  1
  O  O1516  1  0.956500  0.461300  0.662700  1
  O  O1517  1  0.689000  0.942700  0.822000  1
  O  O1518  1  0.811000  0.557300  0.322000  1
  O  O1519  1  0.311000  0.057300  0.178000  1
  O  O1520  1  0.189000  0.442700  0.678000  1
  O  O1521  1  0.593900  0.912700  0.808600  1
  O  O1522  1  0.906100  0.587300  0.308600  1
  O  O1523  1  0.406100  0.087300  0.191400  1
  O  O1524  1  0.093900  0.412700  0.691400  1
  O  O1525  1  0.630500  0.911100  0.875400  1
  O  O1526  1  0.869500  0.588900  0.375400  1
  O  O1527  1  0.369500  0.088900  0.124600  1
  O  O1528  1  0.130500  0.411100  0.624600  1
  O  O1529  1  0.512800  0.314900  0.908300  1
  O  O1530  1  0.987200  0.185100  0.408300  1
  O  O1531  1  0.487200  0.685100  0.091700  1
  O  O1532  1  0.012800  0.814900  0.591700  1
  O  O1533  1  0.550300  0.255000  0.935300  1
  O  O1534  1  0.949700  0.245000  0.435300  1
  O  O1535  1  0.449700  0.745000  0.064700  1
  O  O1536  1  0.050300  0.755000  0.564700  1
  O  O1537  1  0.613100  0.286700  0.878100  1
  O  O1538  1  0.886900  0.213300  0.378100  1
  O  O1539  1  0.386900  0.713300  0.121900  1
  O  O1540  1  0.113100  0.786700  0.621900  1
  O  O1541  1  0.442900  0.130900  0.959500  1
  O  O1542  1  0.057100  0.369100  0.459500  1
  O  O1543  1  0.557100  0.869100  0.040500  1
  O  O1544  1  0.942900  0.630900  0.540500  1
  O  O1545  1  0.436900  0.120200  0.886900  1
  O  O1546  1  0.063100  0.379800  0.386900  1
  O  O1547  1  0.563100  0.879800  0.113100  1
  O  O1548  1  0.936900  0.620200  0.613100  1
  O  O1549  1  0.418700  0.183800  0.914700  1
  O  O1550  1  0.081300  0.316200  0.414700  1
  O  O1551  1  0.581300  0.816200  0.085300  1
  O  O1552  1  0.918700  0.683800  0.585300  1
  O  O1553  1  0.601900  0.356100  0.632900  1
  O  O1554  1  0.898100  0.143900  0.132900  1
  O  O1555  1  0.398100  0.643900  0.367100  1
  O  O1556  1  0.101900  0.856100  0.867100  1
  O  O1557  1  0.773100  0.212200  0.457400  1
  O  O1558  1  0.726900  0.287800  0.957400  1
  O  O1559  1  0.226900  0.787800  0.542600  1
  O  O1560  1  0.273100  0.712200  0.042600  1
