
#######################################################################
#
#                 Cambridge Crystallographic Data Centre
#                                CCDC 
#
#######################################################################
#
# If this CIF has been generated from an entry in the Cambridge 
# Structural Database, then it will include bibliographic, chemical, 
# crystal, experimental, refinement or atomic coordinate data resulting 
# from the CCDC's data processing and validation procedures.
#
#######################################################################

data_COWBIA
_chemical_formula_moiety         
'C312 H168 N24 O12 Pd6 12+,12(C1 F3 O3 S1 1-),x(C2 H6 O1 S1),x(C4 H8 O1),x(H2 O1)'
_chemical_name_systematic        
"dodecakis(\m~2~-4,4'-(Dibenzo(b,d)furan-2,8-diyldiethyne-2,1-diyl)dipyridine-N,N')-hexa-palladium(ii) dodecakis(trifluoromethanesulfonate) dimethylsulfoxide tetrahydrofuran solvate hydrate"
_symmetry_cell_setting           monoclinic
_symmetry_space_group_name_H-M   'P 21/c'
_symmetry_Int_Tables_number      14
_space_group_name_Hall           '-P 2ybc'
loop_
_symmetry_equiv_pos_site_id
_symmetry_equiv_pos_as_xyz
1 x,y,z
2 -x,1/2+y,1/2-z
3 -x,-y,-z
4 x,1/2-y,1/2+z
_cell_length_a                   28.7133(7)
_cell_length_b                   26.7005(6)
_cell_length_c                   48.5078(13)
_cell_angle_alpha                90
_cell_angle_beta                 119.496(2)
_cell_angle_gamma                90
_cell_volume                     32368.9
_exptl_crystal_colour            'pale yellow'
_exptl_crystal_description       block
_cell_formula_units_Z            2
loop_
_atom_site_label
_atom_site_type_symbol
_atom_site_fract_x
_atom_site_fract_y
_atom_site_fract_z
S1 S 0.2348(4) 0.3100(4) 0.4902(3)
O7 O 0.2748(5) 0.2741(6) 0.4914(4)
C157 C 0.2373(12) 0.3689(12) 0.4714(10)
H85 H 0.2731 0.3836 0.4835
H86 H 0.2107 0.3923 0.4711
H87 H 0.2295 0.3622 0.4497
C158 C 0.1753(14) 0.283(2) 0.4723(17)
H88 H 0.1766 0.2517 0.4832
H89 H 0.1652 0.2756 0.4502
H90 H 0.1487 0.3055 0.4727
S2 S 0.2625(4) 0.7322(4) 0.5893(2)
O8 O 0.2954(5) 0.7719(5) 0.5859(3)
C159 C 0.2498(18) 0.6915(15) 0.5610(12)
H91 H 0.2297 0.7080 0.5404
H92 H 0.2287 0.6638 0.5624
H93 H 0.2836 0.6786 0.5635
C160 C 0.2970(14) 0.7069(15) 0.6260(9)
H94 H 0.3036 0.7326 0.6419
H95 H 0.3313 0.6938 0.6293
H96 H 0.2762 0.6795 0.6281
S3 S 0.4965(4) 0.0961(4) 0.5140(3)
O9 O 0.4565(4) 0.1317(4) 0.5083(3)
C161 C 0.5312(7) 0.0979(14) 0.5545(7)
H97 H 0.5104 0.0811 0.5629
H98 H 0.5374 0.1329 0.5616
H99 H 0.5657 0.0809 0.5622
C162 C 0.5378(18) 0.126(2) 0.5013(17)
H100 H 0.5202 0.1252 0.4781
H101 H 0.5721 0.1083 0.5101
H102 H 0.5440 0.1607 0.5087
S4 S 0.1865(5) 0.5556(6) 0.7120(3)
O10 O 0.2011(6) 0.5354(6) 0.7432(3)
S5 S 0.4426(2) 0.9926(2) 0.56937(13)
O11 O 0.4057(5) 0.9611(5) 0.5710(3)
C163 C 0.472(2) 0.981(3) 0.5483(10)
H103 H 0.4814 0.9453 0.5500
H104 H 0.5047 1.0011 0.5563
H105 H 0.4478 0.9893 0.5261
C164 C 0.4179(16) 1.0483(10) 0.5721(10)
H106 H 0.4209 1.0514 0.5931
H107 H 0.3801 1.0506 0.5558
H108 H 0.4381 1.0752 0.5691
S6 S 0.2996(5) 0.4695(4) 0.9140(2)
O12 O 0.2760(10) 0.4755(11) 0.8817(4)
O13 O 0.2939(12) 0.4283(7) 0.9291(6)
O14 O 0.3553(12) 0.4724(13) 0.9208(7)
C165 C 0.2974(13) 0.5227(14) 0.9308(7)
F1 F 0.3062(10) 0.5628(8) 0.9192(5)
F2 F 0.256(2) 0.5293(18) 0.9337(14)
F3 F 0.3349(11) 0.5234(9) 0.9600(7)
S7 S 0.6166(9) 0.2148(8) 0.5569(5)
O15 O 0.5602(12) 0.2026(10) 0.5527(6)
C166 C 0.6281(15) 0.1420(13) 0.5609(8)
H109 H 0.6032 0.1258 0.5408
H110 H 0.6220 0.1293 0.5778
H111 H 0.6650 0.1346 0.5661
C167 C 0.5857(16) 0.2146(15) 0.5149(10)
H112 H 0.5806 0.1800 0.5073
H113 H 0.6086 0.2323 0.5084
H114 H 0.5509 0.2314 0.5059
O16 O 0.6253(14) 0.2933(14) 0.5701(8)
O17 O 0.4277(12) 0.5051(11) 0.5386(7)
O18 O 0.0567(13) 0.3343(13) 0.2916(8)
O19 O 0.6321(18) 0.7301(17) 0.6599(10)
O20 O 0.1475(19) 0.1392(19) 0.3999(11)
O21 O 0.596(3) -0.016(3) 0.747(2)
O22 O 0.0416(15) 0.5131(14) 0.6873(9)
O23 O 0.1163(17) 0.2483(16) 0.3413(10)
O24 O 0.1771(14) 0.3098(13) 0.3895(8)
O25 O 0.079(3) 0.604(3) 0.8914(16)
O26 O 0.590(2) 0.455(2) 0.6257(12)
O27 O 0.3626(14) 0.4634(13) 0.5356(8)
O28 O 0.1291(15) 0.0696(15) 0.3828(9)
O29 O 0.218(3) 0.618(3) 0.4201(17)
O30 O 0.251(2) 0.824(2) 0.6413(13)
O31 O 0.5977(16) 0.1237(15) 0.8996(10)
O32 O -0.2262(18) -0.2004(17) 0.4492(11)
O33 O 0.5908(17) 0.3495(16) 0.4752(10)
O34 O -0.3070(19) -0.1300(18) 0.4196(11)
O35 O 0.301(2) 0.968(2) 0.6673(14)
O36 O 0.053(2) 0.663(2) 0.3560(13)
O37 O 0.1422(18) -0.2785(18) 0.4847(10)
O38 O 0.302(3) 0.780(2) 0.8020(15)
O39 O 0.4793(16) 1.0363(16) 0.6270(9)
O40 O 0.352(3) 0.951(3) 0.7704(16)
O41 O 0.212(2) 0.088(2) 0.1883(12)
O42 O 0.860(2) 0.540(2) 0.6062(13)
O43 O 0.5756(18) 0.0147(16) 0.6830(10)
O44 O 0.5199(8) 0.9693(8) 0.6313(5)
O45 O 0.5372(13) 0.0269(12) 0.6145(7)
Pd1 Pd 0.34943(5) 0.86396(5) 0.57943(3)
Pd2 Pd 0.36091(5) 0.20123(5) 0.49915(3)
Pd3 Pd 0.23709(6) 0.50356(6) 0.80939(3)
N1 N 0.4058(9) 0.2584(7) 0.5012(3)
C1 C 0.4527(11) 0.2512(7) 0.5040(4)
H1 H 0.4636 0.2179 0.5030
C2 C 0.4872(8) 0.2902(11) 0.5083(4)
H2 H 0.5210 0.2845 0.5097
C3 C 0.4698(13) 0.3396(9) 0.5104(4)
C4 C 0.4202(12) 0.3448(13) 0.5072(4)
H3 H 0.4070 0.3773 0.5074
C5 C 0.3901(9) 0.3052(11) 0.5038(5)
H4 H 0.3568 0.3096 0.5033
C6 C 0.5076(12) 0.3779(10) 0.5173(5)
C7 C 0.5449(13) 0.4155(13) 0.5251(5)
C8 C 0.5819(10) 0.4559(9) 0.5337(6)
C9 C 0.6319(13) 0.4423(8) 0.5391(8)
H5 H 0.6402 0.4087 0.5369
C10 C 0.6702(9) 0.4808(12) 0.5481(7)
H6 H 0.7043 0.4743 0.5502
C11 C 0.6577(8) 0.5271(9) 0.5537(6)
C12 C 0.6052(9) 0.5362(8) 0.5501(4)
C13 C 0.5689(7) 0.5014(9) 0.5408(4)
H7 H 0.5350 0.5073 0.5392
O1 O 0.6902(5) 0.5681(6) 0.5636(3)
C14 C 0.5920(8) 0.6692(8) 0.5742(4)
C15 C 0.6457(9) 0.6838(6) 0.5806(4)
H8 H 0.6571 0.7172 0.5870
C16 C 0.6812(7) 0.6508(9) 0.5778(5)
H9 H 0.7159 0.6610 0.5822
C17 C 0.6632(9) 0.6038(9) 0.5685(5)
C18 C 0.6101(8) 0.5874(8) 0.5602(4)
C19 C 0.5751(7) 0.6199(8) 0.5640(3)
H10 H 0.5408 0.6088 0.5599
C20 C 0.5584(8) 0.7034(7) 0.5771(4)
C21 C 0.5273(9) 0.7297(8) 0.5777(4)
C22 C 0.4874(8) 0.7623(9) 0.5804(3)
C23 C 0.4930(7) 0.8136(8) 0.5826(3)
H11 H 0.5235 0.8290 0.5834
C24 C 0.4533(8) 0.8428(6) 0.5835(3)
H12 H 0.4571 0.8782 0.5854
N2 N 0.4098(6) 0.8210(7) 0.5819(3)
C25 C 0.4066(7) 0.7708(10) 0.5800(3)
H13 H 0.3768 0.7553 0.5801
C26 C 0.4432(10) 0.7402(7) 0.5780(4)
H14 H 0.4378 0.7051 0.5751
N3 N 0.3930(6) 0.2041(6) 0.5459(4)
C27 C 0.4332(8) 0.1738(8) 0.5637(4)
H15 H 0.4471 0.1529 0.5537
C28 C 0.4565(8) 0.1712(8) 0.5973(4)
H16 H 0.4845 0.1483 0.6093
C29 C 0.4368(9) 0.2035(8) 0.6121(5)
C30 C 0.3957(10) 0.2367(9) 0.5936(6)
H17 H 0.3814 0.2595 0.6026
C31 C 0.3772(8) 0.2345(8) 0.5620(6)
H18 H 0.3495 0.2574 0.5495
C32 C 0.4592(11) 0.2038(8) 0.6434(6)
C33 C 0.4831(11) 0.2039(8) 0.6721(6)
C34 C 0.5106(13) 0.2027(10) 0.7066(6)
C35 C 0.5586(15) 0.1746(11) 0.7236(6)
H19 H 0.5766 0.1611 0.7133
C36 C 0.5786(14) 0.1674(13) 0.7562(7)
H20 H 0.6036 0.1413 0.7669
C37 C 0.5623(11) 0.1973(11) 0.7725(7)
C38 C 0.5148(11) 0.2279(9) 0.7558(5)
C39 C 0.4898(10) 0.2339(8) 0.7233(5)
H21 H 0.4611 0.2567 0.7124
O2 O 0.5800(7) 0.1952(6) 0.8043(3)
C40 C 0.4774(8) 0.2948(7) 0.8100(4)
C41 C 0.5135(8) 0.2727(8) 0.8378(4)
H22 H 0.5145 0.2812 0.8571
C42 C 0.5489(11) 0.2371(9) 0.8373(5)
H23 H 0.5736 0.2195 0.8559
C43 C 0.5461(9) 0.2289(8) 0.8081(5)
C44 C 0.5071(8) 0.2516(8) 0.7802(4)
C45 C 0.4714(8) 0.2832(7) 0.7802(4)
H24 H 0.4435 0.2971 0.7612
C46 C 0.4401(9) 0.3314(9) 0.8105(4)
C47 C 0.4100(8) 0.3564(9) 0.8117(4)
C48 C 0.3704(7) 0.3931(7) 0.8108(4)
C49 C 0.3671(7) 0.4044(7) 0.8390(4)
H25 H 0.3923 0.3905 0.8588
C50 C 0.3282(7) 0.4348(7) 0.8368(4)
H26 H 0.3268 0.4405 0.8557
N4 N 0.2915(5) 0.4576(5) 0.8107(3)
C51 C 0.2945(8) 0.4481(7) 0.7840(4)
H27 H 0.2686 0.4641 0.7651
C52 C 0.3318(8) 0.4171(8) 0.7811(4)
H28 H 0.3319 0.4123 0.7618
N5 N 0.2910(8) 0.5584(8) 0.8276(7)
C53 C 0.3202(10) 0.5707(10) 0.8567(7)
H29 H 0.3170 0.5506 0.8719
C54 C 0.3561(9) 0.6107(11) 0.8686(6)
H30 H 0.3764 0.6168 0.8907
C55 C 0.3613(9) 0.6414(13) 0.8469(9)
C56 C 0.3328(14) 0.6256(12) 0.8159(9)
H31 H 0.3365 0.6426 0.7998
C57 C 0.2977(9) 0.5835(13) 0.8079(8)
H32 H 0.2781 0.5738 0.7863
C58 C 0.3963(11) 0.6876(11) 0.8595(6)
C59 C 0.4187(9) 0.7235(12) 0.8651(5)
C60 C 0.4458(8) 0.7651(8) 0.8703(5)
C61 C 0.4774(9) 0.7898(7) 0.9012(5)
H33 H 0.4774 0.7745 0.9189
C62 C 0.5061(11) 0.8317(10) 0.9069(5)
H34 H 0.5258 0.8455 0.9276
C63 C 0.5055(11) 0.8542(9) 0.8806(5)
C64 C 0.4769(8) 0.8316(9) 0.8475(5)
C65 C 0.4489(8) 0.7885(7) 0.8444(5)
H35 H 0.4305 0.7732 0.8242
O3 O 0.5338(8) 0.8944(7) 0.8804(3)
C66 C 0.4943(11) 0.8981(10) 0.7852(5)
C67 C 0.5287(12) 0.9342(11) 0.8060(5)
H36 H 0.5462 0.9563 0.7987
C68 C 0.5387(13) 0.9397(11) 0.8370(5)
H37 H 0.5573 0.9678 0.8497
C69 C 0.5200(11) 0.9020(10) 0.8478(5)
C70 C 0.4864(9) 0.8642(7) 0.8283(5)
C71 C 0.4740(9) 0.8615(8) 0.7985(4)
H38 H 0.4514 0.8353 0.7856
C72 C 0.4779(9) 0.8993(8) 0.7542(5)
C73 C 0.4618(10) 0.8936(8) 0.7284(6)
C74 C 0.4356(13) 0.8892(10) 0.6934(7)
C75 C 0.4509(8) 0.9159(8) 0.6730(8)
H39 H 0.4795 0.9393 0.6825
C76 C 0.4266(10) 0.9095(8) 0.6409(7)
H40 H 0.4369 0.9297 0.6287
N6 N 0.3883(8) 0.8748(8) 0.6267(4)
C77 C 0.3726(9) 0.8463(8) 0.6455(8)
H41 H 0.3458 0.8213 0.6358
C78 C 0.3959(14) 0.8546(12) 0.6779(7)
H42 H 0.3838 0.8356 0.6898
N7 N 0.3283(6) 0.1979(6) 0.4508(4)
C79 C 0.3535(7) 0.1754(6) 0.4391(4)
H43 H 0.3871 0.1610 0.4535
C80 C 0.3360(6) 0.1703(6) 0.4071(4)
H44 H 0.3561 0.1538 0.3990
C81 C 0.2824(8) 0.1934(6) 0.3864(5)
C82 C 0.2582(7) 0.2173(7) 0.3995(5)
H45 H 0.2248 0.2334 0.3868
C83 C 0.2835(7) 0.2185(7) 0.4335(5)
H46 H 0.2662 0.2354 0.4432
C84 C 0.2624(7) 0.1917(6) 0.3532(5)
C85 C 0.2414(8) 0.1940(7) 0.3250(5)
C86 C 0.2190(9) 0.2019(7) 0.2915(5)
C87 C 0.2371(9) 0.1793(8) 0.2737(5)
H47 H 0.2699 0.1615 0.2847
C88 C 0.2120(11) 0.1798(12) 0.2408(6)
H48 H 0.2228 0.1592 0.2290
C89 C 0.1686(11) 0.2144(12) 0.2265(6)
C90 C 0.1447(8) 0.2317(9) 0.2423(5)
C91 C 0.1684(7) 0.2277(7) 0.2764(4)
H49 H 0.1521 0.2409 0.2878
O4 O 0.1345(7) 0.2169(8) 0.1954(4)
C92 C 0.0182(9) 0.3103(9) 0.1936(5)
C93 C 0.0202(10) 0.3041(12) 0.1641(5)
H50 H -0.0041 0.3224 0.1458
C94 C 0.0572(10) 0.2716(12) 0.1623(5)
H51 H 0.0563 0.2645 0.1428
C95 C 0.0944(10) 0.2512(12) 0.1902(5)
C96 C 0.0984(8) 0.2611(9) 0.2202(4)
C97 C 0.0587(7) 0.2884(7) 0.2224(4)
H52 H 0.0587 0.2921 0.2418
N8 N 0.3147(8) 0.1429(9) 0.4975(3)
C98 C 0.3305(9) 0.0993(11) 0.5004(5)
H53 H 0.3657 0.0934 0.5040
C99 C 0.2995(10) 0.0585(10) 0.4987(5)
H54 H 0.3127 0.0253 0.5007
C100 C 0.2474(10) 0.0682(11) 0.4938(4)
C101 C 0.2319(10) 0.1150(14) 0.4898(6)
H55 H 0.1970 0.1235 0.4858
C102 C 0.2665(14) 0.1516(8) 0.4914(6)
H56 H 0.2543 0.1853 0.4879
C103 C 0.2120(9) 0.0278(11) 0.4909(5)
C104 C 0.1818(9) -0.0047(9) 0.4877(6)
C105 C 0.1458(9) -0.0457(9) 0.4869(5)
C106 C 0.1670(9) -0.0934(10) 0.4927(6)
H57 H 0.2026 -0.0989 0.4970
C107 C 0.1350(9) -0.1343(9) 0.4923(6)
H58 H 0.1466 -0.1680 0.4940
C108 C 0.0864(10) -0.1219(9) 0.4891(7)
C109 C 0.0660(9) -0.0707(10) 0.4811(7)
C110 C 0.0958(8) -0.0335(8) 0.4821(6)
H59 H 0.0838 0.0002 0.4796
O5 O 0.0509(7) -0.1563(6) 0.4869(5)
C111 C -0.0830(10) -0.0611(10) 0.4574(9)
C112 C -0.0875(10) -0.1142(11) 0.4639(9)
H60 H -0.1202 -0.1255 0.4621
C113 C -0.0460(11) -0.1487(9) 0.4725(9)
H61 H -0.0497 -0.1833 0.4756
C114 C -0.0001(11) -0.1283(10) 0.4761(9)
C115 C 0.0098(9) -0.0760(10) 0.4753(8)
C116 C -0.0335(10) -0.0428(8) 0.4609(8)
H62 H -0.0303 -0.0104 0.4541
N9 N 0.3128(7) 0.8546(6) 0.5361(5)
C117 C 0.3231(7) 0.8757(8) 0.5154(5)
H63 H 0.3495 0.9012 0.5243
C118 C 0.3043(8) 0.8692(8) 0.4841(7)
H64 H 0.3174 0.8885 0.4729
C119 C 0.2647(9) 0.8327(10) 0.4688(5)
C120 C 0.2498(7) 0.8079(6) 0.4873(6)
H65 H 0.2228 0.7830 0.4779
C121 C 0.2723(8) 0.8169(8) 0.5196(6)
H66 H 0.2604 0.7974 0.5314
C122 C 0.2382(8) 0.8217(7) 0.4346(7)
C123 C 0.2212(8) 0.8134(7) 0.4068(6)
C124 C 0.2072(8) 0.8058(7) 0.3756(5)
C125 C 0.2391(7) 0.8271(9) 0.3642(5)
H67 H 0.2699 0.8451 0.3789
C126 C 0.2293(8) 0.8241(7) 0.3334(5)
H68 H 0.2523 0.8375 0.3263
C127 C 0.1825(8) 0.7995(9) 0.3143(5)
C128 C 0.1482(7) 0.7766(7) 0.3239(4)
C129 C 0.1605(7) 0.7785(7) 0.3535(4)
H69 H 0.1388 0.7620 0.3604
O6 O 0.1664(6) 0.7909(6) 0.2821(3)
C130 C 0.0287(9) 0.7116(10) 0.2565(5)
C131 C 0.0394(11) 0.7233(13) 0.2328(5)
H70 H 0.0147 0.7149 0.2114
C132 C 0.0874(11) 0.7478(11) 0.2404(5)
H71 H 0.0977 0.7547 0.2250
C133 C 0.1189(10) 0.7613(11) 0.2718(5)
C134 C 0.1041(8) 0.7530(8) 0.2948(4)
C135 C 0.0607(7) 0.7262(7) 0.2885(4)
H72 H 0.0519 0.7176 0.3044
N10 N 0.1810(6) 0.4471(6) 0.7933(6)
C136 C 0.1717(10) 0.4186(12) 0.8137(5)
H73 H 0.1927 0.4236 0.8359
C137 C 0.1326(9) 0.3833(9) 0.8022(7)
H74 H 0.1266 0.3631 0.8162
C138 C 0.1020(9) 0.3773(12) 0.7703(8)
C139 C 0.1109(12) 0.4063(11) 0.7490(7)
H75 H 0.0896 0.4027 0.7267
C140 C 0.1498(12) 0.4380(12) 0.7617(6)
H76 H 0.1573 0.4568 0.7477
C141 C 0.0627(12) 0.3404(12) 0.7626(6)
C142 C -0.0254(13) 0.6812(11) 0.2479(6)
N11 N 0.1797(6) 0.5476(6) 0.8092(6)
C143 C 0.1712(11) 0.5559(10) 0.8334(6)
H77 H 0.1961 0.5412 0.8531
C144 C 0.1304(10) 0.5834(8) 0.8332(6)
H78 H 0.1260 0.5855 0.8514
C145 C 0.0972(10) 0.6070(8) 0.8062(10)
C146 C 0.1044(13) 0.5995(12) 0.7776(8)
H79 H 0.0803 0.6146 0.7579
C147 C 0.1447(13) 0.5715(10) 0.7803(7)
H80 H 0.1500 0.5676 0.7626
C148 C 0.0570(11) 0.6341(10) 0.8091(6)
C149 C -0.0237(10) 0.3422(9) 0.1937(5)
N12 N 0.2897(6) 0.9089(6) 0.5755(3)
C150 C 0.2933(7) 0.9583(7) 0.5718(4)
H81 H 0.3233 0.9713 0.5709
C151 C 0.2539(7) 0.9902(8) 0.5693(5)
H82 H 0.2587 1.0253 0.5691
C152 C 0.2091(9) 0.9721(10) 0.5672(6)
C153 C 0.2032(9) 0.9188(9) 0.5719(6)
H83 H 0.1725 0.9050 0.5717
C154 C 0.2489(8) 0.8892(8) 0.5768(5)
H84 H 0.2494 0.8545 0.5811
C155 C 0.1625(10) 1.0053(11) 0.5579(10)
C156 C -0.1251(14) -0.0369(12) 0.4522(10)
Pd1B Pd -0.34943(5) 0.13604(5) 0.42057(3)
Pd2B Pd -0.36091(5) 0.79877(5) 0.50085(3)
Pd3B Pd -0.23709(6) 0.49644(6) 0.19061(3)
N1B N -0.4058(9) 0.7416(7) 0.4988(3)
C1B C -0.4527(11) 0.7488(7) 0.4960(4)
H1B H -0.4636 0.7821 0.4970
C2B C -0.4872(8) 0.7098(11) 0.4917(4)
H2B H -0.5210 0.7155 0.4903
C3B C -0.4698(13) 0.6604(9) 0.4896(4)
C4B C -0.4202(12) 0.6552(13) 0.4928(4)
H3B H -0.4070 0.6227 0.4926
C5B C -0.3901(9) 0.6948(11) 0.4962(5)
H4B H -0.3568 0.6904 0.4967
C6B C -0.5076(12) 0.6221(10) 0.4827(5)
C7B C -0.5449(13) 0.5845(13) 0.4749(5)
C8B C -0.5819(10) 0.5441(9) 0.4663(6)
C9B C -0.6319(13) 0.5577(8) 0.4609(8)
H5B H -0.6402 0.5913 0.4631
C10B C -0.6702(9) 0.5192(12) 0.4519(7)
H6B H -0.7043 0.5257 0.4498
C11B C -0.6577(8) 0.4729(9) 0.4463(6)
C12B C -0.6052(9) 0.4638(8) 0.4499(4)
C13B C -0.5689(7) 0.4986(9) 0.4592(4)
H7B H -0.5350 0.4927 0.4608
O1B O -0.6902(5) 0.4319(6) 0.4364(3)
C14B C -0.5920(8) 0.3308(8) 0.4258(4)
C15B C -0.6457(9) 0.3162(6) 0.4194(4)
H8B H -0.6571 0.2828 0.4130
C16B C -0.6812(7) 0.3492(9) 0.4222(5)
H9B H -0.7159 0.3390 0.4178
C17B C -0.6632(9) 0.3962(9) 0.4315(5)
C18B C -0.6101(8) 0.4126(8) 0.4398(4)
C19B C -0.5751(7) 0.3801(8) 0.4360(3)
H10B H -0.5408 0.3912 0.4401
C20B C -0.5584(8) 0.2966(7) 0.4229(4)
C21B C -0.5273(9) 0.2703(8) 0.4223(4)
C22B C -0.4874(8) 0.2377(9) 0.4196(3)
C23B C -0.4930(7) 0.1864(8) 0.4174(3)
H11B H -0.5235 0.1710 0.4166
C24B C -0.4533(8) 0.1572(6) 0.4165(3)
H12B H -0.4571 0.1218 0.4146
N2B N -0.4098(6) 0.1790(7) 0.4181(3)
C25B C -0.4066(7) 0.2292(10) 0.4200(3)
H13B H -0.3768 0.2447 0.4199
C26B C -0.4432(10) 0.2598(7) 0.4220(4)
H14B H -0.4378 0.2949 0.4249
N3B N -0.3930(6) 0.7959(6) 0.4541(4)
C27B C -0.4332(8) 0.8262(8) 0.4363(4)
H15B H -0.4471 0.8471 0.4463
C28B C -0.4565(8) 0.8288(8) 0.4027(4)
H16B H -0.4845 0.8517 0.3907
C29B C -0.4368(9) 0.7965(8) 0.3879(5)
C30B C -0.3957(10) 0.7633(9) 0.4064(6)
H17B H -0.3814 0.7405 0.3974
C31B C -0.3772(8) 0.7655(8) 0.4380(6)
H18B H -0.3495 0.7426 0.4505
C32B C -0.4592(11) 0.7962(8) 0.3566(6)
C33B C -0.4831(11) 0.7961(8) 0.3279(6)
C34B C -0.5106(13) 0.7973(10) 0.2934(6)
C35B C -0.5586(15) 0.8254(11) 0.2764(6)
H19B H -0.5766 0.8389 0.2867
C36B C -0.5786(14) 0.8326(13) 0.2438(7)
H20B H -0.6036 0.8587 0.2331
C37B C -0.5623(11) 0.8027(11) 0.2275(7)
C38B C -0.5148(11) 0.7721(9) 0.2442(5)
C39B C -0.4898(10) 0.7661(8) 0.2767(5)
H21B H -0.4611 0.7433 0.2876
O2B O -0.5800(7) 0.8048(6) 0.1957(3)
C40B C -0.4774(8) 0.7052(7) 0.1900(4)
C41B C -0.5135(8) 0.7273(8) 0.1622(4)
H22B H -0.5145 0.7188 0.1429
C42B C -0.5489(11) 0.7629(9) 0.1627(5)
H23B H -0.5736 0.7805 0.1441
C43B C -0.5461(9) 0.7711(8) 0.1919(5)
C44B C -0.5071(8) 0.7484(8) 0.2198(4)
C45B C -0.4714(8) 0.7168(7) 0.2198(4)
H24B H -0.4435 0.7029 0.2388
C46B C -0.4401(9) 0.6686(9) 0.1895(4)
C47B C -0.4100(8) 0.6436(9) 0.1883(4)
C48B C -0.3704(7) 0.6069(7) 0.1892(4)
C49B C -0.3671(7) 0.5956(7) 0.1610(4)
H25B H -0.3923 0.6095 0.1412
C50B C -0.3282(7) 0.5652(7) 0.1632(4)
H26B H -0.3268 0.5595 0.1443
N4B N -0.2915(5) 0.5424(5) 0.1893(3)
C51B C -0.2945(8) 0.5519(7) 0.2160(4)
H27B H -0.2686 0.5359 0.2349
C52B C -0.3318(8) 0.5829(8) 0.2189(4)
H28B H -0.3319 0.5877 0.2382
N5B N -0.2910(8) 0.4416(8) 0.1724(7)
C53B C -0.3202(10) 0.4293(10) 0.1433(7)
H29B H -0.3170 0.4494 0.1281
C54B C -0.3561(9) 0.3893(11) 0.1314(6)
H30B H -0.3764 0.3832 0.1093
C55B C -0.3613(9) 0.3586(13) 0.1531(9)
C56B C -0.3328(14) 0.3744(12) 0.1841(9)
H31B H -0.3365 0.3574 0.2002
C57B C -0.2977(9) 0.4165(13) 0.1921(8)
H32B H -0.2781 0.4262 0.2137
C58B C -0.3963(11) 0.3124(11) 0.1405(6)
C59B C -0.4187(9) 0.2765(12) 0.1349(5)
C60B C -0.4458(8) 0.2349(8) 0.1297(5)
C61B C -0.4774(9) 0.2102(7) 0.0988(5)
H33B H -0.4774 0.2255 0.0811
C62B C -0.5061(11) 0.1683(10) 0.0931(5)
H34B H -0.5258 0.1545 0.0724
C63B C -0.5055(11) 0.1458(9) 0.1194(5)
C64B C -0.4769(8) 0.1684(9) 0.1525(5)
C65B C -0.4489(8) 0.2115(7) 0.1556(5)
H35B H -0.4305 0.2268 0.1758
O3B O -0.5338(8) 0.1056(7) 0.1196(3)
C66B C -0.4943(11) 0.1019(10) 0.2148(5)
C67B C -0.5287(12) 0.0658(11) 0.1940(5)
H36B H -0.5462 0.0437 0.2013
C68B C -0.5387(13) 0.0603(11) 0.1630(5)
H37B H -0.5573 0.0322 0.1503
C69B C -0.5200(11) 0.0980(10) 0.1522(5)
C70B C -0.4864(9) 0.1358(7) 0.1717(5)
C71B C -0.4740(9) 0.1385(8) 0.2015(4)
H38B H -0.4514 0.1647 0.2144
C72B C -0.4779(9) 0.1007(8) 0.2458(5)
C73B C -0.4618(10) 0.1064(8) 0.2716(6)
C74B C -0.4356(13) 0.1108(10) 0.3066(7)
C75B C -0.4509(8) 0.0841(8) 0.3270(8)
H39B H -0.4795 0.0607 0.3175
C76B C -0.4266(10) 0.0905(8) 0.3591(7)
H40B H -0.4369 0.0703 0.3713
N6B N -0.3883(8) 0.1252(8) 0.3733(4)
C77B C -0.3726(9) 0.1537(8) 0.3545(8)
H41B H -0.3458 0.1787 0.3642
C78B C -0.3959(14) 0.1454(12) 0.3221(7)
H42B H -0.3838 0.1644 0.3102
N7B N -0.3283(6) 0.8021(6) 0.5492(4)
C79B C -0.3535(7) 0.8246(6) 0.5609(4)
H43B H -0.3871 0.8390 0.5465
C80B C -0.3360(6) 0.8297(6) 0.5929(4)
H44B H -0.3561 0.8462 0.6010
C81B C -0.2824(8) 0.8066(6) 0.6136(5)
C82B C -0.2582(7) 0.7827(7) 0.6005(5)
H45B H -0.2248 0.7666 0.6132
C83B C -0.2835(7) 0.7815(7) 0.5665(5)
H46B H -0.2662 0.7646 0.5568
C84B C -0.2624(7) 0.8083(6) 0.6468(5)
C85B C -0.2414(8) 0.8060(7) 0.6750(5)
C86B C -0.2190(9) 0.7981(7) 0.7085(5)
C87B C -0.2371(9) 0.8207(8) 0.7263(5)
H47B H -0.2699 0.8385 0.7153
C88B C -0.2120(11) 0.8202(12) 0.7592(6)
H48B H -0.2228 0.8408 0.7710
C89B C -0.1686(11) 0.7856(12) 0.7735(6)
C90B C -0.1447(8) 0.7683(9) 0.7577(5)
C91B C -0.1684(7) 0.7723(7) 0.7236(4)
H49B H -0.1521 0.7591 0.7122
O4B O -0.1345(7) 0.7831(8) 0.8046(4)
C92B C -0.0182(9) 0.6897(9) 0.8064(5)
C93B C -0.0202(10) 0.6959(12) 0.8359(5)
H50B H 0.0041 0.6776 0.8542
C94B C -0.0572(10) 0.7284(12) 0.8377(5)
H51B H -0.0563 0.7355 0.8572
C95B C -0.0944(10) 0.7488(12) 0.8098(5)
C96B C -0.0984(8) 0.7389(9) 0.7798(4)
C97B C -0.0587(7) 0.7116(7) 0.7776(4)
H52B H -0.0587 0.7079 0.7582
N8B N -0.3147(8) 0.8571(9) 0.5025(3)
C98B C -0.3305(9) 0.9007(11) 0.4996(5)
H53B H -0.3657 0.9066 0.4960
C99B C -0.2995(10) 0.9415(10) 0.5013(5)
H54B H -0.3127 0.9747 0.4993
C100B C -0.2474(10) 0.9318(11) 0.5062(4)
C101B C -0.2319(10) 0.8850(14) 0.5102(6)
H55B H -0.1970 0.8765 0.5142
C102B C -0.2665(14) 0.8484(8) 0.5086(6)
H56B H -0.2543 0.8147 0.5121
C103B C -0.2120(9) 0.9722(11) 0.5091(5)
C104B C -0.1818(9) 1.0047(9) 0.5123(6)
C105B C -0.1458(9) 1.0457(9) 0.5131(5)
C106B C -0.1670(9) 1.0934(10) 0.5073(6)
H57B H -0.2026 1.0989 0.5030
C107B C -0.1350(9) 1.1343(9) 0.5077(6)
H58B H -0.1466 1.1680 0.5060
C108B C -0.0864(10) 1.1219(9) 0.5109(7)
C109B C -0.0660(9) 1.0707(10) 0.5189(7)
C110B C -0.0958(8) 1.0335(8) 0.5179(6)
H59B H -0.0838 0.9998 0.5204
O5B O -0.0509(7) 1.1563(6) 0.5131(5)
C111B C 0.0830(10) 1.0611(10) 0.5426(9)
C112B C 0.0875(10) 1.1142(11) 0.5361(9)
H60B H 0.1202 1.1255 0.5379
C113B C 0.0460(11) 1.1487(9) 0.5275(9)
H61B H 0.0497 1.1833 0.5244
C114B C 0.0001(11) 1.1283(10) 0.5239(9)
C115B C -0.0098(9) 1.0760(10) 0.5247(8)
C116B C 0.0335(10) 1.0428(8) 0.5391(8)
H62B H 0.0303 1.0104 0.5459
N9B N -0.3128(7) 0.1454(6) 0.4639(5)
C117B C -0.3231(7) 0.1243(8) 0.4846(5)
H63B H -0.3495 0.0988 0.4757
C118B C -0.3043(8) 0.1308(8) 0.5159(7)
H64B H -0.3174 0.1115 0.5271
C119B C -0.2647(9) 0.1673(10) 0.5312(5)
C120B C -0.2498(7) 0.1921(6) 0.5127(6)
H65B H -0.2228 0.2170 0.5221
C121B C -0.2723(8) 0.1831(8) 0.4804(6)
H66B H -0.2604 0.2026 0.4686
C122B C -0.2382(8) 0.1783(7) 0.5654(7)
C123B C -0.2212(8) 0.1866(7) 0.5932(6)
C124B C -0.2072(8) 0.1942(7) 0.6244(5)
C125B C -0.2391(7) 0.1729(9) 0.6358(5)
H67B H -0.2699 0.1549 0.6211
C126B C -0.2293(8) 0.1759(7) 0.6666(5)
H68B H -0.2523 0.1625 0.6737
C127B C -0.1825(8) 0.2005(9) 0.6857(5)
C128B C -0.1482(7) 0.2234(7) 0.6761(4)
C129B C -0.1605(7) 0.2215(7) 0.6465(4)
H69B H -0.1388 0.2380 0.6396
O6B O -0.1664(6) 0.2091(6) 0.7179(3)
C130B C -0.0287(9) 0.2884(10) 0.7435(5)
C131B C -0.0394(11) 0.2767(13) 0.7672(5)
H70B H -0.0147 0.2851 0.7886
C132B C -0.0874(11) 0.2522(11) 0.7596(5)
H71B H -0.0977 0.2453 0.7750
C133B C -0.1189(10) 0.2387(11) 0.7282(5)
C134B C -0.1041(8) 0.2470(8) 0.7052(4)
C135B C -0.0607(7) 0.2738(7) 0.7115(4)
H72B H -0.0519 0.2824 0.6956
N10B N -0.1810(6) 0.5529(6) 0.2067(6)
C136B C -0.1717(10) 0.5814(12) 0.1863(5)
H73B H -0.1927 0.5764 0.1641
C137B C -0.1326(9) 0.6167(9) 0.1978(7)
H74B H -0.1266 0.6369 0.1838
C138B C -0.1020(9) 0.6227(12) 0.2297(8)
C139B C -0.1109(12) 0.5937(11) 0.2510(7)
H75B H -0.0896 0.5973 0.2733
C140B C -0.1498(12) 0.5620(12) 0.2383(6)
H76B H -0.1573 0.5432 0.2523
C141B C -0.0627(12) 0.6596(12) 0.2374(6)
C142B C 0.0254(13) 0.3188(11) 0.7521(6)
N11B N -0.1797(6) 0.4524(6) 0.1908(6)
C143B C -0.1712(11) 0.4441(10) 0.1666(6)
H77B H -0.1961 0.4588 0.1469
C144B C -0.1304(10) 0.4166(8) 0.1668(6)
H78B H -0.1260 0.4145 0.1486
C145B C -0.0972(10) 0.3930(8) 0.1938(10)
C146B C -0.1044(13) 0.4005(12) 0.2224(8)
H79B H -0.0803 0.3854 0.2421
C147B C -0.1447(13) 0.4285(10) 0.2197(7)
H80B H -0.1500 0.4324 0.2374
C148B C -0.0570(11) 0.3659(10) 0.1909(6)
C149B C 0.0237(10) 0.6578(9) 0.8063(5)
N12B N -0.2897(6) 0.0911(6) 0.4245(3)
C150B C -0.2933(7) 0.0417(7) 0.4282(4)
H81B H -0.3233 0.0287 0.4291
C151B C -0.2539(7) 0.0098(8) 0.4307(5)
H82B H -0.2587 -0.0253 0.4309
C152B C -0.2091(9) 0.0279(10) 0.4328(6)
C153B C -0.2032(9) 0.0812(9) 0.4281(6)
H83B H -0.1725 0.0950 0.4283
C154B C -0.2489(8) 0.1108(8) 0.4232(5)
H84B H -0.2494 0.1455 0.4189
C155B C -0.1625(10) -0.0053(11) 0.4421(10)
C156B C 0.1251(14) 1.0369(12) 0.5478(10)
C168? C 0.2677(12) 0.5202(14) 0.9208(7)
C169? C 0.5812(17) 0.9960(14) 0.5955(9)
C170? C 0.5810(18) 0.9484(18) 0.5433(10)
F4? F 0.2530(12) 0.5631(9) 0.9066(6)
F5? F 0.2522(8) 0.5225(8) 0.9415(5)
F6? F 0.3189(13) 0.5254(16) 0.9376(10)
H115? H 0.5708 0.9966 0.6120
H116? H 0.5661 1.0253 0.5817
H117? H 0.6203 0.9968 0.6054
H118? H 0.5715 0.9211 0.5280
H119? H 0.6200 0.9515 0.5557
H120? H 0.5657 0.9798 0.5320
O46? O 0.2769(17) 0.4658(18) 0.8823(8)
O47? O 0.2698(14) 0.4257(10) 0.9227(7)
O48? O 0.1976(11) 0.4675(11) 0.8834(6)
O49? O 0.5745(7) 0.8984(7) 0.5860(4)
O50? O 0.4370(9) 1.0398(11) 0.5591(6)
S8? S 0.2553(6) 0.4665(5) 0.9016(4)
S9? S 0.5539(5) 0.9348(7) 0.5703(3)
loop_
_geom_bond_atom_site_label_1
_geom_bond_atom_site_label_2
_geom_bond_site_symmetry_1
_geom_bond_site_symmetry_2
Pd1 N2 1_555 1_555
Pd2 N1 1_555 1_555
Pd3 N4 1_555 1_555
N1 C1 1_555 1_555
C1 H1 1_555 1_555
C2 C1 1_555 1_555
H2 C2 1_555 1_555
C3 C2 1_555 1_555
C4 C3 1_555 1_555
H3 C4 1_555 1_555
C5 N1 1_555 1_555
H4 C5 1_555 1_555
C6 C3 1_555 1_555
C7 C6 1_555 1_555
C8 C7 1_555 1_555
C9 C8 1_555 1_555
H5 C9 1_555 1_555
C10 C9 1_555 1_555
H6 C10 1_555 1_555
C11 C10 1_555 1_555
C12 C11 1_555 1_555
C13 C8 1_555 1_555
H7 C13 1_555 1_555
O1 C11 1_555 1_555
C14 C15 1_555 1_555
C15 H8 1_555 1_555
C16 C15 1_555 1_555
H9 C16 1_555 1_555
C17 O1 1_555 1_555
C18 C12 1_555 1_555
C19 C14 1_555 1_555
H10 C19 1_555 1_555
C20 C14 1_555 1_555
C21 C20 1_555 1_555
C22 C21 1_555 1_555
C23 C22 1_555 1_555
H11 C23 1_555 1_555
C24 C23 1_555 1_555
H12 C24 1_555 1_555
N2 C24 1_555 1_555
C25 N2 1_555 1_555
H13 C25 1_555 1_555
C26 C22 1_555 1_555
H14 C26 1_555 1_555
N3 Pd2 1_555 1_555
C27 N3 1_555 1_555
H15 C27 1_555 1_555
C28 C27 1_555 1_555
H16 C28 1_555 1_555
C29 C28 1_555 1_555
C30 C29 1_555 1_555
H17 C30 1_555 1_555
C31 N3 1_555 1_555
H18 C31 1_555 1_555
C32 C29 1_555 1_555
C33 C32 1_555 1_555
C34 C33 1_555 1_555
C35 C34 1_555 1_555
H19 C35 1_555 1_555
C36 C35 1_555 1_555
H20 C36 1_555 1_555
C37 C36 1_555 1_555
C38 C37 1_555 1_555
C39 C34 1_555 1_555
H21 C39 1_555 1_555
O2 C37 1_555 1_555
C40 C41 1_555 1_555
C41 H22 1_555 1_555
C42 C41 1_555 1_555
H23 C42 1_555 1_555
C43 O2 1_555 1_555
C44 C38 1_555 1_555
C45 C40 1_555 1_555
H24 C45 1_555 1_555
C46 C40 1_555 1_555
C47 C46 1_555 1_555
C48 C47 1_555 1_555
C49 C48 1_555 1_555
H25 C49 1_555 1_555
C50 C49 1_555 1_555
H26 C50 1_555 1_555
N4 C50 1_555 1_555
C51 N4 1_555 1_555
H27 C51 1_555 1_555
C52 C48 1_555 1_555
H28 C52 1_555 1_555
N5 Pd3 1_555 1_555
C53 N5 1_555 1_555
H29 C53 1_555 1_555
C54 C53 1_555 1_555
H30 C54 1_555 1_555
C55 C54 1_555 1_555
C56 C55 1_555 1_555
H31 C56 1_555 1_555
C57 N5 1_555 1_555
H32 C57 1_555 1_555
C58 C55 1_555 1_555
C59 C58 1_555 1_555
C60 C59 1_555 1_555
C61 C60 1_555 1_555
H33 C61 1_555 1_555
C62 C61 1_555 1_555
H34 C62 1_555 1_555
C63 C62 1_555 1_555
C64 C63 1_555 1_555
C65 C60 1_555 1_555
H35 C65 1_555 1_555
O3 C63 1_555 1_555
C66 C67 1_555 1_555
C67 H36 1_555 1_555
C68 C67 1_555 1_555
H37 C68 1_555 1_555
C69 O3 1_555 1_555
C70 C64 1_555 1_555
C71 C66 1_555 1_555
H38 C71 1_555 1_555
C72 C66 1_555 1_555
C73 C72 1_555 1_555
C74 C73 1_555 1_555
C75 C74 1_555 1_555
H39 C75 1_555 1_555
C76 C75 1_555 1_555
H40 C76 1_555 1_555
N6 Pd1 1_555 1_555
C77 N6 1_555 1_555
H41 C77 1_555 1_555
C78 C74 1_555 1_555
H42 C78 1_555 1_555
N7 Pd2 1_555 1_555
C79 N7 1_555 1_555
H43 C79 1_555 1_555
C80 C79 1_555 1_555
H44 C80 1_555 1_555
C81 C80 1_555 1_555
C82 C81 1_555 1_555
H45 C82 1_555 1_555
C83 N7 1_555 1_555
H46 C83 1_555 1_555
C84 C81 1_555 1_555
C85 C84 1_555 1_555
C86 C85 1_555 1_555
C87 C86 1_555 1_555
H47 C87 1_555 1_555
C88 C87 1_555 1_555
H48 C88 1_555 1_555
C89 C88 1_555 1_555
C90 C89 1_555 1_555
C91 C86 1_555 1_555
H49 C91 1_555 1_555
O4 C89 1_555 1_555
C92 C93 1_555 1_555
C93 H50 1_555 1_555
C94 C93 1_555 1_555
H51 C94 1_555 1_555
C95 O4 1_555 1_555
C96 C90 1_555 1_555
C97 C92 1_555 1_555
H52 C97 1_555 1_555
N8 Pd2 1_555 1_555
C98 N8 1_555 1_555
H53 C98 1_555 1_555
C99 C98 1_555 1_555
H54 C99 1_555 1_555
C100 C99 1_555 1_555
C101 C100 1_555 1_555
H55 C101 1_555 1_555
C102 N8 1_555 1_555
H56 C102 1_555 1_555
C103 C100 1_555 1_555
C104 C103 1_555 1_555
C105 C104 1_555 1_555
C106 C105 1_555 1_555
H57 C106 1_555 1_555
C107 C106 1_555 1_555
H58 C107 1_555 1_555
C108 C107 1_555 1_555
C109 C108 1_555 1_555
C110 C105 1_555 1_555
H59 C110 1_555 1_555
O5 C108 1_555 1_555
C111 C112 1_555 1_555
C112 H60 1_555 1_555
C113 C112 1_555 1_555
H61 C113 1_555 1_555
C114 O5 1_555 1_555
C115 C109 1_555 1_555
C116 C111 1_555 1_555
H62 C116 1_555 1_555
N9 Pd1 1_555 1_555
C117 N9 1_555 1_555
H63 C117 1_555 1_555
C118 C117 1_555 1_555
H64 C118 1_555 1_555
C119 C118 1_555 1_555
C120 C119 1_555 1_555
H65 C120 1_555 1_555
C121 N9 1_555 1_555
H66 C121 1_555 1_555
C122 C119 1_555 1_555
C123 C122 1_555 1_555
C124 C123 1_555 1_555
C125 C124 1_555 1_555
H67 C125 1_555 1_555
C126 C125 1_555 1_555
H68 C126 1_555 1_555
C127 C126 1_555 1_555
C128 C127 1_555 1_555
C129 C124 1_555 1_555
H69 C129 1_555 1_555
O6 C127 1_555 1_555
C130 C131 1_555 1_555
C131 H70 1_555 1_555
C132 C131 1_555 1_555
H71 C132 1_555 1_555
C133 O6 1_555 1_555
C134 C128 1_555 1_555
C135 C130 1_555 1_555
H72 C135 1_555 1_555
N10 Pd3 1_555 1_555
C136 N10 1_555 1_555
H73 C136 1_555 1_555
C137 C136 1_555 1_555
H74 C137 1_555 1_555
C138 C137 1_555 1_555
C139 C138 1_555 1_555
H75 C139 1_555 1_555
C140 N10 1_555 1_555
H76 C140 1_555 1_555
C141 C138 1_555 1_555
C142 C130 1_555 1_555
N11 Pd3 1_555 1_555
C143 N11 1_555 1_555
H77 C143 1_555 1_555
C144 C143 1_555 1_555
H78 C144 1_555 1_555
C145 C144 1_555 1_555
C146 C145 1_555 1_555
H79 C146 1_555 1_555
C147 N11 1_555 1_555
H80 C147 1_555 1_555
C148 C145 1_555 1_555
C149 C92 1_555 1_555
N12 Pd1 1_555 1_555
C150 N12 1_555 1_555
H81 C150 1_555 1_555
C151 C150 1_555 1_555
H82 C151 1_555 1_555
C152 C151 1_555 1_555
C153 C152 1_555 1_555
H83 C153 1_555 1_555
C154 N12 1_555 1_555
H84 C154 1_555 1_555
C155 C152 1_555 1_555
C156 C111 1_555 1_555
S1 O7 1_555 1_555
C157 S1 1_555 1_555
H85 C157 1_555 1_555
H86 C157 1_555 1_555
H87 C157 1_555 1_555
C158 S1 1_555 1_555
H88 C158 1_555 1_555
H89 C158 1_555 1_555
H90 C158 1_555 1_555
S2 O8 1_555 1_555
C159 S2 1_555 1_555
H91 C159 1_555 1_555
H92 C159 1_555 1_555
H93 C159 1_555 1_555
C160 S2 1_555 1_555
H94 C160 1_555 1_555
H95 C160 1_555 1_555
H96 C160 1_555 1_555
S3 O9 1_555 1_555
C161 S3 1_555 1_555
H97 C161 1_555 1_555
H98 C161 1_555 1_555
H99 C161 1_555 1_555
C162 S3 1_555 1_555
H100 C162 1_555 1_555
H101 C162 1_555 1_555
H102 C162 1_555 1_555
S4 O10 1_555 1_555
S5 O11 1_555 1_555
C163 S5 1_555 1_555
H103 C163 1_555 1_555
H104 C163 1_555 1_555
H105 C163 1_555 1_555
C164 S5 1_555 1_555
H106 C164 1_555 1_555
H107 C164 1_555 1_555
H108 C164 1_555 1_555
S6 O12 1_555 1_555
O13 S6 1_555 1_555
O14 S6 1_555 1_555
C165 S6 1_555 1_555
F1 C165 1_555 1_555
F2 C165 1_555 1_555
F3 C165 1_555 1_555
S7 O15 1_555 1_555
C166 S7 1_555 1_555
H109 C166 1_555 1_555
H110 C166 1_555 1_555
H111 C166 1_555 1_555
C167 S7 1_555 1_555
H112 C167 1_555 1_555
H113 C167 1_555 1_555
H114 C167 1_555 1_555
Pd1B N2B 1_555 1_555
Pd2B N1B 1_555 1_555
Pd3B N4B 1_555 1_555
N1B C1B 1_555 1_555
C1B H1B 1_555 1_555
C2B C1B 1_555 1_555
H2B C2B 1_555 1_555
C3B C2B 1_555 1_555
C4B C3B 1_555 1_555
H3B C4B 1_555 1_555
C5B N1B 1_555 1_555
H4B C5B 1_555 1_555
C6B C3B 1_555 1_555
C7B C6B 1_555 1_555
C8B C7B 1_555 1_555
C9B C8B 1_555 1_555
H5B C9B 1_555 1_555
C10B C9B 1_555 1_555
H6B C10B 1_555 1_555
C11B C10B 1_555 1_555
C12B C11B 1_555 1_555
C13B C8B 1_555 1_555
H7B C13B 1_555 1_555
O1B C11B 1_555 1_555
C14B C15B 1_555 1_555
C15B H8B 1_555 1_555
C16B C15B 1_555 1_555
H9B C16B 1_555 1_555
C17B O1B 1_555 1_555
C18B C12B 1_555 1_555
C19B C14B 1_555 1_555
H10B C19B 1_555 1_555
C20B C14B 1_555 1_555
C21B C20B 1_555 1_555
C22B C21B 1_555 1_555
C23B C22B 1_555 1_555
H11B C23B 1_555 1_555
C24B C23B 1_555 1_555
H12B C24B 1_555 1_555
N2B C24B 1_555 1_555
C25B N2B 1_555 1_555
H13B C25B 1_555 1_555
C26B C22B 1_555 1_555
H14B C26B 1_555 1_555
N3B Pd2B 1_555 1_555
C27B N3B 1_555 1_555
H15B C27B 1_555 1_555
C28B C27B 1_555 1_555
H16B C28B 1_555 1_555
C29B C28B 1_555 1_555
C30B C29B 1_555 1_555
H17B C30B 1_555 1_555
C31B N3B 1_555 1_555
H18B C31B 1_555 1_555
C32B C29B 1_555 1_555
C33B C32B 1_555 1_555
C34B C33B 1_555 1_555
C35B C34B 1_555 1_555
H19B C35B 1_555 1_555
C36B C35B 1_555 1_555
H20B C36B 1_555 1_555
C37B C36B 1_555 1_555
C38B C37B 1_555 1_555
C39B C34B 1_555 1_555
H21B C39B 1_555 1_555
O2B C37B 1_555 1_555
C40B C41B 1_555 1_555
C41B H22B 1_555 1_555
C42B C41B 1_555 1_555
H23B C42B 1_555 1_555
C43B O2B 1_555 1_555
C44B C38B 1_555 1_555
C45B C40B 1_555 1_555
H24B C45B 1_555 1_555
C46B C40B 1_555 1_555
C47B C46B 1_555 1_555
C48B C47B 1_555 1_555
C49B C48B 1_555 1_555
H25B C49B 1_555 1_555
C50B C49B 1_555 1_555
H26B C50B 1_555 1_555
N4B C50B 1_555 1_555
C51B N4B 1_555 1_555
H27B C51B 1_555 1_555
C52B C48B 1_555 1_555
H28B C52B 1_555 1_555
N5B Pd3B 1_555 1_555
C53B N5B 1_555 1_555
H29B C53B 1_555 1_555
C54B C53B 1_555 1_555
H30B C54B 1_555 1_555
C55B C54B 1_555 1_555
C56B C55B 1_555 1_555
H31B C56B 1_555 1_555
C57B N5B 1_555 1_555
H32B C57B 1_555 1_555
C58B C55B 1_555 1_555
C59B C58B 1_555 1_555
C60B C59B 1_555 1_555
C61B C60B 1_555 1_555
H33B C61B 1_555 1_555
C62B C61B 1_555 1_555
H34B C62B 1_555 1_555
C63B C62B 1_555 1_555
C64B C63B 1_555 1_555
C65B C60B 1_555 1_555
H35B C65B 1_555 1_555
O3B C63B 1_555 1_555
C66B C67B 1_555 1_555
C67B H36B 1_555 1_555
C68B C67B 1_555 1_555
H37B C68B 1_555 1_555
C69B O3B 1_555 1_555
C70B C64B 1_555 1_555
C71B C66B 1_555 1_555
H38B C71B 1_555 1_555
C72B C66B 1_555 1_555
C73B C72B 1_555 1_555
C74B C73B 1_555 1_555
C75B C74B 1_555 1_555
H39B C75B 1_555 1_555
C76B C75B 1_555 1_555
H40B C76B 1_555 1_555
N6B Pd1B 1_555 1_555
C77B N6B 1_555 1_555
H41B C77B 1_555 1_555
C78B C74B 1_555 1_555
H42B C78B 1_555 1_555
N7B Pd2B 1_555 1_555
C79B N7B 1_555 1_555
H43B C79B 1_555 1_555
C80B C79B 1_555 1_555
H44B C80B 1_555 1_555
C81B C80B 1_555 1_555
C82B C81B 1_555 1_555
H45B C82B 1_555 1_555
C83B N7B 1_555 1_555
H46B C83B 1_555 1_555
C84B C81B 1_555 1_555
C85B C84B 1_555 1_555
C86B C85B 1_555 1_555
C87B C86B 1_555 1_555
H47B C87B 1_555 1_555
C88B C87B 1_555 1_555
H48B C88B 1_555 1_555
C89B C88B 1_555 1_555
C90B C89B 1_555 1_555
C91B C86B 1_555 1_555
H49B C91B 1_555 1_555
O4B C89B 1_555 1_555
C92B C93B 1_555 1_555
C93B H50B 1_555 1_555
C94B C93B 1_555 1_555
H51B C94B 1_555 1_555
C95B O4B 1_555 1_555
C96B C90B 1_555 1_555
C97B C92B 1_555 1_555
H52B C97B 1_555 1_555
N8B Pd2B 1_555 1_555
C98B N8B 1_555 1_555
H53B C98B 1_555 1_555
C99B C98B 1_555 1_555
H54B C99B 1_555 1_555
C100B C99B 1_555 1_555
C101B C100B 1_555 1_555
H55B C101B 1_555 1_555
C102B N8B 1_555 1_555
H56B C102B 1_555 1_555
C103B C100B 1_555 1_555
C104B C103B 1_555 1_555
C105B C104B 1_555 1_555
C106B C105B 1_555 1_555
H57B C106B 1_555 1_555
C107B C106B 1_555 1_555
H58B C107B 1_555 1_555
C108B C107B 1_555 1_555
C109B C108B 1_555 1_555
C110B C105B 1_555 1_555
H59B C110B 1_555 1_555
O5B C108B 1_555 1_555
C111B C112B 1_555 1_555
C112B H60B 1_555 1_555
C113B C112B 1_555 1_555
H61B C113B 1_555 1_555
C114B O5B 1_555 1_555
C115B C109B 1_555 1_555
C116B C111B 1_555 1_555
H62B C116B 1_555 1_555
N9B Pd1B 1_555 1_555
C117B N9B 1_555 1_555
H63B C117B 1_555 1_555
C118B C117B 1_555 1_555
H64B C118B 1_555 1_555
C119B C118B 1_555 1_555
C120B C119B 1_555 1_555
H65B C120B 1_555 1_555
C121B N9B 1_555 1_555
H66B C121B 1_555 1_555
C122B C119B 1_555 1_555
C123B C122B 1_555 1_555
C124B C123B 1_555 1_555
C125B C124B 1_555 1_555
H67B C125B 1_555 1_555
C126B C125B 1_555 1_555
H68B C126B 1_555 1_555
C127B C126B 1_555 1_555
C128B C127B 1_555 1_555
C129B C124B 1_555 1_555
H69B C129B 1_555 1_555
O6B C127B 1_555 1_555
C130B C131B 1_555 1_555
C131B H70B 1_555 1_555
C132B C131B 1_555 1_555
H71B C132B 1_555 1_555
C133B O6B 1_555 1_555
C134B C128B 1_555 1_555
C135B C130B 1_555 1_555
H72B C135B 1_555 1_555
N10B Pd3B 1_555 1_555
C136B N10B 1_555 1_555
H73B C136B 1_555 1_555
C137B C136B 1_555 1_555
H74B C137B 1_555 1_555
C138B C137B 1_555 1_555
C139B C138B 1_555 1_555
H75B C139B 1_555 1_555
C140B N10B 1_555 1_555
H76B C140B 1_555 1_555
C141B C142 1_555 1_555
C142B C141 1_555 1_555
N11B Pd3B 1_555 1_555
C143B N11B 1_555 1_555
H77B C143B 1_555 1_555
C144B C143B 1_555 1_555
H78B C144B 1_555 1_555
C145B C144B 1_555 1_555
C146B C145B 1_555 1_555
H79B C146B 1_555 1_555
C147B N11B 1_555 1_555
H80B C147B 1_555 1_555
C148B C149 1_555 1_555
C149B C148 1_555 1_555
N12B Pd1B 1_555 1_555
C150B N12B 1_555 1_555
H81B C150B 1_555 1_555
C151B C150B 1_555 1_555
H82B C151B 1_555 1_555
C152B C151B 1_555 1_555
C153B C152B 1_555 1_555
H83B C153B 1_555 1_555
C154B N12B 1_555 1_555
H84B C154B 1_555 1_555
C155B C156 1_555 1_555
C156B C155 1_555 1_555
C4 C5 1_555 1_555
C12 C13 1_555 1_555
C16 C17 1_555 1_555
C17 C18 1_555 1_555
C18 C19 1_555 1_555
C25 C26 1_555 1_555
C30 C31 1_555 1_555
C38 C39 1_555 1_555
C42 C43 1_555 1_555
C43 C44 1_555 1_555
C44 C45 1_555 1_555
C51 C52 1_555 1_555
C56 C57 1_555 1_555
C64 C65 1_555 1_555
C68 C69 1_555 1_555
C69 C70 1_555 1_555
C70 C71 1_555 1_555
C76 N6 1_555 1_555
C77 C78 1_555 1_555
C82 C83 1_555 1_555
C90 C91 1_555 1_555
C94 C95 1_555 1_555
C95 C96 1_555 1_555
C96 C97 1_555 1_555
C101 C102 1_555 1_555
C109 C110 1_555 1_555
C113 C114 1_555 1_555
C114 C115 1_555 1_555
C115 C116 1_555 1_555
C120 C121 1_555 1_555
C128 C129 1_555 1_555
C132 C133 1_555 1_555
C133 C134 1_555 1_555
C134 C135 1_555 1_555
C139 C140 1_555 1_555
C146 C147 1_555 1_555
C153 C154 1_555 1_555
C4B C5B 1_555 1_555
C12B C13B 1_555 1_555
C16B C17B 1_555 1_555
C17B C18B 1_555 1_555
C18B C19B 1_555 1_555
C25B C26B 1_555 1_555
C30B C31B 1_555 1_555
C38B C39B 1_555 1_555
C42B C43B 1_555 1_555
C43B C44B 1_555 1_555
C44B C45B 1_555 1_555
C51B C52B 1_555 1_555
C56B C57B 1_555 1_555
C64B C65B 1_555 1_555
C68B C69B 1_555 1_555
C69B C70B 1_555 1_555
C70B C71B 1_555 1_555
C76B N6B 1_555 1_555
C77B C78B 1_555 1_555
C82B C83B 1_555 1_555
C90B C91B 1_555 1_555
C92B C149B 1_555 1_555
C94B C95B 1_555 1_555
C95B C96B 1_555 1_555
C96B C97B 1_555 1_555
C101B C102B 1_555 1_555
C109B C110B 1_555 1_555
C111B C156B 1_555 1_555
C113B C114B 1_555 1_555
C114B C115B 1_555 1_555
C115B C116B 1_555 1_555
C120B C121B 1_555 1_555
C128B C129B 1_555 1_555
C130B C142B 1_555 1_555
C132B C133B 1_555 1_555
C133B C134B 1_555 1_555
C134B C135B 1_555 1_555
C138B C141B 1_555 1_555
C139B C140B 1_555 1_555
C145B C148B 1_555 1_555
C146B C147B 1_555 1_555
C152B C155B 1_555 1_555
C153B C154B 1_555 1_555

#END
