# generated using pymatgen
data_H120Pd3C170S9N12(O25F3)2
_symmetry_space_group_name_H-M   'P 1'
_cell_length_a   26.70050000
_cell_length_b   28.71330000
_cell_length_c   42.49606721
_cell_angle_alpha   83.47398248
_cell_angle_beta   90.00000000
_cell_angle_gamma   90.00000000
_symmetry_Int_Tables_number   1
_chemical_formula_structural   H120Pd3C170S9N12(O25F3)2
_chemical_formula_sum   'H480 Pd12 C680 S36 N48 O200 F24'
_cell_volume   32368.90510027
_cell_formula_units_Z   4
loop_
 _symmetry_equiv_pos_site_id
 _symmetry_equiv_pos_as_xyz
  1  'x, y, z'
loop_
 _atom_site_type_symbol
 _atom_site_label
 _atom_site_symmetry_multiplicity
 _atom_site_fract_x
 _atom_site_fract_y
 _atom_site_fract_z
 _atom_site_occupancy
  H  H1  1  0.616400  0.210400  0.516500  1
  H  H2  1  0.116400  0.289600  0.983500  1
  H  H3  1  0.383600  0.789600  0.483500  1
  H  H4  1  0.883600  0.710400  0.016500  1
  H  H5  1  0.607700  0.260400  0.528900  1
  H  H6  1  0.107700  0.239600  0.971100  1
  H  H7  1  0.392300  0.739600  0.471100  1
  H  H8  1  0.892300  0.760400  0.028900  1
  H  H9  1  0.637800  0.220200  0.550300  1
  H  H10  1  0.137800  0.279800  0.949700  1
  H  H11  1  0.362200  0.779800  0.449700  1
  H  H12  1  0.862200  0.720200  0.050300  1
  H  H13  1  0.748300  0.306600  0.516800  1
  H  H14  1  0.248300  0.193400  0.983200  1
  H  H15  1  0.251700  0.693400  0.483200  1
  H  H16  1  0.751700  0.806600  0.016800  1
  H  H17  1  0.724400  0.285000  0.549800  1
  H  H18  1  0.224400  0.215000  0.950200  1
  H  H19  1  0.275600  0.715000  0.450200  1
  H  H20  1  0.775600  0.785000  0.049800  1
  H  H21  1  0.694500  0.324000  0.527300  1
  H  H22  1  0.194500  0.176000  0.972700  1
  H  H23  1  0.305500  0.676000  0.472700  1
  H  H24  1  0.805500  0.824000  0.027300  1
  H  H25  1  0.292000  0.310700  0.459600  1
  H  H26  1  0.792000  0.189300  0.040400  1
  H  H27  1  0.708000  0.689300  0.540400  1
  H  H28  1  0.208000  0.810700  0.959600  1
  H  H29  1  0.336200  0.333700  0.437600  1
  H  H30  1  0.836200  0.166300  0.062400  1
  H  H31  1  0.663800  0.666300  0.562400  1
  H  H32  1  0.163800  0.833700  0.937600  1
  H  H33  1  0.321400  0.279900  0.436500  1
  H  H34  1  0.821400  0.220100  0.063500  1
  H  H35  1  0.678600  0.720100  0.563500  1
  H  H36  1  0.178600  0.779900  0.936500  1
  H  H37  1  0.267400  0.338300  0.358100  1
  H  H38  1  0.767400  0.161700  0.141900  1
  H  H39  1  0.732600  0.661700  0.641900  1
  H  H40  1  0.232600  0.838300  0.858100  1
  H  H41  1  0.306200  0.298000  0.370700  1
  H  H42  1  0.806200  0.202000  0.129300  1
  H  H43  1  0.693800  0.702000  0.629300  1
  H  H44  1  0.193800  0.798000  0.870700  1
  H  H45  1  0.320500  0.351900  0.371900  1
  H  H46  1  0.820500  0.148100  0.128100  1
  H  H47  1  0.679500  0.648100  0.628100  1
  H  H48  1  0.179500  0.851900  0.871900  1
  H  H49  1  0.918900  0.052500  0.437100  1
  H  H50  1  0.418900  0.447500  0.062900  1
  H  H51  1  0.081100  0.947500  0.562900  1
  H  H52  1  0.581100  0.552500  0.937100  1
  H  H53  1  0.867100  0.024200  0.438400  1
  H  H54  1  0.367100  0.475800  0.061600  1
  H  H55  1  0.132900  0.975800  0.561600  1
  H  H56  1  0.632900  0.524200  0.938400  1
  H  H57  1  0.919100  0.996500  0.437800  1
  H  H58  1  0.419100  0.503500  0.062200  1
  H  H59  1  0.080900  0.003500  0.562200  1
  H  H60  1  0.580900  0.496500  0.937800  1
  H  H61  1  0.874800  0.957900  0.521900  1
  H  H62  1  0.374800  0.542100  0.978100  1
  H  H63  1  0.125200  0.042100  0.478100  1
  H  H64  1  0.625200  0.457900  0.021900  1
  H  H65  1  0.891700  0.938000  0.489900  1
  H  H66  1  0.391700  0.562000  0.010100  1
  H  H67  1  0.108300  0.062000  0.510100  1
  H  H68  1  0.608300  0.438000  0.989900  1
  H  H69  1  0.839300  0.964700  0.491300  1
  H  H70  1  0.339300  0.535300  0.008700  1
  H  H71  1  0.160700  0.035300  0.508700  1
  H  H72  1  0.660700  0.464700  0.991300  1
  H  H73  1  0.054700  0.068600  0.450000  1
  H  H74  1  0.554700  0.431400  0.050000  1
  H  H75  1  0.945300  0.931400  0.550000  1
  H  H76  1  0.445300  0.568600  0.950000  1
  H  H77  1  0.998900  0.051600  0.443700  1
  H  H78  1  0.498900  0.448400  0.056300  1
  H  H79  1  0.001100  0.948400  0.556300  1
  H  H80  1  0.501100  0.551600  0.943700  1
  H  H81  1  0.010700  0.078300  0.473900  1
  H  H82  1  0.510700  0.421700  0.026100  1
  H  H83  1  0.989300  0.921700  0.526100  1
  H  H84  1  0.489300  0.578300  0.973900  1
  H  H85  1  0.948600  0.172200  0.406900  1
  H  H86  1  0.448600  0.327800  0.093100  1
  H  H87  1  0.051400  0.827800  0.593100  1
  H  H88  1  0.551400  0.672200  0.906900  1
  H  H89  1  0.949400  0.175700  0.444200  1
  H  H90  1  0.449400  0.324300  0.055800  1
  H  H91  1  0.050600  0.824300  0.555800  1
  H  H92  1  0.550600  0.675700  0.944200  1
  H  H93  1  0.924800  0.131000  0.430900  1
  H  H94  1  0.424800  0.369000  0.069100  1
  H  H95  1  0.075200  0.869000  0.569100  1
  H  H96  1  0.575200  0.631000  0.930900  1
  H  H97  1  0.874200  0.937600  0.459200  1
  H  H98  1  0.374200  0.562400  0.040800  1
  H  H99  1  0.125800  0.062400  0.540800  1
  H  H100  1  0.625800  0.437600  0.959200  1
  H  H101  1  0.870700  0.955800  0.422200  1
  H  H102  1  0.370700  0.544200  0.077800  1
  H  H103  1  0.129300  0.044200  0.577800  1
  H  H104  1  0.629300  0.455800  0.922200  1
  H  H105  1  0.865400  0.901100  0.433900  1
  H  H106  1  0.365400  0.598900  0.066100  1
  H  H107  1  0.134600  0.098900  0.566100  1
  H  H108  1  0.634600  0.401100  0.933900  1
  H  H109  1  0.820000  0.926700  0.492700  1
  H  H110  1  0.320000  0.573300  0.007300  1
  H  H111  1  0.180000  0.073300  0.507300  1
  H  H112  1  0.680000  0.426700  0.992700  1
  H  H113  1  0.767700  0.899800  0.491600  1
  H  H114  1  0.267700  0.600200  0.008400  1
  H  H115  1  0.232300  0.100200  0.508400  1
  H  H116  1  0.732300  0.399800  0.991600  1
  H  H117  1  0.768600  0.955000  0.494100  1
  H  H118  1  0.268600  0.545000  0.005900  1
  H  H119  1  0.231400  0.045000  0.505900  1
  H  H120  1  0.731400  0.455000  0.994100  1
  H  H121  1  0.003400  0.041200  0.388000  1
  H  H122  1  0.503400  0.458800  0.112000  1
  H  H123  1  0.996600  0.958800  0.612000  1
  H  H124  1  0.496600  0.541200  0.888000  1
  H  H125  1  0.974700  0.015600  0.418300  1
  H  H126  1  0.474700  0.484400  0.081700  1
  H  H127  1  0.025300  0.984400  0.581700  1
  H  H128  1  0.525300  0.515600  0.918300  1
  H  H129  1  0.003200  0.985100  0.394600  1
  H  H130  1  0.503200  0.514900  0.105400  1
  H  H131  1  0.996800  0.014900  0.605400  1
  H  H132  1  0.496800  0.485100  0.894600  1
  H  H133  1  0.078900  0.956500  0.472000  1
  H  H134  1  0.578900  0.543500  0.028000  1
  H  H135  1  0.921100  0.043500  0.528000  1
  H  H136  1  0.421100  0.456500  0.972000  1
  H  H137  1  0.048500  0.935700  0.444300  1
  H  H138  1  0.548500  0.564300  0.055700  1
  H  H139  1  0.951500  0.064300  0.555700  1
  H  H140  1  0.451500  0.435700  0.944300  1
  H  H141  1  0.020200  0.966300  0.468000  1
  H  H142  1  0.520200  0.533700  0.032000  1
  H  H143  1  0.979800  0.033700  0.532000  1
  H  H144  1  0.479800  0.466300  0.968000  1
  H  H145  1  0.782100  0.039400  0.497000  1.0
  H  H146  1  0.282100  0.460600  0.003000  1.0
  H  H147  1  0.217900  0.960600  0.503000  1.0
  H  H148  1  0.717900  0.539400  0.997000  1.0
  H  H149  1  0.715500  0.988700  0.490300  1.0
  H  H150  1  0.215500  0.511300  0.009700  1.0
  H  H151  1  0.284500  0.011300  0.509700  1.0
  H  H152  1  0.784500  0.488700  0.990300  1.0
  H  H153  1  0.622700  0.100400  0.492600  1.0
  H  H154  1  0.122700  0.399600  0.007400  1.0
  H  H155  1  0.377300  0.899600  0.507400  1.0
  H  H156  1  0.877300  0.600400  0.992600  1.0
  H  H157  1  0.690400  0.146500  0.496700  1.0
  H  H158  1  0.190400  0.353500  0.003300  1.0
  H  H159  1  0.309600  0.853500  0.503300  1.0
  H  H160  1  0.809600  0.646500  0.996700  1.0
  H  H161  1  0.591300  0.896700  0.463100  1.0
  H  H162  1  0.091300  0.603300  0.036900  1.0
  H  H163  1  0.408700  0.103300  0.536900  1.0
  H  H164  1  0.908700  0.396700  0.963100  1.0
  H  H165  1  0.525700  0.845900  0.449800  1.0
  H  H166  1  0.025700  0.654100  0.050200  1.0
  H  H167  1  0.474300  0.154100  0.550200  1.0
  H  H168  1  0.974300  0.345900  0.949800  1.0
  H  H169  1  0.492700  0.004200  0.460800  1.0
  H  H170  1  0.992700  0.495800  0.039200  1.0
  H  H171  1  0.507300  0.995800  0.539200  1.0
  H  H172  1  0.007300  0.504200  0.960800  1.0
  H  H173  1  0.282800  0.929900  0.413000  1.0
  H  H174  1  0.782800  0.570100  0.087000  1.0
  H  H175  1  0.717200  0.070100  0.587000  1.0
  H  H176  1  0.217200  0.429900  0.913000  1.0
  H  H177  1  0.339000  0.866300  0.417800  1.0
  H  H178  1  0.839000  0.633700  0.082200  1.0
  H  H179  1  0.661000  0.133700  0.582200  1.0
  H  H180  1  0.161000  0.366300  0.917800  1.0
  H  H181  1  0.391200  0.019100  0.440100  1.0
  H  H182  1  0.891200  0.480900  0.059900  1.0
  H  H183  1  0.608800  0.980900  0.559900  1.0
  H  H184  1  0.108800  0.519100  0.940100  1.0
  H  H185  1  0.171000  0.059900  0.416600  1.0
  H  H186  1  0.671000  0.440100  0.083400  1.0
  H  H187  1  0.829000  0.940100  0.583400  1.0
  H  H188  1  0.329000  0.559900  0.916600  1.0
  H  H189  1  0.121800  0.128300  0.414600  1.0
  H  H190  1  0.621800  0.371700  0.085400  1.0
  H  H191  1  0.878200  0.871700  0.585400  1.0
  H  H192  1  0.378200  0.628300  0.914600  1.0
  H  H193  1  0.244700  0.203300  0.419900  1.0
  H  H194  1  0.744700  0.296700  0.080100  1.0
  H  H195  1  0.755300  0.796700  0.580100  1.0
  H  H196  1  0.255300  0.703300  0.919900  1.0
  H  H197  1  0.294900  0.137300  0.424900  1.0
  H  H198  1  0.794900  0.362700  0.075100  1.0
  H  H199  1  0.705100  0.862700  0.575100  1.0
  H  H200  1  0.205100  0.637300  0.924900  1.0
  H  H201  1  0.847100  0.106600  0.446300  1.0
  H  H202  1  0.347100  0.393400  0.053700  1.0
  H  H203  1  0.152900  0.893400  0.553700  1.0
  H  H204  1  0.652900  0.606600  0.946300  1.0
  H  H205  1  0.851700  0.124800  0.390700  1.0
  H  H206  1  0.351700  0.375200  0.109300  1.0
  H  H207  1  0.148300  0.875200  0.609300  1.0
  H  H208  1  0.648300  0.624800  0.890700  1.0
  H  H209  1  0.740500  0.221200  0.397400  1.0
  H  H210  1  0.240500  0.278800  0.102600  1.0
  H  H211  1  0.259500  0.778800  0.602600  1.0
  H  H212  1  0.759500  0.721200  0.897400  1.0
  H  H213  1  0.742600  0.200000  0.450500  1.0
  H  H214  1  0.242600  0.300000  0.049500  1.0
  H  H215  1  0.257400  0.800000  0.549500  1.0
  H  H216  1  0.757400  0.700000  0.950500  1.0
  H  H217  1  0.838900  0.136700  0.286700  1.0
  H  H218  1  0.338900  0.363300  0.213300  1.0
  H  H219  1  0.161100  0.863300  0.713300  1.0
  H  H220  1  0.661100  0.636700  0.786700  1.0
  H  H221  1  0.858700  0.163300  0.233100  1.0
  H  H222  1  0.358700  0.336700  0.266900  1.0
  H  H223  1  0.141300  0.836700  0.766900  1.0
  H  H224  1  0.641300  0.663300  0.733100  1.0
  H  H225  1  0.743300  0.251300  0.287600  1.0
  H  H226  1  0.243300  0.248700  0.212400  1.0
  H  H227  1  0.256700  0.748700  0.712400  1.0
  H  H228  1  0.756700  0.751300  0.787600  1.0
  H  H229  1  0.718800  0.342600  0.142900  1.0
  H  H230  1  0.218800  0.157400  0.357100  1.0
  H  H231  1  0.281200  0.657400  0.857100  1.0
  H  H232  1  0.781200  0.842600  0.642900  1.0
  H  H233  1  0.780500  0.282300  0.144100  1.0
  H  H234  1  0.280500  0.217700  0.355900  1.0
  H  H235  1  0.219500  0.717700  0.855900  1.0
  H  H236  1  0.719500  0.782300  0.644100  1.0
  H  H237  1  0.702900  0.317700  0.238800  1.0
  H  H238  1  0.202900  0.182300  0.261200  1.0
  H  H239  1  0.297100  0.682300  0.761200  1.0
  H  H240  1  0.797100  0.817700  0.738800  1.0
  H  H241  1  0.609500  0.466500  0.141200  1.0
  H  H242  1  0.109500  0.033500  0.358800  1.0
  H  H243  1  0.390500  0.533500  0.858800  1.0
  H  H244  1  0.890500  0.966500  0.641200  1.0
  H  H245  1  0.559500  0.528900  0.144300  1.0
  H  H246  1  0.059500  0.971100  0.355700  1.0
  H  H247  1  0.440500  0.471100  0.855700  1.0
  H  H248  1  0.940500  0.028900  0.644300  1.0
  H  H249  1  0.535900  0.496500  0.234900  1.0
  H  H250  1  0.035900  0.003500  0.265100  1.0
  H  H251  1  0.464100  0.503500  0.765100  1.0
  H  H252  1  0.964100  0.996500  0.734900  1.0
  H  H253  1  0.587700  0.429900  0.238200  1.0
  H  H254  1  0.087700  0.070100  0.261800  1.0
  H  H255  1  0.412300  0.570100  0.761800  1.0
  H  H256  1  0.912300  0.929900  0.738200  1.0
  H  H257  1  0.449400  0.554900  0.128100  1.0
  H  H258  1  0.949400  0.945100  0.371900  1.0
  H  H259  1  0.550600  0.445100  0.871900  1.0
  H  H260  1  0.050600  0.054900  0.628100  1.0
  H  H261  1  0.383200  0.514300  0.109300  1.0
  H  H262  1  0.883200  0.985700  0.390700  1.0
  H  H263  1  0.616800  0.485700  0.890700  1.0
  H  H264  1  0.116800  0.014300  0.609300  1.0
  H  H265  1  0.357400  0.463300  0.200200  1.0
  H  H266  1  0.857400  0.036700  0.299800  1.0
  H  H267  1  0.642600  0.536700  0.799800  1.0
  H  H268  1  0.142600  0.963300  0.700200  1.0
  H  H269  1  0.426200  0.508200  0.213700  1.0
  H  H270  1  0.926200  0.991800  0.286300  1.0
  H  H271  1  0.573800  0.491800  0.786300  1.0
  H  H272  1  0.073800  0.008200  0.713700  1.0
  H  H273  1  0.225500  0.441500  0.081100  1.0
  H  H274  1  0.725500  0.058500  0.418900  1.0
  H  H275  1  0.774500  0.558500  0.918900  1.0
  H  H276  1  0.274500  0.941500  0.581100  1.0
  H  H277  1  0.154500  0.401800  0.072400  1.0
  H  H278  1  0.654500  0.098200  0.427600  1.0
  H  H279  1  0.845500  0.598200  0.927600  1.0
  H  H280  1  0.345500  0.901800  0.572400  1.0
  H  H281  1  0.226800  0.393700  0.175800  1.0
  H  H282  1  0.726800  0.106300  0.324200  1.0
  H  H283  1  0.773200  0.606300  0.824200  1.0
  H  H284  1  0.273200  0.893700  0.675800  1.0
  H  H285  1  0.043700  0.252500  0.201300  1.0
  H  H286  1  0.543700  0.247500  0.298700  1.0
  H  H287  1  0.956300  0.747500  0.798700  1.0
  H  H288  1  0.456300  0.752500  0.701300  1.0
  H  H289  1  0.032200  0.292400  0.150300  1.0
  H  H290  1  0.532200  0.207600  0.349700  1.0
  H  H291  1  0.967800  0.707600  0.849700  1.0
  H  H292  1  0.467800  0.792400  0.650300  1.0
  H  H293  1  0.164700  0.334200  0.214400  1.0
  H  H294  1  0.664700  0.165800  0.285600  1.0
  H  H295  1  0.835300  0.665800  0.785600  1.0
  H  H296  1  0.335300  0.834200  0.714400  1.0
  H  H297  1  0.060700  0.203000  0.317500  1.0
  H  H298  1  0.560700  0.297000  0.182500  1.0
  H  H299  1  0.939300  0.797000  0.682500  1.0
  H  H300  1  0.439300  0.703000  0.817500  1.0
  H  H301  1  0.070300  0.191800  0.371300  1.0
  H  H302  1  0.570300  0.308200  0.128700  1.0
  H  H303  1  0.929700  0.808200  0.628700  1.0
  H  H304  1  0.429700  0.691800  0.871300  1.0
  H  H305  1  0.178700  0.290000  0.364200  1.0
  H  H306  1  0.678700  0.210000  0.135800  1.0
  H  H307  1  0.821300  0.710000  0.635800  1.0
  H  H308  1  0.321300  0.790000  0.864200  1.0
  H  H309  1  0.164400  0.306000  0.310200  1.0
  H  H310  1  0.664400  0.194000  0.189800  1.0
  H  H311  1  0.835600  0.694000  0.689800  1.0
  H  H312  1  0.335600  0.806000  0.810200  1.0
  H  H313  1  0.839000  0.066400  0.546500  1.0
  H  H314  1  0.339000  0.433600  0.953500  1.0
  H  H315  1  0.161000  0.933600  0.453500  1.0
  H  H316  1  0.661000  0.566400  0.046500  1.0
  H  H317  1  0.846200  0.042900  0.601000  1.0
  H  H318  1  0.346200  0.457100  0.899000  1.0
  H  H319  1  0.153800  0.957100  0.399000  1.0
  H  H320  1  0.653800  0.542900  0.101000  1.0
  H  H321  1  0.766600  0.162000  0.613200  1.0
  H  H322  1  0.266600  0.338000  0.886800  1.0
  H  H323  1  0.233400  0.838000  0.386800  1.0
  H  H324  1  0.733400  0.662000  0.113200  1.0
  H  H325  1  0.764600  0.177000  0.556800  1.0
  H  H326  1  0.264600  0.323000  0.943200  1.0
  H  H327  1  0.235400  0.823000  0.443200  1.0
  H  H328  1  0.735400  0.677000  0.056800  1.0
  H  H329  1  0.838500  0.014800  0.715300  1.0
  H  H330  1  0.338500  0.485200  0.784700  1.0
  H  H331  1  0.161500  0.985200  0.284700  1.0
  H  H332  1  0.661500  0.514800  0.215300  1.0
  H  H333  1  0.840800  0.006200  0.771000  1.0
  H  H334  1  0.340800  0.493800  0.729000  1.0
  H  H335  1  0.159200  0.993800  0.229000  1.0
  H  H336  1  0.659200  0.506200  0.271000  1.0
  H  H337  1  0.759100  0.135700  0.712200  1.0
  H  H338  1  0.259100  0.364300  0.787800  1.0
  H  H339  1  0.240900  0.864300  0.287800  1.0
  H  H340  1  0.740900  0.635700  0.212200  1.0
  H  H341  1  0.677600  0.149900  0.854200  1.0
  H  H342  1  0.177600  0.350100  0.645800  1.0
  H  H343  1  0.322400  0.850100  0.145800  1.0
  H  H344  1  0.822400  0.649900  0.354200  1.0
  H  H345  1  0.735500  0.086500  0.857200  1.0
  H  H346  1  0.235500  0.413500  0.642800  1.0
  H  H347  1  0.264500  0.913500  0.142800  1.0
  H  H348  1  0.764500  0.586500  0.357200  1.0
  H  H349  1  0.707900  0.183100  0.758200  1.0
  H  H350  1  0.207900  0.316900  0.741800  1.0
  H  H351  1  0.292100  0.816900  0.241800  1.0
  H  H352  1  0.792100  0.683100  0.258200  1.0
  H  H353  1  0.906600  0.138300  0.496000  1.0
  H  H354  1  0.406600  0.361700  0.004000  1.0
  H  H355  1  0.093400  0.861700  0.504000  1.0
  H  H356  1  0.593400  0.638300  0.996000  1.0
  H  H357  1  0.974700  0.188000  0.499300  1.0
  H  H358  1  0.474700  0.312000  0.000700  1.0
  H  H359  1  0.025300  0.812000  0.500700  1.0
  H  H360  1  0.525300  0.688000  0.999300  1.0
  H  H361  1  0.876500  0.288800  0.514200  1.0
  H  H362  1  0.376500  0.211200  0.985800  1.0
  H  H363  1  0.123500  0.711200  0.485800  1.0
  H  H364  1  0.623500  0.788800  0.014200  1.0
  H  H365  1  0.814700  0.233600  0.512100  1.0
  H  H366  1  0.314700  0.266400  0.987900  1.0
  H  H367  1  0.185300  0.766400  0.487900  1.0
  H  H368  1  0.685300  0.733600  0.012100  1.0
  H  H369  1  0.098900  0.294400  0.503000  1.0
  H  H370  1  0.598900  0.205600  0.997000  1.0
  H  H371  1  0.901100  0.705600  0.497000  1.0
  H  H372  1  0.401100  0.794400  0.003000  1.0
  H  H373  1  0.168000  0.347400  0.506000  1.0
  H  H374  1  0.668000  0.152600  0.994000  1.0
  H  H375  1  0.832000  0.652600  0.494000  1.0
  H  H376  1  0.332000  0.847400  0.006000  1.0
  H  H377  1  0.999800  0.395800  0.520400  1.0
  H  H378  1  0.499800  0.104200  0.979600  1.0
  H  H379  1  0.000200  0.604200  0.479600  1.0
  H  H380  1  0.500200  0.895800  0.020400  1.0
  H  H381  1  0.125500  0.582300  0.537900  1.0
  H  H382  1  0.625500  0.917700  0.962100  1.0
  H  H383  1  0.874500  0.417700  0.462100  1.0
  H  H384  1  0.374500  0.082300  0.037900  1.0
  H  H385  1  0.183300  0.525300  0.524400  1.0
  H  H386  1  0.683300  0.974700  0.975600  1.0
  H  H387  1  0.816700  0.474700  0.475600  1.0
  H  H388  1  0.316700  0.025300  0.024400  1.0
  H  H389  1  0.010400  0.484400  0.545900  1.0
  H  H390  1  0.510400  0.015600  0.954100  1.0
  H  H391  1  0.989600  0.515600  0.454100  1.0
  H  H392  1  0.489600  0.984400  0.045900  1.0
  H  H393  1  0.098800  0.174800  0.475700  1.0
  H  H394  1  0.598800  0.325200  0.024300  1.0
  H  H395  1  0.901200  0.825200  0.524300  1.0
  H  H396  1  0.401200  0.674800  0.975700  1.0
  H  H397  1  0.111500  0.155500  0.527100  1.0
  H  H398  1  0.611500  0.344500  0.972900  1.0
  H  H399  1  0.888500  0.844500  0.472900  1.0
  H  H400  1  0.388500  0.655500  0.027100  1.0
  H  H401  1  0.217000  0.255100  0.522100  1.0
  H  H402  1  0.717000  0.244900  0.977900  1.0
  H  H403  1  0.783000  0.744900  0.477900  1.0
  H  H404  1  0.283000  0.755100  0.022100  1.0
  H  H405  1  0.202600  0.271000  0.468600  1.0
  H  H406  1  0.702600  0.229000  0.031400  1.0
  H  H407  1  0.797400  0.729000  0.531400  1.0
  H  H408  1  0.297400  0.771000  0.968600  1.0
  H  H409  1  0.154900  0.109000  0.621100  1.0
  H  H410  1  0.654900  0.391000  0.878900  1.0
  H  H411  1  0.845100  0.891000  0.378900  1.0
  H  H412  1  0.345100  0.609000  0.121100  1.0
  H  H413  1  0.162500  0.074000  0.673700  1.0
  H  H414  1  0.662500  0.426000  0.826300  1.0
  H  H415  1  0.837500  0.926000  0.326300  1.0
  H  H416  1  0.337500  0.574000  0.173700  1.0
  H  H417  1  0.238000  0.221600  0.639600  1.0
  H  H418  1  0.738000  0.278400  0.860400  1.0
  H  H419  1  0.762000  0.778400  0.360400  1.0
  H  H420  1  0.262000  0.721600  0.139600  1.0
  H  H421  1  0.285100  0.196700  0.788600  1.0
  H  H422  1  0.785100  0.303300  0.711400  1.0
  H  H423  1  0.714900  0.803300  0.211400  1.0
  H  H424  1  0.214900  0.696700  0.288600  1.0
  H  H425  1  0.245300  0.127300  0.775000  1.0
  H  H426  1  0.745300  0.372700  0.725000  1.0
  H  H427  1  0.754700  0.872700  0.225000  1.0
  H  H428  1  0.254700  0.627300  0.275000  1.0
  H  H429  1  0.282400  0.252500  0.695600  1.0
  H  H430  1  0.782400  0.247500  0.804400  1.0
  H  H431  1  0.717600  0.747500  0.304400  1.0
  H  H432  1  0.217600  0.752500  0.195600  1.0
  H  H433  1  0.576400  0.643200  0.164100  1.0
  H  H434  1  0.076400  0.856800  0.335900  1.0
  H  H435  1  0.423600  0.356800  0.835900  1.0
  H  H436  1  0.923600  0.143200  0.664100  1.0
  H  H437  1  0.636900  0.689600  0.183800  1.0
  H  H438  1  0.136900  0.810400  0.316200  1.0
  H  H439  1  0.363100  0.310400  0.816200  1.0
  H  H440  1  0.863100  0.189600  0.683800  1.0
  H  H441  1  0.597300  0.637100  0.273300  1.0
  H  H442  1  0.097300  0.862900  0.226700  1.0
  H  H443  1  0.402700  0.362900  0.726700  1.0
  H  H444  1  0.902700  0.137100  0.773300  1.0
  H  H445  1  0.543200  0.590400  0.252300  1.0
  H  H446  1  0.043200  0.909600  0.247700  1.0
  H  H447  1  0.456800  0.409600  0.747700  1.0
  H  H448  1  0.956800  0.090400  0.752300  1.0
  H  H449  1  0.458800  0.657000  0.146900  1.0
  H  H450  1  0.958800  0.843000  0.353100  1.0
  H  H451  1  0.541200  0.343000  0.853100  1.0
  H  H452  1  0.041200  0.157000  0.646900  1.0
  H  H453  1  0.414500  0.725400  0.148600  1.0
  H  H454  1  0.914500  0.774600  0.351400  1.0
  H  H455  1  0.585500  0.274600  0.851400  1.0
  H  H456  1  0.085500  0.225400  0.648600  1.0
  H  H457  1  0.385400  0.677600  0.242100  1.0
  H  H458  1  0.885400  0.822400  0.257900  1.0
  H  H459  1  0.614600  0.322400  0.757900  1.0
  H  H460  1  0.114600  0.177600  0.742100  1.0
  H  H461  1  0.432400  0.612600  0.237400  1.0
  H  H462  1  0.932400  0.887400  0.262600  1.0
  H  H463  1  0.567600  0.387400  0.762600  1.0
  H  H464  1  0.067600  0.112600  0.737400  1.0
  H  H465  1  0.028700  0.247600  0.429100  1.0
  H  H466  1  0.528700  0.252400  0.070900  1.0
  H  H467  1  0.971300  0.752400  0.570900  1.0
  H  H468  1  0.471300  0.747600  0.929100  1.0
  H  H469  1  0.974700  0.310400  0.430900  1.0
  H  H470  1  0.474700  0.189600  0.069100  1.0
  H  H471  1  0.025300  0.689600  0.569100  1.0
  H  H472  1  0.525300  0.810400  0.930900  1.0
  H  H473  1  0.095000  0.399200  0.428300  1.0
  H  H474  1  0.595000  0.100800  0.071700  1.0
  H  H475  1  0.905000  0.600800  0.571700  1.0
  H  H476  1  0.405000  0.899200  0.928300  1.0
  H  H477  1  0.145500  0.331700  0.418900  1.0
  H  H478  1  0.645500  0.168300  0.081100  1.0
  H  H479  1  0.854500  0.668300  0.581100  1.0
  H  H480  1  0.354500  0.831700  0.918900  1.0
  Pd  Pd481  1  0.136040  0.230000  0.420570  1.0
  Pd  Pd482  1  0.636040  0.270000  0.079430  1.0
  Pd  Pd483  1  0.863960  0.770000  0.579430  1.0
  Pd  Pd484  1  0.363960  0.730000  0.920570  1.0
  Pd  Pd485  1  0.798770  0.138240  0.500850  1.0
  Pd  Pd486  1  0.298770  0.361760  0.999150  1.0
  Pd  Pd487  1  0.201230  0.861760  0.499150  1.0
  Pd  Pd488  1  0.701230  0.638240  0.000850  1.0
  Pd  Pd489  1  0.496440  0.572300  0.190610  1.0
  Pd  Pd490  1  0.996440  0.927700  0.309390  1.0
  Pd  Pd491  1  0.503560  0.427700  0.809390  1.0
  Pd  Pd492  1  0.003560  0.072300  0.690610  1.0
  C  C493  1  0.631100  0.234100  0.528600  1
  C  C494  1  0.131100  0.265900  0.971400  1
  C  C495  1  0.368900  0.765900  0.471400  1
  C  C496  1  0.868900  0.734100  0.028600  1
  C  C497  1  0.717000  0.297000  0.527700  1
  C  C498  1  0.217000  0.203000  0.972300  1
  C  C499  1  0.283000  0.703000  0.472300  1
  C  C500  1  0.783000  0.797000  0.027700  1
  C  C501  1  0.308500  0.311200  0.439000  1
  C  C502  1  0.808500  0.188800  0.061000  1
  C  C503  1  0.691500  0.688800  0.561000  1
  C  C504  1  0.191500  0.811200  0.939000  1
  C  C505  1  0.293100  0.329000  0.374000  1
  C  C506  1  0.793100  0.171000  0.126000  1
  C  C507  1  0.706900  0.671000  0.626000  1
  C  C508  1  0.206900  0.829000  0.874000  1
  C  C509  1  0.902100  0.023300  0.445500  1
  C  C510  1  0.402100  0.476700  0.054500  1
  C  C511  1  0.097900  0.976700  0.554500  1
  C  C512  1  0.597900  0.523300  0.945500  1
  C  C513  1  0.874000  0.963500  0.498700  1
  C  C514  1  0.374000  0.536500  0.001300  1
  C  C515  1  0.126000  0.036500  0.501300  1
  C  C516  1  0.626000  0.463500  0.998700  1
  C  C517  1  0.019000  0.076300  0.451700  1
  C  C518  1  0.519000  0.423700  0.048300  1
  C  C519  1  0.981000  0.923700  0.548300  1
  C  C520  1  0.481000  0.576300  0.951700  1
  C  C521  1  0.951700  0.154200  0.427900  1
  C  C522  1  0.451700  0.345800  0.072100  1
  C  C523  1  0.048300  0.845800  0.572100  1
  C  C524  1  0.548300  0.654200  0.927900  1
  C  C525  1  0.477300  0.633400  0.069200  1
  C  C526  1  0.977300  0.866600  0.430800  1
  C  C527  1  0.522700  0.366600  0.930800  1
  C  C528  1  0.022700  0.133400  0.569200  1
  C  C529  1  0.858000  0.932800  0.439100  1
  C  C530  1  0.358000  0.567200  0.060900  1
  C  C531  1  0.142000  0.067200  0.560900  1
  C  C532  1  0.642000  0.432800  0.939100  1
  C  C533  1  0.785400  0.929200  0.485100  1
  C  C534  1  0.285400  0.570800  0.014900  1
  C  C535  1  0.214600  0.070800  0.514900  1
  C  C536  1  0.714600  0.429200  0.985100  1
  C  C537  1  0.479800  0.653100  0.079200  1
  C  C538  1  0.979800  0.846900  0.420800  1
  C  C539  1  0.520200  0.346900  0.920800  1
  C  C540  1  0.020200  0.153100  0.579200  1
  C  C541  1  0.004000  0.014300  0.404500  1
  C  C542  1  0.504000  0.485700  0.095500  1
  C  C543  1  0.996000  0.985700  0.595500  1
  C  C544  1  0.496000  0.514300  0.904500  1
  C  C545  1  0.051600  0.962300  0.456700  1
  C  C546  1  0.551600  0.537700  0.043300  1
  C  C547  1  0.948400  0.037700  0.543300  1
  C  C548  1  0.448400  0.462300  0.956700  1
  C  C549  1  0.748800  0.051300  0.496000  1.0
  C  C550  1  0.248800  0.448700  0.004000  1.0
  C  C551  1  0.251200  0.948700  0.504000  1.0
  C  C552  1  0.751200  0.551300  0.996000  1.0
  C  C553  1  0.709800  0.021100  0.491700  1.0
  C  C554  1  0.209800  0.478900  0.008300  1.0
  C  C555  1  0.290200  0.978900  0.508300  1.0
  C  C556  1  0.790200  0.521100  0.991700  1.0
  C  C557  1  0.660400  0.040600  0.489600  1.0
  C  C558  1  0.160400  0.459400  0.010400  1.0
  C  C559  1  0.339600  0.959400  0.510400  1.0
  C  C560  1  0.839600  0.540600  0.989600  1.0
  C  C561  1  0.655200  0.087000  0.492800  1.0
  C  C562  1  0.155200  0.413000  0.007200  1.0
  C  C563  1  0.344800  0.913000  0.507200  1.0
  C  C564  1  0.844800  0.587000  0.992800  1.0
  C  C565  1  0.694800  0.113700  0.496200  1.0
  C  C566  1  0.194800  0.386300  0.003800  1.0
  C  C567  1  0.305200  0.886300  0.503800  1.0
  C  C568  1  0.805200  0.613700  0.996200  1.0
  C  C569  1  0.622100  0.009700  0.482700  1.0
  C  C570  1  0.122100  0.490300  0.017300  1.0
  C  C571  1  0.377900  0.990300  0.517300  1.0
  C  C572  1  0.877900  0.509700  0.982700  1.0
  C  C573  1  0.584500  0.980200  0.474900  1.0
  C  C574  1  0.084500  0.519800  0.025100  1.0
  C  C575  1  0.415500  0.019800  0.525100  1.0
  C  C576  1  0.915500  0.480200  0.974900  1.0
  C  C577  1  0.544100  0.951800  0.466300  1.0
  C  C578  1  0.044100  0.548200  0.033700  1.0
  C  C579  1  0.455900  0.048200  0.533700  1.0
  C  C580  1  0.955900  0.451800  0.966300  1.0
  C  C581  1  0.557700  0.907200  0.460900  1.0
  C  C582  1  0.057700  0.592800  0.039100  1.0
  C  C583  1  0.442300  0.092800  0.539100  1.0
  C  C584  1  0.942300  0.407200  0.960900  1.0
  C  C585  1  0.519200  0.877900  0.451900  1.0
  C  C586  1  0.019200  0.622100  0.048100  1.0
  C  C587  1  0.480800  0.122100  0.548100  1.0
  C  C588  1  0.980800  0.377900  0.951900  1.0
  C  C589  1  0.472900  0.896000  0.446300  1.0
  C  C590  1  0.972900  0.604000  0.053700  1.0
  C  C591  1  0.527100  0.104000  0.553700  1.0
  C  C592  1  0.027100  0.396000  0.946300  1.0
  C  C593  1  0.463800  0.944900  0.449900  1.0
  C  C594  1  0.963800  0.555100  0.050100  1.0
  C  C595  1  0.536200  0.055100  0.550100  1.0
  C  C596  1  0.036200  0.444900  0.949900  1.0
  C  C597  1  0.498600  0.971900  0.459200  1.0
  C  C598  1  0.998600  0.528100  0.040800  1.0
  C  C599  1  0.501400  0.028100  0.540800  1.0
  C  C600  1  0.001400  0.471900  0.959200  1.0
  C  C601  1  0.330800  0.982200  0.425800  1.0
  C  C602  1  0.830800  0.517800  0.074200  1.0
  C  C603  1  0.669200  0.017800  0.574200  1.0
  C  C604  1  0.169200  0.482200  0.925800  1.0
  C  C605  1  0.316200  0.934900  0.419400  1.0
  C  C606  1  0.816200  0.565100  0.080600  1.0
  C  C607  1  0.683800  0.065100  0.580600  1.0
  C  C608  1  0.183800  0.434900  0.919400  1.0
  C  C609  1  0.349200  0.896600  0.422200  1.0
  C  C610  1  0.849200  0.603400  0.077800  1.0
  C  C611  1  0.650800  0.103400  0.577800  1.0
  C  C612  1  0.150800  0.396600  0.922200  1.0
  C  C613  1  0.396200  0.905300  0.431500  1.0
  C  C614  1  0.896200  0.594700  0.068500  1.0
  C  C615  1  0.603800  0.094700  0.568500  1.0
  C  C616  1  0.103800  0.405300  0.931500  1.0
  C  C617  1  0.412600  0.950100  0.439800  1.0
  C  C618  1  0.912600  0.549900  0.060200  1.0
  C  C619  1  0.587400  0.049900  0.560200  1.0
  C  C620  1  0.087400  0.450100  0.939800  1.0
  C  C621  1  0.380100  0.988900  0.436000  1.0
  C  C622  1  0.880100  0.511100  0.064000  1.0
  C  C623  1  0.619900  0.011100  0.564000  1.0
  C  C624  1  0.119900  0.488900  0.936000  1.0
  C  C625  1  0.296600  0.018700  0.422900  1.0
  C  C626  1  0.796600  0.481300  0.077100  1.0
  C  C627  1  0.703400  0.981300  0.577100  1.0
  C  C628  1  0.203400  0.518700  0.922900  1.0
  C  C629  1  0.270300  0.050400  0.422300  1.0
  C  C630  1  0.770300  0.449600  0.077700  1.0
  C  C631  1  0.729700  0.949600  0.577700  1.0
  C  C632  1  0.229700  0.550400  0.922300  1.0
  C  C633  1  0.237700  0.093000  0.419600  1.0
  C  C634  1  0.737700  0.407000  0.080400  1.0
  C  C635  1  0.762300  0.907000  0.580400  1.0
  C  C636  1  0.262300  0.593000  0.919600  1.0
  C  C637  1  0.186400  0.089600  0.417400  1.0
  C  C638  1  0.686400  0.410400  0.082600  1.0
  C  C639  1  0.813600  0.910400  0.582600  1.0
  C  C640  1  0.313600  0.589600  0.917400  1.0
  C  C641  1  0.157200  0.130200  0.416500  1.0
  C  C642  1  0.657200  0.369800  0.083500  1.0
  C  C643  1  0.842800  0.869800  0.583500  1.0
  C  C644  1  0.342800  0.630200  0.916500  1.0
  C  C645  1  0.229200  0.173400  0.420000  1.0
  C  C646  1  0.729200  0.326600  0.080000  1.0
  C  C647  1  0.770800  0.826600  0.580000  1.0
  C  C648  1  0.270800  0.673400  0.920000  1.0
  C  C649  1  0.259800  0.134800  0.422000  1.0
  C  C650  1  0.759800  0.365200  0.078000  1.0
  C  C651  1  0.740200  0.865200  0.578000  1.0
  C  C652  1  0.240200  0.634800  0.922000  1.0
  C  C653  1  0.826200  0.130500  0.436300  1.0
  C  C654  1  0.326200  0.369500  0.063700  1.0
  C  C655  1  0.173800  0.869500  0.563700  1.0
  C  C656  1  0.673800  0.630500  0.936300  1.0
  C  C657  1  0.828800  0.140800  0.402700  1.0
  C  C658  1  0.328800  0.359200  0.097300  1.0
  C  C659  1  0.171200  0.859200  0.597300  1.0
  C  C660  1  0.671200  0.640800  0.902700  1.0
  C  C661  1  0.796500  0.175300  0.387900  1.0
  C  C662  1  0.296500  0.324700  0.112100  1.0
  C  C663  1  0.203500  0.824700  0.612100  1.0
  C  C664  1  0.703500  0.675300  0.887900  1.0
  C  C665  1  0.763300  0.197900  0.406400  1.0
  C  C666  1  0.263300  0.302100  0.093600  1.0
  C  C667  1  0.236700  0.802100  0.593600  1.0
  C  C668  1  0.736700  0.697900  0.906400  1.0
  C  C669  1  0.765500  0.184800  0.438000  1.0
  C  C670  1  0.265500  0.315200  0.062000  1.0
  C  C671  1  0.234500  0.815200  0.562000  1.0
  C  C672  1  0.734500  0.684800  0.938000  1.0
  C  C673  1  0.796200  0.184200  0.356600  1.0
  C  C674  1  0.296200  0.315800  0.143400  1.0
  C  C675  1  0.203800  0.815800  0.643400  1.0
  C  C676  1  0.703800  0.684200  0.856600  1.0
  C  C677  1  0.796100  0.189000  0.327900  1.0
  C  C678  1  0.296100  0.311000  0.172100  1.0
  C  C679  1  0.203900  0.811000  0.672100  1.0
  C  C680  1  0.703900  0.689000  0.827900  1.0
  C  C681  1  0.797300  0.196000  0.293400  1.0
  C  C682  1  0.297300  0.304000  0.206600  1.0
  C  C683  1  0.202700  0.804000  0.706600  1.0
  C  C684  1  0.702700  0.696000  0.793400  1.0
  C  C685  1  0.825400  0.165000  0.276400  1.0
  C  C686  1  0.325400  0.335000  0.223600  1.0
  C  C687  1  0.174600  0.835000  0.723600  1.0
  C  C688  1  0.674600  0.665000  0.776400  1.0
  C  C689  1  0.832600  0.177600  0.243800  1.0
  C  C690  1  0.332600  0.322400  0.256200  1.0
  C  C691  1  0.167400  0.822400  0.756200  1.0
  C  C692  1  0.667400  0.677600  0.743800  1.0
  C  C693  1  0.802700  0.210200  0.227500  1.0
  C  C694  1  0.302700  0.289800  0.272500  1.0
  C  C695  1  0.197300  0.789800  0.772500  1.0
  C  C696  1  0.697300  0.710200  0.727500  1.0
  C  C697  1  0.772100  0.241000  0.244200  1.0
  C  C698  1  0.272100  0.259000  0.255800  1.0
  C  C699  1  0.227900  0.759000  0.755800  1.0
  C  C700  1  0.727900  0.741000  0.744200  1.0
  C  C701  1  0.766100  0.233500  0.276700  1.0
  C  C702  1  0.266100  0.266500  0.223300  1.0
  C  C703  1  0.233900  0.766500  0.723300  1.0
  C  C704  1  0.733900  0.733500  0.776700  1.0
  C  C705  1  0.705200  0.332600  0.190000  1.0
  C  C706  1  0.205200  0.167400  0.310000  1.0
  C  C707  1  0.294800  0.667400  0.810000  1.0
  C  C708  1  0.794800  0.832600  0.690000  1.0
  C  C709  1  0.727300  0.324300  0.162200  1.0
  C  C710  1  0.227300  0.175700  0.337800  1.0
  C  C711  1  0.272700  0.675700  0.837800  1.0
  C  C712  1  0.772700  0.824300  0.662200  1.0
  C  C713  1  0.762900  0.288400  0.162700  1.0
  C  C714  1  0.262900  0.211600  0.337300  1.0
  C  C715  1  0.237100  0.711600  0.837300  1.0
  C  C716  1  0.737100  0.788400  0.662700  1.0
  C  C717  1  0.771100  0.262000  0.191900  1.0
  C  C718  1  0.271100  0.238000  0.308100  1.0
  C  C719  1  0.228900  0.738000  0.808100  1.0
  C  C720  1  0.728900  0.762000  0.691900  1.0
  C  C721  1  0.748400  0.273100  0.219800  1.0
  C  C722  1  0.248400  0.226900  0.280200  1.0
  C  C723  1  0.251600  0.726900  0.780200  1.0
  C  C724  1  0.751600  0.773100  0.719800  1.0
  C  C725  1  0.716800  0.308800  0.219800  1.0
  C  C726  1  0.216800  0.191200  0.280200  1.0
  C  C727  1  0.283200  0.691200  0.780200  1.0
  C  C728  1  0.783200  0.808800  0.719800  1.0
  C  C729  1  0.668600  0.370400  0.189500  1.0
  C  C730  1  0.168600  0.129600  0.310500  1.0
  C  C731  1  0.331400  0.629600  0.810500  1.0
  C  C732  1  0.831400  0.870400  0.689500  1.0
  C  C733  1  0.643600  0.401700  0.188300  1.0
  C  C734  1  0.143600  0.098300  0.311700  1.0
  C  C735  1  0.356400  0.598300  0.811700  1.0
  C  C736  1  0.856400  0.901700  0.688300  1.0
  C  C737  1  0.606900  0.440400  0.189200  1.0
  C  C738  1  0.106900  0.059600  0.310800  1.0
  C  C739  1  0.393100  0.559600  0.810800  1.0
  C  C740  1  0.893100  0.940400  0.689200  1.0
  C  C741  1  0.595600  0.471900  0.161000  1.0
  C  C742  1  0.095600  0.028100  0.339000  1.0
  C  C743  1  0.404400  0.528100  0.839000  1.0
  C  C744  1  0.904400  0.971900  0.661000  1.0
  C  C745  1  0.565200  0.508600  0.163200  1.0
  C  C746  1  0.065200  0.991400  0.336800  1.0
  C  C747  1  0.434800  0.491400  0.836800  1.0
  C  C748  1  0.934800  0.008600  0.663200  1.0
  C  C749  1  0.551900  0.489500  0.216000  1.0
  C  C750  1  0.051900  0.010500  0.284000  1.0
  C  C751  1  0.448100  0.510500  0.784000  1.0
  C  C752  1  0.948100  0.989500  0.716000  1.0
  C  C753  1  0.582900  0.449300  0.218900  1.0
  C  C754  1  0.082900  0.050700  0.281100  1.0
  C  C755  1  0.417100  0.550700  0.781100  1.0
  C  C756  1  0.917100  0.949300  0.718900  1.0
  C  C757  1  0.429300  0.536500  0.143300  1.0
  C  C758  1  0.929300  0.963500  0.356700  1.0
  C  C759  1  0.570700  0.463500  0.856700  1.0
  C  C760  1  0.070700  0.036500  0.643300  1.0
  C  C761  1  0.389300  0.512500  0.131400  1.0
  C  C762  1  0.889300  0.987500  0.368600  1.0
  C  C763  1  0.610700  0.487500  0.868600  1.0
  C  C764  1  0.110700  0.012500  0.631400  1.0
  C  C765  1  0.358600  0.485600  0.153100  1.0
  C  C766  1  0.858600  0.014400  0.346900  1.0
  C  C767  1  0.641400  0.514400  0.846900  1.0
  C  C768  1  0.141400  0.985600  0.653100  1.0
  C  C769  1  0.374400  0.483100  0.184100  1.0
  C  C770  1  0.874400  0.016900  0.315900  1.0
  C  C771  1  0.625600  0.516900  0.815900  1.0
  C  C772  1  0.125600  0.983100  0.684100  1.0
  C  C773  1  0.416500  0.510200  0.192100  1.0
  C  C774  1  0.916500  0.989800  0.307900  1.0
  C  C775  1  0.583500  0.489800  0.807900  1.0
  C  C776  1  0.083500  0.010200  0.692100  1.0
  C  C777  1  0.312400  0.463200  0.140500  1.0
  C  C778  1  0.812400  0.036800  0.359500  1.0
  C  C779  1  0.687600  0.536800  0.859500  1.0
  C  C780  1  0.187600  0.963200  0.640500  1.0
  C  C781  1  0.276500  0.446400  0.134900  1.0
  C  C782  1  0.776500  0.053600  0.365100  1.0
  C  C783  1  0.723500  0.553600  0.865100  1.0
  C  C784  1  0.223500  0.946400  0.634900  1.0
  C  C785  1  0.234900  0.424500  0.129700  1.0
  C  C786  1  0.734900  0.075500  0.370300  1.0
  C  C787  1  0.765100  0.575500  0.870300  1.0
  C  C788  1  0.265100  0.924500  0.629700  1.0
  C  C789  1  0.210200  0.423800  0.098800  1.0
  C  C790  1  0.710200  0.076200  0.401200  1.0
  C  C791  1  0.789800  0.576200  0.901200  1.0
  C  C792  1  0.289800  0.923800  0.598800  1.0
  C  C793  1  0.168300  0.400800  0.093100  1.0
  C  C794  1  0.668300  0.099200  0.406900  1.0
  C  C795  1  0.831700  0.599200  0.906900  1.0
  C  C796  1  0.331700  0.900800  0.593100  1.0
  C  C797  1  0.145800  0.375100  0.119400  1.0
  C  C798  1  0.645800  0.124900  0.380600  1.0
  C  C799  1  0.854200  0.624900  0.880600  1.0
  C  C800  1  0.354200  0.875100  0.619400  1.0
  C  C801  1  0.168400  0.370600  0.152500  1.0
  C  C802  1  0.668400  0.129400  0.347500  1.0
  C  C803  1  0.831600  0.629400  0.847500  1.0
  C  C804  1  0.331600  0.870600  0.652500  1.0
  C  C805  1  0.211500  0.395500  0.155600  1.0
  C  C806  1  0.711500  0.104500  0.344400  1.0
  C  C807  1  0.788500  0.604500  0.844400  1.0
  C  C808  1  0.288500  0.895500  0.655600  1.0
  C  C809  1  0.101900  0.290900  0.214800  1.0
  C  C810  1  0.601900  0.209100  0.285200  1.0
  C  C811  1  0.898100  0.709100  0.785200  1.0
  C  C812  1  0.398100  0.790900  0.714800  1.0
  C  C813  1  0.065800  0.277300  0.194000  1.0
  C  C814  1  0.565800  0.222700  0.306000  1.0
  C  C815  1  0.934200  0.722700  0.806000  1.0
  C  C816  1  0.434200  0.777300  0.694000  1.0
  C  C817  1  0.060300  0.298300  0.163000  1.0
  C  C818  1  0.560300  0.201700  0.337000  1.0
  C  C819  1  0.939700  0.701700  0.837000  1.0
  C  C820  1  0.439700  0.798300  0.663000  1.0
  C  C821  1  0.098000  0.327800  0.152200  1.0
  C  C822  1  0.598000  0.172200  0.347800  1.0
  C  C823  1  0.902000  0.672200  0.847800  1.0
  C  C824  1  0.402000  0.827800  0.652200  1.0
  C  C825  1  0.135800  0.341900  0.171700  1.0
  C  C826  1  0.635800  0.158100  0.328300  1.0
  C  C827  1  0.864200  0.658100  0.828300  1.0
  C  C828  1  0.364200  0.841900  0.671700  1.0
  C  C829  1  0.138500  0.324500  0.201500  1.0
  C  C830  1  0.638500  0.175500  0.298500  1.0
  C  C831  1  0.861500  0.675500  0.798500  1.0
  C  C832  1  0.361500  0.824500  0.701500  1.0
  C  C833  1  0.100700  0.276300  0.245800  1.0
  C  C834  1  0.600700  0.223700  0.254200  1.0
  C  C835  1  0.899300  0.723700  0.754200  1.0
  C  C836  1  0.399300  0.776300  0.745800  1.0
  C  C837  1  0.106400  0.266600  0.271600  1.0
  C  C838  1  0.606400  0.233400  0.228400  1.0
  C  C839  1  0.893600  0.733400  0.728400  1.0
  C  C840  1  0.393600  0.766600  0.771600  1.0
  C  C841  1  0.110800  0.257800  0.306600  1.0
  C  C842  1  0.610800  0.242200  0.193400  1.0
  C  C843  1  0.889200  0.742200  0.693400  1.0
  C  C844  1  0.389200  0.757800  0.806600  1.0
  C  C845  1  0.084100  0.222100  0.327000  1.0
  C  C846  1  0.584100  0.277900  0.173000  1.0
  C  C847  1  0.915900  0.777900  0.673000  1.0
  C  C848  1  0.415900  0.722100  0.827000  1.0
  C  C849  1  0.090500  0.214300  0.359100  1.0
  C  C850  1  0.590500  0.285700  0.140900  1.0
  C  C851  1  0.909500  0.785700  0.640900  1.0
  C  C852  1  0.409500  0.714300  0.859100  1.0
  C  C853  1  0.153700  0.272900  0.354500  1.0
  C  C854  1  0.653700  0.227100  0.145500  1.0
  C  C855  1  0.846300  0.727100  0.645500  1.0
  C  C856  1  0.346300  0.772900  0.854500  1.0
  C  C857  1  0.145400  0.282000  0.322100  1.0
  C  C858  1  0.645400  0.218000  0.177900  1.0
  C  C859  1  0.854600  0.718000  0.677900  1.0
  C  C860  1  0.354600  0.782000  0.822100  1.0
  C  C861  1  0.824600  0.085600  0.560900  1.0
  C  C862  1  0.324600  0.414400  0.939100  1.0
  C  C863  1  0.175400  0.914400  0.439100  1.0
  C  C864  1  0.675400  0.585600  0.060900  1.0
  C  C865  1  0.829700  0.071100  0.592900  1.0
  C  C866  1  0.329700  0.428900  0.907100  1.0
  C  C867  1  0.170300  0.928900  0.407100  1.0
  C  C868  1  0.670300  0.571100  0.092900  1.0
  C  C869  1  0.806600  0.104000  0.613600  1.0
  C  C870  1  0.306600  0.396000  0.886400  1.0
  C  C871  1  0.193400  0.896000  0.386400  1.0
  C  C872  1  0.693400  0.604000  0.113600  1.0
  C  C873  1  0.782700  0.141300  0.600500  1.0
  C  C874  1  0.282700  0.358700  0.899500  1.0
  C  C875  1  0.217300  0.858700  0.399500  1.0
  C  C876  1  0.717300  0.641300  0.100500  1.0
  C  C877  1  0.781500  0.150000  0.566500  1.0
  C  C878  1  0.281500  0.350000  0.933500  1.0
  C  C879  1  0.218500  0.850000  0.433500  1.0
  C  C880  1  0.718500  0.650000  0.066500  1.0
  C  C881  1  0.808300  0.090800  0.646800  1.0
  C  C882  1  0.308300  0.409200  0.853200  1.0
  C  C883  1  0.191700  0.909200  0.353200  1.0
  C  C884  1  0.691700  0.590800  0.146800  1.0
  C  C885  1  0.806000  0.083600  0.675000  1.0
  C  C886  1  0.306000  0.416400  0.825000  1.0
  C  C887  1  0.194000  0.916400  0.325000  1.0
  C  C888  1  0.694000  0.583600  0.175000  1.0
  C  C889  1  0.798100  0.072500  0.708500  1.0
  C  C890  1  0.298100  0.427500  0.791500  1.0
  C  C891  1  0.201900  0.927500  0.291500  1.0
  C  C892  1  0.701900  0.572500  0.208500  1.0
  C  C893  1  0.820700  0.036600  0.726300  1.0
  C  C894  1  0.320700  0.463400  0.773700  1.0
  C  C895  1  0.179300  0.963400  0.273700  1.0
  C  C896  1  0.679300  0.536600  0.226300  1.0
  C  C897  1  0.820200  0.028800  0.759200  1.0
  C  C898  1  0.320200  0.471200  0.740800  1.0
  C  C899  1  0.179800  0.971200  0.240800  1.0
  C  C900  1  0.679800  0.528800  0.259200  1.0
  C  C901  1  0.785600  0.057900  0.773500  1.0
  C  C902  1  0.285600  0.442100  0.726500  1.0
  C  C903  1  0.214400  0.942100  0.226500  1.0
  C  C904  1  0.714400  0.557900  0.273500  1.0
  C  C905  1  0.768300  0.097600  0.757700  1.0
  C  C906  1  0.268300  0.402400  0.742300  1.0
  C  C907  1  0.231700  0.902400  0.242300  1.0
  C  C908  1  0.731700  0.597600  0.257700  1.0
  C  C909  1  0.772300  0.108000  0.723600  1.0
  C  C910  1  0.272300  0.392000  0.776400  1.0
  C  C911  1  0.227700  0.892000  0.276400  1.0
  C  C912  1  0.727700  0.608000  0.223600  1.0
  C  C913  1  0.689700  0.175400  0.806400  1.0
  C  C914  1  0.189700  0.324600  0.693600  1.0
  C  C915  1  0.310300  0.824600  0.193600  1.0
  C  C916  1  0.810300  0.675400  0.306400  1.0
  C  C917  1  0.695900  0.143900  0.835900  1.0
  C  C918  1  0.195900  0.356100  0.664100  1.0
  C  C919  1  0.304100  0.856100  0.164100  1.0
  C  C920  1  0.804100  0.643900  0.335900  1.0
  C  C921  1  0.728400  0.105100  0.837700  1.0
  C  C922  1  0.228400  0.394900  0.662300  1.0
  C  C923  1  0.271600  0.894900  0.162300  1.0
  C  C924  1  0.771600  0.605100  0.337700  1.0
  C  C925  1  0.748800  0.095800  0.809800  1.0
  C  C926  1  0.248800  0.404200  0.690200  1.0
  C  C927  1  0.251200  0.904200  0.190200  1.0
  C  C928  1  0.751200  0.595800  0.309800  1.0
  C  C929  1  0.738900  0.121800  0.779800  1.0
  C  C930  1  0.238900  0.378200  0.720200  1.0
  C  C931  1  0.261100  0.878200  0.220200  1.0
  C  C932  1  0.761100  0.621800  0.279800  1.0
  C  C933  1  0.711600  0.163700  0.777600  1.0
  C  C934  1  0.211600  0.336300  0.722400  1.0
  C  C935  1  0.288400  0.836300  0.222400  1.0
  C  C936  1  0.788400  0.663700  0.277600  1.0
  C  C937  1  0.900700  0.169900  0.499600  1.0
  C  C938  1  0.400700  0.330100  0.000400  1.0
  C  C939  1  0.099300  0.830100  0.500400  1.0
  C  C940  1  0.599300  0.669900  0.999600  1.0
  C  C941  1  0.941500  0.199200  0.501300  1.0
  C  C942  1  0.441500  0.300800  0.998700  1.0
  C  C943  1  0.058500  0.800800  0.498700  1.0
  C  C944  1  0.558500  0.699200  0.001300  1.0
  C  C945  1  0.931800  0.246400  0.506200  1.0
  C  C946  1  0.431800  0.253600  0.993800  1.0
  C  C947  1  0.068200  0.753600  0.493800  1.0
  C  C948  1  0.568200  0.746400  0.006200  1.0
  C  C949  1  0.885000  0.257900  0.510200  1.0
  C  C950  1  0.385000  0.242100  0.989800  1.0
  C  C951  1  0.115000  0.742100  0.489800  1.0
  C  C952  1  0.615000  0.757900  0.010200  1.0
  C  C953  1  0.848400  0.224900  0.508600  1.0
  C  C954  1  0.348400  0.275100  0.991400  1.0
  C  C955  1  0.151600  0.775100  0.491400  1.0
  C  C956  1  0.651600  0.724900  0.008600  1.0
  C  C957  1  0.972200  0.278900  0.509100  1.0
  C  C958  1  0.472200  0.221100  0.990900  1.0
  C  C959  1  0.027800  0.721100  0.490900  1.0
  C  C960  1  0.527800  0.778900  0.009100  1.0
  C  C961  1  0.004700  0.305900  0.512300  1.0
  C  C962  1  0.504700  0.194100  0.987700  1.0
  C  C963  1  0.995300  0.694100  0.487700  1.0
  C  C964  1  0.495300  0.805900  0.012300  1.0
  C  C965  1  0.045700  0.341100  0.513100  1.0
  C  C966  1  0.545700  0.158900  0.986900  1.0
  C  C967  1  0.954300  0.658900  0.486900  1.0
  C  C968  1  0.454300  0.841100  0.013100  1.0
  C  C969  1  0.093400  0.325700  0.507300  1.0
  C  C970  1  0.593400  0.174300  0.992700  1.0
  C  C971  1  0.906600  0.674300  0.492700  1.0
  C  C972  1  0.406600  0.825700  0.007300  1.0
  C  C973  1  0.134300  0.357300  0.507700  1.0
  C  C974  1  0.634300  0.142700  0.992300  1.0
  C  C975  1  0.865700  0.642700  0.492300  1.0
  C  C976  1  0.365700  0.857300  0.007700  1.0
  C  C977  1  0.121900  0.402700  0.510900  1.0
  C  C978  1  0.621900  0.097300  0.989100  1.0
  C  C979  1  0.878100  0.597300  0.489100  1.0
  C  C980  1  0.378100  0.902700  0.010900  1.0
  C  C981  1  0.070700  0.415100  0.518900  1.0
  C  C982  1  0.570700  0.084900  0.981100  1.0
  C  C983  1  0.929300  0.584900  0.481100  1.0
  C  C984  1  0.429300  0.915100  0.018900  1.0
  C  C985  1  0.033500  0.386300  0.517900  1.0
  C  C986  1  0.533500  0.113700  0.982100  1.0
  C  C987  1  0.966500  0.613700  0.482100  1.0
  C  C988  1  0.466500  0.886300  0.017900  1.0
  C  C989  1  0.061100  0.540400  0.542600  1.0
  C  C990  1  0.561100  0.959600  0.957400  1.0
  C  C991  1  0.938900  0.459600  0.457400  1.0
  C  C992  1  0.438900  0.040400  0.042600  1.0
  C  C993  1  0.114200  0.551400  0.536100  1.0
  C  C994  1  0.614200  0.948600  0.963900  1.0
  C  C995  1  0.885800  0.448600  0.463900  1.0
  C  C996  1  0.385800  0.051400  0.036100  1.0
  C  C997  1  0.148700  0.518500  0.527500  1.0
  C  C998  1  0.648700  0.981500  0.972500  1.0
  C  C999  1  0.851300  0.481500  0.472500  1.0
  C  C1000  1  0.351300  0.018500  0.027500  1.0
  C  C1001  1  0.128300  0.476200  0.523900  1.0
  C  C1002  1  0.628300  0.023800  0.976100  1.0
  C  C1003  1  0.871700  0.523800  0.476100  1.0
  C  C1004  1  0.371700  0.976200  0.023900  1.0
  C  C1005  1  0.076000  0.465500  0.524700  1.0
  C  C1006  1  0.576000  0.034500  0.975300  1.0
  C  C1007  1  0.924000  0.534500  0.475300  1.0
  C  C1008  1  0.424000  0.965500  0.024700  1.0
  C  C1009  1  0.042800  0.494400  0.539100  1.0
  C  C1010  1  0.542800  0.005600  0.960900  1.0
  C  C1011  1  0.957200  0.505600  0.460900  1.0
  C  C1012  1  0.457200  0.994400  0.039100  1.0
  C  C1013  1  0.124300  0.192300  0.484600  1.0
  C  C1014  1  0.624300  0.307700  0.015400  1.0
  C  C1015  1  0.875700  0.807700  0.515400  1.0
  C  C1016  1  0.375700  0.692300  0.984600  1.0
  C  C1017  1  0.130800  0.179800  0.515900  1.0
  C  C1018  1  0.630800  0.320200  0.984100  1.0
  C  C1019  1  0.869200  0.820200  0.484100  1.0
  C  C1020  1  0.369200  0.679800  0.015900  1.0
  C  C1021  1  0.167300  0.204100  0.531200  1.0
  C  C1022  1  0.667300  0.295900  0.968800  1.0
  C  C1023  1  0.832700  0.795900  0.468800  1.0
  C  C1024  1  0.332700  0.704100  0.031200  1.0
  C  C1025  1  0.192100  0.237500  0.512700  1.0
  C  C1026  1  0.692100  0.262500  0.987300  1.0
  C  C1027  1  0.807900  0.762500  0.487300  1.0
  C  C1028  1  0.307900  0.737500  0.012700  1.0
  C  C1029  1  0.183100  0.247300  0.480400  1.0
  C  C1030  1  0.683100  0.252700  0.019600  1.0
  C  C1031  1  0.816900  0.752700  0.519600  1.0
  C  C1032  1  0.316900  0.747300  0.980400  1.0
  C  C1033  1  0.178300  0.196400  0.565400  1.0
  C  C1034  1  0.678300  0.303600  0.934600  1.0
  C  C1035  1  0.821700  0.803600  0.434600  1.0
  C  C1036  1  0.321700  0.696400  0.065400  1.0
  C  C1037  1  0.186600  0.185600  0.593200  1.0
  C  C1038  1  0.686600  0.314400  0.906800  1.0
  C  C1039  1  0.813400  0.814400  0.406800  1.0
  C  C1040  1  0.313400  0.685600  0.093200  1.0
  C  C1041  1  0.194200  0.168400  0.624400  1.0
  C  C1042  1  0.694200  0.331600  0.875600  1.0
  C  C1043  1  0.805800  0.831600  0.375600  1.0
  C  C1044  1  0.305800  0.668400  0.124400  1.0
  C  C1045  1  0.172900  0.125100  0.635800  1.0
  C  C1046  1  0.672900  0.374900  0.864200  1.0
  C  C1047  1  0.827100  0.874900  0.364200  1.0
  C  C1048  1  0.327100  0.625100  0.135800  1.0
  C  C1049  1  0.175900  0.104100  0.666600  1.0
  C  C1050  1  0.675900  0.395900  0.833400  1.0
  C  C1051  1  0.824100  0.895900  0.333400  1.0
  C  C1052  1  0.324100  0.604100  0.166600  1.0
  C  C1053  1  0.200500  0.131800  0.685700  1.0
  C  C1054  1  0.700500  0.368200  0.814300  1.0
  C  C1055  1  0.799500  0.868200  0.314300  1.0
  C  C1056  1  0.299500  0.631800  0.185700  1.0
  C  C1057  1  0.223400  0.175700  0.676100  1.0
  C  C1058  1  0.723400  0.324300  0.823900  1.0
  C  C1059  1  0.776600  0.824300  0.323900  1.0
  C  C1060  1  0.276600  0.675700  0.176100  1.0
  C  C1061  1  0.221500  0.193000  0.646500  1.0
  C  C1062  1  0.721500  0.307000  0.853500  1.0
  C  C1063  1  0.778500  0.807000  0.353500  1.0
  C  C1064  1  0.278500  0.693000  0.146500  1.0
  C  C1065  1  0.288400  0.227800  0.743500  1.0
  C  C1066  1  0.788400  0.272200  0.756500  1.0
  C  C1067  1  0.711600  0.772200  0.256500  1.0
  C  C1068  1  0.211600  0.727800  0.243500  1.0
  C  C1069  1  0.276700  0.193400  0.767200  1.0
  C  C1070  1  0.776700  0.306600  0.732800  1.0
  C  C1071  1  0.723300  0.806600  0.232800  1.0
  C  C1072  1  0.223300  0.693400  0.267200  1.0
  C  C1073  1  0.252200  0.153000  0.759600  1.0
  C  C1074  1  0.752200  0.347000  0.740400  1.0
  C  C1075  1  0.747800  0.847000  0.240400  1.0
  C  C1076  1  0.247800  0.653000  0.259600  1.0
  C  C1077  1  0.238700  0.152900  0.728200  1.0
  C  C1078  1  0.738700  0.347100  0.771800  1.0
  C  C1079  1  0.761300  0.847100  0.271800  1.0
  C  C1080  1  0.261300  0.652900  0.228200  1.0
  C  C1081  1  0.247000  0.190700  0.705200  1.0
  C  C1082  1  0.747000  0.309300  0.794800  1.0
  C  C1083  1  0.753000  0.809300  0.294800  1.0
  C  C1084  1  0.253000  0.690700  0.205200  1.0
  C  C1085  1  0.273800  0.227800  0.711500  1.0
  C  C1086  1  0.773800  0.272200  0.788500  1.0
  C  C1087  1  0.726200  0.772200  0.288500  1.0
  C  C1088  1  0.226200  0.727800  0.211500  1.0
  C  C1089  1  0.581400  0.642000  0.186300  1.0
  C  C1090  1  0.081400  0.858000  0.313700  1.0
  C  C1091  1  0.418600  0.358000  0.813700  1.0
  C  C1092  1  0.918600  0.142000  0.686300  1.0
  C  C1093  1  0.616700  0.669600  0.197800  1.0
  C  C1094  1  0.116700  0.830400  0.302200  1.0
  C  C1095  1  0.383300  0.330400  0.802200  1.0
  C  C1096  1  0.883300  0.169600  0.697800  1.0
  C  C1097  1  0.622700  0.668300  0.229700  1.0
  C  C1098  1  0.122700  0.831700  0.270300  1.0
  C  C1099  1  0.377300  0.331700  0.770300  1.0
  C  C1100  1  0.877300  0.168300  0.729700  1.0
  C  C1101  1  0.593700  0.638100  0.251000  1.0
  C  C1102  1  0.093700  0.861900  0.249000  1.0
  C  C1103  1  0.406300  0.361900  0.749000  1.0
  C  C1104  1  0.906300  0.138100  0.751000  1.0
  C  C1105  1  0.562000  0.611900  0.238300  1.0
  C  C1106  1  0.062000  0.888100  0.261700  1.0
  C  C1107  1  0.438000  0.388100  0.761700  1.0
  C  C1108  1  0.938000  0.111900  0.738300  1.0
  C  C1109  1  0.659600  0.699900  0.237400  1.0
  C  C1110  1  0.159600  0.800100  0.262600  1.0
  C  C1111  1  0.340400  0.300100  0.762600  1.0
  C  C1112  1  0.840400  0.199900  0.737400  1.0
  C  C1113  1  0.318800  0.273300  0.752100  1.0
  C  C1114  1  0.818800  0.226700  0.747900  1.0
  C  C1115  1  0.681200  0.726700  0.247900  1.0
  C  C1116  1  0.181200  0.773300  0.252100  1.0
  C  C1117  1  0.444100  0.662200  0.166600  1.0
  C  C1118  1  0.944100  0.837800  0.333400  1.0
  C  C1119  1  0.555900  0.337800  0.833400  1.0
  C  C1120  1  0.055900  0.162200  0.666600  1.0
  C  C1121  1  0.416600  0.702800  0.166800  1.0
  C  C1122  1  0.916600  0.797200  0.333200  1.0
  C  C1123  1  0.583400  0.297200  0.833200  1.0
  C  C1124  1  0.083400  0.202800  0.666800  1.0
  C  C1125  1  0.393000  0.709000  0.193800  1.0
  C  C1126  1  0.893000  0.791000  0.306200  1.0
  C  C1127  1  0.607000  0.291000  0.806200  1.0
  C  C1128  1  0.107000  0.209000  0.693800  1.0
  C  C1129  1  0.400500  0.673200  0.222400  1.0
  C  C1130  1  0.900500  0.826800  0.277600  1.0
  C  C1131  1  0.599500  0.326800  0.777600  1.0
  C  C1132  1  0.099500  0.173200  0.722400  1.0
  C  C1133  1  0.428500  0.635600  0.219700  1.0
  C  C1134  1  0.928500  0.864400  0.280300  1.0
  C  C1135  1  0.571500  0.364400  0.780300  1.0
  C  C1136  1  0.071500  0.135600  0.719700  1.0
  C  C1137  1  0.365900  0.752100  0.190900  1.0
  C  C1138  1  0.865900  0.747900  0.309100  1.0
  C  C1139  1  0.634100  0.247900  0.809100  1.0
  C  C1140  1  0.134100  0.252100  0.690900  1.0
  C  C1141  1  0.657800  0.217400  0.806300  1.0
  C  C1142  1  0.157800  0.282600  0.693700  1.0
  C  C1143  1  0.342200  0.782600  0.193700  1.0
  C  C1144  1  0.842200  0.717400  0.306300  1.0
  C  C1145  1  0.041700  0.278500  0.428200  1.0
  C  C1146  1  0.541700  0.221500  0.071800  1.0
  C  C1147  1  0.958300  0.721500  0.571800  1.0
  C  C1148  1  0.458300  0.778500  0.928200  1.0
  C  C1149  1  0.009800  0.315400  0.430700  1.0
  C  C1150  1  0.509800  0.184600  0.069300  1.0
  C  C1151  1  0.990200  0.684600  0.569300  1.0
  C  C1152  1  0.490200  0.815400  0.930700  1.0
  C  C1153  1  0.027900  0.358100  0.432800  1.0
  C  C1154  1  0.527900  0.141900  0.067200  1.0
  C  C1155  1  0.972100  0.641900  0.567200  1.0
  C  C1156  1  0.472100  0.858100  0.932800  1.0
  C  C1157  1  0.081200  0.368700  0.428100  1.0
  C  C1158  1  0.581200  0.131300  0.071900  1.0
  C  C1159  1  0.918800  0.631300  0.571900  1.0
  C  C1160  1  0.418800  0.868700  0.928100  1.0
  C  C1161  1  0.110800  0.327900  0.423200  1.0
  C  C1162  1  0.610800  0.172100  0.076800  1.0
  C  C1163  1  0.889200  0.672100  0.576800  1.0
  C  C1164  1  0.389200  0.827900  0.923200  1.0
  C  C1165  1  0.994700  0.395400  0.442100  1.0
  C  C1166  1  0.494700  0.104600  0.057900  1.0
  C  C1167  1  0.005300  0.604600  0.557900  1.0
  C  C1168  1  0.505300  0.895400  0.942100  1.0
  C  C1169  1  0.036900  0.577300  0.547800  1.0
  C  C1170  1  0.536900  0.922700  0.952200  1.0
  C  C1171  1  0.963100  0.422700  0.452200  1.0
  C  C1172  1  0.463100  0.077300  0.047800  1.0
  S  S1173  1  0.690000  0.255400  0.509800  1
  S  S1174  1  0.190000  0.244600  0.990200  1
  S  S1175  1  0.310000  0.744600  0.490200  1
  S  S1176  1  0.810000  0.755400  0.009800  1
  S  S1177  1  0.267800  0.326800  0.410700  1
  S  S1178  1  0.767800  0.173200  0.089300  1
  S  S1179  1  0.732200  0.673200  0.589300  1
  S  S1180  1  0.232200  0.826800  0.910700  1
  S  S1181  1  0.903900  0.017500  0.486000  1
  S  S1182  1  0.403900  0.482500  0.014000  1
  S  S1183  1  0.096100  0.982500  0.514000  1
  S  S1184  1  0.596100  0.517500  0.986000  1
  S  S1185  1  0.444400  0.525500  0.288000  1
  S  S1186  1  0.944400  0.974500  0.212000  1
  S  S1187  1  0.555600  0.474500  0.712000  1
  S  S1188  1  0.055600  0.025500  0.788000  1
  S  S1189  1  0.007400  0.126770  0.430630  1
  S  S1190  1  0.507400  0.373230  0.069370  1
  S  S1191  1  0.992600  0.873230  0.569370  1
  S  S1192  1  0.492600  0.626770  0.930630  1
  S  S1193  1  0.530500  0.614400  0.086000  1
  S  S1194  1  0.030500  0.885600  0.414000  1
  S  S1195  1  0.469500  0.385600  0.914000  1
  S  S1196  1  0.969500  0.114400  0.586000  1
  S  S1197  1  0.785200  0.940300  0.443100  1
  S  S1198  1  0.285200  0.559700  0.056900  1
  S  S1199  1  0.214800  0.059700  0.556900  1
  S  S1200  1  0.714800  0.440300  0.943100  1
  S  S1201  1  0.533500  0.646300  0.098400  1
  S  S1202  1  0.033500  0.853700  0.401600  1
  S  S1203  1  0.466500  0.353700  0.901600  1
  S  S1204  1  0.966500  0.146300  0.598400  1
  S  S1205  1  0.065200  0.016400  0.429700  1
  S  S1206  1  0.565200  0.483600  0.070300  1
  S  S1207  1  0.934800  0.983600  0.570300  1
  S  S1208  1  0.434800  0.516400  0.929700  1
  N  N1209  1  0.741600  0.095400  0.498800  1.0
  N  N1210  1  0.241600  0.404600  0.001200  1.0
  N  N1211  1  0.258400  0.904600  0.501200  1.0
  N  N1212  1  0.758400  0.595400  0.998800  1.0
  N  N1213  1  0.179000  0.172100  0.418100  1.0
  N  N1214  1  0.679000  0.327900  0.081900  1.0
  N  N1215  1  0.821000  0.827900  0.581900  1.0
  N  N1216  1  0.321000  0.672100  0.918100  1.0
  N  N1217  1  0.795900  0.152900  0.454100  1.0
  N  N1218  1  0.295900  0.347100  0.045900  1.0
  N  N1219  1  0.204100  0.847100  0.545900  1.0
  N  N1220  1  0.704100  0.652900  0.954100  1.0
  N  N1221  1  0.542400  0.519200  0.189300  1.0
  N  N1222  1  0.042400  0.980800  0.310700  1.0
  N  N1223  1  0.457600  0.480800  0.810700  1.0
  N  N1224  1  0.957600  0.019200  0.689300  1.0
  N  N1225  1  0.441600  0.536600  0.172400  1.0
  N  N1226  1  0.941600  0.963400  0.327600  1.0
  N  N1227  1  0.558400  0.463400  0.827600  1.0
  N  N1228  1  0.058400  0.036600  0.672400  1.0
  N  N1229  1  0.125200  0.238400  0.373300  1.0
  N  N1230  1  0.625200  0.261600  0.126700  1.0
  N  N1231  1  0.874800  0.761600  0.626700  1.0
  N  N1232  1  0.374800  0.738400  0.873300  1.0
  N  N1233  1  0.802100  0.122500  0.549200  1.0
  N  N1234  1  0.302100  0.377500  0.950800  1.0
  N  N1235  1  0.197900  0.877500  0.450800  1.0
  N  N1236  1  0.697900  0.622500  0.049200  1.0
  N  N1237  1  0.857100  0.182800  0.502500  1.0
  N  N1238  1  0.357100  0.317200  0.997500  1.0
  N  N1239  1  0.142900  0.817200  0.497500  1.0
  N  N1240  1  0.642900  0.682800  0.002500  1.0
  N  N1241  1  0.145400  0.223300  0.463900  1.0
  N  N1242  1  0.645400  0.276700  0.036100  1.0
  N  N1243  1  0.854600  0.776700  0.536100  1.0
  N  N1244  1  0.354600  0.723300  0.963900  1.0
  N  N1245  1  0.552900  0.612300  0.206700  1.0
  N  N1246  1  0.052900  0.887700  0.293300  1.0
  N  N1247  1  0.447100  0.387700  0.793300  1.0
  N  N1248  1  0.947100  0.112300  0.706700  1.0
  N  N1249  1  0.452400  0.629500  0.190800  1.0
  N  N1250  1  0.952400  0.870500  0.309200  1.0
  N  N1251  1  0.547600  0.370500  0.809200  1.0
  N  N1252  1  0.047600  0.129500  0.690800  1.0
  N  N1253  1  0.091100  0.285800  0.424500  1.0
  N  N1254  1  0.591100  0.214200  0.075500  1.0
  N  N1255  1  0.908900  0.714200  0.575500  1.0
  N  N1256  1  0.408900  0.785800  0.924500  1.0
  O  O1257  1  0.725900  0.216600  0.508600  1
  O  O1258  1  0.225900  0.283400  0.991400  1
  O  O1259  1  0.274100  0.783400  0.491400  1
  O  O1260  1  0.774100  0.716600  0.008600  1
  O  O1261  1  0.228100  0.290500  0.414100  1
  O  O1262  1  0.728100  0.209500  0.085900  1
  O  O1263  1  0.771900  0.709500  0.585900  1
  O  O1264  1  0.271900  0.790500  0.914100  1
  O  O1265  1  0.868300  0.051800  0.491700  1
  O  O1266  1  0.368300  0.448200  0.008300  1
  O  O1267  1  0.131700  0.948200  0.508300  1
  O  O1268  1  0.631700  0.551800  0.991700  1
  O  O1269  1  0.464600  0.542100  0.256800  1
  O  O1270  1  0.964600  0.957900  0.243200  1
  O  O1271  1  0.535400  0.457900  0.743200  1
  O  O1272  1  0.035400  0.042100  0.756800  1
  O  O1273  1  0.038900  0.165300  0.429000  1
  O  O1274  1  0.538900  0.334700  0.071000  1
  O  O1275  1  0.961100  0.834700  0.571000  1
  O  O1276  1  0.461100  0.665300  0.929000  1
  O  O1277  1  0.524500  0.605700  0.118300  1
  O  O1278  1  0.024500  0.894300  0.381700  1
  O  O1279  1  0.475500  0.394300  0.881700  1
  O  O1280  1  0.975500  0.105700  0.618300  1
  O  O1281  1  0.571700  0.635200  0.070900  1
  O  O1282  1  0.071700  0.864800  0.429100  1
  O  O1283  1  0.428300  0.364800  0.929100  1
  O  O1284  1  0.928300  0.135200  0.570900  1
  O  O1285  1  0.527600  0.565500  0.079200  1
  O  O1286  1  0.027600  0.934500  0.420800  1
  O  O1287  1  0.472400  0.434500  0.920800  1
  O  O1288  1  0.972400  0.065500  0.579200  1
  O  O1289  1  0.797400  0.992500  0.447300  1
  O  O1290  1  0.297400  0.507500  0.052700  1
  O  O1291  1  0.202600  0.007500  0.552700  1
  O  O1292  1  0.702600  0.492500  0.947300  1
  O  O1293  1  0.706700  0.944800  0.429900  1
  O  O1294  1  0.206700  0.555200  0.070100  1
  O  O1295  1  0.293300  0.055200  0.570100  1
  O  O1296  1  0.793300  0.444800  0.929900  1
  O  O1297  1  0.494900  0.110900  0.461400  1
  O  O1298  1  0.994900  0.389100  0.038600  1
  O  O1299  1  0.505100  0.889100  0.538600  1
  O  O1300  1  0.005100  0.610900  0.961400  1
  O  O1301  1  0.665700  0.234900  0.708400  1
  O  O1302  1  0.165700  0.265100  0.791600  1
  O  O1303  1  0.334300  0.765100  0.291600  1
  O  O1304  1  0.834300  0.734900  0.208400  1
  O  O1305  1  0.269900  0.027800  0.340100  1
  O  O1306  1  0.769900  0.472200  0.159900  1
  O  O1307  1  0.730100  0.972200  0.659900  1
  O  O1308  1  0.230100  0.527800  0.840100  1
  O  O1309  1  0.860800  0.252400  0.600100  1
  O  O1310  1  0.360800  0.247600  0.899900  1
  O  O1311  1  0.139200  0.747600  0.399900  1
  O  O1312  1  0.639200  0.752400  0.100100  1
  O  O1313  1  0.016000  0.151000  0.253000  1
  O  O1314  1  0.516000  0.349000  0.247000  1
  O  O1315  1  0.984000  0.849000  0.747000  1
  O  O1316  1  0.484000  0.651000  0.753000  1
  O  O1317  1  0.486900  0.645700  0.312700  1
  O  O1318  1  0.986900  0.854300  0.187300  1
  O  O1319  1  0.513100  0.354300  0.687300  1
  O  O1320  1  0.013100  0.145700  0.812700  1
  O  O1321  1  0.751700  0.225000  0.658700  1
  O  O1322  1  0.251700  0.275000  0.841300  1
  O  O1323  1  0.248300  0.775000  0.341300  1
  O  O1324  1  0.748300  0.725000  0.158700  1
  O  O1325  1  0.690200  0.212400  0.610500  1
  O  O1326  1  0.190200  0.287600  0.889500  1
  O  O1327  1  0.309800  0.787600  0.389500  1
  O  O1328  1  0.809800  0.712400  0.110500  1
  O  O1329  1  0.396000  0.812400  0.108600  1
  O  O1330  1  0.896000  0.687600  0.391400  1
  O  O1331  1  0.604000  0.187600  0.891400  1
  O  O1332  1  0.104000  0.312400  0.608600  1
  O  O1333  1  0.545000  0.035700  0.374300  1
  O  O1334  1  0.045000  0.464300  0.125700  1
  O  O1335  1  0.455000  0.964300  0.625700  1
  O  O1336  1  0.955000  0.535700  0.874300  1
  O  O1337  1  0.536600  0.173000  0.464400  1
  O  O1338  1  0.036600  0.327000  0.035600  1
  O  O1339  1  0.463400  0.827000  0.535600  1
  O  O1340  1  0.963400  0.673000  0.964400  1
  O  O1341  1  0.930400  0.253700  0.617200  1
  O  O1342  1  0.430400  0.246300  0.882800  1
  O  O1343  1  0.069600  0.746300  0.382800  1
  O  O1344  1  0.569600  0.753700  0.117200  1
  O  O1345  1  0.382000  0.202100  0.579900  1
  O  O1346  1  0.882000  0.297900  0.920100  1
  O  O1347  1  0.618000  0.797900  0.420100  1
  O  O1348  1  0.118000  0.702100  0.079900  1
  O  O1349  1  0.176000  0.390300  0.358700  1
  O  O1350  1  0.676000  0.109700  0.141300  1
  O  O1351  1  0.824000  0.609700  0.641300  1
  O  O1352  1  0.324000  0.890300  0.858700  1
  O  O1353  1  0.876300  0.301900  0.100400  1
  O  O1354  1  0.376300  0.198100  0.399600  1
  O  O1355  1  0.123700  0.698100  0.899600  1
  O  O1356  1  0.623700  0.801900  0.600400  1
  O  O1357  1  0.200400  0.675400  0.550800  1
  O  O1358  1  0.700400  0.824600  0.949200  1
  O  O1359  1  0.799600  0.324600  0.449200  1
  O  O1360  1  0.299600  0.175400  0.050800  1
  O  O1361  1  0.650500  0.884400  0.524800  1
  O  O1362  1  0.150500  0.615600  0.975200  1
  O  O1363  1  0.349500  0.115600  0.475200  1
  O  O1364  1  0.849500  0.384400  0.024800  1
  O  O1365  1  0.130000  0.726600  0.580400  1
  O  O1366  1  0.630000  0.773400  0.919600  1
  O  O1367  1  0.870000  0.273400  0.419600  1
  O  O1368  1  0.370000  0.226600  0.080400  1
  O  O1369  1  0.032000  0.366300  0.332700  1
  O  O1370  1  0.532000  0.133700  0.167300  1
  O  O1371  1  0.968000  0.633700  0.667300  1
  O  O1372  1  0.468000  0.866300  0.832700  1
  O  O1373  1  0.337000  0.303000  0.644000  1
  O  O1374  1  0.837000  0.197000  0.856000  1
  O  O1375  1  0.663000  0.697000  0.356000  1
  O  O1376  1  0.163000  0.803000  0.144000  1
  O  O1377  1  0.278500  0.342500  0.515300  1
  O  O1378  1  0.778500  0.157500  0.984700  1
  O  O1379  1  0.721500  0.657500  0.484700  1
  O  O1380  1  0.221500  0.842500  0.015300  1
  O  O1381  1  0.220000  0.500000  0.198000  1
  O  O1382  1  0.720000  0.000000  0.302000  1
  O  O1383  1  0.780000  0.500000  0.802000  1
  O  O1384  1  0.280000  0.000000  0.698000  1
  O  O1385  1  0.963700  0.147700  0.373000  1
  O  O1386  1  0.463700  0.352300  0.127000  1
  O  O1387  1  0.036300  0.852300  0.627000  1
  O  O1388  1  0.536300  0.647700  0.873000  1
  O  O1389  1  0.049000  0.418400  0.229600  1
  O  O1390  1  0.549000  0.081600  0.270400  1
  O  O1391  1  0.951000  0.581600  0.770400  1
  O  O1392  1  0.451000  0.918400  0.729600  1
  O  O1393  1  0.912000  0.976300  0.811700  1
  O  O1394  1  0.412000  0.523700  0.688300  1
  O  O1395  1  0.088000  0.023700  0.188300  1
  O  O1396  1  0.588000  0.476300  0.311700  1
  O  O1397  1  0.460000  0.746200  0.393800  1
  O  O1398  1  0.960000  0.753800  0.106200  1
  O  O1399  1  0.540000  0.253800  0.606200  1
  O  O1400  1  0.040000  0.246200  0.893800  1
  O  O1401  1  0.985300  0.107400  0.317000  1
  O  O1402  1  0.485300  0.392600  0.183000  1
  O  O1403  1  0.014700  0.892600  0.683000  1
  O  O1404  1  0.514700  0.607400  0.817000  1
  O  O1405  1  0.030700  0.111400  0.368700  1
  O  O1406  1  0.530700  0.388600  0.131300  1
  O  O1407  1  0.969300  0.888600  0.631300  1
  O  O1408  1  0.469300  0.611400  0.868700  1
  O  O1409  1  0.973100  0.077300  0.385500  1
  O  O1410  1  0.473100  0.422700  0.114500  1
  O  O1411  1  0.026900  0.922700  0.614500  1
  O  O1412  1  0.526900  0.577300  0.885500  1
  O  O1413  1  0.534200  0.605400  0.117700  1
  O  O1414  1  0.034200  0.894600  0.382300  1
  O  O1415  1  0.465800  0.394600  0.882300  1
  O  O1416  1  0.965800  0.105400  0.617700  1
  O  O1417  1  0.574300  0.652900  0.077300  1
  O  O1418  1  0.074300  0.847100  0.422700  1
  O  O1419  1  0.425700  0.347100  0.922700  1
  O  O1420  1  0.925700  0.152900  0.577300  1
  O  O1421  1  0.532500  0.685800  0.116600  1
  O  O1422  1  0.032500  0.814200  0.383400  1
  O  O1423  1  0.467500  0.314200  0.883400  1
  O  O1424  1  0.967500  0.185800  0.616600  1
  O  O1425  1  0.101600  0.011500  0.414000  1
  O  O1426  1  0.601600  0.488500  0.086000  1
  O  O1427  1  0.898400  0.988500  0.586000  1
  O  O1428  1  0.398400  0.511500  0.914000  1
  O  O1429  1  0.960200  0.122100  0.440900  1
  O  O1430  1  0.460200  0.377900  0.059100  1
  O  O1431  1  0.039800  0.877900  0.559100  1
  O  O1432  1  0.539800  0.622100  0.940900  1
  O  O1433  1  0.431900  0.873400  0.436400  1.0
  O  O1434  1  0.931900  0.626600  0.063600  1.0
  O  O1435  1  0.568100  0.126600  0.563600  1.0
  O  O1436  1  0.068100  0.373400  0.936400  1.0
  O  O1437  1  0.804800  0.224300  0.195700  1.0
  O  O1438  1  0.304800  0.275700  0.304300  1.0
  O  O1439  1  0.195200  0.775700  0.804300  1.0
  O  O1440  1  0.695200  0.724300  0.695700  1.0
  O  O1441  1  0.105600  0.346600  0.119600  1.0
  O  O1442  1  0.605600  0.153400  0.380400  1.0
  O  O1443  1  0.894400  0.653400  0.880400  1.0
  O  O1444  1  0.394400  0.846600  0.619600  1.0
  O  O1445  1  0.783100  0.060900  0.804600  1.0
  O  O1446  1  0.283100  0.439100  0.695400  1.0
  O  O1447  1  0.216900  0.939100  0.195400  1.0
  O  O1448  1  0.716900  0.560900  0.304600  1.0
  O  O1449  1  0.156300  0.436000  0.513100  1.0
  O  O1450  1  0.656300  0.064000  0.986900  1.0
  O  O1451  1  0.843700  0.564000  0.486900  1.0
  O  O1452  1  0.343700  0.936000  0.013100  1.0
  O  O1453  1  0.209100  0.115700  0.717900  1.0
  O  O1454  1  0.709100  0.384300  0.782100  1.0
  O  O1455  1  0.790900  0.884300  0.282100  1.0
  O  O1456  1  0.290900  0.615700  0.217900  1.0
  F  F1457  1  0.437200  0.613000  0.080800  1
  F  F1458  1  0.937200  0.887000  0.419200  1
  F  F1459  1  0.562800  0.387000  0.919200  1
  F  F1460  1  0.062800  0.113000  0.580800  1
  F  F1461  1  0.470700  0.677700  0.066300  1
  F  F1462  1  0.970700  0.822300  0.433700  1
  F  F1463  1  0.529300  0.322300  0.933700  1
  F  F1464  1  0.029300  0.177700  0.566300  1
  F  F1465  1  0.476600  0.625100  0.040000  1
  F  F1466  1  0.976600  0.874900  0.460000  1
  F  F1467  1  0.523400  0.374900  0.960000  1
  F  F1468  1  0.023400  0.125100  0.540000  1
  F  F1469  1  0.436900  0.653600  0.093400  1
  F  F1470  1  0.936900  0.846400  0.406600  1
  F  F1471  1  0.563100  0.346400  0.906600  1
  F  F1472  1  0.063100  0.153600  0.593400  1
  F  F1473  1  0.477500  0.689300  0.058500  1
  F  F1474  1  0.977500  0.810700  0.441500  1
  F  F1475  1  0.522500  0.310700  0.941500  1
  F  F1476  1  0.022500  0.189300  0.558500  1
  F  F1477  1  0.474600  0.618700  0.062400  1
  F  F1478  1  0.974600  0.881300  0.437600  1
  F  F1479  1  0.525400  0.381300  0.937600  1
  F  F1480  1  0.025400  0.118700  0.562400  1
