
#######################################################################
#
#                 Cambridge Crystallographic Data Centre
#                                CCDC 
#
#######################################################################
#
# If this CIF has been generated from an entry in the Cambridge 
# Structural Database, then it will include bibliographic, chemical, 
# crystal, experimental, refinement or atomic coordinate data resulting 
# from the CCDC's data processing and validation procedures.
#
#######################################################################

data_CUDYIK
_chemical_formula_moiety         
'C169 H195 N41 O7 Pd6 Zn3 6+,6(N1 O3 1-),21.25(H2 O1)'
_chemical_name_systematic        
'hexakis(1,2-diaminocyclohexane)-tris(\m~5~-5,10,15,20-tetrakis(3-pyridyl)porphyrinato)-(N-[acetyl]glycylalanylalanylalaninamide)-diaqua-hexa-palladium(ii)-tri-zinc hexanitrate hydrate'
_symmetry_cell_setting           orthorhombic
_symmetry_space_group_name_H-M   'C 2 2 2'
_symmetry_Int_Tables_number      21
_space_group_name_Hall           'C 2 2'
loop_
_symmetry_equiv_pos_site_id
_symmetry_equiv_pos_as_xyz
1 x,y,z
2 -x,-y,z
3 -x,y,-z
4 x,-y,-z
5 1/2+x,1/2+y,z
6 1/2-x,1/2-y,z
7 1/2-x,1/2+y,-z
8 1/2+x,1/2-y,-z
_cell_length_a                   44.795(6)
_cell_length_b                   51.005(7)
_cell_length_c                   44.277(6)
_cell_angle_alpha                90
_cell_angle_beta                 90
_cell_angle_gamma                90
_cell_volume                     101163
_exptl_crystal_colour            violet
_exptl_crystal_description       plate
_cell_formula_units_Z            16
loop_
_atom_site_label
_atom_site_type_symbol
_atom_site_fract_x
_atom_site_fract_y
_atom_site_fract_z
Pd1 Pd 0.41160(5) -0.19712(5) 0.66588(5)
Pd2 Pd 0.48465(7) -0.35829(6) 0.60829(6)
Pd3 Pd 0.28834(6) -0.33802(5) 0.57814(5)
Pd4 Pd 0.35458(6) -0.29539(5) 0.93764(5)
Pd5 Pd 0.43684(5) -0.45486(4) 0.88501(5)
Pd6 Pd 0.23312(6) -0.42545(5) 0.85568(6)
Zn1 Zn 0.28059(8) -0.29052(6) 0.76161(8)
Zn2 Zn 0.47875(8) -0.30813(7) 0.79558(7)
Zn3 Zn 0.35595(9) -0.44656(7) 0.70777(7)
C1 C 0.3658(8) -0.4069(7) 0.8084(8)
H1 H 0.3786 -0.4147 0.7929
H2 H 0.3530 -0.4205 0.8171
H3 H 0.3782 -0.3991 0.8243
C2 C 0.3463(9) -0.3856(7) 0.7941(9)
C3 C 0.3656(7) -0.3013(6) 0.7820(6)
H4 H 0.3512 -0.2877 0.7745
C4 C 0.3869(7) -0.2891(6) 0.8061(7)
H5 H 0.3751 -0.2826 0.8232
H6 H 0.3981 -0.2745 0.7971
H7 H 0.4010 -0.3025 0.8132
C5 C 0.3846(8) -0.3086(7) 0.7591(9)
C6 C 0.4152(7) -0.3477(5) 0.7339(6)
H8 H 0.4325 -0.3364 0.7282
C7 C 0.4256(8) -0.3756(6) 0.7431(8)
H9 H 0.4391 -0.3744 0.7604
H10 H 0.4360 -0.3838 0.7260
H11 H 0.4082 -0.3863 0.7486
C8 C 0.3934(9) -0.3519(7) 0.7065(9)
C9 C 0.3447(8) -0.3587(7) 0.6835(8)
H12 H 0.3505 -0.3745 0.6714
C10 C 0.3174(7) -0.3622(7) 0.7001(7)
H13 H 0.3012 -0.3662 0.6860
H14 H 0.3127 -0.3460 0.7111
H15 H 0.3198 -0.3767 0.7145
C11 C 0.3420(9) -0.3351(8) 0.6655(9)
C12 C 0.3069(6) -0.3521(5) 0.7967(7)
H16 H 0.2930 -0.3591 0.7813
H17 H 0.2949 -0.3441 0.8130
C13 C 0.3267(7) -0.3313(6) 0.7825(7)
N1 N 0.3491(8) -0.3113(8) 0.6851(9)
H18 H 0.3505 -0.2956 0.6769
H19 H 0.3519 -0.3132 0.7047
N2 N 0.3502(5) -0.3212(4) 0.7975(5)
H20 H 0.3555 -0.3266 0.8156
N3 N 0.3987(5) -0.3368(5) 0.7585(6)
H21 H 0.3963 -0.3466 0.7747
N4 N 0.3667(8) -0.3535(6) 0.7118(7)
H22 H 0.3597 -0.3518 0.7303
N5 N 0.3270(6) -0.3759(5) 0.8104(7)
H23 H 0.3241 -0.3817 0.8289
O1 O 0.3157(5) -0.3189(4) 0.7591(5)
O2 O 0.3478(5) -0.3791(5) 0.7647(6)
O3 O 0.3900(5) -0.2985(5) 0.7344(6)
O4 O 0.4064(5) -0.3488(5) 0.6804(6)
O5 O 0.3369(7) -0.3368(6) 0.6356(8)
C14 C 0.2734(6) -0.2857(5) 0.6936(6)
C15 C 0.2821(5) -0.2658(5) 0.6696(6)
H24 H 0.2752 -0.2666 0.6493
C16 C 0.2985(5) -0.2492(5) 0.6788(5)
H25 H 0.3070 -0.2352 0.6676
C17 C 0.3025(7) -0.2544(7) 0.7097(8)
C18 C 0.3192(7) -0.2373(7) 0.7311(7)
C19 C 0.3203(6) -0.2409(6) 0.7627(7)
C20 C 0.3370(8) -0.2259(7) 0.7839(8)
H26 H 0.3499 -0.2117 0.7792
C21 C 0.3314(6) -0.2354(5) 0.8119(6)
H27 H 0.3400 -0.2296 0.8303
C22 C 0.3123(7) -0.2538(6) 0.8087(7)
C23 C 0.2966(6) -0.2707(5) 0.8348(6)
C24 C 0.2765(6) -0.2886(5) 0.8305(6)
C25 C 0.2621(6) -0.3015(6) 0.8546(7)
H28 H 0.2637 -0.2981 0.8756
C26 C 0.2463(7) -0.3186(6) 0.8415(7)
H29 H 0.2350 -0.3310 0.8527
C27 C 0.2461(6) -0.3187(6) 0.8138(7)
C28 C 0.2336(7) -0.3344(6) 0.7930(8)
C29 C 0.2338(6) -0.3366(5) 0.7630(6)
C30 C 0.2259(7) -0.3567(6) 0.7407(6)
H30 H 0.2173 -0.3732 0.7456
C31 C 0.2327(6) -0.3487(6) 0.7115(7)
H31 H 0.2284 -0.3580 0.6934
C32 C 0.2470(7) -0.3239(6) 0.7138(7)
C33 C 0.2560(5) -0.3075(5) 0.6902(5)
C34 C 0.3583(7) -0.2167(6) 0.7000(7)
H32 H 0.3632 -0.2333 0.6917
C35 C 0.3341(7) -0.2153(6) 0.7197(7)
C36 C 0.3268(6) -0.1892(6) 0.7293(6)
H33 H 0.3104 -0.1869 0.7426
C37 C 0.3412(6) -0.1688(6) 0.7206(6)
H34 H 0.3354 -0.1523 0.7289
C38 C 0.3652(7) -0.1689(6) 0.6998(7)
H35 H 0.3740 -0.1534 0.6917
C39 C 0.3241(6) -0.2774(5) 0.8840(6)
H36 H 0.3302 -0.2943 0.8773
C40 C 0.3078(7) -0.2613(6) 0.8635(7)
C41 C 0.3014(10) -0.2348(9) 0.8740(9)
H37 H 0.2918 -0.2225 0.8612
C42 C 0.3099(8) -0.2278(8) 0.9034(8)
H38 H 0.3053 -0.2108 0.9108
C43 C 0.3255(7) -0.2461(6) 0.9226(7)
H39 H 0.3315 -0.2412 0.9424
C44 C 0.2268(7) -0.3774(6) 0.8237(7)
H40 H 0.2480 -0.3786 0.8242
C45 C 0.2136(7) -0.3567(6) 0.8073(7)
C46 C 0.1854(9) -0.3565(8) 0.8034(9)
H41 H 0.1758 -0.3434 0.7916
C47 C 0.1691(12) -0.3770(9) 0.8177(11)
H42 H 0.1480 -0.3778 0.8157
C48 C 0.1837(8) -0.3952(7) 0.8342(7)
H43 H 0.1726 -0.4089 0.8434
C49 C 0.2656(7) -0.3223(5) 0.6347(6)
H44 H 0.2865 -0.3230 0.6379
C50 C 0.2464(7) -0.3139(6) 0.6618(7)
C51 C 0.2135(8) -0.3179(7) 0.6534(8)
H45 H 0.1977 -0.3137 0.6668
C52 C 0.2089(8) -0.3275(6) 0.6265(8)
H46 H 0.1889 -0.3327 0.6226
C53 C 0.2289(8) -0.3312(6) 0.6026(8)
H47 H 0.2226 -0.3357 0.5828
C54 C 0.4700(6) -0.2712(5) 0.7409(6)
C55 C 0.4781(6) -0.2673(6) 0.7111(6)
H48 H 0.4772 -0.2517 0.6993
C56 C 0.4876(6) -0.2911(6) 0.7033(7)
H49 H 0.4941 -0.2947 0.6833
C57 C 0.4876(7) -0.3114(7) 0.7264(7)
C58 C 0.4958(6) -0.3355(6) 0.7265(6)
C59 C 0.4965(6) -0.3527(6) 0.7500(6)
C60 C 0.5048(6) -0.3785(5) 0.7485(6)
H50 H 0.5123 -0.3873 0.7312
C61 C 0.5004(7) -0.3889(6) 0.7755(7)
H51 H 0.5028 -0.4069 0.7805
C62 C 0.4909(5) -0.3671(5) 0.7973(6)
C63 C 0.4857(6) -0.3691(5) 0.8279(6)
C64 C 0.4755(7) -0.3476(6) 0.8451(7)
C65 C 0.4706(6) -0.3525(6) 0.8793(6)
H52 H 0.4737 -0.3681 0.8906
C66 C 0.4607(6) -0.3287(6) 0.8892(7)
H53 H 0.4561 -0.3241 0.9095
C67 C 0.4581(5) -0.3102(5) 0.8613(6)
C68 C 0.4469(6) -0.2836(5) 0.8631(6)
C69 C 0.4468(6) -0.2662(5) 0.8362(6)
C70 C 0.4337(7) -0.2448(6) 0.8388(7)
H54 H 0.4243 -0.2379 0.8564
C71 C 0.4357(6) -0.2320(6) 0.8074(6)
H55 H 0.4285 -0.2155 0.8005
C72 C 0.4523(6) -0.2526(5) 0.7909(6)
C73 C 0.4582(7) -0.2520(7) 0.7580(7)
C74 C 0.4966(8) -0.3466(6) 0.6717(8)
H56 H 0.4758 -0.3429 0.6721
C75 C 0.5114(7) -0.3457(6) 0.6984(7)
C76 C 0.5421(6) -0.3492(5) 0.6986(7)
H57 H 0.5543 -0.3456 0.7157
C77 C 0.5529(8) -0.3582(6) 0.6722(7)
H58 H 0.5728 -0.3646 0.6715
C78 C 0.5370(7) -0.3584(6) 0.6475(8)
H59 H 0.5466 -0.3633 0.6292
C79 C 0.4681(6) -0.4099(5) 0.8545(6)
H60 H 0.4483 -0.4032 0.8539
C80 C 0.4902(6) -0.3952(5) 0.8423(6)
C81 C 0.5200(8) -0.4073(7) 0.8467(8)
H61 H 0.5371 -0.3984 0.8391
C82 C 0.5237(7) -0.4291(6) 0.8603(7)
H62 H 0.5432 -0.4361 0.8626
C83 C 0.4997(7) -0.4424(6) 0.8716(6)
H63 H 0.5029 -0.4583 0.8825
C84 C 0.4092(7) -0.2852(6) 0.8980(6)
H64 H 0.3997 -0.2979 0.8855
C85 C 0.4341(5) -0.2765(5) 0.8899(5)
C86 C 0.4434(8) -0.2553(7) 0.9039(7)
H65 H 0.4605 -0.2467 0.8960
C87 C 0.4295(8) -0.2441(8) 0.9300(8)
H66 H 0.4361 -0.2284 0.9394
C88 C 0.4056(8) -0.2587(7) 0.9402(8)
H67 H 0.3972 -0.2549 0.9594
C89 C 0.4372(5) -0.2202(5) 0.7213(5)
H68 H 0.4259 -0.2348 0.7144
C90 C 0.4552(7) -0.2228(6) 0.7462(7)
C91 C 0.4666(6) -0.1993(5) 0.7581(6)
H69 H 0.4783 -0.1999 0.7759
C92 C 0.4616(6) -0.1771(6) 0.7454(6)
H70 H 0.4696 -0.1614 0.7536
C93 C 0.4454(6) -0.1763(6) 0.7210(6)
H71 H 0.4404 -0.1596 0.7130
C94 C 0.3909(7) -0.4249(5) 0.6564(6)
C95 C 0.3912(8) -0.4196(7) 0.6235(8)
H72 H 0.4074 -0.4180 0.6098
C96 C 0.3589(8) -0.4177(7) 0.6185(9)
H73 H 0.3497 -0.4141 0.5996
C97 C 0.3438(7) -0.4219(6) 0.6450(7)
C98 C 0.3139(7) -0.4217(5) 0.6504(6)
C99 C 0.2995(6) -0.4254(6) 0.6764(7)
C100 C 0.2675(8) -0.4185(6) 0.6820(8)
H74 H 0.2531 -0.4116 0.6684
C101 C 0.2643(8) -0.4250(7) 0.7135(8)
H75 H 0.2477 -0.4211 0.7261
C102 C 0.2899(7) -0.4381(6) 0.7216(6)
C103 C 0.2904(6) -0.4511(5) 0.7510(6)
C104 C 0.3187(7) -0.4572(6) 0.7653(6)
C105 C 0.3221(7) -0.4715(5) 0.7944(6)
H76 H 0.3065 -0.4768 0.8075
C106 C 0.3506(6) -0.4755(5) 0.7986(6)
H77 H 0.3591 -0.4838 0.8157
C107 C 0.3666(7) -0.4657(6) 0.7740(7)
C108 C 0.3971(6) -0.4649(5) 0.7700(6)
C109 C 0.4126(6) -0.4535(6) 0.7437(7)
C110 C 0.4447(6) -0.4488(7) 0.7435(6)
H78 H 0.4583 -0.4516 0.7597
C111 C 0.4510(5) -0.4398(5) 0.7159(5)
H79 H 0.4701 -0.4358 0.7079
C112 C 0.4227(6) -0.4375(7) 0.7011(7)
C113 C 0.4181(7) -0.4290(6) 0.6671(7)
C114 C 0.2985(6) -0.3861(6) 0.6153(6)
H80 H 0.3114 -0.3753 0.6271
C115 C 0.2954(7) -0.4125(6) 0.6228(7)
C116 C 0.2762(8) -0.4276(7) 0.6128(8)
H81 H 0.2733 -0.4448 0.6205
C117 C 0.2568(10) -0.4160(9) 0.5861(9)
H82 H 0.2415 -0.4260 0.5768
C118 C 0.2630(8) -0.3904(7) 0.5768(9)
H83 H 0.2526 -0.3838 0.5598
C119 C 0.2614(6) -0.4412(5) 0.7988(5)
H84 H 0.2785 -0.4336 0.8079
C120 C 0.2647(8) -0.4509(7) 0.7683(6)
C121 C 0.2394(7) -0.4614(6) 0.7553(7)
H85 H 0.2401 -0.4686 0.7355
C122 C 0.2153(8) -0.4612(6) 0.7701(7)
H86 H 0.1978 -0.4682 0.7612
C123 C 0.2136(8) -0.4501(7) 0.8013(8)
H87 H 0.1948 -0.4492 0.8113
C124 C 0.4153(6) -0.4646(6) 0.8237(6)
H88 H 0.4021 -0.4506 0.8283
C125 C 0.4159(7) -0.4763(7) 0.7939(8)
C126 C 0.4352(7) -0.4995(6) 0.7878(7)
H89 H 0.4343 -0.5084 0.7690
C127 C 0.4546(7) -0.5077(6) 0.8105(7)
H90 H 0.4679 -0.5221 0.8076
C128 C 0.4536(6) -0.4920(5) 0.8413(6)
H91 H 0.4675 -0.4958 0.8569
C129 C 0.4553(8) -0.3992(7) 0.6381(8)
H92 H 0.4417 -0.3856 0.6432
C130 C 0.4486(7) -0.4253(8) 0.6537(9)
C131 C 0.4692(9) -0.4443(9) 0.6468(9)
H93 H 0.4666 -0.4616 0.6543
C132 C 0.4943(9) -0.4383(9) 0.6286(9)
H94 H 0.5107 -0.4500 0.6267
C133 C 0.4937(10) -0.4160(10) 0.6146(10)
H95 H 0.5073 -0.4150 0.5982
C134 C 0.4119(6) -0.2085(5) 0.6025(6)
H96 H 0.4167 -0.2272 0.6069
C135 C 0.4022(7) -0.2067(7) 0.5705(7)
H97 H 0.3865 -0.2202 0.5674
H98 H 0.3924 -0.1895 0.5678
C136 C 0.4239(8) -0.2097(7) 0.5464(8)
H99 H 0.4165 -0.2008 0.5280
H100 H 0.4263 -0.2286 0.5416
C137 C 0.4531(6) -0.1985(6) 0.5551(6)
H101 H 0.4521 -0.1794 0.5514
H102 H 0.4682 -0.2057 0.5410
C138 C 0.4652(7) -0.2025(7) 0.5873(7)
H103 H 0.4842 -0.1929 0.5899
H104 H 0.4686 -0.2213 0.5913
C139 C 0.4412(6) -0.1916(6) 0.6088(6)
H105 H 0.4379 -0.1723 0.6063
C140 C 0.4693(10) -0.3178(8) 0.5704(10)
H106 H 0.4504 -0.3152 0.5820
C141 C 0.4755(9) -0.2911(8) 0.5521(9)
H107 H 0.4746 -0.2761 0.5664
H108 H 0.4959 -0.2916 0.5436
C142 C 0.4529(11) -0.2863(9) 0.5263(10)
H109 H 0.4333 -0.2812 0.5348
H110 H 0.4601 -0.2720 0.5131
C143 C 0.4495(10) -0.3114(7) 0.5079(9)
H111 H 0.4688 -0.3152 0.4978
H112 H 0.4346 -0.3083 0.4918
C144 C 0.4399(10) -0.3362(8) 0.5259(9)
H113 H 0.4400 -0.3520 0.5129
H114 H 0.4198 -0.3340 0.5348
C145 C 0.4646(9) -0.3382(8) 0.5514(9)
H115 H 0.4840 -0.3423 0.5413
C146 C 0.3346(9) -0.3209(8) 0.5411(10)
H116 H 0.3482 -0.3163 0.5582
C147 C 0.3534(10) -0.3231(8) 0.5080(9)
H117 H 0.3704 -0.3354 0.5100
H118 H 0.3401 -0.3296 0.4918
C148 C 0.3647(12) -0.2952(8) 0.5006(14)
H119 H 0.3789 -0.2897 0.5165
H120 H 0.3757 -0.2959 0.4813
C149 C 0.3402(14) -0.2744(12) 0.4980(12)
H121 H 0.3236 -0.2800 0.4848
H122 H 0.3480 -0.2573 0.4913
C150 C 0.3315(12) -0.2745(9) 0.5317(12)
H123 H 0.3204 -0.2584 0.5370
H124 H 0.3494 -0.2759 0.5447
C151 C 0.3115(8) -0.2989(6) 0.5352(8)
H125 H 0.2977 -0.3022 0.5178
C152 C 0.3255(6) -0.3312(6) 0.9737(7)
H126 H 0.3262 -0.3210 0.9929
C153 C 0.3035(9) -0.3574(7) 0.9780(9)
H127 H 0.2825 -0.3515 0.9805
H128 H 0.3045 -0.3684 0.9596
C154 C 0.3124(8) -0.3736(7) 1.0050(8)
H129 H 0.2973 -0.3873 1.0093
H130 H 0.3148 -0.3625 1.0231
C155 C 0.3429(7) -0.3863(7) 0.9958(8)
H131 H 0.3495 -0.3991 1.0112
H132 H 0.3411 -0.3955 0.9762
C156 C 0.3653(7) -0.3638(6) 0.9934(7)
H133 H 0.3853 -0.3708 0.9884
H134 H 0.3665 -0.3545 1.0129
C157 C 0.3551(6) -0.3445(5) 0.9684(7)
H135 H 0.3533 -0.3548 0.9493
C158 C 0.4185(6) -0.4535(5) 0.9484(5)
H136 H 0.4290 -0.4698 0.9549
C159 C 0.4084(6) -0.4373(5) 0.9766(5)
H137 H 0.4259 -0.4324 0.9890
H138 H 0.3980 -0.4212 0.9702
C160 C 0.3882(6) -0.4543(7) 0.9940(7)
H139 H 0.3828 -0.4455 1.0132
H140 H 0.3985 -0.4709 0.9990
C161 C 0.3590(6) -0.4605(6) 0.9758(6)
H141 H 0.3455 -0.4718 0.9878
H142 H 0.3484 -0.4442 0.9703
C162 C 0.3698(8) -0.4749(7) 0.9476(7)
H143 H 0.3796 -0.4914 0.9540
H144 H 0.3522 -0.4796 0.9353
C163 C 0.3900(6) -0.4607(5) 0.9291(6)
H145 H 0.3802 -0.4442 0.9221
C164 C 0.2547(8) -0.4516(7) 0.9104(7)
H146 H 0.2340 -0.4576 0.9152
C165 C 0.2746(8) -0.4690(7) 0.9271(8)
H147 H 0.2955 -0.4660 0.9210
H148 H 0.2694 -0.4876 0.9229
C166 C 0.2703(7) -0.4627(6) 0.9630(6)
H149 H 0.2511 -0.4701 0.9700
H150 H 0.2866 -0.4713 0.9745
C167 C 0.2707(7) -0.4360(6) 0.9690(7)
H151 H 0.2909 -0.4293 0.9642
H152 H 0.2677 -0.4336 0.9910
C168 C 0.2476(8) -0.4185(7) 0.9523(7)
H153 H 0.2499 -0.3998 0.9581
H154 H 0.2270 -0.4241 0.9568
C169 C 0.2553(7) -0.4227(5) 0.9177(6)
H155 H 0.2755 -0.4153 0.9131
N6 N 0.2858(5) -0.2759(4) 0.7192(5)
N7 N 0.3039(5) -0.2585(4) 0.7799(5)
N8 N 0.2660(5) -0.3000(5) 0.8060(5)
N9 N 0.2504(5) -0.3163(5) 0.7445(5)
N10 N 0.3751(5) -0.1961(5) 0.6918(5)
N11 N 0.3313(5) -0.2702(4) 0.9120(5)
N12 N 0.2120(5) -0.3946(4) 0.8378(5)
N13 N 0.2569(6) -0.3280(5) 0.6097(6)
N14 N 0.4752(5) -0.2941(5) 0.7509(5)
N15 N 0.4884(5) -0.3451(4) 0.7790(5)
N16 N 0.4672(4) -0.3239(4) 0.8366(4)
N17 N 0.4600(5) -0.2743(4) 0.8095(5)
N18 N 0.5078(7) -0.3521(6) 0.6465(7)
N19 N 0.4728(6) -0.4338(5) 0.8679(5)
N20 N 0.3945(5) -0.2772(4) 0.9242(5)
N21 N 0.4352(4) -0.1978(4) 0.7066(4)
N22 N 0.3669(5) -0.4277(4) 0.6677(5)
N23 N 0.3122(5) -0.4363(4) 0.7020(5)
N24 N 0.3454(5) -0.4549(4) 0.7536(5)
N25 N 0.3988(6) -0.4473(5) 0.7201(6)
N26 N 0.2827(6) -0.3748(5) 0.5902(6)
N27 N 0.2372(5) -0.4418(4) 0.8147(5)
N28 N 0.4342(6) -0.4744(5) 0.8448(6)
N29 N 0.4764(6) -0.3920(6) 0.6189(7)
N30 N 0.3908(5) -0.1999(5) 0.6240(5)
H156 H 0.3752 -0.2117 0.6251
H157 H 0.3832 -0.1839 0.6185
N31 N 0.4497(6) -0.1986(5) 0.6393(6)
H158 H 0.4638 -0.1871 0.6465
H159 H 0.4576 -0.2152 0.6396
N32 N 0.4934(6) -0.3205(5) 0.5927(6)
H160 H 0.4919 -0.3083 0.6079
H161 H 0.5120 -0.3193 0.5838
N33 N 0.4557(6) -0.3622(5) 0.5709(6)
H162 H 0.4590 -0.3777 0.5607
H163 H 0.4360 -0.3614 0.5767
N34 N 0.3194(6) -0.3458(6) 0.5464(6)
H164 H 0.3326 -0.3583 0.5531
H165 H 0.3105 -0.3517 0.5289
N35 N 0.2961(6) -0.2980(5) 0.5665(6)
H166 H 0.2784 -0.2889 0.5655
H167 H 0.3083 -0.2901 0.5806
N36 N 0.3174(5) -0.3144(5) 0.9493(6)
H168 H 0.3028 -0.3028 0.9552
H169 H 0.3103 -0.3241 0.9332
N37 N 0.3765(5) -0.3219(5) 0.9621(5)
H170 H 0.3930 -0.3278 0.9517
H171 H 0.3829 -0.3146 0.9800
N38 N 0.4369(5) -0.4388(4) 0.9280(5)
H172 H 0.4561 -0.4385 0.9352
H173 H 0.4301 -0.4218 0.9270
N39 N 0.4016(6) -0.4758(5) 0.9017(6)
H174 H 0.3868 -0.4774 0.8873
H175 H 0.4076 -0.4924 0.9073
N40 N 0.2577(5) -0.4533(5) 0.8751(5)
H176 H 0.2514 -0.4695 0.8686
H177 H 0.2774 -0.4513 0.8697
N41 N 0.2316(6) -0.4096(5) 0.8974(5)
H178 H 0.2352 -0.3919 0.8962
H179 H 0.2129 -0.4120 0.9056
O6 O 0.5235(4) -0.2975(4) 0.8049(4)
O7 O 0.3542(5) -0.4847(4) 0.6888(5)
Pd7 Pd 0.82581(5) -0.07376(4) 0.83460(5)
Pd8 Pd 0.62939(7) -0.02536(5) 0.88738(6)
Pd9 Pd 0.66673(6) -0.19644(6) 0.93215(6)
Pd10 Pd 0.72315(6) -0.14860(6) 0.57000(6)
Pd11 Pd 0.53403(6) -0.08764(6) 0.61237(6)
Pd12 Pd 0.59018(5) -0.26065(5) 0.65041(5)
Zn4 Zn 0.72992(7) -0.20317(6) 0.75063(8)
Zn5 Zn 0.69227(9) -0.03143(7) 0.70212(8)
Zn6 Zn 0.54502(8) -0.15185(7) 0.79270(7)
C170 C 0.5949(8) -0.1393(7) 0.7009(8)
H180 H 0.5860 -0.1270 0.7153
H181 H 0.5796 -0.1514 0.6936
H182 H 0.6034 -0.1296 0.6839
C171 C 0.6195(8) -0.1547(7) 0.7166(9)
C172 C 0.7106(5) -0.1279(5) 0.7260(5)
H183 H 0.7269 -0.1391 0.7346
C173 C 0.7234(8) -0.1102(6) 0.7004(7)
H184 H 0.7386 -0.0984 0.7088
H185 H 0.7073 -0.0998 0.6915
H186 H 0.7325 -0.1212 0.6847
C174 C 0.6953(8) -0.1119(6) 0.7518(7)
C175 C 0.6531(6) -0.0867(6) 0.7710(7)
H187 H 0.6636 -0.0697 0.7747
C176 C 0.6184(7) -0.0815(6) 0.7587(7)
H188 H 0.6074 -0.0713 0.7738
H189 H 0.6084 -0.0984 0.7557
H190 H 0.6190 -0.0719 0.7396
C177 C 0.6523(9) -0.1032(8) 0.7996(9)
C178 C 0.6458(8) -0.1486(7) 0.8223(8)
H191 H 0.6275 -0.1438 0.8339
C179 C 0.6430(8) -0.1775(6) 0.8087(8)
H192 H 0.6247 -0.1787 0.7967
H193 H 0.6423 -0.1902 0.8252
H194 H 0.6603 -0.1811 0.7959
C180 C 0.6741(8) -0.1450(7) 0.8418(8)
C181 C 0.6596(6) -0.1875(6) 0.7121(7)
H195 H 0.6699 -0.1976 0.6961
H196 H 0.6521 -0.2002 0.7272
C182 C 0.6823(6) -0.1698(6) 0.7274(8)
N42 N 0.7011(7) -0.1390(5) 0.8308(7)
H197 H 0.7170 -0.1414 0.8421
H198 H 0.7028 -0.1327 0.8124
N43 N 0.6880(6) -0.1446(5) 0.7118(6)
H199 H 0.6785 -0.1400 0.6952
N44 N 0.6681(6) -0.1017(5) 0.7468(6)
H200 H 0.6592 -0.1039 0.7293
N45 N 0.6505(7) -0.1308(7) 0.7971(8)
H201 H 0.6524 -0.1377 0.7790
N46 N 0.6342(6) -0.1741(5) 0.6987(6)
H202 H 0.6281 -0.1778 0.6803
O8 O 0.6942(4) -0.1740(3) 0.7506(4)
O9 O 0.6227(5) -0.1519(5) 0.7410(6)
O10 O 0.7119(7) -0.1054(6) 0.7710(7)
O11 O 0.6486(5) -0.0923(5) 0.8241(6)
O12 O 0.6733(6) -0.1541(5) 0.8685(6)
C183 C 0.7344(6) -0.2044(5) 0.8200(6)
C184 C 0.7481(7) -0.1929(6) 0.8435(7)
H203 H 0.7441 -0.1963 0.8642
C185 C 0.7690(8) -0.1756(7) 0.8326(8)
H204 H 0.7820 -0.1648 0.8441
C186 C 0.7666(8) -0.1774(7) 0.7979(8)
C187 C 0.7841(7) -0.1639(6) 0.7784(7)
C188 C 0.7808(6) -0.1620(5) 0.7484(6)
C189 C 0.7956(7) -0.1459(6) 0.7296(7)
H205 H 0.8088 -0.1322 0.7356
C190 C 0.7891(6) -0.1520(6) 0.7026(7)
H206 H 0.7969 -0.1440 0.6850
C191 C 0.7677(8) -0.1734(7) 0.7033(9)
C192 C 0.7547(6) -0.1890(5) 0.6783(6)
C193 C 0.7360(5) -0.2073(5) 0.6817(5)
C194 C 0.7244(6) -0.2254(5) 0.6574(6)
H207 H 0.7284 -0.2235 0.6365
C195 C 0.7092(6) -0.2427(5) 0.6683(6)
H208 H 0.7002 -0.2563 0.6568
C196 C 0.7065(6) -0.2402(5) 0.7007(6)
C197 C 0.6874(7) -0.2527(6) 0.7201(7)
C198 C 0.6855(6) -0.2503(5) 0.7505(6)
C199 C 0.6648(7) -0.2627(6) 0.7714(7)
H209 H 0.6492 -0.2744 0.7658
C200 C 0.6716(7) -0.2548(6) 0.8015(7)
H210 H 0.6618 -0.2599 0.8196
C201 C 0.6988(6) -0.2358(5) 0.7977(6)
C202 C 0.7112(7) -0.2232(6) 0.8216(7)
C203 C 0.8068(6) -0.1225(5) 0.8044(6)
H211 H 0.7874 -0.1150 0.8051
C204 C 0.8106(8) -0.1486(7) 0.7924(7)
C205 C 0.8368(8) -0.1594(7) 0.7926(8)
H212 H 0.8395 -0.1759 0.7829
C206 C 0.8618(11) -0.1470(10) 0.8071(10)
H213 H 0.8793 -0.1565 0.8125
C207 C 0.8587(10) -0.1192(8) 0.8131(9)
H214 H 0.8758 -0.1083 0.8159
C208 C 0.7453(7) -0.1720(5) 0.6282(6)
H215 H 0.7252 -0.1689 0.6342
C209 C 0.7640(6) -0.1821(5) 0.6479(6)
C210 C 0.7966(8) -0.1833(7) 0.6386(7)
H216 H 0.8116 -0.1882 0.6527
C211 C 0.8044(9) -0.1770(7) 0.6083(7)
H217 H 0.8239 -0.1798 0.6006
C212 C 0.7835(9) -0.1673(7) 0.5923(9)
H218 H 0.7897 -0.1603 0.5735
C213 C 0.6458(6) -0.2629(5) 0.6867(6)
H219 H 0.6454 -0.2449 0.6812
C214 C 0.6640(6) -0.2700(5) 0.7064(6)
C215 C 0.6662(7) -0.2990(6) 0.7134(7)
H220 H 0.6800 -0.3060 0.7275
C216 C 0.6459(6) -0.3145(6) 0.6969(6)
H221 H 0.6469 -0.3330 0.6984
C217 C 0.6270(7) -0.3043(6) 0.6805(7)
H222 H 0.6116 -0.3152 0.6729
C218 C 0.6902(6) -0.2151(6) 0.8753(6)
H223 H 0.6866 -0.1974 0.8698
C219 C 0.7023(6) -0.2328(5) 0.8525(6)
C220 C 0.7061(8) -0.2581(7) 0.8608(8)
H224 H 0.7159 -0.2698 0.8474
C221 C 0.6949(8) -0.2683(8) 0.8917(9)
H225 H 0.6980 -0.2862 0.8971
C222 C 0.6811(9) -0.2526(8) 0.9106(9)
H226 H 0.6704 -0.2585 0.9279
C223 C 0.7331(6) -0.0327(5) 0.7565(6)
C224 C 0.7364(8) -0.0251(6) 0.7876(7)
H227 H 0.7541 -0.0236 0.7993
C225 C 0.7074(7) -0.0205(6) 0.7960(7)
H228 H 0.7002 -0.0168 0.8157
C226 C 0.6891(6) -0.0226(5) 0.7675(6)
C227 C 0.6588(6) -0.0149(5) 0.7678(7)
C228 C 0.6398(6) -0.0184(5) 0.7442(7)
C229 C 0.6078(8) -0.0176(6) 0.7434(8)
H229 H 0.5954 -0.0165 0.7608
C230 C 0.5979(7) -0.0189(5) 0.7153(6)
H230 H 0.5781 -0.0157 0.7085
C231 C 0.6226(7) -0.0259(6) 0.6974(7)
C232 C 0.6247(8) -0.0323(7) 0.6671(8)
C233 C 0.6469(7) -0.0402(6) 0.6525(7)
C234 C 0.6473(7) -0.0473(6) 0.6193(7)
H231 H 0.6306 -0.0458 0.6061
C235 C 0.6731(8) -0.0557(6) 0.6113(8)
H232 H 0.6788 -0.0621 0.5920
C236 C 0.6927(6) -0.0533(5) 0.6393(6)
C237 C 0.7221(7) -0.0588(5) 0.6377(6)
C238 C 0.7412(7) -0.0584(6) 0.6646(7)
C239 C 0.7714(8) -0.0659(7) 0.6651(8)
H233 H 0.7830 -0.0731 0.6492
C240 C 0.7806(8) -0.0599(6) 0.6965(7)
H234 H 0.7999 -0.0636 0.7043
C241 C 0.7596(7) -0.0489(6) 0.7122(7)
C242 C 0.7582(6) -0.0420(6) 0.7405(7)
C243 C 0.6445(6) -0.0161(6) 0.8237(6)
H235 H 0.6520 -0.0335 0.8252
C244 C 0.6456(7) -0.0039(7) 0.7970(8)
C245 C 0.6352(6) 0.0225(6) 0.7936(7)
H236 H 0.6380 0.0319 0.7753
C246 C 0.6202(8) 0.0345(8) 0.8195(8)
H237 H 0.6098 0.0506 0.8177
C247 C 0.6217(7) 0.0206(6) 0.8485(8)
H238 H 0.6150 0.0286 0.8666
C248 C 0.5781(7) -0.0555(6) 0.6419(6)
H239 H 0.5856 -0.0723 0.6473
C249 C 0.5943(10) -0.0320(8) 0.6518(9)
C250 C 0.5812(10) -0.0056(9) 0.6463(10)
H240 H 0.5917 0.0099 0.6515
C251 C 0.5504(8) -0.0047(7) 0.6320(8)
H241 H 0.5400 0.0113 0.6291
C252 C 0.5389(9) -0.0278(8) 0.6238(8)
H242 H 0.5193 -0.0277 0.6156
C253 C 0.7258(7) -0.0976(6) 0.6069(7)
H243 H 0.7130 -0.1059 0.6211
C254 C 0.7336(8) -0.0730(7) 0.6116(8)
C255 C 0.7594(9) -0.0612(8) 0.5964(9)
H244 H 0.7682 -0.0453 0.6030
C256 C 0.7700(9) -0.0751(8) 0.5713(9)
H245 H 0.7861 -0.0682 0.5598
C257 C 0.7563(8) -0.1007(8) 0.5625(9)
H246 H 0.7618 -0.1085 0.5438
C258 C 0.7942(6) -0.0558(5) 0.7797(6)
H247 H 0.7784 -0.0657 0.7884
C259 C 0.7890(6) -0.0423(5) 0.7535(6)
C260 C 0.8126(7) -0.0296(6) 0.7416(7)
H248 H 0.8105 -0.0219 0.7222
C261 C 0.8373(8) -0.0275(6) 0.7547(7)
H249 H 0.8512 -0.0158 0.7458
C262 C 0.8471(7) -0.0409(6) 0.7825(6)
H250 H 0.8664 -0.0402 0.7915
C263 C 0.5623(9) -0.1146(8) 0.8467(9)
C264 C 0.5698(7) -0.1192(7) 0.8781(7)
H251 H 0.5690 -0.1057 0.8928
C265 C 0.5776(6) -0.1424(6) 0.8847(7)
H252 H 0.5846 -0.1486 0.9037
C266 C 0.5735(6) -0.1573(6) 0.8581(7)
C267 C 0.5780(6) -0.1841(6) 0.8528(7)
C268 C 0.5747(6) -0.1981(5) 0.8281(6)
C269 C 0.5854(6) -0.2237(6) 0.8216(7)
H253 H 0.5952 -0.2343 0.8363
C270 C 0.5810(6) -0.2316(6) 0.7949(6)
H254 H 0.5871 -0.2476 0.7859
C271 C 0.5635(6) -0.2094(5) 0.7807(5)
C272 C 0.5530(7) -0.2073(5) 0.7505(6)
C273 C 0.5391(5) -0.1859(5) 0.7355(6)
C274 C 0.5252(6) -0.1851(6) 0.7083(6)
H255 H 0.5217 -0.2002 0.6963
C275 C 0.5176(6) -0.1630(6) 0.7004(7)
H256 H 0.5089 -0.1577 0.6818
C276 C 0.5259(6) -0.1457(6) 0.7285(7)
C277 C 0.5213(7) -0.1196(6) 0.7301(6)
C278 C 0.5309(6) -0.1036(5) 0.7544(6)
C279 C 0.5305(7) -0.0737(6) 0.7568(7)
H257 H 0.5239 -0.0617 0.7418
C280 C 0.5407(8) -0.0678(7) 0.7827(8)
H258 H 0.5436 -0.0507 0.7908
C281 C 0.5468(7) -0.0914(6) 0.7968(6)
C282 C 0.5563(8) -0.0901(6) 0.8271(7)
C283 C 0.6158(6) -0.1921(7) 0.8946(7)
H259 H 0.6277 -0.1780 0.8873
C284 C 0.5888(6) -0.1972(5) 0.8790(6)
C285 C 0.5728(7) -0.2181(6) 0.8941(7)
H260 H 0.5534 -0.2219 0.8869
C286 C 0.5823(8) -0.2317(7) 0.9160(8)
H261 H 0.5713 -0.2463 0.9232
C287 C 0.6083(8) -0.2247(7) 0.9287(8)
H262 H 0.6143 -0.2343 0.9461
C288 C 0.5666(6) -0.2350(6) 0.7057(7)
H263 H 0.5724 -0.2193 0.6959
C289 C 0.5546(6) -0.2341(5) 0.7353(6)
C290 C 0.5450(6) -0.2573(5) 0.7456(6)
H264 H 0.5345 -0.2571 0.7642
C291 C 0.5487(5) -0.2807(5) 0.7323(6)
H265 H 0.5423 -0.2967 0.7414
C292 C 0.5621(6) -0.2800(6) 0.7054(7)
H266 H 0.5663 -0.2961 0.6954
C293 C 0.5224(7) -0.1022(6) 0.6776(7)
H267 H 0.5419 -0.1096 0.6773
C294 C 0.5067(6) -0.1050(5) 0.7029(6)
C295 C 0.4821(7) -0.0909(5) 0.7060(7)
H268 H 0.4721 -0.0900 0.7249
C296 C 0.4712(8) -0.0777(7) 0.6816(8)
H269 H 0.4523 -0.0694 0.6832
C297 C 0.4866(7) -0.0758(6) 0.6546(7)
H270 H 0.4787 -0.0653 0.6388
C298 C 0.5869(6) -0.0575(5) 0.8578(6)
H271 H 0.6039 -0.0677 0.8527
C299 C 0.5599(8) -0.0653(6) 0.8452(7)
C300 C 0.5329(9) -0.0519(8) 0.8532(9)
H272 H 0.5143 -0.0572 0.8449
C301 C 0.5342(9) -0.0322(10) 0.8722(10)
H273 H 0.5177 -0.0225 0.8794
C302 C 0.5635(7) -0.0281(8) 0.8801(9)
H274 H 0.5647 -0.0133 0.8931
C303 C 0.8161(7) -0.0735(5) 0.8976(6)
H275 H 0.7939 -0.0740 0.8949
C304 C 0.8235(6) -0.0829(5) 0.9302(6)
H276 H 0.8136 -0.0998 0.9347
H277 H 0.8453 -0.0850 0.9330
C305 C 0.8112(9) -0.0609(7) 0.9504(8)
H278 H 0.7892 -0.0611 0.9485
H279 H 0.8159 -0.0656 0.9716
C306 C 0.8215(7) -0.0324(6) 0.9455(7)
H280 H 0.8433 -0.0308 0.9485
H281 H 0.8112 -0.0204 0.9597
C307 C 0.8125(6) -0.0258(5) 0.9109(5)
H282 H 0.7906 -0.0263 0.9084
H283 H 0.8196 -0.0080 0.9054
C308 C 0.8268(6) -0.0455(5) 0.8915(6)
H284 H 0.8489 -0.0448 0.8947
C309 C 0.6803(6) -0.0303(6) 0.9268(6)
H285 H 0.6859 -0.0478 0.9183
C310 C 0.7063(7) -0.0205(6) 0.9452(7)
H286 H 0.7017 -0.0028 0.9532
H287 H 0.7243 -0.0192 0.9323
C311 C 0.7122(7) -0.0396(10) 0.9717(10)
H288 H 0.7173 -0.0572 0.9639
H289 H 0.7290 -0.0332 0.9842
C312 C 0.6833(9) -0.0408(9) 0.9907(7)
H290 H 0.6865 -0.0512 1.0093
H291 H 0.6768 -0.0230 0.9966
C313 C 0.6597(10) -0.0540(8) 0.9704(9)
H292 H 0.6678 -0.0702 0.9612
H293 H 0.6417 -0.0585 0.9822
C314 C 0.6521(7) -0.0337(8) 0.9458(8)
H294 H 0.6458 -0.0167 0.9550
C315 C 0.6790(8) -0.1472(8) 0.9626(10)
H295 H 0.6803 -0.1359 0.9442
C316 C 0.6727(12) -0.1306(12) 0.9912(11)
H296 H 0.6549 -0.1381 1.0013
H297 H 0.6672 -0.1127 0.9845
C317 C 0.6978(11) -0.1280(14) 1.0155(9)
H298 H 0.6953 -0.1109 1.0258
H299 H 0.6949 -0.1419 1.0308
C318 C 0.7302(9) -0.1297(11) 1.0036(10)
H300 H 0.7422 -0.1395 1.0186
H301 H 0.7384 -0.1118 1.0024
C319 C 0.7342(9) -0.1433(9) 0.9718(10)
H302 H 0.7341 -0.1299 0.9556
H303 H 0.7534 -0.1528 0.9710
C320 C 0.7080(8) -0.1625(7) 0.9675(8)
H304 H 0.7058 -0.1724 0.9868
C321 C 0.6854(7) -0.1814(6) 0.5315(8)
H305 H 0.6979 -0.1785 0.5131
C322 C 0.6658(6) -0.2061(5) 0.5262(6)
H306 H 0.6784 -0.2214 0.5212
H307 H 0.6539 -0.2102 0.5444
C323 C 0.6471(8) -0.1997(7) 0.5018(8)
H308 H 0.6338 -0.2148 0.4976
H309 H 0.6595 -0.1968 0.4836
C324 C 0.6284(8) -0.1760(6) 0.5068(8)
H310 H 0.6155 -0.1782 0.5248
H311 H 0.6156 -0.1724 0.4891
C325 C 0.6505(10) -0.1541(8) 0.5117(9)
H312 H 0.6637 -0.1530 0.4938
H313 H 0.6394 -0.1373 0.5130
C326 C 0.6696(8) -0.1565(6) 0.5390(8)
H314 H 0.6569 -0.1589 0.5573
C327 C 0.5419(8) -0.1079(7) 0.5542(7)
H315 H 0.5221 -0.1027 0.5456
C328 C 0.5634(8) -0.1143(7) 0.5259(8)
H316 H 0.5660 -0.0983 0.5135
H317 H 0.5833 -0.1197 0.5334
C329 C 0.5494(8) -0.1370(6) 0.5059(7)
H318 H 0.5643 -0.1422 0.4906
H319 H 0.5319 -0.1298 0.4951
C330 C 0.5389(10) -0.1631(9) 0.5236(8)
H320 H 0.5251 -0.1734 0.5109
H321 H 0.5564 -0.1741 0.5287
C331 C 0.5230(9) -0.1539(8) 0.5529(8)
H322 H 0.5022 -0.1490 0.5477
H323 H 0.5219 -0.1690 0.5669
C332 C 0.5374(7) -0.1309(6) 0.5697(6)
H324 H 0.5574 -0.1370 0.5770
C333 C 0.5585(7) -0.2465(7) 0.5956(7)
H325 H 0.5522 -0.2650 0.5918
C334 C 0.5414(7) -0.2322(6) 0.5766(6)
H326 H 0.5460 -0.2134 0.5794
H327 H 0.5201 -0.2349 0.5818
C335 C 0.5465(7) -0.2398(6) 0.5418(7)
H328 H 0.5410 -0.2584 0.5384
H329 H 0.5337 -0.2288 0.5287
C336 C 0.5778(7) -0.2357(6) 0.5342(7)
H330 H 0.5833 -0.2172 0.5381
H331 H 0.5811 -0.2394 0.5125
C337 C 0.5978(7) -0.2542(6) 0.5539(6)
H332 H 0.6190 -0.2522 0.5480
H333 H 0.5920 -0.2727 0.5505
C338 C 0.5938(7) -0.2468(7) 0.5895(7)
H334 H 0.6017 -0.2287 0.5929
N47 N 0.7444(5) -0.1934(4) 0.7942(5)
N48 N 0.7635(5) -0.1777(5) 0.7327(6)
N49 N 0.7248(5) -0.2183(4) 0.7075(5)
N50 N 0.7032(5) -0.2340(4) 0.7688(5)
N51 N 0.8296(5) -0.1087(4) 0.8146(5)
N52 N 0.7540(6) -0.1655(5) 0.5981(5)
N53 N 0.6266(5) -0.2794(5) 0.6728(5)
N54 N 0.6843(6) -0.2221(6) 0.9014(7)
N55 N 0.7061(5) -0.0304(4) 0.7462(5)
N56 N 0.6495(6) -0.0239(5) 0.7163(6)
N57 N 0.6767(5) -0.0459(4) 0.6601(5)
N58 N 0.7341(5) -0.0470(5) 0.6907(6)
N59 N 0.6332(5) -0.0046(5) 0.8484(6)
N60 N 0.5543(6) -0.0540(5) 0.6263(5)
N61 N 0.7362(5) -0.1129(4) 0.5803(5)
N62 N 0.8210(5) -0.0555(5) 0.7937(5)
N63 N 0.5631(5) -0.1405(5) 0.8339(6)
N64 N 0.5626(5) -0.1884(5) 0.8014(6)
N65 N 0.5376(5) -0.1615(5) 0.7468(5)
N66 N 0.5418(5) -0.1122(5) 0.7820(6)
N67 N 0.6267(5) -0.2057(5) 0.9194(6)
N68 N 0.5699(5) -0.2579(4) 0.6917(5)
N69 N 0.5127(5) -0.0887(4) 0.6504(5)
N70 N 0.5912(6) -0.0378(5) 0.8757(6)
N71 N 0.8295(5) -0.0908(4) 0.8756(4)
H335 H 0.8199 -0.1067 0.8757
H336 H 0.8493 -0.0935 0.8802
N72 N 0.8208(5) -0.0398(4) 0.8607(5)
H337 H 0.8338 -0.0271 0.8540
H338 H 0.8017 -0.0335 0.8588
N73 N 0.6697(5) -0.0141(5) 0.9023(5)
H339 H 0.6832 -0.0149 0.8866
H340 H 0.6687 0.0030 0.9087
N74 N 0.6275(6) -0.0448(6) 0.9262(6)
H341 H 0.6092 -0.0425 0.9353
H342 H 0.6304 -0.0625 0.9230
N75 N 0.6532(7) -0.1687(6) 0.9593(7)
H343 H 0.6362 -0.1611 0.9517
H344 H 0.6487 -0.1757 0.9780
N76 N 0.7107(7) -0.1818(6) 0.9436(7)
H345 H 0.7227 -0.1954 0.9499
H346 H 0.7194 -0.1743 0.9268
N77 N 0.7054(8) -0.1853(6) 0.5576(7)
H347 H 0.7206 -0.1966 0.5525
H348 H 0.6950 -0.1924 0.5735
N78 N 0.6899(5) -0.1352(5) 0.5433(5)
H349 H 0.6804 -0.1213 0.5524
H350 H 0.6974 -0.1297 0.5251
N79 N 0.5541(7) -0.0831(6) 0.5727(7)
H351 H 0.5487 -0.0676 0.5636
H352 H 0.5746 -0.0837 0.5746
N80 N 0.5186(6) -0.1207(5) 0.5993(6)
H353 H 0.5202 -0.1328 0.6147
H354 H 0.4987 -0.1190 0.5944
N81 N 0.5574(5) -0.2440(5) 0.6286(5)
H355 H 0.5397 -0.2510 0.6353
H356 H 0.5573 -0.2264 0.6334
N82 N 0.6089(5) -0.2640(4) 0.6082(5)
H357 H 0.6289 -0.2598 0.6088
H358 H 0.6070 -0.2809 0.6012
O13 O 0.7021(5) 0.0071(5) 0.6876(5)
O14 O 0.4998(4) -0.1550(4) 0.8091(4)
N83 N 0.4843(7) -0.2612(6) 0.6334(6)
O15 O 0.4558(8) -0.2635(6) 0.6281(7)
O16 O 0.4926(4) -0.2407(4) 0.6484(5)
O17 O 0.5018(6) -0.2777(5) 0.6309(5)
N84 N 0.6594(8) -0.2107(8) 0.6190(8)
O18 O 0.6648(8) -0.2284(8) 0.6077(8)
O19 O 0.6411(6) -0.2101(5) 0.6431(6)
O20 O 0.6728(9) -0.1898(8) 0.6142(9)
N85 N 0.3350(6) -0.4514(6) 0.8658(6)
O21 O 0.3289(6) -0.4723(5) 0.8711(5)
O22 O 0.3607(6) -0.4436(5) 0.8669(6)
O23 O 0.3157(6) -0.4347(5) 0.8578(6)
N86 N 0.3940(8) -0.5344(8) 0.8565(8)
O24 O 0.3803(5) -0.5163(4) 0.8508(5)
O25 O 0.3991(6) -0.5547(5) 0.8378(6)
O26 O 0.4128(6) -0.5331(5) 0.8795(6)
N87 N 0.7780(11) 0.0074(13) 0.6630(17)
O27 O 0.7522(10) 0.0170(9) 0.6481(9)
O28 O 0.7755(11) 0.0121(12) 0.6886(9)
O29 O 0.8015(12) 0.0021(11) 0.6502(10)
N88 N 0.7447(8) -0.0187(7) 0.8618(7)
O30 O 0.7447(8) -0.0470(7) 0.8694(8)
O31 O 0.7256(7) -0.0051(6) 0.8668(6)
O32 O 0.7663(5) -0.0102(4) 0.8516(5)
N89 N 0.5460(9) -0.1729(7) 0.6322(8)
O33 O 0.5697(6) -0.1926(5) 0.6436(6)
O34 O 0.5593(6) -0.1468(6) 0.6369(6)
O35 O 0.5236(7) -0.1840(6) 0.6301(7)
N90 N 0.6281(15) -0.1112(13) 0.6009(9)
O36 O 0.6141(10) -0.1095(9) 0.6254(11)
O37 O 0.6204(8) -0.1047(7) 0.5752(9)
O38 O 0.6579(8) -0.1167(6) 0.5967(7)
N91 N 0.2862(10) -0.3572(8) 0.8892(10)
O39 O 0.2634(7) -0.3582(6) 0.9062(7)
O40 O 0.2850(6) -0.3747(5) 0.8666(6)
O41 O 0.3066(7) -0.3400(6) 0.8946(6)
N92 N 0.7914(11) -0.1417(10) 0.8965(18)
O42 O 0.7701(15) -0.1314(12) 0.8840(15)
O43 O 0.7873(13) -0.1623(12) 0.9105(13)
O44 O 0.8139(13) -0.1402(11) 0.8808(13)
N93 N 0.4444(10) -0.1300(8) 0.6459(9)
O45 O 0.4345(9) -0.1163(8) 0.6263(10)
O46 O 0.4245(9) -0.1325(7) 0.6646(9)
O47 O 0.4651(6) -0.1403(5) 0.6445(6)
N94 N 0.2410(10) -0.3582(11) 0.5118(12)
O48 O 0.2628(12) -0.3515(12) 0.4977(14)
O49 O 0.2306(9) -0.3444(7) 0.5317(9)
O50 O 0.2291(11) -0.3796(8) 0.5071(11)
N95 N 0.5910(9) -0.3160(10) 0.7701(10)
O51 O 0.6015(6) -0.2999(6) 0.7852(7)
O52 O 0.6027(10) -0.3268(8) 0.7483(9)
O53 O 0.5672(8) -0.3276(7) 0.7750(9)
N96 N 0.6727(12) 0.0516(9) 0.9155(12)
O54 O 0.6738(8) 0.0468(7) 0.8864(8)
O55 O 0.6632(13) 0.0361(8) 0.9316(9)
O56 O 0.6724(11) 0.0754(8) 0.9218(11)
N97 N 0.4017(13) -0.3760(8) 0.9059(11)
O57 O 0.4171(9) -0.3832(8) 0.9270(9)
O58 O 0.3976(7) -0.3520(7) 0.9073(7)
O59 O 0.3973(12) -0.3867(10) 0.8814(11)
N98 N 0.5000(17) -0.2175(12) 0.8459(9)
O60 O 0.5081(8) -0.2295(7) 0.8225(8)
O61 O 0.5068(12) -0.2298(8) 0.8689(12)
O62 O 0.4892(12) -0.1952(9) 0.8517(11)
O63 O 0.4057(7) -0.2658(6) 0.6796(6)
O64 O 0.4081(6) -0.3541(5) 0.8217(6)
O65 O 0.7441(5) -0.0879(5) 0.8199(5)
O66 O 0.8950(6) -0.0949(5) 0.8830(6)
O67 O 0.3559(7) -0.3338(6) 0.8612(7)
O68 O 0.5720(6) -0.3791(5) 0.8012(6)
O69 O 0.3376(7) -0.3984(6) 0.9119(7)
O70 O 0.3911(10) -0.1695(8) 0.7923(10)
O71 O 0.2720(10) -0.2393(9) 0.5930(10)
O72 O 0.3695(10) -0.1454(9) 0.6109(10)
O73 O 0.6444(7) -0.0974(6) 0.6812(7)
O74 O 0.3861(7) -0.2901(6) 1.0191(7)
O75 O 0.2651(6) -0.2138(6) 0.5382(6)
O76 O 0.5029(8) -0.4310(6) 0.9471(7)
O77 O 0.3440(8) -0.2503(7) 1.0054(8)
O78 O 0.6678(8) 0.0399(6) 0.7169(7)
O79 O 0.5987(9) -0.2845(8) 0.8449(9)
O80 O 0.5217(7) -0.4495(6) 0.7562(7)
O81 O 0.6089(8) -0.1708(7) 0.5917(8)
O82 O 0.5758(8) -0.4294(7) 0.7897(8)
O83 O 0.6221(8) -0.2066(7) 1.0124(8)
O84 O 0.9154(9) -0.1429(8) 0.8715(9)
O85 O 0.3721(10) -0.3796(8) 0.5593(10)
O86 O 0.6019(11) 0.0491(10) 0.7065(11)
O87 O 0.5373(10) -0.4206(9) 0.6987(10)
O88 O 0.3153(10) -0.0935(9) 0.7265(10)
O89 O 0.6765(7) -0.1454(6) 0.6460(7)
O90 O 0.7252(13) -0.1434(11) 0.9030(12)
O91 O 0.4057(8) -0.1276(7) 0.5525(8)
O92 O 0.4539(11) -0.1135(9) 0.5766(11)
O93 O 0.4137(9) -0.3461(8) 0.6210(9)
O94 O 0.3348(6) -0.2323(6) 0.6139(7)
O95 O 0.3384(9) -0.2801(8) 0.6150(9)
O96 O 0.5576(8) -0.3202(7) 0.5726(9)
O97 O 0.5638(10) -0.4798(8) 0.9421(10)
O98 O 0.3955(10) -0.3034(9) 0.5985(10)
O99 O 0.4710(12) -0.0482(11) 0.5838(13)
O100 O 0.5397(12) -0.3539(11) 0.5479(12)
O101 O 0.6555(9) -0.0908(8) 0.8865(10)
O102 O 0.7484(12) -0.2264(10) 0.5824(11)
O103 O 0.8958(15) -0.0182(13) 0.7041(15)
O104 O 0.8647(15) -0.1366(13) 0.6479(15)
O105 O 0.5420(13) -0.5000 1.0000
O106 O 0.5000 -0.5000 0.7403(11)
O107 O 0.4319(14) 0.0340(13) 0.9587(14)
O108 O 0.5000 -0.5000 0.6845(17)
O109 O 0.327(2) -0.1144(17) 0.664(2)
O110 O 0.8516(12) -0.0952(11) 0.7144(12)
O111 O 0.7076(13) -0.0937(12) 0.9090(13)
O112 O 0.4291(12) -0.3057(11) 0.6424(12)
O113 O 0.5123(15) -0.0146(12) 0.6992(15)
O114 O 0.5000 -0.5000 0.9154(9)
loop_
_geom_bond_atom_site_label_1
_geom_bond_atom_site_label_2
_geom_bond_site_symmetry_1
_geom_bond_site_symmetry_2
Pd1 N10 1_555 1_555
Pd2 N18 1_555 1_555
Pd3 N13 1_555 1_555
Pd4 N11 1_555 1_555
Pd5 N19 1_555 1_555
Pd6 N12 1_555 1_555
Zn1 O1 1_555 1_555
Zn2 N14 1_555 1_555
Zn3 N22 1_555 1_555
C1 H1 1_555 1_555
H2 C1 1_555 1_555
H3 C1 1_555 1_555
C2 C1 1_555 1_555
C3 H4 1_555 1_555
C4 C3 1_555 1_555
H5 C4 1_555 1_555
H6 C4 1_555 1_555
H7 C4 1_555 1_555
C5 C3 1_555 1_555
C6 H8 1_555 1_555
C7 C6 1_555 1_555
H9 C7 1_555 1_555
H10 C7 1_555 1_555
H11 C7 1_555 1_555
C8 C6 1_555 1_555
C9 H12 1_555 1_555
C10 C9 1_555 1_555
H13 C10 1_555 1_555
H14 C10 1_555 1_555
H15 C10 1_555 1_555
C11 C9 1_555 1_555
C12 H16 1_555 1_555
H17 C12 1_555 1_555
C13 C12 1_555 1_555
N1 C11 1_555 1_555
H18 N1 1_555 1_555
H19 N1 1_555 1_555
N2 C3 1_555 1_555
H20 N2 1_555 1_555
N3 C5 1_555 1_555
H21 N3 1_555 1_555
N4 C8 1_555 1_555
H22 N4 1_555 1_555
N5 C2 1_555 1_555
H23 N5 1_555 1_555
O1 C13 1_555 1_555
O2 C2 1_555 1_555
O3 C5 1_555 1_555
O4 C8 1_555 1_555
O5 C11 1_555 1_555
C14 C15 1_555 1_555
C15 H24 1_555 1_555
C16 C15 1_555 1_555
H25 C16 1_555 1_555
C17 C16 1_555 1_555
C18 C17 1_555 1_555
C19 C18 1_555 1_555
C20 C19 1_555 1_555
H26 C20 1_555 1_555
C21 C20 1_555 1_555
H27 C21 1_555 1_555
C22 C21 1_555 1_555
C23 C22 1_555 1_555
C24 C23 1_555 1_555
C25 C24 1_555 1_555
H28 C25 1_555 1_555
C26 C25 1_555 1_555
H29 C26 1_555 1_555
C27 C26 1_555 1_555
C28 C27 1_555 1_555
C29 C28 1_555 1_555
C30 C29 1_555 1_555
H30 C30 1_555 1_555
C31 C30 1_555 1_555
H31 C31 1_555 1_555
C32 C31 1_555 1_555
C33 C14 1_555 1_555
C34 H32 1_555 1_555
C35 C18 1_555 1_555
C36 C35 1_555 1_555
H33 C36 1_555 1_555
C37 C36 1_555 1_555
H34 C37 1_555 1_555
C38 C37 1_555 1_555
H35 C38 1_555 1_555
C39 H36 1_555 1_555
C40 C23 1_555 1_555
C41 C40 1_555 1_555
H37 C41 1_555 1_555
C42 C41 1_555 1_555
H38 C42 1_555 1_555
C43 C42 1_555 1_555
H39 C43 1_555 1_555
C44 H40 1_555 1_555
C45 C28 1_555 1_555
C46 C45 1_555 1_555
H41 C46 1_555 1_555
C47 C46 1_555 1_555
H42 C47 1_555 1_555
C48 C47 1_555 1_555
H43 C48 1_555 1_555
C49 H44 1_555 1_555
C50 C33 1_555 1_555
C51 C50 1_555 1_555
H45 C51 1_555 1_555
C52 C51 1_555 1_555
H46 C52 1_555 1_555
C53 C52 1_555 1_555
H47 C53 1_555 1_555
C54 C55 1_555 1_555
C55 H48 1_555 1_555
C56 C55 1_555 1_555
H49 C56 1_555 1_555
C57 C56 1_555 1_555
C58 C57 1_555 1_555
C59 C58 1_555 1_555
C60 C59 1_555 1_555
H50 C60 1_555 1_555
C61 C60 1_555 1_555
H51 C61 1_555 1_555
C62 C61 1_555 1_555
C63 C62 1_555 1_555
C64 C63 1_555 1_555
C65 C64 1_555 1_555
H52 C65 1_555 1_555
C66 C65 1_555 1_555
H53 C66 1_555 1_555
C67 C66 1_555 1_555
C68 C67 1_555 1_555
C69 C68 1_555 1_555
C70 C69 1_555 1_555
H54 C70 1_555 1_555
C71 C70 1_555 1_555
H55 C71 1_555 1_555
C72 C71 1_555 1_555
C73 C54 1_555 1_555
C74 H56 1_555 1_555
C75 C58 1_555 1_555
C76 C75 1_555 1_555
H57 C76 1_555 1_555
C77 C76 1_555 1_555
H58 C77 1_555 1_555
C78 C77 1_555 1_555
H59 C78 1_555 1_555
C79 H60 1_555 1_555
C80 C63 1_555 1_555
C81 C80 1_555 1_555
H61 C81 1_555 1_555
C82 C81 1_555 1_555
H62 C82 1_555 1_555
C83 C82 1_555 1_555
H63 C83 1_555 1_555
C84 H64 1_555 1_555
C85 C68 1_555 1_555
C86 C85 1_555 1_555
H65 C86 1_555 1_555
C87 C86 1_555 1_555
H66 C87 1_555 1_555
C88 C87 1_555 1_555
H67 C88 1_555 1_555
C89 H68 1_555 1_555
C90 C73 1_555 1_555
C91 C90 1_555 1_555
H69 C91 1_555 1_555
C92 C91 1_555 1_555
H70 C92 1_555 1_555
C93 C92 1_555 1_555
H71 C93 1_555 1_555
C94 C95 1_555 1_555
C95 H72 1_555 1_555
C96 C95 1_555 1_555
H73 C96 1_555 1_555
C97 C96 1_555 1_555
C98 C97 1_555 1_555
C99 C98 1_555 1_555
C100 C99 1_555 1_555
H74 C100 1_555 1_555
C101 C100 1_555 1_555
H75 C101 1_555 1_555
C102 C101 1_555 1_555
C103 C102 1_555 1_555
C104 C103 1_555 1_555
C105 C104 1_555 1_555
H76 C105 1_555 1_555
C106 C105 1_555 1_555
H77 C106 1_555 1_555
C107 C106 1_555 1_555
C108 C107 1_555 1_555
C109 C108 1_555 1_555
C110 C109 1_555 1_555
H78 C110 1_555 1_555
C111 C110 1_555 1_555
H79 C111 1_555 1_555
C112 C111 1_555 1_555
C113 C94 1_555 1_555
C114 H80 1_555 1_555
C115 C98 1_555 1_555
C116 C115 1_555 1_555
H81 C116 1_555 1_555
C117 C116 1_555 1_555
H82 C117 1_555 1_555
C118 C117 1_555 1_555
H83 C118 1_555 1_555
C119 H84 1_555 1_555
C120 C103 1_555 1_555
C121 C120 1_555 1_555
H85 C121 1_555 1_555
C122 C121 1_555 1_555
H86 C122 1_555 1_555
C123 C122 1_555 1_555
H87 C123 1_555 1_555
C124 H88 1_555 1_555
C125 C108 1_555 1_555
C126 C125 1_555 1_555
H89 C126 1_555 1_555
C127 C126 1_555 1_555
H90 C127 1_555 1_555
C128 C127 1_555 1_555
H91 C128 1_555 1_555
C129 H92 1_555 1_555
C130 C113 1_555 1_555
C131 C130 1_555 1_555
H93 C131 1_555 1_555
C132 C131 1_555 1_555
H94 C132 1_555 1_555
C133 C132 1_555 1_555
H95 C133 1_555 1_555
C134 H96 1_555 1_555
C135 C134 1_555 1_555
H97 C135 1_555 1_555
H98 C135 1_555 1_555
C136 C135 1_555 1_555
H99 C136 1_555 1_555
H100 C136 1_555 1_555
C137 C136 1_555 1_555
H101 C137 1_555 1_555
H102 C137 1_555 1_555
C138 C137 1_555 1_555
H103 C138 1_555 1_555
H104 C138 1_555 1_555
C139 C134 1_555 1_555
H105 C139 1_555 1_555
C140 H106 1_555 1_555
C141 C140 1_555 1_555
H107 C141 1_555 1_555
H108 C141 1_555 1_555
C142 C141 1_555 1_555
H109 C142 1_555 1_555
H110 C142 1_555 1_555
C143 C142 1_555 1_555
H111 C143 1_555 1_555
H112 C143 1_555 1_555
C144 C143 1_555 1_555
H113 C144 1_555 1_555
H114 C144 1_555 1_555
C145 C140 1_555 1_555
H115 C145 1_555 1_555
C146 H116 1_555 1_555
C147 C146 1_555 1_555
H117 C147 1_555 1_555
H118 C147 1_555 1_555
C148 C147 1_555 1_555
H119 C148 1_555 1_555
H120 C148 1_555 1_555
C149 C148 1_555 1_555
H121 C149 1_555 1_555
H122 C149 1_555 1_555
C150 C149 1_555 1_555
H123 C150 1_555 1_555
H124 C150 1_555 1_555
C151 C146 1_555 1_555
H125 C151 1_555 1_555
C152 H126 1_555 1_555
C153 C152 1_555 1_555
H127 C153 1_555 1_555
H128 C153 1_555 1_555
C154 C153 1_555 1_555
H129 C154 1_555 1_555
H130 C154 1_555 1_555
C155 C154 1_555 1_555
H131 C155 1_555 1_555
H132 C155 1_555 1_555
C156 C155 1_555 1_555
H133 C156 1_555 1_555
H134 C156 1_555 1_555
C157 C152 1_555 1_555
H135 C157 1_555 1_555
C158 H136 1_555 1_555
C159 C158 1_555 1_555
H137 C159 1_555 1_555
H138 C159 1_555 1_555
C160 C159 1_555 1_555
H139 C160 1_555 1_555
H140 C160 1_555 1_555
C161 C160 1_555 1_555
H141 C161 1_555 1_555
H142 C161 1_555 1_555
C162 C161 1_555 1_555
H143 C162 1_555 1_555
H144 C162 1_555 1_555
C163 C158 1_555 1_555
H145 C163 1_555 1_555
C164 H146 1_555 1_555
C165 C164 1_555 1_555
H147 C165 1_555 1_555
H148 C165 1_555 1_555
C166 C165 1_555 1_555
H149 C166 1_555 1_555
H150 C166 1_555 1_555
C167 C166 1_555 1_555
H151 C167 1_555 1_555
H152 C167 1_555 1_555
C168 C167 1_555 1_555
H153 C168 1_555 1_555
H154 C168 1_555 1_555
C169 C164 1_555 1_555
H155 C169 1_555 1_555
N6 Zn1 1_555 1_555
N7 Zn1 1_555 1_555
N8 Zn1 1_555 1_555
N9 Zn1 1_555 1_555
N10 C34 1_555 1_555
N11 C39 1_555 1_555
N12 C44 1_555 1_555
N13 C49 1_555 1_555
N14 C54 1_555 1_555
N15 Zn2 1_555 1_555
N16 Zn2 1_555 1_555
N17 Zn2 1_555 1_555
N18 C74 1_555 1_555
N19 C79 1_555 1_555
N20 Pd4 1_555 1_555
N21 Pd1 1_555 1_555
N22 C94 1_555 1_555
N23 Zn3 1_555 1_555
N24 Zn3 1_555 1_555
N25 Zn3 1_555 1_555
N26 Pd3 1_555 1_555
N27 Pd6 1_555 1_555
N28 Pd5 1_555 1_555
N29 Pd2 1_555 1_555
N30 Pd1 1_555 1_555
H156 N30 1_555 1_555
H157 N30 1_555 1_555
N31 Pd1 1_555 1_555
H158 N31 1_555 1_555
H159 N31 1_555 1_555
N32 Pd2 1_555 1_555
H160 N32 1_555 1_555
H161 N32 1_555 1_555
N33 Pd2 1_555 1_555
H162 N33 1_555 1_555
H163 N33 1_555 1_555
N34 Pd3 1_555 1_555
H164 N34 1_555 1_555
H165 N34 1_555 1_555
N35 Pd3 1_555 1_555
H166 N35 1_555 1_555
H167 N35 1_555 1_555
N36 Pd4 1_555 1_555
H168 N36 1_555 1_555
H169 N36 1_555 1_555
N37 Pd4 1_555 1_555
H170 N37 1_555 1_555
H171 N37 1_555 1_555
N38 Pd5 1_555 1_555
H172 N38 1_555 1_555
H173 N38 1_555 1_555
N39 Pd5 1_555 1_555
H174 N39 1_555 1_555
H175 N39 1_555 1_555
N40 Pd6 1_555 1_555
H176 N40 1_555 1_555
H177 N40 1_555 1_555
N41 Pd6 1_555 1_555
H178 N41 1_555 1_555
H179 N41 1_555 1_555
O6 Zn2 1_555 1_555
O7 Zn3 1_555 1_555
Pd7 N51 1_555 1_555
Pd8 N59 1_555 1_555
Pd9 N54 1_555 1_555
Pd10 N52 1_555 1_555
Pd11 N60 1_555 1_555
Pd12 N53 1_555 1_555
Zn4 O8 1_555 1_555
Zn5 N55 1_555 1_555
Zn6 N63 1_555 1_555
C170 H180 1_555 1_555
H181 C170 1_555 1_555
H182 C170 1_555 1_555
C171 C170 1_555 1_555
C172 H183 1_555 1_555
C173 C172 1_555 1_555
H184 C173 1_555 1_555
H185 C173 1_555 1_555
H186 C173 1_555 1_555
C174 C172 1_555 1_555
C175 H187 1_555 1_555
C176 C175 1_555 1_555
H188 C176 1_555 1_555
H189 C176 1_555 1_555
H190 C176 1_555 1_555
C177 C175 1_555 1_555
C178 H191 1_555 1_555
C179 C178 1_555 1_555
H192 C179 1_555 1_555
H193 C179 1_555 1_555
H194 C179 1_555 1_555
C180 C178 1_555 1_555
C181 H195 1_555 1_555
H196 C181 1_555 1_555
C182 C181 1_555 1_555
N42 C180 1_555 1_555
H197 N42 1_555 1_555
H198 N42 1_555 1_555
N43 C172 1_555 1_555
H199 N43 1_555 1_555
N44 C174 1_555 1_555
H200 N44 1_555 1_555
N45 C177 1_555 1_555
H201 N45 1_555 1_555
N46 C171 1_555 1_555
H202 N46 1_555 1_555
O8 C182 1_555 1_555
O9 C171 1_555 1_555
O10 C174 1_555 1_555
O11 C177 1_555 1_555
O12 C180 1_555 1_555
C183 C184 1_555 1_555
C184 H203 1_555 1_555
C185 C184 1_555 1_555
H204 C185 1_555 1_555
C186 C185 1_555 1_555
C187 C186 1_555 1_555
C188 C187 1_555 1_555
C189 C188 1_555 1_555
H205 C189 1_555 1_555
C190 C189 1_555 1_555
H206 C190 1_555 1_555
C191 C190 1_555 1_555
C192 C191 1_555 1_555
C193 C192 1_555 1_555
C194 C193 1_555 1_555
H207 C194 1_555 1_555
C195 C194 1_555 1_555
H208 C195 1_555 1_555
C196 C195 1_555 1_555
C197 C196 1_555 1_555
C198 C197 1_555 1_555
C199 C198 1_555 1_555
H209 C199 1_555 1_555
C200 C199 1_555 1_555
H210 C200 1_555 1_555
C201 C200 1_555 1_555
C202 C183 1_555 1_555
C203 H211 1_555 1_555
C204 C187 1_555 1_555
C205 C204 1_555 1_555
H212 C205 1_555 1_555
C206 C205 1_555 1_555
H213 C206 1_555 1_555
C207 C206 1_555 1_555
H214 C207 1_555 1_555
C208 H215 1_555 1_555
C209 C192 1_555 1_555
C210 C209 1_555 1_555
H216 C210 1_555 1_555
C211 C210 1_555 1_555
H217 C211 1_555 1_555
C212 C211 1_555 1_555
H218 C212 1_555 1_555
C213 H219 1_555 1_555
C214 C197 1_555 1_555
C215 C214 1_555 1_555
H220 C215 1_555 1_555
C216 C215 1_555 1_555
H221 C216 1_555 1_555
C217 C216 1_555 1_555
H222 C217 1_555 1_555
C218 H223 1_555 1_555
C219 C202 1_555 1_555
C220 C219 1_555 1_555
H224 C220 1_555 1_555
C221 C220 1_555 1_555
H225 C221 1_555 1_555
C222 C221 1_555 1_555
H226 C222 1_555 1_555
C223 C224 1_555 1_555
C224 H227 1_555 1_555
C225 C224 1_555 1_555
H228 C225 1_555 1_555
C226 C225 1_555 1_555
C227 C226 1_555 1_555
C228 C227 1_555 1_555
C229 C228 1_555 1_555
H229 C229 1_555 1_555
C230 C229 1_555 1_555
H230 C230 1_555 1_555
C231 C230 1_555 1_555
C232 C231 1_555 1_555
C233 C232 1_555 1_555
C234 C233 1_555 1_555
H231 C234 1_555 1_555
C235 C234 1_555 1_555
H232 C235 1_555 1_555
C236 C235 1_555 1_555
C237 C236 1_555 1_555
C238 C237 1_555 1_555
C239 C238 1_555 1_555
H233 C239 1_555 1_555
C240 C239 1_555 1_555
H234 C240 1_555 1_555
C241 C240 1_555 1_555
C242 C223 1_555 1_555
C243 H235 1_555 1_555
C244 C227 1_555 1_555
C245 C244 1_555 1_555
H236 C245 1_555 1_555
C246 C245 1_555 1_555
H237 C246 1_555 1_555
C247 C246 1_555 1_555
H238 C247 1_555 1_555
C248 H239 1_555 1_555
C249 C232 1_555 1_555
C250 C249 1_555 1_555
H240 C250 1_555 1_555
C251 C250 1_555 1_555
H241 C251 1_555 1_555
C252 C251 1_555 1_555
H242 C252 1_555 1_555
C253 H243 1_555 1_555
C254 C237 1_555 1_555
C255 C254 1_555 1_555
H244 C255 1_555 1_555
C256 C255 1_555 1_555
H245 C256 1_555 1_555
C257 C256 1_555 1_555
H246 C257 1_555 1_555
C258 H247 1_555 1_555
C259 C242 1_555 1_555
C260 C259 1_555 1_555
H248 C260 1_555 1_555
C261 C260 1_555 1_555
H249 C261 1_555 1_555
C262 C261 1_555 1_555
H250 C262 1_555 1_555
C263 C264 1_555 1_555
C264 H251 1_555 1_555
C265 C264 1_555 1_555
H252 C265 1_555 1_555
C266 C265 1_555 1_555
C267 C266 1_555 1_555
C268 C267 1_555 1_555
C269 C268 1_555 1_555
H253 C269 1_555 1_555
C270 C269 1_555 1_555
H254 C270 1_555 1_555
C271 C270 1_555 1_555
C272 C271 1_555 1_555
C273 C272 1_555 1_555
C274 C273 1_555 1_555
H255 C274 1_555 1_555
C275 C274 1_555 1_555
H256 C275 1_555 1_555
C276 C275 1_555 1_555
C277 C276 1_555 1_555
C278 C277 1_555 1_555
C279 C278 1_555 1_555
H257 C279 1_555 1_555
C280 C279 1_555 1_555
H258 C280 1_555 1_555
C281 C280 1_555 1_555
C282 C263 1_555 1_555
C283 H259 1_555 1_555
C284 C267 1_555 1_555
C285 C284 1_555 1_555
H260 C285 1_555 1_555
C286 C285 1_555 1_555
H261 C286 1_555 1_555
C287 C286 1_555 1_555
H262 C287 1_555 1_555
C288 H263 1_555 1_555
C289 C272 1_555 1_555
C290 C289 1_555 1_555
H264 C290 1_555 1_555
C291 C290 1_555 1_555
H265 C291 1_555 1_555
C292 C291 1_555 1_555
H266 C292 1_555 1_555
C293 H267 1_555 1_555
C294 C277 1_555 1_555
C295 C294 1_555 1_555
H268 C295 1_555 1_555
C296 C295 1_555 1_555
H269 C296 1_555 1_555
C297 C296 1_555 1_555
H270 C297 1_555 1_555
C298 H271 1_555 1_555
C299 C282 1_555 1_555
C300 C299 1_555 1_555
H272 C300 1_555 1_555
C301 C300 1_555 1_555
H273 C301 1_555 1_555
C302 C301 1_555 1_555
H274 C302 1_555 1_555
C303 H275 1_555 1_555
C304 C303 1_555 1_555
H276 C304 1_555 1_555
H277 C304 1_555 1_555
C305 C304 1_555 1_555
H278 C305 1_555 1_555
H279 C305 1_555 1_555
C306 C305 1_555 1_555
H280 C306 1_555 1_555
H281 C306 1_555 1_555
C307 C306 1_555 1_555
H282 C307 1_555 1_555
H283 C307 1_555 1_555
C308 C303 1_555 1_555
H284 C308 1_555 1_555
C309 H285 1_555 1_555
C310 C309 1_555 1_555
H286 C310 1_555 1_555
H287 C310 1_555 1_555
C311 C310 1_555 1_555
H288 C311 1_555 1_555
H289 C311 1_555 1_555
C312 C311 1_555 1_555
H290 C312 1_555 1_555
H291 C312 1_555 1_555
C313 C312 1_555 1_555
H292 C313 1_555 1_555
H293 C313 1_555 1_555
C314 C309 1_555 1_555
H294 C314 1_555 1_555
C315 H295 1_555 1_555
C316 C315 1_555 1_555
H296 C316 1_555 1_555
H297 C316 1_555 1_555
C317 C316 1_555 1_555
H298 C317 1_555 1_555
H299 C317 1_555 1_555
C318 C317 1_555 1_555
H300 C318 1_555 1_555
H301 C318 1_555 1_555
C319 C318 1_555 1_555
H302 C319 1_555 1_555
H303 C319 1_555 1_555
C320 C315 1_555 1_555
H304 C320 1_555 1_555
C321 H305 1_555 1_555
C322 C321 1_555 1_555
H306 C322 1_555 1_555
H307 C322 1_555 1_555
C323 C322 1_555 1_555
H308 C323 1_555 1_555
H309 C323 1_555 1_555
C324 C323 1_555 1_555
H310 C324 1_555 1_555
H311 C324 1_555 1_555
C325 C324 1_555 1_555
H312 C325 1_555 1_555
H313 C325 1_555 1_555
C326 C321 1_555 1_555
H314 C326 1_555 1_555
C327 H315 1_555 1_555
C328 C327 1_555 1_555
H316 C328 1_555 1_555
H317 C328 1_555 1_555
C329 C328 1_555 1_555
H318 C329 1_555 1_555
H319 C329 1_555 1_555
C330 C329 1_555 1_555
H320 C330 1_555 1_555
H321 C330 1_555 1_555
C331 C330 1_555 1_555
H322 C331 1_555 1_555
H323 C331 1_555 1_555
C332 C327 1_555 1_555
H324 C332 1_555 1_555
C333 H325 1_555 1_555
C334 C333 1_555 1_555
H326 C334 1_555 1_555
H327 C334 1_555 1_555
C335 C334 1_555 1_555
H328 C335 1_555 1_555
H329 C335 1_555 1_555
C336 C335 1_555 1_555
H330 C336 1_555 1_555
H331 C336 1_555 1_555
C337 C336 1_555 1_555
H332 C337 1_555 1_555
H333 C337 1_555 1_555
C338 C333 1_555 1_555
H334 C338 1_555 1_555
N47 Zn4 1_555 1_555
N48 Zn4 1_555 1_555
N49 Zn4 1_555 1_555
N50 Zn4 1_555 1_555
N51 C203 1_555 1_555
N52 C208 1_555 1_555
N53 C213 1_555 1_555
N54 C218 1_555 1_555
N55 C223 1_555 1_555
N56 Zn5 1_555 1_555
N57 Zn5 1_555 1_555
N58 Zn5 1_555 1_555
N59 C243 1_555 1_555
N60 C248 1_555 1_555
N61 Pd10 1_555 1_555
N62 Pd7 1_555 1_555
N63 C263 1_555 1_555
N64 Zn6 1_555 1_555
N65 Zn6 1_555 1_555
N66 Zn6 1_555 1_555
N67 Pd9 1_555 1_555
N68 Pd12 1_555 1_555
N69 Pd11 1_555 1_555
N70 Pd8 1_555 1_555
N71 Pd7 1_555 1_555
H335 N71 1_555 1_555
H336 N71 1_555 1_555
N72 Pd7 1_555 1_555
H337 N72 1_555 1_555
H338 N72 1_555 1_555
N73 Pd8 1_555 1_555
H339 N73 1_555 1_555
H340 N73 1_555 1_555
N74 Pd8 1_555 1_555
H341 N74 1_555 1_555
H342 N74 1_555 1_555
N75 Pd9 1_555 1_555
H343 N75 1_555 1_555
H344 N75 1_555 1_555
N76 Pd9 1_555 1_555
H345 N76 1_555 1_555
H346 N76 1_555 1_555
N77 Pd10 1_555 1_555
H347 N77 1_555 1_555
H348 N77 1_555 1_555
N78 Pd10 1_555 1_555
H349 N78 1_555 1_555
H350 N78 1_555 1_555
N79 Pd11 1_555 1_555
H351 N79 1_555 1_555
H352 N79 1_555 1_555
N80 Pd11 1_555 1_555
H353 N80 1_555 1_555
H354 N80 1_555 1_555
N81 Pd12 1_555 1_555
H355 N81 1_555 1_555
H356 N81 1_555 1_555
N82 Pd12 1_555 1_555
H357 N82 1_555 1_555
H358 N82 1_555 1_555
O13 Zn5 1_555 1_555
O14 Zn6 1_555 1_555
N83 O15 1_555 1_555
O16 N83 1_555 1_555
O17 N83 1_555 1_555
N84 O18 1_555 1_555
O19 N84 1_555 1_555
O20 N84 1_555 1_555
N85 O21 1_555 1_555
O22 N85 1_555 1_555
O23 N85 1_555 1_555
N86 O24 1_555 1_555
O25 N86 1_555 1_555
O26 N86 1_555 1_555
N87 O27 1_555 1_555
O28 N87 1_555 1_555
O29 N87 1_555 1_555
N88 O30 1_555 1_555
O31 N88 1_555 1_555
O32 N88 1_555 1_555
N89 O33 1_555 1_555
O34 N89 1_555 1_555
O35 N89 1_555 1_555
N90 O36 1_555 1_555
O37 N90 1_555 1_555
O38 N90 1_555 1_555
N91 O39 1_555 1_555
O40 N91 1_555 1_555
O41 N91 1_555 1_555
N92 O42 1_555 1_555
O43 N92 1_555 1_555
O44 N92 1_555 1_555
N93 O45 1_555 1_555
O46 N93 1_555 1_555
O47 N93 1_555 1_555
N94 O48 1_555 1_555
O49 N94 1_555 1_555
O50 N94 1_555 1_555
N95 O51 1_555 1_555
O52 N95 1_555 1_555
O53 N95 1_555 1_555
N96 O54 1_555 1_555
O55 N96 1_555 1_555
O56 N96 1_555 1_555
N97 O57 1_555 1_555
O58 N97 1_555 1_555
O59 N97 1_555 1_555
N98 O60 1_555 1_555
O61 N98 1_555 1_555
O62 N98 1_555 1_555
C6 N3 1_555 1_555
C9 N4 1_555 1_555
C12 N5 1_555 1_555
C13 N2 1_555 1_555
C14 N6 1_555 1_555
C17 N6 1_555 1_555
C19 N7 1_555 1_555
C22 N7 1_555 1_555
C24 N8 1_555 1_555
C27 N8 1_555 1_555
C29 N9 1_555 1_555
C32 C33 1_555 1_555
C32 N9 1_555 1_555
C34 C35 1_555 1_555
C38 N10 1_555 1_555
C39 C40 1_555 1_555
C43 N11 1_555 1_555
C44 C45 1_555 1_555
C48 N12 1_555 1_555
C49 C50 1_555 1_555
C53 N13 1_555 1_555
C57 N14 1_555 1_555
C59 N15 1_555 1_555
C62 N15 1_555 1_555
C64 N16 1_555 1_555
C67 N16 1_555 1_555
C69 N17 1_555 1_555
C72 C73 1_555 1_555
C72 N17 1_555 1_555
C74 C75 1_555 1_555
C78 N18 1_555 1_555
C79 C80 1_555 1_555
C83 N19 1_555 1_555
C84 C85 1_555 1_555
C84 N20 1_555 1_555
C88 N20 1_555 1_555
C89 C90 1_555 1_555
C89 N21 1_555 1_555
C93 N21 1_555 1_555
C97 N22 1_555 1_555
C99 N23 1_555 1_555
C102 N23 1_555 1_555
C104 N24 1_555 1_555
C107 N24 1_555 1_555
C109 N25 1_555 1_555
C112 C113 1_555 1_555
C112 N25 1_555 1_555
C114 C115 1_555 1_555
C114 N26 1_555 1_555
C118 N26 1_555 1_555
C119 C120 1_555 1_555
C119 N27 1_555 1_555
C123 N27 1_555 1_555
C124 C125 1_555 1_555
C124 N28 1_555 1_555
C128 N28 1_555 1_555
C129 C130 1_555 1_555
C129 N29 1_555 1_555
C133 N29 1_555 1_555
C134 N30 1_555 1_555
C138 C139 1_555 1_555
C139 N31 1_555 1_555
C140 N32 1_555 1_555
C144 C145 1_555 1_555
C145 N33 1_555 1_555
C146 N34 1_555 1_555
C150 C151 1_555 1_555
C151 N35 1_555 1_555
C152 N36 1_555 1_555
C156 C157 1_555 1_555
C157 N37 1_555 1_555
C158 N38 1_555 1_555
C162 C163 1_555 1_555
C163 N39 1_555 1_555
C164 N40 1_555 1_555
C168 C169 1_555 1_555
C169 N41 1_555 1_555
C175 N44 1_555 1_555
C178 N45 1_555 1_555
C181 N46 1_555 1_555
C182 N43 1_555 1_555
C183 N47 1_555 1_555
C186 N47 1_555 1_555
C188 N48 1_555 1_555
C191 N48 1_555 1_555
C193 N49 1_555 1_555
C196 N49 1_555 1_555
C198 N50 1_555 1_555
C201 C202 1_555 1_555
C201 N50 1_555 1_555
C203 C204 1_555 1_555
C207 N51 1_555 1_555
C208 C209 1_555 1_555
C212 N52 1_555 1_555
C213 C214 1_555 1_555
C217 N53 1_555 1_555
C218 C219 1_555 1_555
C222 N54 1_555 1_555
C226 N55 1_555 1_555
C228 N56 1_555 1_555
C231 N56 1_555 1_555
C233 N57 1_555 1_555
C236 N57 1_555 1_555
C238 N58 1_555 1_555
C241 C242 1_555 1_555
C241 N58 1_555 1_555
C243 C244 1_555 1_555
C247 N59 1_555 1_555
C248 C249 1_555 1_555
C252 N60 1_555 1_555
C253 C254 1_555 1_555
C253 N61 1_555 1_555
C257 N61 1_555 1_555
C258 C259 1_555 1_555
C258 N62 1_555 1_555
C262 N62 1_555 1_555
C266 N63 1_555 1_555
C268 N64 1_555 1_555
C271 N64 1_555 1_555
C273 N65 1_555 1_555
C276 N65 1_555 1_555
C278 N66 1_555 1_555
C281 C282 1_555 1_555
C281 N66 1_555 1_555
C283 C284 1_555 1_555
C283 N67 1_555 1_555
C287 N67 1_555 1_555
C288 C289 1_555 1_555
C288 N68 1_555 1_555
C292 N68 1_555 1_555
C293 C294 1_555 1_555
C293 N69 1_555 1_555
C297 N69 1_555 1_555
C298 C299 1_555 1_555
C298 N70 1_555 1_555
C302 N70 1_555 1_555
C303 N71 1_555 1_555
C307 C308 1_555 1_555
C308 N72 1_555 1_555
C309 N73 1_555 1_555
C313 C314 1_555 1_555
C314 N74 1_555 1_555
C315 N75 1_555 1_555
C319 C320 1_555 1_555
C320 N76 1_555 1_555
C321 N77 1_555 1_555
C325 C326 1_555 1_555
C326 N78 1_555 1_555
C327 N79 1_555 1_555
C331 C332 1_555 1_555
C332 N80 1_555 1_555
C333 N81 1_555 1_555
C337 C338 1_555 1_555
C338 N82 1_555 1_555

#END
