# generated using pymatgen
data_Zn6H358Pd12C338N98O113
_symmetry_space_group_name_H-M   'P 1'
_cell_length_a   33.94150133
_cell_length_b   33.94150133
_cell_length_c   44.27700000
_cell_angle_alpha   90.00000000
_cell_angle_beta   90.00000000
_cell_angle_gamma   97.41773865
_symmetry_Int_Tables_number   1
_chemical_formula_structural   Zn6H358Pd12C338N98O113
_chemical_formula_sum   'Zn24 H1432 Pd48 C1352 N392 O452'
_cell_volume   50581.35795304
_cell_formula_units_Z   4
loop_
 _symmetry_equiv_pos_site_id
 _symmetry_equiv_pos_as_xyz
  1  'x, y, z'
loop_
 _atom_site_type_symbol
 _atom_site_label
 _atom_site_symmetry_multiplicity
 _atom_site_fract_x
 _atom_site_fract_y
 _atom_site_fract_z
 _atom_site_occupancy
  C  C1  1  0.041100  0.227300  0.191600  1
  C  C2  1  0.958900  0.772700  0.191600  1
  C  C3  1  0.772700  0.958900  0.808400  1
  C  C4  1  0.227300  0.041100  0.808400  1
  C  C5  1  0.039300  0.268100  0.205900  1
  C  C6  1  0.960700  0.731900  0.205900  1
  C  C7  1  0.731900  0.960700  0.794100  1
  C  C8  1  0.268100  0.039300  0.794100  1
  C  C9  1  0.935700  0.333100  0.218000  1
  C  C10  1  0.064300  0.666900  0.218000  1
  C  C11  1  0.666900  0.064300  0.782000  1
  C  C12  1  0.333100  0.935700  0.782000  1
  C  C13  1  0.902200  0.324000  0.193900  1
  C  C14  1  0.097800  0.676000  0.193900  1
  C  C15  1  0.676000  0.097800  0.806100  1
  C  C16  1  0.324000  0.902200  0.806100  1
  C  C17  1  0.924000  0.306800  0.240900  1
  C  C18  1  0.076000  0.693200  0.240900  1
  C  C19  1  0.693200  0.076000  0.759100  1
  C  C20  1  0.306800  0.924000  0.759100  1
  C  C21  1  0.932500  0.237100  0.266100  1
  C  C22  1  0.067500  0.762900  0.266100  1
  C  C23  1  0.762900  0.067500  0.733900  1
  C  C24  1  0.237100  0.932500  0.733900  1
  C  C25  1  0.950000  0.198800  0.256900  1
  C  C26  1  0.050000  0.801200  0.256900  1
  C  C27  1  0.801200  0.050000  0.743100  1
  C  C28  1  0.198800  0.950000  0.743100  1
  C  C29  1  0.958500  0.254700  0.293500  1
  C  C30  1  0.041500  0.745300  0.293500  1
  C  C31  1  0.745300  0.041500  0.706500  1
  C  C32  1  0.254700  0.958500  0.706500  1
  C  C33  1  0.014000  0.296600  0.316500  1
  C  C34  1  0.986000  0.703400  0.316500  1
  C  C35  1  0.703400  0.986000  0.683500  1
  C  C36  1  0.296600  0.014000  0.683500  1
  C  C37  1  0.044800  0.320400  0.299900  1
  C  C38  1  0.955200  0.679600  0.299900  1
  C  C39  1  0.679600  0.955200  0.700100  1
  C  C40  1  0.320400  0.044800  0.700100  1
  C  C41  1  0.993100  0.322900  0.334500  1
  C  C42  1  0.006900  0.677100  0.334500  1
  C  C43  1  0.677100  0.006900  0.665500  1
  C  C44  1  0.322900  0.993100  0.665500  1
  C  C45  1  0.045200  0.341000  0.203300  1
  C  C46  1  0.954800  0.659000  0.203300  1
  C  C47  1  0.659000  0.954800  0.796700  1
  C  C48  1  0.341000  0.045200  0.796700  1
  C  C49  1  0.004600  0.342000  0.217500  1
  C  C50  1  0.995400  0.658000  0.217500  1
  C  C51  1  0.658000  0.995400  0.782500  1
  C  C52  1  0.342000  0.004600  0.782500  1
  C  C53  1  0.012300  0.440900  0.306400  1
  C  C54  1  0.987700  0.559100  0.306400  1
  C  C55  1  0.559100  0.987700  0.693600  1
  C  C56  1  0.440900  0.012300  0.693600  1
  C  C57  1  0.983700  0.452100  0.330400  1
  C  C58  1  0.016300  0.547900  0.330400  1
  C  C59  1  0.547900  0.016300  0.669600  1
  C  C60  1  0.452100  0.983700  0.669600  1
  C  C61  1  0.950700  0.452300  0.321200  1
  C  C62  1  0.049300  0.547700  0.321200  1
  C  C63  1  0.547700  0.049300  0.678800  1
  C  C64  1  0.452300  0.950700  0.678800  1
  C  C65  1  0.951900  0.443100  0.290300  1
  C  C66  1  0.048100  0.556900  0.290300  1
  C  C67  1  0.556900  0.048100  0.709700  1
  C  C68  1  0.443100  0.951900  0.709700  1
  C  C69  1  0.918100  0.443500  0.268900  1
  C  C70  1  0.081900  0.556500  0.268900  1
  C  C71  1  0.556500  0.081900  0.731100  1
  C  C72  1  0.443500  0.918100  0.731100  1
  C  C73  1  0.920600  0.438800  0.237300  1
  C  C74  1  0.079400  0.561200  0.237300  1
  C  C75  1  0.561200  0.079400  0.762700  1
  C  C76  1  0.438800  0.920600  0.762700  1
  C  C77  1  0.888900  0.437100  0.216100  1
  C  C78  1  0.111100  0.562900  0.216100  1
  C  C79  1  0.562900  0.111100  0.783900  1
  C  C80  1  0.437100  0.888900  0.783900  1
  C  C81  1  0.904000  0.433200  0.188100  1
  C  C82  1  0.096000  0.566800  0.188100  1
  C  C83  1  0.566800  0.096000  0.811900  1
  C  C84  1  0.433200  0.904000  0.811900  1
  C  C85  1  0.941500  0.433900  0.191300  1
  C  C86  1  0.058500  0.566100  0.191300  1
  C  C87  1  0.566100  0.058500  0.808700  1
  C  C88  1  0.433900  0.941500  0.808700  1
  C  C89  1  0.974100  0.432700  0.165200  1
  C  C90  1  0.025900  0.567300  0.165200  1
  C  C91  1  0.567300  0.025900  0.834800  1
  C  C92  1  0.432700  0.974100  0.834800  1
  C  C93  1  0.012100  0.434900  0.169500  1
  C  C94  1  0.987900  0.565100  0.169500  1
  C  C95  1  0.565100  0.987900  0.830500  1
  C  C96  1  0.434900  0.012100  0.830500  1
  C  C97  1  0.039400  0.436400  0.145400  1
  C  C98  1  0.960600  0.563600  0.145400  1
  C  C99  1  0.563600  0.960600  0.854600  1
  C  C100  1  0.436400  0.039400  0.854600  1
  C  C101  1  0.072300  0.435100  0.158500  1
  C  C102  1  0.927700  0.564900  0.158500  1
  C  C103  1  0.564900  0.927700  0.841500  1
  C  C104  1  0.435100  0.072300  0.841500  1
  C  C105  1  0.072600  0.435200  0.186200  1
  C  C106  1  0.927400  0.564800  0.186200  1
  C  C107  1  0.564800  0.927400  0.813800  1
  C  C108  1  0.435200  0.072600  0.813800  1
  C  C109  1  0.100800  0.432000  0.207000  1
  C  C110  1  0.899200  0.568000  0.207000  1
  C  C111  1  0.568000  0.899200  0.793000  1
  C  C112  1  0.432000  0.100800  0.793000  1
  C  C113  1  0.102800  0.429600  0.237000  1
  C  C114  1  0.897200  0.570400  0.237000  1
  C  C115  1  0.570400  0.897200  0.763000  1
  C  C116  1  0.429600  0.102800  0.763000  1
  C  C117  1  0.130800  0.417400  0.259300  1
  C  C118  1  0.869200  0.582600  0.259300  1
  C  C119  1  0.582600  0.869200  0.740700  1
  C  C120  1  0.417400  0.130800  0.740700  1
  C  C121  1  0.116000  0.418600  0.288500  1
  C  C122  1  0.884000  0.581400  0.288500  1
  C  C123  1  0.581400  0.884000  0.711500  1
  C  C124  1  0.418600  0.116000  0.711500  1
  C  C125  1  0.076900  0.429100  0.286200  1
  C  C126  1  0.923100  0.570900  0.286200  1
  C  C127  1  0.570900  0.923100  0.713800  1
  C  C128  1  0.429100  0.076900  0.713800  1
  C  C129  1  0.051500  0.436500  0.309800  1
  C  C130  1  0.948500  0.563500  0.309800  1
  C  C131  1  0.563500  0.948500  0.690200  1
  C  C132  1  0.436500  0.051500  0.690200  1
  C  C133  1  0.858400  0.425000  0.300000  1
  C  C134  1  0.141600  0.575000  0.300000  1
  C  C135  1  0.575000  0.141600  0.700000  1
  C  C136  1  0.425000  0.858400  0.700000  1
  C  C137  1  0.881200  0.450600  0.280300  1
  C  C138  1  0.118800  0.549400  0.280300  1
  C  C139  1  0.549400  0.118800  0.719700  1
  C  C140  1  0.450600  0.881200  0.719700  1
  C  C141  1  0.862400  0.484000  0.270700  1
  C  C142  1  0.137600  0.516000  0.270700  1
  C  C143  1  0.516000  0.137600  0.729300  1
  C  C144  1  0.484000  0.862400  0.729300  1
  C  C145  1  0.827600  0.490000  0.279400  1
  C  C146  1  0.172400  0.510000  0.279400  1
  C  C147  1  0.510000  0.172400  0.720600  1
  C  C148  1  0.490000  0.827600  0.720600  1
  C  C149  1  0.803700  0.465900  0.300200  1
  C  C150  1  0.196300  0.534100  0.300200  1
  C  C151  1  0.534100  0.196300  0.699800  1
  C  C152  1  0.465900  0.803700  0.699800  1
  C  C153  1  0.953300  0.398500  0.116000  1
  C  C154  1  0.046700  0.601500  0.116000  1
  C  C155  1  0.601500  0.046700  0.884000  1
  C  C156  1  0.398500  0.953300  0.884000  1
  C  C157  1  0.953500  0.430900  0.136500  1
  C  C158  1  0.046500  0.569100  0.136500  1
  C  C159  1  0.569100  0.046500  0.863500  1
  C  C160  1  0.430900  0.953500  0.863500  1
  C  C161  1  0.933400  0.463800  0.126000  1
  C  C162  1  0.066600  0.536200  0.126000  1
  C  C163  1  0.536200  0.066600  0.874000  1
  C  C164  1  0.463800  0.933400  0.874000  1
  C  C165  1  0.917900  0.462300  0.096600  1
  C  C166  1  0.082100  0.537700  0.096600  1
  C  C167  1  0.537700  0.082100  0.903400  1
  C  C168  1  0.462300  0.917900  0.903400  1
  C  C169  1  0.920600  0.428400  0.077400  1
  C  C170  1  0.079400  0.571600  0.077400  1
  C  C171  1  0.571600  0.079400  0.922600  1
  C  C172  1  0.428400  0.920600  0.922600  1
  C  C173  1  0.150600  0.395800  0.176300  1
  C  C174  1  0.849400  0.604200  0.176300  1
  C  C175  1  0.604200  0.849400  0.823700  1
  C  C176  1  0.395800  0.150600  0.823700  1
  C  C177  1  0.143100  0.429700  0.192700  1
  C  C178  1  0.856900  0.570300  0.192700  1
  C  C179  1  0.570300  0.856900  0.807300  1
  C  C180  1  0.429700  0.143100  0.807300  1
  C  C181  1  0.171100  0.458100  0.196600  1
  C  C182  1  0.828900  0.541900  0.196600  1
  C  C183  1  0.541900  0.828900  0.803400  1
  C  C184  1  0.458100  0.171100  0.803400  1
  C  C185  1  0.207900  0.453900  0.182300  1
  C  C186  1  0.792100  0.546100  0.182300  1
  C  C187  1  0.546100  0.792100  0.817700  1
  C  C188  1  0.453900  0.207900  0.817700  1
  C  C189  1  0.211500  0.421100  0.165800  1
  C  C190  1  0.788500  0.578900  0.165800  1
  C  C191  1  0.578900  0.788500  0.834200  1
  C  C192  1  0.421100  0.211500  0.834200  1
  C  C193  1  0.056700  0.412100  0.365300  1
  C  C194  1  0.943300  0.587900  0.365300  1
  C  C195  1  0.587900  0.943300  0.634700  1
  C  C196  1  0.412100  0.056700  0.634700  1
  C  C197  1  0.067500  0.439700  0.338200  1
  C  C198  1  0.932500  0.560300  0.338200  1
  C  C199  1  0.560300  0.932500  0.661800  1
  C  C200  1  0.439700  0.067500  0.661800  1
  C  C201  1  0.104400  0.468600  0.346600  1
  C  C202  1  0.895600  0.531400  0.346600  1
  C  C203  1  0.531400  0.895600  0.653400  1
  C  C204  1  0.468600  0.104400  0.653400  1
  C  C205  1  0.118600  0.463600  0.373500  1
  C  C206  1  0.881400  0.536400  0.373500  1
  C  C207  1  0.536400  0.881400  0.626500  1
  C  C208  1  0.463600  0.118600  0.626500  1
  C  C209  1  0.102300  0.439900  0.397400  1
  C  C210  1  0.897700  0.560100  0.397400  1
  C  C211  1  0.560100  0.897700  0.602600  1
  C  C212  1  0.439900  0.102300  0.602600  1
  C  C213  1  0.801200  0.258800  0.259100  1
  C  C214  1  0.198800  0.741200  0.259100  1
  C  C215  1  0.741200  0.198800  0.740900  1
  C  C216  1  0.258800  0.801200  0.740900  1
  C  C217  1  0.789200  0.254600  0.288900  1
  C  C218  1  0.210800  0.745400  0.288900  1
  C  C219  1  0.745400  0.210800  0.711100  1
  C  C220  1  0.254600  0.789200  0.711100  1
  C  C221  1  0.803500  0.221300  0.296700  1
  C  C222  1  0.196500  0.778700  0.296700  1
  C  C223  1  0.778700  0.196500  0.703300  1
  C  C224  1  0.221300  0.803500  0.703300  1
  C  C225  1  0.823800  0.201000  0.273600  1
  C  C226  1  0.176200  0.799000  0.273600  1
  C  C227  1  0.799000  0.176200  0.726400  1
  C  C228  1  0.201000  0.823800  0.726400  1
  C  C229  1  0.839700  0.168700  0.273500  1
  C  C230  1  0.160300  0.831300  0.273500  1
  C  C231  1  0.831300  0.160300  0.726500  1
  C  C232  1  0.168700  0.839700  0.726500  1
  C  C233  1  0.856200  0.150800  0.250000  1
  C  C234  1  0.143800  0.849200  0.250000  1
  C  C235  1  0.849200  0.143800  0.750000  1
  C  C236  1  0.150800  0.856200  0.750000  1
  C  C237  1  0.873700  0.116700  0.251500  1
  C  C238  1  0.126300  0.883300  0.251500  1
  C  C239  1  0.883300  0.126300  0.748500  1
  C  C240  1  0.116700  0.873700  0.748500  1
  C  C241  1  0.888500  0.110700  0.224500  1
  C  C242  1  0.111500  0.889300  0.224500  1
  C  C243  1  0.889300  0.111500  0.775500  1
  C  C244  1  0.110700  0.888500  0.775500  1
  C  C245  1  0.876200  0.142000  0.202700  1
  C  C246  1  0.123800  0.858000  0.202700  1
  C  C247  1  0.858000  0.123800  0.797300  1
  C  C248  1  0.142000  0.876200  0.797300  1
  C  C249  1  0.883400  0.145200  0.172100  1
  C  C250  1  0.116600  0.854800  0.172100  1
  C  C251  1  0.854800  0.116600  0.827900  1
  C  C252  1  0.145200  0.883400  0.827900  1
  C  C253  1  0.872100  0.176900  0.154900  1
  C  C254  1  0.127900  0.823100  0.154900  1
  C  C255  1  0.823100  0.127900  0.845100  1
  C  C256  1  0.176900  0.872100  0.845100  1
  C  C257  1  0.881900  0.176900  0.120700  1
  C  C258  1  0.118100  0.823100  0.120700  1
  C  C259  1  0.823100  0.118100  0.879300  1
  C  C260  1  0.176900  0.881900  0.879300  1
  C  C261  1  0.868000  0.210600  0.110800  1
  C  C262  1  0.132000  0.789400  0.110800  1
  C  C263  1  0.789400  0.132000  0.889200  1
  C  C264  1  0.210600  0.868000  0.889200  1
  C  C265  1  0.852100  0.231700  0.138700  1
  C  C266  1  0.147900  0.768300  0.138700  1
  C  C267  1  0.768300  0.147900  0.861300  1
  C  C268  1  0.231700  0.852100  0.861300  1
  C  C269  1  0.836700  0.269500  0.136900  1
  C  C270  1  0.163300  0.730500  0.136900  1
  C  C271  1  0.730500  0.163300  0.863100  1
  C  C272  1  0.269500  0.836700  0.863100  1
  C  C273  1  0.819400  0.287000  0.163800  1
  C  C274  1  0.180600  0.713000  0.163800  1
  C  C275  1  0.713000  0.180600  0.836200  1
  C  C276  1  0.287000  0.819400  0.836200  1
  C  C277  1  0.811100  0.321500  0.161200  1
  C  C278  1  0.188900  0.678500  0.161200  1
  C  C279  1  0.678500  0.188900  0.838800  1
  C  C280  1  0.321500  0.811100  0.838800  1
  C  C281  1  0.796300  0.332300  0.192600  1
  C  C282  1  0.203700  0.667700  0.192600  1
  C  C283  1  0.667700  0.203700  0.807400  1
  C  C284  1  0.332300  0.796300  0.807400  1
  C  C285  1  0.800300  0.295100  0.209100  1
  C  C286  1  0.199700  0.704900  0.209100  1
  C  C287  1  0.704900  0.199700  0.790900  1
  C  C288  1  0.295100  0.800300  0.790900  1
  C  C289  1  0.793800  0.289800  0.242000  1
  C  C290  1  0.206200  0.710200  0.242000  1
  C  C291  1  0.710200  0.206200  0.758000  1
  C  C292  1  0.289800  0.793800  0.758000  1
  C  C293  1  0.850000  0.156800  0.328300  1
  C  C294  1  0.150000  0.843200  0.328300  1
  C  C295  1  0.843200  0.150000  0.671700  1
  C  C296  1  0.156800  0.850000  0.671700  1
  C  C297  1  0.834300  0.142900  0.301600  1
  C  C298  1  0.165700  0.857100  0.301600  1
  C  C299  1  0.857100  0.165700  0.698400  1
  C  C300  1  0.142900  0.834300  0.698400  1
  C  C301  1  0.807100  0.108700  0.301400  1
  C  C302  1  0.192900  0.891300  0.301400  1
  C  C303  1  0.891300  0.192900  0.698600  1
  C  C304  1  0.108700  0.807100  0.698600  1
  C  C305  1  0.805300  0.088900  0.327800  1
  C  C306  1  0.194700  0.911100  0.327800  1
  C  C307  1  0.911100  0.194700  0.672200  1
  C  C308  1  0.088900  0.805300  0.672200  1
  C  C309  1  0.821400  0.104600  0.352500  1
  C  C310  1  0.178600  0.895400  0.352500  1
  C  C311  1  0.895400  0.178600  0.647500  1
  C  C312  1  0.104600  0.821400  0.647500  1
  C  C313  1  0.941800  0.122000  0.145500  1
  C  C314  1  0.058200  0.878000  0.145500  1
  C  C315  1  0.878000  0.058200  0.854500  1
  C  C316  1  0.122000  0.941800  0.854500  1
  C  C317  1  0.905000  0.114600  0.157700  1
  C  C318  1  0.095000  0.885400  0.157700  1
  C  C319  1  0.885400  0.095000  0.842300  1
  C  C320  1  0.114600  0.905000  0.842300  1
  C  C321  1  0.887300  0.072700  0.153300  1
  C  C322  1  0.112700  0.927300  0.153300  1
  C  C323  1  0.927300  0.112700  0.846700  1
  C  C324  1  0.072700  0.887300  0.846700  1
  C  C325  1  0.905400  0.047200  0.139700  1
  C  C326  1  0.094600  0.952800  0.139700  1
  C  C327  1  0.952800  0.094600  0.860300  1
  C  C328  1  0.047200  0.905400  0.860300  1
  C  C329  1  0.942700  0.057900  0.128400  1
  C  C330  1  0.057300  0.942100  0.128400  1
  C  C331  1  0.942100  0.057300  0.871600  1
  C  C332  1  0.057900  0.942700  0.871600  1
  C  C333  1  0.876000  0.305600  0.102000  1
  C  C334  1  0.124000  0.694400  0.102000  1
  C  C335  1  0.694400  0.124000  0.898000  1
  C  C336  1  0.305600  0.876000  0.898000  1
  C  C337  1  0.842400  0.289400  0.110100  1
  C  C338  1  0.157600  0.710600  0.110100  1
  C  C339  1  0.710600  0.157600  0.889900  1
  C  C340  1  0.289400  0.842400  0.889900  1
  C  C341  1  0.811900  0.301300  0.096100  1
  C  C342  1  0.188100  0.698700  0.096100  1
  C  C343  1  0.698700  0.188100  0.903900  1
  C  C344  1  0.301300  0.811900  0.903900  1
  C  C345  1  0.814600  0.326400  0.070000  1
  C  C346  1  0.185400  0.673600  0.070000  1
  C  C347  1  0.673600  0.185400  0.930000  1
  C  C348  1  0.326400  0.814600  0.930000  1
  C  C349  1  0.853100  0.335700  0.059800  1
  C  C350  1  0.146900  0.664300  0.059800  1
  C  C351  1  0.664300  0.146900  0.940200  1
  C  C352  1  0.335700  0.853100  0.940200  1
  C  C353  1  0.783000  0.342600  0.278700  1
  C  C354  1  0.217000  0.657400  0.278700  1
  C  C355  1  0.657400  0.217000  0.721300  1
  C  C356  1  0.342600  0.783000  0.721300  1
  C  C357  1  0.767600  0.322000  0.253800  1
  C  C358  1  0.232400  0.678000  0.253800  1
  C  C359  1  0.678000  0.232400  0.746200  1
  C  C360  1  0.322000  0.767600  0.746200  1
  C  C361  1  0.732700  0.334100  0.241900  1
  C  C362  1  0.267300  0.665900  0.241900  1
  C  C363  1  0.665900  0.267300  0.758100  1
  C  C364  1  0.334100  0.732700  0.758100  1
  C  C365  1  0.715500  0.361300  0.254600  1
  C  C366  1  0.284500  0.638700  0.254600  1
  C  C367  1  0.638700  0.284500  0.745400  1
  C  C368  1  0.361300  0.715500  0.745400  1
  C  C369  1  0.730900  0.378300  0.279000  1
  C  C370  1  0.269100  0.621700  0.279000  1
  C  C371  1  0.621700  0.269100  0.721000  1
  C  C372  1  0.378300  0.730900  0.721000  1
  C  C373  1  0.034000  0.184200  0.343600  1
  C  C374  1  0.966000  0.815800  0.343600  1
  C  C375  1  0.815800  0.966000  0.656400  1
  C  C376  1  0.184200  0.034000  0.656400  1
  C  C377  1  0.028400  0.189200  0.376500  1
  C  C378  1  0.971600  0.810800  0.376500  1
  C  C379  1  0.810800  0.971600  0.623500  1
  C  C380  1  0.189200  0.028400  0.623500  1
  C  C381  1  0.058800  0.223400  0.381500  1
  C  C382  1  0.941200  0.776600  0.381500  1
  C  C383  1  0.776600  0.941200  0.618500  1
  C  C384  1  0.223400  0.058800  0.618500  1
  C  C385  1  0.078100  0.234300  0.355000  1
  C  C386  1  0.921900  0.765700  0.355000  1
  C  C387  1  0.765700  0.921900  0.645000  1
  C  C388  1  0.234300  0.078100  0.645000  1
  C  C389  1  0.107800  0.264400  0.349600  1
  C  C390  1  0.892200  0.735600  0.349600  1
  C  C391  1  0.735600  0.892200  0.650400  1
  C  C392  1  0.264400  0.107800  0.650400  1
  C  C393  1  0.125900  0.275100  0.323600  1
  C  C394  1  0.874100  0.724900  0.323600  1
  C  C395  1  0.724900  0.874100  0.676400  1
  C  C396  1  0.275100  0.125900  0.676400  1
  C  C397  1  0.151000  0.314000  0.318000  1
  C  C398  1  0.849000  0.686000  0.318000  1
  C  C399  1  0.686000  0.849000  0.682000  1
  C  C400  1  0.314000  0.151000  0.682000  1
  C  C401  1  0.160700  0.310700  0.286500  1
  C  C402  1  0.839300  0.689300  0.286500  1
  C  C403  1  0.689300  0.839300  0.713500  1
  C  C404  1  0.310700  0.160700  0.713500  1
  C  C405  1  0.148200  0.272000  0.278400  1
  C  C406  1  0.851800  0.728000  0.278400  1
  C  C407  1  0.728000  0.851800  0.721600  1
  C  C408  1  0.272000  0.148200  0.721600  1
  C  C409  1  0.160700  0.258500  0.249000  1
  C  C410  1  0.839300  0.741500  0.249000  1
  C  C411  1  0.741500  0.839300  0.751000  1
  C  C412  1  0.258500  0.160700  0.751000  1
  C  C413  1  0.138500  0.224100  0.234700  1
  C  C414  1  0.861500  0.775900  0.234700  1
  C  C415  1  0.775900  0.861500  0.765300  1
  C  C416  1  0.224100  0.138500  0.765300  1
  C  C417  1  0.149400  0.206400  0.205600  1
  C  C418  1  0.850600  0.793600  0.205600  1
  C  C419  1  0.793600  0.850600  0.794400  1
  C  C420  1  0.206400  0.149400  0.794400  1
  C  C421  1  0.124900  0.173900  0.201400  1
  C  C422  1  0.875100  0.826100  0.201400  1
  C  C423  1  0.826100  0.875100  0.798600  1
  C  C424  1  0.173900  0.124900  0.798600  1
  C  C425  1  0.099100  0.167700  0.226000  1
  C  C426  1  0.900900  0.832300  0.226000  1
  C  C427  1  0.832300  0.900900  0.774000  1
  C  C428  1  0.167700  0.099100  0.774000  1
  C  C429  1  0.067800  0.138000  0.230000  1
  C  C430  1  0.932200  0.862000  0.230000  1
  C  C431  1  0.862000  0.932200  0.770000  1
  C  C432  1  0.138000  0.067800  0.770000  1
  C  C433  1  0.040900  0.133900  0.256300  1
  C  C434  1  0.959100  0.866100  0.256300  1
  C  C435  1  0.866100  0.959100  0.743700  1
  C  C436  1  0.133900  0.040900  0.743700  1
  C  C437  1  0.004100  0.106500  0.256500  1
  C  C438  1  0.995900  0.893500  0.256500  1
  C  C439  1  0.893500  0.995900  0.743500  1
  C  C440  1  0.106500  0.004100  0.743500  1
  C  C441  1  0.988800  0.109200  0.284100  1
  C  C442  1  0.011200  0.890800  0.284100  1
  C  C443  1  0.890800  0.011200  0.715900  1
  C  C444  1  0.109200  0.988800  0.715900  1
  C  C445  1  0.014800  0.139800  0.298900  1
  C  C446  1  0.985200  0.860200  0.298900  1
  C  C447  1  0.860200  0.985200  0.701100  1
  C  C448  1  0.139800  0.014800  0.701100  1
  C  C449  1  0.010900  0.152900  0.332900  1
  C  C450  1  0.989100  0.847100  0.332900  1
  C  C451  1  0.847100  0.989100  0.667100  1
  C  C452  1  0.152900  0.010900  0.667100  1
  C  C453  1  0.087600  0.315400  0.384700  1
  C  C454  1  0.912400  0.684600  0.384700  1
  C  C455  1  0.684600  0.912400  0.615300  1
  C  C456  1  0.315400  0.087600  0.615300  1
  C  C457  1  0.117100  0.292100  0.377200  1
  C  C458  1  0.882900  0.707900  0.377200  1
  C  C459  1  0.707900  0.882900  0.622800  1
  C  C460  1  0.292100  0.117100  0.622800  1
  C  C461  1  0.151400  0.296200  0.387200  1
  C  C462  1  0.848600  0.703800  0.387200  1
  C  C463  1  0.703800  0.848600  0.612800  1
  C  C464  1  0.296200  0.151400  0.612800  1
  C  C465  1  0.159200  0.327200  0.413900  1
  C  C466  1  0.840800  0.672800  0.413900  1
  C  C467  1  0.672800  0.840800  0.586100  1
  C  C468  1  0.327200  0.159200  0.586100  1
  C  C469  1  0.127400  0.346600  0.423200  1
  C  C470  1  0.872600  0.653400  0.423200  1
  C  C471  1  0.653400  0.872600  0.576800  1
  C  C472  1  0.346600  0.127400  0.576800  1
  C  C473  1  0.179800  0.297400  0.201200  1
  C  C474  1  0.820200  0.702600  0.201200  1
  C  C475  1  0.702600  0.820200  0.798800  1
  C  C476  1  0.297400  0.179800  0.798800  1
  C  C477  1  0.186200  0.284400  0.231700  1
  C  C478  1  0.813800  0.715600  0.231700  1
  C  C479  1  0.715600  0.813800  0.768300  1
  C  C480  1  0.284400  0.186200  0.768300  1
  C  C481  1  0.222000  0.299200  0.244700  1
  C  C482  1  0.778000  0.700800  0.244700  1
  C  C483  1  0.700800  0.778000  0.755300  1
  C  C484  1  0.299200  0.222000  0.755300  1
  C  C485  1  0.245900  0.323500  0.229900  1
  C  C486  1  0.754100  0.676500  0.229900  1
  C  C487  1  0.676500  0.754100  0.770100  1
  C  C488  1  0.323500  0.245900  0.770100  1
  C  C489  1  0.236500  0.336300  0.198700  1
  C  C490  1  0.763500  0.663700  0.198700  1
  C  C491  1  0.663700  0.763500  0.801300  1
  C  C492  1  0.336300  0.236500  0.801300  1
  C  C493  1  0.049300  0.120100  0.176300  1
  C  C494  1  0.950700  0.879900  0.176300  1
  C  C495  1  0.879900  0.950700  0.823700  1
  C  C496  1  0.120100  0.049300  0.823700  1
  C  C497  1  0.060400  0.107800  0.206100  1
  C  C498  1  0.939600  0.892200  0.206100  1
  C  C499  1  0.892200  0.939600  0.793900  1
  C  C500  1  0.107800  0.060400  0.793900  1
  C  C501  1  0.064300  0.065300  0.212200  1
  C  C502  1  0.935700  0.934700  0.212200  1
  C  C503  1  0.934700  0.935700  0.787800  1
  C  C504  1  0.065300  0.064300  0.787800  1
  C  C505  1  0.053100  0.037700  0.189500  1
  C  C506  1  0.946900  0.962300  0.189500  1
  C  C507  1  0.962300  0.946900  0.810500  1
  C  C508  1  0.037700  0.053100  0.810500  1
  C  C509  1  0.038400  0.054400  0.158700  1
  C  C510  1  0.961600  0.945600  0.158700  1
  C  C511  1  0.945600  0.961600  0.841300  1
  C  C512  1  0.054400  0.038400  0.841300  1
  C  C513  1  0.943900  0.145500  0.361900  1
  C  C514  1  0.056100  0.854500  0.361900  1
  C  C515  1  0.854500  0.056100  0.638100  1
  C  C516  1  0.145500  0.943900  0.638100  1
  C  C517  1  0.976700  0.126100  0.346300  1
  C  C518  1  0.023300  0.873900  0.346300  1
  C  C519  1  0.873900  0.023300  0.653700  1
  C  C520  1  0.126100  0.976700  0.653700  1
  C  C521  1  0.975100  0.086500  0.353200  1
  C  C522  1  0.024900  0.913500  0.353200  1
  C  C523  1  0.913500  0.024900  0.646800  1
  C  C524  1  0.086500  0.975100  0.646800  1
  C  C525  1  0.944000  0.067400  0.371400  1
  C  C526  1  0.056000  0.932600  0.371400  1
  C  C527  1  0.932600  0.056000  0.628600  1
  C  C528  1  0.067400  0.944000  0.628600  1
  C  C529  1  0.922300  0.090300  0.385400  1
  C  C530  1  0.077700  0.909700  0.385400  1
  C  C531  1  0.909700  0.077700  0.614600  1
  C  C532  1  0.090300  0.922300  0.614600  1
  C  C533  1  0.796600  0.379600  0.397500  1
  C  C534  1  0.203400  0.620400  0.397500  1
  C  C535  1  0.620400  0.203400  0.602500  1
  C  C536  1  0.379600  0.796600  0.602500  1
  C  C537  1  0.804500  0.391100  0.429500  1
  C  C538  1  0.195500  0.608900  0.429500  1
  C  C539  1  0.608900  0.195500  0.570500  1
  C  C540  1  0.391100  0.804500  0.570500  1
  C  C541  1  0.785800  0.366400  0.453600  1
  C  C542  1  0.214200  0.633600  0.453600  1
  C  C543  1  0.633600  0.214200  0.546400  1
  C  C544  1  0.366400  0.785800  0.546400  1
  C  C545  1  0.745400  0.348400  0.444900  1
  C  C546  1  0.254600  0.651600  0.444900  1
  C  C547  1  0.651600  0.254600  0.555100  1
  C  C548  1  0.348400  0.745400  0.555100  1
  C  C549  1  0.737300  0.332300  0.412700  1
  C  C550  1  0.262700  0.667700  0.412700  1
  C  C551  1  0.667700  0.262700  0.587300  1
  C  C552  1  0.332300  0.737300  0.587300  1
  C  C553  1  0.750400  0.367200  0.391200  1
  C  C554  1  0.249600  0.632800  0.391200  1
  C  C555  1  0.632800  0.249600  0.608800  1
  C  C556  1  0.367200  0.750400  0.608800  1
  C  C557  1  0.848500  0.212900  0.429600  1
  C  C558  1  0.151500  0.787100  0.429600  1
  C  C559  1  0.787100  0.151500  0.570400  1
  C  C560  1  0.212900  0.848500  0.570400  1
  C  C561  1  0.815600  0.233400  0.447900  1
  C  C562  1  0.184400  0.766600  0.447900  1
  C  C563  1  0.766600  0.184400  0.552100  1
  C  C564  1  0.233400  0.815600  0.552100  1
  C  C565  1  0.833400  0.260800  0.473700  1
  C  C566  1  0.166600  0.739200  0.473700  1
  C  C567  1  0.739200  0.166600  0.526300  1
  C  C568  1  0.260800  0.833400  0.526300  1
  C  C569  1  0.861900  0.239100  0.492100  1
  C  C570  1  0.138100  0.760900  0.492100  1
  C  C571  1  0.760900  0.138100  0.507900  1
  C  C572  1  0.239100  0.861900  0.507900  1
  C  C573  1  0.896300  0.223900  0.474100  1
  C  C574  1  0.103700  0.776100  0.474100  1
  C  C575  1  0.776100  0.103700  0.525900  1
  C  C576  1  0.223900  0.896300  0.525900  1
  C  C577  1  0.873600  0.197200  0.448600  1
  C  C578  1  0.126400  0.802800  0.448600  1
  C  C579  1  0.802800  0.126400  0.551400  1
  C  C580  1  0.197200  0.873600  0.551400  1
  C  C581  1  0.986300  0.344500  0.458900  1
  C  C582  1  0.013700  0.655500  0.458900  1
  C  C583  1  0.655500  0.013700  0.541100  1
  C  C584  1  0.344500  0.986300  0.541100  1
  C  C585  1  0.969700  0.323500  0.492000  1
  C  C586  1  0.030300  0.676500  0.492000  1
  C  C587  1  0.676500  0.030300  0.508000  1
  C  C588  1  0.323500  0.969700  0.508000  1
  C  C589  1  0.930500  0.340100  0.499400  1
  C  C590  1  0.069500  0.659900  0.499400  1
  C  C591  1  0.659900  0.069500  0.500600  1
  C  C592  1  0.340100  0.930500  0.500600  1
  C  C593  1  0.934200  0.385400  0.502000  1
  C  C594  1  0.065800  0.614600  0.502000  1
  C  C595  1  0.614600  0.065800  0.498000  1
  C  C596  1  0.385400  0.934200  0.498000  1
  C  C597  1  0.943000  0.394000  0.468300  1
  C  C598  1  0.057000  0.606000  0.468300  1
  C  C599  1  0.606000  0.057000  0.531700  1
  C  C600  1  0.394000  0.943000  0.531700  1
  C  C601  1  0.987400  0.389600  0.464800  1
  C  C602  1  0.012600  0.610400  0.464800  1
  C  C603  1  0.610400  0.012600  0.535200  1
  C  C604  1  0.389600  0.987400  0.535200  1
  C  C605  1  0.005700  0.343300  0.026300  1
  C  C606  1  0.994300  0.656700  0.026300  1
  C  C607  1  0.656700  0.994300  0.973700  1
  C  C608  1  0.343300  0.005700  0.973700  1
  C  C609  1  0.053900  0.339100  0.022000  1
  C  C610  1  0.946100  0.660900  0.022000  1
  C  C611  1  0.660900  0.946100  0.978000  1
  C  C612  1  0.339100  0.053900  0.978000  1
  C  C613  1  0.061200  0.314000  0.995000  1
  C  C614  1  0.938800  0.686000  0.995000  1
  C  C615  1  0.686000  0.938800  0.005000  1
  C  C616  1  0.314000  0.061200  0.005000  1
  C  C617  1  0.043400  0.270800  0.004200  1
  C  C618  1  0.956600  0.729200  0.004200  1
  C  C619  1  0.729200  0.956600  0.995800  1
  C  C620  1  0.270800  0.043400  0.995800  1
  C  C621  1  0.998500  0.270900  0.006600  1
  C  C622  1  0.001500  0.729100  0.006600  1
  C  C623  1  0.729100  0.001500  0.993400  1
  C  C624  1  0.270900  0.998500  0.993400  1
  C  C625  1  0.989400  0.300400  0.031600  1
  C  C626  1  0.010600  0.699600  0.031600  1
  C  C627  1  0.699600  0.010600  0.968400  1
  C  C628  1  0.300400  0.989400  0.968400  1
  C  C629  1  0.035000  0.128000  0.051600  1
  C  C630  1  0.965000  0.872000  0.051600  1
  C  C631  1  0.872000  0.965000  0.948400  1
  C  C632  1  0.128000  0.035000  0.948400  1
  C  C633  1  0.028900  0.154300  0.023400  1
  C  C634  1  0.971100  0.845700  0.023400  1
  C  C635  1  0.845700  0.971100  0.976600  1
  C  C636  1  0.154300  0.028900  0.976600  1
  C  C637  1  0.066100  0.157500  0.006000  1
  C  C638  1  0.933900  0.842500  0.006000  1
  C  C639  1  0.842500  0.933900  0.994000  1
  C  C640  1  0.157500  0.066100  0.994000  1
  C  C641  1  0.101500  0.180500  0.024200  1
  C  C642  1  0.898500  0.819500  0.024200  1
  C  C643  1  0.819500  0.898500  0.975800  1
  C  C644  1  0.180500  0.101500  0.975800  1
  C  C645  1  0.105100  0.155300  0.052400  1
  C  C646  1  0.894900  0.844700  0.052400  1
  C  C647  1  0.844700  0.894900  0.947600  1
  C  C648  1  0.155300  0.105100  0.947600  1
  C  C649  1  0.070700  0.149300  0.070900  1
  C  C650  1  0.929300  0.850700  0.070900  1
  C  C651  1  0.850700  0.929300  0.929100  1
  C  C652  1  0.149300  0.070700  0.929100  1
  C  C653  1  0.196900  0.293700  0.089600  1
  C  C654  1  0.803100  0.706300  0.089600  1
  C  C655  1  0.706300  0.803100  0.910400  1
  C  C656  1  0.293700  0.196900  0.910400  1
  C  C657  1  0.194400  0.256400  0.072900  1
  C  C658  1  0.805600  0.743600  0.072900  1
  C  C659  1  0.743600  0.805600  0.927100  1
  C  C660  1  0.256400  0.194400  0.927100  1
  C  C661  1  0.192400  0.267000  0.037000  1
  C  C662  1  0.807600  0.733000  0.037000  1
  C  C663  1  0.733000  0.807600  0.963000  1
  C  C664  1  0.267000  0.192400  0.963000  1
  C  C665  1  0.165300  0.293300  0.031000  1
  C  C666  1  0.834700  0.706700  0.031000  1
  C  C667  1  0.706700  0.834700  0.969000  1
  C  C668  1  0.293300  0.165300  0.969000  1
  C  C669  1  0.170900  0.333900  0.047700  1
  C  C670  1  0.829100  0.666100  0.047700  1
  C  C671  1  0.666100  0.829100  0.952300  1
  C  C672  1  0.333900  0.170900  0.952300  1
  C  C673  1  0.167400  0.322000  0.082300  1
  C  C674  1  0.832600  0.678000  0.082300  1
  C  C675  1  0.678000  0.832600  0.917700  1
  C  C676  1  0.322000  0.167400  0.917700  1
  C  C677  1  0.544400  0.265800  0.299100  1
  C  C678  1  0.455600  0.734200  0.299100  1
  C  C679  1  0.734200  0.455600  0.700900  1
  C  C680  1  0.265800  0.544400  0.700900  1
  C  C681  1  0.535200  0.225800  0.283400  1
  C  C682  1  0.464800  0.774200  0.283400  1
  C  C683  1  0.774200  0.464800  0.716600  1
  C  C684  1  0.225800  0.535200  0.716600  1
  C  C685  1  0.417300  0.161500  0.274000  1
  C  C686  1  0.582700  0.838500  0.274000  1
  C  C687  1  0.838500  0.582700  0.726000  1
  C  C688  1  0.161500  0.417300  0.726000  1
  C  C689  1  0.386800  0.166400  0.299600  1
  C  C690  1  0.613200  0.833600  0.299600  1
  C  C691  1  0.833600  0.613200  0.700400  1
  C  C692  1  0.166400  0.386800  0.700400  1
  C  C693  1  0.416600  0.192800  0.248200  1
  C  C694  1  0.583400  0.807200  0.248200  1
  C  C695  1  0.807200  0.583400  0.751800  1
  C  C696  1  0.192800  0.416600  0.751800  1
  C  C697  1  0.433600  0.260200  0.229000  1
  C  C698  1  0.566400  0.739800  0.229000  1
  C  C699  1  0.739800  0.566400  0.771000  1
  C  C700  1  0.260200  0.433600  0.771000  1
  C  C701  1  0.463100  0.300100  0.241300  1
  C  C702  1  0.536900  0.699900  0.241300  1
  C  C703  1  0.699900  0.536900  0.758700  1
  C  C704  1  0.300100  0.463100  0.758700  1
  C  C705  1  0.450900  0.244500  0.200400  1
  C  C706  1  0.549100  0.755500  0.200400  1
  C  C707  1  0.755500  0.549100  0.799600  1
  C  C708  1  0.244500  0.450900  0.799600  1
  C  C709  1  0.502800  0.205600  0.177700  1
  C  C710  1  0.497200  0.794400  0.177700  1
  C  C711  1  0.794400  0.497200  0.822300  1
  C  C712  1  0.205600  0.502800  0.822300  1
  C  C713  1  0.534500  0.179500  0.191300  1
  C  C714  1  0.465500  0.820500  0.191300  1
  C  C715  1  0.820500  0.465500  0.808700  1
  C  C716  1  0.179500  0.534500  0.808700  1
  C  C717  1  0.470900  0.180900  0.158200  1
  C  C718  1  0.529100  0.819100  0.158200  1
  C  C719  1  0.819100  0.529100  0.841800  1
  C  C720  1  0.180900  0.470900  0.841800  1
  C  C721  1  0.527900  0.152900  0.287900  1
  C  C722  1  0.472100  0.847100  0.287900  1
  C  C723  1  0.847100  0.472100  0.712100  1
  C  C724  1  0.152900  0.527900  0.712100  1
  C  C725  1  0.487500  0.147900  0.272600  1
  C  C726  1  0.512500  0.852100  0.272600  1
  C  C727  1  0.852100  0.512500  0.727400  1
  C  C728  1  0.147900  0.487500  0.727400  1
  C  C729  1  0.470000  0.061200  0.180000  1
  C  C730  1  0.530000  0.938800  0.180000  1
  C  C731  1  0.938800  0.530000  0.820000  1
  C  C732  1  0.061200  0.470000  0.820000  1
  C  C733  1  0.444800  0.059000  0.156500  1
  C  C734  1  0.555200  0.941000  0.156500  1
  C  C735  1  0.941000  0.555200  0.843500  1
  C  C736  1  0.059000  0.444800  0.843500  1
  C  C737  1  0.406600  0.055400  0.167400  1
  C  C738  1  0.593400  0.944600  0.167400  1
  C  C739  1  0.944600  0.593400  0.832600  1
  C  C740  1  0.055400  0.406600  0.832600  1
  C  C741  1  0.410800  0.056000  0.202100  1
  C  C742  1  0.589200  0.944000  0.202100  1
  C  C743  1  0.944000  0.589200  0.797900  1
  C  C744  1  0.056000  0.410800  0.797900  1
  C  C745  1  0.379800  0.052000  0.221600  1
  C  C746  1  0.620200  0.948000  0.221600  1
  C  C747  1  0.948000  0.620200  0.778400  1
  C  C748  1  0.052000  0.379800  0.778400  1
  C  C749  1  0.381200  0.057200  0.251600  1
  C  C750  1  0.618800  0.942800  0.251600  1
  C  C751  1  0.942800  0.618800  0.748400  1
  C  C752  1  0.057200  0.381200  0.748400  1
  C  C753  1  0.350300  0.058500  0.270400  1
  C  C754  1  0.649700  0.941500  0.270400  1
  C  C755  1  0.941500  0.649700  0.729600  1
  C  C756  1  0.058500  0.350300  0.729600  1
  C  C757  1  0.362900  0.058900  0.297400  1
  C  C758  1  0.637100  0.941100  0.297400  1
  C  C759  1  0.941100  0.637100  0.702600  1
  C  C760  1  0.058900  0.362900  0.702600  1
  C  C761  1  0.405700  0.058900  0.296700  1
  C  C762  1  0.594300  0.941100  0.296700  1
  C  C763  1  0.941100  0.594300  0.703300  1
  C  C764  1  0.058900  0.405700  0.703300  1
  C  C765  1  0.434300  0.056300  0.321700  1
  C  C766  1  0.565700  0.943700  0.321700  1
  C  C767  1  0.943700  0.565700  0.678300  1
  C  C768  1  0.056300  0.434300  0.678300  1
  C  C769  1  0.471300  0.056700  0.318300  1
  C  C770  1  0.528700  0.943300  0.318300  1
  C  C771  1  0.943300  0.528700  0.681700  1
  C  C772  1  0.056700  0.471300  0.681700  1
  C  C773  1  0.501000  0.050200  0.342600  1
  C  C774  1  0.499000  0.949800  0.342600  1
  C  C775  1  0.949800  0.499000  0.657400  1
  C  C776  1  0.050200  0.501000  0.657400  1
  C  C777  1  0.533500  0.048100  0.331700  1
  C  C778  1  0.466500  0.951900  0.331700  1
  C  C779  1  0.951900  0.466500  0.668300  1
  C  C780  1  0.048100  0.533500  0.668300  1
  C  C781  1  0.533700  0.053300  0.299300  1
  C  C782  1  0.466300  0.946700  0.299300  1
  C  C783  1  0.946700  0.466300  0.700700  1
  C  C784  1  0.053300  0.533700  0.700700  1
  C  C785  1  0.565300  0.059900  0.279900  1
  C  C786  1  0.434700  0.940100  0.279900  1
  C  C787  1  0.940100  0.434700  0.720100  1
  C  C788  1  0.059900  0.565300  0.720100  1
  C  C789  1  0.564800  0.064200  0.249500  1
  C  C790  1  0.435200  0.935800  0.249500  1
  C  C791  1  0.935800  0.435200  0.750500  1
  C  C792  1  0.064200  0.564800  0.750500  1
  C  C793  1  0.597900  0.072500  0.228600  1
  C  C794  1  0.402100  0.927500  0.228600  1
  C  C795  1  0.927500  0.402100  0.771400  1
  C  C796  1  0.072500  0.597900  0.771400  1
  C  C797  1  0.583200  0.073600  0.198500  1
  C  C798  1  0.416800  0.926400  0.198500  1
  C  C799  1  0.926400  0.416800  0.801500  1
  C  C800  1  0.073600  0.583200  0.801500  1
  C  C801  1  0.537000  0.065400  0.202300  1
  C  C802  1  0.463000  0.934600  0.202300  1
  C  C803  1  0.934600  0.463000  0.797700  1
  C  C804  1  0.065400  0.537000  0.797700  1
  C  C805  1  0.512000  0.065600  0.178400  1
  C  C806  1  0.488000  0.934400  0.178400  1
  C  C807  1  0.934400  0.488000  0.821600  1
  C  C808  1  0.065600  0.512000  0.821600  1
  C  C809  1  0.315700  0.070700  0.195600  1
  C  C810  1  0.684300  0.929300  0.195600  1
  C  C811  1  0.929300  0.684300  0.804400  1
  C  C812  1  0.070700  0.315700  0.804400  1
  C  C813  1  0.338000  0.040800  0.207600  1
  C  C814  1  0.662000  0.959200  0.207600  1
  C  C815  1  0.959200  0.662000  0.792400  1
  C  C816  1  0.040800  0.338000  0.792400  1
  C  C817  1  0.322600  0.003800  0.207400  1
  C  C818  1  0.677400  0.996200  0.207400  1
  C  C819  1  0.996200  0.677400  0.792600  1
  C  C820  1  0.003800  0.322600  0.792600  1
  C  C821  1  0.285200  0.991200  0.192900  1
  C  C822  1  0.714800  0.008800  0.192900  1
  C  C823  1  0.008800  0.714800  0.807100  1
  C  C824  1  0.991200  0.285200  0.807100  1
  C  C825  1  0.260500  0.022100  0.186900  1
  C  C826  1  0.739500  0.977900  0.186900  1
  C  C827  1  0.977900  0.739500  0.813100  1
  C  C828  1  0.022100  0.260500  0.813100  1
  C  C829  1  0.426700  0.082700  0.371800  1
  C  C830  1  0.573300  0.917300  0.371800  1
  C  C831  1  0.917300  0.573300  0.628200  1
  C  C832  1  0.082700  0.426700  0.628200  1
  C  C833  1  0.418100  0.053900  0.352100  1
  C  C834  1  0.581900  0.946100  0.352100  1
  C  C835  1  0.946100  0.581900  0.647900  1
  C  C836  1  0.053900  0.418100  0.647900  1
  C  C837  1  0.386700  0.020100  0.361400  1
  C  C838  1  0.613300  0.979900  0.361400  1
  C  C839  1  0.979900  0.613300  0.638600  1
  C  C840  1  0.020100  0.386700  0.638600  1
  C  C841  1  0.372600  0.018600  0.391700  1
  C  C842  1  0.627400  0.981400  0.391700  1
  C  C843  1  0.981400  0.627400  0.608300  1
  C  C844  1  0.018600  0.372600  0.608300  1
  C  C845  1  0.383800  0.049200  0.407700  1
  C  C846  1  0.616200  0.950800  0.407700  1
  C  C847  1  0.950800  0.616200  0.592300  1
  C  C848  1  0.049200  0.383800  0.592300  1
  C  C849  1  0.617100  0.091300  0.313300  1
  C  C850  1  0.382900  0.908700  0.313300  1
  C  C851  1  0.908700  0.382900  0.686700  1
  C  C852  1  0.091300  0.617100  0.686700  1
  C  C853  1  0.606000  0.066000  0.293600  1
  C  C854  1  0.394000  0.934000  0.293600  1
  C  C855  1  0.934000  0.394000  0.706400  1
  C  C856  1  0.066000  0.606000  0.706400  1
  C  C857  1  0.632800  0.034800  0.286600  1
  C  C858  1  0.367200  0.965200  0.286600  1
  C  C859  1  0.965200  0.367200  0.713400  1
  C  C860  1  0.034800  0.632800  0.713400  1
  C  C861  1  0.668600  0.039600  0.303100  1
  C  C862  1  0.331400  0.960400  0.303100  1
  C  C863  1  0.960400  0.331400  0.696900  1
  C  C864  1  0.039600  0.668600  0.696900  1
  C  C865  1  0.677300  0.068700  0.319500  1
  C  C866  1  0.322700  0.931300  0.319500  1
  C  C867  1  0.931300  0.322700  0.680500  1
  C  C868  1  0.068700  0.677300  0.680500  1
  C  C869  1  0.524900  0.094700  0.124700  1
  C  C870  1  0.475100  0.905300  0.124700  1
  C  C871  1  0.905300  0.475100  0.875300  1
  C  C872  1  0.094700  0.524900  0.875300  1
  C  C873  1  0.530500  0.064900  0.147500  1
  C  C874  1  0.469500  0.935100  0.147500  1
  C  C875  1  0.935100  0.469500  0.852500  1
  C  C876  1  0.064900  0.530500  0.852500  1
  C  C877  1  0.552000  0.035800  0.139200  1
  C  C878  1  0.448000  0.964200  0.139200  1
  C  C879  1  0.964200  0.448000  0.860800  1
  C  C880  1  0.035800  0.552000  0.860800  1
  C  C881  1  0.573400  0.036800  0.108300  1
  C  C882  1  0.426600  0.963200  0.108300  1
  C  C883  1  0.963200  0.426600  0.891700  1
  C  C884  1  0.036800  0.573400  0.891700  1
  C  C885  1  0.571500  0.066300  0.089400  1
  C  C886  1  0.428500  0.933700  0.089400  1
  C  C887  1  0.933700  0.428500  0.910600  1
  C  C888  1  0.066300  0.571500  0.910600  1
  C  C889  1  0.299600  0.234200  0.243500  1
  C  C890  1  0.700400  0.765800  0.243500  1
  C  C891  1  0.765800  0.700400  0.756500  1
  C  C892  1  0.234200  0.299600  0.756500  1
  C  C893  1  0.288700  0.238500  0.212400  1
  C  C894  1  0.711300  0.761500  0.212400  1
  C  C895  1  0.761500  0.711300  0.787600  1
  C  C896  1  0.238500  0.288700  0.787600  1
  C  C897  1  0.313100  0.272100  0.204000  1
  C  C898  1  0.686900  0.727900  0.204000  1
  C  C899  1  0.727900  0.686900  0.796000  1
  C  C900  1  0.272100  0.313100  0.796000  1
  C  C901  1  0.333500  0.288300  0.232500  1
  C  C902  1  0.666500  0.711700  0.232500  1
  C  C903  1  0.711700  0.666500  0.767500  1
  C  C904  1  0.288300  0.333500  0.767500  1
  C  C905  1  0.356100  0.326300  0.232200  1
  C  C906  1  0.643900  0.673700  0.232200  1
  C  C907  1  0.673700  0.643900  0.767800  1
  C  C908  1  0.326300  0.356100  0.767800  1
  C  C909  1  0.378600  0.341800  0.255800  1
  C  C910  1  0.621400  0.658200  0.255800  1
  C  C911  1  0.658200  0.621400  0.744200  1
  C  C912  1  0.341800  0.378600  0.744200  1
  C  C913  1  0.409800  0.374600  0.256600  1
  C  C914  1  0.590200  0.625400  0.256600  1
  C  C915  1  0.625400  0.590200  0.743400  1
  C  C916  1  0.374600  0.409800  0.743400  1
  C  C917  1  0.421000  0.383200  0.284700  1
  C  C918  1  0.579000  0.616800  0.284700  1
  C  C919  1  0.616800  0.579000  0.715300  1
  C  C920  1  0.383200  0.421000  0.715300  1
  C  C921  1  0.403300  0.351500  0.302600  1
  C  C922  1  0.596700  0.648500  0.302600  1
  C  C923  1  0.648500  0.596700  0.697400  1
  C  C924  1  0.351500  0.403300  0.697400  1
  C  C925  1  0.407600  0.343000  0.332900  1
  C  C926  1  0.592400  0.657000  0.332900  1
  C  C927  1  0.657000  0.592400  0.667100  1
  C  C928  1  0.343000  0.407600  0.667100  1
  C  C929  1  0.393300  0.312900  0.347500  1
  C  C930  1  0.606700  0.687100  0.347500  1
  C  C931  1  0.687100  0.606700  0.652500  1
  C  C932  1  0.312900  0.393300  0.652500  1
  C  C933  1  0.400000  0.305400  0.380700  1
  C  C934  1  0.600000  0.694600  0.380700  1
  C  C935  1  0.694600  0.600000  0.619300  1
  C  C936  1  0.305400  0.400000  0.619300  1
  C  C937  1  0.382600  0.271200  0.388700  1
  C  C938  1  0.617400  0.728800  0.388700  1
  C  C939  1  0.728800  0.617400  0.611300  1
  C  C940  1  0.271200  0.382600  0.611300  1
  C  C941  1  0.360600  0.254000  0.360700  1
  C  C942  1  0.639400  0.746000  0.360700  1
  C  C943  1  0.746000  0.639400  0.639300  1
  C  C944  1  0.254000  0.360600  0.639300  1
  C  C945  1  0.336700  0.219100  0.362300  1
  C  C946  1  0.663300  0.780900  0.362300  1
  C  C947  1  0.780900  0.663300  0.637700  1
  C  C948  1  0.219100  0.336700  0.637700  1
  C  C949  1  0.317200  0.200400  0.335400  1
  C  C950  1  0.682800  0.799600  0.335400  1
  C  C951  1  0.799600  0.682800  0.664600  1
  C  C952  1  0.200400  0.317200  0.664600  1
  C  C953  1  0.294500  0.162700  0.334900  1
  C  C954  1  0.705500  0.837300  0.334900  1
  C  C955  1  0.837300  0.705500  0.665100  1
  C  C956  1  0.162700  0.294500  0.665100  1
  C  C957  1  0.279300  0.159500  0.303500  1
  C  C958  1  0.720700  0.840500  0.303500  1
  C  C959  1  0.840500  0.720700  0.696500  1
  C  C960  1  0.159500  0.279300  0.696500  1
  C  C961  1  0.289300  0.191500  0.287800  1
  C  C962  1  0.710700  0.808500  0.287800  1
  C  C963  1  0.808500  0.710700  0.712200  1
  C  C964  1  0.191500  0.289300  0.712200  1
  C  C965  1  0.283800  0.199800  0.259500  1
  C  C966  1  0.716200  0.800200  0.259500  1
  C  C967  1  0.800200  0.716200  0.740500  1
  C  C968  1  0.199800  0.283800  0.740500  1
  C  C969  1  0.371600  0.339400  0.176300  1
  C  C970  1  0.628400  0.660600  0.176300  1
  C  C971  1  0.660600  0.628400  0.823700  1
  C  C972  1  0.339400  0.371600  0.823700  1
  C  C973  1  0.358300  0.350500  0.203000  1
  C  C974  1  0.641700  0.649500  0.203000  1
  C  C975  1  0.649500  0.641700  0.797000  1
  C  C976  1  0.350500  0.358300  0.797000  1
  C  C977  1  0.342300  0.387300  0.206400  1
  C  C978  1  0.657700  0.612700  0.206400  1
  C  C979  1  0.612700  0.657700  0.793600  1
  C  C980  1  0.387300  0.342300  0.793600  1
  C  C981  1  0.345300  0.414300  0.180500  1
  C  C982  1  0.654700  0.585700  0.180500  1
  C  C983  1  0.585700  0.654700  0.819500  1
  C  C984  1  0.414300  0.345300  0.819500  1
  C  C985  1  0.357700  0.398900  0.151500  1
  C  C986  1  0.642300  0.601100  0.151500  1
  C  C987  1  0.601100  0.642300  0.848500  1
  C  C988  1  0.398900  0.357700  0.848500  1
  C  C989  1  0.477400  0.366400  0.358100  1
  C  C990  1  0.522600  0.633600  0.358100  1
  C  C991  1  0.633600  0.522600  0.641900  1
  C  C992  1  0.366400  0.477400  0.641900  1
  C  C993  1  0.437700  0.373700  0.348200  1
  C  C994  1  0.562300  0.626300  0.348200  1
  C  C995  1  0.626300  0.562300  0.651800  1
  C  C996  1  0.373700  0.437700  0.651800  1
  C  C997  1  0.424400  0.413200  0.353700  1
  C  C998  1  0.575600  0.586800  0.353700  1
  C  C999  1  0.586800  0.575600  0.646300  1
  C  C1000  1  0.413200  0.424400  0.646300  1
  C  C1001  1  0.454300  0.444900  0.368000  1
  C  C1002  1  0.545700  0.555100  0.368000  1
  C  C1003  1  0.555100  0.545700  0.632000  1
  C  C1004  1  0.444900  0.454300  0.632000  1
  C  C1005  1  0.488900  0.433300  0.376200  1
  C  C1006  1  0.511100  0.566700  0.376200  1
  C  C1007  1  0.566700  0.511100  0.623800  1
  C  C1008  1  0.433300  0.488900  0.623800  1
  C  C1009  1  0.371800  0.176600  0.393100  1
  C  C1010  1  0.628200  0.823400  0.393100  1
  C  C1011  1  0.823400  0.628200  0.606900  1
  C  C1012  1  0.176600  0.371800  0.606900  1
  C  C1013  1  0.339400  0.193400  0.388400  1
  C  C1014  1  0.660600  0.806600  0.388400  1
  C  C1015  1  0.806600  0.660600  0.611600  1
  C  C1016  1  0.193400  0.339400  0.611600  1
  C  C1017  1  0.301800  0.179400  0.403600  1
  C  C1018  1  0.698200  0.820600  0.403600  1
  C  C1019  1  0.820600  0.698200  0.596400  1
  C  C1020  1  0.179400  0.301800  0.596400  1
  C  C1021  1  0.305100  0.154900  0.428700  1
  C  C1022  1  0.694900  0.845100  0.428700  1
  C  C1023  1  0.845100  0.694900  0.571300  1
  C  C1024  1  0.154900  0.305100  0.571300  1
  C  C1025  1  0.344400  0.143000  0.437500  1
  C  C1026  1  0.655600  0.857000  0.437500  1
  C  C1027  1  0.857000  0.655600  0.562500  1
  C  C1028  1  0.143000  0.344400  0.562500  1
  C  C1029  1  0.261600  0.150000  0.220300  1
  C  C1030  1  0.738400  0.850000  0.220300  1
  C  C1031  1  0.850000  0.738400  0.779700  1
  C  C1032  1  0.150000  0.261600  0.779700  1
  C  C1033  1  0.253300  0.168700  0.246500  1
  C  C1034  1  0.746700  0.831300  0.246500  1
  C  C1035  1  0.831300  0.746700  0.753500  1
  C  C1036  1  0.168700  0.253300  0.753500  1
  C  C1037  1  0.217000  0.157800  0.258400  1
  C  C1038  1  0.783000  0.842200  0.258400  1
  C  C1039  1  0.842200  0.783000  0.741600  1
  C  C1040  1  0.157800  0.217000  0.741600  1
  C  C1041  1  0.190200  0.135200  0.245300  1
  C  C1042  1  0.809800  0.864800  0.245300  1
  C  C1043  1  0.864800  0.809800  0.754700  1
  C  C1044  1  0.135200  0.190200  0.754700  1
  C  C1045  1  0.193800  0.112000  0.217500  1
  C  C1046  1  0.806200  0.888000  0.217500  1
  C  C1047  1  0.888000  0.806200  0.782500  1
  C  C1048  1  0.112000  0.193800  0.782500  1
  C  C1049  1  0.552300  0.323100  0.153300  1
  C  C1050  1  0.447700  0.676900  0.153300  1
  C  C1051  1  0.676900  0.447700  0.846700  1
  C  C1052  1  0.323100  0.552300  0.846700  1
  C  C1053  1  0.549400  0.311000  0.121900  1
  C  C1054  1  0.450600  0.689000  0.121900  1
  C  C1055  1  0.689000  0.450600  0.878100  1
  C  C1056  1  0.311000  0.549400  0.878100  1
  C  C1057  1  0.564800  0.280000  0.115300  1
  C  C1058  1  0.435200  0.720000  0.115300  1
  C  C1059  1  0.720000  0.435200  0.884700  1
  C  C1060  1  0.280000  0.564800  0.884700  1
  C  C1061  1  0.583800  0.269200  0.141900  1
  C  C1062  1  0.416200  0.730800  0.141900  1
  C  C1063  1  0.730800  0.416200  0.858100  1
  C  C1064  1  0.269200  0.583800  0.858100  1
  C  C1065  1  0.606100  0.237900  0.147200  1
  C  C1066  1  0.393900  0.762100  0.147200  1
  C  C1067  1  0.762100  0.393900  0.852800  1
  C  C1068  1  0.237900  0.606100  0.852800  1
  C  C1069  1  0.623400  0.227200  0.171900  1
  C  C1070  1  0.376600  0.772800  0.171900  1
  C  C1071  1  0.772800  0.376600  0.828100  1
  C  C1072  1  0.227200  0.623400  0.828100  1
  C  C1073  1  0.638300  0.190900  0.178400  1
  C  C1074  1  0.361700  0.809100  0.178400  1
  C  C1075  1  0.809100  0.361700  0.821600  1
  C  C1076  1  0.190900  0.638300  0.821600  1
  C  C1077  1  0.650600  0.187400  0.205100  1
  C  C1078  1  0.349400  0.812600  0.205100  1
  C  C1079  1  0.812600  0.349400  0.794900  1
  C  C1080  1  0.187400  0.650600  0.794900  1
  C  C1081  1  0.645900  0.227100  0.219300  1
  C  C1082  1  0.354100  0.772900  0.219300  1
  C  C1083  1  0.772900  0.354100  0.780700  1
  C  C1084  1  0.227100  0.645900  0.780700  1
  C  C1085  1  0.654300  0.239700  0.249500  1
  C  C1086  1  0.345700  0.760300  0.249500  1
  C  C1087  1  0.760300  0.345700  0.750500  1
  C  C1088  1  0.239700  0.654300  0.750500  1
  C  C1089  1  0.646800  0.275000  0.264500  1
  C  C1090  1  0.353200  0.725000  0.264500  1
  C  C1091  1  0.725000  0.353200  0.735500  1
  C  C1092  1  0.275000  0.646800  0.735500  1
  C  C1093  1  0.659900  0.289700  0.291700  1
  C  C1094  1  0.340100  0.710300  0.291700  1
  C  C1095  1  0.710300  0.340100  0.708300  1
  C  C1096  1  0.289700  0.659900  0.708300  1
  C  C1097  1  0.645400  0.319400  0.299600  1
  C  C1098  1  0.354600  0.680600  0.299600  1
  C  C1099  1  0.680600  0.354600  0.700400  1
  C  C1100  1  0.319400  0.645400  0.700400  1
  C  C1101  1  0.619800  0.328400  0.271500  1
  C  C1102  1  0.380200  0.671600  0.271500  1
  C  C1103  1  0.671600  0.380200  0.728500  1
  C  C1104  1  0.328400  0.619800  0.728500  1
  C  C1105  1  0.598300  0.359100  0.269900  1
  C  C1106  1  0.401700  0.640900  0.269900  1
  C  C1107  1  0.640900  0.401700  0.730100  1
  C  C1108  1  0.359100  0.598300  0.730100  1
  C  C1109  1  0.572700  0.365500  0.245600  1
  C  C1110  1  0.427300  0.634500  0.245600  1
  C  C1111  1  0.634500  0.427300  0.754400  1
  C  C1112  1  0.365500  0.572700  0.754400  1
  C  C1113  1  0.543200  0.395800  0.243200  1
  C  C1114  1  0.456800  0.604200  0.243200  1
  C  C1115  1  0.604200  0.456800  0.756800  1
  C  C1116  1  0.395800  0.543200  0.756800  1
  C  C1117  1  0.527100  0.391500  0.217300  1
  C  C1118  1  0.472900  0.608500  0.217300  1
  C  C1119  1  0.608500  0.472900  0.782700  1
  C  C1120  1  0.391500  0.527100  0.782700  1
  C  C1121  1  0.544600  0.361800  0.203200  1
  C  C1122  1  0.455400  0.638200  0.203200  1
  C  C1123  1  0.638200  0.455400  0.796800  1
  C  C1124  1  0.361800  0.544600  0.796800  1
  C  C1125  1  0.533800  0.353600  0.172900  1
  C  C1126  1  0.466200  0.646400  0.172900  1
  C  C1127  1  0.646400  0.466200  0.827100  1
  C  C1128  1  0.353600  0.533800  0.827100  1
  C  C1129  1  0.576300  0.192100  0.105400  1
  C  C1130  1  0.423700  0.807900  0.105400  1
  C  C1131  1  0.807900  0.423700  0.894600  1
  C  C1132  1  0.192100  0.576300  0.894600  1
  C  C1133  1  0.608400  0.214000  0.121000  1
  C  C1134  1  0.391600  0.786000  0.121000  1
  C  C1135  1  0.786000  0.391600  0.879000  1
  C  C1136  1  0.214000  0.608400  0.879000  1
  C  C1137  1  0.645300  0.209100  0.105900  1
  C  C1138  1  0.354700  0.790900  0.105900  1
  C  C1139  1  0.790900  0.354700  0.894100  1
  C  C1140  1  0.209100  0.645300  0.894100  1
  C  C1141  1  0.649400  0.186000  0.084000  1
  C  C1142  1  0.350600  0.814000  0.084000  1
  C  C1143  1  0.814000  0.350600  0.916000  1
  C  C1144  1  0.186000  0.649400  0.916000  1
  C  C1145  1  0.616400  0.167000  0.071300  1
  C  C1146  1  0.383600  0.833000  0.071300  1
  C  C1147  1  0.833000  0.383600  0.928700  1
  C  C1148  1  0.167000  0.616400  0.928700  1
  C  C1149  1  0.668400  0.198400  0.294300  1
  C  C1150  1  0.331600  0.801600  0.294300  1
  C  C1151  1  0.801600  0.331600  0.705700  1
  C  C1152  1  0.198400  0.668400  0.705700  1
  C  C1153  1  0.679500  0.211300  0.264700  1
  C  C1154  1  0.320500  0.788700  0.264700  1
  C  C1155  1  0.788700  0.320500  0.735300  1
  C  C1156  1  0.211300  0.679500  0.735300  1
  C  C1157  1  0.712300  0.197700  0.254400  1
  C  C1158  1  0.287700  0.802300  0.254400  1
  C  C1159  1  0.802300  0.287700  0.745600  1
  C  C1160  1  0.197700  0.712300  0.745600  1
  C  C1161  1  0.732000  0.170600  0.267700  1
  C  C1162  1  0.268000  0.829400  0.267700  1
  C  C1163  1  0.829400  0.268000  0.732300  1
  C  C1164  1  0.170600  0.732000  0.732300  1
  C  C1165  1  0.717900  0.157900  0.294600  1
  C  C1166  1  0.282100  0.842100  0.294600  1
  C  C1167  1  0.842100  0.282100  0.705400  1
  C  C1168  1  0.157900  0.717900  0.705400  1
  C  C1169  1  0.579800  0.375400  0.322400  1
  C  C1170  1  0.420200  0.624600  0.322400  1
  C  C1171  1  0.624600  0.420200  0.677600  1
  C  C1172  1  0.375400  0.579800  0.677600  1
  C  C1173  1  0.598300  0.388300  0.297100  1
  C  C1174  1  0.401700  0.611700  0.297100  1
  C  C1175  1  0.611700  0.401700  0.702900  1
  C  C1176  1  0.388300  0.598300  0.702900  1
  C  C1177  1  0.608800  0.427000  0.294000  1
  C  C1178  1  0.391200  0.573000  0.294000  1
  C  C1179  1  0.573000  0.391200  0.706000  1
  C  C1180  1  0.427000  0.608800  0.706000  1
  C  C1181  1  0.606500  0.451100  0.318400  1
  C  C1182  1  0.393500  0.548900  0.318400  1
  C  C1183  1  0.548900  0.393500  0.681600  1
  C  C1184  1  0.451100  0.606500  0.681600  1
  C  C1185  1  0.589200  0.437600  0.345400  1
  C  C1186  1  0.410800  0.562400  0.345400  1
  C  C1187  1  0.562400  0.410800  0.654600  1
  C  C1188  1  0.437600  0.589200  0.654600  1
  C  C1189  1  0.470600  0.355600  0.142200  1
  C  C1190  1  0.529400  0.644400  0.142200  1
  C  C1191  1  0.644400  0.529400  0.857800  1
  C  C1192  1  0.355600  0.470600  0.857800  1
  C  C1193  1  0.505400  0.374800  0.154800  1
  C  C1194  1  0.494600  0.625200  0.154800  1
  C  C1195  1  0.625200  0.494600  0.845200  1
  C  C1196  1  0.374800  0.505400  0.845200  1
  C  C1197  1  0.519000  0.415200  0.146800  1
  C  C1198  1  0.481000  0.584800  0.146800  1
  C  C1199  1  0.584800  0.481000  0.853200  1
  C  C1200  1  0.415200  0.519000  0.853200  1
  C  C1201  1  0.498000  0.433600  0.127800  1
  C  C1202  1  0.502000  0.566400  0.127800  1
  C  C1203  1  0.566400  0.502000  0.872200  1
  C  C1204  1  0.433600  0.498000  0.872200  1
  C  C1205  1  0.464600  0.408400  0.119900  1
  C  C1206  1  0.535400  0.591600  0.119900  1
  C  C1207  1  0.591600  0.535400  0.880100  1
  C  C1208  1  0.408400  0.464600  0.880100  1
  C  C1209  1  0.257400  0.110400  0.102400  1
  C  C1210  1  0.742600  0.889600  0.102400  1
  C  C1211  1  0.889600  0.742600  0.897600  1
  C  C1212  1  0.110400  0.257400  0.897600  1
  C  C1213  1  0.259400  0.093600  0.069800  1
  C  C1214  1  0.740600  0.906400  0.069800  1
  C  C1215  1  0.906400  0.740600  0.930200  1
  C  C1216  1  0.093600  0.259400  0.930200  1
  C  C1217  1  0.249700  0.127900  0.049600  1
  C  C1218  1  0.750300  0.872100  0.049600  1
  C  C1219  1  0.872100  0.750300  0.950400  1
  C  C1220  1  0.127900  0.249700  0.950400  1
  C  C1221  1  0.210900  0.146100  0.054500  1
  C  C1222  1  0.789100  0.853900  0.054500  1
  C  C1223  1  0.853900  0.789100  0.945500  1
  C  C1224  1  0.146100  0.210900  0.945500  1
  C  C1225  1  0.213300  0.161700  0.089100  1
  C  C1226  1  0.786700  0.838300  0.089100  1
  C  C1227  1  0.838300  0.786700  0.910900  1
  C  C1228  1  0.161700  0.213300  0.910900  1
  C  C1229  1  0.218700  0.127700  0.108500  1
  C  C1230  1  0.781300  0.872300  0.108500  1
  C  C1231  1  0.872300  0.781300  0.891500  1
  C  C1232  1  0.127700  0.218700  0.891500  1
  C  C1233  1  0.350000  0.289400  0.073200  1
  C  C1234  1  0.650000  0.710600  0.073200  1
  C  C1235  1  0.710600  0.650000  0.926800  1
  C  C1236  1  0.289400  0.350000  0.926800  1
  C  C1237  1  0.314200  0.273200  0.054800  1
  C  C1238  1  0.685800  0.726800  0.054800  1
  C  C1239  1  0.726800  0.685800  0.945200  1
  C  C1240  1  0.273200  0.314200  0.945200  1
  C  C1241  1  0.327400  0.248200  0.028300  1
  C  C1242  1  0.672600  0.751800  0.028300  1
  C  C1243  1  0.751800  0.672600  0.971700  1
  C  C1244  1  0.248200  0.327400  0.971700  1
  C  C1245  1  0.357500  0.275900  0.009300  1
  C  C1246  1  0.642500  0.724100  0.009300  1
  C  C1247  1  0.724100  0.642500  0.990700  1
  C  C1248  1  0.275900  0.357500  0.990700  1
  C  C1249  1  0.394300  0.286300  0.029600  1
  C  C1250  1  0.605700  0.713700  0.029600  1
  C  C1251  1  0.713700  0.605700  0.970400  1
  C  C1252  1  0.286300  0.394300  0.970400  1
  C  C1253  1  0.381600  0.314200  0.054200  1
  C  C1254  1  0.618400  0.685800  0.054200  1
  C  C1255  1  0.685800  0.618400  0.945800  1
  C  C1256  1  0.314200  0.381600  0.945800  1
  C  C1257  1  0.468200  0.173800  0.037400  1
  C  C1258  1  0.531800  0.826200  0.037400  1
  C  C1259  1  0.826200  0.531800  0.962600  1
  C  C1260  1  0.173800  0.468200  0.962600  1
  C  C1261  1  0.457900  0.196700  0.008800  1
  C  C1262  1  0.542100  0.803300  0.008800  1
  C  C1263  1  0.803300  0.542100  0.991200  1
  C  C1264  1  0.196700  0.457900  0.991200  1
  C  C1265  1  0.430200  0.174200  0.984500  1
  C  C1266  1  0.569800  0.825800  0.984500  1
  C  C1267  1  0.825800  0.569800  0.015500  1
  C  C1268  1  0.174200  0.430200  0.015500  1
  C  C1269  1  0.399500  0.140100  0.996400  1
  C  C1270  1  0.600500  0.859900  0.996400  1
  C  C1271  1  0.859900  0.600500  0.003600  1
  C  C1272  1  0.140100  0.399500  0.003600  1
  C  C1273  1  0.409100  0.122500  0.028200  1
  C  C1274  1  0.590900  0.877500  0.028200  1
  C  C1275  1  0.877500  0.590900  0.971800  1
  C  C1276  1  0.122500  0.409100  0.971800  1
  C  C1277  1  0.454500  0.129500  0.032500  1
  C  C1278  1  0.545500  0.870500  0.032500  1
  C  C1279  1  0.870500  0.545500  0.967500  1
  C  C1280  1  0.129500  0.454500  0.967500  1
  C  C1281  1  0.496000  0.133200  0.468500  1
  C  C1282  1  0.504000  0.866800  0.468500  1
  C  C1283  1  0.866800  0.504000  0.531500  1
  C  C1284  1  0.133200  0.496000  0.531500  1
  C  C1285  1  0.540300  0.128100  0.473800  1
  C  C1286  1  0.459700  0.871900  0.473800  1
  C  C1287  1  0.871900  0.459700  0.526200  1
  C  C1288  1  0.128100  0.540300  0.526200  1
  C  C1289  1  0.552600  0.153200  0.498200  1
  C  C1290  1  0.447400  0.846800  0.498200  1
  C  C1291  1  0.846800  0.447400  0.501800  1
  C  C1292  1  0.153200  0.552600  0.501800  1
  C  C1293  1  0.547600  0.195600  0.493200  1
  C  C1294  1  0.452400  0.804400  0.493200  1
  C  C1295  1  0.804400  0.452400  0.506800  1
  C  C1296  1  0.195600  0.547600  0.506800  1
  C  C1297  1  0.503600  0.195400  0.488300  1
  C  C1298  1  0.496400  0.804600  0.488300  1
  C  C1299  1  0.804600  0.496400  0.511700  1
  C  C1300  1  0.195400  0.503600  0.511700  1
  C  C1301  1  0.486900  0.173900  0.461000  1
  C  C1302  1  0.513100  0.826100  0.461000  1
  C  C1303  1  0.826100  0.513100  0.539000  1
  C  C1304  1  0.173900  0.486900  0.539000  1
  C  C1305  1  0.566000  0.350200  0.445800  1
  C  C1306  1  0.434000  0.649800  0.445800  1
  C  C1307  1  0.649800  0.434000  0.554200  1
  C  C1308  1  0.350200  0.566000  0.554200  1
  C  C1309  1  0.550900  0.322300  0.474100  1
  C  C1310  1  0.449100  0.677700  0.474100  1
  C  C1311  1  0.677700  0.449100  0.525900  1
  C  C1312  1  0.322300  0.550900  0.525900  1
  C  C1313  1  0.587600  0.313600  0.494100  1
  C  C1314  1  0.412400  0.686400  0.494100  1
  C  C1315  1  0.686400  0.412400  0.505900  1
  C  C1316  1  0.313600  0.587600  0.505900  1
  C  C1317  1  0.624200  0.298000  0.476400  1
  C  C1318  1  0.375800  0.702000  0.476400  1
  C  C1319  1  0.702000  0.375800  0.523600  1
  C  C1320  1  0.298000  0.624200  0.523600  1
  C  C1321  1  0.630900  0.323100  0.447100  1
  C  C1322  1  0.369100  0.676900  0.447100  1
  C  C1323  1  0.676900  0.369100  0.552900  1
  C  C1324  1  0.323100  0.630900  0.552900  1
  C  C1325  1  0.593500  0.331700  0.430300  1
  C  C1326  1  0.406500  0.668300  0.430300  1
  C  C1327  1  0.668300  0.406500  0.569700  1
  C  C1328  1  0.331700  0.593500  0.569700  1
  C  C1329  1  0.688000  0.195000  0.404400  1
  C  C1330  1  0.312000  0.805000  0.404400  1
  C  C1331  1  0.805000  0.312000  0.595600  1
  C  C1332  1  0.195000  0.688000  0.595600  1
  C  C1333  1  0.690800  0.226400  0.423400  1
  C  C1334  1  0.309200  0.773600  0.423400  1
  C  C1335  1  0.773600  0.309200  0.576600  1
  C  C1336  1  0.226400  0.690800  0.576600  1
  C  C1337  1  0.693300  0.213700  0.458200  1
  C  C1338  1  0.306700  0.786300  0.458200  1
  C  C1339  1  0.786300  0.306700  0.541800  1
  C  C1340  1  0.213700  0.693300  0.541800  1
  C  C1341  1  0.657900  0.186500  0.465800  1
  C  C1342  1  0.342100  0.813500  0.465800  1
  C  C1343  1  0.813500  0.342100  0.534200  1
  C  C1344  1  0.186500  0.657900  0.534200  1
  C  C1345  1  0.656400  0.148000  0.446100  1
  C  C1346  1  0.343600  0.852000  0.446100  1
  C  C1347  1  0.852000  0.343600  0.553900  1
  C  C1348  1  0.148000  0.656400  0.553900  1
  C  C1349  1  0.653000  0.159400  0.410500  1
  C  C1350  1  0.347000  0.840600  0.410500  1
  C  C1351  1  0.840600  0.347000  0.589500  1
  C  C1352  1  0.159400  0.653000  0.589500  1
  H  H1353  1  0.036100  0.206700  0.207100  1
  H  H1354  1  0.963900  0.793300  0.207100  1
  H  H1355  1  0.793300  0.963900  0.792900  1
  H  H1356  1  0.206700  0.036100  0.792900  1
  H  H1357  1  0.067500  0.226500  0.182900  1
  H  H1358  1  0.932500  0.773500  0.182900  1
  H  H1359  1  0.773500  0.932500  0.817100  1
  H  H1360  1  0.226500  0.067500  0.817100  1
  H  H1361  1  0.020900  0.222700  0.175700  1
  H  H1362  1  0.979100  0.777300  0.175700  1
  H  H1363  1  0.777300  0.979100  0.824300  1
  H  H1364  1  0.222700  0.020900  0.824300  1
  H  H1365  1  0.936500  0.361100  0.225500  1
  H  H1366  1  0.063500  0.638900  0.225500  1
  H  H1367  1  0.638900  0.063500  0.774500  1
  H  H1368  1  0.361100  0.936500  0.774500  1
  H  H1369  1  0.907500  0.342300  0.176800  1
  H  H1370  1  0.092500  0.657700  0.176800  1
  H  H1371  1  0.657700  0.092500  0.823200  1
  H  H1372  1  0.342300  0.907500  0.823200  1
  H  H1373  1  0.876400  0.327400  0.202900  1
  H  H1374  1  0.123600  0.672600  0.202900  1
  H  H1375  1  0.672600  0.123600  0.797100  1
  H  H1376  1  0.327400  0.876400  0.797100  1
  H  H1377  1  0.901500  0.296500  0.186800  1
  H  H1378  1  0.098500  0.703500  0.186800  1
  H  H1379  1  0.703500  0.098500  0.813200  1
  H  H1380  1  0.296500  0.901500  0.813200  1
  H  H1381  1  0.903900  0.231100  0.271800  1
  H  H1382  1  0.096100  0.768900  0.271800  1
  H  H1383  1  0.768900  0.096100  0.728200  1
  H  H1384  1  0.231100  0.903900  0.728200  1
  H  H1385  1  0.935300  0.186500  0.239600  1
  H  H1386  1  0.064700  0.813500  0.239600  1
  H  H1387  1  0.813500  0.064700  0.760400  1
  H  H1388  1  0.186500  0.935300  0.760400  1
  H  H1389  1  0.947800  0.180200  0.274000  1
  H  H1390  1  0.052200  0.819800  0.274000  1
  H  H1391  1  0.819800  0.052200  0.726000  1
  H  H1392  1  0.180200  0.947800  0.726000  1
  H  H1393  1  0.978100  0.205500  0.251400  1
  H  H1394  1  0.021900  0.794500  0.251400  1
  H  H1395  1  0.794500  0.021900  0.748600  1
  H  H1396  1  0.205500  0.978100  0.748600  1
  H  H1397  1  0.024000  0.275000  0.328600  1
  H  H1398  1  0.976000  0.725000  0.328600  1
  H  H1399  1  0.725000  0.976000  0.671400  1
  H  H1400  1  0.275000  0.024000  0.671400  1
  H  H1401  1  0.065000  0.332600  0.314000  1
  H  H1402  1  0.935000  0.667400  0.314000  1
  H  H1403  1  0.667400  0.935000  0.686000  1
  H  H1404  1  0.332600  0.065000  0.686000  1
  H  H1405  1  0.033300  0.341300  0.288900  1
  H  H1406  1  0.966700  0.658700  0.288900  1
  H  H1407  1  0.658700  0.966700  0.711100  1
  H  H1408  1  0.341300  0.033300  0.711100  1
  H  H1409  1  0.056900  0.303500  0.285500  1
  H  H1410  1  0.943100  0.696500  0.285500  1
  H  H1411  1  0.696500  0.943100  0.714500  1
  H  H1412  1  0.303500  0.056900  0.714500  1
  H  H1413  1  0.066100  0.347900  0.218700  1
  H  H1414  1  0.933900  0.652100  0.218700  1
  H  H1415  1  0.652100  0.933900  0.781300  1
  H  H1416  1  0.347900  0.066100  0.781300  1
  H  H1417  1  0.049200  0.361000  0.187000  1
  H  H1418  1  0.950800  0.639000  0.187000  1
  H  H1419  1  0.639000  0.950800  0.813000  1
  H  H1420  1  0.361000  0.049200  0.813000  1
  H  H1421  1  0.945100  0.353900  0.323100  1
  H  H1422  1  0.054900  0.646100  0.323100  1
  H  H1423  1  0.646100  0.054900  0.676900  1
  H  H1424  1  0.353900  0.945100  0.676900  1
  H  H1425  1  0.961300  0.334900  0.295300  1
  H  H1426  1  0.038700  0.665100  0.295300  1
  H  H1427  1  0.665100  0.038700  0.704700  1
  H  H1428  1  0.334900  0.961300  0.704700  1
  H  H1429  1  0.971100  0.317900  0.184400  1
  H  H1430  1  0.028900  0.682100  0.184400  1
  H  H1431  1  0.682100  0.028900  0.815600  1
  H  H1432  1  0.317900  0.971100  0.815600  1
  H  H1433  1  0.950300  0.257100  0.225300  1
  H  H1434  1  0.049700  0.742900  0.225300  1
  H  H1435  1  0.742900  0.049700  0.774700  1
  H  H1436  1  0.257100  0.950300  0.774700  1
  H  H1437  1  0.992100  0.288500  0.269700  1
  H  H1438  1  0.007900  0.711500  0.269700  1
  H  H1439  1  0.711500  0.007900  0.730300  1
  H  H1440  1  0.288500  0.992100  0.730300  1
  H  H1441  1  0.057600  0.294200  0.171100  1
  H  H1442  1  0.942400  0.705800  0.171100  1
  H  H1443  1  0.705800  0.942400  0.828900  1
  H  H1444  1  0.294200  0.057600  0.828900  1
  H  H1445  1  0.991400  0.458200  0.350700  1
  H  H1446  1  0.008600  0.541800  0.350700  1
  H  H1447  1  0.541800  0.008600  0.649300  1
  H  H1448  1  0.458200  0.991400  0.649300  1
  H  H1449  1  0.928200  0.457800  0.332400  1
  H  H1450  1  0.071800  0.542200  0.332400  1
  H  H1451  1  0.542200  0.071800  0.667600  1
  H  H1452  1  0.457800  0.928200  0.667600  1
  H  H1453  1  0.861800  0.438400  0.220800  1
  H  H1454  1  0.138200  0.561600  0.220800  1
  H  H1455  1  0.561600  0.138200  0.779200  1
  H  H1456  1  0.438400  0.861800  0.779200  1
  H  H1457  1  0.889600  0.430400  0.169700  1
  H  H1458  1  0.110400  0.569600  0.169700  1
  H  H1459  1  0.569600  0.110400  0.830300  1
  H  H1460  1  0.430400  0.889600  0.830300  1
  H  H1461  1  0.034400  0.438200  0.124400  1
  H  H1462  1  0.965600  0.561800  0.124400  1
  H  H1463  1  0.561800  0.965600  0.875600  1
  H  H1464  1  0.438200  0.034400  0.875600  1
  H  H1465  1  0.096000  0.434000  0.147300  1
  H  H1466  1  0.904000  0.566000  0.147300  1
  H  H1467  1  0.566000  0.904000  0.852700  1
  H  H1468  1  0.434000  0.096000  0.852700  1
  H  H1469  1  0.155900  0.409500  0.254400  1
  H  H1470  1  0.844100  0.590500  0.254400  1
  H  H1471  1  0.590500  0.844100  0.745600  1
  H  H1472  1  0.409500  0.155900  0.745600  1
  H  H1473  1  0.129600  0.413600  0.306600  1
  H  H1474  1  0.870400  0.586400  0.306600  1
  H  H1475  1  0.586400  0.870400  0.693400  1
  H  H1476  1  0.413600  0.129600  0.693400  1
  H  H1477  1  0.870100  0.403500  0.308300  1
  H  H1478  1  0.129900  0.596500  0.308300  1
  H  H1479  1  0.596500  0.129900  0.691700  1
  H  H1480  1  0.403500  0.870100  0.691700  1
  H  H1481  1  0.876500  0.502700  0.257400  1
  H  H1482  1  0.123500  0.497300  0.257400  1
  H  H1483  1  0.497300  0.123500  0.742600  1
  H  H1484  1  0.502700  0.876500  0.742600  1
  H  H1485  1  0.816900  0.512300  0.271100  1
  H  H1486  1  0.183100  0.487700  0.271100  1
  H  H1487  1  0.487700  0.183100  0.728900  1
  H  H1488  1  0.512300  0.816900  0.728900  1
  H  H1489  1  0.779400  0.472600  0.308300  1
  H  H1490  1  0.220600  0.527400  0.308300  1
  H  H1491  1  0.527400  0.220600  0.691700  1
  H  H1492  1  0.472600  0.779400  0.691700  1
  H  H1493  1  0.964100  0.375500  0.122700  1
  H  H1494  1  0.035900  0.624500  0.122700  1
  H  H1495  1  0.624500  0.035900  0.877300  1
  H  H1496  1  0.375500  0.964100  0.877300  1
  H  H1497  1  0.930700  0.485700  0.138800  1
  H  H1498  1  0.069300  0.514300  0.138800  1
  H  H1499  1  0.514300  0.069300  0.861200  1
  H  H1500  1  0.485700  0.930700  0.861200  1
  H  H1501  1  0.905500  0.483900  0.089200  1
  H  H1502  1  0.094500  0.516100  0.089200  1
  H  H1503  1  0.516100  0.094500  0.910800  1
  H  H1504  1  0.483900  0.905500  0.910800  1
  H  H1505  1  0.909700  0.427300  0.057600  1
  H  H1506  1  0.090300  0.572700  0.057600  1
  H  H1507  1  0.572700  0.090300  0.942400  1
  H  H1508  1  0.427300  0.909700  0.942400  1
  H  H1509  1  0.130600  0.373400  0.175800  1
  H  H1510  1  0.869400  0.626600  0.175800  1
  H  H1511  1  0.626600  0.869400  0.824200  1
  H  H1512  1  0.373400  0.130600  0.824200  1
  H  H1513  1  0.167600  0.480800  0.208400  1
  H  H1514  1  0.832400  0.519200  0.208400  1
  H  H1515  1  0.519200  0.832400  0.791600  1
  H  H1516  1  0.480800  0.167600  0.791600  1
  H  H1517  1  0.229800  0.474200  0.184300  1
  H  H1518  1  0.770200  0.525800  0.184300  1
  H  H1519  1  0.525800  0.770200  0.815700  1
  H  H1520  1  0.474200  0.229800  0.815700  1
  H  H1521  1  0.236300  0.418500  0.156600  1
  H  H1522  1  0.763700  0.581500  0.156600  1
  H  H1523  1  0.581500  0.763700  0.843400  1
  H  H1524  1  0.418500  0.236300  0.843400  1
  H  H1525  1  0.036500  0.390500  0.362100  1
  H  H1526  1  0.963500  0.609500  0.362100  1
  H  H1527  1  0.609500  0.963500  0.637900  1
  H  H1528  1  0.390500  0.036500  0.637900  1
  H  H1529  1  0.116000  0.488600  0.333200  1
  H  H1530  1  0.884000  0.511400  0.333200  1
  H  H1531  1  0.511400  0.884000  0.666800  1
  H  H1532  1  0.488600  0.116000  0.666800  1
  H  H1533  1  0.143800  0.478400  0.377400  1
  H  H1534  1  0.856200  0.521600  0.377400  1
  H  H1535  1  0.521600  0.856200  0.622600  1
  H  H1536  1  0.478400  0.143800  0.622600  1
  H  H1537  1  0.113100  0.441700  0.417200  1
  H  H1538  1  0.886900  0.558300  0.417200  1
  H  H1539  1  0.558300  0.886900  0.582800  1
  H  H1540  1  0.441700  0.113100  0.582800  1
  H  H1541  1  0.774500  0.271100  0.300700  1
  H  H1542  1  0.225500  0.728900  0.300700  1
  H  H1543  1  0.728900  0.225500  0.699300  1
  H  H1544  1  0.271100  0.774500  0.699300  1
  H  H1545  1  0.800600  0.211200  0.316700  1
  H  H1546  1  0.199400  0.788800  0.316700  1
  H  H1547  1  0.788800  0.199400  0.683300  1
  H  H1548  1  0.211200  0.800600  0.683300  1
  H  H1549  1  0.875000  0.100400  0.268800  1
  H  H1550  1  0.125000  0.899600  0.268800  1
  H  H1551  1  0.899600  0.125000  0.731200  1
  H  H1552  1  0.100400  0.875000  0.731200  1
  H  H1553  1  0.904100  0.090300  0.219500  1
  H  H1554  1  0.095900  0.909700  0.219500  1
  H  H1555  1  0.909700  0.095900  0.780500  1
  H  H1556  1  0.090300  0.904100  0.780500  1
  H  H1557  1  0.894400  0.158200  0.109400  1
  H  H1558  1  0.105600  0.841800  0.109400  1
  H  H1559  1  0.841800  0.105600  0.890600  1
  H  H1560  1  0.158200  0.894400  0.890600  1
  H  H1561  1  0.868000  0.219800  0.090500  1
  H  H1562  1  0.132000  0.780200  0.090500  1
  H  H1563  1  0.780200  0.132000  0.909500  1
  H  H1564  1  0.219800  0.868000  0.909500  1
  H  H1565  1  0.813600  0.337800  0.143600  1
  H  H1566  1  0.186400  0.662200  0.143600  1
  H  H1567  1  0.662200  0.186400  0.856400  1
  H  H1568  1  0.337800  0.813600  0.856400  1
  H  H1569  1  0.787000  0.356000  0.199500  1
  H  H1570  1  0.213000  0.644000  0.199500  1
  H  H1571  1  0.644000  0.213000  0.800500  1
  H  H1572  1  0.356000  0.787000  0.800500  1
  H  H1573  1  0.867100  0.181300  0.327900  1
  H  H1574  1  0.132900  0.818700  0.327900  1
  H  H1575  1  0.818700  0.132900  0.672100  1
  H  H1576  1  0.181300  0.867100  0.672100  1
  H  H1577  1  0.791300  0.100100  0.284300  1
  H  H1578  1  0.208700  0.899900  0.284300  1
  H  H1579  1  0.899900  0.208700  0.715700  1
  H  H1580  1  0.100100  0.791300  0.715700  1
  H  H1581  1  0.791800  0.062600  0.328500  1
  H  H1582  1  0.208200  0.937400  0.328500  1
  H  H1583  1  0.937400  0.208200  0.671500  1
  H  H1584  1  0.062600  0.791800  0.671500  1
  H  H1585  1  0.816700  0.090100  0.370800  1
  H  H1586  1  0.183300  0.909900  0.370800  1
  H  H1587  1  0.909900  0.183300  0.629200  1
  H  H1588  1  0.090100  0.816700  0.629200  1
  H  H1589  1  0.954900  0.148500  0.146100  1
  H  H1590  1  0.045100  0.851500  0.146100  1
  H  H1591  1  0.851500  0.045100  0.853900  1
  H  H1592  1  0.148500  0.954900  0.853900  1
  H  H1593  1  0.861300  0.064500  0.160900  1
  H  H1594  1  0.138700  0.935500  0.160900  1
  H  H1595  1  0.935500  0.138700  0.839100  1
  H  H1596  1  0.064500  0.861300  0.839100  1
  H  H1597  1  0.892900  0.020700  0.137400  1
  H  H1598  1  0.107100  0.979300  0.137400  1
  H  H1599  1  0.979300  0.107100  0.862600  1
  H  H1600  1  0.020700  0.892900  0.862600  1
  H  H1601  1  0.955400  0.038800  0.117500  1
  H  H1602  1  0.044600  0.961200  0.117500  1
  H  H1603  1  0.961200  0.044600  0.882500  1
  H  H1604  1  0.038800  0.955400  0.882500  1
  H  H1605  1  0.898200  0.302400  0.114500  1
  H  H1606  1  0.101800  0.697600  0.114500  1
  H  H1607  1  0.697600  0.101800  0.885500  1
  H  H1608  1  0.302400  0.898200  0.885500  1
  H  H1609  1  0.786200  0.292800  0.104000  1
  H  H1610  1  0.213800  0.707200  0.104000  1
  H  H1611  1  0.707200  0.213800  0.896000  1
  H  H1612  1  0.292800  0.786200  0.896000  1
  H  H1613  1  0.792300  0.335500  0.060600  1
  H  H1614  1  0.207700  0.664500  0.060600  1
  H  H1615  1  0.664500  0.207700  0.939400  1
  H  H1616  1  0.335500  0.792300  0.939400  1
  H  H1617  1  0.857700  0.347900  0.040600  1
  H  H1618  1  0.142300  0.652100  0.040600  1
  H  H1619  1  0.652100  0.142300  0.959400  1
  H  H1620  1  0.347900  0.857700  0.959400  1
  H  H1621  1  0.808900  0.339300  0.285600  1
  H  H1622  1  0.191100  0.660700  0.285600  1
  H  H1623  1  0.660700  0.191100  0.714400  1
  H  H1624  1  0.339300  0.808900  0.714400  1
  H  H1625  1  0.721600  0.321800  0.224100  1
  H  H1626  1  0.278400  0.678200  0.224100  1
  H  H1627  1  0.678200  0.278400  0.775900  1
  H  H1628  1  0.321800  0.721600  0.775900  1
  H  H1629  1  0.691800  0.369000  0.246400  1
  H  H1630  1  0.308200  0.631000  0.246400  1
  H  H1631  1  0.631000  0.308200  0.753600  1
  H  H1632  1  0.369000  0.691800  0.753600  1
  H  H1633  1  0.719200  0.400000  0.287000  1
  H  H1634  1  0.280800  0.600000  0.287000  1
  H  H1635  1  0.600000  0.280800  0.713000  1
  H  H1636  1  0.400000  0.719200  0.713000  1
  H  H1637  1  0.010600  0.174600  0.390200  1
  H  H1638  1  0.989400  0.825400  0.390200  1
  H  H1639  1  0.825400  0.989400  0.609800  1
  H  H1640  1  0.174600  0.010600  0.609800  1
  H  H1641  1  0.064400  0.236200  0.400400  1
  H  H1642  1  0.935600  0.763800  0.400400  1
  H  H1643  1  0.763800  0.935600  0.599600  1
  H  H1644  1  0.236200  0.064400  0.599600  1
  H  H1645  1  0.158500  0.335300  0.331600  1
  H  H1646  1  0.841500  0.664700  0.331600  1
  H  H1647  1  0.664700  0.841500  0.668400  1
  H  H1648  1  0.335300  0.158500  0.668400  1
  H  H1649  1  0.173400  0.331200  0.273900  1
  H  H1650  1  0.826600  0.668800  0.273900  1
  H  H1651  1  0.668800  0.826600  0.726100  1
  H  H1652  1  0.331200  0.173400  0.726100  1
  H  H1653  1  0.170300  0.216700  0.192500  1
  H  H1654  1  0.829700  0.783300  0.192500  1
  H  H1655  1  0.783300  0.829700  0.807500  1
  H  H1656  1  0.216700  0.170300  0.807500  1
  H  H1657  1  0.124700  0.157100  0.184300  1
  H  H1658  1  0.875300  0.842900  0.184300  1
  H  H1659  1  0.842900  0.875300  0.815700  1
  H  H1660  1  0.157100  0.124700  0.815700  1
  H  H1661  1  0.993300  0.090100  0.240300  1
  H  H1662  1  0.006700  0.909900  0.240300  1
  H  H1663  1  0.909900  0.006700  0.759700  1
  H  H1664  1  0.090100  0.993300  0.759700  1
  H  H1665  1  0.965700  0.094100  0.292100  1
  H  H1666  1  0.034300  0.905900  0.292100  1
  H  H1667  1  0.905900  0.034300  0.707900  1
  H  H1668  1  0.094100  0.965700  0.707900  1
  H  H1669  1  0.063900  0.313300  0.372900  1
  H  H1670  1  0.936100  0.686700  0.372900  1
  H  H1671  1  0.686700  0.936100  0.627100  1
  H  H1672  1  0.313300  0.063900  0.627100  1
  H  H1673  1  0.171500  0.281900  0.379500  1
  H  H1674  1  0.828500  0.718100  0.379500  1
  H  H1675  1  0.718100  0.828500  0.620500  1
  H  H1676  1  0.281900  0.171500  0.620500  1
  H  H1677  1  0.184500  0.332500  0.423200  1
  H  H1678  1  0.815500  0.667500  0.423200  1
  H  H1679  1  0.667500  0.815500  0.576800  1
  H  H1680  1  0.332500  0.184500  0.576800  1
  H  H1681  1  0.131200  0.363600  0.440200  1
  H  H1682  1  0.868800  0.636400  0.440200  1
  H  H1683  1  0.636400  0.868800  0.559800  1
  H  H1684  1  0.363600  0.131200  0.559800  1
  H  H1685  1  0.155100  0.287900  0.192100  1
  H  H1686  1  0.844900  0.712100  0.192100  1
  H  H1687  1  0.712100  0.844900  0.807900  1
  H  H1688  1  0.287900  0.155100  0.807900  1
  H  H1689  1  0.228500  0.291300  0.264500  1
  H  H1690  1  0.771500  0.708700  0.264500  1
  H  H1691  1  0.708700  0.771500  0.735500  1
  H  H1692  1  0.291300  0.228500  0.735500  1
  H  H1693  1  0.270400  0.334000  0.238800  1
  H  H1694  1  0.729600  0.666000  0.238800  1
  H  H1695  1  0.666000  0.729600  0.761200  1
  H  H1696  1  0.334000  0.270400  0.761200  1
  H  H1697  1  0.254400  0.356000  0.188700  1
  H  H1698  1  0.745600  0.644000  0.188700  1
  H  H1699  1  0.644000  0.745600  0.811300  1
  H  H1700  1  0.356000  0.254400  0.811300  1
  H  H1701  1  0.048500  0.147300  0.171700  1
  H  H1702  1  0.951500  0.852700  0.171700  1
  H  H1703  1  0.852700  0.951500  0.828300  1
  H  H1704  1  0.147300  0.048500  0.828300  1
  H  H1705  1  0.074100  0.057300  0.231000  1
  H  H1706  1  0.925900  0.942700  0.231000  1
  H  H1707  1  0.942700  0.925900  0.769000  1
  H  H1708  1  0.057300  0.074100  0.769000  1
  H  H1709  1  0.054200  0.010000  0.192400  1
  H  H1710  1  0.945800  0.990000  0.192400  1
  H  H1711  1  0.990000  0.945800  0.807600  1
  H  H1712  1  0.010000  0.054200  0.807600  1
  H  H1713  1  0.028300  0.036700  0.143100  1
  H  H1714  1  0.971700  0.963300  0.143100  1
  H  H1715  1  0.963300  0.971700  0.856900  1
  H  H1716  1  0.036700  0.028300  0.856900  1
  H  H1717  1  0.943900  0.172700  0.356800  1
  H  H1718  1  0.056100  0.827300  0.356800  1
  H  H1719  1  0.827300  0.056100  0.643200  1
  H  H1720  1  0.172700  0.943900  0.643200  1
  H  H1721  1  0.995000  0.071800  0.345700  1
  H  H1722  1  0.005000  0.928200  0.345700  1
  H  H1723  1  0.928200  0.005000  0.654300  1
  H  H1724  1  0.071800  0.995000  0.654300  1
  H  H1725  1  0.939300  0.039300  0.373300  1
  H  H1726  1  0.060700  0.960700  0.373300  1
  H  H1727  1  0.960700  0.060700  0.626700  1
  H  H1728  1  0.039300  0.939300  0.626700  1
  H  H1729  1  0.907700  0.077700  0.401800  1
  H  H1730  1  0.092300  0.922300  0.401800  1
  H  H1731  1  0.922300  0.092300  0.598200  1
  H  H1732  1  0.077700  0.907700  0.598200  1
  H  H1733  1  0.810500  0.356100  0.393100  1
  H  H1734  1  0.189500  0.643900  0.393100  1
  H  H1735  1  0.643900  0.189500  0.606900  1
  H  H1736  1  0.356100  0.810500  0.606900  1
  H  H1737  1  0.833700  0.393300  0.432600  1
  H  H1738  1  0.166300  0.606700  0.432600  1
  H  H1739  1  0.606700  0.166300  0.567400  1
  H  H1740  1  0.393300  0.833700  0.567400  1
  H  H1741  1  0.797100  0.418100  0.432200  1
  H  H1742  1  0.202900  0.581900  0.432200  1
  H  H1743  1  0.581900  0.202900  0.567800  1
  H  H1744  1  0.418100  0.797100  0.567800  1
  H  H1745  1  0.784300  0.382700  0.472000  1
  H  H1746  1  0.215700  0.617300  0.472000  1
  H  H1747  1  0.617300  0.215700  0.528000  1
  H  H1748  1  0.382700  0.784300  0.528000  1
  H  H1749  1  0.802300  0.345100  0.458400  1
  H  H1750  1  0.197700  0.654900  0.458400  1
  H  H1751  1  0.654900  0.197700  0.541600  1
  H  H1752  1  0.345100  0.802300  0.541600  1
  H  H1753  1  0.727300  0.368500  0.448600  1
  H  H1754  1  0.272700  0.631500  0.448600  1
  H  H1755  1  0.631500  0.272700  0.551400  1
  H  H1756  1  0.368500  0.727300  0.551400  1
  H  H1757  1  0.737500  0.326100  0.459000  1
  H  H1758  1  0.262500  0.673900  0.459000  1
  H  H1759  1  0.673900  0.262500  0.541000  1
  H  H1760  1  0.326100  0.737500  0.541000  1
  H  H1761  1  0.708700  0.322900  0.410100  1
  H  H1762  1  0.291300  0.677100  0.410100  1
  H  H1763  1  0.677100  0.291300  0.589900  1
  H  H1764  1  0.322900  0.708700  0.589900  1
  H  H1765  1  0.752700  0.310100  0.408700  1
  H  H1766  1  0.247300  0.689900  0.408700  1
  H  H1767  1  0.689900  0.247300  0.591300  1
  H  H1768  1  0.310100  0.752700  0.591300  1
  H  H1769  1  0.734400  0.389800  0.393700  1
  H  H1770  1  0.265600  0.610200  0.393700  1
  H  H1771  1  0.610200  0.265600  0.606300  1
  H  H1772  1  0.389800  0.734400  0.606300  1
  H  H1773  1  0.864800  0.234400  0.418000  1
  H  H1774  1  0.135200  0.765600  0.418000  1
  H  H1775  1  0.765600  0.135200  0.582000  1
  H  H1776  1  0.234400  0.864800  0.582000  1
  H  H1777  1  0.801500  0.249300  0.433600  1
  H  H1778  1  0.198500  0.750700  0.433600  1
  H  H1779  1  0.750700  0.198500  0.566400  1
  H  H1780  1  0.249300  0.801500  0.566400  1
  H  H1781  1  0.795700  0.212500  0.456400  1
  H  H1782  1  0.204300  0.787500  0.456400  1
  H  H1783  1  0.787500  0.204300  0.543600  1
  H  H1784  1  0.212500  0.795700  0.543600  1
  H  H1785  1  0.847900  0.285500  0.465200  1
  H  H1786  1  0.152100  0.714500  0.465200  1
  H  H1787  1  0.714500  0.152100  0.534800  1
  H  H1788  1  0.285500  0.847900  0.534800  1
  H  H1789  1  0.811900  0.267900  0.486900  1
  H  H1790  1  0.188100  0.732100  0.486900  1
  H  H1791  1  0.732100  0.188100  0.513100  1
  H  H1792  1  0.267900  0.811900  0.513100  1
  H  H1793  1  0.846400  0.216000  0.502200  1
  H  H1794  1  0.153600  0.784000  0.502200  1
  H  H1795  1  0.784000  0.153600  0.497800  1
  H  H1796  1  0.216000  0.846400  0.497800  1
  H  H1797  1  0.873700  0.257100  0.508200  1
  H  H1798  1  0.126300  0.742900  0.508200  1
  H  H1799  1  0.742900  0.126300  0.491800  1
  H  H1800  1  0.257100  0.873700  0.491800  1
  H  H1801  1  0.912000  0.208000  0.487100  1
  H  H1802  1  0.088000  0.792000  0.487100  1
  H  H1803  1  0.792000  0.088000  0.512900  1
  H  H1804  1  0.208000  0.912000  0.512900  1
  H  H1805  1  0.914200  0.246200  0.465200  1
  H  H1806  1  0.085800  0.753800  0.465200  1
  H  H1807  1  0.753800  0.085800  0.534800  1
  H  H1808  1  0.246200  0.914200  0.534800  1
  H  H1809  1  0.858300  0.173700  0.458700  1
  H  H1810  1  0.141700  0.826300  0.458700  1
  H  H1811  1  0.826300  0.141700  0.541300  1
  H  H1812  1  0.173700  0.858300  0.541300  1
  H  H1813  1  0.968100  0.335500  0.441800  1
  H  H1814  1  0.031900  0.664500  0.441800  1
  H  H1815  1  0.664500  0.031900  0.558200  1
  H  H1816  1  0.335500  0.968100  0.558200  1
  H  H1817  1  0.965000  0.294200  0.490000  1
  H  H1818  1  0.035000  0.705800  0.490000  1
  H  H1819  1  0.705800  0.035000  0.510000  1
  H  H1820  1  0.294200  0.965000  0.510000  1
  H  H1821  1  0.989500  0.330300  0.508200  1
  H  H1822  1  0.010500  0.669700  0.508200  1
  H  H1823  1  0.669700  0.010500  0.491800  1
  H  H1824  1  0.330300  0.989500  0.491800  1
  H  H1825  1  0.910800  0.331400  0.483500  1
  H  H1826  1  0.089200  0.668600  0.483500  1
  H  H1827  1  0.668600  0.089200  0.516500  1
  H  H1828  1  0.331400  0.910800  0.516500  1
  H  H1829  1  0.920200  0.328400  0.518700  1
  H  H1830  1  0.079800  0.671600  0.518700  1
  H  H1831  1  0.671600  0.079800  0.481300  1
  H  H1832  1  0.328400  0.920200  0.481300  1
  H  H1833  1  0.956400  0.396400  0.515200  1
  H  H1834  1  0.043600  0.603600  0.515200  1
  H  H1835  1  0.603600  0.043600  0.484800  1
  H  H1836  1  0.396400  0.956400  0.484800  1
  H  H1837  1  0.909300  0.394700  0.508700  1
  H  H1838  1  0.090700  0.605300  0.508700  1
  H  H1839  1  0.605300  0.090700  0.491300  1
  H  H1840  1  0.394700  0.909300  0.491300  1
  H  H1841  1  0.938000  0.421200  0.463000  1
  H  H1842  1  0.062000  0.578800  0.463000  1
  H  H1843  1  0.578800  0.062000  0.537000  1
  H  H1844  1  0.421200  0.938000  0.537000  1
  H  H1845  1  0.926500  0.374700  0.455300  1
  H  H1846  1  0.073500  0.625300  0.455300  1
  H  H1847  1  0.625300  0.073500  0.544700  1
  H  H1848  1  0.374700  0.926500  0.544700  1
  H  H1849  1  0.004500  0.400100  0.482200  1
  H  H1850  1  0.995500  0.599900  0.482200  1
  H  H1851  1  0.599900  0.995500  0.517800  1
  H  H1852  1  0.400100  0.004500  0.517800  1
  H  H1853  1  0.994800  0.352800  0.007100  1
  H  H1854  1  0.005200  0.647200  0.007100  1
  H  H1855  1  0.647200  0.005200  0.992900  1
  H  H1856  1  0.352800  0.994800  0.992900  1
  H  H1857  1  0.069000  0.366000  0.019500  1
  H  H1858  1  0.931000  0.634000  0.019500  1
  H  H1859  1  0.634000  0.931000  0.980500  1
  H  H1860  1  0.366000  0.069000  0.980500  1
  H  H1861  1  0.063900  0.327100  0.040400  1
  H  H1862  1  0.936100  0.672900  0.040400  1
  H  H1863  1  0.672900  0.936100  0.959600  1
  H  H1864  1  0.327100  0.063900  0.959600  1
  H  H1865  1  0.090000  0.315400  0.990700  1
  H  H1866  1  0.910000  0.684600  0.990700  1
  H  H1867  1  0.684600  0.910000  0.009300  1
  H  H1868  1  0.315400  0.090000  0.009300  1
  H  H1869  1  0.047700  0.322700  0.976900  1
  H  H1870  1  0.952300  0.677300  0.976900  1
  H  H1871  1  0.677300  0.952300  0.023100  1
  H  H1872  1  0.322700  0.047700  0.023100  1
  H  H1873  1  0.049600  0.251400  0.988800  1
  H  H1874  1  0.950400  0.748600  0.988800  1
  H  H1875  1  0.748600  0.950400  0.011200  1
  H  H1876  1  0.251400  0.049600  0.011200  1
  H  H1877  1  0.054400  0.263400  0.023800  1
  H  H1878  1  0.945600  0.736600  0.023800  1
  H  H1879  1  0.736600  0.945600  0.976200  1
  H  H1880  1  0.263400  0.054400  0.976200  1
  H  H1881  1  0.985500  0.243900  0.011600  1
  H  H1882  1  0.014500  0.756100  0.011600  1
  H  H1883  1  0.756100  0.014500  0.988400  1
  H  H1884  1  0.243900  0.985500  0.988400  1
  H  H1885  1  0.988000  0.279000  0.987100  1
  H  H1886  1  0.012000  0.721000  0.987100  1
  H  H1887  1  0.721000  0.012000  0.012900  1
  H  H1888  1  0.279000  0.988000  0.012900  1
  H  H1889  1  0.001500  0.291900  0.050700  1
  H  H1890  1  0.998500  0.708100  0.050700  1
  H  H1891  1  0.708100  0.998500  0.949300  1
  H  H1892  1  0.291900  0.001500  0.949300  1
  H  H1893  1  0.040800  0.101200  0.045100  1
  H  H1894  1  0.959200  0.898800  0.045100  1
  H  H1895  1  0.898800  0.959200  0.954900  1
  H  H1896  1  0.101200  0.040800  0.954900  1
  H  H1897  1  0.006500  0.141700  0.011000  1
  H  H1898  1  0.993500  0.858300  0.011000  1
  H  H1899  1  0.858300  0.993500  0.989000  1
  H  H1900  1  0.141700  0.006500  0.989000  1
  H  H1901  1  0.023200  0.180800  0.029800  1
  H  H1902  1  0.976800  0.819200  0.029800  1
  H  H1903  1  0.819200  0.976800  0.970200  1
  H  H1904  1  0.180800  0.023200  0.970200  1
  H  H1905  1  0.062700  0.171700  0.986800  1
  H  H1906  1  0.937300  0.828300  0.986800  1
  H  H1907  1  0.828300  0.937300  0.013200  1
  H  H1908  1  0.171700  0.062700  0.013200  1
  H  H1909  1  0.072400  0.130600  0.001000  1
  H  H1910  1  0.927600  0.869400  0.001000  1
  H  H1911  1  0.869400  0.927600  0.999000  1
  H  H1912  1  0.130600  0.072400  0.999000  1
  H  H1913  1  0.126300  0.182700  0.012200  1
  H  H1914  1  0.873700  0.817300  0.012200  1
  H  H1915  1  0.817300  0.873700  0.987800  1
  H  H1916  1  0.182700  0.126300  0.987800  1
  H  H1917  1  0.095800  0.207400  0.029700  1
  H  H1918  1  0.904200  0.792600  0.029700  1
  H  H1919  1  0.792600  0.904200  0.970300  1
  H  H1920  1  0.207400  0.095800  0.970300  1
  H  H1921  1  0.111800  0.129000  0.046000  1
  H  H1922  1  0.888200  0.871000  0.046000  1
  H  H1923  1  0.871000  0.888200  0.954000  1
  H  H1924  1  0.129000  0.111800  0.954000  1
  H  H1925  1  0.127400  0.168200  0.064700  1
  H  H1926  1  0.872600  0.831800  0.064700  1
  H  H1927  1  0.831800  0.872600  0.935300  1
  H  H1928  1  0.168200  0.127400  0.935300  1
  H  H1929  1  0.064000  0.175600  0.077900  1
  H  H1930  1  0.936000  0.824400  0.077900  1
  H  H1931  1  0.824400  0.936000  0.922100  1
  H  H1932  1  0.175600  0.064000  0.922100  1
  H  H1933  1  0.223600  0.308400  0.084800  1
  H  H1934  1  0.776400  0.691600  0.084800  1
  H  H1935  1  0.691600  0.776400  0.915200  1
  H  H1936  1  0.308400  0.223600  0.915200  1
  H  H1937  1  0.170500  0.238500  0.079000  1
  H  H1938  1  0.829500  0.761500  0.079000  1
  H  H1939  1  0.761500  0.829500  0.921000  1
  H  H1940  1  0.238500  0.170500  0.921000  1
  H  H1941  1  0.218200  0.243000  0.077100  1
  H  H1942  1  0.781800  0.757000  0.077100  1
  H  H1943  1  0.757000  0.781800  0.922900  1
  H  H1944  1  0.243000  0.218200  0.922900  1
  H  H1945  1  0.219000  0.278800  0.030000  1
  H  H1946  1  0.781000  0.721200  0.030000  1
  H  H1947  1  0.721200  0.781000  0.970000  1
  H  H1948  1  0.278800  0.219000  0.970000  1
  H  H1949  1  0.184700  0.242100  0.025500  1
  H  H1950  1  0.815300  0.757900  0.025500  1
  H  H1951  1  0.757900  0.815300  0.974500  1
  H  H1952  1  0.242100  0.184700  0.974500  1
  H  H1953  1  0.138400  0.279800  0.035800  1
  H  H1954  1  0.861600  0.720200  0.035800  1
  H  H1955  1  0.720200  0.861600  0.964200  1
  H  H1956  1  0.279800  0.138400  0.964200  1
  H  H1957  1  0.165900  0.298700  0.009000  1
  H  H1958  1  0.834100  0.701300  0.009000  1
  H  H1959  1  0.701300  0.834100  0.991000  1
  H  H1960  1  0.298700  0.165900  0.991000  1
  H  H1961  1  0.149900  0.350300  0.041900  1
  H  H1962  1  0.850100  0.649700  0.041900  1
  H  H1963  1  0.649700  0.850100  0.958100  1
  H  H1964  1  0.350300  0.149900  0.958100  1
  H  H1965  1  0.197100  0.348900  0.043200  1
  H  H1966  1  0.802900  0.651100  0.043200  1
  H  H1967  1  0.651100  0.802900  0.956800  1
  H  H1968  1  0.348900  0.197100  0.956800  1
  H  H1969  1  0.139800  0.309200  0.086900  1
  H  H1970  1  0.860200  0.690800  0.086900  1
  H  H1971  1  0.690800  0.860200  0.913100  1
  H  H1972  1  0.309200  0.139800  0.913100  1
  H  H1973  1  0.836500  0.413100  0.374900  1
  H  H1974  1  0.163500  0.586900  0.374900  1
  H  H1975  1  0.586900  0.163500  0.625100  1
  H  H1976  1  0.413100  0.836500  0.625100  1
  H  H1977  1  0.800700  0.432900  0.381500  1
  H  H1978  1  0.199300  0.567100  0.381500  1
  H  H1979  1  0.567100  0.199300  0.618500  1
  H  H1980  1  0.432900  0.800700  0.618500  1
  H  H1981  1  0.723300  0.349100  0.353500  1
  H  H1982  1  0.276700  0.650900  0.353500  1
  H  H1983  1  0.650900  0.276700  0.646500  1
  H  H1984  1  0.349100  0.723300  0.646500  1
  H  H1985  1  0.757600  0.327200  0.360400  1
  H  H1986  1  0.242400  0.672800  0.360400  1
  H  H1987  1  0.672800  0.242400  0.639600  1
  H  H1988  1  0.327200  0.757600  0.639600  1
  H  H1989  1  0.816400  0.199800  0.392100  1
  H  H1990  1  0.183600  0.800200  0.392100  1
  H  H1991  1  0.800200  0.183600  0.607900  1
  H  H1992  1  0.199800  0.816400  0.607900  1
  H  H1993  1  0.807300  0.168700  0.416200  1
  H  H1994  1  0.192700  0.831300  0.416200  1
  H  H1995  1  0.831300  0.192700  0.583800  1
  H  H1996  1  0.168700  0.807300  0.583800  1
  H  H1997  1  0.918700  0.163300  0.439300  1
  H  H1998  1  0.081300  0.836700  0.439300  1
  H  H1999  1  0.836700  0.081300  0.560700  1
  H  H2000  1  0.163300  0.918700  0.560700  1
  H  H2001  1  0.925400  0.202600  0.423300  1
  H  H2002  1  0.074600  0.797400  0.423300  1
  H  H2003  1  0.797400  0.074600  0.576700  1
  H  H2004  1  0.202600  0.925400  0.576700  1
  H  H2005  1  0.025700  0.309100  0.446900  1
  H  H2006  1  0.974300  0.690900  0.446900  1
  H  H2007  1  0.690900  0.974300  0.553100  1
  H  H2008  1  0.309100  0.025700  0.553100  1
  H  H2009  1  0.041200  0.337800  0.471100  1
  H  H2010  1  0.958800  0.662200  0.471100  1
  H  H2011  1  0.662200  0.958800  0.528900  1
  H  H2012  1  0.337800  0.041200  0.528900  1
  H  H2013  1  0.010500  0.432700  0.434500  1
  H  H2014  1  0.989500  0.567300  0.434500  1
  H  H2015  1  0.567300  0.989500  0.565500  1
  H  H2016  1  0.432700  0.010500  0.565500  1
  H  H2017  1  0.981800  0.401600  0.419400  1
  H  H2018  1  0.018200  0.598400  0.419400  1
  H  H2019  1  0.598400  0.018200  0.580600  1
  H  H2020  1  0.401600  0.981800  0.580600  1
  H  H2021  1  0.000000  0.394400  0.044800  1
  H  H2022  1  0.000000  0.605600  0.044800  1
  H  H2023  1  0.605600  0.000000  0.955200  1
  H  H2024  1  0.394400  0.000000  0.955200  1
  H  H2025  1  0.013800  0.365600  0.066800  1
  H  H2026  1  0.986200  0.634400  0.066800  1
  H  H2027  1  0.634400  0.986200  0.933200  1
  H  H2028  1  0.365600  0.013800  0.933200  1
  H  H2029  1  0.934800  0.279200  0.048300  1
  H  H2030  1  0.065200  0.720800  0.048300  1
  H  H2031  1  0.720800  0.065200  0.951700  1
  H  H2032  1  0.279200  0.934800  0.951700  1
  H  H2033  1  0.931700  0.302500  0.020000  1
  H  H2034  1  0.068300  0.697500  0.020000  1
  H  H2035  1  0.697500  0.068300  0.980000  1
  H  H2036  1  0.302500  0.931700  0.980000  1
  H  H2037  1  0.982400  0.105400  0.064800  1
  H  H2038  1  0.017600  0.894600  0.064800  1
  H  H2039  1  0.894600  0.017600  0.935200  1
  H  H2040  1  0.105400  0.982400  0.935200  1
  H  H2041  1  0.991700  0.148100  0.073000  1
  H  H2042  1  0.008300  0.851900  0.073000  1
  H  H2043  1  0.851900  0.008300  0.927000  1
  H  H2044  1  0.148100  0.991700  0.927000  1
  H  H2045  1  0.090600  0.135800  0.112700  1
  H  H2046  1  0.909400  0.864200  0.112700  1
  H  H2047  1  0.864200  0.909400  0.887300  1
  H  H2048  1  0.135800  0.090600  0.887300  1
  H  H2049  1  0.084800  0.100000  0.092700  1
  H  H2050  1  0.915200  0.900000  0.092700  1
  H  H2051  1  0.900000  0.915200  0.907300  1
  H  H2052  1  0.100000  0.084800  0.907300  1
  H  H2053  1  0.218100  0.279100  0.131400  1
  H  H2054  1  0.781900  0.720900  0.131400  1
  H  H2055  1  0.720900  0.781900  0.868600  1
  H  H2056  1  0.279100  0.218100  0.868600  1
  H  H2057  1  0.173900  0.271300  0.130300  1
  H  H2058  1  0.826100  0.728700  0.130300  1
  H  H2059  1  0.728700  0.826100  0.869700  1
  H  H2060  1  0.271300  0.173900  0.869700  1
  H  H2061  1  0.156700  0.372900  0.103800  1
  H  H2062  1  0.843300  0.627100  0.103800  1
  H  H2063  1  0.627100  0.843300  0.896200  1
  H  H2064  1  0.372900  0.156700  0.896200  1
  H  H2065  1  0.199100  0.375100  0.094400  1
  H  H2066  1  0.800900  0.624900  0.094400  1
  H  H2067  1  0.624900  0.800900  0.905600  1
  H  H2068  1  0.375100  0.199100  0.905600  1
  H  H2069  1  0.541000  0.287000  0.284700  1
  H  H2070  1  0.459000  0.713000  0.284700  1
  H  H2071  1  0.713000  0.459000  0.715300  1
  H  H2072  1  0.287000  0.541000  0.715300  1
  H  H2073  1  0.571800  0.269000  0.306400  1
  H  H2074  1  0.428200  0.731000  0.306400  1
  H  H2075  1  0.731000  0.428200  0.693600  1
  H  H2076  1  0.269000  0.571800  0.693600  1
  H  H2077  1  0.526200  0.267000  0.316100  1
  H  H2078  1  0.473800  0.733000  0.316100  1
  H  H2079  1  0.733000  0.473800  0.683900  1
  H  H2080  1  0.267000  0.526200  0.683900  1
  H  H2081  1  0.412200  0.134000  0.265400  1
  H  H2082  1  0.587800  0.866000  0.265400  1
  H  H2083  1  0.866000  0.587800  0.734600  1
  H  H2084  1  0.134000  0.412200  0.734600  1
  H  H2085  1  0.359800  0.163000  0.291200  1
  H  H2086  1  0.640200  0.837000  0.291200  1
  H  H2087  1  0.837000  0.640200  0.708800  1
  H  H2088  1  0.163000  0.359800  0.708800  1
  H  H2089  1  0.392500  0.192900  0.308500  1
  H  H2090  1  0.607500  0.807100  0.308500  1
  H  H2091  1  0.807100  0.607500  0.691500  1
  H  H2092  1  0.192900  0.392500  0.691500  1
  H  H2093  1  0.388700  0.146300  0.315300  1
  H  H2094  1  0.611300  0.853700  0.315300  1
  H  H2095  1  0.853700  0.611300  0.684700  1
  H  H2096  1  0.146300  0.388700  0.684700  1
  H  H2097  1  0.406100  0.266700  0.225300  1
  H  H2098  1  0.593900  0.733300  0.225300  1
  H  H2099  1  0.733300  0.593900  0.774700  1
  H  H2100  1  0.266700  0.406100  0.774700  1
  H  H2101  1  0.463900  0.321300  0.226200  1
  H  H2102  1  0.536100  0.678700  0.226200  1
  H  H2103  1  0.678700  0.536100  0.773800  1
  H  H2104  1  0.321300  0.463900  0.773800  1
  H  H2105  1  0.490000  0.293200  0.244300  1
  H  H2106  1  0.510000  0.706800  0.244300  1
  H  H2107  1  0.706800  0.510000  0.755700  1
  H  H2108  1  0.293200  0.490000  0.755700  1
  H  H2109  1  0.452900  0.309100  0.260400  1
  H  H2110  1  0.547100  0.690900  0.260400  1
  H  H2111  1  0.690900  0.547100  0.739600  1
  H  H2112  1  0.309100  0.452900  0.739600  1
  H  H2113  1  0.516300  0.228700  0.166100  1
  H  H2114  1  0.483700  0.771300  0.166100  1
  H  H2115  1  0.771300  0.483700  0.833900  1
  H  H2116  1  0.228700  0.516300  0.833900  1
  H  H2117  1  0.554000  0.196600  0.203300  1
  H  H2118  1  0.446000  0.803400  0.203300  1
  H  H2119  1  0.803400  0.446000  0.796700  1
  H  H2120  1  0.196600  0.554000  0.796700  1
  H  H2121  1  0.547900  0.167500  0.174800  1
  H  H2122  1  0.452100  0.832500  0.174800  1
  H  H2123  1  0.832500  0.452100  0.825200  1
  H  H2124  1  0.167500  0.547900  0.825200  1
  H  H2125  1  0.520800  0.158600  0.204100  1
  H  H2126  1  0.479200  0.841400  0.204100  1
  H  H2127  1  0.841400  0.479200  0.795900  1
  H  H2128  1  0.158600  0.520800  0.795900  1
  H  H2129  1  0.527700  0.132500  0.303900  1
  H  H2130  1  0.472300  0.867500  0.303900  1
  H  H2131  1  0.867500  0.472300  0.696100  1
  H  H2132  1  0.132500  0.527700  0.696100  1
  H  H2133  1  0.548100  0.147700  0.272800  1
  H  H2134  1  0.451900  0.852300  0.272800  1
  H  H2135  1  0.852300  0.451900  0.727200  1
  H  H2136  1  0.147700  0.548100  0.727200  1
  H  H2137  1  0.424400  0.141600  0.157900  1
  H  H2138  1  0.575600  0.858400  0.157900  1
  H  H2139  1  0.858400  0.575600  0.842100  1
  H  H2140  1  0.141600  0.424400  0.842100  1
  H  H2141  1  0.429900  0.164500  0.187600  1
  H  H2142  1  0.570100  0.835500  0.187600  1
  H  H2143  1  0.835500  0.570100  0.812400  1
  H  H2144  1  0.164500  0.429900  0.812400  1
  H  H2145  1  0.461500  0.181500  0.304800  1
  H  H2146  1  0.538500  0.818500  0.304800  1
  H  H2147  1  0.818500  0.538500  0.695200  1
  H  H2148  1  0.181500  0.461500  0.695200  1
  H  H2149  1  0.444700  0.236900  0.270700  1
  H  H2150  1  0.555300  0.763100  0.270700  1
  H  H2151  1  0.763100  0.555300  0.729300  1
  H  H2152  1  0.236900  0.444700  0.729300  1
  H  H2153  1  0.485300  0.209900  0.221000  1
  H  H2154  1  0.514700  0.790100  0.221000  1
  H  H2155  1  0.790100  0.514700  0.779000  1
  H  H2156  1  0.209900  0.485300  0.779000  1
  H  H2157  1  0.549700  0.194100  0.319700  1
  H  H2158  1  0.450300  0.805900  0.319700  1
  H  H2159  1  0.805900  0.450300  0.680300  1
  H  H2160  1  0.194100  0.549700  0.680300  1
  H  H2161  1  0.452200  0.059600  0.135800  1
  H  H2162  1  0.547800  0.940400  0.135800  1
  H  H2163  1  0.940400  0.547800  0.864200  1
  H  H2164  1  0.059600  0.452200  0.864200  1
  H  H2165  1  0.382800  0.053200  0.155900  1
  H  H2166  1  0.617200  0.946800  0.155900  1
  H  H2167  1  0.946800  0.617200  0.844100  1
  H  H2168  1  0.053200  0.382800  0.844100  1
  H  H2169  1  0.323400  0.059000  0.264400  1
  H  H2170  1  0.676600  0.941000  0.264400  1
  H  H2171  1  0.941000  0.676600  0.735600  1
  H  H2172  1  0.059000  0.323400  0.735600  1
  H  H2173  1  0.347100  0.059100  0.315000  1
  H  H2174  1  0.652900  0.940900  0.315000  1
  H  H2175  1  0.940900  0.652900  0.685000  1
  H  H2176  1  0.059100  0.347100  0.685000  1
  H  H2177  1  0.495100  0.048100  0.363500  1
  H  H2178  1  0.504900  0.951900  0.363500  1
  H  H2179  1  0.951900  0.504900  0.636500  1
  H  H2180  1  0.048100  0.495100  0.636500  1
  H  H2181  1  0.556100  0.043500  0.343200  1
  H  H2182  1  0.443900  0.956500  0.343200  1
  H  H2183  1  0.956500  0.443900  0.656800  1
  H  H2184  1  0.043500  0.556100  0.656800  1
  H  H2185  1  0.625200  0.076400  0.234200  1
  H  H2186  1  0.374800  0.923600  0.234200  1
  H  H2187  1  0.923600  0.374800  0.765800  1
  H  H2188  1  0.076400  0.625200  0.765800  1
  H  H2189  1  0.598100  0.078300  0.180400  1
  H  H2190  1  0.401900  0.921700  0.180400  1
  H  H2191  1  0.921700  0.401900  0.819600  1
  H  H2192  1  0.078300  0.598100  0.819600  1
  H  H2193  1  0.327600  0.097600  0.194900  1
  H  H2194  1  0.672400  0.902400  0.194900  1
  H  H2195  1  0.902400  0.672400  0.805100  1
  H  H2196  1  0.097600  0.327600  0.805100  1
  H  H2197  1  0.336400  0.984600  0.217100  1
  H  H2198  1  0.663600  0.015400  0.217100  1
  H  H2199  1  0.015400  0.663600  0.782900  1
  H  H2200  1  0.984600  0.336400  0.782900  1
  H  H2201  1  0.277200  0.964200  0.187500  1
  H  H2202  1  0.722800  0.035800  0.187500  1
  H  H2203  1  0.035800  0.722800  0.812500  1
  H  H2204  1  0.964200  0.277200  0.812500  1
  H  H2205  1  0.232500  0.015900  0.184100  1
  H  H2206  1  0.767500  0.984100  0.184100  1
  H  H2207  1  0.984100  0.767500  0.815900  1
  H  H2208  1  0.015900  0.232500  0.815900  1
  H  H2209  1  0.443700  0.105900  0.365800  1
  H  H2210  1  0.556300  0.894100  0.365800  1
  H  H2211  1  0.894100  0.556300  0.634200  1
  H  H2212  1  0.105900  0.443700  0.634200  1
  H  H2213  1  0.376600  0.000200  0.347300  1
  H  H2214  1  0.623400  0.999800  0.347300  1
  H  H2215  1  0.999800  0.623400  0.652700  1
  H  H2216  1  0.000200  0.376600  0.652700  1
  H  H2217  1  0.355900  0.996300  0.399400  1
  H  H2218  1  0.644100  0.003700  0.399400  1
  H  H2219  1  0.003700  0.644100  0.600600  1
  H  H2220  1  0.996300  0.355900  0.600600  1
  H  H2221  1  0.370600  0.050000  0.426500  1
  H  H2222  1  0.629400  0.950000  0.426500  1
  H  H2223  1  0.950000  0.629400  0.573500  1
  H  H2224  1  0.050000  0.370600  0.573500  1
  H  H2225  1  0.599500  0.109700  0.318800  1
  H  H2226  1  0.400500  0.890300  0.318800  1
  H  H2227  1  0.890300  0.400500  0.681200  1
  H  H2228  1  0.109700  0.599500  0.681200  1
  H  H2229  1  0.626000  0.014000  0.272500  1
  H  H2230  1  0.374000  0.986000  0.272500  1
  H  H2231  1  0.986000  0.374000  0.727500  1
  H  H2232  1  0.014000  0.626000  0.727500  1
  H  H2233  1  0.686100  0.020100  0.301600  1
  H  H2234  1  0.313900  0.979900  0.301600  1
  H  H2235  1  0.979900  0.313900  0.698400  1
  H  H2236  1  0.020100  0.686100  0.698400  1
  H  H2237  1  0.703600  0.073200  0.327100  1
  H  H2238  1  0.296400  0.926800  0.327100  1
  H  H2239  1  0.926800  0.296400  0.672900  1
  H  H2240  1  0.073200  0.703600  0.672900  1
  H  H2241  1  0.510800  0.116000  0.130200  1
  H  H2242  1  0.489200  0.884000  0.130200  1
  H  H2243  1  0.884000  0.489200  0.869800  1
  H  H2244  1  0.116000  0.510800  0.869800  1
  H  H2245  1  0.553900  0.014300  0.152600  1
  H  H2246  1  0.446100  0.985700  0.152600  1
  H  H2247  1  0.985700  0.446100  0.847400  1
  H  H2248  1  0.014300  0.553900  0.847400  1
  H  H2249  1  0.588200  0.015800  0.102900  1
  H  H2250  1  0.411800  0.984200  0.102900  1
  H  H2251  1  0.984200  0.411800  0.897100  1
  H  H2252  1  0.015800  0.588200  0.897100  1
  H  H2253  1  0.588100  0.071100  0.072100  1
  H  H2254  1  0.411900  0.928900  0.072100  1
  H  H2255  1  0.928900  0.411900  0.927900  1
  H  H2256  1  0.071100  0.588100  0.927900  1
  H  H2257  1  0.269500  0.222300  0.200700  1
  H  H2258  1  0.730500  0.777700  0.200700  1
  H  H2259  1  0.777700  0.730500  0.799300  1
  H  H2260  1  0.222300  0.269500  0.799300  1
  H  H2261  1  0.316600  0.283000  0.184300  1
  H  H2262  1  0.683400  0.717000  0.184300  1
  H  H2263  1  0.717000  0.683400  0.815700  1
  H  H2264  1  0.283000  0.316600  0.815700  1
  H  H2265  1  0.421100  0.388100  0.239200  1
  H  H2266  1  0.578900  0.611900  0.239200  1
  H  H2267  1  0.611900  0.578900  0.760800  1
  H  H2268  1  0.388100  0.421100  0.760800  1
  H  H2269  1  0.437600  0.406200  0.291500  1
  H  H2270  1  0.562400  0.593800  0.291500  1
  H  H2271  1  0.593800  0.562400  0.708500  1
  H  H2272  1  0.406200  0.437600  0.708500  1
  H  H2273  1  0.415200  0.323600  0.393900  1
  H  H2274  1  0.584800  0.676400  0.393900  1
  H  H2275  1  0.676400  0.584800  0.606100  1
  H  H2276  1  0.323600  0.415200  0.606100  1
  H  H2277  1  0.383300  0.259100  0.408000  1
  H  H2278  1  0.616700  0.740900  0.408000  1
  H  H2279  1  0.740900  0.616700  0.592000  1
  H  H2280  1  0.259100  0.383300  0.592000  1
  H  H2281  1  0.290100  0.143900  0.350800  1
  H  H2282  1  0.709900  0.856100  0.350800  1
  H  H2283  1  0.856100  0.709900  0.649200  1
  H  H2284  1  0.143900  0.290100  0.649200  1
  H  H2285  1  0.263700  0.136500  0.295700  1
  H  H2286  1  0.736300  0.863500  0.295700  1
  H  H2287  1  0.863500  0.736300  0.704300  1
  H  H2288  1  0.136500  0.263700  0.704300  1
  H  H2289  1  0.381500  0.314500  0.174800  1
  H  H2290  1  0.618500  0.685500  0.174800  1
  H  H2291  1  0.685500  0.618500  0.825200  1
  H  H2292  1  0.314500  0.381500  0.825200  1
  H  H2293  1  0.330100  0.393900  0.224700  1
  H  H2294  1  0.669900  0.606100  0.224700  1
  H  H2295  1  0.606100  0.669900  0.775300  1
  H  H2296  1  0.393900  0.330100  0.775300  1
  H  H2297  1  0.339600  0.440800  0.182300  1
  H  H2298  1  0.660400  0.559200  0.182300  1
  H  H2299  1  0.559200  0.660400  0.817700  1
  H  H2300  1  0.440800  0.339600  0.817700  1
  H  H2301  1  0.356400  0.413600  0.133400  1
  H  H2302  1  0.643600  0.586400  0.133400  1
  H  H2303  1  0.586400  0.643600  0.866600  1
  H  H2304  1  0.413600  0.356400  0.866600  1
  H  H2305  1  0.486700  0.342100  0.352700  1
  H  H2306  1  0.513300  0.657900  0.352700  1
  H  H2307  1  0.657900  0.513300  0.647300  1
  H  H2308  1  0.342100  0.486700  0.647300  1
  H  H2309  1  0.398400  0.418200  0.348500  1
  H  H2310  1  0.601600  0.581800  0.348500  1
  H  H2311  1  0.581800  0.601600  0.651500  1
  H  H2312  1  0.418200  0.398400  0.651500  1
  H  H2313  1  0.448700  0.471300  0.370900  1
  H  H2314  1  0.551300  0.528700  0.370900  1
  H  H2315  1  0.528700  0.551300  0.629100  1
  H  H2316  1  0.471300  0.448700  0.629100  1
  H  H2317  1  0.508400  0.453000  0.384400  1
  H  H2318  1  0.491600  0.547000  0.384400  1
  H  H2319  1  0.547000  0.491600  0.615600  1
  H  H2320  1  0.453000  0.508400  0.615600  1
  H  H2321  1  0.392900  0.181100  0.378900  1
  H  H2322  1  0.607100  0.818900  0.378900  1
  H  H2323  1  0.818900  0.607100  0.621100  1
  H  H2324  1  0.181100  0.392900  0.621100  1
  H  H2325  1  0.277100  0.186500  0.397000  1
  H  H2326  1  0.722900  0.813500  0.397000  1
  H  H2327  1  0.813500  0.722900  0.603000  1
  H  H2328  1  0.186500  0.277100  0.603000  1
  H  H2329  1  0.282100  0.145700  0.440200  1
  H  H2330  1  0.717900  0.854300  0.440200  1
  H  H2331  1  0.854300  0.717900  0.559800  1
  H  H2332  1  0.145700  0.282100  0.559800  1
  H  H2333  1  0.346700  0.129700  0.456200  1
  H  H2334  1  0.653300  0.870300  0.456200  1
  H  H2335  1  0.870300  0.653300  0.543800  1
  H  H2336  1  0.129700  0.346700  0.543800  1
  H  H2337  1  0.287300  0.155900  0.211600  1
  H  H2338  1  0.712700  0.844100  0.211600  1
  H  H2339  1  0.844100  0.712700  0.788400  1
  H  H2340  1  0.155900  0.287300  0.788400  1
  H  H2341  1  0.211400  0.167600  0.277800  1
  H  H2342  1  0.788600  0.832400  0.277800  1
  H  H2343  1  0.832400  0.788600  0.722200  1
  H  H2344  1  0.167600  0.211400  0.722200  1
  H  H2345  1  0.164600  0.133000  0.254200  1
  H  H2346  1  0.835400  0.867000  0.254200  1
  H  H2347  1  0.867000  0.835400  0.745800  1
  H  H2348  1  0.133000  0.164600  0.745800  1
  H  H2349  1  0.173800  0.093400  0.208500  1
  H  H2350  1  0.826200  0.906600  0.208500  1
  H  H2351  1  0.906600  0.826200  0.791500  1
  H  H2352  1  0.093400  0.173800  0.791500  1
  H  H2353  1  0.536700  0.325300  0.107200  1
  H  H2354  1  0.463300  0.674700  0.107200  1
  H  H2355  1  0.674700  0.463300  0.892800  1
  H  H2356  1  0.325300  0.536700  0.892800  1
  H  H2357  1  0.564000  0.266800  0.096300  1
  H  H2358  1  0.436000  0.733200  0.096300  1
  H  H2359  1  0.733200  0.436000  0.903700  1
  H  H2360  1  0.266800  0.564000  0.903700  1
  H  H2361  1  0.639100  0.170500  0.163700  1
  H  H2362  1  0.360900  0.829500  0.163700  1
  H  H2363  1  0.829500  0.360900  0.836300  1
  H  H2364  1  0.170500  0.639100  0.836300  1
  H  H2365  1  0.660500  0.165300  0.214100  1
  H  H2366  1  0.339500  0.834700  0.214100  1
  H  H2367  1  0.834700  0.339500  0.785900  1
  H  H2368  1  0.165300  0.660500  0.785900  1
  H  H2369  1  0.678500  0.278100  0.303700  1
  H  H2370  1  0.321500  0.721900  0.303700  1
  H  H2371  1  0.721900  0.321500  0.696300  1
  H  H2372  1  0.278100  0.678500  0.696300  1
  H  H2373  1  0.648800  0.333400  0.318200  1
  H  H2374  1  0.351200  0.666600  0.318200  1
  H  H2375  1  0.666600  0.351200  0.681800  1
  H  H2376  1  0.333400  0.648800  0.681800  1
  H  H2377  1  0.537800  0.414400  0.258200  1
  H  H2378  1  0.462200  0.585600  0.258200  1
  H  H2379  1  0.585600  0.462200  0.741800  1
  H  H2380  1  0.414400  0.537800  0.741800  1
  H  H2381  1  0.507100  0.405700  0.209200  1
  H  H2382  1  0.492900  0.594300  0.209200  1
  H  H2383  1  0.594300  0.492900  0.790800  1
  H  H2384  1  0.405700  0.507100  0.790800  1
  H  H2385  1  0.550300  0.194300  0.112700  1
  H  H2386  1  0.449700  0.805700  0.112700  1
  H  H2387  1  0.805700  0.449700  0.887300  1
  H  H2388  1  0.194300  0.550300  0.887300  1
  H  H2389  1  0.668500  0.224700  0.113100  1
  H  H2390  1  0.331500  0.775300  0.113100  1
  H  H2391  1  0.775300  0.331500  0.886900  1
  H  H2392  1  0.224700  0.668500  0.886900  1
  H  H2393  1  0.675000  0.182400  0.076800  1
  H  H2394  1  0.325000  0.817600  0.076800  1
  H  H2395  1  0.817600  0.325000  0.923200  1
  H  H2396  1  0.182400  0.675000  0.923200  1
  H  H2397  1  0.620000  0.151400  0.053900  1
  H  H2398  1  0.380000  0.848600  0.053900  1
  H  H2399  1  0.848600  0.380000  0.946100  1
  H  H2400  1  0.151400  0.620000  0.946100  1
  H  H2401  1  0.646900  0.208300  0.304100  1
  H  H2402  1  0.353100  0.791700  0.304100  1
  H  H2403  1  0.791700  0.353100  0.695900  1
  H  H2404  1  0.208300  0.646900  0.695900  1
  H  H2405  1  0.722600  0.208400  0.235800  1
  H  H2406  1  0.277400  0.791600  0.235800  1
  H  H2407  1  0.791600  0.277400  0.764200  1
  H  H2408  1  0.208400  0.722600  0.764200  1
  H  H2409  1  0.754400  0.161000  0.258600  1
  H  H2410  1  0.245600  0.839000  0.258600  1
  H  H2411  1  0.839000  0.245600  0.741400  1
  H  H2412  1  0.161000  0.754400  0.741400  1
  H  H2413  1  0.729800  0.137600  0.304600  1
  H  H2414  1  0.270200  0.862400  0.304600  1
  H  H2415  1  0.862400  0.270200  0.695400  1
  H  H2416  1  0.137600  0.729800  0.695400  1
  H  H2417  1  0.567700  0.348500  0.322700  1
  H  H2418  1  0.432300  0.651500  0.322700  1
  H  H2419  1  0.651500  0.432300  0.677300  1
  H  H2420  1  0.348500  0.567700  0.677300  1
  H  H2421  1  0.617900  0.437900  0.275100  1
  H  H2422  1  0.382100  0.562100  0.275100  1
  H  H2423  1  0.562100  0.382100  0.724900  1
  H  H2424  1  0.437900  0.617900  0.724900  1
  H  H2425  1  0.617100  0.478300  0.316800  1
  H  H2426  1  0.382900  0.521700  0.316800  1
  H  H2427  1  0.521700  0.382900  0.683200  1
  H  H2428  1  0.478300  0.617100  0.683200  1
  H  H2429  1  0.586600  0.456000  0.361200  1
  H  H2430  1  0.413400  0.544000  0.361200  1
  H  H2431  1  0.544000  0.413400  0.638800  1
  H  H2432  1  0.456000  0.586600  0.638800  1
  H  H2433  1  0.463800  0.328400  0.147300  1
  H  H2434  1  0.536200  0.671600  0.147300  1
  H  H2435  1  0.671600  0.536200  0.852700  1
  H  H2436  1  0.328400  0.463800  0.852700  1
  H  H2437  1  0.542900  0.428500  0.155100  1
  H  H2438  1  0.457100  0.571500  0.155100  1
  H  H2439  1  0.571500  0.457100  0.844900  1
  H  H2440  1  0.428500  0.542900  0.844900  1
  H  H2441  1  0.504800  0.459800  0.120600  1
  H  H2442  1  0.495200  0.540200  0.120600  1
  H  H2443  1  0.540200  0.495200  0.879400  1
  H  H2444  1  0.459800  0.504800  0.879400  1
  H  H2445  1  0.448600  0.422000  0.106900  1
  H  H2446  1  0.551400  0.578000  0.106900  1
  H  H2447  1  0.578000  0.551400  0.893100  1
  H  H2448  1  0.422000  0.448600  0.893100  1
  H  H2449  1  0.280100  0.132100  0.105100  1
  H  H2450  1  0.719900  0.867900  0.105100  1
  H  H2451  1  0.867900  0.719900  0.894900  1
  H  H2452  1  0.132100  0.280100  0.894900  1
  H  H2453  1  0.286200  0.086600  0.065300  1
  H  H2454  1  0.713800  0.913400  0.065300  1
  H  H2455  1  0.913400  0.713800  0.934700  1
  H  H2456  1  0.086600  0.286200  0.934700  1
  H  H2457  1  0.239700  0.069700  0.067000  1
  H  H2458  1  0.760300  0.930300  0.067000  1
  H  H2459  1  0.930300  0.760300  0.933000  1
  H  H2460  1  0.069700  0.239700  0.933000  1
  H  H2461  1  0.271900  0.149700  0.051500  1
  H  H2462  1  0.728100  0.850300  0.051500  1
  H  H2463  1  0.850300  0.728100  0.948500  1
  H  H2464  1  0.149700  0.271900  0.948500  1
  H  H2465  1  0.249700  0.118500  0.028400  1
  H  H2466  1  0.750300  0.881500  0.028400  1
  H  H2467  1  0.881500  0.750300  0.971600  1
  H  H2468  1  0.118500  0.249700  0.971600  1
  H  H2469  1  0.187500  0.125900  0.051500  1
  H  H2470  1  0.812500  0.874100  0.051500  1
  H  H2471  1  0.874100  0.812500  0.948500  1
  H  H2472  1  0.125900  0.187500  0.948500  1
  H  H2473  1  0.209200  0.168400  0.040300  1
  H  H2474  1  0.790800  0.831600  0.040300  1
  H  H2475  1  0.831600  0.790800  0.959700  1
  H  H2476  1  0.168400  0.209200  0.959700  1
  H  H2477  1  0.235700  0.183100  0.091600  1
  H  H2478  1  0.764300  0.816900  0.091600  1
  H  H2479  1  0.816900  0.764300  0.908400  1
  H  H2480  1  0.183100  0.235700  0.908400  1
  H  H2481  1  0.188400  0.172400  0.094600  1
  H  H2482  1  0.811600  0.827600  0.094600  1
  H  H2483  1  0.827600  0.811600  0.905400  1
  H  H2484  1  0.172400  0.188400  0.905400  1
  H  H2485  1  0.195900  0.106300  0.105300  1
  H  H2486  1  0.804100  0.893700  0.105300  1
  H  H2487  1  0.893700  0.804100  0.894700  1
  H  H2488  1  0.106300  0.195900  0.894700  1
  H  H2489  1  0.361900  0.266300  0.081700  1
  H  H2490  1  0.638100  0.733700  0.081700  1
  H  H2491  1  0.733700  0.638100  0.918300  1
  H  H2492  1  0.266300  0.361900  0.918300  1
  H  H2493  1  0.301100  0.295500  0.046800  1
  H  H2494  1  0.698900  0.704500  0.046800  1
  H  H2495  1  0.704500  0.698900  0.953200  1
  H  H2496  1  0.295500  0.301100  0.953200  1
  H  H2497  1  0.294900  0.256500  0.067700  1
  H  H2498  1  0.705100  0.743500  0.067700  1
  H  H2499  1  0.743500  0.705100  0.932300  1
  H  H2500  1  0.256500  0.294900  0.932300  1
  H  H2501  1  0.339900  0.225500  0.036100  1
  H  H2502  1  0.660100  0.774500  0.036100  1
  H  H2503  1  0.774500  0.660100  0.963900  1
  H  H2504  1  0.225500  0.339900  0.963900  1
  H  H2505  1  0.304200  0.237800  0.015800  1
  H  H2506  1  0.695800  0.762200  0.015800  1
  H  H2507  1  0.762200  0.695800  0.984200  1
  H  H2508  1  0.237800  0.304200  0.984200  1
  H  H2509  1  0.364700  0.262300  0.990700  1
  H  H2510  1  0.635300  0.737700  0.990700  1
  H  H2511  1  0.737700  0.635300  0.009300  1
  H  H2512  1  0.262300  0.364700  0.009300  1
  H  H2513  1  0.346200  0.300200  0.003400  1
  H  H2514  1  0.653800  0.699800  0.003400  1
  H  H2515  1  0.699800  0.653800  0.996600  1
  H  H2516  1  0.300200  0.346200  0.996600  1
  H  H2517  1  0.402400  0.262000  0.038800  1
  H  H2518  1  0.597600  0.738000  0.038800  1
  H  H2519  1  0.738000  0.597600  0.961200  1
  H  H2520  1  0.262000  0.402400  0.961200  1
  H  H2521  1  0.416800  0.299800  0.017800  1
  H  H2522  1  0.583200  0.700200  0.017800  1
  H  H2523  1  0.700200  0.583200  0.982200  1
  H  H2524  1  0.299800  0.416800  0.982200  1
  H  H2525  1  0.370900  0.337500  0.045000  1
  H  H2526  1  0.629100  0.662500  0.045000  1
  H  H2527  1  0.662500  0.629100  0.955000  1
  H  H2528  1  0.337500  0.370900  0.955000  1
  H  H2529  1  0.455600  0.183800  0.055800  1
  H  H2530  1  0.544400  0.816200  0.055800  1
  H  H2531  1  0.816200  0.544400  0.944200  1
  H  H2532  1  0.183800  0.455600  0.944200  1
  H  H2533  1  0.483200  0.207000  0.998700  1
  H  H2534  1  0.516800  0.793000  0.998700  1
  H  H2535  1  0.793000  0.516800  0.001300  1
  H  H2536  1  0.207000  0.483200  0.001300  1
  H  H2537  1  0.445500  0.220100  0.015500  1
  H  H2538  1  0.554500  0.779900  0.015500  1
  H  H2539  1  0.779900  0.554500  0.984500  1
  H  H2540  1  0.220100  0.445500  0.984500  1
  H  H2541  1  0.415600  0.193800  0.974200  1
  H  H2542  1  0.584400  0.806200  0.974200  1
  H  H2543  1  0.806200  0.584400  0.025800  1
  H  H2544  1  0.193800  0.415600  0.025800  1
  H  H2545  1  0.447000  0.163200  0.969200  1
  H  H2546  1  0.553000  0.836800  0.969200  1
  H  H2547  1  0.836800  0.553000  0.030800  1
  H  H2548  1  0.163200  0.447000  0.030800  1
  H  H2549  1  0.397300  0.118300  0.981400  1
  H  H2550  1  0.602700  0.881700  0.981400  1
  H  H2551  1  0.881700  0.602700  0.018600  1
  H  H2552  1  0.118300  0.397300  0.018600  1
  H  H2553  1  0.373400  0.149800  0.997600  1
  H  H2554  1  0.626600  0.850200  0.997600  1
  H  H2555  1  0.850200  0.626600  0.002400  1
  H  H2556  1  0.149800  0.373400  0.002400  1
  H  H2557  1  0.395800  0.136000  0.044400  1
  H  H2558  1  0.604200  0.864000  0.044400  1
  H  H2559  1  0.864000  0.604200  0.955600  1
  H  H2560  1  0.136000  0.395800  0.955600  1
  H  H2561  1  0.399400  0.093800  0.029000  1
  H  H2562  1  0.600600  0.906200  0.029000  1
  H  H2563  1  0.906200  0.600600  0.971000  1
  H  H2564  1  0.093800  0.399400  0.971000  1
  H  H2565  1  0.466600  0.121800  0.013200  1
  H  H2566  1  0.533400  0.878200  0.013200  1
  H  H2567  1  0.878200  0.533400  0.986800  1
  H  H2568  1  0.121800  0.466600  0.986800  1
  H  H2569  1  0.480600  0.123600  0.486900  1
  H  H2570  1  0.519400  0.876400  0.486900  1
  H  H2571  1  0.876400  0.519400  0.513100  1
  H  H2572  1  0.123600  0.480600  0.513100  1
  H  H2573  1  0.543000  0.100200  0.478800  1
  H  H2574  1  0.457000  0.899800  0.478800  1
  H  H2575  1  0.899800  0.457000  0.521200  1
  H  H2576  1  0.100200  0.543000  0.521200  1
  H  H2577  1  0.556300  0.135900  0.455600  1
  H  H2578  1  0.443700  0.864100  0.455600  1
  H  H2579  1  0.864100  0.443700  0.544400  1
  H  H2580  1  0.135900  0.556300  0.544400  1
  H  H2581  1  0.581000  0.151400  0.502400  1
  H  H2582  1  0.419000  0.848600  0.502400  1
  H  H2583  1  0.848600  0.419000  0.497600  1
  H  H2584  1  0.151400  0.581000  0.497600  1
  H  H2585  1  0.537300  0.143700  0.516400  1
  H  H2586  1  0.462700  0.856300  0.516400  1
  H  H2587  1  0.856300  0.462700  0.483600  1
  H  H2588  1  0.143700  0.537300  0.483600  1
  H  H2589  1  0.562700  0.206300  0.475200  1
  H  H2590  1  0.437300  0.793700  0.475200  1
  H  H2591  1  0.793700  0.437300  0.524800  1
  H  H2592  1  0.206300  0.562700  0.524800  1
  H  H2593  1  0.556800  0.212000  0.510900  1
  H  H2594  1  0.443200  0.788000  0.510900  1
  H  H2595  1  0.788000  0.443200  0.489100  1
  H  H2596  1  0.212000  0.556800  0.489100  1
  H  H2597  1  0.489300  0.183300  0.506200  1
  H  H2598  1  0.510700  0.816700  0.506200  1
  H  H2599  1  0.816700  0.510700  0.493800  1
  H  H2600  1  0.183300  0.489300  0.493800  1
  H  H2601  1  0.497900  0.223300  0.487000  1
  H  H2602  1  0.502100  0.776700  0.487000  1
  H  H2603  1  0.776700  0.502100  0.513000  1
  H  H2604  1  0.223300  0.497900  0.513000  1
  H  H2605  1  0.502000  0.184200  0.442700  1
  H  H2606  1  0.498000  0.815800  0.442700  1
  H  H2607  1  0.815800  0.498000  0.557300  1
  H  H2608  1  0.184200  0.502000  0.557300  1
  H  H2609  1  0.580600  0.375200  0.454400  1
  H  H2610  1  0.419400  0.624800  0.454400  1
  H  H2611  1  0.624800  0.419400  0.545600  1
  H  H2612  1  0.375200  0.580600  0.545600  1
  H  H2613  1  0.532300  0.335700  0.486500  1
  H  H2614  1  0.467700  0.664300  0.486500  1
  H  H2615  1  0.664300  0.467700  0.513500  1
  H  H2616  1  0.335700  0.532300  0.513500  1
  H  H2617  1  0.536400  0.297000  0.466600  1
  H  H2618  1  0.463600  0.703000  0.466600  1
  H  H2619  1  0.703000  0.463600  0.533400  1
  H  H2620  1  0.297000  0.536400  0.533400  1
  H  H2621  1  0.577900  0.293500  0.509400  1
  H  H2622  1  0.422100  0.706500  0.509400  1
  H  H2623  1  0.706500  0.422100  0.490600  1
  H  H2624  1  0.293500  0.577900  0.490600  1
  H  H2625  1  0.597900  0.338300  0.504900  1
  H  H2626  1  0.402100  0.661700  0.504900  1
  H  H2627  1  0.661700  0.402100  0.495100  1
  H  H2628  1  0.338300  0.597900  0.495100  1
  H  H2629  1  0.648300  0.301500  0.489100  1
  H  H2630  1  0.351700  0.698500  0.489100  1
  H  H2631  1  0.698500  0.351700  0.510900  1
  H  H2632  1  0.301500  0.648300  0.510900  1
  H  H2633  1  0.617700  0.269500  0.471300  1
  H  H2634  1  0.382300  0.730500  0.471300  1
  H  H2635  1  0.730500  0.382300  0.528700  1
  H  H2636  1  0.269500  0.617700  0.528700  1
  H  H2637  1  0.646800  0.348800  0.452300  1
  H  H2638  1  0.353200  0.651200  0.452300  1
  H  H2639  1  0.651200  0.353200  0.547700  1
  H  H2640  1  0.348800  0.646800  0.547700  1
  H  H2641  1  0.647100  0.309100  0.433100  1
  H  H2642  1  0.352900  0.690900  0.433100  1
  H  H2643  1  0.690900  0.352900  0.566900  1
  H  H2644  1  0.309100  0.647100  0.566900  1
  H  H2645  1  0.579600  0.305600  0.423000  1
  H  H2646  1  0.420400  0.694400  0.423000  1
  H  H2647  1  0.694400  0.420400  0.577000  1
  H  H2648  1  0.305600  0.579600  0.577000  1
  H  H2649  1  0.712800  0.182800  0.408200  1
  H  H2650  1  0.287200  0.817200  0.408200  1
  H  H2651  1  0.817200  0.287200  0.591800  1
  H  H2652  1  0.182800  0.712800  0.591800  1
  H  H2653  1  0.667400  0.240600  0.420600  1
  H  H2654  1  0.332600  0.759400  0.420600  1
  H  H2655  1  0.759400  0.332600  0.579400  1
  H  H2656  1  0.240600  0.667400  0.579400  1
  H  H2657  1  0.714800  0.245000  0.418200  1
  H  H2658  1  0.285200  0.755000  0.418200  1
  H  H2659  1  0.755000  0.285200  0.581800  1
  H  H2660  1  0.245000  0.714800  0.581800  1
  H  H2661  1  0.717400  0.200600  0.461600  1
  H  H2662  1  0.282600  0.799400  0.461600  1
  H  H2663  1  0.799400  0.282600  0.538400  1
  H  H2664  1  0.200600  0.717400  0.538400  1
  H  H2665  1  0.695100  0.237500  0.471300  1
  H  H2666  1  0.304900  0.762500  0.471300  1
  H  H2667  1  0.762500  0.304900  0.528700  1
  H  H2668  1  0.237500  0.695100  0.528700  1
  H  H2669  1  0.633900  0.199500  0.461900  1
  H  H2670  1  0.366100  0.800500  0.461900  1
  H  H2671  1  0.800500  0.366100  0.538100  1
  H  H2672  1  0.199500  0.633900  0.538100  1
  H  H2673  1  0.658300  0.179500  0.487500  1
  H  H2674  1  0.341700  0.820500  0.487500  1
  H  H2675  1  0.820500  0.341700  0.512500  1
  H  H2676  1  0.179500  0.658300  0.512500  1
  H  H2677  1  0.633200  0.128800  0.452000  1
  H  H2678  1  0.366800  0.871200  0.452000  1
  H  H2679  1  0.871200  0.366800  0.548000  1
  H  H2680  1  0.128800  0.633200  0.548000  1
  H  H2681  1  0.680700  0.135300  0.449500  1
  H  H2682  1  0.319300  0.864700  0.449500  1
  H  H2683  1  0.864700  0.319300  0.550500  1
  H  H2684  1  0.135300  0.680700  0.550500  1
  H  H2685  1  0.627000  0.169600  0.407100  1
  H  H2686  1  0.373000  0.830400  0.407100  1
  H  H2687  1  0.830400  0.373000  0.592900  1
  H  H2688  1  0.169600  0.627000  0.592900  1
  H  H2689  1  0.286800  0.073400  0.124300  1
  H  H2690  1  0.713200  0.926600  0.124300  1
  H  H2691  1  0.926600  0.713200  0.875700  1
  H  H2692  1  0.073400  0.286800  0.875700  1
  H  H2693  1  0.244200  0.057200  0.119800  1
  H  H2694  1  0.755800  0.942800  0.119800  1
  H  H2695  1  0.942800  0.755800  0.880200  1
  H  H2696  1  0.057200  0.244200  0.880200  1
  H  H2697  1  0.193300  0.139100  0.146000  1
  H  H2698  1  0.806700  0.860900  0.146000  1
  H  H2699  1  0.860900  0.806700  0.854000  1
  H  H2700  1  0.139100  0.193300  0.854000  1
  H  H2701  1  0.231800  0.164800  0.141200  1
  H  H2702  1  0.768200  0.835200  0.141200  1
  H  H2703  1  0.835200  0.768200  0.858800  1
  H  H2704  1  0.164800  0.231800  0.858800  1
  H  H2705  1  0.331700  0.301900  0.113400  1
  H  H2706  1  0.668300  0.698100  0.113400  1
  H  H2707  1  0.698100  0.668300  0.886600  1
  H  H2708  1  0.301900  0.331700  0.886600  1
  H  H2709  1  0.328300  0.334300  0.091300  1
  H  H2710  1  0.671700  0.665700  0.091300  1
  H  H2711  1  0.665700  0.671700  0.908700  1
  H  H2712  1  0.334300  0.328300  0.908700  1
  H  H2713  1  0.433300  0.348300  0.064700  1
  H  H2714  1  0.566700  0.651700  0.064700  1
  H  H2715  1  0.651700  0.566700  0.935300  1
  H  H2716  1  0.348300  0.433300  0.935300  1
  H  H2717  1  0.432100  0.307100  0.077000  1
  H  H2718  1  0.567900  0.692900  0.077000  1
  H  H2719  1  0.692900  0.567900  0.923000  1
  H  H2720  1  0.307100  0.432100  0.923000  1
  H  H2721  1  0.524900  0.202700  0.048300  1
  H  H2722  1  0.475100  0.797300  0.048300  1
  H  H2723  1  0.797300  0.475100  0.951700  1
  H  H2724  1  0.202700  0.524900  0.951700  1
  H  H2725  1  0.527000  0.175600  0.022000  1
  H  H2726  1  0.473000  0.824400  0.022000  1
  H  H2727  1  0.824400  0.473000  0.978000  1
  H  H2728  1  0.175600  0.527000  0.978000  1
  H  H2729  1  0.472700  0.081900  0.050100  1
  H  H2730  1  0.527300  0.918100  0.050100  1
  H  H2731  1  0.918100  0.527300  0.949900  1
  H  H2732  1  0.081900  0.472700  0.949900  1
  H  H2733  1  0.454900  0.106300  0.073200  1
  H  H2734  1  0.545100  0.893700  0.073200  1
  H  H2735  1  0.893700  0.545100  0.926800  1
  H  H2736  1  0.106300  0.454900  0.926800  1
  H  H2737  1  0.476000  0.082800  0.447500  1
  H  H2738  1  0.524000  0.917200  0.447500  1
  H  H2739  1  0.917200  0.524000  0.552500  1
  H  H2740  1  0.082800  0.476000  0.552500  1
  H  H2741  1  0.497400  0.112600  0.426500  1
  H  H2742  1  0.502600  0.887400  0.426500  1
  H  H2743  1  0.887400  0.502600  0.573500  1
  H  H2744  1  0.112600  0.497400  0.573500  1
  H  H2745  1  0.440900  0.198300  0.447600  1
  H  H2746  1  0.559100  0.801700  0.447600  1
  H  H2747  1  0.801700  0.559100  0.552400  1
  H  H2748  1  0.198300  0.440900  0.552400  1
  H  H2749  1  0.432300  0.172900  0.474900  1
  H  H2750  1  0.567700  0.827100  0.474900  1
  H  H2751  1  0.827100  0.567700  0.525100  1
  H  H2752  1  0.172900  0.432300  0.525100  1
  H  H2753  1  0.518900  0.383700  0.436400  1
  H  H2754  1  0.481100  0.616300  0.436400  1
  H  H2755  1  0.616300  0.481100  0.563600  1
  H  H2756  1  0.383700  0.518900  0.563600  1
  H  H2757  1  0.509100  0.341700  0.425400  1
  H  H2758  1  0.490900  0.658300  0.425400  1
  H  H2759  1  0.658300  0.490900  0.574600  1
  H  H2760  1  0.341700  0.509100  0.574600  1
  H  H2761  1  0.612600  0.347000  0.385300  1
  H  H2762  1  0.387400  0.653000  0.385300  1
  H  H2763  1  0.653000  0.387400  0.614700  1
  H  H2764  1  0.347000  0.612600  0.614700  1
  H  H2765  1  0.620300  0.382300  0.405600  1
  H  H2766  1  0.379700  0.617700  0.405600  1
  H  H2767  1  0.617700  0.379700  0.594400  1
  H  H2768  1  0.382300  0.620300  0.594400  1
  H  H2769  1  0.711300  0.209300  0.364700  1
  H  H2770  1  0.288700  0.790700  0.364700  1
  H  H2771  1  0.790700  0.288700  0.635300  1
  H  H2772  1  0.209300  0.711300  0.635300  1
  H  H2773  1  0.669100  0.216300  0.366600  1
  H  H2774  1  0.330900  0.783700  0.366600  1
  H  H2775  1  0.783700  0.330900  0.633400  1
  H  H2776  1  0.216300  0.669100  0.633400  1
  H  H2777  1  0.630900  0.111300  0.391200  1
  H  H2778  1  0.369100  0.888700  0.391200  1
  H  H2779  1  0.888700  0.369100  0.608800  1
  H  H2780  1  0.111300  0.630900  0.608800  1
  H  H2781  1  0.673900  0.112100  0.398800  1
  H  H2782  1  0.326100  0.887900  0.398800  1
  H  H2783  1  0.887900  0.326100  0.601200  1
  H  H2784  1  0.112100  0.673900  0.601200  1
  N  N2785  1  0.962200  0.339600  0.314900  1
  N  N2786  1  0.037800  0.660400  0.314900  1
  N  N2787  1  0.660400  0.037800  0.685100  1
  N  N2788  1  0.339600  0.962200  0.685100  1
  N  N2789  1  0.971000  0.328600  0.202500  1
  N  N2790  1  0.029000  0.671400  0.202500  1
  N  N2791  1  0.671400  0.029000  0.797500  1
  N  N2792  1  0.328600  0.971000  0.797500  1
  N  N2793  1  0.938100  0.264500  0.241500  1
  N  N2794  1  0.061900  0.735500  0.241500  1
  N  N2795  1  0.735500  0.061900  0.758500  1
  N  N2796  1  0.264500  0.938100  0.758500  1
  N  N2797  1  0.986800  0.279800  0.288200  1
  N  N2798  1  0.013200  0.720200  0.288200  1
  N  N2799  1  0.720200  0.013200  0.711800  1
  N  N2800  1  0.279800  0.986800  0.711800  1
  N  N2801  1  0.048900  0.297100  0.189600  1
  N  N2802  1  0.951100  0.702900  0.189600  1
  N  N2803  1  0.702900  0.951100  0.810400  1
  N  N2804  1  0.297100  0.048900  0.810400  1
  N  N2805  1  0.990100  0.438300  0.280800  1
  N  N2806  1  0.009900  0.561700  0.280800  1
  N  N2807  1  0.561700  0.009900  0.719200  1
  N  N2808  1  0.438300  0.990100  0.719200  1
  N  N2809  1  0.954600  0.437600  0.220100  1
  N  N2810  1  0.045400  0.562400  0.220100  1
  N  N2811  1  0.562400  0.045400  0.779900  1
  N  N2812  1  0.437600  0.954600  0.779900  1
  N  N2813  1  0.034000  0.434000  0.194000  1
  N  N2814  1  0.966000  0.566000  0.194000  1
  N  N2815  1  0.566000  0.966000  0.806000  1
  N  N2816  1  0.434000  0.034000  0.806000  1
  N  N2817  1  0.065900  0.433300  0.255500  1
  N  N2818  1  0.934100  0.566700  0.255500  1
  N  N2819  1  0.566700  0.934100  0.744500  1
  N  N2820  1  0.433300  0.065900  0.744500  1
  N  N2821  1  0.821000  0.428800  0.308200  1
  N  N2822  1  0.179000  0.571200  0.308200  1
  N  N2823  1  0.571200  0.179000  0.691800  1
  N  N2824  1  0.428800  0.821000  0.691800  1
  N  N2825  1  0.938900  0.398500  0.088000  1
  N  N2826  1  0.061100  0.601500  0.088000  1
  N  N2827  1  0.601500  0.061100  0.912000  1
  N  N2828  1  0.398500  0.938900  0.912000  1
  N  N2829  1  0.182600  0.393400  0.162200  1
  N  N2830  1  0.817400  0.606600  0.162200  1
  N  N2831  1  0.606600  0.817400  0.837800  1
  N  N2832  1  0.393400  0.182600  0.837800  1
  N  N2833  1  0.071100  0.415100  0.390300  1
  N  N2834  1  0.928900  0.584900  0.390300  1
  N  N2835  1  0.584900  0.928900  0.609700  1
  N  N2836  1  0.415100  0.071100  0.609700  1
  N  N2837  1  0.818900  0.230700  0.249100  1
  N  N2838  1  0.181100  0.769300  0.249100  1
  N  N2839  1  0.769300  0.181100  0.750900  1
  N  N2840  1  0.230700  0.818900  0.750900  1
  N  N2841  1  0.856700  0.166500  0.221000  1
  N  N2842  1  0.143300  0.833500  0.221000  1
  N  N2843  1  0.833500  0.143300  0.779000  1
  N  N2844  1  0.166500  0.856700  0.779000  1
  N  N2845  1  0.856700  0.208900  0.163400  1
  N  N2846  1  0.143300  0.791100  0.163400  1
  N  N2847  1  0.791100  0.143300  0.836600  1
  N  N2848  1  0.208900  0.856700  0.836600  1
  N  N2849  1  0.814300  0.265700  0.190500  1
  N  N2850  1  0.185700  0.734300  0.190500  1
  N  N2851  1  0.734300  0.185700  0.809500  1
  N  N2852  1  0.265700  0.814300  0.809500  1
  N  N2853  1  0.844300  0.140100  0.353500  1
  N  N2854  1  0.155700  0.859900  0.353500  1
  N  N2855  1  0.859900  0.155700  0.646500  1
  N  N2856  1  0.140100  0.844300  0.646500  1
  N  N2857  1  0.961000  0.093400  0.132100  1
  N  N2858  1  0.039000  0.906600  0.132100  1
  N  N2859  1  0.906600  0.039000  0.867900  1
  N  N2860  1  0.093400  0.961000  0.867900  1
  N  N2861  1  0.882700  0.328300  0.075800  1
  N  N2862  1  0.117300  0.671700  0.075800  1
  N  N2863  1  0.671700  0.117300  0.924200  1
  N  N2864  1  0.328300  0.882700  0.924200  1
  N  N2865  1  0.762600  0.367000  0.293400  1
  N  N2866  1  0.237400  0.633000  0.293400  1
  N  N2867  1  0.633000  0.237400  0.706600  1
  N  N2868  1  0.367000  0.762600  0.706600  1
  N  N2869  1  0.060800  0.205400  0.332300  1
  N  N2870  1  0.939200  0.794600  0.332300  1
  N  N2871  1  0.794600  0.939200  0.667700  1
  N  N2872  1  0.205400  0.060800  0.667700  1
  N  N2873  1  0.124100  0.251500  0.298000  1
  N  N2874  1  0.875900  0.748500  0.298000  1
  N  N2875  1  0.748500  0.875900  0.702000  1
  N  N2876  1  0.251500  0.124100  0.702000  1
  N  N2877  1  0.109500  0.199700  0.246400  1
  N  N2878  1  0.890500  0.800300  0.246400  1
  N  N2879  1  0.800300  0.890500  0.753600  1
  N  N2880  1  0.199700  0.109500  0.753600  1
  N  N2881  1  0.048500  0.153900  0.279900  1
  N  N2882  1  0.951500  0.846100  0.279900  1
  N  N2883  1  0.846100  0.951500  0.720100  1
  N  N2884  1  0.153900  0.048500  0.720100  1
  N  N2885  1  0.092100  0.342500  0.409800  1
  N  N2886  1  0.907900  0.657500  0.409800  1
  N  N2887  1  0.657500  0.907900  0.590200  1
  N  N2888  1  0.342500  0.092100  0.590200  1
  N  N2889  1  0.204600  0.321000  0.185300  1
  N  N2890  1  0.795400  0.679000  0.185300  1
  N  N2891  1  0.679000  0.795400  0.814700  1
  N  N2892  1  0.321000  0.204600  0.814700  1
  N  N2893  1  0.040200  0.091400  0.155200  1
  N  N2894  1  0.959800  0.908600  0.155200  1
  N  N2895  1  0.908600  0.959800  0.844800  1
  N  N2896  1  0.091400  0.040200  0.844800  1
  N  N2897  1  0.915600  0.131600  0.381100  1
  N  N2898  1  0.084400  0.868400  0.381100  1
  N  N2899  1  0.868400  0.084400  0.618900  1
  N  N2900  1  0.131600  0.915600  0.618900  1
  N  N2901  1  0.809100  0.409300  0.376000  1
  N  N2902  1  0.190900  0.590700  0.376000  1
  N  N2903  1  0.590700  0.190900  0.624000  1
  N  N2904  1  0.409300  0.809100  0.624000  1
  N  N2905  1  0.748900  0.351700  0.360700  1
  N  N2906  1  0.251100  0.648300  0.360700  1
  N  N2907  1  0.648300  0.251100  0.639300  1
  N  N2908  1  0.351700  0.748900  0.639300  1
  N  N2909  1  0.827100  0.186100  0.407300  1
  N  N2910  1  0.172900  0.813900  0.407300  1
  N  N2911  1  0.813900  0.172900  0.592700  1
  N  N2912  1  0.186100  0.827100  0.592700  1
  N  N2913  1  0.906500  0.182100  0.429100  1
  N  N2914  1  0.093500  0.817900  0.429100  1
  N  N2915  1  0.817900  0.093500  0.570900  1
  N  N2916  1  0.182100  0.906500  0.570900  1
  N  N2917  1  0.026400  0.334800  0.453600  1
  N  N2918  1  0.973600  0.665200  0.453600  1
  N  N2919  1  0.665200  0.973600  0.546400  1
  N  N2920  1  0.334800  0.026400  0.546400  1
  N  N2921  1  0.001900  0.405900  0.433500  1
  N  N2922  1  0.998100  0.594100  0.433500  1
  N  N2923  1  0.594100  0.998100  0.566500  1
  N  N2924  1  0.405900  0.001900  0.566500  1
  N  N2925  1  0.997000  0.368200  0.050700  1
  N  N2926  1  0.003000  0.631800  0.050700  1
  N  N2927  1  0.631800  0.003000  0.949300  1
  N  N2928  1  0.368200  0.997000  0.949300  1
  N  N2929  1  0.945400  0.301600  0.037900  1
  N  N2930  1  0.054600  0.698400  0.037900  1
  N  N2931  1  0.698400  0.054600  0.962100  1
  N  N2932  1  0.301600  0.945400  0.962100  1
  N  N2933  1  0.001900  0.124300  0.072000  1
  N  N2934  1  0.998100  0.875700  0.072000  1
  N  N2935  1  0.875700  0.998100  0.928000  1
  N  N2936  1  0.124300  0.001900  0.928000  1
  N  N2937  1  0.074200  0.122600  0.098300  1
  N  N2938  1  0.925800  0.877400  0.098300  1
  N  N2939  1  0.877400  0.925800  0.901700  1
  N  N2940  1  0.122600  0.074200  0.901700  1
  N  N2941  1  0.195600  0.289000  0.124900  1
  N  N2942  1  0.804400  0.711000  0.124900  1
  N  N2943  1  0.711000  0.804400  0.875100  1
  N  N2944  1  0.289000  0.195600  0.875100  1
  N  N2945  1  0.178000  0.358800  0.102600  1
  N  N2946  1  0.822000  0.641200  0.102600  1
  N  N2947  1  0.641200  0.822000  0.897400  1
  N  N2948  1  0.358800  0.178000  0.897400  1
  N  N2949  1  0.437900  0.159900  0.169200  1
  N  N2950  1  0.562100  0.840100  0.169200  1
  N  N2951  1  0.840100  0.562100  0.830800  1
  N  N2952  1  0.159900  0.437900  0.830800  1
  N  N2953  1  0.456600  0.167400  0.288200  1
  N  N2954  1  0.543400  0.832600  0.288200  1
  N  N2955  1  0.832600  0.543400  0.711800  1
  N  N2956  1  0.167400  0.456600  0.711800  1
  N  N2957  1  0.433600  0.230200  0.253200  1
  N  N2958  1  0.566400  0.769800  0.253200  1
  N  N2959  1  0.769800  0.566400  0.746800  1
  N  N2960  1  0.230200  0.433600  0.746800  1
  N  N2961  1  0.480300  0.218700  0.202900  1
  N  N2962  1  0.519700  0.781300  0.202900  1
  N  N2963  1  0.781300  0.519700  0.797100  1
  N  N2964  1  0.218700  0.480300  0.797100  1
  N  N2965  1  0.539900  0.191700  0.301300  1
  N  N2966  1  0.460100  0.808300  0.301300  1
  N  N2967  1  0.808300  0.460100  0.698700  1
  N  N2968  1  0.191700  0.539900  0.698700  1
  N  N2969  1  0.449000  0.062200  0.205800  1
  N  N2970  1  0.551000  0.937800  0.205800  1
  N  N2971  1  0.937800  0.551000  0.794200  1
  N  N2972  1  0.062200  0.449000  0.794200  1
  N  N2973  1  0.414200  0.058800  0.267300  1
  N  N2974  1  0.585800  0.941200  0.267300  1
  N  N2975  1  0.941200  0.585800  0.732700  1
  N  N2976  1  0.058800  0.414200  0.732700  1
  N  N2977  1  0.493500  0.056900  0.292500  1
  N  N2978  1  0.506500  0.943100  0.292500  1
  N  N2979  1  0.943100  0.506500  0.707500  1
  N  N2980  1  0.056900  0.493500  0.707500  1
  N  N2981  1  0.530800  0.062800  0.231200  1
  N  N2982  1  0.469200  0.937200  0.231200  1
  N  N2983  1  0.937200  0.469200  0.768800  1
  N  N2984  1  0.062800  0.530800  0.768800  1
  N  N2985  1  0.279100  0.061700  0.185400  1
  N  N2986  1  0.720900  0.938300  0.185400  1
  N  N2987  1  0.938300  0.720900  0.814600  1
  N  N2988  1  0.061700  0.279100  0.814600  1
  N  N2989  1  0.411500  0.080500  0.401900  1
  N  N2990  1  0.588500  0.919500  0.401900  1
  N  N2991  1  0.919500  0.588500  0.598100  1
  N  N2992  1  0.080500  0.411500  0.598100  1
  N  N2993  1  0.652800  0.094000  0.327200  1
  N  N2994  1  0.347200  0.906000  0.327200  1
  N  N2995  1  0.906000  0.347200  0.672800  1
  N  N2996  1  0.094000  0.652800  0.672800  1
  N  N2997  1  0.537800  0.093600  0.098600  1
  N  N2998  1  0.462200  0.906400  0.098600  1
  N  N2999  1  0.906400  0.462200  0.901400  1
  N  N3000  1  0.093600  0.537800  0.901400  1
  N  N3001  1  0.324300  0.263500  0.253800  1
  N  N3002  1  0.675700  0.736500  0.253800  1
  N  N3003  1  0.736500  0.675700  0.746200  1
  N  N3004  1  0.263500  0.324300  0.746200  1
  N  N3005  1  0.374400  0.326600  0.283700  1
  N  N3006  1  0.625600  0.673400  0.283700  1
  N  N3007  1  0.673400  0.625600  0.716300  1
  N  N3008  1  0.326600  0.374400  0.716300  1
  N  N3009  1  0.369200  0.277400  0.339900  1
  N  N3010  1  0.630800  0.722600  0.339900  1
  N  N3011  1  0.722600  0.630800  0.660100  1
  N  N3012  1  0.277400  0.369200  0.660100  1
  N  N3013  1  0.312900  0.218900  0.309300  1
  N  N3014  1  0.687100  0.781100  0.309300  1
  N  N3015  1  0.781100  0.687100  0.690700  1
  N  N3016  1  0.218900  0.312900  0.690700  1
  N  N3017  1  0.371400  0.362200  0.151600  1
  N  N3018  1  0.628600  0.637800  0.151600  1
  N  N3019  1  0.637800  0.628600  0.848400  1
  N  N3020  1  0.362200  0.371400  0.848400  1
  N  N3021  1  0.499700  0.391700  0.373700  1
  N  N3022  1  0.500300  0.608300  0.373700  1
  N  N3023  1  0.608300  0.500300  0.626300  1
  N  N3024  1  0.391700  0.499700  0.626300  1
  N  N3025  1  0.376700  0.150900  0.419700  1
  N  N3026  1  0.623300  0.849100  0.419700  1
  N  N3027  1  0.849100  0.623300  0.580300  1
  N  N3028  1  0.150900  0.376700  0.580300  1
  N  N3029  1  0.234500  0.123500  0.206300  1
  N  N3030  1  0.765500  0.876500  0.206300  1
  N  N3031  1  0.876500  0.765500  0.793700  1
  N  N3032  1  0.123500  0.234500  0.793700  1
  N  N3033  1  0.577400  0.296400  0.166100  1
  N  N3034  1  0.422600  0.703600  0.166100  1
  N  N3035  1  0.703600  0.422600  0.833900  1
  N  N3036  1  0.296400  0.577400  0.833900  1
  N  N3037  1  0.625800  0.249000  0.198600  1
  N  N3038  1  0.374200  0.751000  0.198600  1
  N  N3039  1  0.751000  0.374200  0.801400  1
  N  N3040  1  0.249000  0.625800  0.801400  1
  N  N3041  1  0.623900  0.300900  0.253200  1
  N  N3042  1  0.376100  0.699100  0.253200  1
  N  N3043  1  0.699100  0.376100  0.746800  1
  N  N3044  1  0.300900  0.623900  0.746800  1
  N  N3045  1  0.570400  0.346000  0.218000  1
  N  N3046  1  0.429600  0.654000  0.218000  1
  N  N3047  1  0.654000  0.429600  0.782000  1
  N  N3048  1  0.346000  0.570400  0.782000  1
  N  N3049  1  0.579000  0.167600  0.080600  1
  N  N3050  1  0.421000  0.832400  0.080600  1
  N  N3051  1  0.832400  0.421000  0.919400  1
  N  N3052  1  0.167600  0.579000  0.919400  1
  N  N3053  1  0.688000  0.172200  0.308300  1
  N  N3054  1  0.312000  0.827800  0.308300  1
  N  N3055  1  0.827800  0.312000  0.691700  1
  N  N3056  1  0.172200  0.688000  0.691700  1
  N  N3057  1  0.576000  0.398600  0.349600  1
  N  N3058  1  0.424000  0.601400  0.349600  1
  N  N3059  1  0.601400  0.424000  0.650400  1
  N  N3060  1  0.398600  0.576000  0.650400  1
  N  N3061  1  0.446600  0.371000  0.124300  1
  N  N3062  1  0.553400  0.629000  0.124300  1
  N  N3063  1  0.629000  0.553400  0.875700  1
  N  N3064  1  0.371000  0.446600  0.875700  1
  N  N3065  1  0.261300  0.079700  0.124400  1
  N  N3066  1  0.738700  0.920300  0.124400  1
  N  N3067  1  0.920300  0.738700  0.875600  1
  N  N3068  1  0.079700  0.261300  0.875600  1
  N  N3069  1  0.219000  0.139400  0.139300  1
  N  N3070  1  0.781000  0.860600  0.139300  1
  N  N3071  1  0.860600  0.781000  0.860700  1
  N  N3072  1  0.139400  0.219000  0.860700  1
  N  N3073  1  0.344400  0.316200  0.097700  1
  N  N3074  1  0.655600  0.683800  0.097700  1
  N  N3075  1  0.683800  0.655600  0.902300  1
  N  N3076  1  0.316200  0.344400  0.902300  1
  N  N3077  1  0.417300  0.327700  0.073800  1
  N  N3078  1  0.582700  0.672300  0.073800  1
  N  N3079  1  0.672300  0.582700  0.926200  1
  N  N3080  1  0.327700  0.417300  0.926200  1
  N  N3081  1  0.515500  0.178100  0.040700  1
  N  N3082  1  0.484500  0.821900  0.040700  1
  N  N3083  1  0.821900  0.484500  0.959300  1
  N  N3084  1  0.178100  0.515500  0.959300  1
  N  N3085  1  0.471100  0.107500  0.056400  1
  N  N3086  1  0.528900  0.892500  0.056400  1
  N  N3087  1  0.892500  0.528900  0.943600  1
  N  N3088  1  0.107500  0.471100  0.943600  1
  N  N3089  1  0.479900  0.109300  0.442400  1
  N  N3090  1  0.520100  0.890700  0.442400  1
  N  N3091  1  0.890700  0.520100  0.557600  1
  N  N3092  1  0.109300  0.479900  0.557600  1
  N  N3093  1  0.445300  0.174900  0.456700  1
  N  N3094  1  0.554700  0.825100  0.456700  1
  N  N3095  1  0.825100  0.554700  0.543300  1
  N  N3096  1  0.174900  0.445300  0.543300  1
  N  N3097  1  0.529000  0.362800  0.427300  1
  N  N3098  1  0.471000  0.637200  0.427300  1
  N  N3099  1  0.637200  0.471000  0.572700  1
  N  N3100  1  0.362800  0.529000  0.572700  1
  N  N3101  1  0.602100  0.360700  0.400700  1
  N  N3102  1  0.397900  0.639300  0.400700  1
  N  N3103  1  0.639300  0.397900  0.599300  1
  N  N3104  1  0.360700  0.602100  0.599300  1
  N  N3105  1  0.686600  0.198600  0.371400  1
  N  N3106  1  0.313400  0.801400  0.371400  1
  N  N3107  1  0.801400  0.313400  0.628600  1
  N  N3108  1  0.198600  0.686600  0.628600  1
  N  N3109  1  0.655100  0.127100  0.391800  1
  N  N3110  1  0.344900  0.872900  0.391800  1
  N  N3111  1  0.872900  0.344900  0.608200  1
  N  N3112  1  0.127100  0.655100  0.608200  1
  N  N3113  1  0.776900  0.254500  0.366600  1
  N  N3114  1  0.223100  0.745500  0.366600  1
  N  N3115  1  0.745500  0.223100  0.633400  1
  N  N3116  1  0.254500  0.776900  0.633400  1
  N  N3117  1  0.551300  0.129900  0.381000  1
  N  N3118  1  0.448700  0.870100  0.381000  1
  N  N3119  1  0.870100  0.448700  0.619000  1
  N  N3120  1  0.129900  0.551300  0.619000  1
  N  N3121  1  0.116400  0.213600  0.134200  1
  N  N3122  1  0.883600  0.786400  0.134200  1
  N  N3123  1  0.786400  0.883600  0.865800  1
  N  N3124  1  0.213600  0.116400  0.865800  1
  N  N3125  1  0.140400  0.071600  0.143500  1
  N  N3126  1  0.859600  0.928400  0.143500  1
  N  N3127  1  0.928400  0.859600  0.856500  1
  N  N3128  1  0.071600  0.140400  0.856500  1
  N  N3129  1  0.214600  0.229400  0.337000  1
  N  N3130  1  0.785400  0.770600  0.337000  1
  N  N3131  1  0.770600  0.785400  0.663000  1
  N  N3132  1  0.229400  0.214600  0.663000  1
  N  N3133  1  0.274000  0.236600  0.138200  1
  N  N3134  1  0.726000  0.763400  0.138200  1
  N  N3135  1  0.763400  0.726000  0.861800  1
  N  N3136  1  0.236600  0.274000  0.861800  1
  N  N3137  1  0.626900  0.281100  0.367800  1
  N  N3138  1  0.373100  0.718900  0.367800  1
  N  N3139  1  0.718900  0.373100  0.632200  1
  N  N3140  1  0.281100  0.626900  0.632200  1
  N  N3141  1  0.483100  0.260700  0.399100  1
  N  N3142  1  0.516900  0.739300  0.399100  1
  N  N3143  1  0.739300  0.516900  0.600900  1
  N  N3144  1  0.260700  0.483100  0.600900  1
  N  N3145  1  0.071000  0.356600  0.110800  1
  N  N3146  1  0.929000  0.643400  0.110800  1
  N  N3147  1  0.643400  0.929000  0.889200  1
  N  N3148  1  0.356600  0.071000  0.889200  1
  N  N3149  1  0.350300  0.066900  0.103500  1
  N  N3150  1  0.649700  0.933100  0.103500  1
  N  N3151  1  0.933100  0.649700  0.896500  1
  N  N3152  1  0.066900  0.350300  0.896500  1
  N  N3153  1  0.685600  0.425600  0.354100  1
  N  N3154  1  0.314400  0.574400  0.354100  1
  N  N3155  1  0.574400  0.314400  0.645900  1
  N  N3156  1  0.425600  0.685600  0.645900  1
  N  N3157  1  0.117200  0.400800  0.488200  1
  N  N3158  1  0.882800  0.599200  0.488200  1
  N  N3159  1  0.599200  0.882800  0.511800  1
  N  N3160  1  0.400800  0.117200  0.511800  1
  N  N3161  1  0.725000  0.093000  0.229900  1
  N  N3162  1  0.275000  0.907000  0.229900  1
  N  N3163  1  0.907000  0.275000  0.770100  1
  N  N3164  1  0.093000  0.725000  0.770100  1
  N  N3165  1  0.275700  0.378900  0.084500  1
  N  N3166  1  0.724300  0.621100  0.084500  1
  N  N3167  1  0.621100  0.724300  0.915500  1
  N  N3168  1  0.378900  0.275700  0.915500  1
  N  N3169  1  0.974300  0.222300  0.094100  1
  N  N3170  1  0.025700  0.777700  0.094100  1
  N  N3171  1  0.777700  0.025700  0.905900  1
  N  N3172  1  0.222300  0.974300  0.905900  1
  N  N3173  1  0.717500  0.282500  0.154100  1
  N  N3174  1  0.282500  0.717500  0.154100  1
  N  N3175  1  0.717500  0.282500  0.845900  1
  N  N3176  1  0.282500  0.717500  0.845900  1
  O  O3177  1  0.003200  0.365400  0.240900  1
  O  O3178  1  0.996800  0.634600  0.240900  1
  O  O3179  1  0.634600  0.996800  0.759100  1
  O  O3180  1  0.365400  0.003200  0.759100  1
  O  O3181  1  0.031300  0.273100  0.235300  1
  O  O3182  1  0.968700  0.726900  0.235300  1
  O  O3183  1  0.726900  0.968700  0.764700  1
  O  O3184  1  0.273100  0.031300  0.764700  1
  O  O3185  1  0.908500  0.311500  0.265600  1
  O  O3186  1  0.091500  0.688500  0.265600  1
  O  O3187  1  0.688500  0.091500  0.734400  1
  O  O3188  1  0.311500  0.908500  0.734400  1
  O  O3189  1  0.942400  0.244800  0.319600  1
  O  O3190  1  0.057600  0.755200  0.319600  1
  O  O3191  1  0.755200  0.057600  0.680400  1
  O  O3192  1  0.244800  0.942400  0.680400  1
  O  O3193  1  0.999900  0.326300  0.364400  1
  O  O3194  1  0.000100  0.673700  0.364400  1
  O  O3195  1  0.673700  0.000100  0.635600  1
  O  O3196  1  0.326300  0.999900  0.635600  1
  O  O3197  1  0.774000  0.179000  0.195100  1
  O  O3198  1  0.226000  0.821000  0.195100  1
  O  O3199  1  0.821000  0.226000  0.804900  1
  O  O3200  1  0.179000  0.774000  0.804900  1
  O  O3201  1  0.130500  0.161100  0.311200  1
  O  O3202  1  0.869500  0.838900  0.311200  1
  O  O3203  1  0.838900  0.869500  0.688800  1
  O  O3204  1  0.161100  0.130500  0.688800  1
  O  O3205  1  0.479800  0.131800  0.249400  1
  O  O3206  1  0.520200  0.868200  0.249400  1
  O  O3207  1  0.868200  0.520200  0.750600  1
  O  O3208  1  0.131800  0.479800  0.750600  1
  O  O3209  1  0.529200  0.225400  0.259000  1
  O  O3210  1  0.470800  0.774600  0.259000  1
  O  O3211  1  0.774600  0.470800  0.741000  1
  O  O3212  1  0.225400  0.529200  0.741000  1
  O  O3213  1  0.393500  0.182700  0.229000  1
  O  O3214  1  0.606500  0.817300  0.229000  1
  O  O3215  1  0.817300  0.606500  0.771000  1
  O  O3216  1  0.182700  0.393500  0.771000  1
  O  O3217  1  0.443700  0.259100  0.175900  1
  O  O3218  1  0.556300  0.740900  0.175900  1
  O  O3219  1  0.740900  0.556300  0.824100  1
  O  O3220  1  0.259100  0.443700  0.824100  1
  O  O3221  1  0.480800  0.172600  0.131500  1
  O  O3222  1  0.519200  0.827400  0.131500  1
  O  O3223  1  0.827400  0.519200  0.868500  1
  O  O3224  1  0.172600  0.480800  0.868500  1
  O  O3225  1  0.290800  0.305000  0.312400  1
  O  O3226  1  0.709200  0.695000  0.312400  1
  O  O3227  1  0.695000  0.709200  0.687600  1
  O  O3228  1  0.305000  0.290800  0.687600  1
  O  O3229  1  0.655200  0.345200  0.190900  1
  O  O3230  1  0.344800  0.654800  0.190900  1
  O  O3231  1  0.654800  0.344800  0.809100  1
  O  O3232  1  0.345200  0.655200  0.809100  1
  O  O3233  1  0.807700  0.280700  0.371900  1
  O  O3234  1  0.192300  0.719300  0.371900  1
  O  O3235  1  0.719300  0.192300  0.628100  1
  O  O3236  1  0.280700  0.807700  0.628100  1
  O  O3237  1  0.748100  0.266700  0.351600  1
  O  O3238  1  0.251900  0.733300  0.351600  1
  O  O3239  1  0.733300  0.251900  0.648400  1
  O  O3240  1  0.266700  0.748100  0.648400  1
  O  O3241  1  0.775900  0.220500  0.369100  1
  O  O3242  1  0.224100  0.779500  0.369100  1
  O  O3243  1  0.779500  0.224100  0.630900  1
  O  O3244  1  0.220500  0.775900  0.630900  1
  O  O3245  1  0.563600  0.106800  0.392300  1
  O  O3246  1  0.436400  0.893200  0.392300  1
  O  O3247  1  0.893200  0.436400  0.607700  1
  O  O3248  1  0.106800  0.563600  0.607700  1
  O  O3249  1  0.569000  0.148800  0.356900  1
  O  O3250  1  0.431000  0.851200  0.356900  1
  O  O3251  1  0.851200  0.431000  0.643100  1
  O  O3252  1  0.148800  0.569000  0.643100  1
  O  O3253  1  0.517000  0.137400  0.385800  1
  O  O3254  1  0.483000  0.862600  0.385800  1
  O  O3255  1  0.862600  0.483000  0.614200  1
  O  O3256  1  0.137400  0.517000  0.614200  1
  O  O3257  1  0.143400  0.198800  0.128900  1
  O  O3258  1  0.856600  0.801200  0.128900  1
  O  O3259  1  0.801200  0.856600  0.871100  1
  O  O3260  1  0.198800  0.143400  0.871100  1
  O  O3261  1  0.082900  0.195700  0.133100  1
  O  O3262  1  0.917100  0.804300  0.133100  1
  O  O3263  1  0.804300  0.917100  0.866900  1
  O  O3264  1  0.195700  0.082900  0.866900  1
  O  O3265  1  0.119000  0.249600  0.142200  1
  O  O3266  1  0.881000  0.750400  0.142200  1
  O  O3267  1  0.750400  0.881000  0.857800  1
  O  O3268  1  0.249600  0.119000  0.857800  1
  O  O3269  1  0.136000  0.103400  0.149200  1
  O  O3270  1  0.864000  0.896600  0.149200  1
  O  O3271  1  0.896600  0.864000  0.850800  1
  O  O3272  1  0.103400  0.136000  0.850800  1
  O  O3273  1  0.155600  0.046200  0.162200  1
  O  O3274  1  0.844400  0.953800  0.162200  1
  O  O3275  1  0.953800  0.844400  0.837800  1
  O  O3276  1  0.046200  0.155600  0.837800  1
  O  O3277  1  0.120300  0.054100  0.120500  1
  O  O3278  1  0.879700  0.945900  0.120500  1
  O  O3279  1  0.945900  0.879700  0.879500  1
  O  O3280  1  0.054100  0.120300  0.879500  1
  O  O3281  1  0.230800  0.264800  0.351900  1
  O  O3282  1  0.769200  0.735200  0.351900  1
  O  O3283  1  0.735200  0.769200  0.648100  1
  O  O3284  1  0.264800  0.230800  0.648100  1
  O  O3285  1  0.212400  0.236600  0.311400  1
  O  O3286  1  0.787600  0.763400  0.311400  1
  O  O3287  1  0.763400  0.787600  0.688600  1
  O  O3288  1  0.236600  0.212400  0.688600  1
  O  O3289  1  0.196400  0.200600  0.349800  1
  O  O3290  1  0.803600  0.799400  0.349800  1
  O  O3291  1  0.799400  0.803600  0.650200  1
  O  O3292  1  0.200600  0.196400  0.650200  1
  O  O3293  1  0.302300  0.208300  0.130600  1
  O  O3294  1  0.697700  0.791700  0.130600  1
  O  O3295  1  0.791700  0.697700  0.869400  1
  O  O3296  1  0.208300  0.302300  0.869400  1
  O  O3297  1  0.279500  0.269300  0.133200  1
  O  O3298  1  0.720500  0.730700  0.133200  1
  O  O3299  1  0.730700  0.720500  0.866800  1
  O  O3300  1  0.269300  0.279500  0.866800  1
  O  O3301  1  0.243900  0.223500  0.148400  1
  O  O3302  1  0.756100  0.776500  0.148400  1
  O  O3303  1  0.776500  0.756100  0.851600  1
  O  O3304  1  0.223500  0.243900  0.851600  1
  O  O3305  1  0.622900  0.237700  0.356400  1
  O  O3306  1  0.377100  0.762300  0.356400  1
  O  O3307  1  0.762300  0.377100  0.643600  1
  O  O3308  1  0.237700  0.622900  0.643600  1
  O  O3309  1  0.587500  0.293900  0.363100  1
  O  O3310  1  0.412500  0.706100  0.363100  1
  O  O3311  1  0.706100  0.412500  0.636900  1
  O  O3312  1  0.293900  0.587500  0.636900  1
  O  O3313  1  0.660400  0.292400  0.369900  1
  O  O3314  1  0.339600  0.707600  0.369900  1
  O  O3315  1  0.707600  0.339600  0.630100  1
  O  O3316  1  0.292400  0.660400  0.630100  1
  O  O3317  1  0.495400  0.276400  0.374600  1
  O  O3318  1  0.504600  0.723600  0.374600  1
  O  O3319  1  0.723600  0.504600  0.625400  1
  O  O3320  1  0.276400  0.495400  0.625400  1
  O  O3321  1  0.484300  0.274900  0.424800  1
  O  O3322  1  0.515700  0.725100  0.424800  1
  O  O3323  1  0.725100  0.515700  0.575200  1
  O  O3324  1  0.274900  0.484300  0.575200  1
  O  O3325  1  0.458800  0.225400  0.403300  1
  O  O3326  1  0.541200  0.774600  0.403300  1
  O  O3327  1  0.774600  0.541200  0.596700  1
  O  O3328  1  0.225400  0.458800  0.596700  1
  O  O3329  1  0.094800  0.378400  0.093800  1
  O  O3330  1  0.905200  0.621600  0.093800  1
  O  O3331  1  0.621600  0.905200  0.906200  1
  O  O3332  1  0.378400  0.094800  0.906200  1
  O  O3333  1  0.089700  0.340300  0.133400  1
  O  O3334  1  0.910300  0.659700  0.133400  1
  O  O3335  1  0.659700  0.910300  0.866600  1
  O  O3336  1  0.340300  0.089700  0.866600  1
  O  O3337  1  0.033400  0.353400  0.105400  1
  O  O3338  1  0.966600  0.646600  0.105400  1
  O  O3339  1  0.646600  0.966600  0.894600  1
  O  O3340  1  0.353400  0.033400  0.894600  1
  O  O3341  1  0.361300  0.098500  0.116000  1
  O  O3342  1  0.638700  0.901500  0.116000  1
  O  O3343  1  0.901500  0.638700  0.884000  1
  O  O3344  1  0.098500  0.361300  0.884000  1
  O  O3345  1  0.375000  0.050400  0.089500  1
  O  O3346  1  0.625000  0.949600  0.089500  1
  O  O3347  1  0.949600  0.625000  0.910500  1
  O  O3348  1  0.050400  0.375000  0.910500  1
  O  O3349  1  0.326300  0.045900  0.119200  1
  O  O3350  1  0.673700  0.954100  0.119200  1
  O  O3351  1  0.954100  0.673700  0.880800  1
  O  O3352  1  0.045900  0.326300  0.880800  1
  O  O3353  1  0.681800  0.449200  0.373700  1
  O  O3354  1  0.318200  0.550800  0.373700  1
  O  O3355  1  0.550800  0.318200  0.626300  1
  O  O3356  1  0.449200  0.681800  0.626300  1
  O  O3357  1  0.708000  0.443000  0.335400  1
  O  O3358  1  0.292000  0.557000  0.335400  1
  O  O3359  1  0.557000  0.292000  0.664600  1
  O  O3360  1  0.443000  0.708000  0.664600  1
  O  O3361  1  0.675200  0.394600  0.355500  1
  O  O3362  1  0.324800  0.605400  0.355500  1
  O  O3363  1  0.605400  0.324800  0.644500  1
  O  O3364  1  0.394600  0.675200  0.644500  1
  O  O3365  1  0.088700  0.385700  0.502300  1
  O  O3366  1  0.911300  0.614300  0.502300  1
  O  O3367  1  0.614300  0.911300  0.497700  1
  O  O3368  1  0.385700  0.088700  0.497700  1
  O  O3369  1  0.113800  0.425000  0.468300  1
  O  O3370  1  0.886200  0.575000  0.468300  1
  O  O3371  1  0.575000  0.886200  0.531700  1
  O  O3372  1  0.425000  0.113800  0.531700  1
  O  O3373  1  0.150500  0.391300  0.492900  1
  O  O3374  1  0.849500  0.608700  0.492900  1
  O  O3375  1  0.608700  0.849500  0.507100  1
  O  O3376  1  0.391300  0.150500  0.507100  1
  O  O3377  1  0.698400  0.098600  0.214800  1
  O  O3378  1  0.301600  0.901400  0.214800  1
  O  O3379  1  0.901400  0.301600  0.785200  1
  O  O3380  1  0.098600  0.698400  0.785200  1
  O  O3381  1  0.724100  0.070500  0.251700  1
  O  O3382  1  0.275900  0.929500  0.251700  1
  O  O3383  1  0.929500  0.275900  0.748300  1
  O  O3384  1  0.070500  0.724100  0.748300  1
  O  O3385  1  0.760400  0.105200  0.225000  1
  O  O3386  1  0.239600  0.894800  0.225000  1
  O  O3387  1  0.894800  0.239600  0.775000  1
  O  O3388  1  0.105200  0.760400  0.775000  1
  O  O3389  1  0.279400  0.373000  0.113600  1
  O  O3390  1  0.720600  0.627000  0.113600  1
  O  O3391  1  0.627000  0.720600  0.886400  1
  O  O3392  1  0.373000  0.279400  0.886400  1
  O  O3393  1  0.300700  0.372900  0.068400  1
  O  O3394  1  0.699300  0.627100  0.068400  1
  O  O3395  1  0.627100  0.699300  0.931600  1
  O  O3396  1  0.372900  0.300700  0.931600  1
  O  O3397  1  0.252200  0.403000  0.078200  1
  O  O3398  1  0.747800  0.597000  0.078200  1
  O  O3399  1  0.597000  0.747800  0.921800  1
  O  O3400  1  0.403000  0.252200  0.921800  1
  O  O3401  1  0.966100  0.199700  0.073000  1
  O  O3402  1  0.033900  0.800300  0.073000  1
  O  O3403  1  0.800300  0.033900  0.927000  1
  O  O3404  1  0.199700  0.966100  0.927000  1
  O  O3405  1  0.954400  0.250400  0.092700  1
  O  O3406  1  0.045600  0.749600  0.092700  1
  O  O3407  1  0.749600  0.045600  0.907300  1
  O  O3408  1  0.250400  0.954400  0.907300  1
  O  O3409  1  0.989400  0.216000  0.118600  1
  O  O3410  1  0.010600  0.784000  0.118600  1
  O  O3411  1  0.784000  0.010600  0.881400  1
  O  O3412  1  0.216000  0.989400  0.881400  1
  O  O3413  1  0.721400  0.262400  0.177500  1
  O  O3414  1  0.278600  0.737600  0.177500  1
  O  O3415  1  0.737600  0.278600  0.822500  1
  O  O3416  1  0.262400  0.721400  0.822500  1
  O  O3417  1  0.723000  0.263400  0.131100  1
  O  O3418  1  0.277000  0.736600  0.131100  1
  O  O3419  1  0.736600  0.277000  0.868900  1
  O  O3420  1  0.263400  0.723000  0.868900  1
  O  O3421  1  0.706000  0.315600  0.148300  1
  O  O3422  1  0.294000  0.684400  0.148300  1
  O  O3423  1  0.684400  0.294000  0.851700  1
  O  O3424  1  0.315600  0.706000  0.851700  1
  O  O3425  1  0.860100  0.328500  0.320400  1
  O  O3426  1  0.139900  0.671500  0.320400  1
  O  O3427  1  0.671500  0.139900  0.679600  1
  O  O3428  1  0.328500  0.860100  0.679600  1
  O  O3429  1  0.946000  0.237800  0.178300  1
  O  O3430  1  0.054000  0.762200  0.178300  1
  O  O3431  1  0.762200  0.054000  0.821700  1
  O  O3432  1  0.237800  0.946000  0.821700  1
  O  O3433  1  0.343800  0.168000  0.180100  1
  O  O3434  1  0.656200  0.832000  0.180100  1
  O  O3435  1  0.832000  0.656200  0.819900  1
  O  O3436  1  0.168000  0.343800  0.819900  1
  O  O3437  1  0.199900  0.010100  0.117000  1
  O  O3438  1  0.800100  0.989900  0.117000  1
  O  O3439  1  0.989900  0.800100  0.883000  1
  O  O3440  1  0.010100  0.199900  0.883000  1
  O  O3441  1  0.977900  0.310300  0.138800  1
  O  O3442  1  0.022100  0.689700  0.138800  1
  O  O3443  1  0.689700  0.022100  0.861200  1
  O  O3444  1  0.310300  0.977900  0.861200  1
  O  O3445  1  0.807100  0.048900  0.198800  1
  O  O3446  1  0.192900  0.951100  0.198800  1
  O  O3447  1  0.951100  0.192900  0.801200  1
  O  O3448  1  0.048900  0.807100  0.801200  1
  O  O3449  1  0.060800  0.264000  0.088100  1
  O  O3450  1  0.939200  0.736000  0.088100  1
  O  O3451  1  0.736000  0.939200  0.911900  1
  O  O3452  1  0.264000  0.060800  0.911900  1
  O  O3453  1  0.778400  0.439400  0.207700  1
  O  O3454  1  0.221600  0.560600  0.207700  1
  O  O3455  1  0.560600  0.221600  0.792300  1
  O  O3456  1  0.439400  0.778400  0.792300  1
  O  O3457  1  0.967300  0.488700  0.407000  1
  O  O3458  1  0.032700  0.511300  0.407000  1
  O  O3459  1  0.511300  0.032700  0.593000  1
  O  O3460  1  0.488700  0.967300  0.593000  1
  O  O3461  1  0.775900  0.485100  0.389100  1
  O  O3462  1  0.224100  0.514900  0.389100  1
  O  O3463  1  0.514900  0.224100  0.610900  1
  O  O3464  1  0.485100  0.775900  0.610900  1
  O  O3465  1  0.453000  0.258200  0.318800  1
  O  O3466  1  0.547000  0.741800  0.318800  1
  O  O3467  1  0.741800  0.547000  0.681200  1
  O  O3468  1  0.258200  0.453000  0.681200  1
  O  O3469  1  0.904000  0.323800  0.980900  1
  O  O3470  1  0.096000  0.676200  0.980900  1
  O  O3471  1  0.676200  0.096000  0.019100  1
  O  O3472  1  0.323800  0.904000  0.019100  1
  O  O3473  1  0.948700  0.521100  0.461800  1
  O  O3474  1  0.051300  0.478900  0.461800  1
  O  O3475  1  0.478900  0.051300  0.538200  1
  O  O3476  1  0.521100  0.948700  0.538200  1
  O  O3477  1  0.928100  0.066100  0.052900  1
  O  O3478  1  0.071900  0.933900  0.052900  1
  O  O3479  1  0.933900  0.071900  0.947100  1
  O  O3480  1  0.066100  0.928100  0.947100  1
  O  O3481  1  0.906300  0.405700  0.994600  1
  O  O3482  1  0.093700  0.594300  0.994600  1
  O  O3483  1  0.594300  0.093700  0.005400  1
  O  O3484  1  0.405700  0.906300  0.005400  1
  O  O3485  1  0.292300  0.372100  0.283100  1
  O  O3486  1  0.707700  0.627900  0.283100  1
  O  O3487  1  0.627900  0.707700  0.716900  1
  O  O3488  1  0.372100  0.292300  0.716900  1
  O  O3489  1  0.685800  0.116800  0.155100  1
  O  O3490  1  0.314200  0.883200  0.155100  1
  O  O3491  1  0.883200  0.314200  0.844900  1
  O  O3492  1  0.116800  0.685800  0.844900  1
  O  O3493  1  0.927800  0.028800  0.243800  1
  O  O3494  1  0.072200  0.971200  0.243800  1
  O  O3495  1  0.971200  0.072200  0.756200  1
  O  O3496  1  0.028800  0.927800  0.756200  1
  O  O3497  1  0.561900  0.220300  0.408300  1
  O  O3498  1  0.438100  0.779700  0.408300  1
  O  O3499  1  0.779700  0.438100  0.591700  1
  O  O3500  1  0.220300  0.561900  0.591700  1
  O  O3501  1  0.853600  0.994800  0.210300  1
  O  O3502  1  0.146400  0.005200  0.210300  1
  O  O3503  1  0.005200  0.146400  0.789700  1
  O  O3504  1  0.994800  0.853600  0.789700  1
  O  O3505  1  0.584500  0.171300  0.987600  1
  O  O3506  1  0.415500  0.828700  0.987600  1
  O  O3507  1  0.828700  0.415500  0.012400  1
  O  O3508  1  0.171300  0.584500  0.012400  1
  O  O3509  1  0.227500  0.941700  0.128500  1
  O  O3510  1  0.772500  0.058300  0.128500  1
  O  O3511  1  0.058300  0.772500  0.871500  1
  O  O3512  1  0.941700  0.227500  0.871500  1
  O  O3513  1  0.007500  0.248300  0.440700  1
  O  O3514  1  0.992500  0.751700  0.440700  1
  O  O3515  1  0.751700  0.992500  0.559300  1
  O  O3516  1  0.248300  0.007500  0.559300  1
  O  O3517  1  0.349000  0.447200  0.293500  1
  O  O3518  1  0.651000  0.552800  0.293500  1
  O  O3519  1  0.552800  0.651000  0.706500  1
  O  O3520  1  0.447200  0.349000  0.706500  1
  O  O3521  1  0.883300  0.042100  0.301300  1
  O  O3522  1  0.116700  0.957900  0.301300  1
  O  O3523  1  0.957900  0.116700  0.698700  1
  O  O3524  1  0.042100  0.883300  0.698700  1
  O  O3525  1  0.778200  0.591200  0.273500  1
  O  O3526  1  0.221800  0.408800  0.273500  1
  O  O3527  1  0.408800  0.221800  0.726500  1
  O  O3528  1  0.591200  0.778200  0.726500  1
  O  O3529  1  0.468900  0.178100  0.354000  1
  O  O3530  1  0.531100  0.821900  0.354000  1
  O  O3531  1  0.821900  0.531100  0.646000  1
  O  O3532  1  0.178100  0.468900  0.646000  1
  O  O3533  1  0.418200  0.131400  0.097000  1
  O  O3534  1  0.581800  0.868600  0.097000  1
  O  O3535  1  0.868600  0.581800  0.903000  1
  O  O3536  1  0.131400  0.418200  0.903000  1
  O  O3537  1  0.721900  0.466700  0.447500  1
  O  O3538  1  0.278100  0.533300  0.447500  1
  O  O3539  1  0.533300  0.278100  0.552500  1
  O  O3540  1  0.466700  0.721900  0.552500  1
  O  O3541  1  0.659600  0.432600  0.423400  1
  O  O3542  1  0.340400  0.567400  0.423400  1
  O  O3543  1  0.567400  0.340400  0.576600  1
  O  O3544  1  0.432600  0.659600  0.576600  1
  O  O3545  1  0.932400  0.240200  0.379000  1
  O  O3546  1  0.067600  0.759800  0.379000  1
  O  O3547  1  0.759800  0.067600  0.621000  1
  O  O3548  1  0.240200  0.932400  0.621000  1
  O  O3549  1  0.897500  0.432900  0.386100  1
  O  O3550  1  0.102500  0.567100  0.386100  1
  O  O3551  1  0.567100  0.102500  0.613900  1
  O  O3552  1  0.432900  0.897500  0.613900  1
  O  O3553  1  0.941700  0.381500  0.385000  1
  O  O3554  1  0.058300  0.618500  0.385000  1
  O  O3555  1  0.618500  0.058300  0.615000  1
  O  O3556  1  0.381500  0.941700  0.615000  1
  O  O3557  1  0.762600  0.122200  0.427400  1
  O  O3558  1  0.237400  0.877800  0.427400  1
  O  O3559  1  0.877800  0.237400  0.572600  1
  O  O3560  1  0.122200  0.762600  0.572600  1
  O  O3561  1  0.916000  0.956400  0.057900  1
  O  O3562  1  0.084000  0.043600  0.057900  1
  O  O3563  1  0.043600  0.084000  0.942100  1
  O  O3564  1  0.956400  0.916000  0.942100  1
  O  O3565  1  0.907900  0.301100  0.401500  1
  O  O3566  1  0.092100  0.698900  0.401500  1
  O  O3567  1  0.698900  0.092100  0.598500  1
  O  O3568  1  0.301100  0.907900  0.598500  1
  O  O3569  1  0.577200  0.480800  0.416200  1
  O  O3570  1  0.422800  0.519200  0.416200  1
  O  O3571  1  0.519200  0.422800  0.583800  1
  O  O3572  1  0.480800  0.577200  0.583800  1
  O  O3573  1  0.814200  0.106400  0.452100  1
  O  O3574  1  0.185800  0.893600  0.452100  1
  O  O3575  1  0.893600  0.185800  0.547900  1
  O  O3576  1  0.106400  0.814200  0.547900  1
  O  O3577  1  0.435300  0.253700  0.113500  1
  O  O3578  1  0.564700  0.746300  0.113500  1
  O  O3579  1  0.746300  0.564700  0.886500  1
  O  O3580  1  0.253700  0.435300  0.886500  1
  O  O3581  1  0.478000  0.025200  0.417600  1
  O  O3582  1  0.522000  0.974800  0.417600  1
  O  O3583  1  0.974800  0.522000  0.582400  1
  O  O3584  1  0.025200  0.478000  0.582400  1
  O  O3585  1  0.122400  0.086000  0.295900  1
  O  O3586  1  0.877600  0.914000  0.295900  1
  O  O3587  1  0.914000  0.877600  0.704100  1
  O  O3588  1  0.086000  0.122400  0.704100  1
  O  O3589  1  0.271900  0.998700  0.352100  1
  O  O3590  1  0.728100  0.001300  0.352100  1
  O  O3591  1  0.001300  0.728100  0.647900  1
  O  O3592  1  0.998700  0.271900  0.647900  1
  O  O3593  1  0.958000  0.958000  1.000000  1
  O  O3594  1  0.042000  0.042000  0.000000  1
  O  O3595  1  0.000000  0.000000  0.259700  1
  O  O3596  1  0.000000  0.000000  0.740300  1
  O  O3597  1  0.534100  0.602100  0.041300  1
  O  O3598  1  0.465900  0.397900  0.041300  1
  O  O3599  1  0.397900  0.465900  0.958700  1
  O  O3600  1  0.602100  0.534100  0.958700  1
  O  O3601  1  0.000000  0.000000  0.315500  1
  O  O3602  1  0.000000  0.000000  0.684500  1
  O  O3603  1  0.787400  0.558600  0.336000  1
  O  O3604  1  0.212600  0.441400  0.336000  1
  O  O3605  1  0.441400  0.212600  0.664000  1
  O  O3606  1  0.558600  0.787400  0.664000  1
  O  O3607  1  0.243600  0.053200  0.285600  1
  O  O3608  1  0.756400  0.946800  0.285600  1
  O  O3609  1  0.946800  0.756400  0.714400  1
  O  O3610  1  0.053200  0.243600  0.714400  1
  O  O3611  1  0.386100  0.198700  0.091000  1
  O  O3612  1  0.613900  0.801300  0.091000  1
  O  O3613  1  0.801300  0.613900  0.909000  1
  O  O3614  1  0.198700  0.386100  0.909000  1
  O  O3615  1  0.876600  0.265200  0.357600  1
  O  O3616  1  0.123400  0.734800  0.357600  1
  O  O3617  1  0.734800  0.123400  0.642400  1
  O  O3618  1  0.265200  0.876600  0.642400  1
  O  O3619  1  0.502300  0.473100  0.300800  1
  O  O3620  1  0.497700  0.526900  0.300800  1
  O  O3621  1  0.526900  0.497700  0.699200  1
  O  O3622  1  0.473100  0.502300  0.699200  1
  O  O3623  1  0.000000  0.000000  0.084600  1
  O  O3624  1  0.000000  0.000000  0.915400  1
  O  O3625  1  0.972300  0.981700  0.090800  1
  O  O3626  1  0.027700  0.018300  0.090800  1
  O  O3627  1  0.018300  0.027700  0.909200  1
  O  O3628  1  0.981700  0.972300  0.909200  1
  Pd  Pd3629  1  0.785520  0.391280  0.334120  1
  Pd  Pd3630  1  0.214480  0.608720  0.334120  1
  Pd  Pd3631  1  0.608720  0.214480  0.665880  1
  Pd  Pd3632  1  0.391280  0.785520  0.665880  1
  Pd  Pd3633  1  0.873640  0.157060  0.391710  1
  Pd  Pd3634  1  0.126360  0.842940  0.391710  1
  Pd  Pd3635  1  0.842940  0.126360  0.608290  1
  Pd  Pd3636  1  0.157060  0.873640  0.608290  1
  Pd  Pd3637  1  0.049680  0.373640  0.421860  1
  Pd  Pd3638  1  0.950320  0.626360  0.421860  1
  Pd  Pd3639  1  0.626360  0.950320  0.578140  1
  Pd  Pd3640  1  0.373640  0.049680  0.578140  1
  Pd  Pd3641  1  0.940810  0.350030  0.062360  1
  Pd  Pd3642  1  0.059190  0.649970  0.062360  1
  Pd  Pd3643  1  0.649970  0.059190  0.937640  1
  Pd  Pd3644  1  0.350030  0.940810  0.937640  1
  Pd  Pd3645  1  0.018020  0.108300  0.114990  1
  Pd  Pd3646  1  0.981980  0.891700  0.114990  1
  Pd  Pd3647  1  0.891700  0.981980  0.885010  1
  Pd  Pd3648  1  0.108300  0.018020  0.885010  1
  Pd  Pd3649  1  0.192330  0.341430  0.144320  1
  Pd  Pd3650  1  0.807670  0.658570  0.144320  1
  Pd  Pd3651  1  0.658570  0.807670  0.855680  1
  Pd  Pd3652  1  0.341430  0.192330  0.855680  1
  Pd  Pd3653  1  0.247950  0.100430  0.165400  1
  Pd  Pd3654  1  0.752050  0.899570  0.165400  1
  Pd  Pd3655  1  0.899570  0.752050  0.834600  1
  Pd  Pd3656  1  0.100430  0.247950  0.834600  1
  Pd  Pd3657  1  0.395970  0.345250  0.112620  1
  Pd  Pd3658  1  0.604030  0.654750  0.112620  1
  Pd  Pd3659  1  0.654750  0.604030  0.887380  1
  Pd  Pd3660  1  0.345250  0.395970  0.887380  1
  Pd  Pd3661  1  0.529773  0.136893  0.067850  1
  Pd  Pd3662  1  0.470227  0.863107  0.067850  1
  Pd  Pd3663  1  0.863107  0.470227  0.932150  1
  Pd  Pd3664  1  0.136893  0.529773  0.932150  1
  Pd  Pd3665  1  0.425450  0.128250  0.430000  1
  Pd  Pd3666  1  0.574550  0.871750  0.430000  1
  Pd  Pd3667  1  0.871750  0.574550  0.570000  1
  Pd  Pd3668  1  0.128250  0.425450  0.570000  1
  Pd  Pd3669  1  0.553610  0.378330  0.387630  1
  Pd  Pd3670  1  0.446390  0.621670  0.387630  1
  Pd  Pd3671  1  0.621670  0.446390  0.612370  1
  Pd  Pd3672  1  0.378330  0.553610  0.612370  1
  Pd  Pd3673  1  0.670470  0.149170  0.349590  1
  Pd  Pd3674  1  0.329530  0.850830  0.349590  1
  Pd  Pd3675  1  0.850830  0.329530  0.650410  1
  Pd  Pd3676  1  0.149170  0.670470  0.650410  1
  Zn  Zn3677  1  0.009930  0.428890  0.238390  1
  Zn  Zn3678  1  0.990070  0.571110  0.238390  1
  Zn  Zn3679  1  0.571110  0.990070  0.761610  1
  Zn  Zn3680  1  0.428890  0.009930  0.761610  1
  Zn  Zn3681  1  0.829380  0.213120  0.204420  1
  Zn  Zn3682  1  0.170620  0.786880  0.204420  1
  Zn  Zn3683  1  0.786880  0.170620  0.795580  1
  Zn  Zn3684  1  0.213120  0.829380  0.795580  1
  Zn  Zn3685  1  0.090610  0.197490  0.292230  1
  Zn  Zn3686  1  0.909390  0.802510  0.292230  1
  Zn  Zn3687  1  0.802510  0.909390  0.707770  1
  Zn  Zn3688  1  0.197490  0.090610  0.707770  1
  Zn  Zn3689  1  0.473250  0.066910  0.249370  1
  Zn  Zn3690  1  0.526750  0.933090  0.249370  1
  Zn  Zn3691  1  0.933090  0.526750  0.750630  1
  Zn  Zn3692  1  0.066910  0.473250  0.750630  1
  Zn  Zn3693  1  0.339160  0.276300  0.297880  1
  Zn  Zn3694  1  0.660840  0.723700  0.297880  1
  Zn  Zn3695  1  0.723700  0.660840  0.702120  1
  Zn  Zn3696  1  0.276300  0.339160  0.702120  1
  Zn  Zn3697  1  0.606830  0.303130  0.207300  1
  Zn  Zn3698  1  0.393170  0.696870  0.207300  1
  Zn  Zn3699  1  0.696870  0.393170  0.792700  1
  Zn  Zn3700  1  0.303130  0.606830  0.792700  1
