
#######################################################################
#
#                 Cambridge Crystallographic Data Centre
#                                CCDC 
#
#######################################################################
#
# If this CIF has been generated from an entry in the Cambridge 
# Structural Database, then it will include bibliographic, chemical, 
# crystal, experimental, refinement or atomic coordinate data resulting 
# from the CCDC's data processing and validation procedures.
#
#######################################################################

data_CUDYUW
_chemical_formula_moiety         
'C173 H201 N43 O9 Pd6 Zn3 6+,6(N1 O3 1-),8.5(H2 O1)'
_chemical_name_systematic        
'hexakis(1,2-diaminocyclohexane)-tris(\m~5~-5,10,15,20-tetrakis(3-pyridyl)porphyrinato)-(N-[acetyl]glycylglycylalanylalanylalanylglycinamide)-diaqua-hexa-palladium(ii)-tri-zinc hexanitrate hydrate'
_symmetry_cell_setting           orthorhombic
_symmetry_space_group_name_H-M   'P 2 2 2'
_symmetry_Int_Tables_number      16
_space_group_name_Hall           'P 2 2'
loop_
_symmetry_equiv_pos_site_id
_symmetry_equiv_pos_as_xyz
1 x,y,z
2 -x,-y,z
3 -x,y,-z
4 x,-y,-z
_cell_length_a                   22.075(4)
_cell_length_b                   25.265(5)
_cell_length_c                   44.740(9)
_cell_angle_alpha                90
_cell_angle_beta                 90
_cell_angle_gamma                90
_cell_volume                     24952.6
_exptl_crystal_colour            violet
_exptl_crystal_description       plate
_cell_formula_units_Z            4
loop_
_atom_site_label
_atom_site_type_symbol
_atom_site_fract_x
_atom_site_fract_y
_atom_site_fract_z
Pd1 Pd 0.81914(8) -0.06604(7) 0.84464(3)
Pd2 Pd 0.40208(10) 0.35071(7) 0.65240(4)
Pd3 Pd 0.56476(9) 0.19391(7) 0.92358(4)
Pd4 Pd 0.69453(10) 0.10067(8) 0.56651(4)
Pd5 Pd 0.81675(12) 0.43233(9) 0.61379(4)
Pd6 Pd 0.95426(11) 0.27971(10) 0.89056(5)
Zn1 Zn 0.55133(12) 0.08682(10) 0.74258(5)
Zn2 Zn 0.66064(15) 0.42228(11) 0.79286(6)
Zn3 Zn 0.93932(14) 0.15939(14) 0.70939(6)
C1 C 0.775(2) 0.2359(18) 0.8739(7)
H1 H 0.7362 0.2403 0.8842
H2 H 0.8023 0.2648 0.8794
H3 H 0.7932 0.2020 0.8796
C2 C 0.7649(15) 0.2367(10) 0.8415(8)
C3 C 0.6136(14) 0.2377(10) 0.7719(6)
H4 H 0.5750 0.2247 0.7628
C4 C 0.6016(15) 0.2571(12) 0.8037(6)
H5 H 0.5758 0.2315 0.8141
H6 H 0.5810 0.2915 0.8029
H7 H 0.6401 0.2608 0.8143
C5 C 0.6462(16) 0.2732(10) 0.7503(6)
C6 C 0.7506(16) 0.3090(16) 0.7323(6)
H8 H 0.7416 0.3472 0.7284
C7 C 0.8119(15) 0.3042(14) 0.7500(8)
H9 H 0.8075 0.3208 0.7697
H10 H 0.8442 0.3219 0.7388
H11 H 0.8222 0.2667 0.7526
C8 C 0.7468(9) 0.2778(12) 0.7027(7)
C9 C 0.7379(17) 0.1883(10) 0.6824(9)
H12 H 0.7712 0.1955 0.6678
C10 C 0.7395(14) 0.1278(10) 0.6885(7)
H13 H 0.7780 0.1185 0.6980
H14 H 0.7356 0.1086 0.6695
H15 H 0.7058 0.1182 0.7017
C11 C 0.6790(18) 0.2021(9) 0.6663(7)
C12 C 0.799(2) 0.2247(15) 0.7914(8)
H16 H 0.8379 0.2325 0.7815
H17 H 0.7720 0.2555 0.7879
C13 C 0.7706(13) 0.1768(12) 0.7756(7)
C14 C 0.7007(19) 0.1076(15) 0.7773(10)
H18 H 0.6798 0.0827 0.7909
H19 H 0.7206 0.0874 0.7611
C15 C 0.6571(16) 0.1486(12) 0.7648(7)
C16 C 0.5787(17) 0.2380(16) 0.6774(12)
H20 H 0.5561 0.2425 0.6963
H21 H 0.5609 0.2074 0.6667
C17 C 0.5699(15) 0.2873(14) 0.6584(7)
N1 N 0.614(2) 0.3232(15) 0.6607(10)
H22 H 0.6124 0.3529 0.6504
H23 H 0.6456 0.3172 0.6724
N2 N 0.6512(11) 0.1927(10) 0.7806(5)
H24 H 0.6713 0.1950 0.7976
N3 N 0.7031(17) 0.2863(15) 0.7529(9)
H25 H 0.7171 0.2806 0.7710
N4 N 0.7470(16) 0.2254(13) 0.7072(7)
H26 H 0.7528 0.2129 0.7254
N5 N 0.8098(18) 0.2208(18) 0.8233(8)
H27 H 0.8443 0.2086 0.8304
N6 N 0.7446(18) 0.1406(14) 0.7936(8)
H28 H 0.7529 0.1371 0.8128
N7 N 0.6394(18) 0.2263(15) 0.6842(9)
H29 H 0.6525 0.2359 0.7020
O1 O 0.7234(19) 0.2482(18) 0.8253(8)
O2 O 0.6292(14) 0.2908(12) 0.7271(7)
O3 O 0.7467(13) 0.2988(11) 0.6782(6)
O4 O 0.6757(19) 0.1928(15) 0.6382(7)
O5 O 0.7802(16) 0.1698(13) 0.7488(6)
O6 O 0.6236(8) 0.1434(7) 0.7433(4)
O7 O 0.5236(19) 0.2906(18) 0.6428(10)
C18 C 0.5404(8) 0.0768(7) 0.8109(4)
C19 C 0.5549(10) 0.0429(8) 0.8341(5)
H30 H 0.5416 0.0469 0.8542
C20 C 0.5884(8) 0.0057(7) 0.8247(4)
H31 H 0.6055 -0.0221 0.8362
C21 C 0.5954(9) 0.0143(8) 0.7928(4)
C22 C 0.6293(8) -0.0166(7) 0.7744(4)
C23 C 0.6342(10) -0.0086(9) 0.7439(5)
C24 C 0.6827(10) -0.0368(9) 0.7226(5)
H32 H 0.7132 -0.0616 0.7280
C25 C 0.6703(9) -0.0174(8) 0.6952(4)
H33 H 0.6907 -0.0278 0.6775
C26 C 0.6232(9) 0.0202(8) 0.6964(4)
C27 C 0.5901(10) 0.0469(8) 0.6732(4)
C28 C 0.5506(10) 0.0802(9) 0.6759(5)
C29 C 0.5088(12) 0.1062(10) 0.6495(6)
H34 H 0.5143 0.0994 0.6288
C30 C 0.4685(11) 0.1364(9) 0.6599(5)
H35 H 0.4392 0.1557 0.6488
C31 C 0.4757(11) 0.1358(9) 0.6929(5)
C32 C 0.4431(10) 0.1685(8) 0.7127(4)
C33 C 0.4518(10) 0.1772(8) 0.7420(5)
C34 C 0.4287(11) 0.2131(10) 0.7598(5)
H36 H 0.4060 0.2432 0.7537
C35 C 0.4443(11) 0.1985(10) 0.7918(5)
H37 H 0.4331 0.2163 0.8096
C36 C 0.4791(10) 0.1524(9) 0.7886(5)
C37 C 0.5021(10) 0.1229(8) 0.8142(5)
C38 C 0.7126(9) -0.0498(9) 0.8091(4)
H38 H 0.7183 -0.0144 0.8157
C39 C 0.6682(8) -0.0610(7) 0.7869(4)
C40 C 0.6636(9) -0.1084(8) 0.7765(4)
H39 H 0.6364 -0.1163 0.7607
C41 C 0.7009(9) -0.1493(9) 0.7898(4)
H40 H 0.6973 -0.1848 0.7829
C42 C 0.7393(8) -0.1382(7) 0.8109(4)
H41 H 0.7628 -0.1658 0.8195
C43 C 0.6361(10) 0.0646(10) 0.6210(5)
H42 H 0.6404 0.1005 0.6270
C44 C 0.6106(10) 0.0267(9) 0.6404(5)
C45 C 0.6102(15) -0.0278(14) 0.6326(7)
H43 H 0.5923 -0.0529 0.6457
C46 C 0.6377(14) -0.0453(14) 0.6042(7)
H44 H 0.6442 -0.0814 0.5992
C47 C 0.6525(13) -0.0046(13) 0.5862(7)
H45 H 0.6627 -0.0136 0.5662
C48 C 0.4125(11) 0.2504(8) 0.6841(4)
H46 H 0.4543 0.2583 0.6820
C49 C 0.3979(13) 0.2023(10) 0.6998(5)
C50 C 0.3374(15) 0.1912(13) 0.7054(6)
H47 H 0.3226 0.1599 0.7147
C51 C 0.301(2) 0.2340(18) 0.6953(10)
H48 H 0.2596 0.2332 0.7013
C52 C 0.3192(17) 0.2795(13) 0.6767(7)
H49 H 0.2903 0.3033 0.6686
C53 C 0.5229(10) 0.1563(8) 0.8644(4)
H50 H 0.5650 0.1548 0.8600
C54 C 0.4797(11) 0.1425(9) 0.8418(5)
C55 C 0.4199(11) 0.1469(9) 0.8477(5)
H51 H 0.3899 0.1408 0.8328
C56 C 0.4042(14) 0.1617(10) 0.8785(6)
H52 H 0.3627 0.1659 0.8836
C57 C 0.4451(10) 0.1694(8) 0.8990(5)
H53 H 0.4323 0.1735 0.9192
C58 C 0.9324(10) 0.0825(9) 0.7623(5)
C59 C 0.9591(9) 0.0853(9) 0.7950(5)
H54 H 0.9625 0.0557 0.8080
C60 C 0.9754(9) 0.1319(8) 0.8019(5)
H55 H 0.9908 0.1438 0.8206
C61 C 0.9652(11) 0.1635(10) 0.7745(6)
C62 C 0.9837(11) 0.2196(10) 0.7742(5)
C63 C 0.9778(11) 0.2533(11) 0.7499(6)
C64 C 0.9889(12) 0.3052(11) 0.7489(5)
H56 H 1.0076 0.3233 0.7651
C65 C 0.9710(14) 0.3329(14) 0.7214(7)
H57 H 0.9709 0.3695 0.7165
C66 C 0.9526(13) 0.2851(11) 0.7034(6)
C67 C 0.9369(12) 0.2789(11) 0.6730(6)
C68 C 0.9239(13) 0.2370(12) 0.6576(6)
C69 C 0.9111(13) 0.2427(13) 0.6248(7)
H58 H 0.9128 0.2729 0.6122
C70 C 0.8958(15) 0.1900(14) 0.6182(8)
H59 H 0.8870 0.1777 0.5986
C71 C 0.8947(13) 0.1536(12) 0.6466(6)
C72 C 0.8712(10) 0.1021(9) 0.6468(5)
C73 C 0.8718(11) 0.0717(10) 0.6719(5)
C74 C 0.8436(11) 0.0224(10) 0.6749(6)
H60 H 0.8217 0.0029 0.6603
C75 C 0.8552(11) 0.0087(10) 0.7042(5)
H61 H 0.8436 -0.0241 0.7128
C76 C 0.8842(9) 0.0465(8) 0.7191(5)
C77 C 0.9048(10) 0.0431(9) 0.7481(5)
C78 C 0.9820(12) 0.2484(8) 0.8264(5)
H62 H 0.9413 0.2360 0.8261
C79 C 1.0111(14) 0.2432(9) 0.8015(6)
C80 C 1.0688(16) 0.2651(11) 0.8008(8)
H63 H 1.0902 0.2626 0.7824
C81 C 1.1004(17) 0.2920(14) 0.8257(8)
H64 H 1.1407 0.3052 0.8268
C82 C 1.0553(15) 0.2924(17) 0.8468(10)
H65 H 1.0655 0.3178 0.8616
C83 C 0.8913(12) 0.3542(10) 0.6469(5)
H66 H 0.8535 0.3392 0.6526
C84 C 0.9453(13) 0.3279(10) 0.6556(6)
C85 C 1.0022(16) 0.3577(13) 0.6540(7)
H67 H 1.0370 0.3479 0.6652
C86 C 1.0018(17) 0.4029(13) 0.6343(7)
H68 H 1.0392 0.4156 0.6266
C87 C 0.9499(17) 0.4277(14) 0.6265(7)
H69 H 0.9519 0.4625 0.6185
C88 C 0.8021(10) 0.0965(9) 0.6062(5)
H70 H 0.7826 0.1264 0.6147
C89 C 0.8529(12) 0.0797(10) 0.6198(5)
C90 C 0.8829(17) 0.0281(14) 0.6056(8)
H71 H 0.9159 0.0106 0.6151
C91 C 0.8588(16) 0.0099(15) 0.5791(8)
H72 H 0.8781 -0.0176 0.5681
C92 C 0.8034(12) 0.0341(11) 0.5684(6)
H73 H 0.7854 0.0197 0.5509
C93 C 0.8712(10) -0.0110(10) 0.7941(4)
H74 H 0.8623 0.0202 0.8051
C94 C 0.8948(11) -0.0080(10) 0.7635(4)
C95 C 0.9139(10) -0.0553(9) 0.7496(5)
H75 H 0.9326 -0.0528 0.7305
C96 C 0.9070(10) -0.1045(9) 0.7621(5)
H76 H 0.9206 -0.1356 0.7522
C97 C 0.8773(10) -0.1067(10) 0.7916(5)
H77 H 0.8682 -0.1399 0.8006
C98 C 0.7452(12) 0.3931(9) 0.8435(5)
C99 C 0.7392(13) 0.3788(10) 0.8783(6)
H78 H 0.7700 0.3792 0.8931
C100 C 0.6817(12) 0.3663(9) 0.8816(6)
H79 H 0.6649 0.3546 0.9000
C101 C 0.6487(12) 0.3717(9) 0.8563(5)
C102 C 0.5865(11) 0.3648(9) 0.8536(5)
C103 C 0.5543(12) 0.3687(10) 0.8272(5)
C104 C 0.4872(11) 0.3517(10) 0.8242(5)
H80 H 0.4610 0.3354 0.8383
C105 C 0.4765(10) 0.3673(8) 0.7947(5)
H81 H 0.4392 0.3621 0.7845
C106 C 0.5231(9) 0.3896(8) 0.7831(4)
C107 C 0.5269(10) 0.4096(9) 0.7498(4)
C108 C 0.5797(10) 0.4283(8) 0.7368(5)
C109 C 0.5805(10) 0.4504(7) 0.7073(4)
H82 H 0.5464 0.4571 0.6949
C110 C 0.6373(10) 0.4596(8) 0.7008(5)
H83 H 0.6520 0.4719 0.6820
C111 C 0.6756(10) 0.4475(8) 0.7278(5)
C112 C 0.7393(10) 0.4574(8) 0.7280(5)
C113 C 0.7699(13) 0.4451(11) 0.7550(6)
C114 C 0.8352(14) 0.4437(11) 0.7561(7)
H84 H 0.8609 0.4502 0.7395
C115 C 0.8557(14) 0.4315(10) 0.7853(6)
H85 H 0.8957 0.4307 0.7931
C116 C 0.8008(13) 0.4211(11) 0.7991(6)
C117 C 0.7965(14) 0.4045(12) 0.8294(7)
C118 C 0.5721(9) 0.2925(8) 0.8898(4)
H86 H 0.6041 0.2755 0.8793
C119 C 0.5546(11) 0.3388(9) 0.8809(5)
C120 C 0.5148(14) 0.3727(13) 0.8936(7)
H87 H 0.5060 0.4070 0.8861
C121 C 0.4876(16) 0.3504(15) 0.9200(7)
H88 H 0.4579 0.3691 0.9312
C122 C 0.5078(13) 0.2976(12) 0.9288(6)
H89 H 0.4921 0.2836 0.9470
C123 C 0.4605(10) 0.3889(8) 0.7068(5)
H90 H 0.4952 0.3775 0.6960
C124 C 0.4701(9) 0.4087(8) 0.7350(4)
C125 C 0.4173(10) 0.4320(8) 0.7474(5)
H91 H 0.4213 0.4513 0.7655
C126 C 0.3620(13) 0.4284(11) 0.7350(6)
H92 H 0.3273 0.4422 0.7447
C127 C 0.3572(11) 0.4018(9) 0.7053(5)
H93 H 0.3194 0.3978 0.6954
C128 C 0.7763(10) 0.4523(10) 0.6760(5)
H94 H 0.7616 0.4171 0.6742
C129 C 0.7669(9) 0.4788(8) 0.7034(5)
C130 C 0.7955(13) 0.5350(12) 0.7052(7)
H95 H 0.7946 0.5551 0.7231
C131 C 0.8233(18) 0.5547(18) 0.6786(9)
H96 H 0.8369 0.5904 0.6789
C132 C 0.8319(14) 0.5274(12) 0.6531(7)
H97 H 0.8539 0.5416 0.6367
C133 C 0.8699(11) 0.3559(11) 0.8582(5)
H98 H 0.8477 0.3255 0.8522
C134 C 0.8537(13) 0.4046(12) 0.8462(6)
C135 C 0.8855(16) 0.4529(15) 0.8535(8)
H99 H 0.8728 0.4856 0.8451
C136 C 0.9358(19) 0.4512(17) 0.8733(8)
H100 H 0.9594 0.4818 0.8775
C137 C 0.9491(19) 0.4025(16) 0.8864(9)
H101 H 0.9800 0.4015 0.9011
C138 C 0.8135(10) -0.0403(9) 0.9062(4)
H102 H 0.8064 -0.0021 0.9015
C139 C 0.7972(10) -0.0508(9) 0.9396(5)
H103 H 0.7546 -0.0404 0.9432
H104 H 0.8008 -0.0892 0.9438
C140 C 0.8376(9) -0.0208(9) 0.9605(5)
H105 H 0.8276 -0.0296 0.9815
H106 H 0.8321 0.0177 0.9577
C141 C 0.9025(11) -0.0363(12) 0.9537(5)
H107 H 0.9066 -0.0753 0.9545
H108 H 0.9299 -0.0209 0.9689
C142 C 0.9201(11) -0.0159(9) 0.9222(4)
H109 H 0.9639 -0.0207 0.9182
H110 H 0.9092 0.0218 0.9195
C143 C 0.8807(11) -0.0528(11) 0.9022(5)
H111 H 0.8889 -0.0908 0.9068
C144 C 0.9404(13) 0.1946(11) 0.9306(6)
H112 H 0.9034 0.1828 0.9197
C145 C 0.9670(13) 0.1419(11) 0.9482(6)
H113 H 0.9722 0.1119 0.9342
H114 H 1.0064 0.1497 0.9578
C146 C 0.9155(15) 0.1288(11) 0.9731(7)
H115 H 0.8784 0.1164 0.9628
H116 H 0.9300 0.0996 0.9860
C147 C 0.8994(14) 0.1772(10) 0.9930(6)
H117 H 0.8662 0.1683 1.0070
H118 H 0.9351 0.1887 1.0047
C148 C 0.8807(16) 0.2184(14) 0.9725(7)
H119 H 0.8689 0.2494 0.9847
H120 H 0.8435 0.2058 0.9624
C149 C 0.9225(12) 0.2377(10) 0.9488(6)
H121 H 0.9597 0.2512 0.9590
C150 C 0.6682(12) 0.1695(10) 0.9578(6)
H122 H 0.6941 0.1632 0.9398
C151 C 0.7080(12) 0.1721(11) 0.9868(6)
H123 H 0.6818 0.1789 1.0043
H124 H 0.7373 0.2016 0.9851
C152 C 0.7440(11) 0.1177(9) 0.9916(6)
H125 H 0.7734 0.1123 0.9752
H126 H 0.7665 0.1186 1.0107
C153 C 0.7012(12) 0.0765(11) 0.9919(6)
H127 H 0.6759 0.0815 1.0100
H128 H 0.7239 0.0431 0.9947
C154 C 0.6598(14) 0.0682(12) 0.9669(7)
H129 H 0.6320 0.0385 0.9712
H130 H 0.6828 0.0598 0.9485
C155 C 0.6227(12) 0.1216(10) 0.9627(6)
H131 H 0.5950 0.1282 0.9800
C156 C 0.6221(14) 0.1713(16) 0.5329(9)
H132 H 0.6252 0.1512 0.5137
C157 C 0.5672(15) 0.2063(14) 0.5252(8)
H133 H 0.5557 0.2275 0.5430
H134 H 0.5324 0.1836 0.5198
C158 C 0.5826(14) 0.2447(12) 0.4982(7)
H135 H 0.5909 0.2241 0.4799
H136 H 0.5481 0.2688 0.4942
C159 C 0.6374(16) 0.2758(14) 0.5072(9)
H137 H 0.6291 0.2932 0.5266
H138 H 0.6444 0.3039 0.4922
C160 C 0.6957(14) 0.2424(13) 0.5102(7)
H139 H 0.7292 0.2647 0.5177
H140 H 0.7076 0.2282 0.4904
C161 C 0.6828(11) 0.1920(9) 0.5342(5)
H141 H 0.6821 0.2111 0.5537
C162 C 0.7790(15) 0.4135(14) 0.5532(7)
H142 H 0.7985 0.4463 0.5452
C163 C 0.7598(17) 0.3798(14) 0.5257(8)
H143 H 0.7417 0.3457 0.5321
H144 H 0.7947 0.3726 0.5125
C164 C 0.7117(15) 0.4156(14) 0.5097(7)
H145 H 0.7314 0.4497 0.5048
H146 H 0.7009 0.3984 0.4905
C165 C 0.6540(16) 0.4276(14) 0.5260(7)
H147 H 0.6332 0.3944 0.5317
H148 H 0.6265 0.4487 0.5132
C166 C 0.6716(13) 0.4586(11) 0.5537(6)
H149 H 0.6860 0.4941 0.5475
H150 H 0.6353 0.4636 0.5664
C167 C 0.7200(12) 0.4320(12) 0.5716(6)
H151 H 0.7015 0.3991 0.5801
C168 C 0.4240(12) 0.4052(10) 0.5973(5)
H152 H 0.3805 0.4128 0.5927
C169 C 0.4617(14) 0.4430(12) 0.5777(6)
H153 H 0.5055 0.4377 0.5814
H154 H 0.4513 0.4802 0.5822
C170 C 0.4460(14) 0.4295(11) 0.5439(6)
H155 H 0.4038 0.4399 0.5393
H156 H 0.4735 0.4490 0.5303
C171 C 0.4536(16) 0.3737(13) 0.5402(7)
H157 H 0.4969 0.3653 0.5436
H158 H 0.4444 0.3649 0.5191
C172 C 0.4179(14) 0.3393(12) 0.5590(6)
H159 H 0.4272 0.3018 0.5545
H160 H 0.3742 0.3453 0.5554
C173 C 0.4331(12) 0.3515(10) 0.5908(5)
H161 H 0.4775 0.3449 0.5931
N8 N 0.5632(7) 0.0572(6) 0.7869(3)
N9 N 0.5970(7) 0.0256(6) 0.7270(4)
N10 N 0.5226(7) 0.1023(6) 0.6997(3)
N11 N 0.4874(9) 0.1357(8) 0.7602(4)
N12 N 0.7463(6) -0.0889(6) 0.8207(3)
N13 N 0.6547(9) 0.0485(9) 0.5932(5)
N14 N 0.3741(9) 0.2851(7) 0.6722(4)
N15 N 0.5037(10) 0.1718(8) 0.8931(4)
N16 N 0.9402(8) 0.1360(7) 0.7540(4)
N17 N 0.9579(10) 0.2333(8) 0.7230(5)
N18 N 0.9105(9) 0.1874(8) 0.6682(4)
N19 N 0.8966(8) 0.0891(8) 0.7015(4)
N20 N 1.0014(11) 0.2700(9) 0.8543(5)
N21 N 0.8913(11) 0.4026(9) 0.6299(5)
N22 N 0.7757(8) 0.0750(8) 0.5814(4)
N23 N 0.8627(7) -0.0592(7) 0.8061(4)
N24 N 0.6883(10) 0.3892(8) 0.8346(4)
N25 N 0.5730(7) 0.3948(6) 0.8007(3)
N26 N 0.6379(8) 0.4296(7) 0.7476(4)
N27 N 0.7451(9) 0.4293(8) 0.7820(4)
N28 N 0.5468(8) 0.2672(7) 0.9135(4)
N29 N 0.4081(8) 0.3841(6) 0.6934(3)
N30 N 0.8049(10) 0.4737(9) 0.6521(5)
N31 N 0.9165(12) 0.3495(11) 0.8785(6)
N32 N 0.7790(8) -0.0733(7) 0.8850(4)
H162 H 0.7395 -0.0620 0.8840
H163 H 0.7794 -0.1081 0.8910
N33 N 0.8942(9) -0.0407(9) 0.8680(4)
H164 H 0.9282 -0.0586 0.8617
H165 H 0.9003 -0.0051 0.8651
N34 N 0.9836(9) 0.2108(8) 0.9082(4)
H166 H 0.9864 0.1854 0.8935
H167 H 1.0212 0.2152 0.9166
N35 N 0.9034(9) 0.2766(8) 0.9299(4)
H168 H 0.9059 0.3087 0.9395
H169 H 0.8633 0.2708 0.9252
N36 N 0.6278(8) 0.2138(7) 0.9528(4)
H170 H 0.6494 0.2423 0.9457
H171 H 0.6099 0.2235 0.9705
N37 N 0.5897(9) 0.1179(7) 0.9349(4)
H172 H 0.5560 0.0970 0.9373
H173 H 0.6138 0.1035 0.9203
N38 N 0.6168(10) 0.1259(9) 0.5539(5)
H174 H 0.5961 0.0988 0.5447
H175 H 0.5949 0.1362 0.5704
N39 N 0.7286(10) 0.1535(9) 0.5395(5)
H176 H 0.7620 0.1691 0.5481
H177 H 0.7401 0.1379 0.5219
N40 N 0.8238(10) 0.3887(9) 0.5749(5)
H178 H 0.8626 0.3904 0.5674
H179 H 0.8142 0.3538 0.5784
N41 N 0.7358(10) 0.4657(9) 0.5969(5)
H180 H 0.7057 0.4652 0.6111
H181 H 0.7420 0.5000 0.5908
N42 N 0.4309(9) 0.4116(8) 0.6311(4)
H182 H 0.4097 0.4409 0.6372
H183 H 0.4711 0.4169 0.6356
N43 N 0.4023(10) 0.3125(8) 0.6100(4)
H184 H 0.4233 0.2811 0.6107
H185 H 0.3635 0.3060 0.6034
O8 O 1.0313(9) 0.1375(8) 0.6991(4)
O9 O 0.6454(9) 0.5019(8) 0.8063(4)
N44 N 0.9222(12) 0.0980(10) 0.8705(5)
O10 O 0.9666(9) 0.0779(7) 0.8696(4)
O11 O 0.8747(11) 0.0709(9) 0.8601(6)
O12 O 0.9097(12) 0.1437(10) 0.8704(7)
N45 N 0.6947(18) 0.0964(12) 0.8621(7)
O13 O 0.6776(11) 0.0854(10) 0.8876(5)
O14 O 0.6807(19) 0.1396(11) 0.8519(7)
O15 O 0.7274(13) 0.0662(11) 0.8473(6)
N46 N 0.7373(13) 0.3091(12) 0.9457(9)
O16 O 0.7505(11) 0.2680(10) 0.9331(6)
O17 O 0.7745(15) 0.3441(14) 0.9504(11)
O18 O 0.6864(11) 0.3158(11) 0.9558(6)
N47 N 0.5930(10) 0.4559(8) 0.6302(5)
O19 O 0.6108(13) 0.4100(9) 0.6301(7)
O20 O 0.6321(12) 0.4906(11) 0.6288(8)
O21 O 0.5446(11) 0.4681(11) 0.6406(8)
N48 N 0.260(3) 0.316(2) 0.7753(11)
O22 O 0.229(3) 0.280(2) 0.7842(14)
O23 O 0.314(3) 0.319(3) 0.7820(17)
O24 O 0.238(4) 0.351(3) 0.759(2)
N49 N 0.0000 0.5000 0.7219(11)
O25 O 0.0000 0.5000 0.7488(10)
O26 O 0.0451(17) 0.515(2) 0.7077(9)
O26A O -0.0451(17) 0.485(2) 0.7077(9)
O27 O 0.4725(14) 0.0884(12) 0.9655(7)
O28 O 0.1986(18) 0.1218(16) 0.7141(9)
O29 O 0.5062(18) 0.0519(15) 0.5485(8)
O30 O 0.7977(14) 0.1123(12) 0.9071(7)
O31 O 0.7472(17) 0.3104(15) 0.6147(8)
O32 O 0.7350(17) 0.6034(15) 0.6360(8)
O33 O 0.6228(15) 0.3112(13) 0.5840(7)
O34 O 0.5790(18) 0.2066(16) 0.6043(9)
O35 O 0.6616(10) -0.0225(9) 0.8893(5)
O36 O 0.9162(15) -0.1732(13) 0.8630(7)
O37 O 0.8060(14) 0.2584(12) 0.5635(6)
O38 O 1.033(2) 0.0730(18) 0.6529(10)
O39 O 0.186(2) 0.2060(16) 0.7479(9)
O40 O 0.181(3) 0.110(2) 0.6514(12)
O41 O 1.0000 0.0000 0.6721(9)
O43 O 0.253(3) 0.427(2) 0.7933(14)
O44 O 0.4492(16) 0.2075(14) 0.5975(8)
O45 O 0.108(4) 0.395(4) 0.7580(19)
O46 O 0.699(3) 0.0000 0.5000
O42? O 0.508(2) 0.0302(18) 0.9083(10)
O47? O 0.152(4) 0.361(3) 0.7388(18)
loop_
_geom_bond_atom_site_label_1
_geom_bond_atom_site_label_2
_geom_bond_site_symmetry_1
_geom_bond_site_symmetry_2
Pd1 N12 1_555 1_555
Pd2 N14 1_555 1_555
Pd3 N15 1_555 1_555
Pd4 N13 1_555 1_555
Pd5 N21 1_555 1_555
Pd6 N20 1_555 1_555
Zn1 O6 1_555 1_555
Zn2 N24 1_555 1_555
Zn3 N16 1_555 1_555
C1 H1 1_555 1_555
H2 C1 1_555 1_555
H3 C1 1_555 1_555
C2 C1 1_555 1_555
C3 H4 1_555 1_555
C4 C3 1_555 1_555
H5 C4 1_555 1_555
H6 C4 1_555 1_555
H7 C4 1_555 1_555
C5 C3 1_555 1_555
C6 H8 1_555 1_555
C7 C6 1_555 1_555
H9 C7 1_555 1_555
H10 C7 1_555 1_555
H11 C7 1_555 1_555
C8 C6 1_555 1_555
C9 H12 1_555 1_555
C10 C9 1_555 1_555
H13 C10 1_555 1_555
H14 C10 1_555 1_555
H15 C10 1_555 1_555
C11 C9 1_555 1_555
C12 H16 1_555 1_555
H17 C12 1_555 1_555
C13 C12 1_555 1_555
C14 H18 1_555 1_555
H19 C14 1_555 1_555
C15 C14 1_555 1_555
C16 H20 1_555 1_555
H21 C16 1_555 1_555
C17 C16 1_555 1_555
N1 C17 1_555 1_555
H22 N1 1_555 1_555
H23 N1 1_555 1_555
N2 C3 1_555 1_555
H24 N2 1_555 1_555
N3 C5 1_555 1_555
H25 N3 1_555 1_555
N4 C8 1_555 1_555
H26 N4 1_555 1_555
N5 C2 1_555 1_555
H27 N5 1_555 1_555
N6 C13 1_555 1_555
H28 N6 1_555 1_555
N7 C11 1_555 1_555
H29 N7 1_555 1_555
O1 C2 1_555 1_555
O2 C5 1_555 1_555
O3 C8 1_555 1_555
O4 C11 1_555 1_555
O5 C13 1_555 1_555
O6 C15 1_555 1_555
O7 C17 1_555 1_555
C18 C19 1_555 1_555
C19 H30 1_555 1_555
C20 C19 1_555 1_555
H31 C20 1_555 1_555
C21 C20 1_555 1_555
C22 C21 1_555 1_555
C23 C22 1_555 1_555
C24 C23 1_555 1_555
H32 C24 1_555 1_555
C25 C24 1_555 1_555
H33 C25 1_555 1_555
C26 C25 1_555 1_555
C27 C26 1_555 1_555
C28 C27 1_555 1_555
C29 C28 1_555 1_555
H34 C29 1_555 1_555
C30 C29 1_555 1_555
H35 C30 1_555 1_555
C31 C30 1_555 1_555
C32 C31 1_555 1_555
C33 C32 1_555 1_555
C34 C33 1_555 1_555
H36 C34 1_555 1_555
C35 C34 1_555 1_555
H37 C35 1_555 1_555
C36 C35 1_555 1_555
C37 C18 1_555 1_555
C38 H38 1_555 1_555
C39 C22 1_555 1_555
C40 C39 1_555 1_555
H39 C40 1_555 1_555
C41 C40 1_555 1_555
H40 C41 1_555 1_555
C42 C41 1_555 1_555
H41 C42 1_555 1_555
C43 H42 1_555 1_555
C44 C27 1_555 1_555
C45 C44 1_555 1_555
H43 C45 1_555 1_555
C46 C45 1_555 1_555
H44 C46 1_555 1_555
C47 C46 1_555 1_555
H45 C47 1_555 1_555
C48 H46 1_555 1_555
C49 C32 1_555 1_555
C50 C49 1_555 1_555
H47 C50 1_555 1_555
C51 C50 1_555 1_555
H48 C51 1_555 1_555
C52 C51 1_555 1_555
H49 C52 1_555 1_555
C53 H50 1_555 1_555
C54 C37 1_555 1_555
C55 C54 1_555 1_555
H51 C55 1_555 1_555
C56 C55 1_555 1_555
H52 C56 1_555 1_555
C57 C56 1_555 1_555
H53 C57 1_555 1_555
C58 C59 1_555 1_555
C59 H54 1_555 1_555
C60 C59 1_555 1_555
H55 C60 1_555 1_555
C61 C60 1_555 1_555
C62 C61 1_555 1_555
C63 C62 1_555 1_555
C64 C63 1_555 1_555
H56 C64 1_555 1_555
C65 C64 1_555 1_555
H57 C65 1_555 1_555
C66 C65 1_555 1_555
C67 C66 1_555 1_555
C68 C67 1_555 1_555
C69 C68 1_555 1_555
H58 C69 1_555 1_555
C70 C69 1_555 1_555
H59 C70 1_555 1_555
C71 C70 1_555 1_555
C72 C71 1_555 1_555
C73 C72 1_555 1_555
C74 C73 1_555 1_555
H60 C74 1_555 1_555
C75 C74 1_555 1_555
H61 C75 1_555 1_555
C76 C75 1_555 1_555
C77 C58 1_555 1_555
C78 H62 1_555 1_555
C79 C62 1_555 1_555
C80 C79 1_555 1_555
H63 C80 1_555 1_555
C81 C80 1_555 1_555
H64 C81 1_555 1_555
C82 C81 1_555 1_555
H65 C82 1_555 1_555
C83 H66 1_555 1_555
C84 C67 1_555 1_555
C85 C84 1_555 1_555
H67 C85 1_555 1_555
C86 C85 1_555 1_555
H68 C86 1_555 1_555
C87 C86 1_555 1_555
H69 C87 1_555 1_555
C88 H70 1_555 1_555
C89 C72 1_555 1_555
C90 C89 1_555 1_555
H71 C90 1_555 1_555
C91 C90 1_555 1_555
H72 C91 1_555 1_555
C92 C91 1_555 1_555
H73 C92 1_555 1_555
C93 H74 1_555 1_555
C94 C77 1_555 1_555
C95 C94 1_555 1_555
H75 C95 1_555 1_555
C96 C95 1_555 1_555
H76 C96 1_555 1_555
C97 C96 1_555 1_555
H77 C97 1_555 1_555
C98 C99 1_555 1_555
C99 H78 1_555 1_555
C100 C99 1_555 1_555
H79 C100 1_555 1_555
C101 C100 1_555 1_555
C102 C101 1_555 1_555
C103 C102 1_555 1_555
C104 C103 1_555 1_555
H80 C104 1_555 1_555
C105 C104 1_555 1_555
H81 C105 1_555 1_555
C106 C105 1_555 1_555
C107 C106 1_555 1_555
C108 C107 1_555 1_555
C109 C108 1_555 1_555
H82 C109 1_555 1_555
C110 C109 1_555 1_555
H83 C110 1_555 1_555
C111 C110 1_555 1_555
C112 C111 1_555 1_555
C113 C112 1_555 1_555
C114 C113 1_555 1_555
H84 C114 1_555 1_555
C115 C114 1_555 1_555
H85 C115 1_555 1_555
C116 C115 1_555 1_555
C117 C98 1_555 1_555
C118 H86 1_555 1_555
C119 C102 1_555 1_555
C120 C119 1_555 1_555
H87 C120 1_555 1_555
C121 C120 1_555 1_555
H88 C121 1_555 1_555
C122 C121 1_555 1_555
H89 C122 1_555 1_555
C123 H90 1_555 1_555
C124 C107 1_555 1_555
C125 C124 1_555 1_555
H91 C125 1_555 1_555
C126 C125 1_555 1_555
H92 C126 1_555 1_555
C127 C126 1_555 1_555
H93 C127 1_555 1_555
C128 H94 1_555 1_555
C129 C112 1_555 1_555
C130 C129 1_555 1_555
H95 C130 1_555 1_555
C131 C130 1_555 1_555
H96 C131 1_555 1_555
C132 C131 1_555 1_555
H97 C132 1_555 1_555
C133 H98 1_555 1_555
C134 C117 1_555 1_555
C135 C134 1_555 1_555
H99 C135 1_555 1_555
C136 C135 1_555 1_555
H100 C136 1_555 1_555
C137 C136 1_555 1_555
H101 C137 1_555 1_555
C138 H102 1_555 1_555
C139 C138 1_555 1_555
H103 C139 1_555 1_555
H104 C139 1_555 1_555
C140 C139 1_555 1_555
H105 C140 1_555 1_555
H106 C140 1_555 1_555
C141 C140 1_555 1_555
H107 C141 1_555 1_555
H108 C141 1_555 1_555
C142 C141 1_555 1_555
H109 C142 1_555 1_555
H110 C142 1_555 1_555
C143 C138 1_555 1_555
H111 C143 1_555 1_555
C144 H112 1_555 1_555
C145 C144 1_555 1_555
H113 C145 1_555 1_555
H114 C145 1_555 1_555
C146 C145 1_555 1_555
H115 C146 1_555 1_555
H116 C146 1_555 1_555
C147 C146 1_555 1_555
H117 C147 1_555 1_555
H118 C147 1_555 1_555
C148 C147 1_555 1_555
H119 C148 1_555 1_555
H120 C148 1_555 1_555
C149 C144 1_555 1_555
H121 C149 1_555 1_555
C150 H122 1_555 1_555
C151 C150 1_555 1_555
H123 C151 1_555 1_555
H124 C151 1_555 1_555
C152 C151 1_555 1_555
H125 C152 1_555 1_555
H126 C152 1_555 1_555
C153 C152 1_555 1_555
H127 C153 1_555 1_555
H128 C153 1_555 1_555
C154 C153 1_555 1_555
H129 C154 1_555 1_555
H130 C154 1_555 1_555
C155 C150 1_555 1_555
H131 C155 1_555 1_555
C156 H132 1_555 1_555
C157 C156 1_555 1_555
H133 C157 1_555 1_555
H134 C157 1_555 1_555
C158 C157 1_555 1_555
H135 C158 1_555 1_555
H136 C158 1_555 1_555
C159 C158 1_555 1_555
H137 C159 1_555 1_555
H138 C159 1_555 1_555
C160 C159 1_555 1_555
H139 C160 1_555 1_555
H140 C160 1_555 1_555
C161 C156 1_555 1_555
H141 C161 1_555 1_555
C162 H142 1_555 1_555
C163 C162 1_555 1_555
H143 C163 1_555 1_555
H144 C163 1_555 1_555
C164 C163 1_555 1_555
H145 C164 1_555 1_555
H146 C164 1_555 1_555
C165 C164 1_555 1_555
H147 C165 1_555 1_555
H148 C165 1_555 1_555
C166 C165 1_555 1_555
H149 C166 1_555 1_555
H150 C166 1_555 1_555
C167 C162 1_555 1_555
H151 C167 1_555 1_555
C168 H152 1_555 1_555
C169 C168 1_555 1_555
H153 C169 1_555 1_555
H154 C169 1_555 1_555
C170 C169 1_555 1_555
H155 C170 1_555 1_555
H156 C170 1_555 1_555
C171 C170 1_555 1_555
H157 C171 1_555 1_555
H158 C171 1_555 1_555
C172 C171 1_555 1_555
H159 C172 1_555 1_555
H160 C172 1_555 1_555
C173 C168 1_555 1_555
H161 C173 1_555 1_555
N8 Zn1 1_555 1_555
N9 Zn1 1_555 1_555
N10 Zn1 1_555 1_555
N11 Zn1 1_555 1_555
N12 C38 1_555 1_555
N13 C43 1_555 1_555
N14 C48 1_555 1_555
N15 C53 1_555 1_555
N16 C58 1_555 1_555
N17 Zn3 1_555 1_555
N18 Zn3 1_555 1_555
N19 Zn3 1_555 1_555
N20 C78 1_555 1_555
N21 C83 1_555 1_555
N22 Pd4 1_555 1_555
N23 Pd1 1_555 1_555
N24 C98 1_555 1_555
N25 Zn2 1_555 1_555
N26 Zn2 1_555 1_555
N27 Zn2 1_555 1_555
N28 Pd3 1_555 1_555
N29 Pd2 1_555 1_555
N30 Pd5 1_555 1_555
N31 Pd6 1_555 1_555
N32 Pd1 1_555 1_555
H162 N32 1_555 1_555
H163 N32 1_555 1_555
N33 Pd1 1_555 1_555
H164 N33 1_555 1_555
H165 N33 1_555 1_555
N34 Pd6 1_555 1_555
H166 N34 1_555 1_555
H167 N34 1_555 1_555
N35 Pd6 1_555 1_555
H168 N35 1_555 1_555
H169 N35 1_555 1_555
N36 Pd3 1_555 1_555
H170 N36 1_555 1_555
H171 N36 1_555 1_555
N37 Pd3 1_555 1_555
H172 N37 1_555 1_555
H173 N37 1_555 1_555
N38 Pd4 1_555 1_555
H174 N38 1_555 1_555
H175 N38 1_555 1_555
N39 Pd4 1_555 1_555
H176 N39 1_555 1_555
H177 N39 1_555 1_555
N40 Pd5 1_555 1_555
H178 N40 1_555 1_555
H179 N40 1_555 1_555
N41 Pd5 1_555 1_555
H180 N41 1_555 1_555
H181 N41 1_555 1_555
N42 Pd2 1_555 1_555
H182 N42 1_555 1_555
H183 N42 1_555 1_555
N43 Pd2 1_555 1_555
H184 N43 1_555 1_555
H185 N43 1_555 1_555
O8 Zn3 1_555 1_555
O9 Zn2 1_555 1_555
N44 O10 1_555 1_555
O11 N44 1_555 1_555
O12 N44 1_555 1_555
N45 O13 1_555 1_555
O14 N45 1_555 1_555
O15 N45 1_555 1_555
N46 O16 1_555 1_555
O17 N46 1_555 1_555
O18 N46 1_555 1_555
N47 O19 1_555 1_555
O20 N47 1_555 1_555
O21 N47 1_555 1_555
N48 O22 1_555 1_555
O23 N48 1_555 1_555
O24 N48 1_555 1_555
N49 O25 1_555 1_555
O26 N49 1_555 1_555
O26A N49 1_555 1_555
C6 N3 1_555 1_555
C9 N4 1_555 1_555
C12 N5 1_555 1_555
C14 N6 1_555 1_555
C15 N2 1_555 1_555
C16 N7 1_555 1_555
C18 N8 1_555 1_555
C21 N8 1_555 1_555
C23 N9 1_555 1_555
C26 N9 1_555 1_555
C28 N10 1_555 1_555
C31 N10 1_555 1_555
C33 N11 1_555 1_555
C36 C37 1_555 1_555
C36 N11 1_555 1_555
C38 C39 1_555 1_555
C42 N12 1_555 1_555
C43 C44 1_555 1_555
C47 N13 1_555 1_555
C48 C49 1_555 1_555
C52 N14 1_555 1_555
C53 C54 1_555 1_555
C57 N15 1_555 1_555
C61 N16 1_555 1_555
C63 N17 1_555 1_555
C66 N17 1_555 1_555
C68 N18 1_555 1_555
C71 N18 1_555 1_555
C73 N19 1_555 1_555
C76 C77 1_555 1_555
C76 N19 1_555 1_555
C78 C79 1_555 1_555
C82 N20 1_555 1_555
C83 C84 1_555 1_555
C87 N21 1_555 1_555
C88 C89 1_555 1_555
C88 N22 1_555 1_555
C92 N22 1_555 1_555
C93 C94 1_555 1_555
C93 N23 1_555 1_555
C97 N23 1_555 1_555
C101 N24 1_555 1_555
C103 N25 1_555 1_555
C106 N25 1_555 1_555
C108 N26 1_555 1_555
C111 N26 1_555 1_555
C113 N27 1_555 1_555
C116 C117 1_555 1_555
C116 N27 1_555 1_555
C118 C119 1_555 1_555
C118 N28 1_555 1_555
C122 N28 1_555 1_555
C123 C124 1_555 1_555
C123 N29 1_555 1_555
C127 N29 1_555 1_555
C128 C129 1_555 1_555
C128 N30 1_555 1_555
C132 N30 1_555 1_555
C133 C134 1_555 1_555
C133 N31 1_555 1_555
C137 N31 1_555 1_555
C138 N32 1_555 1_555
C142 C143 1_555 1_555
C143 N33 1_555 1_555
C144 N34 1_555 1_555
C148 C149 1_555 1_555
C149 N35 1_555 1_555
C150 N36 1_555 1_555
C154 C155 1_555 1_555
C155 N37 1_555 1_555
C156 N38 1_555 1_555
C160 C161 1_555 1_555
C161 N39 1_555 1_555
C162 N40 1_555 1_555
C166 C167 1_555 1_555
C167 N41 1_555 1_555
C168 N42 1_555 1_555
C172 C173 1_555 1_555
C173 N43 1_555 1_555

#END
