# generated using pymatgen
data_Zn6H364Pd12C342N98O103
_symmetry_space_group_name_H-M   'P 1'
_cell_length_a   34.79600000
_cell_length_b   34.79600000
_cell_length_c   44.48800000
_cell_angle_alpha   90.00000000
_cell_angle_beta   90.00000000
_cell_angle_gamma   90.00000000
_symmetry_Int_Tables_number   1
_chemical_formula_structural   Zn6H364Pd12C342N98O103
_chemical_formula_sum   'Zn24 H1456 Pd48 C1368 N392 O412'
_cell_volume   53864.36277261
_cell_formula_units_Z   4
loop_
 _symmetry_equiv_pos_site_id
 _symmetry_equiv_pos_as_xyz
  1  'x, y, z'
loop_
 _atom_site_type_symbol
 _atom_site_label
 _atom_site_symmetry_multiplicity
 _atom_site_fract_x
 _atom_site_fract_y
 _atom_site_fract_z
 _atom_site_occupancy
  Zn  Zn1  1  0.565570  0.522150  0.740070  1
  Zn  Zn2  1  0.434430  0.477850  0.740070  1
  Zn  Zn3  1  0.977850  0.065570  0.240070  1
  Zn  Zn4  1  0.022150  0.934430  0.240070  1
  Zn  Zn5  1  0.934430  0.022150  0.759930  1
  Zn  Zn6  1  0.065570  0.977850  0.759930  1
  Zn  Zn7  1  0.522150  0.565570  0.259930  1
  Zn  Zn8  1  0.477850  0.434430  0.259930  1
  Zn  Zn9  1  0.781960  0.392970  0.708430  1
  Zn  Zn10  1  0.218040  0.607030  0.708430  1
  Zn  Zn11  1  0.107030  0.281960  0.208430  1
  Zn  Zn12  1  0.892970  0.718040  0.208430  1
  Zn  Zn13  1  0.718040  0.892970  0.791570  1
  Zn  Zn14  1  0.281960  0.107030  0.791570  1
  Zn  Zn15  1  0.392970  0.781960  0.291570  1
  Zn  Zn16  1  0.607030  0.218040  0.291570  1
  Zn  Zn17  1  0.785460  0.654910  0.800670  1
  Zn  Zn18  1  0.214540  0.345090  0.800670  1
  Zn  Zn19  1  0.845090  0.285460  0.300670  1
  Zn  Zn20  1  0.154910  0.714540  0.300670  1
  Zn  Zn21  1  0.714540  0.154910  0.699330  1
  Zn  Zn22  1  0.285460  0.845090  0.699330  1
  Zn  Zn23  1  0.654910  0.785460  0.199330  1
  Zn  Zn24  1  0.345090  0.214540  0.199330  1
  H  H25  1  0.726900  0.541600  0.869600  1
  H  H26  1  0.273100  0.458400  0.869600  1
  H  H27  1  0.958400  0.226900  0.369600  1
  H  H28  1  0.041600  0.773100  0.369600  1
  H  H29  1  0.773100  0.041600  0.630400  1
  H  H30  1  0.226900  0.958400  0.630400  1
  H  H31  1  0.541600  0.726900  0.130400  1
  H  H32  1  0.458400  0.273100  0.130400  1
  H  H33  1  0.756200  0.508400  0.879400  1
  H  H34  1  0.243800  0.491600  0.879400  1
  H  H35  1  0.991600  0.256200  0.379400  1
  H  H36  1  0.008400  0.743800  0.379400  1
  H  H37  1  0.743800  0.008400  0.620600  1
  H  H38  1  0.256200  0.991600  0.620600  1
  H  H39  1  0.508400  0.756200  0.120600  1
  H  H40  1  0.491600  0.243800  0.120600  1
  H  H41  1  0.711100  0.499600  0.877600  1
  H  H42  1  0.288900  0.500400  0.877600  1
  H  H43  1  0.000400  0.211100  0.377600  1
  H  H44  1  0.999600  0.788900  0.377600  1
  H  H45  1  0.788900  0.999600  0.622400  1
  H  H46  1  0.211100  0.000400  0.622400  1
  H  H47  1  0.499600  0.711100  0.122400  1
  H  H48  1  0.500400  0.288900  0.122400  1
  H  H49  1  0.642100  0.581100  0.762000  1
  H  H50  1  0.357900  0.418900  0.762000  1
  H  H51  1  0.918900  0.142100  0.262000  1
  H  H52  1  0.081100  0.857900  0.262000  1
  H  H53  1  0.857900  0.081100  0.738000  1
  H  H54  1  0.142100  0.918900  0.738000  1
  H  H55  1  0.581100  0.642100  0.238000  1
  H  H56  1  0.418900  0.357900  0.238000  1
  H  H57  1  0.656300  0.595200  0.814300  1
  H  H58  1  0.343700  0.404800  0.814300  1
  H  H59  1  0.904800  0.156300  0.314300  1
  H  H60  1  0.095200  0.843700  0.314300  1
  H  H61  1  0.843700  0.095200  0.685700  1
  H  H62  1  0.156300  0.904800  0.685700  1
  H  H63  1  0.595200  0.656300  0.185700  1
  H  H64  1  0.404800  0.343700  0.185700  1
  H  H65  1  0.675700  0.627000  0.793200  1
  H  H66  1  0.324300  0.373000  0.793200  1
  H  H67  1  0.873000  0.175700  0.293200  1
  H  H68  1  0.127000  0.824300  0.293200  1
  H  H69  1  0.824300  0.127000  0.706800  1
  H  H70  1  0.175700  0.873000  0.706800  1
  H  H71  1  0.627000  0.675700  0.206800  1
  H  H72  1  0.373000  0.324300  0.206800  1
  H  H73  1  0.701400  0.593400  0.807300  1
  H  H74  1  0.298600  0.406600  0.807300  1
  H  H75  1  0.906600  0.201400  0.307300  1
  H  H76  1  0.093400  0.798600  0.307300  1
  H  H77  1  0.798600  0.093400  0.692700  1
  H  H78  1  0.201400  0.906600  0.692700  1
  H  H79  1  0.593400  0.701400  0.192700  1
  H  H80  1  0.406600  0.298600  0.192700  1
  H  H81  1  0.766700  0.586500  0.722500  1
  H  H82  1  0.233300  0.413500  0.722500  1
  H  H83  1  0.913500  0.266700  0.222500  1
  H  H84  1  0.086500  0.733300  0.222500  1
  H  H85  1  0.733300  0.086500  0.777500  1
  H  H86  1  0.266700  0.913500  0.777500  1
  H  H87  1  0.586500  0.766700  0.277500  1
  H  H88  1  0.413500  0.233300  0.277500  1
  H  H89  1  0.800900  0.550100  0.760200  1
  H  H90  1  0.199100  0.449900  0.760200  1
  H  H91  1  0.949900  0.300900  0.260200  1
  H  H92  1  0.050100  0.699100  0.260200  1
  H  H93  1  0.699100  0.050100  0.739800  1
  H  H94  1  0.300900  0.949900  0.739800  1
  H  H95  1  0.550100  0.800900  0.239800  1
  H  H96  1  0.449900  0.199100  0.239800  1
  H  H97  1  0.817500  0.543300  0.727000  1
  H  H98  1  0.182500  0.456700  0.727000  1
  H  H99  1  0.956700  0.317500  0.227000  1
  H  H100  1  0.043300  0.682500  0.227000  1
  H  H101  1  0.682500  0.043300  0.773000  1
  H  H102  1  0.317500  0.956700  0.773000  1
  H  H103  1  0.543300  0.817500  0.273000  1
  H  H104  1  0.456700  0.182500  0.273000  1
  H  H105  1  0.790600  0.511500  0.742300  1
  H  H106  1  0.209400  0.488500  0.742300  1
  H  H107  1  0.988500  0.290600  0.242300  1
  H  H108  1  0.011500  0.709400  0.242300  1
  H  H109  1  0.709400  0.011500  0.757700  1
  H  H110  1  0.290600  0.988500  0.757700  1
  H  H111  1  0.511500  0.790600  0.257700  1
  H  H112  1  0.488500  0.209400  0.257700  1
  H  H113  1  0.727100  0.485700  0.660600  1
  H  H114  1  0.272900  0.514300  0.660600  1
  H  H115  1  0.014300  0.227100  0.160600  1
  H  H116  1  0.985700  0.772900  0.160600  1
  H  H117  1  0.772900  0.985700  0.839400  1
  H  H118  1  0.227100  0.014300  0.839400  1
  H  H119  1  0.485700  0.727100  0.339400  1
  H  H120  1  0.514300  0.272900  0.339400  1
  H  H121  1  0.691900  0.443400  0.691300  1
  H  H122  1  0.308100  0.556600  0.691300  1
  H  H123  1  0.056600  0.191900  0.191300  1
  H  H124  1  0.943400  0.808100  0.191300  1
  H  H125  1  0.808100  0.943400  0.808700  1
  H  H126  1  0.191900  0.056600  0.808700  1
  H  H127  1  0.443400  0.691900  0.308700  1
  H  H128  1  0.556600  0.308100  0.308700  1
  H  H129  1  0.667200  0.452500  0.661800  1
  H  H130  1  0.332800  0.547500  0.661800  1
  H  H131  1  0.047500  0.167200  0.161800  1
  H  H132  1  0.952500  0.832800  0.161800  1
  H  H133  1  0.832800  0.952500  0.838200  1
  H  H134  1  0.167200  0.047500  0.838200  1
  H  H135  1  0.452500  0.667200  0.338200  1
  H  H136  1  0.547500  0.332800  0.338200  1
  H  H137  1  0.656900  0.473200  0.692900  1
  H  H138  1  0.343100  0.526800  0.692900  1
  H  H139  1  0.026800  0.156900  0.192900  1
  H  H140  1  0.973200  0.843100  0.192900  1
  H  H141  1  0.843100  0.973200  0.807100  1
  H  H142  1  0.156900  0.026800  0.807100  1
  H  H143  1  0.473200  0.656900  0.307100  1
  H  H144  1  0.526800  0.343100  0.307100  1
  H  H145  1  0.750700  0.419600  0.797300  1
  H  H146  1  0.249300  0.580400  0.797300  1
  H  H147  1  0.080400  0.250700  0.297300  1
  H  H148  1  0.919600  0.749300  0.297300  1
  H  H149  1  0.749300  0.919600  0.702700  1
  H  H150  1  0.250700  0.080400  0.702700  1
  H  H151  1  0.419600  0.750700  0.202700  1
  H  H152  1  0.580400  0.249300  0.202700  1
  H  H153  1  0.771200  0.459200  0.788100  1
  H  H154  1  0.228800  0.540800  0.788100  1
  H  H155  1  0.040800  0.271200  0.288100  1
  H  H156  1  0.959200  0.728800  0.288100  1
  H  H157  1  0.728800  0.959200  0.711900  1
  H  H158  1  0.271200  0.040800  0.711900  1
  H  H159  1  0.459200  0.771200  0.211900  1
  H  H160  1  0.540800  0.228800  0.211900  1
  H  H161  1  0.619700  0.461800  0.785000  1
  H  H162  1  0.380300  0.538200  0.785000  1
  H  H163  1  0.038200  0.119700  0.285000  1
  H  H164  1  0.961800  0.880300  0.285000  1
  H  H165  1  0.880300  0.961800  0.715000  1
  H  H166  1  0.119700  0.038200  0.715000  1
  H  H167  1  0.461800  0.619700  0.215000  1
  H  H168  1  0.538200  0.380300  0.215000  1
  H  H169  1  0.642500  0.449500  0.755100  1
  H  H170  1  0.357500  0.550500  0.755100  1
  H  H171  1  0.050500  0.142500  0.255100  1
  H  H172  1  0.949500  0.857500  0.255100  1
  H  H173  1  0.857500  0.949500  0.744900  1
  H  H174  1  0.142500  0.050500  0.744900  1
  H  H175  1  0.449500  0.642500  0.244900  1
  H  H176  1  0.550500  0.357500  0.244900  1
  H  H177  1  0.650200  0.569400  0.650800  1
  H  H178  1  0.349800  0.430600  0.650800  1
  H  H179  1  0.930600  0.150200  0.150800  1
  H  H180  1  0.069400  0.849800  0.150800  1
  H  H181  1  0.849800  0.069400  0.849200  1
  H  H182  1  0.150200  0.930600  0.849200  1
  H  H183  1  0.569400  0.650200  0.349200  1
  H  H184  1  0.430600  0.349800  0.349200  1
  H  H185  1  0.666800  0.563300  0.682100  1
  H  H186  1  0.333200  0.436700  0.682100  1
  H  H187  1  0.936700  0.166800  0.182100  1
  H  H188  1  0.063300  0.833200  0.182100  1
  H  H189  1  0.833200  0.063300  0.817900  1
  H  H190  1  0.166800  0.936700  0.817900  1
  H  H191  1  0.563300  0.666800  0.317900  1
  H  H192  1  0.436700  0.333200  0.317900  1
  H  H193  1  0.678700  0.527600  0.794400  1
  H  H194  1  0.321300  0.472400  0.794400  1
  H  H195  1  0.972400  0.178700  0.294400  1
  H  H196  1  0.027600  0.821300  0.294400  1
  H  H197  1  0.821300  0.027600  0.705600  1
  H  H198  1  0.178700  0.972400  0.705600  1
  H  H199  1  0.527600  0.678700  0.205600  1
  H  H200  1  0.472400  0.321300  0.205600  1
  H  H201  1  0.735100  0.550100  0.767500  1
  H  H202  1  0.264900  0.449900  0.767500  1
  H  H203  1  0.949900  0.235100  0.267500  1
  H  H204  1  0.050100  0.764900  0.267500  1
  H  H205  1  0.764900  0.050100  0.732500  1
  H  H206  1  0.235100  0.949900  0.732500  1
  H  H207  1  0.550100  0.735100  0.232500  1
  H  H208  1  0.449900  0.264900  0.232500  1
  H  H209  1  0.711800  0.511100  0.716700  1
  H  H210  1  0.288200  0.488900  0.716700  1
  H  H211  1  0.988900  0.211800  0.216700  1
  H  H212  1  0.011100  0.788200  0.216700  1
  H  H213  1  0.788200  0.011100  0.783300  1
  H  H214  1  0.211800  0.988900  0.783300  1
  H  H215  1  0.511100  0.711800  0.283300  1
  H  H216  1  0.488900  0.288200  0.283300  1
  H  H217  1  0.744700  0.445900  0.844100  1
  H  H218  1  0.255300  0.554100  0.844100  1
  H  H219  1  0.054100  0.244700  0.344100  1
  H  H220  1  0.945900  0.755300  0.344100  1
  H  H221  1  0.755300  0.945900  0.655900  1
  H  H222  1  0.244700  0.054100  0.655900  1
  H  H223  1  0.445900  0.744700  0.155900  1
  H  H224  1  0.554100  0.255300  0.155900  1
  H  H225  1  0.676600  0.454300  0.810800  1
  H  H226  1  0.323400  0.545700  0.810800  1
  H  H227  1  0.045700  0.176600  0.310800  1
  H  H228  1  0.954300  0.823400  0.310800  1
  H  H229  1  0.823400  0.954300  0.689200  1
  H  H230  1  0.176600  0.045700  0.689200  1
  H  H231  1  0.454300  0.676600  0.189200  1
  H  H232  1  0.545700  0.323400  0.189200  1
  H  H233  1  0.565600  0.542700  0.625000  1
  H  H234  1  0.434400  0.457300  0.625000  1
  H  H235  1  0.957300  0.065600  0.125000  1
  H  H236  1  0.042700  0.934400  0.125000  1
  H  H237  1  0.934400  0.042700  0.875000  1
  H  H238  1  0.065600  0.957300  0.875000  1
  H  H239  1  0.542700  0.565600  0.375000  1
  H  H240  1  0.457300  0.434400  0.375000  1
  H  H241  1  0.560800  0.608500  0.645700  1
  H  H242  1  0.439200  0.391500  0.645700  1
  H  H243  1  0.891500  0.060800  0.145700  1
  H  H244  1  0.108500  0.939200  0.145700  1
  H  H245  1  0.939200  0.108500  0.854300  1
  H  H246  1  0.060800  0.891500  0.854300  1
  H  H247  1  0.608500  0.560800  0.354300  1
  H  H248  1  0.391500  0.439200  0.354300  1
  H  H249  1  0.583300  0.667600  0.757800  1
  H  H250  1  0.416700  0.332400  0.757800  1
  H  H251  1  0.832400  0.083300  0.257800  1
  H  H252  1  0.167600  0.916700  0.257800  1
  H  H253  1  0.916700  0.167600  0.742200  1
  H  H254  1  0.083300  0.832400  0.742200  1
  H  H255  1  0.667600  0.583300  0.242200  1
  H  H256  1  0.332400  0.416700  0.242200  1
  H  H257  1  0.579600  0.641800  0.809800  1
  H  H258  1  0.420400  0.358200  0.809800  1
  H  H259  1  0.858200  0.079600  0.309800  1
  H  H260  1  0.141800  0.920400  0.309800  1
  H  H261  1  0.920400  0.141800  0.690200  1
  H  H262  1  0.079600  0.858200  0.690200  1
  H  H263  1  0.641800  0.579600  0.190200  1
  H  H264  1  0.358200  0.420400  0.190200  1
  H  H265  1  0.546400  0.501900  0.853500  1
  H  H266  1  0.453600  0.498100  0.853500  1
  H  H267  1  0.998100  0.046400  0.353500  1
  H  H268  1  0.001900  0.953600  0.353500  1
  H  H269  1  0.953600  0.001900  0.646500  1
  H  H270  1  0.046400  0.998100  0.646500  1
  H  H271  1  0.501900  0.546400  0.146500  1
  H  H272  1  0.498100  0.453600  0.146500  1
  H  H273  1  0.540100  0.436500  0.832100  1
  H  H274  1  0.459900  0.563500  0.832100  1
  H  H275  1  0.063500  0.040100  0.332100  1
  H  H276  1  0.936500  0.959900  0.332100  1
  H  H277  1  0.959900  0.936500  0.667900  1
  H  H278  1  0.040100  0.063500  0.667900  1
  H  H279  1  0.436500  0.540100  0.167900  1
  H  H280  1  0.563500  0.459900  0.167900  1
  H  H281  1  0.559900  0.372700  0.724900  1
  H  H282  1  0.440100  0.627300  0.724900  1
  H  H283  1  0.127300  0.059900  0.224900  1
  H  H284  1  0.872700  0.940100  0.224900  1
  H  H285  1  0.940100  0.872700  0.775100  1
  H  H286  1  0.059900  0.127300  0.775100  1
  H  H287  1  0.372700  0.559900  0.275100  1
  H  H288  1  0.627300  0.440100  0.275100  1
  H  H289  1  0.571600  0.401700  0.673900  1
  H  H290  1  0.428400  0.598300  0.673900  1
  H  H291  1  0.098300  0.071600  0.173900  1
  H  H292  1  0.901700  0.928400  0.173900  1
  H  H293  1  0.928400  0.901700  0.826100  1
  H  H294  1  0.071600  0.098300  0.826100  1
  H  H295  1  0.401700  0.571600  0.326100  1
  H  H296  1  0.598300  0.428400  0.326100  1
  H  H297  1  0.617600  0.658000  0.687300  1
  H  H298  1  0.382400  0.342000  0.687300  1
  H  H299  1  0.842000  0.117600  0.187300  1
  H  H300  1  0.158000  0.882400  0.187300  1
  H  H301  1  0.882400  0.158000  0.812700  1
  H  H302  1  0.117600  0.842000  0.812700  1
  H  H303  1  0.658000  0.617600  0.312700  1
  H  H304  1  0.342000  0.382400  0.312700  1
  H  H305  1  0.507200  0.662000  0.706200  1
  H  H306  1  0.492800  0.338000  0.706200  1
  H  H307  1  0.838000  0.007200  0.206200  1
  H  H308  1  0.162000  0.992800  0.206200  1
  H  H309  1  0.992800  0.162000  0.793800  1
  H  H310  1  0.007200  0.838000  0.793800  1
  H  H311  1  0.662000  0.507200  0.293800  1
  H  H312  1  0.338000  0.492800  0.293800  1
  H  H313  1  0.510400  0.728600  0.699400  1
  H  H314  1  0.489600  0.271400  0.699400  1
  H  H315  1  0.771400  0.010400  0.199400  1
  H  H316  1  0.228600  0.989600  0.199400  1
  H  H317  1  0.989600  0.228600  0.800600  1
  H  H318  1  0.010400  0.771400  0.800600  1
  H  H319  1  0.728600  0.510400  0.300600  1
  H  H320  1  0.271400  0.489600  0.300600  1
  H  H321  1  0.560500  0.757500  0.669400  1
  H  H322  1  0.439500  0.242500  0.669400  1
  H  H323  1  0.742500  0.060500  0.169400  1
  H  H324  1  0.257500  0.939500  0.169400  1
  H  H325  1  0.939500  0.257500  0.830600  1
  H  H326  1  0.060500  0.742500  0.830600  1
  H  H327  1  0.757500  0.560500  0.330600  1
  H  H328  1  0.242500  0.439500  0.330600  1
  H  H329  1  0.609200  0.547100  0.862100  1
  H  H330  1  0.390800  0.452900  0.862100  1
  H  H331  1  0.952900  0.109200  0.362100  1
  H  H332  1  0.047100  0.890800  0.362100  1
  H  H333  1  0.890800  0.047100  0.637900  1
  H  H334  1  0.109200  0.952900  0.637900  1
  H  H335  1  0.547100  0.609200  0.137900  1
  H  H336  1  0.452900  0.390800  0.137900  1
  H  H337  1  0.514600  0.615200  0.836900  1
  H  H338  1  0.485400  0.384800  0.836900  1
  H  H339  1  0.884800  0.014600  0.336900  1
  H  H340  1  0.115200  0.985400  0.336900  1
  H  H341  1  0.985400  0.115200  0.663100  1
  H  H342  1  0.014600  0.884800  0.663100  1
  H  H343  1  0.615200  0.514600  0.163100  1
  H  H344  1  0.384800  0.485400  0.163100  1
  H  H345  1  0.520000  0.644300  0.883500  1
  H  H346  1  0.480000  0.355700  0.883500  1
  H  H347  1  0.855700  0.020000  0.383500  1
  H  H348  1  0.144300  0.980000  0.383500  1
  H  H349  1  0.980000  0.144300  0.616500  1
  H  H350  1  0.020000  0.855700  0.616500  1
  H  H351  1  0.644300  0.520000  0.116500  1
  H  H352  1  0.355700  0.480000  0.116500  1
  H  H353  1  0.559700  0.618600  0.917400  1
  H  H354  1  0.440300  0.381400  0.917400  1
  H  H355  1  0.881400  0.059700  0.417400  1
  H  H356  1  0.118600  0.940300  0.417400  1
  H  H357  1  0.940300  0.118600  0.582600  1
  H  H358  1  0.059700  0.881400  0.582600  1
  H  H359  1  0.618600  0.559700  0.082600  1
  H  H360  1  0.381400  0.440300  0.082600  1
  H  H361  1  0.593200  0.399600  0.810100  1
  H  H362  1  0.406800  0.600400  0.810100  1
  H  H363  1  0.100400  0.093200  0.310100  1
  H  H364  1  0.899600  0.906800  0.310100  1
  H  H365  1  0.906800  0.899600  0.689900  1
  H  H366  1  0.093200  0.100400  0.689900  1
  H  H367  1  0.399600  0.593200  0.189900  1
  H  H368  1  0.600400  0.406800  0.189900  1
  H  H369  1  0.505600  0.372200  0.758200  1
  H  H370  1  0.494400  0.627800  0.758200  1
  H  H371  1  0.127800  0.005600  0.258200  1
  H  H372  1  0.872200  0.994400  0.258200  1
  H  H373  1  0.994400  0.872200  0.741800  1
  H  H374  1  0.005600  0.127800  0.741800  1
  H  H375  1  0.372200  0.505600  0.241800  1
  H  H376  1  0.627800  0.494400  0.241800  1
  H  H377  1  0.497400  0.315800  0.783300  1
  H  H378  1  0.502600  0.684200  0.783300  1
  H  H379  1  0.184200  0.997400  0.283300  1
  H  H380  1  0.815800  0.002600  0.283300  1
  H  H381  1  0.002600  0.815800  0.716700  1
  H  H382  1  0.997400  0.184200  0.716700  1
  H  H383  1  0.315800  0.497400  0.216700  1
  H  H384  1  0.684200  0.502600  0.216700  1
  H  H385  1  0.545100  0.296800  0.815900  1
  H  H386  1  0.454900  0.703200  0.815900  1
  H  H387  1  0.203200  0.045100  0.315900  1
  H  H388  1  0.796800  0.954900  0.315900  1
  H  H389  1  0.954900  0.796800  0.684100  1
  H  H390  1  0.045100  0.203200  0.684100  1
  H  H391  1  0.296800  0.545100  0.184100  1
  H  H392  1  0.703200  0.454900  0.184100  1
  H  H393  1  0.612300  0.494500  0.621100  1
  H  H394  1  0.387700  0.505500  0.621100  1
  H  H395  1  0.005500  0.112300  0.121100  1
  H  H396  1  0.994500  0.887700  0.121100  1
  H  H397  1  0.887700  0.994500  0.878900  1
  H  H398  1  0.112300  0.005500  0.878900  1
  H  H399  1  0.494500  0.612300  0.378900  1
  H  H400  1  0.505500  0.387700  0.378900  1
  H  H401  1  0.517500  0.437700  0.640300  1
  H  H402  1  0.482500  0.562300  0.640300  1
  H  H403  1  0.062300  0.017500  0.140300  1
  H  H404  1  0.937700  0.982500  0.140300  1
  H  H405  1  0.982500  0.937700  0.859700  1
  H  H406  1  0.017500  0.062300  0.859700  1
  H  H407  1  0.437700  0.517500  0.359700  1
  H  H408  1  0.562300  0.482500  0.359700  1
  H  H409  1  0.514500  0.409100  0.593700  1
  H  H410  1  0.485500  0.590900  0.593700  1
  H  H411  1  0.090900  0.014500  0.093700  1
  H  H412  1  0.909100  0.985500  0.093700  1
  H  H413  1  0.985500  0.909100  0.906300  1
  H  H414  1  0.014500  0.090900  0.906300  1
  H  H415  1  0.409100  0.514500  0.406300  1
  H  H416  1  0.590900  0.485500  0.406300  1
  H  H417  1  0.570100  0.416900  0.565400  1
  H  H418  1  0.429900  0.583100  0.565400  1
  H  H419  1  0.083100  0.070100  0.065400  1
  H  H420  1  0.916900  0.929900  0.065400  1
  H  H421  1  0.929900  0.916900  0.934600  1
  H  H422  1  0.070100  0.083100  0.934600  1
  H  H423  1  0.416900  0.570100  0.434600  1
  H  H424  1  0.583100  0.429900  0.434600  1
  H  H425  1  0.751800  0.731100  0.701400  1
  H  H426  1  0.248200  0.268900  0.701400  1
  H  H427  1  0.768900  0.251800  0.201400  1
  H  H428  1  0.231100  0.748200  0.201400  1
  H  H429  1  0.748200  0.231100  0.798600  1
  H  H430  1  0.251800  0.768900  0.798600  1
  H  H431  1  0.731100  0.751800  0.298600  1
  H  H432  1  0.268900  0.248200  0.298600  1
  H  H433  1  0.812800  0.695100  0.691100  1
  H  H434  1  0.187200  0.304900  0.691100  1
  H  H435  1  0.804900  0.312800  0.191100  1
  H  H436  1  0.195100  0.687200  0.191100  1
  H  H437  1  0.687200  0.195100  0.808900  1
  H  H438  1  0.312800  0.804900  0.808900  1
  H  H439  1  0.695100  0.812800  0.308900  1
  H  H440  1  0.304900  0.187200  0.308900  1
  H  H441  1  0.891600  0.584500  0.742900  1
  H  H442  1  0.108400  0.415500  0.742900  1
  H  H443  1  0.915500  0.391600  0.242900  1
  H  H444  1  0.084500  0.608400  0.242900  1
  H  H445  1  0.608400  0.084500  0.757100  1
  H  H446  1  0.391600  0.915500  0.757100  1
  H  H447  1  0.584500  0.891600  0.257100  1
  H  H448  1  0.415500  0.108400  0.257100  1
  H  H449  1  0.895300  0.553900  0.795200  1
  H  H450  1  0.104700  0.446100  0.795200  1
  H  H451  1  0.946100  0.395300  0.295200  1
  H  H452  1  0.053900  0.604700  0.295200  1
  H  H453  1  0.604700  0.053900  0.704800  1
  H  H454  1  0.395300  0.946100  0.704800  1
  H  H455  1  0.553900  0.895300  0.204800  1
  H  H456  1  0.446100  0.104700  0.204800  1
  H  H457  1  0.818000  0.582100  0.895900  1
  H  H458  1  0.182000  0.417900  0.895900  1
  H  H459  1  0.917900  0.318000  0.395900  1
  H  H460  1  0.082100  0.682000  0.395900  1
  H  H461  1  0.682000  0.082100  0.604100  1
  H  H462  1  0.318000  0.917900  0.604100  1
  H  H463  1  0.582100  0.818000  0.104100  1
  H  H464  1  0.417900  0.182000  0.104100  1
  H  H465  1  0.756000  0.614200  0.910700  1
  H  H466  1  0.244000  0.385800  0.910700  1
  H  H467  1  0.885800  0.256000  0.410700  1
  H  H468  1  0.114200  0.744000  0.410700  1
  H  H469  1  0.744000  0.114200  0.589300  1
  H  H470  1  0.256000  0.885800  0.589300  1
  H  H471  1  0.614200  0.756000  0.089300  1
  H  H472  1  0.385800  0.244000  0.089300  1
  H  H473  1  0.649500  0.699600  0.843200  1
  H  H474  1  0.350500  0.300400  0.843200  1
  H  H475  1  0.800400  0.149500  0.343200  1
  H  H476  1  0.199600  0.850500  0.343200  1
  H  H477  1  0.850500  0.199600  0.656800  1
  H  H478  1  0.149500  0.800400  0.656800  1
  H  H479  1  0.699600  0.649500  0.156800  1
  H  H480  1  0.300400  0.350500  0.156800  1
  H  H481  1  0.655500  0.721600  0.793500  1
  H  H482  1  0.344500  0.278400  0.793500  1
  H  H483  1  0.778400  0.155500  0.293500  1
  H  H484  1  0.221600  0.844500  0.293500  1
  H  H485  1  0.844500  0.221600  0.706500  1
  H  H486  1  0.155500  0.778400  0.706500  1
  H  H487  1  0.721600  0.655500  0.206500  1
  H  H488  1  0.278400  0.344500  0.206500  1
  H  H489  1  0.825600  0.621100  0.679900  1
  H  H490  1  0.174400  0.378900  0.679900  1
  H  H491  1  0.878900  0.325600  0.179900  1
  H  H492  1  0.121100  0.674400  0.179900  1
  H  H493  1  0.674400  0.121100  0.820100  1
  H  H494  1  0.325600  0.878900  0.820100  1
  H  H495  1  0.621100  0.825600  0.320100  1
  H  H496  1  0.378900  0.174400  0.320100  1
  H  H497  1  0.909200  0.663400  0.732200  1
  H  H498  1  0.090800  0.336600  0.732200  1
  H  H499  1  0.836600  0.409200  0.232200  1
  H  H500  1  0.163400  0.590800  0.232200  1
  H  H501  1  0.590800  0.163400  0.767800  1
  H  H502  1  0.409200  0.836600  0.767800  1
  H  H503  1  0.663400  0.909200  0.267800  1
  H  H504  1  0.336600  0.090800  0.267800  1
  H  H505  1  0.952300  0.654300  0.696200  1
  H  H506  1  0.047700  0.345700  0.696200  1
  H  H507  1  0.845700  0.452300  0.196200  1
  H  H508  1  0.154300  0.547700  0.196200  1
  H  H509  1  0.547700  0.154300  0.803800  1
  H  H510  1  0.452300  0.845700  0.803800  1
  H  H511  1  0.654300  0.952300  0.303800  1
  H  H512  1  0.345700  0.047700  0.303800  1
  H  H513  1  0.929400  0.645200  0.644000  1
  H  H514  1  0.070600  0.354800  0.644000  1
  H  H515  1  0.854800  0.429400  0.144000  1
  H  H516  1  0.145200  0.570600  0.144000  1
  H  H517  1  0.570600  0.145200  0.856000  1
  H  H518  1  0.429400  0.854800  0.856000  1
  H  H519  1  0.645200  0.929400  0.356000  1
  H  H520  1  0.354800  0.070600  0.356000  1
  H  H521  1  0.823400  0.513500  0.855600  1
  H  H522  1  0.176600  0.486500  0.855600  1
  H  H523  1  0.986500  0.323400  0.355600  1
  H  H524  1  0.013500  0.676600  0.355600  1
  H  H525  1  0.676600  0.013500  0.644400  1
  H  H526  1  0.323400  0.986500  0.644400  1
  H  H527  1  0.513500  0.823400  0.144400  1
  H  H528  1  0.486500  0.176600  0.144400  1
  H  H529  1  0.910000  0.588500  0.855800  1
  H  H530  1  0.090000  0.411500  0.855800  1
  H  H531  1  0.911500  0.410000  0.355800  1
  H  H532  1  0.088500  0.590000  0.355800  1
  H  H533  1  0.590000  0.088500  0.644200  1
  H  H534  1  0.410000  0.911500  0.644200  1
  H  H535  1  0.588500  0.910000  0.144200  1
  H  H536  1  0.411500  0.090000  0.144200  1
  H  H537  1  0.949200  0.543800  0.879100  1
  H  H538  1  0.050800  0.456200  0.879100  1
  H  H539  1  0.956200  0.449200  0.379100  1
  H  H540  1  0.043800  0.550800  0.379100  1
  H  H541  1  0.550800  0.043800  0.620900  1
  H  H542  1  0.449200  0.956200  0.620900  1
  H  H543  1  0.543800  0.949200  0.120900  1
  H  H544  1  0.456200  0.050800  0.120900  1
  H  H545  1  0.920000  0.486300  0.893700  1
  H  H546  1  0.080000  0.513700  0.893700  1
  H  H547  1  0.013700  0.420000  0.393700  1
  H  H548  1  0.986300  0.580000  0.393700  1
  H  H549  1  0.580000  0.986300  0.606300  1
  H  H550  1  0.420000  0.013700  0.606300  1
  H  H551  1  0.486300  0.920000  0.106300  1
  H  H552  1  0.513700  0.080000  0.106300  1
  H  H553  1  0.680600  0.600800  0.880600  1
  H  H554  1  0.319400  0.399200  0.880600  1
  H  H555  1  0.899200  0.180600  0.380600  1
  H  H556  1  0.100800  0.819400  0.380600  1
  H  H557  1  0.819400  0.100800  0.619400  1
  H  H558  1  0.180600  0.899200  0.619400  1
  H  H559  1  0.600800  0.680600  0.119400  1
  H  H560  1  0.399200  0.319400  0.119400  1
  H  H561  1  0.703900  0.713300  0.900900  1
  H  H562  1  0.296100  0.286700  0.900900  1
  H  H563  1  0.786700  0.203900  0.400900  1
  H  H564  1  0.213300  0.796100  0.400900  1
  H  H565  1  0.796100  0.213300  0.599100  1
  H  H566  1  0.203900  0.786700  0.599100  1
  H  H567  1  0.713300  0.703900  0.099100  1
  H  H568  1  0.286700  0.296100  0.099100  1
  H  H569  1  0.656000  0.701800  0.944600  1
  H  H570  1  0.344000  0.298200  0.944600  1
  H  H571  1  0.798200  0.156000  0.444600  1
  H  H572  1  0.201800  0.844000  0.444600  1
  H  H573  1  0.844000  0.201800  0.555400  1
  H  H574  1  0.156000  0.798200  0.555400  1
  H  H575  1  0.701800  0.656000  0.055400  1
  H  H576  1  0.298200  0.344000  0.055400  1
  H  H577  1  0.630100  0.640200  0.953300  1
  H  H578  1  0.369900  0.359800  0.953300  1
  H  H579  1  0.859800  0.130100  0.453300  1
  H  H580  1  0.140200  0.869900  0.453300  1
  H  H581  1  0.869900  0.140200  0.546700  1
  H  H582  1  0.130100  0.859800  0.546700  1
  H  H583  1  0.640200  0.630100  0.046700  1
  H  H584  1  0.359800  0.369900  0.046700  1
  H  H585  1  0.694300  0.705000  0.705500  1
  H  H586  1  0.305700  0.295000  0.705500  1
  H  H587  1  0.795000  0.194300  0.205500  1
  H  H588  1  0.205000  0.805700  0.205500  1
  H  H589  1  0.805700  0.205000  0.794500  1
  H  H590  1  0.194300  0.795000  0.794500  1
  H  H591  1  0.705000  0.694300  0.294500  1
  H  H592  1  0.295000  0.305700  0.294500  1
  H  H593  1  0.690900  0.782100  0.772300  1
  H  H594  1  0.309100  0.217900  0.772300  1
  H  H595  1  0.717900  0.190900  0.272300  1
  H  H596  1  0.282100  0.809100  0.272300  1
  H  H597  1  0.809100  0.282100  0.727700  1
  H  H598  1  0.190900  0.717900  0.727700  1
  H  H599  1  0.782100  0.690900  0.227700  1
  H  H600  1  0.217900  0.309100  0.227700  1
  H  H601  1  0.642900  0.816000  0.748900  1
  H  H602  1  0.357100  0.184000  0.748900  1
  H  H603  1  0.684000  0.142900  0.248900  1
  H  H604  1  0.316000  0.857100  0.248900  1
  H  H605  1  0.857100  0.316000  0.751100  1
  H  H606  1  0.142900  0.684000  0.751100  1
  H  H607  1  0.816000  0.642900  0.251100  1
  H  H608  1  0.184000  0.357100  0.251100  1
  H  H609  1  0.631400  0.797400  0.700200  1
  H  H610  1  0.368600  0.202600  0.700200  1
  H  H611  1  0.702600  0.131400  0.200200  1
  H  H612  1  0.297400  0.868600  0.200200  1
  H  H613  1  0.868600  0.297400  0.799800  1
  H  H614  1  0.131400  0.702600  0.799800  1
  H  H615  1  0.797400  0.631400  0.299800  1
  H  H616  1  0.202600  0.368600  0.299800  1
  H  H617  1  0.819600  0.464600  0.610500  1
  H  H618  1  0.180400  0.535400  0.610500  1
  H  H619  1  0.035400  0.319600  0.110500  1
  H  H620  1  0.964600  0.680400  0.110500  1
  H  H621  1  0.680400  0.964600  0.889500  1
  H  H622  1  0.319600  0.035400  0.889500  1
  H  H623  1  0.464600  0.819600  0.389500  1
  H  H624  1  0.535400  0.180400  0.389500  1
  H  H625  1  0.765100  0.429000  0.596600  1
  H  H626  1  0.234900  0.571000  0.596600  1
  H  H627  1  0.071000  0.265100  0.096600  1
  H  H628  1  0.929000  0.734900  0.096600  1
  H  H629  1  0.734900  0.929000  0.903400  1
  H  H630  1  0.265100  0.071000  0.903400  1
  H  H631  1  0.429000  0.765100  0.403400  1
  H  H632  1  0.571000  0.234900  0.403400  1
  H  H633  1  0.654100  0.352700  0.656000  1
  H  H634  1  0.345900  0.647300  0.656000  1
  H  H635  1  0.147300  0.154100  0.156000  1
  H  H636  1  0.852700  0.845900  0.156000  1
  H  H637  1  0.845900  0.852700  0.844000  1
  H  H638  1  0.154100  0.147300  0.844000  1
  H  H639  1  0.352700  0.654100  0.344000  1
  H  H640  1  0.647300  0.345900  0.344000  1
  H  H641  1  0.646700  0.328900  0.706900  1
  H  H642  1  0.353300  0.671100  0.706900  1
  H  H643  1  0.171100  0.146700  0.206900  1
  H  H644  1  0.828900  0.853300  0.206900  1
  H  H645  1  0.853300  0.828900  0.793100  1
  H  H646  1  0.146700  0.171100  0.793100  1
  H  H647  1  0.328900  0.646700  0.293100  1
  H  H648  1  0.671100  0.353300  0.293100  1
  H  H649  1  0.745100  0.317800  0.804900  1
  H  H650  1  0.254900  0.682200  0.804900  1
  H  H651  1  0.182200  0.245100  0.304900  1
  H  H652  1  0.817800  0.754900  0.304900  1
  H  H653  1  0.754900  0.817800  0.695100  1
  H  H654  1  0.245100  0.182200  0.695100  1
  H  H655  1  0.317800  0.745100  0.195100  1
  H  H656  1  0.682200  0.254900  0.195100  1
  H  H657  1  0.800400  0.352200  0.816800  1
  H  H658  1  0.199600  0.647800  0.816800  1
  H  H659  1  0.147800  0.300400  0.316800  1
  H  H660  1  0.852200  0.699600  0.316800  1
  H  H661  1  0.699600  0.852200  0.683200  1
  H  H662  1  0.300400  0.147800  0.683200  1
  H  H663  1  0.352200  0.800400  0.183200  1
  H  H664  1  0.647800  0.199600  0.183200  1
  H  H665  1  0.883900  0.458400  0.769500  1
  H  H666  1  0.116100  0.541600  0.769500  1
  H  H667  1  0.041600  0.383900  0.269500  1
  H  H668  1  0.958400  0.616100  0.269500  1
  H  H669  1  0.616100  0.958400  0.730500  1
  H  H670  1  0.383900  0.041600  0.730500  1
  H  H671  1  0.458400  0.883900  0.230500  1
  H  H672  1  0.541600  0.116100  0.230500  1
  H  H673  1  0.888300  0.492100  0.719700  1
  H  H674  1  0.111700  0.507900  0.719700  1
  H  H675  1  0.007900  0.388300  0.219700  1
  H  H676  1  0.992100  0.611700  0.219700  1
  H  H677  1  0.611700  0.992100  0.780300  1
  H  H678  1  0.388300  0.007900  0.780300  1
  H  H679  1  0.492100  0.888300  0.280300  1
  H  H680  1  0.507900  0.111700  0.280300  1
  H  H681  1  0.689700  0.445400  0.616600  1
  H  H682  1  0.310300  0.554600  0.616600  1
  H  H683  1  0.054600  0.189700  0.116600  1
  H  H684  1  0.945400  0.810300  0.116600  1
  H  H685  1  0.810300  0.945400  0.883400  1
  H  H686  1  0.189700  0.054600  0.883400  1
  H  H687  1  0.445400  0.689700  0.383400  1
  H  H688  1  0.554600  0.310300  0.383400  1
  H  H689  1  0.712900  0.330400  0.611500  1
  H  H690  1  0.287100  0.669600  0.611500  1
  H  H691  1  0.169600  0.212900  0.111500  1
  H  H692  1  0.830400  0.787100  0.111500  1
  H  H693  1  0.787100  0.830400  0.888500  1
  H  H694  1  0.212900  0.169600  0.888500  1
  H  H695  1  0.330400  0.712900  0.388500  1
  H  H696  1  0.669600  0.287100  0.388500  1
  H  H697  1  0.667100  0.326700  0.569800  1
  H  H698  1  0.332900  0.673300  0.569800  1
  H  H699  1  0.173300  0.167100  0.069800  1
  H  H700  1  0.826700  0.832900  0.069800  1
  H  H701  1  0.832900  0.826700  0.930200  1
  H  H702  1  0.167100  0.173300  0.930200  1
  H  H703  1  0.326700  0.667100  0.430200  1
  H  H704  1  0.673300  0.332900  0.430200  1
  H  H705  1  0.647400  0.384300  0.548000  1
  H  H706  1  0.352600  0.615700  0.548000  1
  H  H707  1  0.115700  0.147400  0.048000  1
  H  H708  1  0.884300  0.852600  0.048000  1
  H  H709  1  0.852600  0.884300  0.952000  1
  H  H710  1  0.147400  0.115700  0.952000  1
  H  H711  1  0.384300  0.647400  0.452000  1
  H  H712  1  0.615700  0.352600  0.452000  1
  H  H713  1  0.679000  0.348200  0.796300  1
  H  H714  1  0.321000  0.651800  0.796300  1
  H  H715  1  0.151800  0.179000  0.296300  1
  H  H716  1  0.848200  0.821000  0.296300  1
  H  H717  1  0.821000  0.848200  0.703700  1
  H  H718  1  0.179000  0.151800  0.703700  1
  H  H719  1  0.348200  0.679000  0.203700  1
  H  H720  1  0.651800  0.321000  0.203700  1
  H  H721  1  0.687300  0.264500  0.733700  1
  H  H722  1  0.312700  0.735500  0.733700  1
  H  H723  1  0.235500  0.187300  0.233700  1
  H  H724  1  0.764500  0.812700  0.233700  1
  H  H725  1  0.812700  0.764500  0.766300  1
  H  H726  1  0.187300  0.235500  0.766300  1
  H  H727  1  0.264500  0.687300  0.266300  1
  H  H728  1  0.735500  0.312700  0.266300  1
  H  H729  1  0.638500  0.231800  0.756800  1
  H  H730  1  0.361500  0.768200  0.756800  1
  H  H731  1  0.268200  0.138500  0.256800  1
  H  H732  1  0.731800  0.861500  0.256800  1
  H  H733  1  0.861500  0.731800  0.743200  1
  H  H734  1  0.138500  0.268200  0.743200  1
  H  H735  1  0.231800  0.638500  0.243200  1
  H  H736  1  0.768200  0.361500  0.243200  1
  H  H737  1  0.618600  0.254100  0.804500  1
  H  H738  1  0.381400  0.745900  0.804500  1
  H  H739  1  0.245900  0.118600  0.304500  1
  H  H740  1  0.754100  0.881400  0.304500  1
  H  H741  1  0.881400  0.754100  0.695500  1
  H  H742  1  0.118600  0.245900  0.695500  1
  H  H743  1  0.254100  0.618600  0.195500  1
  H  H744  1  0.745900  0.381400  0.195500  1
  H  H745  1  0.817500  0.426800  0.831100  1
  H  H746  1  0.182500  0.573200  0.831100  1
  H  H747  1  0.073200  0.317500  0.331100  1
  H  H748  1  0.926800  0.682500  0.331100  1
  H  H749  1  0.682500  0.926800  0.668900  1
  H  H750  1  0.317500  0.073200  0.668900  1
  H  H751  1  0.426800  0.817500  0.168900  1
  H  H752  1  0.573200  0.182500  0.168900  1
  H  H753  1  0.904300  0.378200  0.780400  1
  H  H754  1  0.095700  0.621800  0.780400  1
  H  H755  1  0.121800  0.404300  0.280400  1
  H  H756  1  0.878200  0.595700  0.280400  1
  H  H757  1  0.595700  0.878200  0.719600  1
  H  H758  1  0.404300  0.121800  0.719600  1
  H  H759  1  0.378200  0.904300  0.219600  1
  H  H760  1  0.621800  0.095700  0.219600  1
  H  H761  1  0.949400  0.397000  0.824000  1
  H  H762  1  0.050600  0.603000  0.824000  1
  H  H763  1  0.103000  0.449400  0.324000  1
  H  H764  1  0.897000  0.550600  0.324000  1
  H  H765  1  0.550600  0.897000  0.676000  1
  H  H766  1  0.449400  0.103000  0.676000  1
  H  H767  1  0.397000  0.949400  0.176000  1
  H  H768  1  0.603000  0.050600  0.176000  1
  H  H769  1  0.915800  0.413700  0.870400  1
  H  H770  1  0.084200  0.586300  0.870400  1
  H  H771  1  0.086300  0.415800  0.370400  1
  H  H772  1  0.913700  0.584200  0.370400  1
  H  H773  1  0.584200  0.913700  0.629600  1
  H  H774  1  0.415800  0.086300  0.629600  1
  H  H775  1  0.413700  0.915800  0.129600  1
  H  H776  1  0.586300  0.084200  0.129600  1
  H  H777  1  0.826000  0.534300  0.656100  1
  H  H778  1  0.174000  0.465700  0.656100  1
  H  H779  1  0.965700  0.326000  0.156100  1
  H  H780  1  0.034300  0.674000  0.156100  1
  H  H781  1  0.674000  0.034300  0.843900  1
  H  H782  1  0.326000  0.965700  0.843900  1
  H  H783  1  0.534300  0.826000  0.343900  1
  H  H784  1  0.465700  0.174000  0.343900  1
  H  H785  1  0.914600  0.455400  0.662600  1
  H  H786  1  0.085400  0.544600  0.662600  1
  H  H787  1  0.044600  0.414600  0.162600  1
  H  H788  1  0.955400  0.585400  0.162600  1
  H  H789  1  0.585400  0.955400  0.837400  1
  H  H790  1  0.414600  0.044600  0.837400  1
  H  H791  1  0.455400  0.914600  0.337400  1
  H  H792  1  0.544600  0.085400  0.337400  1
  H  H793  1  0.950900  0.509300  0.643600  1
  H  H794  1  0.049100  0.490700  0.643600  1
  H  H795  1  0.990700  0.450900  0.143600  1
  H  H796  1  0.009300  0.549100  0.143600  1
  H  H797  1  0.549100  0.009300  0.856400  1
  H  H798  1  0.450900  0.990700  0.856400  1
  H  H799  1  0.509300  0.950900  0.356400  1
  H  H800  1  0.490700  0.049100  0.356400  1
  H  H801  1  0.922700  0.562700  0.627500  1
  H  H802  1  0.077300  0.437300  0.627500  1
  H  H803  1  0.937300  0.422700  0.127500  1
  H  H804  1  0.062700  0.577300  0.127500  1
  H  H805  1  0.577300  0.062700  0.872500  1
  H  H806  1  0.422700  0.937300  0.872500  1
  H  H807  1  0.562700  0.922700  0.372500  1
  H  H808  1  0.437300  0.077300  0.372500  1
  H  H809  1  0.678900  0.699400  0.600700  1
  H  H810  1  0.321100  0.300600  0.600700  1
  H  H811  1  0.800600  0.178900  0.100700  1
  H  H812  1  0.199400  0.821100  0.100700  1
  H  H813  1  0.821100  0.199400  0.899300  1
  H  H814  1  0.178900  0.800600  0.899300  1
  H  H815  1  0.699400  0.678900  0.399300  1
  H  H816  1  0.300600  0.321100  0.399300  1
  H  H817  1  0.633400  0.692900  0.557600  1
  H  H818  1  0.366600  0.307100  0.557600  1
  H  H819  1  0.807100  0.133400  0.057600  1
  H  H820  1  0.192900  0.866600  0.057600  1
  H  H821  1  0.866600  0.192900  0.942400  1
  H  H822  1  0.133400  0.807100  0.942400  1
  H  H823  1  0.692900  0.633400  0.442400  1
  H  H824  1  0.307100  0.366600  0.442400  1
  H  H825  1  0.630500  0.739200  0.556100  1
  H  H826  1  0.369500  0.260800  0.556100  1
  H  H827  1  0.760800  0.130500  0.056100  1
  H  H828  1  0.239200  0.869500  0.056100  1
  H  H829  1  0.869500  0.239200  0.943900  1
  H  H830  1  0.130500  0.760800  0.943900  1
  H  H831  1  0.739200  0.630500  0.443900  1
  H  H832  1  0.260800  0.369500  0.443900  1
  H  H833  1  0.701800  0.696500  0.552400  1
  H  H834  1  0.298200  0.303500  0.552400  1
  H  H835  1  0.803500  0.201800  0.052400  1
  H  H836  1  0.196500  0.798200  0.052400  1
  H  H837  1  0.798200  0.196500  0.947600  1
  H  H838  1  0.201800  0.803500  0.947600  1
  H  H839  1  0.696500  0.701800  0.447600  1
  H  H840  1  0.303500  0.298200  0.447600  1
  H  H841  1  0.682100  0.716100  0.524000  1
  H  H842  1  0.317900  0.283900  0.524000  1
  H  H843  1  0.783900  0.182100  0.024000  1
  H  H844  1  0.216100  0.817900  0.024000  1
  H  H845  1  0.817900  0.216100  0.976000  1
  H  H846  1  0.182100  0.783900  0.976000  1
  H  H847  1  0.716100  0.682100  0.476000  1
  H  H848  1  0.283900  0.317900  0.476000  1
  H  H849  1  0.697800  0.778300  0.542800  1
  H  H850  1  0.302200  0.221700  0.542800  1
  H  H851  1  0.721700  0.197800  0.042800  1
  H  H852  1  0.278300  0.802200  0.042800  1
  H  H853  1  0.802200  0.278300  0.957200  1
  H  H854  1  0.197800  0.721700  0.957200  1
  H  H855  1  0.778300  0.697800  0.457200  1
  H  H856  1  0.221700  0.302200  0.457200  1
  H  H857  1  0.736100  0.752800  0.539700  1
  H  H858  1  0.263900  0.247200  0.539700  1
  H  H859  1  0.747200  0.236100  0.039700  1
  H  H860  1  0.252800  0.763900  0.039700  1
  H  H861  1  0.763900  0.252800  0.960300  1
  H  H862  1  0.236100  0.747200  0.960300  1
  H  H863  1  0.752800  0.736100  0.460300  1
  H  H864  1  0.247200  0.263900  0.460300  1
  H  H865  1  0.729900  0.786000  0.589300  1
  H  H866  1  0.270100  0.214000  0.589300  1
  H  H867  1  0.714000  0.229900  0.089300  1
  H  H868  1  0.286000  0.770100  0.089300  1
  H  H869  1  0.770100  0.286000  0.910700  1
  H  H870  1  0.229900  0.714000  0.910700  1
  H  H871  1  0.786000  0.729900  0.410700  1
  H  H872  1  0.214000  0.270100  0.410700  1
  H  H873  1  0.737800  0.740600  0.592000  1
  H  H874  1  0.262200  0.259400  0.592000  1
  H  H875  1  0.759400  0.237800  0.092000  1
  H  H876  1  0.240600  0.762200  0.092000  1
  H  H877  1  0.762200  0.240600  0.908000  1
  H  H878  1  0.237800  0.759400  0.908000  1
  H  H879  1  0.740600  0.737800  0.408000  1
  H  H880  1  0.259400  0.262200  0.408000  1
  H  H881  1  0.661200  0.776000  0.594500  1
  H  H882  1  0.338800  0.224000  0.594500  1
  H  H883  1  0.724000  0.161200  0.094500  1
  H  H884  1  0.276000  0.838800  0.094500  1
  H  H885  1  0.838800  0.276000  0.905500  1
  H  H886  1  0.161200  0.724000  0.905500  1
  H  H887  1  0.776000  0.661200  0.405500  1
  H  H888  1  0.224000  0.338800  0.405500  1
  H  H889  1  0.791800  0.637700  0.580100  1
  H  H890  1  0.208200  0.362300  0.580100  1
  H  H891  1  0.862300  0.291800  0.080100  1
  H  H892  1  0.137700  0.708200  0.080100  1
  H  H893  1  0.708200  0.137700  0.919900  1
  H  H894  1  0.291800  0.862300  0.919900  1
  H  H895  1  0.637700  0.791800  0.419900  1
  H  H896  1  0.362300  0.208200  0.419900  1
  H  H897  1  0.796000  0.704200  0.568300  1
  H  H898  1  0.204000  0.295800  0.568300  1
  H  H899  1  0.795800  0.296000  0.068300  1
  H  H900  1  0.204200  0.704000  0.068300  1
  H  H901  1  0.704000  0.204200  0.931700  1
  H  H902  1  0.296000  0.795800  0.931700  1
  H  H903  1  0.704200  0.796000  0.431700  1
  H  H904  1  0.295800  0.204000  0.431700  1
  H  H905  1  0.835500  0.698100  0.550100  1
  H  H906  1  0.164500  0.301900  0.550100  1
  H  H907  1  0.801900  0.335500  0.050100  1
  H  H908  1  0.198100  0.664500  0.050100  1
  H  H909  1  0.664500  0.198100  0.949900  1
  H  H910  1  0.335500  0.801900  0.949900  1
  H  H911  1  0.698100  0.835500  0.449900  1
  H  H912  1  0.301900  0.164500  0.449900  1
  H  H913  1  0.788200  0.694800  0.511400  1
  H  H914  1  0.211800  0.305200  0.511400  1
  H  H915  1  0.805200  0.288200  0.011400  1
  H  H916  1  0.194800  0.711800  0.011400  1
  H  H917  1  0.711800  0.194800  0.988600  1
  H  H918  1  0.288200  0.805200  0.988600  1
  H  H919  1  0.694800  0.788200  0.488600  1
  H  H920  1  0.305200  0.211800  0.488600  1
  H  H921  1  0.759700  0.669800  0.532000  1
  H  H922  1  0.240300  0.330200  0.532000  1
  H  H923  1  0.830200  0.259700  0.032000  1
  H  H924  1  0.169800  0.740300  0.032000  1
  H  H925  1  0.740300  0.169800  0.968000  1
  H  H926  1  0.259700  0.830200  0.968000  1
  H  H927  1  0.669800  0.759700  0.468000  1
  H  H928  1  0.330200  0.240300  0.468000  1
  H  H929  1  0.789500  0.626800  0.495200  1
  H  H930  1  0.210500  0.373200  0.495200  1
  H  H931  1  0.873200  0.289500  0.995200  1
  H  H932  1  0.126800  0.710500  0.995200  1
  H  H933  1  0.710500  0.126800  0.004800  1
  H  H934  1  0.289500  0.873200  0.004800  1
  H  H935  1  0.626800  0.789500  0.504800  1
  H  H936  1  0.373200  0.210500  0.504800  1
  H  H937  1  0.831300  0.640700  0.504800  1
  H  H938  1  0.168700  0.359300  0.504800  1
  H  H939  1  0.859300  0.331300  0.004800  1
  H  H940  1  0.140700  0.668700  0.004800  1
  H  H941  1  0.668700  0.140700  0.995200  1
  H  H942  1  0.331300  0.859300  0.995200  1
  H  H943  1  0.640700  0.831300  0.495200  1
  H  H944  1  0.359300  0.168700  0.495200  1
  H  H945  1  0.784600  0.589400  0.540600  1
  H  H946  1  0.215400  0.410600  0.540600  1
  H  H947  1  0.910600  0.284600  0.040600  1
  H  H948  1  0.089400  0.715400  0.040600  1
  H  H949  1  0.715400  0.089400  0.959400  1
  H  H950  1  0.284600  0.910600  0.959400  1
  H  H951  1  0.589400  0.784600  0.459400  1
  H  H952  1  0.410600  0.215400  0.459400  1
  H  H953  1  0.821900  0.576600  0.521800  1
  H  H954  1  0.178100  0.423400  0.521800  1
  H  H955  1  0.923400  0.321900  0.021800  1
  H  H956  1  0.076600  0.678100  0.021800  1
  H  H957  1  0.678100  0.076600  0.978200  1
  H  H958  1  0.321900  0.923400  0.978200  1
  H  H959  1  0.576600  0.821900  0.478200  1
  H  H960  1  0.423400  0.178100  0.478200  1
  H  H961  1  0.862300  0.616600  0.551600  1
  H  H962  1  0.137700  0.383400  0.551600  1
  H  H963  1  0.883400  0.362300  0.051600  1
  H  H964  1  0.116600  0.637700  0.051600  1
  H  H965  1  0.637700  0.116600  0.948400  1
  H  H966  1  0.362300  0.883400  0.948400  1
  H  H967  1  0.616600  0.862300  0.448400  1
  H  H968  1  0.383400  0.137700  0.448400  1
  H  H969  1  0.697000  0.534100  0.551500  1
  H  H970  1  0.303000  0.465900  0.551500  1
  H  H971  1  0.965900  0.197000  0.051500  1
  H  H972  1  0.034100  0.803000  0.051500  1
  H  H973  1  0.803000  0.034100  0.948500  1
  H  H974  1  0.197000  0.965900  0.948500  1
  H  H975  1  0.534100  0.697000  0.448500  1
  H  H976  1  0.465900  0.303000  0.448500  1
  H  H977  1  0.739500  0.535900  0.509400  1
  H  H978  1  0.260500  0.464100  0.509400  1
  H  H979  1  0.964100  0.239500  0.009400  1
  H  H980  1  0.035900  0.760500  0.009400  1
  H  H981  1  0.760500  0.035900  0.990600  1
  H  H982  1  0.239500  0.964100  0.990600  1
  H  H983  1  0.535900  0.739500  0.490600  1
  H  H984  1  0.464100  0.260500  0.490600  1
  H  H985  1  0.704500  0.529100  0.486800  1
  H  H986  1  0.295500  0.470900  0.486800  1
  H  H987  1  0.970900  0.204500  0.986800  1
  H  H988  1  0.029100  0.795500  0.986800  1
  H  H989  1  0.795500  0.029100  0.013200  1
  H  H990  1  0.204500  0.970900  0.013200  1
  H  H991  1  0.529100  0.704500  0.513200  1
  H  H992  1  0.470900  0.295500  0.513200  1
  H  H993  1  0.723500  0.593200  0.485300  1
  H  H994  1  0.276500  0.406800  0.485300  1
  H  H995  1  0.906800  0.223500  0.985300  1
  H  H996  1  0.093200  0.776500  0.985300  1
  H  H997  1  0.776500  0.093200  0.014700  1
  H  H998  1  0.223500  0.906800  0.014700  1
  H  H999  1  0.593200  0.723500  0.514700  1
  H  H1000  1  0.406800  0.276500  0.514700  1
  H  H1001  1  0.716700  0.597400  0.520700  1
  H  H1002  1  0.283300  0.402600  0.520700  1
  H  H1003  1  0.902600  0.216700  0.020700  1
  H  H1004  1  0.097400  0.783300  0.020700  1
  H  H1005  1  0.783300  0.097400  0.979300  1
  H  H1006  1  0.216700  0.902600  0.979300  1
  H  H1007  1  0.597400  0.716700  0.479300  1
  H  H1008  1  0.402600  0.283300  0.479300  1
  H  H1009  1  0.662700  0.624400  0.498600  1
  H  H1010  1  0.337300  0.375600  0.498600  1
  H  H1011  1  0.875600  0.162700  0.998600  1
  H  H1012  1  0.124400  0.837300  0.998600  1
  H  H1013  1  0.837300  0.124400  0.001400  1
  H  H1014  1  0.162700  0.875600  0.001400  1
  H  H1015  1  0.624400  0.662700  0.501400  1
  H  H1016  1  0.375600  0.337300  0.501400  1
  H  H1017  1  0.658200  0.589500  0.475500  1
  H  H1018  1  0.341800  0.410500  0.475500  1
  H  H1019  1  0.910500  0.158200  0.975500  1
  H  H1020  1  0.089500  0.841800  0.975500  1
  H  H1021  1  0.841800  0.089500  0.024500  1
  H  H1022  1  0.158200  0.910500  0.024500  1
  H  H1023  1  0.589500  0.658200  0.524500  1
  H  H1024  1  0.410500  0.341800  0.524500  1
  H  H1025  1  0.633800  0.592800  0.536200  1
  H  H1026  1  0.366200  0.407200  0.536200  1
  H  H1027  1  0.907200  0.133800  0.036200  1
  H  H1028  1  0.092800  0.866200  0.036200  1
  H  H1029  1  0.866200  0.092800  0.963800  1
  H  H1030  1  0.133800  0.907200  0.963800  1
  H  H1031  1  0.592800  0.633800  0.463800  1
  H  H1032  1  0.407200  0.366200  0.463800  1
  H  H1033  1  0.610400  0.577000  0.508000  1
  H  H1034  1  0.389600  0.423000  0.508000  1
  H  H1035  1  0.923000  0.110400  0.008000  1
  H  H1036  1  0.077000  0.889600  0.008000  1
  H  H1037  1  0.889600  0.077000  0.992000  1
  H  H1038  1  0.110400  0.923000  0.992000  1
  H  H1039  1  0.577000  0.610400  0.492000  1
  H  H1040  1  0.423000  0.389600  0.492000  1
  H  H1041  1  0.636600  0.520400  0.509500  1
  H  H1042  1  0.363400  0.479600  0.509500  1
  H  H1043  1  0.979600  0.136600  0.009500  1
  H  H1044  1  0.020400  0.863400  0.009500  1
  H  H1045  1  0.863400  0.020400  0.990500  1
  H  H1046  1  0.136600  0.979600  0.990500  1
  H  H1047  1  0.520400  0.636600  0.490500  1
  H  H1048  1  0.479600  0.363400  0.490500  1
  H  H1049  1  0.608900  0.510300  0.976100  1
  H  H1050  1  0.391100  0.489700  0.976100  1
  H  H1051  1  0.989700  0.108900  0.476100  1
  H  H1052  1  0.010300  0.891100  0.476100  1
  H  H1053  1  0.891100  0.010300  0.523900  1
  H  H1054  1  0.108900  0.989700  0.523900  1
  H  H1055  1  0.510300  0.608900  0.023900  1
  H  H1056  1  0.489700  0.391100  0.023900  1
  H  H1057  1  0.589500  0.446900  0.961400  1
  H  H1058  1  0.410500  0.553100  0.961400  1
  H  H1059  1  0.053100  0.089500  0.461400  1
  H  H1060  1  0.946900  0.910500  0.461400  1
  H  H1061  1  0.910500  0.946900  0.538600  1
  H  H1062  1  0.089500  0.053100  0.538600  1
  H  H1063  1  0.446900  0.589500  0.038600  1
  H  H1064  1  0.553100  0.410500  0.038600  1
  H  H1065  1  0.627600  0.441700  0.941700  1
  H  H1066  1  0.372400  0.558300  0.941700  1
  H  H1067  1  0.058300  0.127600  0.441700  1
  H  H1068  1  0.941700  0.872400  0.441700  1
  H  H1069  1  0.872400  0.941700  0.558300  1
  H  H1070  1  0.127600  0.058300  0.558300  1
  H  H1071  1  0.441700  0.627600  0.058300  1
  H  H1072  1  0.558300  0.372400  0.058300  1
  H  H1073  1  0.625300  0.444700  0.006500  1
  H  H1074  1  0.374700  0.555300  0.006500  1
  H  H1075  1  0.055300  0.125300  0.506500  1
  H  H1076  1  0.944700  0.874700  0.506500  1
  H  H1077  1  0.874700  0.944700  0.493500  1
  H  H1078  1  0.125300  0.055300  0.493500  1
  H  H1079  1  0.444700  0.625300  0.993500  1
  H  H1080  1  0.555300  0.374700  0.993500  1
  H  H1081  1  0.635900  0.407500  0.987000  1
  H  H1082  1  0.364100  0.592500  0.987000  1
  H  H1083  1  0.092500  0.135900  0.487000  1
  H  H1084  1  0.907500  0.864100  0.487000  1
  H  H1085  1  0.864100  0.907500  0.513000  1
  H  H1086  1  0.135900  0.092500  0.513000  1
  H  H1087  1  0.407500  0.635900  0.013000  1
  H  H1088  1  0.592500  0.364100  0.013000  1
  H  H1089  1  0.688300  0.432600  0.972100  1
  H  H1090  1  0.311700  0.567400  0.972100  1
  H  H1091  1  0.067400  0.188300  0.472100  1
  H  H1092  1  0.932600  0.811700  0.472100  1
  H  H1093  1  0.811700  0.932600  0.527900  1
  H  H1094  1  0.188300  0.067400  0.527900  1
  H  H1095  1  0.432600  0.688300  0.027900  1
  H  H1096  1  0.567400  0.311700  0.027900  1
  H  H1097  1  0.685900  0.436900  0.007900  1
  H  H1098  1  0.314100  0.563100  0.007900  1
  H  H1099  1  0.063100  0.185900  0.507900  1
  H  H1100  1  0.936900  0.814100  0.507900  1
  H  H1101  1  0.814100  0.936900  0.492100  1
  H  H1102  1  0.185900  0.063100  0.492100  1
  H  H1103  1  0.436900  0.685900  0.992100  1
  H  H1104  1  0.563100  0.314100  0.992100  1
  H  H1105  1  0.706500  0.495700  0.985600  1
  H  H1106  1  0.293500  0.504300  0.985600  1
  H  H1107  1  0.004300  0.206500  0.485600  1
  H  H1108  1  0.995700  0.793500  0.485600  1
  H  H1109  1  0.793500  0.995700  0.514400  1
  H  H1110  1  0.206500  0.004300  0.514400  1
  H  H1111  1  0.495700  0.706500  0.014400  1
  H  H1112  1  0.504300  0.293500  0.014400  1
  H  H1113  1  0.667500  0.501500  0.003800  1
  H  H1114  1  0.332500  0.498500  0.003800  1
  H  H1115  1  0.998500  0.167500  0.503800  1
  H  H1116  1  0.001500  0.832500  0.503800  1
  H  H1117  1  0.832500  0.001500  0.496200  1
  H  H1118  1  0.167500  0.998500  0.496200  1
  H  H1119  1  0.501500  0.667500  0.996200  1
  H  H1120  1  0.498500  0.332500  0.996200  1
  H  H1121  1  0.672000  0.496900  0.940000  1
  H  H1122  1  0.328000  0.503100  0.940000  1
  H  H1123  1  0.003100  0.172000  0.440000  1
  H  H1124  1  0.996900  0.828000  0.440000  1
  H  H1125  1  0.828000  0.996900  0.560000  1
  H  H1126  1  0.172000  0.003100  0.560000  1
  H  H1127  1  0.496900  0.672000  0.060000  1
  H  H1128  1  0.503100  0.328000  0.060000  1
  H  H1129  1  0.842800  0.415900  0.960700  1
  H  H1130  1  0.157200  0.584100  0.960700  1
  H  H1131  1  0.084100  0.342800  0.460700  1
  H  H1132  1  0.915900  0.657200  0.460700  1
  H  H1133  1  0.657200  0.915900  0.539300  1
  H  H1134  1  0.342800  0.084100  0.539300  1
  H  H1135  1  0.415900  0.842800  0.039300  1
  H  H1136  1  0.584100  0.157200  0.039300  1
  H  H1137  1  0.763400  0.446100  0.965800  1
  H  H1138  1  0.236600  0.553900  0.965800  1
  H  H1139  1  0.053900  0.263400  0.465800  1
  H  H1140  1  0.946100  0.736600  0.465800  1
  H  H1141  1  0.736600  0.946100  0.534200  1
  H  H1142  1  0.263400  0.053900  0.534200  1
  H  H1143  1  0.446100  0.763400  0.034200  1
  H  H1144  1  0.553900  0.236600  0.034200  1
  H  H1145  1  0.797000  0.463900  0.986500  1
  H  H1146  1  0.203000  0.536100  0.986500  1
  H  H1147  1  0.036100  0.297000  0.486500  1
  H  H1148  1  0.963900  0.703000  0.486500  1
  H  H1149  1  0.703000  0.963900  0.513500  1
  H  H1150  1  0.297000  0.036100  0.513500  1
  H  H1151  1  0.463900  0.797000  0.013500  1
  H  H1152  1  0.536100  0.203000  0.013500  1
  H  H1153  1  0.809500  0.391200  0.002900  1
  H  H1154  1  0.190500  0.608800  0.002900  1
  H  H1155  1  0.108800  0.309500  0.502900  1
  H  H1156  1  0.891200  0.690500  0.502900  1
  H  H1157  1  0.690500  0.891200  0.497100  1
  H  H1158  1  0.309500  0.108800  0.497100  1
  H  H1159  1  0.391200  0.809500  0.997100  1
  H  H1160  1  0.608800  0.190500  0.997100  1
  H  H1161  1  0.771500  0.410400  0.017900  1
  H  H1162  1  0.228500  0.589600  0.017900  1
  H  H1163  1  0.089600  0.271500  0.517900  1
  H  H1164  1  0.910400  0.728500  0.517900  1
  H  H1165  1  0.728500  0.910400  0.482100  1
  H  H1166  1  0.271500  0.089600  0.482100  1
  H  H1167  1  0.410400  0.771500  0.982100  1
  H  H1168  1  0.589600  0.228500  0.982100  1
  H  H1169  1  0.746200  0.356200  0.985700  1
  H  H1170  1  0.253800  0.643800  0.985700  1
  H  H1171  1  0.143800  0.246200  0.485700  1
  H  H1172  1  0.856200  0.753800  0.485700  1
  H  H1173  1  0.753800  0.856200  0.514300  1
  H  H1174  1  0.246200  0.143800  0.514300  1
  H  H1175  1  0.356200  0.746200  0.014300  1
  H  H1176  1  0.643800  0.253800  0.014300  1
  H  H1177  1  0.736200  0.395100  0.967500  1
  H  H1178  1  0.263800  0.604900  0.967500  1
  H  H1179  1  0.104900  0.236200  0.467500  1
  H  H1180  1  0.895100  0.763800  0.467500  1
  H  H1181  1  0.763800  0.895100  0.532500  1
  H  H1182  1  0.236200  0.104900  0.532500  1
  H  H1183  1  0.395100  0.736200  0.032500  1
  H  H1184  1  0.604900  0.263800  0.032500  1
  H  H1185  1  0.773800  0.346600  0.941000  1
  H  H1186  1  0.226200  0.653400  0.941000  1
  H  H1187  1  0.153400  0.273800  0.441000  1
  H  H1188  1  0.846600  0.726200  0.441000  1
  H  H1189  1  0.726200  0.846600  0.559000  1
  H  H1190  1  0.273800  0.153400  0.559000  1
  H  H1191  1  0.346600  0.773800  0.059000  1
  H  H1192  1  0.653400  0.226200  0.059000  1
  H  H1193  1  0.808300  0.359100  0.962400  1
  H  H1194  1  0.191700  0.640900  0.962400  1
  H  H1195  1  0.140900  0.308300  0.462400  1
  H  H1196  1  0.859100  0.691700  0.462400  1
  H  H1197  1  0.691700  0.859100  0.537600  1
  H  H1198  1  0.308300  0.140900  0.537600  1
  H  H1199  1  0.359100  0.808300  0.037600  1
  H  H1200  1  0.640900  0.191700  0.037600  1
  H  H1201  1  0.773600  0.416400  0.920300  1
  H  H1202  1  0.226400  0.583600  0.920300  1
  H  H1203  1  0.083600  0.273600  0.420300  1
  H  H1204  1  0.916400  0.726400  0.420300  1
  H  H1205  1  0.726400  0.916400  0.579700  1
  H  H1206  1  0.273600  0.083600  0.579700  1
  H  H1207  1  0.416400  0.773600  0.079700  1
  H  H1208  1  0.583600  0.226400  0.079700  1
  H  H1209  1  0.630900  0.274700  0.899700  1
  H  H1210  1  0.369100  0.725300  0.899700  1
  H  H1211  1  0.225300  0.130900  0.399700  1
  H  H1212  1  0.774700  0.869100  0.399700  1
  H  H1213  1  0.869100  0.774700  0.600300  1
  H  H1214  1  0.130900  0.225300  0.600300  1
  H  H1215  1  0.274700  0.630900  0.100300  1
  H  H1216  1  0.725300  0.369100  0.100300  1
  H  H1217  1  0.700500  0.279100  0.916200  1
  H  H1218  1  0.299500  0.720900  0.916200  1
  H  H1219  1  0.220900  0.200500  0.416200  1
  H  H1220  1  0.779100  0.799500  0.416200  1
  H  H1221  1  0.799500  0.779100  0.583800  1
  H  H1222  1  0.200500  0.220900  0.583800  1
  H  H1223  1  0.279100  0.700500  0.083800  1
  H  H1224  1  0.720900  0.299500  0.083800  1
  H  H1225  1  0.693900  0.324500  0.919700  1
  H  H1226  1  0.306100  0.675500  0.919700  1
  H  H1227  1  0.175500  0.193900  0.419700  1
  H  H1228  1  0.824500  0.806100  0.419700  1
  H  H1229  1  0.806100  0.824500  0.580300  1
  H  H1230  1  0.193900  0.175500  0.580300  1
  H  H1231  1  0.324500  0.693900  0.080300  1
  H  H1232  1  0.675500  0.306100  0.080300  1
  H  H1233  1  0.684700  0.286000  0.966000  1
  H  H1234  1  0.315300  0.714000  0.966000  1
  H  H1235  1  0.214000  0.184700  0.466000  1
  H  H1236  1  0.786000  0.815300  0.466000  1
  H  H1237  1  0.815300  0.786000  0.534000  1
  H  H1238  1  0.184700  0.214000  0.534000  1
  H  H1239  1  0.286000  0.684700  0.034000  1
  H  H1240  1  0.714000  0.315300  0.034000  1
  H  H1241  1  0.644100  0.273400  0.951100  1
  H  H1242  1  0.355900  0.726600  0.951100  1
  H  H1243  1  0.226600  0.144100  0.451100  1
  H  H1244  1  0.773400  0.855900  0.451100  1
  H  H1245  1  0.855900  0.773400  0.548900  1
  H  H1246  1  0.144100  0.226600  0.548900  1
  H  H1247  1  0.273400  0.644100  0.048900  1
  H  H1248  1  0.726600  0.355900  0.048900  1
  H  H1249  1  0.642800  0.338500  0.977900  1
  H  H1250  1  0.357200  0.661500  0.977900  1
  H  H1251  1  0.161500  0.142800  0.477900  1
  H  H1252  1  0.838500  0.857200  0.477900  1
  H  H1253  1  0.857200  0.838500  0.522100  1
  H  H1254  1  0.142800  0.161500  0.522100  1
  H  H1255  1  0.338500  0.642800  0.022100  1
  H  H1256  1  0.661500  0.357200  0.022100  1
  H  H1257  1  0.667200  0.353900  0.949400  1
  H  H1258  1  0.332800  0.646100  0.949400  1
  H  H1259  1  0.146100  0.167200  0.449400  1
  H  H1260  1  0.853900  0.832800  0.449400  1
  H  H1261  1  0.832800  0.853900  0.550600  1
  H  H1262  1  0.167200  0.146100  0.550600  1
  H  H1263  1  0.353900  0.667200  0.050600  1
  H  H1264  1  0.646100  0.332800  0.050600  1
  H  H1265  1  0.595400  0.355000  0.942600  1
  H  H1266  1  0.404600  0.645000  0.942600  1
  H  H1267  1  0.145000  0.095400  0.442600  1
  H  H1268  1  0.855000  0.904600  0.442600  1
  H  H1269  1  0.904600  0.855000  0.557400  1
  H  H1270  1  0.095400  0.145000  0.557400  1
  H  H1271  1  0.355000  0.595400  0.057400  1
  H  H1272  1  0.645000  0.404600  0.057400  1
  H  H1273  1  0.598400  0.309000  0.940000  1
  H  H1274  1  0.401600  0.691000  0.940000  1
  H  H1275  1  0.191000  0.098400  0.440000  1
  H  H1276  1  0.809000  0.901600  0.440000  1
  H  H1277  1  0.901600  0.809000  0.560000  1
  H  H1278  1  0.098400  0.191000  0.560000  1
  H  H1279  1  0.309000  0.598400  0.060000  1
  H  H1280  1  0.691000  0.401600  0.060000  1
  H  H1281  1  0.645400  0.359400  0.900700  1
  H  H1282  1  0.354600  0.640600  0.900700  1
  H  H1283  1  0.140600  0.145400  0.400700  1
  H  H1284  1  0.859400  0.854600  0.400700  1
  H  H1285  1  0.854600  0.859400  0.599300  1
  H  H1286  1  0.145400  0.140600  0.599300  1
  H  H1287  1  0.359400  0.645400  0.099300  1
  H  H1288  1  0.640600  0.354600  0.099300  1
  H  H1289  1  0.624600  0.684300  0.616800  1
  H  H1290  1  0.375400  0.315700  0.616800  1
  H  H1291  1  0.815700  0.124600  0.116800  1
  H  H1292  1  0.184300  0.875400  0.116800  1
  H  H1293  1  0.875400  0.184300  0.883200  1
  H  H1294  1  0.124600  0.815700  0.883200  1
  H  H1295  1  0.684300  0.624600  0.383200  1
  H  H1296  1  0.315700  0.375400  0.383200  1
  H  H1297  1  0.605600  0.721500  0.608700  1
  H  H1298  1  0.394400  0.278500  0.608700  1
  H  H1299  1  0.778500  0.105600  0.108700  1
  H  H1300  1  0.221500  0.894400  0.108700  1
  H  H1301  1  0.894400  0.221500  0.891300  1
  H  H1302  1  0.105600  0.778500  0.891300  1
  H  H1303  1  0.721500  0.605600  0.391300  1
  H  H1304  1  0.278500  0.394400  0.391300  1
  H  H1305  1  0.688200  0.783400  0.642900  1
  H  H1306  1  0.311800  0.216600  0.642900  1
  H  H1307  1  0.716600  0.188200  0.142900  1
  H  H1308  1  0.283400  0.811800  0.142900  1
  H  H1309  1  0.811800  0.283400  0.857100  1
  H  H1310  1  0.188200  0.716600  0.857100  1
  H  H1311  1  0.783400  0.688200  0.357100  1
  H  H1312  1  0.216600  0.311800  0.357100  1
  H  H1313  1  0.709200  0.745900  0.642300  1
  H  H1314  1  0.290800  0.254100  0.642300  1
  H  H1315  1  0.754100  0.209200  0.142300  1
  H  H1316  1  0.245900  0.790800  0.142300  1
  H  H1317  1  0.790800  0.245900  0.857700  1
  H  H1318  1  0.209200  0.754100  0.857700  1
  H  H1319  1  0.745900  0.709200  0.357700  1
  H  H1320  1  0.254100  0.290800  0.357700  1
  H  H1321  1  0.823800  0.667800  0.612900  1
  H  H1322  1  0.176200  0.332200  0.612900  1
  H  H1323  1  0.832200  0.323800  0.112900  1
  H  H1324  1  0.167800  0.676200  0.112900  1
  H  H1325  1  0.676200  0.167800  0.887100  1
  H  H1326  1  0.323800  0.832200  0.887100  1
  H  H1327  1  0.667800  0.823800  0.387100  1
  H  H1328  1  0.332200  0.176200  0.387100  1
  H  H1329  1  0.859900  0.669300  0.594900  1
  H  H1330  1  0.140100  0.330700  0.594900  1
  H  H1331  1  0.830700  0.359900  0.094900  1
  H  H1332  1  0.169300  0.640100  0.094900  1
  H  H1333  1  0.640100  0.169300  0.905100  1
  H  H1334  1  0.359900  0.830700  0.905100  1
  H  H1335  1  0.669300  0.859900  0.405100  1
  H  H1336  1  0.330700  0.140100  0.405100  1
  H  H1337  1  0.851900  0.560400  0.572400  1
  H  H1338  1  0.148100  0.439600  0.572400  1
  H  H1339  1  0.939600  0.351900  0.072400  1
  H  H1340  1  0.060400  0.648100  0.072400  1
  H  H1341  1  0.648100  0.060400  0.927600  1
  H  H1342  1  0.351900  0.939600  0.927600  1
  H  H1343  1  0.560400  0.851900  0.427600  1
  H  H1344  1  0.439600  0.148100  0.427600  1
  H  H1345  1  0.811800  0.570100  0.581900  1
  H  H1346  1  0.188200  0.429900  0.581900  1
  H  H1347  1  0.929900  0.311800  0.081900  1
  H  H1348  1  0.070100  0.688200  0.081900  1
  H  H1349  1  0.688200  0.070100  0.918100  1
  H  H1350  1  0.311800  0.929900  0.918100  1
  H  H1351  1  0.570100  0.811800  0.418100  1
  H  H1352  1  0.429900  0.188200  0.418100  1
  H  H1353  1  0.711600  0.472800  0.543700  1
  H  H1354  1  0.288400  0.527200  0.543700  1
  H  H1355  1  0.027200  0.211600  0.043700  1
  H  H1356  1  0.972800  0.788400  0.043700  1
  H  H1357  1  0.788400  0.972800  0.956300  1
  H  H1358  1  0.211600  0.027200  0.956300  1
  H  H1359  1  0.472800  0.711600  0.456300  1
  H  H1360  1  0.527200  0.288400  0.456300  1
  H  H1361  1  0.686100  0.469000  0.516800  1
  H  H1362  1  0.313900  0.531000  0.516800  1
  H  H1363  1  0.031000  0.186100  0.016800  1
  H  H1364  1  0.969000  0.813900  0.016800  1
  H  H1365  1  0.813900  0.969000  0.983200  1
  H  H1366  1  0.186100  0.031000  0.983200  1
  H  H1367  1  0.469000  0.686100  0.483200  1
  H  H1368  1  0.531000  0.313900  0.483200  1
  H  H1369  1  0.595200  0.518600  0.545400  1
  H  H1370  1  0.404800  0.481400  0.545400  1
  H  H1371  1  0.981400  0.095200  0.045400  1
  H  H1372  1  0.018600  0.904800  0.045400  1
  H  H1373  1  0.904800  0.018600  0.954600  1
  H  H1374  1  0.095200  0.981400  0.954600  1
  H  H1375  1  0.518600  0.595200  0.454600  1
  H  H1376  1  0.481400  0.404800  0.454600  1
  H  H1377  1  0.620700  0.537300  0.568100  1
  H  H1378  1  0.379300  0.462700  0.568100  1
  H  H1379  1  0.962700  0.120700  0.068100  1
  H  H1380  1  0.037300  0.879300  0.068100  1
  H  H1381  1  0.879300  0.037300  0.931900  1
  H  H1382  1  0.120700  0.962700  0.931900  1
  H  H1383  1  0.537300  0.620700  0.431900  1
  H  H1384  1  0.462700  0.379300  0.431900  1
  H  H1385  1  0.576900  0.518400  0.933300  1
  H  H1386  1  0.423100  0.481600  0.933300  1
  H  H1387  1  0.981600  0.076900  0.433300  1
  H  H1388  1  0.018400  0.923100  0.433300  1
  H  H1389  1  0.923100  0.018400  0.566700  1
  H  H1390  1  0.076900  0.981600  0.566700  1
  H  H1391  1  0.518400  0.576900  0.066700  1
  H  H1392  1  0.481600  0.423100  0.066700  1
  H  H1393  1  0.606900  0.499900  0.914000  1
  H  H1394  1  0.393100  0.500100  0.914000  1
  H  H1395  1  0.000100  0.106900  0.414000  1
  H  H1396  1  0.999900  0.893100  0.414000  1
  H  H1397  1  0.893100  0.999900  0.586000  1
  H  H1398  1  0.106900  0.000100  0.586000  1
  H  H1399  1  0.499900  0.606900  0.086000  1
  H  H1400  1  0.500100  0.393100  0.086000  1
  H  H1401  1  0.692200  0.553400  0.944900  1
  H  H1402  1  0.307800  0.446600  0.944900  1
  H  H1403  1  0.946600  0.192200  0.444900  1
  H  H1404  1  0.053400  0.807800  0.444900  1
  H  H1405  1  0.807800  0.053400  0.555100  1
  H  H1406  1  0.192200  0.946600  0.555100  1
  H  H1407  1  0.553400  0.692200  0.055100  1
  H  H1408  1  0.446600  0.307800  0.055100  1
  H  H1409  1  0.666300  0.563500  0.970500  1
  H  H1410  1  0.333700  0.436500  0.970500  1
  H  H1411  1  0.936500  0.166300  0.470500  1
  H  H1412  1  0.063500  0.833700  0.470500  1
  H  H1413  1  0.833700  0.063500  0.529500  1
  H  H1414  1  0.166300  0.936500  0.529500  1
  H  H1415  1  0.563500  0.666300  0.029500  1
  H  H1416  1  0.436500  0.333700  0.029500  1
  H  H1417  1  0.840100  0.478500  0.943700  1
  H  H1418  1  0.159900  0.521500  0.943700  1
  H  H1419  1  0.021500  0.340100  0.443700  1
  H  H1420  1  0.978500  0.659900  0.443700  1
  H  H1421  1  0.659900  0.978500  0.556300  1
  H  H1422  1  0.340100  0.021500  0.556300  1
  H  H1423  1  0.478500  0.840100  0.056300  1
  H  H1424  1  0.521500  0.159900  0.056300  1
  H  H1425  1  0.800500  0.473700  0.931500  1
  H  H1426  1  0.199500  0.526300  0.931500  1
  H  H1427  1  0.026300  0.300500  0.431500  1
  H  H1428  1  0.973700  0.699500  0.431500  1
  H  H1429  1  0.699500  0.973700  0.568500  1
  H  H1430  1  0.300500  0.026300  0.568500  1
  H  H1431  1  0.473700  0.800500  0.068500  1
  H  H1432  1  0.526300  0.199500  0.068500  1
  H  H1433  1  0.812400  0.382300  0.890200  1
  H  H1434  1  0.187600  0.617700  0.890200  1
  H  H1435  1  0.117700  0.312400  0.390200  1
  H  H1436  1  0.882300  0.687600  0.390200  1
  H  H1437  1  0.687600  0.882300  0.609800  1
  H  H1438  1  0.312400  0.117700  0.609800  1
  H  H1439  1  0.382300  0.812400  0.109800  1
  H  H1440  1  0.617700  0.187600  0.109800  1
  H  H1441  1  0.842800  0.378900  0.913800  1
  H  H1442  1  0.157200  0.621100  0.913800  1
  H  H1443  1  0.121100  0.342800  0.413800  1
  H  H1444  1  0.878900  0.657200  0.413800  1
  H  H1445  1  0.657200  0.878900  0.586200  1
  H  H1446  1  0.342800  0.121100  0.586200  1
  H  H1447  1  0.378900  0.842800  0.086200  1
  H  H1448  1  0.621100  0.157200  0.086200  1
  H  H1449  1  0.669000  0.279300  0.856700  1
  H  H1450  1  0.331000  0.720700  0.856700  1
  H  H1451  1  0.220700  0.169000  0.356700  1
  H  H1452  1  0.779300  0.831000  0.356700  1
  H  H1453  1  0.831000  0.779300  0.643300  1
  H  H1454  1  0.169000  0.220700  0.643300  1
  H  H1455  1  0.279300  0.669000  0.143300  1
  H  H1456  1  0.720700  0.331000  0.143300  1
  H  H1457  1  0.681800  0.319200  0.863700  1
  H  H1458  1  0.318200  0.680800  0.863700  1
  H  H1459  1  0.180800  0.181800  0.363700  1
  H  H1460  1  0.819200  0.818200  0.363700  1
  H  H1461  1  0.818200  0.819200  0.636300  1
  H  H1462  1  0.181800  0.180800  0.636300  1
  H  H1463  1  0.319200  0.681800  0.136300  1
  H  H1464  1  0.680800  0.318200  0.136300  1
  H  H1465  1  0.587000  0.365600  0.879600  1
  H  H1466  1  0.413000  0.634400  0.879600  1
  H  H1467  1  0.134400  0.087000  0.379600  1
  H  H1468  1  0.865600  0.913000  0.379600  1
  H  H1469  1  0.913000  0.865600  0.620400  1
  H  H1470  1  0.087000  0.134400  0.620400  1
  H  H1471  1  0.365600  0.587000  0.120400  1
  H  H1472  1  0.634400  0.413000  0.120400  1
  H  H1473  1  0.575200  0.325200  0.886400  1
  H  H1474  1  0.424800  0.674800  0.886400  1
  H  H1475  1  0.174800  0.075200  0.386400  1
  H  H1476  1  0.825200  0.924800  0.386400  1
  H  H1477  1  0.924800  0.825200  0.613600  1
  H  H1478  1  0.075200  0.174800  0.613600  1
  H  H1479  1  0.325200  0.575200  0.113600  1
  H  H1480  1  0.674800  0.424800  0.113600  1
  Pd  Pd1481  1  0.617950  0.323190  0.840700  1
  Pd  Pd1482  1  0.382050  0.676810  0.840700  1
  Pd  Pd1483  1  0.176810  0.117950  0.340700  1
  Pd  Pd1484  1  0.823190  0.882050  0.340700  1
  Pd  Pd1485  1  0.882050  0.823190  0.659300  1
  Pd  Pd1486  1  0.117950  0.176810  0.659300  1
  Pd  Pd1487  1  0.323190  0.617950  0.159300  1
  Pd  Pd1488  1  0.676810  0.382050  0.159300  1
  Pd  Pd1489  1  0.641690  0.732480  0.657550  1
  Pd  Pd1490  1  0.358310  0.267520  0.657550  1
  Pd  Pd1491  1  0.767520  0.141690  0.157550  1
  Pd  Pd1492  1  0.232480  0.858310  0.157550  1
  Pd  Pd1493  1  0.858310  0.232480  0.842450  1
  Pd  Pd1494  1  0.141690  0.767520  0.842450  1
  Pd  Pd1495  1  0.732480  0.641690  0.342450  1
  Pd  Pd1496  1  0.267520  0.358310  0.342450  1
  Pd  Pd1497  1  0.847040  0.444240  0.892350  1
  Pd  Pd1498  1  0.152960  0.555760  0.892350  1
  Pd  Pd1499  1  0.055760  0.347040  0.392350  1
  Pd  Pd1500  1  0.944240  0.652960  0.392350  1
  Pd  Pd1501  1  0.652960  0.944240  0.607650  1
  Pd  Pd1502  1  0.347040  0.055760  0.607650  1
  Pd  Pd1503  1  0.444240  0.847040  0.107650  1
  Pd  Pd1504  1  0.555760  0.152960  0.107650  1
  Pd  Pd1505  1  0.627820  0.567320  0.923700  1
  Pd  Pd1506  1  0.372180  0.432680  0.923700  1
  Pd  Pd1507  1  0.932680  0.127820  0.423700  1
  Pd  Pd1508  1  0.067320  0.872180  0.423700  1
  Pd  Pd1509  1  0.872180  0.067320  0.576300  1
  Pd  Pd1510  1  0.127820  0.932680  0.576300  1
  Pd  Pd1511  1  0.567320  0.627820  0.076300  1
  Pd  Pd1512  1  0.432680  0.372180  0.076300  1
  Pd  Pd1513  1  0.857560  0.603130  0.619750  1
  Pd  Pd1514  1  0.142440  0.396870  0.619750  1
  Pd  Pd1515  1  0.896870  0.357560  0.119750  1
  Pd  Pd1516  1  0.103130  0.642440  0.119750  1
  Pd  Pd1517  1  0.642440  0.103130  0.880250  1
  Pd  Pd1518  1  0.357560  0.896870  0.880250  1
  Pd  Pd1519  1  0.603130  0.857560  0.380250  1
  Pd  Pd1520  1  0.396870  0.142440  0.380250  1
  Pd  Pd1521  1  0.641550  0.468670  0.563610  1
  Pd  Pd1522  1  0.358450  0.531330  0.563610  1
  Pd  Pd1523  1  0.031330  0.141550  0.063610  1
  Pd  Pd1524  1  0.968670  0.858450  0.063610  1
  Pd  Pd1525  1  0.858450  0.968670  0.936390  1
  Pd  Pd1526  1  0.141550  0.031330  0.936390  1
  Pd  Pd1527  1  0.468670  0.641550  0.436390  1
  Pd  Pd1528  1  0.531330  0.358450  0.436390  1
  C  C1529  1  0.732300  0.514000  0.868500  1
  C  C1530  1  0.267700  0.486000  0.868500  1
  C  C1531  1  0.986000  0.232300  0.368500  1
  C  C1532  1  0.014000  0.767700  0.368500  1
  C  C1533  1  0.767700  0.014000  0.631500  1
  C  C1534  1  0.232300  0.986000  0.631500  1
  C  C1535  1  0.514000  0.732300  0.131500  1
  C  C1536  1  0.486000  0.267700  0.131500  1
  C  C1537  1  0.736800  0.502000  0.835500  1
  C  C1538  1  0.263200  0.498000  0.835500  1
  C  C1539  1  0.998000  0.236800  0.335500  1
  C  C1540  1  0.002000  0.763200  0.335500  1
  C  C1541  1  0.763200  0.002000  0.664500  1
  C  C1542  1  0.236800  0.998000  0.664500  1
  C  C1543  1  0.502000  0.736800  0.164500  1
  C  C1544  1  0.498000  0.263200  0.164500  1
  C  C1545  1  0.667800  0.573600  0.770200  1
  C  C1546  1  0.332200  0.426400  0.770200  1
  C  C1547  1  0.926400  0.167800  0.270200  1
  C  C1548  1  0.073600  0.832200  0.270200  1
  C  C1549  1  0.832200  0.073600  0.729800  1
  C  C1550  1  0.167800  0.926400  0.729800  1
  C  C1551  1  0.573600  0.667800  0.229800  1
  C  C1552  1  0.426400  0.332200  0.229800  1
  C  C1553  1  0.676100  0.599800  0.799100  1
  C  C1554  1  0.323900  0.400200  0.799100  1
  C  C1555  1  0.900200  0.176100  0.299100  1
  C  C1556  1  0.099800  0.823900  0.299100  1
  C  C1557  1  0.823900  0.099800  0.700900  1
  C  C1558  1  0.176100  0.900200  0.700900  1
  C  C1559  1  0.599800  0.676100  0.200900  1
  C  C1560  1  0.400200  0.323900  0.200900  1
  C  C1561  1  0.697700  0.580000  0.745300  1
  C  C1562  1  0.302300  0.420000  0.745300  1
  C  C1563  1  0.920000  0.197700  0.245300  1
  C  C1564  1  0.080000  0.802300  0.245300  1
  C  C1565  1  0.802300  0.080000  0.754700  1
  C  C1566  1  0.197700  0.920000  0.754700  1
  C  C1567  1  0.580000  0.697700  0.254700  1
  C  C1568  1  0.420000  0.302300  0.254700  1
  C  C1569  1  0.759000  0.559300  0.726600  1
  C  C1570  1  0.241000  0.440700  0.726600  1
  C  C1571  1  0.940700  0.259000  0.226600  1
  C  C1572  1  0.059300  0.741000  0.226600  1
  C  C1573  1  0.741000  0.059300  0.773400  1
  C  C1574  1  0.259000  0.940700  0.773400  1
  C  C1575  1  0.559300  0.759000  0.273400  1
  C  C1576  1  0.440700  0.241000  0.273400  1
  C  C1577  1  0.795500  0.539100  0.740300  1
  C  C1578  1  0.204500  0.460900  0.740300  1
  C  C1579  1  0.960900  0.295500  0.240300  1
  C  C1580  1  0.039100  0.704500  0.240300  1
  C  C1581  1  0.704500  0.039100  0.759700  1
  C  C1582  1  0.295500  0.960900  0.759700  1
  C  C1583  1  0.539100  0.795500  0.259700  1
  C  C1584  1  0.460900  0.204500  0.259700  1
  C  C1585  1  0.746300  0.543300  0.697400  1
  C  C1586  1  0.253700  0.456700  0.697400  1
  C  C1587  1  0.956700  0.246300  0.197400  1
  C  C1588  1  0.043300  0.753700  0.197400  1
  C  C1589  1  0.753700  0.043300  0.802600  1
  C  C1590  1  0.246300  0.956700  0.802600  1
  C  C1591  1  0.543300  0.746300  0.302600  1
  C  C1592  1  0.456700  0.253700  0.302600  1
  C  C1593  1  0.705200  0.496300  0.672500  1
  C  C1594  1  0.294800  0.503700  0.672500  1
  C  C1595  1  0.003700  0.205200  0.172500  1
  C  C1596  1  0.996300  0.794800  0.172500  1
  C  C1597  1  0.794800  0.996300  0.827500  1
  C  C1598  1  0.205200  0.003700  0.827500  1
  C  C1599  1  0.496300  0.705200  0.327500  1
  C  C1600  1  0.503700  0.294800  0.327500  1
  C  C1601  1  0.677800  0.463400  0.680300  1
  C  C1602  1  0.322200  0.536600  0.680300  1
  C  C1603  1  0.036600  0.177800  0.180300  1
  C  C1604  1  0.963400  0.822200  0.180300  1
  C  C1605  1  0.822200  0.963400  0.819700  1
  C  C1606  1  0.177800  0.036600  0.819700  1
  C  C1607  1  0.463400  0.677800  0.319700  1
  C  C1608  1  0.536600  0.322200  0.319700  1
  C  C1609  1  0.684400  0.526800  0.653400  1
  C  C1610  1  0.315600  0.473200  0.653400  1
  C  C1611  1  0.973200  0.184400  0.153400  1
  C  C1612  1  0.026800  0.815600  0.153400  1
  C  C1613  1  0.815600  0.026800  0.846600  1
  C  C1614  1  0.184400  0.973200  0.846600  1
  C  C1615  1  0.526800  0.684400  0.346600  1
  C  C1616  1  0.473200  0.315600  0.346600  1
  C  C1617  1  0.747900  0.447900  0.797300  1
  C  C1618  1  0.252100  0.552100  0.797300  1
  C  C1619  1  0.052100  0.247900  0.297300  1
  C  C1620  1  0.947900  0.752100  0.297300  1
  C  C1621  1  0.752100  0.947900  0.702700  1
  C  C1622  1  0.247900  0.052100  0.702700  1
  C  C1623  1  0.447900  0.747900  0.202700  1
  C  C1624  1  0.552100  0.252100  0.202700  1
  C  C1625  1  0.712400  0.459300  0.778800  1
  C  C1626  1  0.287600  0.540700  0.778800  1
  C  C1627  1  0.040700  0.212400  0.278800  1
  C  C1628  1  0.959300  0.787600  0.278800  1
  C  C1629  1  0.787600  0.959300  0.721200  1
  C  C1630  1  0.212400  0.040700  0.721200  1
  C  C1631  1  0.459300  0.712400  0.221200  1
  C  C1632  1  0.540700  0.287600  0.221200  1
  C  C1633  1  0.643100  0.466500  0.772900  1
  C  C1634  1  0.356900  0.533500  0.772900  1
  C  C1635  1  0.033500  0.143100  0.272900  1
  C  C1636  1  0.966500  0.856900  0.272900  1
  C  C1637  1  0.856900  0.966500  0.727100  1
  C  C1638  1  0.143100  0.033500  0.727100  1
  C  C1639  1  0.466500  0.643100  0.227100  1
  C  C1640  1  0.533500  0.356900  0.227100  1
  C  C1641  1  0.645100  0.509500  0.763000  1
  C  C1642  1  0.354900  0.490500  0.763000  1
  C  C1643  1  0.990500  0.145100  0.263000  1
  C  C1644  1  0.009500  0.854900  0.263000  1
  C  C1645  1  0.854900  0.009500  0.737000  1
  C  C1646  1  0.145100  0.990500  0.737000  1
  C  C1647  1  0.509500  0.645100  0.237000  1
  C  C1648  1  0.490500  0.354900  0.237000  1
  C  C1649  1  0.561700  0.522800  0.673100  1
  C  C1650  1  0.438300  0.477200  0.673100  1
  C  C1651  1  0.977200  0.061700  0.173100  1
  C  C1652  1  0.022800  0.938300  0.173100  1
  C  C1653  1  0.938300  0.022800  0.826900  1
  C  C1654  1  0.061700  0.977200  0.826900  1
  C  C1655  1  0.522800  0.561700  0.326900  1
  C  C1656  1  0.477200  0.438300  0.326900  1
  C  C1657  1  0.563800  0.549800  0.645600  1
  C  C1658  1  0.436200  0.450200  0.645600  1
  C  C1659  1  0.950200  0.063800  0.145600  1
  C  C1660  1  0.049800  0.936200  0.145600  1
  C  C1661  1  0.936200  0.049800  0.854400  1
  C  C1662  1  0.063800  0.950200  0.854400  1
  C  C1663  1  0.549800  0.563800  0.354400  1
  C  C1664  1  0.450200  0.436200  0.354400  1
  C  C1665  1  0.562300  0.585400  0.657000  1
  C  C1666  1  0.437700  0.414600  0.657000  1
  C  C1667  1  0.914600  0.062300  0.157000  1
  C  C1668  1  0.085400  0.937700  0.157000  1
  C  C1669  1  0.937700  0.085400  0.843000  1
  C  C1670  1  0.062300  0.914600  0.843000  1
  C  C1671  1  0.585400  0.562300  0.343000  1
  C  C1672  1  0.414600  0.437700  0.343000  1
  C  C1673  1  0.563700  0.582900  0.692600  1
  C  C1674  1  0.436300  0.417100  0.692600  1
  C  C1675  1  0.917100  0.063700  0.192600  1
  C  C1676  1  0.082900  0.936300  0.192600  1
  C  C1677  1  0.936300  0.082900  0.807400  1
  C  C1678  1  0.063700  0.917100  0.807400  1
  C  C1679  1  0.582900  0.563700  0.307400  1
  C  C1680  1  0.417100  0.436300  0.307400  1
  C  C1681  1  0.566400  0.612900  0.710500  1
  C  C1682  1  0.433600  0.387100  0.710500  1
  C  C1683  1  0.887100  0.066400  0.210500  1
  C  C1684  1  0.112900  0.933600  0.210500  1
  C  C1685  1  0.933600  0.112900  0.789500  1
  C  C1686  1  0.066400  0.887100  0.789500  1
  C  C1687  1  0.612900  0.566400  0.289500  1
  C  C1688  1  0.387100  0.433600  0.289500  1
  C  C1689  1  0.569700  0.612500  0.741000  1
  C  C1690  1  0.430300  0.387500  0.741000  1
  C  C1691  1  0.887500  0.069700  0.241000  1
  C  C1692  1  0.112500  0.930300  0.241000  1
  C  C1693  1  0.930300  0.112500  0.759000  1
  C  C1694  1  0.069700  0.887500  0.759000  1
  C  C1695  1  0.612500  0.569700  0.259000  1
  C  C1696  1  0.387500  0.430300  0.259000  1
  C  C1697  1  0.577800  0.641600  0.762700  1
  C  C1698  1  0.422200  0.358400  0.762700  1
  C  C1699  1  0.858400  0.077800  0.262700  1
  C  C1700  1  0.141600  0.922200  0.262700  1
  C  C1701  1  0.922200  0.141600  0.737300  1
  C  C1702  1  0.077800  0.858400  0.737300  1
  C  C1703  1  0.641600  0.577800  0.237300  1
  C  C1704  1  0.358400  0.422200  0.237300  1
  C  C1705  1  0.576500  0.627600  0.791800  1
  C  C1706  1  0.423500  0.372400  0.791800  1
  C  C1707  1  0.872400  0.076500  0.291800  1
  C  C1708  1  0.127600  0.923500  0.291800  1
  C  C1709  1  0.923500  0.127600  0.708200  1
  C  C1710  1  0.076500  0.872400  0.708200  1
  C  C1711  1  0.627600  0.576500  0.208200  1
  C  C1712  1  0.372400  0.423500  0.208200  1
  C  C1713  1  0.569500  0.586200  0.789100  1
  C  C1714  1  0.430500  0.413800  0.789100  1
  C  C1715  1  0.913800  0.069500  0.289100  1
  C  C1716  1  0.086200  0.930500  0.289100  1
  C  C1717  1  0.930500  0.086200  0.710900  1
  C  C1718  1  0.069500  0.913800  0.710900  1
  C  C1719  1  0.586200  0.569500  0.210900  1
  C  C1720  1  0.413800  0.430500  0.210900  1
  C  C1721  1  0.562000  0.559900  0.813100  1
  C  C1722  1  0.438000  0.440100  0.813100  1
  C  C1723  1  0.940100  0.062000  0.313100  1
  C  C1724  1  0.059900  0.938000  0.313100  1
  C  C1725  1  0.938000  0.059900  0.686900  1
  C  C1726  1  0.062000  0.940100  0.686900  1
  C  C1727  1  0.559900  0.562000  0.186900  1
  C  C1728  1  0.440100  0.438000  0.186900  1
  C  C1729  1  0.555200  0.522500  0.809500  1
  C  C1730  1  0.444800  0.477500  0.809500  1
  C  C1731  1  0.977500  0.055200  0.309500  1
  C  C1732  1  0.022500  0.944800  0.309500  1
  C  C1733  1  0.944800  0.022500  0.690500  1
  C  C1734  1  0.055200  0.977500  0.690500  1
  C  C1735  1  0.522500  0.555200  0.190500  1
  C  C1736  1  0.477500  0.444800  0.190500  1
  C  C1737  1  0.548300  0.495600  0.832800  1
  C  C1738  1  0.451700  0.504400  0.832800  1
  C  C1739  1  0.004400  0.048300  0.332800  1
  C  C1740  1  0.995600  0.951700  0.332800  1
  C  C1741  1  0.951700  0.995600  0.667200  1
  C  C1742  1  0.048300  0.004400  0.667200  1
  C  C1743  1  0.495600  0.548300  0.167200  1
  C  C1744  1  0.504400  0.451700  0.167200  1
  C  C1745  1  0.544800  0.459700  0.821500  1
  C  C1746  1  0.455200  0.540300  0.821500  1
  C  C1747  1  0.040300  0.044800  0.321500  1
  C  C1748  1  0.959700  0.955200  0.321500  1
  C  C1749  1  0.955200  0.959700  0.678500  1
  C  C1750  1  0.044800  0.040300  0.678500  1
  C  C1751  1  0.459700  0.544800  0.178500  1
  C  C1752  1  0.540300  0.455200  0.178500  1
  C  C1753  1  0.549800  0.464800  0.790000  1
  C  C1754  1  0.450200  0.535200  0.790000  1
  C  C1755  1  0.035200  0.049800  0.290000  1
  C  C1756  1  0.964800  0.950200  0.290000  1
  C  C1757  1  0.950200  0.964800  0.710000  1
  C  C1758  1  0.049800  0.035200  0.710000  1
  C  C1759  1  0.464800  0.549800  0.210000  1
  C  C1760  1  0.535200  0.450200  0.210000  1
  C  C1761  1  0.550500  0.433800  0.772700  1
  C  C1762  1  0.449500  0.566200  0.772700  1
  C  C1763  1  0.066200  0.050500  0.272700  1
  C  C1764  1  0.933800  0.949500  0.272700  1
  C  C1765  1  0.949500  0.933800  0.727300  1
  C  C1766  1  0.050500  0.066200  0.727300  1
  C  C1767  1  0.433800  0.550500  0.227300  1
  C  C1768  1  0.566200  0.449500  0.227300  1
  C  C1769  1  0.553500  0.430700  0.738800  1
  C  C1770  1  0.446500  0.569300  0.738800  1
  C  C1771  1  0.069300  0.053500  0.238800  1
  C  C1772  1  0.930700  0.946500  0.238800  1
  C  C1773  1  0.946500  0.930700  0.761200  1
  C  C1774  1  0.053500  0.069300  0.761200  1
  C  C1775  1  0.430700  0.553500  0.261200  1
  C  C1776  1  0.569300  0.446500  0.261200  1
  C  C1777  1  0.559500  0.399100  0.719700  1
  C  C1778  1  0.440500  0.600900  0.719700  1
  C  C1779  1  0.100900  0.059500  0.219700  1
  C  C1780  1  0.899100  0.940500  0.219700  1
  C  C1781  1  0.940500  0.899100  0.780300  1
  C  C1782  1  0.059500  0.100900  0.780300  1
  C  C1783  1  0.399100  0.559500  0.280300  1
  C  C1784  1  0.600900  0.440500  0.280300  1
  C  C1785  1  0.564700  0.415400  0.691500  1
  C  C1786  1  0.435300  0.584600  0.691500  1
  C  C1787  1  0.084600  0.064700  0.191500  1
  C  C1788  1  0.915400  0.935300  0.191500  1
  C  C1789  1  0.935300  0.915400  0.808500  1
  C  C1790  1  0.064700  0.084600  0.808500  1
  C  C1791  1  0.415400  0.564700  0.308500  1
  C  C1792  1  0.584600  0.435300  0.308500  1
  C  C1793  1  0.557600  0.458200  0.693100  1
  C  C1794  1  0.442400  0.541800  0.693100  1
  C  C1795  1  0.041800  0.057600  0.193100  1
  C  C1796  1  0.958200  0.942400  0.193100  1
  C  C1797  1  0.942400  0.958200  0.806900  1
  C  C1798  1  0.057600  0.041800  0.806900  1
  C  C1799  1  0.458200  0.557600  0.306900  1
  C  C1800  1  0.541800  0.442400  0.306900  1
  C  C1801  1  0.562300  0.486100  0.668200  1
  C  C1802  1  0.437700  0.513900  0.668200  1
  C  C1803  1  0.013900  0.062300  0.168200  1
  C  C1804  1  0.986100  0.937700  0.168200  1
  C  C1805  1  0.937700  0.986100  0.831800  1
  C  C1806  1  0.062300  0.013900  0.831800  1
  C  C1807  1  0.486100  0.562300  0.331800  1
  C  C1808  1  0.513900  0.437700  0.331800  1
  C  C1809  1  0.593900  0.671700  0.687800  1
  C  C1810  1  0.406100  0.328300  0.687800  1
  C  C1811  1  0.828300  0.093900  0.187800  1
  C  C1812  1  0.171700  0.906100  0.187800  1
  C  C1813  1  0.906100  0.171700  0.812200  1
  C  C1814  1  0.093900  0.828300  0.812200  1
  C  C1815  1  0.671700  0.593900  0.312200  1
  C  C1816  1  0.328300  0.406100  0.312200  1
  C  C1817  1  0.562900  0.653700  0.700500  1
  C  C1818  1  0.437100  0.346300  0.700500  1
  C  C1819  1  0.846300  0.062900  0.200500  1
  C  C1820  1  0.153700  0.937100  0.200500  1
  C  C1821  1  0.937100  0.153700  0.799500  1
  C  C1822  1  0.062900  0.846300  0.799500  1
  C  C1823  1  0.653700  0.562900  0.299500  1
  C  C1824  1  0.346300  0.437100  0.299500  1
  C  C1825  1  0.530800  0.673900  0.700900  1
  C  C1826  1  0.469200  0.326100  0.700900  1
  C  C1827  1  0.826100  0.030800  0.200900  1
  C  C1828  1  0.173900  0.969200  0.200900  1
  C  C1829  1  0.969200  0.173900  0.799100  1
  C  C1830  1  0.030800  0.826100  0.799100  1
  C  C1831  1  0.673900  0.530800  0.299100  1
  C  C1832  1  0.326100  0.469200  0.299100  1
  C  C1833  1  0.531700  0.713300  0.693300  1
  C  C1834  1  0.468300  0.286700  0.693300  1
  C  C1835  1  0.786700  0.031700  0.193300  1
  C  C1836  1  0.213300  0.968300  0.193300  1
  C  C1837  1  0.968300  0.213300  0.806700  1
  C  C1838  1  0.031700  0.786700  0.806700  1
  C  C1839  1  0.713300  0.531700  0.306700  1
  C  C1840  1  0.286700  0.468300  0.306700  1
  C  C1841  1  0.561900  0.732300  0.677500  1
  C  C1842  1  0.438100  0.267700  0.677500  1
  C  C1843  1  0.767700  0.061900  0.177500  1
  C  C1844  1  0.232300  0.938100  0.177500  1
  C  C1845  1  0.938100  0.232300  0.822500  1
  C  C1846  1  0.061900  0.767700  0.822500  1
  C  C1847  1  0.732300  0.561900  0.322500  1
  C  C1848  1  0.267700  0.438100  0.322500  1
  C  C1849  1  0.590100  0.565900  0.866400  1
  C  C1850  1  0.409900  0.434100  0.866400  1
  C  C1851  1  0.934100  0.090100  0.366400  1
  C  C1852  1  0.065900  0.909900  0.366400  1
  C  C1853  1  0.909900  0.065900  0.633600  1
  C  C1854  1  0.090100  0.934100  0.633600  1
  C  C1855  1  0.565900  0.590100  0.133600  1
  C  C1856  1  0.434100  0.409900  0.133600  1
  C  C1857  1  0.559500  0.578600  0.844000  1
  C  C1858  1  0.440500  0.421400  0.844000  1
  C  C1859  1  0.921400  0.059500  0.344000  1
  C  C1860  1  0.078600  0.940500  0.344000  1
  C  C1861  1  0.940500  0.078600  0.656000  1
  C  C1862  1  0.059500  0.921400  0.656000  1
  C  C1863  1  0.578600  0.559500  0.156000  1
  C  C1864  1  0.421400  0.440500  0.156000  1
  C  C1865  1  0.533600  0.607200  0.851000  1
  C  C1866  1  0.466400  0.392800  0.851000  1
  C  C1867  1  0.892800  0.033600  0.351000  1
  C  C1868  1  0.107200  0.966400  0.351000  1
  C  C1869  1  0.966400  0.107200  0.649000  1
  C  C1870  1  0.033600  0.892800  0.649000  1
  C  C1871  1  0.607200  0.533600  0.149000  1
  C  C1872  1  0.392800  0.466400  0.149000  1
  C  C1873  1  0.535900  0.623300  0.878100  1
  C  C1874  1  0.464100  0.376700  0.878100  1
  C  C1875  1  0.876700  0.035900  0.378100  1
  C  C1876  1  0.123300  0.964100  0.378100  1
  C  C1877  1  0.964100  0.123300  0.621900  1
  C  C1878  1  0.035900  0.876700  0.621900  1
  C  C1879  1  0.623300  0.535900  0.121900  1
  C  C1880  1  0.376700  0.464100  0.121900  1
  C  C1881  1  0.561300  0.608900  0.897500  1
  C  C1882  1  0.438700  0.391100  0.897500  1
  C  C1883  1  0.891100  0.061300  0.397500  1
  C  C1884  1  0.108900  0.938700  0.397500  1
  C  C1885  1  0.938700  0.108900  0.602500  1
  C  C1886  1  0.061300  0.891100  0.602500  1
  C  C1887  1  0.608900  0.561300  0.102500  1
  C  C1888  1  0.391100  0.438700  0.102500  1
  C  C1889  1  0.574200  0.381900  0.803500  1
  C  C1890  1  0.425800  0.618100  0.803500  1
  C  C1891  1  0.118100  0.074200  0.303500  1
  C  C1892  1  0.881900  0.925800  0.303500  1
  C  C1893  1  0.925800  0.881900  0.696500  1
  C  C1894  1  0.074200  0.118100  0.696500  1
  C  C1895  1  0.381900  0.574200  0.196500  1
  C  C1896  1  0.618100  0.425800  0.196500  1
  C  C1897  1  0.548800  0.391900  0.781600  1
  C  C1898  1  0.451200  0.608100  0.781600  1
  C  C1899  1  0.108100  0.048800  0.281600  1
  C  C1900  1  0.891900  0.951200  0.281600  1
  C  C1901  1  0.951200  0.891900  0.718400  1
  C  C1902  1  0.048800  0.108100  0.718400  1
  C  C1903  1  0.391900  0.548800  0.218400  1
  C  C1904  1  0.608100  0.451200  0.218400  1
  C  C1905  1  0.522600  0.366100  0.774200  1
  C  C1906  1  0.477400  0.633900  0.774200  1
  C  C1907  1  0.133900  0.022600  0.274200  1
  C  C1908  1  0.866100  0.977400  0.274200  1
  C  C1909  1  0.977400  0.866100  0.725800  1
  C  C1910  1  0.022600  0.133900  0.725800  1
  C  C1911  1  0.366100  0.522600  0.225800  1
  C  C1912  1  0.633900  0.477400  0.225800  1
  C  C1913  1  0.518500  0.332200  0.787700  1
  C  C1914  1  0.481500  0.667800  0.787700  1
  C  C1915  1  0.167800  0.018500  0.287700  1
  C  C1916  1  0.832200  0.981500  0.287700  1
  C  C1917  1  0.981500  0.832200  0.712300  1
  C  C1918  1  0.018500  0.167800  0.712300  1
  C  C1919  1  0.332200  0.518500  0.212300  1
  C  C1920  1  0.667800  0.481500  0.212300  1
  C  C1921  1  0.545500  0.322000  0.807700  1
  C  C1922  1  0.454500  0.678000  0.807700  1
  C  C1923  1  0.178000  0.045500  0.307700  1
  C  C1924  1  0.822000  0.954500  0.307700  1
  C  C1925  1  0.954500  0.822000  0.692300  1
  C  C1926  1  0.045500  0.178000  0.692300  1
  C  C1927  1  0.322000  0.545500  0.192300  1
  C  C1928  1  0.678000  0.454500  0.192300  1
  C  C1929  1  0.593600  0.475200  0.617100  1
  C  C1930  1  0.406400  0.524800  0.617100  1
  C  C1931  1  0.024800  0.093600  0.117100  1
  C  C1932  1  0.975200  0.906400  0.117100  1
  C  C1933  1  0.906400  0.975200  0.882900  1
  C  C1934  1  0.093600  0.024800  0.882900  1
  C  C1935  1  0.475200  0.593600  0.382900  1
  C  C1936  1  0.524800  0.406400  0.382900  1
  C  C1937  1  0.562800  0.466800  0.640000  1
  C  C1938  1  0.437200  0.533200  0.640000  1
  C  C1939  1  0.033200  0.062800  0.140000  1
  C  C1940  1  0.966800  0.937200  0.140000  1
  C  C1941  1  0.937200  0.966800  0.860000  1
  C  C1942  1  0.062800  0.033200  0.860000  1
  C  C1943  1  0.466800  0.562800  0.360000  1
  C  C1944  1  0.533200  0.437200  0.360000  1
  C  C1945  1  0.538600  0.443300  0.627400  1
  C  C1946  1  0.461400  0.556700  0.627400  1
  C  C1947  1  0.056700  0.038600  0.127400  1
  C  C1948  1  0.943300  0.961400  0.127400  1
  C  C1949  1  0.961400  0.943300  0.872600  1
  C  C1950  1  0.038600  0.056700  0.872600  1
  C  C1951  1  0.443300  0.538600  0.372600  1
  C  C1952  1  0.556700  0.461400  0.372600  1
  C  C1953  1  0.535700  0.424300  0.599900  1
  C  C1954  1  0.464300  0.575700  0.599900  1
  C  C1955  1  0.075700  0.035700  0.099900  1
  C  C1956  1  0.924300  0.964300  0.099900  1
  C  C1957  1  0.964300  0.924300  0.900100  1
  C  C1958  1  0.035700  0.075700  0.900100  1
  C  C1959  1  0.424300  0.535700  0.400100  1
  C  C1960  1  0.575700  0.464300  0.400100  1
  C  C1961  1  0.567100  0.430800  0.583600  1
  C  C1962  1  0.432900  0.569200  0.583600  1
  C  C1963  1  0.069200  0.067100  0.083600  1
  C  C1964  1  0.930800  0.932900  0.083600  1
  C  C1965  1  0.932900  0.930800  0.916400  1
  C  C1966  1  0.067100  0.069200  0.916400  1
  C  C1967  1  0.430800  0.567100  0.416400  1
  C  C1968  1  0.569200  0.432900  0.416400  1
  C  C1969  1  0.752800  0.700300  0.745300  1
  C  C1970  1  0.247200  0.299700  0.745300  1
  C  C1971  1  0.799700  0.252800  0.245300  1
  C  C1972  1  0.200300  0.747200  0.245300  1
  C  C1973  1  0.747200  0.200300  0.754700  1
  C  C1974  1  0.252800  0.799700  0.754700  1
  C  C1975  1  0.700300  0.752800  0.254700  1
  C  C1976  1  0.299700  0.247200  0.254700  1
  C  C1977  1  0.764300  0.713100  0.714200  1
  C  C1978  1  0.235700  0.286900  0.714200  1
  C  C1979  1  0.786900  0.264300  0.214200  1
  C  C1980  1  0.213100  0.735700  0.214200  1
  C  C1981  1  0.735700  0.213100  0.785800  1
  C  C1982  1  0.264300  0.786900  0.785800  1
  C  C1983  1  0.713100  0.764300  0.285800  1
  C  C1984  1  0.286900  0.235700  0.285800  1
  C  C1985  1  0.797500  0.692400  0.708700  1
  C  C1986  1  0.202500  0.307600  0.708700  1
  C  C1987  1  0.807600  0.297500  0.208700  1
  C  C1988  1  0.192400  0.702500  0.208700  1
  C  C1989  1  0.702500  0.192400  0.791300  1
  C  C1990  1  0.297500  0.807600  0.791300  1
  C  C1991  1  0.692400  0.797500  0.291300  1
  C  C1992  1  0.307600  0.202500  0.291300  1
  C  C1993  1  0.806900  0.664100  0.734900  1
  C  C1994  1  0.193100  0.335900  0.734900  1
  C  C1995  1  0.835900  0.306900  0.234900  1
  C  C1996  1  0.164100  0.693100  0.234900  1
  C  C1997  1  0.693100  0.164100  0.765100  1
  C  C1998  1  0.306900  0.835900  0.765100  1
  C  C1999  1  0.664100  0.806900  0.265100  1
  C  C2000  1  0.335900  0.193100  0.265100  1
  C  C2001  1  0.840600  0.641700  0.735300  1
  C  C2002  1  0.159400  0.358300  0.735300  1
  C  C2003  1  0.858300  0.340600  0.235300  1
  C  C2004  1  0.141700  0.659400  0.235300  1
  C  C2005  1  0.659400  0.141700  0.764700  1
  C  C2006  1  0.340600  0.858300  0.764700  1
  C  C2007  1  0.641700  0.840600  0.264700  1
  C  C2008  1  0.358300  0.159400  0.264700  1
  C  C2009  1  0.849300  0.618800  0.763300  1
  C  C2010  1  0.150700  0.381200  0.763300  1
  C  C2011  1  0.881200  0.349300  0.263300  1
  C  C2012  1  0.118800  0.650700  0.263300  1
  C  C2013  1  0.650700  0.118800  0.736700  1
  C  C2014  1  0.349300  0.881200  0.736700  1
  C  C2015  1  0.618800  0.849300  0.236700  1
  C  C2016  1  0.381200  0.150700  0.236700  1
  C  C2017  1  0.876900  0.590700  0.760200  1
  C  C2018  1  0.123100  0.409300  0.760200  1
  C  C2019  1  0.909300  0.376900  0.260200  1
  C  C2020  1  0.090700  0.623100  0.260200  1
  C  C2021  1  0.623100  0.090700  0.739800  1
  C  C2022  1  0.376900  0.909300  0.739800  1
  C  C2023  1  0.590700  0.876900  0.239800  1
  C  C2024  1  0.409300  0.123100  0.239800  1
  C  C2025  1  0.878200  0.573500  0.788500  1
  C  C2026  1  0.121800  0.426500  0.788500  1
  C  C2027  1  0.926500  0.378200  0.288500  1
  C  C2028  1  0.073500  0.621800  0.288500  1
  C  C2029  1  0.621800  0.073500  0.711500  1
  C  C2030  1  0.378200  0.926500  0.711500  1
  C  C2031  1  0.573500  0.878200  0.211500  1
  C  C2032  1  0.426500  0.121800  0.211500  1
  C  C2033  1  0.847100  0.592200  0.805900  1
  C  C2034  1  0.152900  0.407800  0.805900  1
  C  C2035  1  0.907800  0.347100  0.305900  1
  C  C2036  1  0.092200  0.652900  0.305900  1
  C  C2037  1  0.652900  0.092200  0.694100  1
  C  C2038  1  0.347100  0.907800  0.694100  1
  C  C2039  1  0.592200  0.847100  0.194100  1
  C  C2040  1  0.407800  0.152900  0.194100  1
  C  C2041  1  0.839600  0.587100  0.836800  1
  C  C2042  1  0.160400  0.412900  0.836800  1
  C  C2043  1  0.912900  0.339600  0.336800  1
  C  C2044  1  0.087100  0.660400  0.336800  1
  C  C2045  1  0.660400  0.087100  0.663200  1
  C  C2046  1  0.339600  0.912900  0.663200  1
  C  C2047  1  0.587100  0.839600  0.163200  1
  C  C2048  1  0.412900  0.160400  0.163200  1
  C  C2049  1  0.809900  0.602400  0.850700  1
  C  C2050  1  0.190100  0.397600  0.850700  1
  C  C2051  1  0.897600  0.309900  0.350700  1
  C  C2052  1  0.102400  0.690100  0.350700  1
  C  C2053  1  0.690100  0.102400  0.649300  1
  C  C2054  1  0.309900  0.897600  0.649300  1
  C  C2055  1  0.602400  0.809900  0.149300  1
  C  C2056  1  0.397600  0.190100  0.149300  1
  C  C2057  1  0.802000  0.596500  0.882800  1
  C  C2058  1  0.198000  0.403500  0.882800  1
  C  C2059  1  0.903500  0.302000  0.382800  1
  C  C2060  1  0.096500  0.698000  0.382800  1
  C  C2061  1  0.698000  0.096500  0.617200  1
  C  C2062  1  0.302000  0.903500  0.617200  1
  C  C2063  1  0.596500  0.802000  0.117200  1
  C  C2064  1  0.403500  0.198000  0.117200  1
  C  C2065  1  0.768000  0.614700  0.891500  1
  C  C2066  1  0.232000  0.385300  0.891500  1
  C  C2067  1  0.885300  0.268000  0.391500  1
  C  C2068  1  0.114700  0.732000  0.391500  1
  C  C2069  1  0.732000  0.114700  0.608500  1
  C  C2070  1  0.268000  0.885300  0.608500  1
  C  C2071  1  0.614700  0.768000  0.108500  1
  C  C2072  1  0.385300  0.232000  0.108500  1
  C  C2073  1  0.755200  0.634800  0.864100  1
  C  C2074  1  0.244800  0.365200  0.864100  1
  C  C2075  1  0.865200  0.255200  0.364100  1
  C  C2076  1  0.134800  0.744800  0.364100  1
  C  C2077  1  0.744800  0.134800  0.635900  1
  C  C2078  1  0.255200  0.865200  0.635900  1
  C  C2079  1  0.634800  0.755200  0.135900  1
  C  C2080  1  0.365200  0.244800  0.135900  1
  C  C2081  1  0.727000  0.658200  0.863300  1
  C  C2082  1  0.273000  0.341800  0.863300  1
  C  C2083  1  0.841800  0.227000  0.363300  1
  C  C2084  1  0.158200  0.773000  0.363300  1
  C  C2085  1  0.773000  0.158200  0.636700  1
  C  C2086  1  0.227000  0.841800  0.636700  1
  C  C2087  1  0.658200  0.727000  0.136700  1
  C  C2088  1  0.341800  0.273000  0.136700  1
  C  C2089  1  0.711600  0.678200  0.834800  1
  C  C2090  1  0.288400  0.321800  0.834800  1
  C  C2091  1  0.821800  0.211600  0.334800  1
  C  C2092  1  0.178200  0.788400  0.334800  1
  C  C2093  1  0.788400  0.178200  0.665200  1
  C  C2094  1  0.211600  0.821800  0.665200  1
  C  C2095  1  0.678200  0.711600  0.165200  1
  C  C2096  1  0.321800  0.288400  0.165200  1
  C  C2097  1  0.670900  0.697300  0.830000  1
  C  C2098  1  0.329100  0.302700  0.830000  1
  C  C2099  1  0.802700  0.170900  0.330000  1
  C  C2100  1  0.197300  0.829100  0.330000  1
  C  C2101  1  0.829100  0.197300  0.670000  1
  C  C2102  1  0.170900  0.802700  0.670000  1
  C  C2103  1  0.697300  0.670900  0.170000  1
  C  C2104  1  0.302700  0.329100  0.170000  1
  C  C2105  1  0.675400  0.708300  0.803800  1
  C  C2106  1  0.324600  0.291700  0.803800  1
  C  C2107  1  0.791700  0.175400  0.303800  1
  C  C2108  1  0.208300  0.824600  0.303800  1
  C  C2109  1  0.824600  0.208300  0.696200  1
  C  C2110  1  0.175400  0.791700  0.696200  1
  C  C2111  1  0.708300  0.675400  0.196200  1
  C  C2112  1  0.291700  0.324600  0.196200  1
  C  C2113  1  0.710500  0.700700  0.789600  1
  C  C2114  1  0.289500  0.299300  0.789600  1
  C  C2115  1  0.799300  0.210500  0.289600  1
  C  C2116  1  0.200700  0.789500  0.289600  1
  C  C2117  1  0.789500  0.200700  0.710400  1
  C  C2118  1  0.210500  0.799300  0.710400  1
  C  C2119  1  0.700700  0.710500  0.210400  1
  C  C2120  1  0.299300  0.289500  0.210400  1
  C  C2121  1  0.720300  0.713200  0.761100  1
  C  C2122  1  0.279700  0.286800  0.761100  1
  C  C2123  1  0.786800  0.220300  0.261100  1
  C  C2124  1  0.213200  0.779700  0.261100  1
  C  C2125  1  0.779700  0.213200  0.738900  1
  C  C2126  1  0.220300  0.786800  0.738900  1
  C  C2127  1  0.713200  0.720300  0.238900  1
  C  C2128  1  0.286800  0.279700  0.238900  1
  C  C2129  1  0.851700  0.628600  0.682200  1
  C  C2130  1  0.148300  0.371400  0.682200  1
  C  C2131  1  0.871400  0.351700  0.182200  1
  C  C2132  1  0.128600  0.648300  0.182200  1
  C  C2133  1  0.648300  0.128600  0.817800  1
  C  C2134  1  0.351700  0.871400  0.817800  1
  C  C2135  1  0.628600  0.851700  0.317800  1
  C  C2136  1  0.371400  0.148300  0.317800  1
  C  C2137  1  0.867500  0.640400  0.710000  1
  C  C2138  1  0.132500  0.359600  0.710000  1
  C  C2139  1  0.859600  0.367500  0.210000  1
  C  C2140  1  0.140400  0.632500  0.210000  1
  C  C2141  1  0.632500  0.140400  0.790000  1
  C  C2142  1  0.367500  0.859600  0.790000  1
  C  C2143  1  0.640400  0.867500  0.290000  1
  C  C2144  1  0.359600  0.132500  0.290000  1
  C  C2145  1  0.901700  0.652600  0.713500  1
  C  C2146  1  0.098300  0.347400  0.713500  1
  C  C2147  1  0.847400  0.401700  0.213500  1
  C  C2148  1  0.152600  0.598300  0.213500  1
  C  C2149  1  0.598300  0.152600  0.786500  1
  C  C2150  1  0.401700  0.847400  0.786500  1
  C  C2151  1  0.652600  0.901700  0.286500  1
  C  C2152  1  0.347400  0.098300  0.286500  1
  C  C2153  1  0.926000  0.650400  0.692200  1
  C  C2154  1  0.074000  0.349600  0.692200  1
  C  C2155  1  0.849600  0.426000  0.192200  1
  C  C2156  1  0.150400  0.574000  0.192200  1
  C  C2157  1  0.574000  0.150400  0.807800  1
  C  C2158  1  0.426000  0.849600  0.807800  1
  C  C2159  1  0.650400  0.926000  0.307800  1
  C  C2160  1  0.349600  0.074000  0.307800  1
  C  C2161  1  0.913300  0.641800  0.661000  1
  C  C2162  1  0.086700  0.358200  0.661000  1
  C  C2163  1  0.858200  0.413300  0.161000  1
  C  C2164  1  0.141800  0.586700  0.161000  1
  C  C2165  1  0.586700  0.141800  0.839000  1
  C  C2166  1  0.413300  0.858200  0.839000  1
  C  C2167  1  0.641800  0.913300  0.339000  1
  C  C2168  1  0.358200  0.086700  0.339000  1
  C  C2169  1  0.848600  0.520600  0.861600  1
  C  C2170  1  0.151400  0.479400  0.861600  1
  C  C2171  1  0.979400  0.348600  0.361600  1
  C  C2172  1  0.020600  0.651400  0.361600  1
  C  C2173  1  0.651400  0.020600  0.638400  1
  C  C2174  1  0.348600  0.979400  0.638400  1
  C  C2175  1  0.520600  0.848600  0.138400  1
  C  C2176  1  0.479400  0.151400  0.138400  1
  C  C2177  1  0.861600  0.555200  0.851900  1
  C  C2178  1  0.138400  0.444800  0.851900  1
  C  C2179  1  0.944800  0.361600  0.351900  1
  C  C2180  1  0.055200  0.638400  0.351900  1
  C  C2181  1  0.638400  0.055200  0.648100  1
  C  C2182  1  0.361600  0.944800  0.648100  1
  C  C2183  1  0.555200  0.861600  0.148100  1
  C  C2184  1  0.444800  0.138400  0.148100  1
  C  C2185  1  0.900000  0.563800  0.860500  1
  C  C2186  1  0.100000  0.436200  0.860500  1
  C  C2187  1  0.936200  0.400000  0.360500  1
  C  C2188  1  0.063800  0.600000  0.360500  1
  C  C2189  1  0.600000  0.063800  0.639500  1
  C  C2190  1  0.400000  0.936200  0.639500  1
  C  C2191  1  0.563800  0.900000  0.139500  1
  C  C2192  1  0.436200  0.100000  0.139500  1
  C  C2193  1  0.922900  0.538800  0.875000  1
  C  C2194  1  0.077100  0.461200  0.875000  1
  C  C2195  1  0.961200  0.422900  0.375000  1
  C  C2196  1  0.038800  0.577100  0.375000  1
  C  C2197  1  0.577100  0.038800  0.625000  1
  C  C2198  1  0.422900  0.961200  0.625000  1
  C  C2199  1  0.538800  0.922900  0.125000  1
  C  C2200  1  0.461200  0.077100  0.125000  1
  C  C2201  1  0.904900  0.505000  0.883500  1
  C  C2202  1  0.095100  0.495000  0.883500  1
  C  C2203  1  0.995000  0.404900  0.383500  1
  C  C2204  1  0.005000  0.595100  0.383500  1
  C  C2205  1  0.595100  0.005000  0.616500  1
  C  C2206  1  0.404900  0.995000  0.616500  1
  C  C2207  1  0.505000  0.904900  0.116500  1
  C  C2208  1  0.495000  0.095100  0.116500  1
  C  C2209  1  0.677500  0.621800  0.894000  1
  C  C2210  1  0.322500  0.378200  0.894000  1
  C  C2211  1  0.878200  0.177500  0.394000  1
  C  C2212  1  0.121800  0.822500  0.394000  1
  C  C2213  1  0.822500  0.121800  0.606000  1
  C  C2214  1  0.177500  0.878200  0.606000  1
  C  C2215  1  0.621800  0.677500  0.106000  1
  C  C2216  1  0.378200  0.322500  0.106000  1
  C  C2217  1  0.697900  0.652600  0.886500  1
  C  C2218  1  0.302100  0.347400  0.886500  1
  C  C2219  1  0.847400  0.197900  0.386500  1
  C  C2220  1  0.152600  0.802100  0.386500  1
  C  C2221  1  0.802100  0.152600  0.613500  1
  C  C2222  1  0.197900  0.847400  0.613500  1
  C  C2223  1  0.652600  0.697900  0.113500  1
  C  C2224  1  0.347400  0.302100  0.113500  1
  C  C2225  1  0.691900  0.689300  0.904800  1
  C  C2226  1  0.308100  0.310700  0.904800  1
  C  C2227  1  0.810700  0.191900  0.404800  1
  C  C2228  1  0.189300  0.808100  0.404800  1
  C  C2229  1  0.808100  0.189300  0.595200  1
  C  C2230  1  0.191900  0.810700  0.595200  1
  C  C2231  1  0.689300  0.691900  0.095200  1
  C  C2232  1  0.310700  0.308100  0.095200  1
  C  C2233  1  0.662700  0.681300  0.931500  1
  C  C2234  1  0.337300  0.318700  0.931500  1
  C  C2235  1  0.818700  0.162700  0.431500  1
  C  C2236  1  0.181300  0.837300  0.431500  1
  C  C2237  1  0.837300  0.181300  0.568500  1
  C  C2238  1  0.162700  0.818700  0.568500  1
  C  C2239  1  0.681300  0.662700  0.068500  1
  C  C2240  1  0.318700  0.337300  0.068500  1
  C  C2241  1  0.646300  0.644400  0.936400  1
  C  C2242  1  0.353700  0.355600  0.936400  1
  C  C2243  1  0.855600  0.146300  0.436400  1
  C  C2244  1  0.144400  0.853700  0.436400  1
  C  C2245  1  0.853700  0.144400  0.563600  1
  C  C2246  1  0.146300  0.855600  0.563600  1
  C  C2247  1  0.644400  0.646300  0.063600  1
  C  C2248  1  0.355600  0.353700  0.063600  1
  C  C2249  1  0.684300  0.726800  0.715600  1
  C  C2250  1  0.315700  0.273200  0.715600  1
  C  C2251  1  0.773200  0.184300  0.215600  1
  C  C2252  1  0.226800  0.815700  0.215600  1
  C  C2253  1  0.815700  0.226800  0.784400  1
  C  C2254  1  0.184300  0.773200  0.784400  1
  C  C2255  1  0.726800  0.684300  0.284400  1
  C  C2256  1  0.273200  0.315700  0.284400  1
  C  C2257  1  0.695100  0.733700  0.744100  1
  C  C2258  1  0.304900  0.266300  0.744100  1
  C  C2259  1  0.766300  0.195100  0.244100  1
  C  C2260  1  0.233700  0.804900  0.244100  1
  C  C2261  1  0.804900  0.233700  0.755900  1
  C  C2262  1  0.195100  0.766300  0.755900  1
  C  C2263  1  0.733700  0.695100  0.255900  1
  C  C2264  1  0.266300  0.304900  0.255900  1
  C  C2265  1  0.680600  0.772200  0.754100  1
  C  C2266  1  0.319400  0.227800  0.754100  1
  C  C2267  1  0.727800  0.180600  0.254100  1
  C  C2268  1  0.272200  0.819400  0.254100  1
  C  C2269  1  0.819400  0.272200  0.745900  1
  C  C2270  1  0.180600  0.727800  0.745900  1
  C  C2271  1  0.772200  0.680600  0.245900  1
  C  C2272  1  0.227800  0.319400  0.245900  1
  C  C2273  1  0.654700  0.794100  0.740100  1
  C  C2274  1  0.345300  0.205900  0.740100  1
  C  C2275  1  0.705900  0.154700  0.240100  1
  C  C2276  1  0.294100  0.845300  0.240100  1
  C  C2277  1  0.845300  0.294100  0.759900  1
  C  C2278  1  0.154700  0.705900  0.759900  1
  C  C2279  1  0.794100  0.654700  0.259900  1
  C  C2280  1  0.205900  0.345300  0.259900  1
  C  C2281  1  0.647200  0.781700  0.712400  1
  C  C2282  1  0.352800  0.218300  0.712400  1
  C  C2283  1  0.718300  0.147200  0.212400  1
  C  C2284  1  0.281700  0.852800  0.212400  1
  C  C2285  1  0.852800  0.281700  0.787600  1
  C  C2286  1  0.147200  0.718300  0.787600  1
  C  C2287  1  0.781700  0.647200  0.287600  1
  C  C2288  1  0.218300  0.352800  0.287600  1
  C  C2289  1  0.807500  0.445600  0.656500  1
  C  C2290  1  0.192500  0.554400  0.656500  1
  C  C2291  1  0.054400  0.307500  0.156500  1
  C  C2292  1  0.945600  0.692500  0.156500  1
  C  C2293  1  0.692500  0.945600  0.843500  1
  C  C2294  1  0.307500  0.054400  0.843500  1
  C  C2295  1  0.445600  0.807500  0.343500  1
  C  C2296  1  0.554400  0.192500  0.343500  1
  C  C2297  1  0.803400  0.450300  0.623500  1
  C  C2298  1  0.196600  0.549700  0.623500  1
  C  C2299  1  0.049700  0.303400  0.123500  1
  C  C2300  1  0.950300  0.696600  0.123500  1
  C  C2301  1  0.696600  0.950300  0.876500  1
  C  C2302  1  0.303400  0.049700  0.876500  1
  C  C2303  1  0.450300  0.803400  0.376500  1
  C  C2304  1  0.549700  0.196600  0.376500  1
  C  C2305  1  0.774300  0.431500  0.616700  1
  C  C2306  1  0.225700  0.568500  0.616700  1
  C  C2307  1  0.068500  0.274300  0.116700  1
  C  C2308  1  0.931500  0.725700  0.116700  1
  C  C2309  1  0.725700  0.931500  0.883300  1
  C  C2310  1  0.274300  0.068500  0.883300  1
  C  C2311  1  0.431500  0.774300  0.383300  1
  C  C2312  1  0.568500  0.225700  0.383300  1
  C  C2313  1  0.755700  0.413900  0.642300  1
  C  C2314  1  0.244300  0.586100  0.642300  1
  C  C2315  1  0.086100  0.255700  0.142300  1
  C  C2316  1  0.913900  0.744300  0.142300  1
  C  C2317  1  0.744300  0.913900  0.857700  1
  C  C2318  1  0.255700  0.086100  0.857700  1
  C  C2319  1  0.413900  0.755700  0.357700  1
  C  C2320  1  0.586100  0.244300  0.357700  1
  C  C2321  1  0.725900  0.391400  0.644200  1
  C  C2322  1  0.274100  0.608600  0.644200  1
  C  C2323  1  0.108600  0.225900  0.144200  1
  C  C2324  1  0.891400  0.774100  0.144200  1
  C  C2325  1  0.774100  0.891400  0.855800  1
  C  C2326  1  0.225900  0.108600  0.855800  1
  C  C2327  1  0.391400  0.725900  0.355800  1
  C  C2328  1  0.608600  0.274100  0.355800  1
  C  C2329  1  0.709700  0.371200  0.669600  1
  C  C2330  1  0.290300  0.628800  0.669600  1
  C  C2331  1  0.128800  0.209700  0.169600  1
  C  C2332  1  0.871200  0.790300  0.169600  1
  C  C2333  1  0.790300  0.871200  0.830400  1
  C  C2334  1  0.209700  0.128800  0.830400  1
  C  C2335  1  0.371200  0.709700  0.330400  1
  C  C2336  1  0.628800  0.290300  0.330400  1
  C  C2337  1  0.672600  0.354200  0.671600  1
  C  C2338  1  0.327400  0.645800  0.671600  1
  C  C2339  1  0.145800  0.172600  0.171600  1
  C  C2340  1  0.854200  0.827400  0.171600  1
  C  C2341  1  0.827400  0.854200  0.828400  1
  C  C2342  1  0.172600  0.145800  0.828400  1
  C  C2343  1  0.354200  0.672600  0.328400  1
  C  C2344  1  0.645800  0.327400  0.328400  1
  C  C2345  1  0.669000  0.341100  0.699200  1
  C  C2346  1  0.331000  0.658900  0.699200  1
  C  C2347  1  0.158900  0.169000  0.199200  1
  C  C2348  1  0.841100  0.831000  0.199200  1
  C  C2349  1  0.831000  0.841100  0.800800  1
  C  C2350  1  0.169000  0.158900  0.800800  1
  C  C2351  1  0.341100  0.669000  0.300800  1
  C  C2352  1  0.658900  0.331000  0.300800  1
  C  C2353  1  0.703900  0.348100  0.715800  1
  C  C2354  1  0.296100  0.651900  0.715800  1
  C  C2355  1  0.151900  0.203900  0.215800  1
  C  C2356  1  0.848100  0.796100  0.215800  1
  C  C2357  1  0.796100  0.848100  0.784200  1
  C  C2358  1  0.203900  0.151900  0.784200  1
  C  C2359  1  0.348100  0.703900  0.284200  1
  C  C2360  1  0.651900  0.296100  0.284200  1
  C  C2361  1  0.716700  0.336000  0.746400  1
  C  C2362  1  0.283300  0.664000  0.746400  1
  C  C2363  1  0.164000  0.216700  0.246400  1
  C  C2364  1  0.836000  0.783300  0.246400  1
  C  C2365  1  0.783300  0.836000  0.753600  1
  C  C2366  1  0.216700  0.164000  0.753600  1
  C  C2367  1  0.336000  0.716700  0.253600  1
  C  C2368  1  0.664000  0.283300  0.253600  1
  C  C2369  1  0.747100  0.348100  0.760700  1
  C  C2370  1  0.252900  0.651900  0.760700  1
  C  C2371  1  0.151900  0.247100  0.260700  1
  C  C2372  1  0.848100  0.752900  0.260700  1
  C  C2373  1  0.752900  0.848100  0.739300  1
  C  C2374  1  0.247100  0.151900  0.739300  1
  C  C2375  1  0.348100  0.747100  0.239300  1
  C  C2376  1  0.651900  0.252900  0.239300  1
  C  C2377  1  0.758100  0.335500  0.792300  1
  C  C2378  1  0.241900  0.664500  0.792300  1
  C  C2379  1  0.164500  0.258100  0.292300  1
  C  C2380  1  0.835500  0.741900  0.292300  1
  C  C2381  1  0.741900  0.835500  0.707700  1
  C  C2382  1  0.258100  0.164500  0.707700  1
  C  C2383  1  0.335500  0.758100  0.207700  1
  C  C2384  1  0.664500  0.241900  0.207700  1
  C  C2385  1  0.787900  0.353400  0.797900  1
  C  C2386  1  0.212100  0.646600  0.797900  1
  C  C2387  1  0.146600  0.287900  0.297900  1
  C  C2388  1  0.853400  0.712100  0.297900  1
  C  C2389  1  0.712100  0.853400  0.702100  1
  C  C2390  1  0.287900  0.146600  0.702100  1
  C  C2391  1  0.353400  0.787900  0.202100  1
  C  C2392  1  0.646600  0.212100  0.202100  1
  C  C2393  1  0.801400  0.375400  0.774300  1
  C  C2394  1  0.198600  0.624600  0.774300  1
  C  C2395  1  0.124600  0.301400  0.274300  1
  C  C2396  1  0.875400  0.698600  0.274300  1
  C  C2397  1  0.698600  0.875400  0.725700  1
  C  C2398  1  0.301400  0.124600  0.725700  1
  C  C2399  1  0.375400  0.801400  0.225700  1
  C  C2400  1  0.624600  0.198600  0.225700  1
  C  C2401  1  0.835900  0.403000  0.773800  1
  C  C2402  1  0.164100  0.597000  0.773800  1
  C  C2403  1  0.097000  0.335900  0.273800  1
  C  C2404  1  0.903000  0.664100  0.273800  1
  C  C2405  1  0.664100  0.903000  0.726200  1
  C  C2406  1  0.335900  0.097000  0.726200  1
  C  C2407  1  0.403000  0.835900  0.226200  1
  C  C2408  1  0.597000  0.164100  0.226200  1
  C  C2409  1  0.841500  0.427500  0.749300  1
  C  C2410  1  0.158500  0.572500  0.749300  1
  C  C2411  1  0.072500  0.341500  0.249300  1
  C  C2412  1  0.927500  0.658500  0.249300  1
  C  C2413  1  0.658500  0.927500  0.750700  1
  C  C2414  1  0.341500  0.072500  0.750700  1
  C  C2415  1  0.427500  0.841500  0.250700  1
  C  C2416  1  0.572500  0.158500  0.250700  1
  C  C2417  1  0.868900  0.453400  0.752100  1
  C  C2418  1  0.131100  0.546600  0.752100  1
  C  C2419  1  0.046600  0.368900  0.252100  1
  C  C2420  1  0.953400  0.631100  0.252100  1
  C  C2421  1  0.631100  0.953400  0.747900  1
  C  C2422  1  0.368900  0.046600  0.747900  1
  C  C2423  1  0.453400  0.868900  0.247900  1
  C  C2424  1  0.546600  0.131100  0.247900  1
  C  C2425  1  0.871500  0.471700  0.725200  1
  C  C2426  1  0.128500  0.528300  0.725200  1
  C  C2427  1  0.028300  0.371500  0.225200  1
  C  C2428  1  0.971700  0.628500  0.225200  1
  C  C2429  1  0.628500  0.971700  0.774800  1
  C  C2430  1  0.371500  0.028300  0.774800  1
  C  C2431  1  0.471700  0.871500  0.274800  1
  C  C2432  1  0.528300  0.128500  0.274800  1
  C  C2433  1  0.844400  0.453900  0.707600  1
  C  C2434  1  0.155600  0.546100  0.707600  1
  C  C2435  1  0.046100  0.344400  0.207600  1
  C  C2436  1  0.953900  0.655600  0.207600  1
  C  C2437  1  0.655600  0.953900  0.792400  1
  C  C2438  1  0.344400  0.046100  0.792400  1
  C  C2439  1  0.453900  0.844400  0.292400  1
  C  C2440  1  0.546100  0.155600  0.292400  1
  C  C2441  1  0.837100  0.463400  0.677500  1
  C  C2442  1  0.162900  0.536600  0.677500  1
  C  C2443  1  0.036600  0.337100  0.177500  1
  C  C2444  1  0.963400  0.662900  0.177500  1
  C  C2445  1  0.662900  0.963400  0.822500  1
  C  C2446  1  0.337100  0.036600  0.822500  1
  C  C2447  1  0.463400  0.837100  0.322500  1
  C  C2448  1  0.536600  0.162900  0.322500  1
  C  C2449  1  0.687100  0.421900  0.605900  1
  C  C2450  1  0.312900  0.578100  0.605900  1
  C  C2451  1  0.078100  0.187100  0.105900  1
  C  C2452  1  0.921900  0.812900  0.105900  1
  C  C2453  1  0.812900  0.921900  0.894100  1
  C  C2454  1  0.187100  0.078100  0.894100  1
  C  C2455  1  0.421900  0.687100  0.394100  1
  C  C2456  1  0.578100  0.312900  0.394100  1
  C  C2457  1  0.702100  0.386800  0.616800  1
  C  C2458  1  0.297900  0.613200  0.616800  1
  C  C2459  1  0.113200  0.202100  0.116800  1
  C  C2460  1  0.886800  0.797900  0.116800  1
  C  C2461  1  0.797900  0.886800  0.883200  1
  C  C2462  1  0.202100  0.113200  0.883200  1
  C  C2463  1  0.386800  0.702100  0.383200  1
  C  C2464  1  0.613200  0.297900  0.383200  1
  C  C2465  1  0.699500  0.352200  0.604200  1
  C  C2466  1  0.300500  0.647800  0.604200  1
  C  C2467  1  0.147800  0.199500  0.104200  1
  C  C2468  1  0.852200  0.800500  0.104200  1
  C  C2469  1  0.800500  0.852200  0.895800  1
  C  C2470  1  0.199500  0.147800  0.895800  1
  C  C2471  1  0.352200  0.699500  0.395800  1
  C  C2472  1  0.647800  0.300500  0.395800  1
  C  C2473  1  0.674500  0.350600  0.578300  1
  C  C2474  1  0.325500  0.649400  0.578300  1
  C  C2475  1  0.149400  0.174500  0.078300  1
  C  C2476  1  0.850600  0.825500  0.078300  1
  C  C2477  1  0.825500  0.850600  0.921700  1
  C  C2478  1  0.174500  0.149400  0.921700  1
  C  C2479  1  0.350600  0.674500  0.421700  1
  C  C2480  1  0.649400  0.325500  0.421700  1
  C  C2481  1  0.661700  0.385700  0.566200  1
  C  C2482  1  0.338300  0.614300  0.566200  1
  C  C2483  1  0.114300  0.161700  0.066200  1
  C  C2484  1  0.885700  0.838300  0.066200  1
  C  C2485  1  0.838300  0.885700  0.933800  1
  C  C2486  1  0.161700  0.114300  0.933800  1
  C  C2487  1  0.385700  0.661700  0.433800  1
  C  C2488  1  0.614300  0.338300  0.433800  1
  C  C2489  1  0.669900  0.325000  0.787600  1
  C  C2490  1  0.330100  0.675000  0.787600  1
  C  C2491  1  0.175000  0.169900  0.287600  1
  C  C2492  1  0.825000  0.830100  0.287600  1
  C  C2493  1  0.830100  0.825000  0.712400  1
  C  C2494  1  0.169900  0.175000  0.712400  1
  C  C2495  1  0.325000  0.669900  0.212400  1
  C  C2496  1  0.675000  0.330100  0.212400  1
  C  C2497  1  0.685400  0.311600  0.762400  1
  C  C2498  1  0.314600  0.688400  0.762400  1
  C  C2499  1  0.188400  0.185400  0.262400  1
  C  C2500  1  0.811600  0.814600  0.262400  1
  C  C2501  1  0.814600  0.811600  0.737600  1
  C  C2502  1  0.185400  0.188400  0.737600  1
  C  C2503  1  0.311600  0.685400  0.237600  1
  C  C2504  1  0.688400  0.314600  0.237600  1
  C  C2505  1  0.675000  0.274700  0.751000  1
  C  C2506  1  0.325000  0.725300  0.751000  1
  C  C2507  1  0.225300  0.175000  0.251000  1
  C  C2508  1  0.774700  0.825000  0.251000  1
  C  C2509  1  0.825000  0.774700  0.749000  1
  C  C2510  1  0.175000  0.225300  0.749000  1
  C  C2511  1  0.274700  0.675000  0.249000  1
  C  C2512  1  0.725300  0.325000  0.249000  1
  C  C2513  1  0.648000  0.255300  0.764800  1
  C  C2514  1  0.352000  0.744700  0.764800  1
  C  C2515  1  0.244700  0.148000  0.264800  1
  C  C2516  1  0.755300  0.852000  0.264800  1
  C  C2517  1  0.852000  0.755300  0.735200  1
  C  C2518  1  0.148000  0.244700  0.735200  1
  C  C2519  1  0.255300  0.648000  0.235200  1
  C  C2520  1  0.744700  0.352000  0.235200  1
  C  C2521  1  0.633600  0.270800  0.792300  1
  C  C2522  1  0.366400  0.729200  0.792300  1
  C  C2523  1  0.229200  0.133600  0.292300  1
  C  C2524  1  0.770800  0.866400  0.292300  1
  C  C2525  1  0.866400  0.770800  0.707700  1
  C  C2526  1  0.133600  0.229200  0.707700  1
  C  C2527  1  0.270800  0.633600  0.207700  1
  C  C2528  1  0.729200  0.366400  0.207700  1
  C  C2529  1  0.843600  0.418900  0.830000  1
  C  C2530  1  0.156400  0.581100  0.830000  1
  C  C2531  1  0.081100  0.343600  0.330000  1
  C  C2532  1  0.918900  0.656400  0.330000  1
  C  C2533  1  0.656400  0.918900  0.670000  1
  C  C2534  1  0.343600  0.081100  0.670000  1
  C  C2535  1  0.418900  0.843600  0.170000  1
  C  C2536  1  0.581100  0.156400  0.170000  1
  C  C2537  1  0.861300  0.404200  0.803600  1
  C  C2538  1  0.138700  0.595800  0.803600  1
  C  C2539  1  0.095800  0.361300  0.303600  1
  C  C2540  1  0.904200  0.638700  0.303600  1
  C  C2541  1  0.638700  0.904200  0.696400  1
  C  C2542  1  0.361300  0.095800  0.696400  1
  C  C2543  1  0.404200  0.861300  0.196400  1
  C  C2544  1  0.595800  0.138700  0.196400  1
  C  C2545  1  0.896500  0.391000  0.798200  1
  C  C2546  1  0.103500  0.609000  0.798200  1
  C  C2547  1  0.109000  0.396500  0.298200  1
  C  C2548  1  0.891000  0.603500  0.298200  1
  C  C2549  1  0.603500  0.891000  0.701800  1
  C  C2550  1  0.396500  0.109000  0.701800  1
  C  C2551  1  0.391000  0.896500  0.201800  1
  C  C2552  1  0.609000  0.103500  0.201800  1
  C  C2553  1  0.922200  0.399500  0.824900  1
  C  C2554  1  0.077800  0.600500  0.824900  1
  C  C2555  1  0.100500  0.422200  0.324900  1
  C  C2556  1  0.899500  0.577800  0.324900  1
  C  C2557  1  0.577800  0.899500  0.675100  1
  C  C2558  1  0.422200  0.100500  0.675100  1
  C  C2559  1  0.399500  0.922200  0.175100  1
  C  C2560  1  0.600500  0.077800  0.175100  1
  C  C2561  1  0.901700  0.412000  0.852100  1
  C  C2562  1  0.098300  0.588000  0.852100  1
  C  C2563  1  0.088000  0.401700  0.352100  1
  C  C2564  1  0.912000  0.598300  0.352100  1
  C  C2565  1  0.598300  0.912000  0.647900  1
  C  C2566  1  0.401700  0.088000  0.647900  1
  C  C2567  1  0.412000  0.901700  0.147900  1
  C  C2568  1  0.588000  0.098300  0.147900  1
  C  C2569  1  0.851000  0.526400  0.650300  1
  C  C2570  1  0.149000  0.473600  0.650300  1
  C  C2571  1  0.973600  0.351000  0.150300  1
  C  C2572  1  0.026400  0.649000  0.150300  1
  C  C2573  1  0.649000  0.026400  0.849700  1
  C  C2574  1  0.351000  0.973600  0.849700  1
  C  C2575  1  0.526400  0.851000  0.349700  1
  C  C2576  1  0.473600  0.149000  0.349700  1
  C  C2577  1  0.861800  0.490200  0.658900  1
  C  C2578  1  0.138200  0.509800  0.658900  1
  C  C2579  1  0.009800  0.361800  0.158900  1
  C  C2580  1  0.990200  0.638200  0.158900  1
  C  C2581  1  0.638200  0.990200  0.841100  1
  C  C2582  1  0.361800  0.009800  0.841100  1
  C  C2583  1  0.490200  0.861800  0.341100  1
  C  C2584  1  0.509800  0.138200  0.341100  1
  C  C2585  1  0.903700  0.479300  0.656800  1
  C  C2586  1  0.096300  0.520700  0.656800  1
  C  C2587  1  0.020700  0.403700  0.156800  1
  C  C2588  1  0.979300  0.596300  0.156800  1
  C  C2589  1  0.596300  0.979300  0.843200  1
  C  C2590  1  0.403700  0.020700  0.843200  1
  C  C2591  1  0.479300  0.903700  0.343200  1
  C  C2592  1  0.520700  0.096300  0.343200  1
  C  C2593  1  0.923700  0.510800  0.644900  1
  C  C2594  1  0.076300  0.489200  0.644900  1
  C  C2595  1  0.989200  0.423700  0.144900  1
  C  C2596  1  0.010800  0.576300  0.144900  1
  C  C2597  1  0.576300  0.010800  0.855100  1
  C  C2598  1  0.423700  0.989200  0.855100  1
  C  C2599  1  0.510800  0.923700  0.355100  1
  C  C2600  1  0.489200  0.076300  0.355100  1
  C  C2601  1  0.906100  0.543300  0.635200  1
  C  C2602  1  0.093900  0.456700  0.635200  1
  C  C2603  1  0.956700  0.406100  0.135200  1
  C  C2604  1  0.043300  0.593900  0.135200  1
  C  C2605  1  0.593900  0.043300  0.864800  1
  C  C2606  1  0.406100  0.956700  0.864800  1
  C  C2607  1  0.543300  0.906100  0.364800  1
  C  C2608  1  0.456700  0.093900  0.364800  1
  C  C2609  1  0.659300  0.720000  0.597500  1
  C  C2610  1  0.340700  0.280000  0.597500  1
  C  C2611  1  0.780000  0.159300  0.097500  1
  C  C2612  1  0.220000  0.840700  0.097500  1
  C  C2613  1  0.840700  0.220000  0.902500  1
  C  C2614  1  0.159300  0.780000  0.902500  1
  C  C2615  1  0.720000  0.659300  0.402500  1
  C  C2616  1  0.280000  0.340700  0.402500  1
  C  C2617  1  0.647000  0.717300  0.562000  1
  C  C2618  1  0.353000  0.282700  0.562000  1
  C  C2619  1  0.782700  0.147000  0.062000  1
  C  C2620  1  0.217300  0.853000  0.062000  1
  C  C2621  1  0.853000  0.217300  0.938000  1
  C  C2622  1  0.147000  0.782700  0.938000  1
  C  C2623  1  0.717300  0.647000  0.438000  1
  C  C2624  1  0.282700  0.353000  0.438000  1
  C  C2625  1  0.686600  0.719000  0.545800  1
  C  C2626  1  0.313400  0.281000  0.545800  1
  C  C2627  1  0.781000  0.186600  0.045800  1
  C  C2628  1  0.219000  0.813400  0.045800  1
  C  C2629  1  0.813400  0.219000  0.954200  1
  C  C2630  1  0.186600  0.781000  0.954200  1
  C  C2631  1  0.719000  0.686600  0.454200  1
  C  C2632  1  0.281000  0.313400  0.454200  1
  C  C2633  1  0.711400  0.755400  0.550600  1
  C  C2634  1  0.288600  0.244600  0.550600  1
  C  C2635  1  0.744600  0.211400  0.050600  1
  C  C2636  1  0.255400  0.788600  0.050600  1
  C  C2637  1  0.788600  0.255400  0.949400  1
  C  C2638  1  0.211400  0.744600  0.949400  1
  C  C2639  1  0.755400  0.711400  0.449400  1
  C  C2640  1  0.244600  0.288600  0.449400  1
  C  C2641  1  0.719300  0.760200  0.584900  1
  C  C2642  1  0.280700  0.239800  0.584900  1
  C  C2643  1  0.739800  0.219300  0.084900  1
  C  C2644  1  0.260200  0.780700  0.084900  1
  C  C2645  1  0.780700  0.260200  0.915100  1
  C  C2646  1  0.219300  0.739800  0.915100  1
  C  C2647  1  0.760200  0.719300  0.415100  1
  C  C2648  1  0.239800  0.280700  0.415100  1
  C  C2649  1  0.678600  0.754600  0.600800  1
  C  C2650  1  0.321400  0.245400  0.600800  1
  C  C2651  1  0.745400  0.178600  0.100800  1
  C  C2652  1  0.254600  0.821400  0.100800  1
  C  C2653  1  0.821400  0.254600  0.899200  1
  C  C2654  1  0.178600  0.745400  0.899200  1
  C  C2655  1  0.754600  0.678600  0.399200  1
  C  C2656  1  0.245400  0.321400  0.399200  1
  C  C2657  1  0.817800  0.646100  0.573100  1
  C  C2658  1  0.182200  0.353900  0.573100  1
  C  C2659  1  0.853900  0.317800  0.073100  1
  C  C2660  1  0.146100  0.682200  0.073100  1
  C  C2661  1  0.682200  0.146100  0.926900  1
  C  C2662  1  0.317800  0.853900  0.926900  1
  C  C2663  1  0.646100  0.817800  0.426900  1
  C  C2664  1  0.353900  0.182200  0.426900  1
  C  C2665  1  0.810800  0.686000  0.555700  1
  C  C2666  1  0.189200  0.314000  0.555700  1
  C  C2667  1  0.814000  0.310800  0.055700  1
  C  C2668  1  0.186000  0.689200  0.055700  1
  C  C2669  1  0.689200  0.186000  0.944300  1
  C  C2670  1  0.310800  0.814000  0.944300  1
  C  C2671  1  0.686000  0.810800  0.444300  1
  C  C2672  1  0.314000  0.189200  0.444300  1
  C  C2673  1  0.787000  0.674000  0.526600  1
  C  C2674  1  0.213000  0.326000  0.526600  1
  C  C2675  1  0.826000  0.287000  0.026600  1
  C  C2676  1  0.174000  0.713000  0.026600  1
  C  C2677  1  0.713000  0.174000  0.973400  1
  C  C2678  1  0.287000  0.826000  0.973400  1
  C  C2679  1  0.674000  0.787000  0.473400  1
  C  C2680  1  0.326000  0.213000  0.473400  1
  C  C2681  1  0.805500  0.634300  0.512700  1
  C  C2682  1  0.194500  0.365700  0.512700  1
  C  C2683  1  0.865700  0.305500  0.012700  1
  C  C2684  1  0.134300  0.694500  0.012700  1
  C  C2685  1  0.694500  0.134300  0.987300  1
  C  C2686  1  0.305500  0.865700  0.987300  1
  C  C2687  1  0.634300  0.805500  0.487300  1
  C  C2688  1  0.365700  0.194500  0.487300  1
  C  C2689  1  0.809900  0.598000  0.533100  1
  C  C2690  1  0.190100  0.402000  0.533100  1
  C  C2691  1  0.902000  0.309900  0.033100  1
  C  C2692  1  0.098000  0.690100  0.033100  1
  C  C2693  1  0.690100  0.098000  0.966900  1
  C  C2694  1  0.309900  0.902000  0.966900  1
  C  C2695  1  0.598000  0.809900  0.466900  1
  C  C2696  1  0.402000  0.190100  0.466900  1
  C  C2697  1  0.835700  0.610800  0.559000  1
  C  C2698  1  0.164300  0.389200  0.559000  1
  C  C2699  1  0.889200  0.335700  0.059000  1
  C  C2700  1  0.110800  0.664300  0.059000  1
  C  C2701  1  0.664300  0.110800  0.941000  1
  C  C2702  1  0.335700  0.889200  0.941000  1
  C  C2703  1  0.610800  0.835700  0.441000  1
  C  C2704  1  0.389200  0.164300  0.441000  1
  C  C2705  1  0.687800  0.522800  0.532100  1
  C  C2706  1  0.312200  0.477200  0.532100  1
  C  C2707  1  0.977200  0.187800  0.032100  1
  C  C2708  1  0.022800  0.812200  0.032100  1
  C  C2709  1  0.812200  0.022800  0.967900  1
  C  C2710  1  0.187800  0.977200  0.967900  1
  C  C2711  1  0.522800  0.687800  0.467900  1
  C  C2712  1  0.477200  0.312200  0.467900  1
  C  C2713  1  0.711900  0.541500  0.505900  1
  C  C2714  1  0.288100  0.458500  0.505900  1
  C  C2715  1  0.958500  0.211900  0.005900  1
  C  C2716  1  0.041500  0.788100  0.005900  1
  C  C2717  1  0.788100  0.041500  0.994100  1
  C  C2718  1  0.211900  0.958500  0.994100  1
  C  C2719  1  0.541500  0.711900  0.494100  1
  C  C2720  1  0.458500  0.288100  0.494100  1
  C  C2721  1  0.707400  0.584400  0.502300  1
  C  C2722  1  0.292600  0.415600  0.502300  1
  C  C2723  1  0.915600  0.207400  0.002300  1
  C  C2724  1  0.084400  0.792600  0.002300  1
  C  C2725  1  0.792600  0.084400  0.997700  1
  C  C2726  1  0.207400  0.915600  0.997700  1
  C  C2727  1  0.584400  0.707400  0.497700  1
  C  C2728  1  0.415600  0.292600  0.497700  1
  C  C2729  1  0.665000  0.596200  0.496500  1
  C  C2730  1  0.335000  0.403800  0.496500  1
  C  C2731  1  0.903800  0.165000  0.996500  1
  C  C2732  1  0.096200  0.835000  0.996500  1
  C  C2733  1  0.835000  0.096200  0.003500  1
  C  C2734  1  0.165000  0.903800  0.003500  1
  C  C2735  1  0.596200  0.665000  0.503500  1
  C  C2736  1  0.403800  0.335000  0.503500  1
  C  C2737  1  0.635900  0.576900  0.517900  1
  C  C2738  1  0.364100  0.423100  0.517900  1
  C  C2739  1  0.923100  0.135900  0.017900  1
  C  C2740  1  0.076900  0.864100  0.017900  1
  C  C2741  1  0.864100  0.076900  0.982100  1
  C  C2742  1  0.135900  0.923100  0.982100  1
  C  C2743  1  0.576900  0.635900  0.482100  1
  C  C2744  1  0.423100  0.364100  0.482100  1
  C  C2745  1  0.645000  0.535900  0.527300  1
  C  C2746  1  0.355000  0.464100  0.527300  1
  C  C2747  1  0.964100  0.145000  0.027300  1
  C  C2748  1  0.035900  0.855000  0.027300  1
  C  C2749  1  0.855000  0.035900  0.972700  1
  C  C2750  1  0.145000  0.964100  0.972700  1
  C  C2751  1  0.535900  0.645000  0.472700  1
  C  C2752  1  0.464100  0.355000  0.472700  1
  C  C2753  1  0.621400  0.498700  0.958000  1
  C  C2754  1  0.378600  0.501300  0.958000  1
  C  C2755  1  0.001300  0.121400  0.458000  1
  C  C2756  1  0.998700  0.878600  0.458000  1
  C  C2757  1  0.878600  0.998700  0.542000  1
  C  C2758  1  0.121400  0.001300  0.542000  1
  C  C2759  1  0.498700  0.621400  0.042000  1
  C  C2760  1  0.501300  0.378600  0.042000  1
  C  C2761  1  0.617200  0.453400  0.960300  1
  C  C2762  1  0.382800  0.546600  0.960300  1
  C  C2763  1  0.046600  0.117200  0.460300  1
  C  C2764  1  0.953400  0.882800  0.460300  1
  C  C2765  1  0.882800  0.953400  0.539700  1
  C  C2766  1  0.117200  0.046600  0.539700  1
  C  C2767  1  0.453400  0.617200  0.039700  1
  C  C2768  1  0.546600  0.382800  0.039700  1
  C  C2769  1  0.638000  0.435800  0.987800  1
  C  C2770  1  0.362000  0.564200  0.987800  1
  C  C2771  1  0.064200  0.138000  0.487800  1
  C  C2772  1  0.935800  0.862000  0.487800  1
  C  C2773  1  0.862000  0.935800  0.512200  1
  C  C2774  1  0.138000  0.064200  0.512200  1
  C  C2775  1  0.435800  0.638000  0.012200  1
  C  C2776  1  0.564200  0.362000  0.012200  1
  C  C2777  1  0.674400  0.445500  0.988600  1
  C  C2778  1  0.325600  0.554500  0.988600  1
  C  C2779  1  0.054500  0.174400  0.488600  1
  C  C2780  1  0.945500  0.825600  0.488600  1
  C  C2781  1  0.825600  0.945500  0.511400  1
  C  C2782  1  0.174400  0.054500  0.511400  1
  C  C2783  1  0.445500  0.674400  0.011400  1
  C  C2784  1  0.554500  0.325600  0.011400  1
  C  C2785  1  0.678600  0.489700  0.985500  1
  C  C2786  1  0.321400  0.510300  0.985500  1
  C  C2787  1  0.010300  0.178600  0.485500  1
  C  C2788  1  0.989700  0.821400  0.485500  1
  C  C2789  1  0.821400  0.989700  0.514500  1
  C  C2790  1  0.178600  0.010300  0.514500  1
  C  C2791  1  0.489700  0.678600  0.014500  1
  C  C2792  1  0.510300  0.321400  0.014500  1
  C  C2793  1  0.660600  0.510300  0.957800  1
  C  C2794  1  0.339400  0.489700  0.957800  1
  C  C2795  1  0.989700  0.160600  0.457800  1
  C  C2796  1  0.010300  0.839400  0.457800  1
  C  C2797  1  0.839400  0.010300  0.542200  1
  C  C2798  1  0.160600  0.989700  0.542200  1
  C  C2799  1  0.510300  0.660600  0.042200  1
  C  C2800  1  0.489700  0.339400  0.042200  1
  C  C2801  1  0.818800  0.427500  0.952300  1
  C  C2802  1  0.181200  0.572500  0.952300  1
  C  C2803  1  0.072500  0.318800  0.452300  1
  C  C2804  1  0.927500  0.681200  0.452300  1
  C  C2805  1  0.681200  0.927500  0.547700  1
  C  C2806  1  0.318800  0.072500  0.547700  1
  C  C2807  1  0.427500  0.818800  0.047700  1
  C  C2808  1  0.572500  0.181200  0.047700  1
  C  C2809  1  0.788300  0.440600  0.975700  1
  C  C2810  1  0.211700  0.559400  0.975700  1
  C  C2811  1  0.059400  0.288300  0.475700  1
  C  C2812  1  0.940600  0.711700  0.475700  1
  C  C2813  1  0.711700  0.940600  0.524300  1
  C  C2814  1  0.288300  0.059400  0.524300  1
  C  C2815  1  0.440600  0.788300  0.024300  1
  C  C2816  1  0.559400  0.211700  0.024300  1
  C  C2817  1  0.784600  0.403800  0.998800  1
  C  C2818  1  0.215400  0.596200  0.998800  1
  C  C2819  1  0.096200  0.284600  0.498800  1
  C  C2820  1  0.903800  0.715400  0.498800  1
  C  C2821  1  0.715400  0.903800  0.501200  1
  C  C2822  1  0.284600  0.096200  0.501200  1
  C  C2823  1  0.403800  0.784600  0.001200  1
  C  C2824  1  0.596200  0.215400  0.001200  1
  C  C2825  1  0.757200  0.379100  0.975700  1
  C  C2826  1  0.242800  0.620900  0.975700  1
  C  C2827  1  0.120900  0.257200  0.475700  1
  C  C2828  1  0.879100  0.742800  0.475700  1
  C  C2829  1  0.742800  0.879100  0.524300  1
  C  C2830  1  0.257200  0.120900  0.524300  1
  C  C2831  1  0.379100  0.757200  0.024300  1
  C  C2832  1  0.620900  0.242800  0.024300  1
  C  C2833  1  0.784600  0.368400  0.952500  1
  C  C2834  1  0.215400  0.631600  0.952500  1
  C  C2835  1  0.131600  0.284600  0.452500  1
  C  C2836  1  0.868400  0.715400  0.452500  1
  C  C2837  1  0.715400  0.868400  0.547500  1
  C  C2838  1  0.284600  0.131600  0.547500  1
  C  C2839  1  0.368400  0.784600  0.047500  1
  C  C2840  1  0.631600  0.215400  0.047500  1
  C  C2841  1  0.796500  0.402700  0.928500  1
  C  C2842  1  0.203500  0.597300  0.928500  1
  C  C2843  1  0.097300  0.296500  0.428500  1
  C  C2844  1  0.902700  0.703500  0.428500  1
  C  C2845  1  0.703500  0.902700  0.571500  1
  C  C2846  1  0.296500  0.097300  0.571500  1
  C  C2847  1  0.402700  0.796500  0.071500  1
  C  C2848  1  0.597300  0.203500  0.071500  1
  C  C2849  1  0.648200  0.297400  0.896900  1
  C  C2850  1  0.351800  0.702600  0.896900  1
  C  C2851  1  0.202600  0.148200  0.396900  1
  C  C2852  1  0.797400  0.851800  0.396900  1
  C  C2853  1  0.851800  0.797400  0.603100  1
  C  C2854  1  0.148200  0.202600  0.603100  1
  C  C2855  1  0.297400  0.648200  0.103100  1
  C  C2856  1  0.702600  0.351800  0.103100  1
  C  C2857  1  0.681100  0.299200  0.920600  1
  C  C2858  1  0.318900  0.700800  0.920600  1
  C  C2859  1  0.200800  0.181100  0.420600  1
  C  C2860  1  0.799200  0.818900  0.420600  1
  C  C2861  1  0.818900  0.799200  0.579400  1
  C  C2862  1  0.181100  0.200800  0.579400  1
  C  C2863  1  0.299200  0.681100  0.079400  1
  C  C2864  1  0.700800  0.318900  0.079400  1
  C  C2865  1  0.664700  0.293000  0.951100  1
  C  C2866  1  0.335300  0.707000  0.951100  1
  C  C2867  1  0.207000  0.164700  0.451100  1
  C  C2868  1  0.793000  0.835300  0.451100  1
  C  C2869  1  0.835300  0.793000  0.548900  1
  C  C2870  1  0.164700  0.207000  0.548900  1
  C  C2871  1  0.293000  0.664700  0.048900  1
  C  C2872  1  0.707000  0.335300  0.048900  1
  C  C2873  1  0.648900  0.334000  0.956400  1
  C  C2874  1  0.351100  0.666000  0.956400  1
  C  C2875  1  0.166000  0.148900  0.456400  1
  C  C2876  1  0.834000  0.851100  0.456400  1
  C  C2877  1  0.851100  0.834000  0.543600  1
  C  C2878  1  0.148900  0.166000  0.543600  1
  C  C2879  1  0.334000  0.648900  0.043600  1
  C  C2880  1  0.666000  0.351100  0.043600  1
  C  C2881  1  0.612500  0.333400  0.937100  1
  C  C2882  1  0.387500  0.666600  0.937100  1
  C  C2883  1  0.166600  0.112500  0.437100  1
  C  C2884  1  0.833400  0.887500  0.437100  1
  C  C2885  1  0.887500  0.833400  0.562900  1
  C  C2886  1  0.112500  0.166600  0.562900  1
  C  C2887  1  0.333400  0.612500  0.062900  1
  C  C2888  1  0.666600  0.387500  0.062900  1
  C  C2889  1  0.627000  0.337500  0.902800  1
  C  C2890  1  0.373000  0.662500  0.902800  1
  C  C2891  1  0.162500  0.127000  0.402800  1
  C  C2892  1  0.837500  0.873000  0.402800  1
  C  C2893  1  0.873000  0.837500  0.597200  1
  C  C2894  1  0.127000  0.162500  0.597200  1
  C  C2895  1  0.337500  0.627000  0.097200  1
  C  C2896  1  0.662500  0.373000  0.097200  1
  N  N2897  1  0.665000  0.556400  0.663200  1
  N  N2898  1  0.335000  0.443600  0.663200  1
  N  N2899  1  0.943600  0.165000  0.163200  1
  N  N2900  1  0.056400  0.835000  0.163200  1
  N  N2901  1  0.835000  0.056400  0.836800  1
  N  N2902  1  0.165000  0.943600  0.836800  1
  N  N2903  1  0.556400  0.665000  0.336800  1
  N  N2904  1  0.443600  0.335000  0.336800  1
  N  N2905  1  0.665800  0.535300  0.778500  1
  N  N2906  1  0.334200  0.464700  0.778500  1
  N  N2907  1  0.964700  0.165800  0.278500  1
  N  N2908  1  0.035300  0.834200  0.278500  1
  N  N2909  1  0.834200  0.035300  0.721500  1
  N  N2910  1  0.165800  0.964700  0.721500  1
  N  N2911  1  0.535300  0.665800  0.221500  1
  N  N2912  1  0.464700  0.334200  0.221500  1
  N  N2913  1  0.730700  0.561200  0.750100  1
  N  N2914  1  0.269300  0.438800  0.750100  1
  N  N2915  1  0.938800  0.230700  0.250100  1
  N  N2916  1  0.061200  0.769300  0.250100  1
  N  N2917  1  0.769300  0.061200  0.749900  1
  N  N2918  1  0.230700  0.938800  0.749900  1
  N  N2919  1  0.561200  0.730700  0.249900  1
  N  N2920  1  0.438800  0.269300  0.249900  1
  N  N2921  1  0.720800  0.517200  0.698900  1
  N  N2922  1  0.279200  0.482800  0.698900  1
  N  N2923  1  0.982800  0.220800  0.198900  1
  N  N2924  1  0.017200  0.779200  0.198900  1
  N  N2925  1  0.779200  0.017200  0.801100  1
  N  N2926  1  0.220800  0.982800  0.801100  1
  N  N2927  1  0.517200  0.720800  0.301100  1
  N  N2928  1  0.482800  0.279200  0.301100  1
  N  N2929  1  0.743300  0.462300  0.829100  1
  N  N2930  1  0.256700  0.537700  0.829100  1
  N  N2931  1  0.037700  0.243300  0.329100  1
  N  N2932  1  0.962300  0.756700  0.329100  1
  N  N2933  1  0.756700  0.962300  0.670900  1
  N  N2934  1  0.243300  0.037700  0.670900  1
  N  N2935  1  0.462300  0.743300  0.170900  1
  N  N2936  1  0.537700  0.256700  0.170900  1
  N  N2937  1  0.678700  0.458900  0.791400  1
  N  N2938  1  0.321300  0.541100  0.791400  1
  N  N2939  1  0.041100  0.178700  0.291400  1
  N  N2940  1  0.958900  0.821300  0.291400  1
  N  N2941  1  0.821300  0.958900  0.708600  1
  N  N2942  1  0.178700  0.041100  0.708600  1
  N  N2943  1  0.458900  0.678700  0.208600  1
  N  N2944  1  0.541100  0.321300  0.208600  1
  N  N2945  1  0.775800  0.422600  0.668100  1
  N  N2946  1  0.224200  0.577400  0.668100  1
  N  N2947  1  0.077400  0.275800  0.168100  1
  N  N2948  1  0.922600  0.724200  0.168100  1
  N  N2949  1  0.724200  0.922600  0.831900  1
  N  N2950  1  0.275800  0.077400  0.831900  1
  N  N2951  1  0.422600  0.775800  0.331900  1
  N  N2952  1  0.577400  0.224200  0.331900  1
  N  N2953  1  0.562700  0.544300  0.696100  1
  N  N2954  1  0.437300  0.455700  0.696100  1
  N  N2955  1  0.955700  0.062700  0.196100  1
  N  N2956  1  0.044300  0.937300  0.196100  1
  N  N2957  1  0.937300  0.044300  0.803900  1
  N  N2958  1  0.062700  0.955700  0.803900  1
  N  N2959  1  0.544300  0.562700  0.303900  1
  N  N2960  1  0.455700  0.437300  0.303900  1
  N  N2961  1  0.565400  0.575700  0.757500  1
  N  N2962  1  0.434600  0.424300  0.757500  1
  N  N2963  1  0.924300  0.065400  0.257500  1
  N  N2964  1  0.075700  0.934600  0.257500  1
  N  N2965  1  0.934600  0.075700  0.742500  1
  N  N2966  1  0.065400  0.924300  0.742500  1
  N  N2967  1  0.575700  0.565400  0.242500  1
  N  N2968  1  0.424300  0.434600  0.242500  1
  N  N2969  1  0.556300  0.500000  0.784000  1
  N  N2970  1  0.443700  0.500000  0.784000  1
  N  N2971  1  0.000000  0.056300  0.284000  1
  N  N2972  1  0.000000  0.943700  0.284000  1
  N  N2973  1  0.943700  0.000000  0.716000  1
  N  N2974  1  0.056300  0.000000  0.716000  1
  N  N2975  1  0.500000  0.556300  0.216000  1
  N  N2976  1  0.500000  0.443700  0.216000  1
  N  N2977  1  0.554100  0.467600  0.722700  1
  N  N2978  1  0.445900  0.532400  0.722700  1
  N  N2979  1  0.032400  0.054100  0.222700  1
  N  N2980  1  0.967600  0.945900  0.222700  1
  N  N2981  1  0.945900  0.967600  0.777300  1
  N  N2982  1  0.054100  0.032400  0.777300  1
  N  N2983  1  0.467600  0.554100  0.277300  1
  N  N2984  1  0.532400  0.445900  0.277300  1
  N  N2985  1  0.593400  0.708300  0.675700  1
  N  N2986  1  0.406600  0.291700  0.675700  1
  N  N2987  1  0.791700  0.093400  0.175700  1
  N  N2988  1  0.208300  0.906600  0.175700  1
  N  N2989  1  0.906600  0.208300  0.824300  1
  N  N2990  1  0.093400  0.791700  0.824300  1
  N  N2991  1  0.708300  0.593400  0.324300  1
  N  N2992  1  0.291700  0.406600  0.324300  1
  N  N2993  1  0.587000  0.584400  0.892900  1
  N  N2994  1  0.413000  0.415600  0.892900  1
  N  N2995  1  0.915600  0.087000  0.392900  1
  N  N2996  1  0.084400  0.913000  0.392900  1
  N  N2997  1  0.913000  0.084400  0.607100  1
  N  N2998  1  0.087000  0.915600  0.607100  1
  N  N2999  1  0.584400  0.587000  0.107100  1
  N  N3000  1  0.415600  0.413000  0.107100  1
  N  N3001  1  0.572000  0.345900  0.816100  1
  N  N3002  1  0.428000  0.654100  0.816100  1
  N  N3003  1  0.154100  0.072000  0.316100  1
  N  N3004  1  0.845900  0.928000  0.316100  1
  N  N3005  1  0.928000  0.845900  0.683900  1
  N  N3006  1  0.072000  0.154100  0.683900  1
  N  N3007  1  0.345900  0.572000  0.183900  1
  N  N3008  1  0.654100  0.428000  0.183900  1
  N  N3009  1  0.594700  0.455800  0.591400  1
  N  N3010  1  0.405300  0.544200  0.591400  1
  N  N3011  1  0.044200  0.094700  0.091400  1
  N  N3012  1  0.955800  0.905300  0.091400  1
  N  N3013  1  0.905300  0.955800  0.908600  1
  N  N3014  1  0.094700  0.044200  0.908600  1
  N  N3015  1  0.455800  0.594700  0.408600  1
  N  N3016  1  0.544200  0.405300  0.408600  1
  N  N3017  1  0.779400  0.672200  0.756300  1
  N  N3018  1  0.220600  0.327800  0.756300  1
  N  N3019  1  0.827800  0.279400  0.256300  1
  N  N3020  1  0.172200  0.720600  0.256300  1
  N  N3021  1  0.720600  0.172200  0.743700  1
  N  N3022  1  0.279400  0.827800  0.743700  1
  N  N3023  1  0.672200  0.779400  0.243700  1
  N  N3024  1  0.327800  0.220600  0.243700  1
  N  N3025  1  0.829200  0.619800  0.787300  1
  N  N3026  1  0.170800  0.380200  0.787300  1
  N  N3027  1  0.880200  0.329200  0.287300  1
  N  N3028  1  0.119800  0.670800  0.287300  1
  N  N3029  1  0.670800  0.119800  0.712700  1
  N  N3030  1  0.329200  0.880200  0.712700  1
  N  N3031  1  0.619800  0.829200  0.212700  1
  N  N3032  1  0.380200  0.170800  0.212700  1
  N  N3033  1  0.782000  0.625000  0.840600  1
  N  N3034  1  0.218000  0.375000  0.840600  1
  N  N3035  1  0.875000  0.282000  0.340600  1
  N  N3036  1  0.125000  0.718000  0.340600  1
  N  N3037  1  0.718000  0.125000  0.659400  1
  N  N3038  1  0.282000  0.875000  0.659400  1
  N  N3039  1  0.625000  0.782000  0.159400  1
  N  N3040  1  0.375000  0.218000  0.159400  1
  N  N3041  1  0.734600  0.681100  0.808700  1
  N  N3042  1  0.265400  0.318900  0.808700  1
  N  N3043  1  0.818900  0.234600  0.308700  1
  N  N3044  1  0.181100  0.765400  0.308700  1
  N  N3045  1  0.765400  0.181100  0.691300  1
  N  N3046  1  0.234600  0.818900  0.691300  1
  N  N3047  1  0.681100  0.734600  0.191300  1
  N  N3048  1  0.318900  0.265400  0.191300  1
  N  N3049  1  0.876900  0.628800  0.659200  1
  N  N3050  1  0.123100  0.371200  0.659200  1
  N  N3051  1  0.871200  0.376900  0.159200  1
  N  N3052  1  0.128800  0.623100  0.159200  1
  N  N3053  1  0.623100  0.128800  0.840800  1
  N  N3054  1  0.376900  0.871200  0.840800  1
  N  N3055  1  0.628800  0.876900  0.340800  1
  N  N3056  1  0.371200  0.123100  0.340800  1
  N  N3057  1  0.867100  0.496300  0.878300  1
  N  N3058  1  0.132900  0.503700  0.878300  1
  N  N3059  1  0.003700  0.367100  0.378300  1
  N  N3060  1  0.996300  0.632900  0.378300  1
  N  N3061  1  0.632900  0.996300  0.621700  1
  N  N3062  1  0.367100  0.003700  0.621700  1
  N  N3063  1  0.496300  0.867100  0.121700  1
  N  N3064  1  0.503700  0.132900  0.121700  1
  N  N3065  1  0.653700  0.614600  0.916600  1
  N  N3066  1  0.346300  0.385400  0.916600  1
  N  N3067  1  0.885400  0.153700  0.416600  1
  N  N3068  1  0.114600  0.846300  0.416600  1
  N  N3069  1  0.846300  0.114600  0.583400  1
  N  N3070  1  0.153700  0.885400  0.583400  1
  N  N3071  1  0.614600  0.653700  0.083400  1
  N  N3072  1  0.385400  0.346300  0.083400  1
  N  N3073  1  0.659600  0.750000  0.700900  1
  N  N3074  1  0.340400  0.250000  0.700900  1
  N  N3075  1  0.750000  0.159600  0.200900  1
  N  N3076  1  0.250000  0.840400  0.200900  1
  N  N3077  1  0.840400  0.250000  0.799100  1
  N  N3078  1  0.159600  0.750000  0.799100  1
  N  N3079  1  0.750000  0.659600  0.299100  1
  N  N3080  1  0.250000  0.340400  0.299100  1
  N  N3081  1  0.730000  0.368100  0.696900  1
  N  N3082  1  0.270000  0.631900  0.696900  1
  N  N3083  1  0.131900  0.230000  0.196900  1
  N  N3084  1  0.868100  0.770000  0.196900  1
  N  N3085  1  0.770000  0.868100  0.803100  1
  N  N3086  1  0.230000  0.131900  0.803100  1
  N  N3087  1  0.368100  0.730000  0.303100  1
  N  N3088  1  0.631900  0.270000  0.303100  1
  N  N3089  1  0.773700  0.374900  0.752800  1
  N  N3090  1  0.226300  0.625100  0.752800  1
  N  N3091  1  0.125100  0.273700  0.252800  1
  N  N3092  1  0.874900  0.726300  0.252800  1
  N  N3093  1  0.726300  0.874900  0.747200  1
  N  N3094  1  0.273700  0.125100  0.747200  1
  N  N3095  1  0.374900  0.773700  0.247200  1
  N  N3096  1  0.625100  0.226300  0.247200  1
  N  N3097  1  0.823500  0.425300  0.723300  1
  N  N3098  1  0.176500  0.574700  0.723300  1
  N  N3099  1  0.074700  0.323500  0.223300  1
  N  N3100  1  0.925300  0.676500  0.223300  1
  N  N3101  1  0.676500  0.925300  0.776700  1
  N  N3102  1  0.323500  0.074700  0.776700  1
  N  N3103  1  0.425300  0.823500  0.276700  1
  N  N3104  1  0.574700  0.176500  0.276700  1
  N  N3105  1  0.667100  0.419600  0.577000  1
  N  N3106  1  0.332900  0.580400  0.577000  1
  N  N3107  1  0.080400  0.167100  0.077000  1
  N  N3108  1  0.919600  0.832900  0.077000  1
  N  N3109  1  0.832900  0.919600  0.923000  1
  N  N3110  1  0.167100  0.080400  0.923000  1
  N  N3111  1  0.419600  0.667100  0.423000  1
  N  N3112  1  0.580400  0.332900  0.423000  1
  N  N3113  1  0.638600  0.303700  0.801800  1
  N  N3114  1  0.361400  0.696300  0.801800  1
  N  N3115  1  0.196300  0.138600  0.301800  1
  N  N3116  1  0.803700  0.861400  0.301800  1
  N  N3117  1  0.861400  0.803700  0.698200  1
  N  N3118  1  0.138600  0.196300  0.698200  1
  N  N3119  1  0.303700  0.638600  0.198200  1
  N  N3120  1  0.696300  0.361400  0.198200  1
  N  N3121  1  0.868000  0.420100  0.852700  1
  N  N3122  1  0.132000  0.579900  0.852700  1
  N  N3123  1  0.079900  0.368000  0.352700  1
  N  N3124  1  0.920100  0.632000  0.352700  1
  N  N3125  1  0.632000  0.920100  0.647300  1
  N  N3126  1  0.368000  0.079900  0.647300  1
  N  N3127  1  0.420100  0.868000  0.147300  1
  N  N3128  1  0.579900  0.132000  0.147300  1
  N  N3129  1  0.871200  0.551500  0.634700  1
  N  N3130  1  0.128800  0.448500  0.634700  1
  N  N3131  1  0.948500  0.371200  0.134700  1
  N  N3132  1  0.051500  0.628800  0.134700  1
  N  N3133  1  0.628800  0.051500  0.865300  1
  N  N3134  1  0.371200  0.948500  0.865300  1
  N  N3135  1  0.551500  0.871200  0.365300  1
  N  N3136  1  0.448500  0.128800  0.365300  1
  N  N3137  1  0.627800  0.710500  0.615900  1
  N  N3138  1  0.372200  0.289500  0.615900  1
  N  N3139  1  0.789500  0.127800  0.115900  1
  N  N3140  1  0.210500  0.872200  0.115900  1
  N  N3141  1  0.872200  0.210500  0.884100  1
  N  N3142  1  0.127800  0.789500  0.884100  1
  N  N3143  1  0.710500  0.627800  0.384100  1
  N  N3144  1  0.289500  0.372200  0.384100  1
  N  N3145  1  0.686600  0.758100  0.637200  1
  N  N3146  1  0.313400  0.241900  0.637200  1
  N  N3147  1  0.741900  0.186600  0.137200  1
  N  N3148  1  0.258100  0.813400  0.137200  1
  N  N3149  1  0.813400  0.258100  0.862800  1
  N  N3150  1  0.186600  0.741900  0.862800  1
  N  N3151  1  0.758100  0.686600  0.362800  1
  N  N3152  1  0.241900  0.313400  0.362800  1
  N  N3153  1  0.839000  0.654300  0.599600  1
  N  N3154  1  0.161000  0.345700  0.599600  1
  N  N3155  1  0.845700  0.339000  0.099600  1
  N  N3156  1  0.154300  0.661000  0.099600  1
  N  N3157  1  0.661000  0.154300  0.900400  1
  N  N3158  1  0.339000  0.845700  0.900400  1
  N  N3159  1  0.654300  0.839000  0.400400  1
  N  N3160  1  0.345700  0.161000  0.400400  1
  N  N3161  1  0.836200  0.579800  0.579300  1
  N  N3162  1  0.163800  0.420200  0.579300  1
  N  N3163  1  0.920200  0.336200  0.079300  1
  N  N3164  1  0.079800  0.663800  0.079300  1
  N  N3165  1  0.663800  0.079800  0.920700  1
  N  N3166  1  0.336200  0.920200  0.920700  1
  N  N3167  1  0.579800  0.836200  0.420700  1
  N  N3168  1  0.420200  0.163800  0.420700  1
  N  N3169  1  0.688900  0.480700  0.535100  1
  N  N3170  1  0.311100  0.519300  0.535100  1
  N  N3171  1  0.019300  0.188900  0.035100  1
  N  N3172  1  0.980700  0.811100  0.035100  1
  N  N3173  1  0.811100  0.980700  0.964900  1
  N  N3174  1  0.188900  0.019300  0.964900  1
  N  N3175  1  0.480700  0.688900  0.464900  1
  N  N3176  1  0.519300  0.311100  0.464900  1
  N  N3177  1  0.620200  0.520900  0.551900  1
  N  N3178  1  0.379800  0.479100  0.551900  1
  N  N3179  1  0.979100  0.120200  0.051900  1
  N  N3180  1  0.020900  0.879800  0.051900  1
  N  N3181  1  0.879800  0.020900  0.948100  1
  N  N3182  1  0.120200  0.979100  0.948100  1
  N  N3183  1  0.520900  0.620200  0.448100  1
  N  N3184  1  0.479100  0.379800  0.448100  1
  N  N3185  1  0.602900  0.515600  0.930400  1
  N  N3186  1  0.397100  0.484400  0.930400  1
  N  N3187  1  0.984400  0.102900  0.430400  1
  N  N3188  1  0.015600  0.897100  0.430400  1
  N  N3189  1  0.897100  0.015600  0.569600  1
  N  N3190  1  0.102900  0.984400  0.569600  1
  N  N3191  1  0.515600  0.602900  0.069600  1
  N  N3192  1  0.484400  0.397100  0.069600  1
  N  N3193  1  0.668000  0.549900  0.952800  1
  N  N3194  1  0.332000  0.450100  0.952800  1
  N  N3195  1  0.950100  0.168000  0.452800  1
  N  N3196  1  0.049900  0.832000  0.452800  1
  N  N3197  1  0.832000  0.049900  0.547200  1
  N  N3198  1  0.168000  0.950100  0.547200  1
  N  N3199  1  0.549900  0.668000  0.047200  1
  N  N3200  1  0.450100  0.332000  0.047200  1
  N  N3201  1  0.823700  0.461600  0.934300  1
  N  N3202  1  0.176300  0.538400  0.934300  1
  N  N3203  1  0.038400  0.323700  0.434300  1
  N  N3204  1  0.961600  0.676300  0.434300  1
  N  N3205  1  0.676300  0.961600  0.565700  1
  N  N3206  1  0.323700  0.038400  0.565700  1
  N  N3207  1  0.461600  0.823700  0.065700  1
  N  N3208  1  0.538400  0.176300  0.065700  1
  N  N3209  1  0.824000  0.394700  0.906200  1
  N  N3210  1  0.176000  0.605300  0.906200  1
  N  N3211  1  0.105300  0.324000  0.406200  1
  N  N3212  1  0.894700  0.676000  0.406200  1
  N  N3213  1  0.676000  0.894700  0.593800  1
  N  N3214  1  0.324000  0.105300  0.593800  1
  N  N3215  1  0.394700  0.824000  0.093800  1
  N  N3216  1  0.605300  0.176000  0.093800  1
  N  N3217  1  0.661300  0.302500  0.864500  1
  N  N3218  1  0.338700  0.697500  0.864500  1
  N  N3219  1  0.197500  0.161300  0.364500  1
  N  N3220  1  0.802500  0.838700  0.364500  1
  N  N3221  1  0.838700  0.802500  0.635500  1
  N  N3222  1  0.161300  0.197500  0.635500  1
  N  N3223  1  0.302500  0.661300  0.135500  1
  N  N3224  1  0.697500  0.338700  0.135500  1
  N  N3225  1  0.595500  0.340700  0.880900  1
  N  N3226  1  0.404500  0.659300  0.880900  1
  N  N3227  1  0.159300  0.095500  0.380900  1
  N  N3228  1  0.840700  0.904500  0.380900  1
  N  N3229  1  0.904500  0.840700  0.619100  1
  N  N3230  1  0.095500  0.159300  0.619100  1
  N  N3231  1  0.340700  0.595500  0.119100  1
  N  N3232  1  0.659300  0.404500  0.119100  1
  N  N3233  1  0.782000  0.724900  0.641500  1
  N  N3234  1  0.218000  0.275100  0.641500  1
  N  N3235  1  0.775100  0.282000  0.141500  1
  N  N3236  1  0.224900  0.718000  0.141500  1
  N  N3237  1  0.718000  0.224900  0.858500  1
  N  N3238  1  0.282000  0.775100  0.858500  1
  N  N3239  1  0.724900  0.782000  0.358500  1
  N  N3240  1  0.275100  0.218000  0.358500  1
  N  N3241  1  0.763400  0.546800  0.949100  1
  N  N3242  1  0.236600  0.453200  0.949100  1
  N  N3243  1  0.953200  0.263400  0.449100  1
  N  N3244  1  0.046800  0.736600  0.449100  1
  N  N3245  1  0.736600  0.046800  0.550900  1
  N  N3246  1  0.263400  0.953200  0.550900  1
  N  N3247  1  0.546800  0.763400  0.050900  1
  N  N3248  1  0.453200  0.236600  0.050900  1
  N  N3249  1  0.637100  0.465500  0.859100  1
  N  N3250  1  0.362900  0.534500  0.859100  1
  N  N3251  1  0.034500  0.137100  0.359100  1
  N  N3252  1  0.965500  0.862900  0.359100  1
  N  N3253  1  0.862900  0.965500  0.640900  1
  N  N3254  1  0.137100  0.034500  0.640900  1
  N  N3255  1  0.465500  0.637100  0.140900  1
  N  N3256  1  0.534500  0.362900  0.140900  1
  N  N3257  1  0.741000  0.373500  0.861400  1
  N  N3258  1  0.259000  0.626500  0.861400  1
  N  N3259  1  0.126500  0.241000  0.361400  1
  N  N3260  1  0.873500  0.759000  0.361400  1
  N  N3261  1  0.759000  0.873500  0.638600  1
  N  N3262  1  0.241000  0.126500  0.638600  1
  N  N3263  1  0.373500  0.741000  0.138600  1
  N  N3264  1  0.626500  0.259000  0.138600  1
  N  N3265  1  0.610200  0.822500  0.634300  1
  N  N3266  1  0.389800  0.177500  0.634300  1
  N  N3267  1  0.677500  0.110200  0.134300  1
  N  N3268  1  0.322500  0.889800  0.134300  1
  N  N3269  1  0.889800  0.322500  0.865700  1
  N  N3270  1  0.110200  0.677500  0.865700  1
  N  N3271  1  0.822500  0.610200  0.365700  1
  N  N3272  1  0.177500  0.389800  0.365700  1
  N  N3273  1  0.569100  0.300100  0.697500  1
  N  N3274  1  0.430900  0.699900  0.697500  1
  N  N3275  1  0.199900  0.069100  0.197500  1
  N  N3276  1  0.800100  0.930900  0.197500  1
  N  N3277  1  0.930900  0.800100  0.802500  1
  N  N3278  1  0.069100  0.199900  0.802500  1
  N  N3279  1  0.300100  0.569100  0.302500  1
  N  N3280  1  0.699900  0.430900  0.302500  1
  N  N3281  1  0.623600  0.620000  0.604200  1
  N  N3282  1  0.376400  0.380000  0.604200  1
  N  N3283  1  0.880000  0.123600  0.104200  1
  N  N3284  1  0.120000  0.876400  0.104200  1
  N  N3285  1  0.876400  0.120000  0.895800  1
  N  N3286  1  0.123600  0.880000  0.895800  1
  N  N3287  1  0.620000  0.623600  0.395800  1
  N  N3288  1  0.380000  0.376400  0.395800  1
  O  O3289  1  0.735200  0.524700  0.813500  1
  O  O3290  1  0.264800  0.475300  0.813500  1
  O  O3291  1  0.975300  0.235200  0.313500  1
  O  O3292  1  0.024700  0.764800  0.313500  1
  O  O3293  1  0.764800  0.024700  0.686500  1
  O  O3294  1  0.235200  0.975300  0.686500  1
  O  O3295  1  0.524700  0.735200  0.186500  1
  O  O3296  1  0.475300  0.264800  0.186500  1
  O  O3297  1  0.691600  0.600300  0.722800  1
  O  O3298  1  0.308400  0.399700  0.722800  1
  O  O3299  1  0.899700  0.191600  0.222800  1
  O  O3300  1  0.100300  0.808400  0.222800  1
  O  O3301  1  0.808400  0.100300  0.777200  1
  O  O3302  1  0.191600  0.899700  0.777200  1
  O  O3303  1  0.600300  0.691600  0.277200  1
  O  O3304  1  0.399700  0.308400  0.277200  1
  O  O3305  1  0.761200  0.557500  0.673700  1
  O  O3306  1  0.238800  0.442500  0.673700  1
  O  O3307  1  0.942500  0.261200  0.173700  1
  O  O3308  1  0.057500  0.738800  0.173700  1
  O  O3309  1  0.738800  0.057500  0.826300  1
  O  O3310  1  0.261200  0.942500  0.826300  1
  O  O3311  1  0.557500  0.761200  0.326300  1
  O  O3312  1  0.442500  0.238800  0.326300  1
  O  O3313  1  0.680900  0.517500  0.625000  1
  O  O3314  1  0.319100  0.482500  0.625000  1
  O  O3315  1  0.982500  0.180900  0.125000  1
  O  O3316  1  0.017500  0.819100  0.125000  1
  O  O3317  1  0.819100  0.017500  0.875000  1
  O  O3318  1  0.180900  0.982500  0.875000  1
  O  O3319  1  0.517500  0.680900  0.375000  1
  O  O3320  1  0.482500  0.319100  0.375000  1
  O  O3321  1  0.720400  0.467800  0.749500  1
  O  O3322  1  0.279600  0.532200  0.749500  1
  O  O3323  1  0.032200  0.220400  0.249500  1
  O  O3324  1  0.967800  0.779600  0.249500  1
  O  O3325  1  0.779600  0.967800  0.750500  1
  O  O3326  1  0.220400  0.032200  0.750500  1
  O  O3327  1  0.467800  0.720400  0.250500  1
  O  O3328  1  0.532200  0.279600  0.250500  1
  O  O3329  1  0.627800  0.518400  0.738600  1
  O  O3330  1  0.372200  0.481600  0.738600  1
  O  O3331  1  0.981600  0.127800  0.238600  1
  O  O3332  1  0.018400  0.872200  0.238600  1
  O  O3333  1  0.872200  0.018400  0.761400  1
  O  O3334  1  0.127800  0.981600  0.761400  1
  O  O3335  1  0.518400  0.627800  0.261400  1
  O  O3336  1  0.481600  0.372200  0.261400  1
  O  O3337  1  0.819000  0.347200  0.691000  1
  O  O3338  1  0.181000  0.652800  0.691000  1
  O  O3339  1  0.152800  0.319000  0.191000  1
  O  O3340  1  0.847200  0.681000  0.191000  1
  O  O3341  1  0.681000  0.847200  0.809000  1
  O  O3342  1  0.319000  0.152800  0.809000  1
  O  O3343  1  0.347200  0.819000  0.309000  1
  O  O3344  1  0.652800  0.181000  0.309000  1
  O  O3345  1  0.821800  0.701300  0.816800  1
  O  O3346  1  0.178200  0.298700  0.816800  1
  O  O3347  1  0.798700  0.321800  0.316800  1
  O  O3348  1  0.201300  0.678200  0.316800  1
  O  O3349  1  0.678200  0.201300  0.683200  1
  O  O3350  1  0.321800  0.798700  0.683200  1
  O  O3351  1  0.701300  0.821800  0.183200  1
  O  O3352  1  0.298700  0.178200  0.183200  1
  O  O3353  1  0.761500  0.695800  0.636700  1
  O  O3354  1  0.238500  0.304200  0.636700  1
  O  O3355  1  0.804200  0.261500  0.136700  1
  O  O3356  1  0.195800  0.738500  0.136700  1
  O  O3357  1  0.738500  0.195800  0.863300  1
  O  O3358  1  0.261500  0.804200  0.863300  1
  O  O3359  1  0.695800  0.761500  0.363300  1
  O  O3360  1  0.304200  0.238500  0.363300  1
  O  O3361  1  0.818700  0.722900  0.638600  1
  O  O3362  1  0.181300  0.277100  0.638600  1
  O  O3363  1  0.777100  0.318700  0.138600  1
  O  O3364  1  0.222900  0.681300  0.138600  1
  O  O3365  1  0.681300  0.222900  0.861400  1
  O  O3366  1  0.318700  0.777100  0.861400  1
  O  O3367  1  0.722900  0.818700  0.361400  1
  O  O3368  1  0.277100  0.181300  0.361400  1
  O  O3369  1  0.770600  0.754400  0.653000  1
  O  O3370  1  0.229400  0.245600  0.653000  1
  O  O3371  1  0.745600  0.270600  0.153000  1
  O  O3372  1  0.254400  0.729400  0.153000  1
  O  O3373  1  0.729400  0.254400  0.847000  1
  O  O3374  1  0.270600  0.745600  0.847000  1
  O  O3375  1  0.754400  0.770600  0.347000  1
  O  O3376  1  0.245600  0.229400  0.347000  1
  O  O3377  1  0.754600  0.516300  0.935800  1
  O  O3378  1  0.245400  0.483700  0.935800  1
  O  O3379  1  0.983700  0.254600  0.435800  1
  O  O3380  1  0.016300  0.745400  0.435800  1
  O  O3381  1  0.745400  0.016300  0.564200  1
  O  O3382  1  0.254600  0.983700  0.564200  1
  O  O3383  1  0.516300  0.754600  0.064200  1
  O  O3384  1  0.483700  0.245400  0.064200  1
  O  O3385  1  0.802700  0.548400  0.950000  1
  O  O3386  1  0.197300  0.451600  0.950000  1
  O  O3387  1  0.951600  0.302700  0.450000  1
  O  O3388  1  0.048400  0.697300  0.450000  1
  O  O3389  1  0.697300  0.048400  0.550000  1
  O  O3390  1  0.302700  0.951600  0.550000  1
  O  O3391  1  0.548400  0.802700  0.050000  1
  O  O3392  1  0.451600  0.197300  0.050000  1
  O  O3393  1  0.746300  0.571800  0.954900  1
  O  O3394  1  0.253700  0.428200  0.954900  1
  O  O3395  1  0.928200  0.246300  0.454900  1
  O  O3396  1  0.071800  0.753700  0.454900  1
  O  O3397  1  0.753700  0.071800  0.545100  1
  O  O3398  1  0.246300  0.928200  0.545100  1
  O  O3399  1  0.571800  0.746300  0.045100  1
  O  O3400  1  0.428200  0.253700  0.045100  1
  O  O3401  1  0.620400  0.458100  0.884700  1
  O  O3402  1  0.379600  0.541900  0.884700  1
  O  O3403  1  0.041900  0.120400  0.384700  1
  O  O3404  1  0.958100  0.879600  0.384700  1
  O  O3405  1  0.879600  0.958100  0.615300  1
  O  O3406  1  0.120400  0.041900  0.615300  1
  O  O3407  1  0.458100  0.620400  0.115300  1
  O  O3408  1  0.541900  0.379600  0.115300  1
  O  O3409  1  0.637100  0.432700  0.843900  1
  O  O3410  1  0.362900  0.567300  0.843900  1
  O  O3411  1  0.067300  0.137100  0.343900  1
  O  O3412  1  0.932700  0.862900  0.343900  1
  O  O3413  1  0.862900  0.932700  0.656100  1
  O  O3414  1  0.137100  0.067300  0.656100  1
  O  O3415  1  0.432700  0.637100  0.156100  1
  O  O3416  1  0.567300  0.362900  0.156100  1
  O  O3417  1  0.646800  0.495300  0.850400  1
  O  O3418  1  0.353200  0.504700  0.850400  1
  O  O3419  1  0.004700  0.146800  0.350400  1
  O  O3420  1  0.995300  0.853200  0.350400  1
  O  O3421  1  0.853200  0.995300  0.649600  1
  O  O3422  1  0.146800  0.004700  0.649600  1
  O  O3423  1  0.495300  0.646800  0.149600  1
  O  O3424  1  0.504700  0.353200  0.149600  1
  O  O3425  1  0.765000  0.398900  0.864100  1
  O  O3426  1  0.235000  0.601100  0.864100  1
  O  O3427  1  0.101100  0.265000  0.364100  1
  O  O3428  1  0.898900  0.735000  0.364100  1
  O  O3429  1  0.735000  0.898900  0.635900  1
  O  O3430  1  0.265000  0.101100  0.635900  1
  O  O3431  1  0.398900  0.765000  0.135900  1
  O  O3432  1  0.601100  0.235000  0.135900  1
  O  O3433  1  0.708400  0.375200  0.852300  1
  O  O3434  1  0.291600  0.624800  0.852300  1
  O  O3435  1  0.124800  0.208400  0.352300  1
  O  O3436  1  0.875200  0.791600  0.352300  1
  O  O3437  1  0.791600  0.875200  0.647700  1
  O  O3438  1  0.208400  0.124800  0.647700  1
  O  O3439  1  0.375200  0.708400  0.147700  1
  O  O3440  1  0.624800  0.291600  0.147700  1
  O  O3441  1  0.754800  0.342000  0.871500  1
  O  O3442  1  0.245200  0.658000  0.871500  1
  O  O3443  1  0.158000  0.254800  0.371500  1
  O  O3444  1  0.842000  0.745200  0.371500  1
  O  O3445  1  0.745200  0.842000  0.628500  1
  O  O3446  1  0.254800  0.158000  0.628500  1
  O  O3447  1  0.342000  0.754800  0.128500  1
  O  O3448  1  0.658000  0.245200  0.128500  1
  O  O3449  1  0.648500  0.832400  0.641900  1
  O  O3450  1  0.351500  0.167600  0.641900  1
  O  O3451  1  0.667600  0.148500  0.141900  1
  O  O3452  1  0.332400  0.851500  0.141900  1
  O  O3453  1  0.851500  0.332400  0.858100  1
  O  O3454  1  0.148500  0.667600  0.858100  1
  O  O3455  1  0.832400  0.648500  0.358100  1
  O  O3456  1  0.167600  0.351500  0.358100  1
  O  O3457  1  0.611500  0.834800  0.605000  1
  O  O3458  1  0.388500  0.165200  0.605000  1
  O  O3459  1  0.665200  0.111500  0.105000  1
  O  O3460  1  0.334800  0.888500  0.105000  1
  O  O3461  1  0.888500  0.334800  0.895000  1
  O  O3462  1  0.111500  0.665200  0.895000  1
  O  O3463  1  0.834800  0.611500  0.395000  1
  O  O3464  1  0.165200  0.388500  0.395000  1
  O  O3465  1  0.591200  0.810800  0.653300  1
  O  O3466  1  0.408800  0.189200  0.653300  1
  O  O3467  1  0.689200  0.091200  0.153300  1
  O  O3468  1  0.310800  0.908800  0.153300  1
  O  O3469  1  0.908800  0.310800  0.846700  1
  O  O3470  1  0.091200  0.689200  0.846700  1
  O  O3471  1  0.810800  0.591200  0.346700  1
  O  O3472  1  0.189200  0.408800  0.346700  1
  O  O3473  1  0.573000  0.270000  0.684400  1
  O  O3474  1  0.427000  0.730000  0.684400  1
  O  O3475  1  0.230000  0.073000  0.184400  1
  O  O3476  1  0.770000  0.927000  0.184400  1
  O  O3477  1  0.927000  0.770000  0.815600  1
  O  O3478  1  0.073000  0.230000  0.815600  1
  O  O3479  1  0.270000  0.573000  0.315600  1
  O  O3480  1  0.730000  0.427000  0.315600  1
  O  O3481  1  0.565600  0.324300  0.677400  1
  O  O3482  1  0.434400  0.675700  0.677400  1
  O  O3483  1  0.175700  0.065600  0.177400  1
  O  O3484  1  0.824300  0.934400  0.177400  1
  O  O3485  1  0.934400  0.824300  0.822600  1
  O  O3486  1  0.065600  0.175700  0.822600  1
  O  O3487  1  0.324300  0.565600  0.322600  1
  O  O3488  1  0.675700  0.434400  0.322600  1
  O  O3489  1  0.564600  0.303600  0.723500  1
  O  O3490  1  0.435400  0.696400  0.723500  1
  O  O3491  1  0.196400  0.064600  0.223500  1
  O  O3492  1  0.803600  0.935400  0.223500  1
  O  O3493  1  0.935400  0.803600  0.776500  1
  O  O3494  1  0.064600  0.196400  0.776500  1
  O  O3495  1  0.303600  0.564600  0.276500  1
  O  O3496  1  0.696400  0.435400  0.276500  1
  O  O3497  1  0.585300  0.636100  0.590700  1
  O  O3498  1  0.414700  0.363900  0.590700  1
  O  O3499  1  0.863900  0.085300  0.090700  1
  O  O3500  1  0.136100  0.914700  0.090700  1
  O  O3501  1  0.914700  0.136100  0.909300  1
  O  O3502  1  0.085300  0.863900  0.909300  1
  O  O3503  1  0.636100  0.585300  0.409300  1
  O  O3504  1  0.363900  0.414700  0.409300  1
  O  O3505  1  0.637000  0.578000  0.595200  1
  O  O3506  1  0.363000  0.422000  0.595200  1
  O  O3507  1  0.922000  0.137000  0.095200  1
  O  O3508  1  0.078000  0.863000  0.095200  1
  O  O3509  1  0.863000  0.078000  0.904800  1
  O  O3510  1  0.137000  0.922000  0.904800  1
  O  O3511  1  0.578000  0.637000  0.404800  1
  O  O3512  1  0.422000  0.363000  0.404800  1
  O  O3513  1  0.654000  0.631800  0.628400  1
  O  O3514  1  0.346000  0.368200  0.628400  1
  O  O3515  1  0.868200  0.154000  0.128400  1
  O  O3516  1  0.131800  0.846000  0.128400  1
  O  O3517  1  0.846000  0.131800  0.871600  1
  O  O3518  1  0.154000  0.868200  0.871600  1
  O  O3519  1  0.631800  0.654000  0.371600  1
  O  O3520  1  0.368200  0.346000  0.371600  1
  O  O3521  1  0.665500  0.427200  0.481100  1
  O  O3522  1  0.334500  0.572800  0.481100  1
  O  O3523  1  0.072800  0.165500  0.981100  1
  O  O3524  1  0.927200  0.834500  0.981100  1
  O  O3525  1  0.834500  0.927200  0.018900  1
  O  O3526  1  0.165500  0.072800  0.018900  1
  O  O3527  1  0.427200  0.665500  0.518900  1
  O  O3528  1  0.572800  0.334500  0.518900  1
  O  O3529  1  0.553100  0.417700  0.891300  1
  O  O3530  1  0.446900  0.582300  0.891300  1
  O  O3531  1  0.082300  0.053100  0.391300  1
  O  O3532  1  0.917700  0.946900  0.391300  1
  O  O3533  1  0.946900  0.917700  0.608700  1
  O  O3534  1  0.053100  0.082300  0.608700  1
  O  O3535  1  0.417700  0.553100  0.108700  1
  O  O3536  1  0.582300  0.446900  0.108700  1
  O  O3537  1  0.701300  0.652200  0.674300  1
  O  O3538  1  0.298700  0.347800  0.674300  1
  O  O3539  1  0.847800  0.201300  0.174300  1
  O  O3540  1  0.152200  0.798700  0.174300  1
  O  O3541  1  0.798700  0.152200  0.825700  1
  O  O3542  1  0.201300  0.847800  0.825700  1
  O  O3543  1  0.652200  0.701300  0.325700  1
  O  O3544  1  0.347800  0.298700  0.325700  1
  O  O3545  1  0.539700  0.237500  0.758800  1
  O  O3546  1  0.460300  0.762500  0.758800  1
  O  O3547  1  0.262500  0.039700  0.258800  1
  O  O3548  1  0.737500  0.960300  0.258800  1
  O  O3549  1  0.960300  0.737500  0.741200  1
  O  O3550  1  0.039700  0.262500  0.741200  1
  O  O3551  1  0.237500  0.539700  0.241200  1
  O  O3552  1  0.762500  0.460300  0.241200  1
  O  O3553  1  0.946500  0.563800  0.712100  1
  O  O3554  1  0.053500  0.436200  0.712100  1
  O  O3555  1  0.936200  0.446500  0.212100  1
  O  O3556  1  0.063800  0.553500  0.212100  1
  O  O3557  1  0.553500  0.063800  0.787900  1
  O  O3558  1  0.446500  0.936200  0.787900  1
  O  O3559  1  0.563800  0.946500  0.287900  1
  O  O3560  1  0.436200  0.053500  0.287900  1
  O  O3561  1  0.960100  0.491100  0.735800  1
  O  O3562  1  0.039900  0.508900  0.735800  1
  O  O3563  1  0.008900  0.460100  0.235800  1
  O  O3564  1  0.991100  0.539900  0.235800  1
  O  O3565  1  0.539900  0.991100  0.764200  1
  O  O3566  1  0.460100  0.008900  0.764200  1
  O  O3567  1  0.491100  0.960100  0.264200  1
  O  O3568  1  0.508900  0.039900  0.264200  1
  O  O3569  1  0.711800  0.609800  0.588100  1
  O  O3570  1  0.288200  0.390200  0.588100  1
  O  O3571  1  0.890200  0.211800  0.088100  1
  O  O3572  1  0.109800  0.788200  0.088100  1
  O  O3573  1  0.788200  0.109800  0.911900  1
  O  O3574  1  0.211800  0.890200  0.911900  1
  O  O3575  1  0.609800  0.711800  0.411900  1
  O  O3576  1  0.390200  0.288200  0.411900  1
  O  O3577  1  0.946300  0.495100  0.801900  1
  O  O3578  1  0.053700  0.504900  0.801900  1
  O  O3579  1  0.004900  0.446300  0.301900  1
  O  O3580  1  0.995100  0.553700  0.301900  1
  O  O3581  1  0.553700  0.995100  0.698100  1
  O  O3582  1  0.446300  0.004900  0.698100  1
  O  O3583  1  0.495100  0.946300  0.198100  1
  O  O3584  1  0.504900  0.053700  0.198100  1
  O  O3585  1  0.592500  0.708200  0.881600  1
  O  O3586  1  0.407500  0.291800  0.881600  1
  O  O3587  1  0.791800  0.092500  0.381600  1
  O  O3588  1  0.208200  0.907500  0.381600  1
  O  O3589  1  0.907500  0.208200  0.618400  1
  O  O3590  1  0.092500  0.791800  0.618400  1
  O  O3591  1  0.708200  0.592500  0.118400  1
  O  O3592  1  0.291800  0.407500  0.118400  1
  O  O3593  1  0.996100  0.413400  0.663000  1
  O  O3594  1  0.003900  0.586600  0.663000  1
  O  O3595  1  0.086600  0.496100  0.163000  1
  O  O3596  1  0.913400  0.503900  0.163000  1
  O  O3597  1  0.503900  0.913400  0.837000  1
  O  O3598  1  0.496100  0.086600  0.837000  1
  O  O3599  1  0.413400  0.996100  0.337000  1
  O  O3600  1  0.586600  0.003900  0.337000  1
  O  O3601  1  0.013100  0.442700  0.812800  1
  O  O3602  1  0.986900  0.557300  0.812800  1
  O  O3603  1  0.057300  0.513100  0.312800  1
  O  O3604  1  0.942700  0.486900  0.312800  1
  O  O3605  1  0.486900  0.942700  0.687200  1
  O  O3606  1  0.513100  0.057300  0.687200  1
  O  O3607  1  0.442700  0.013100  0.187200  1
  O  O3608  1  0.557300  0.986900  0.187200  1
  O  O3609  1  0.924000  0.697100  0.576100  1
  O  O3610  1  0.076000  0.302900  0.576100  1
  O  O3611  1  0.802900  0.424000  0.076100  1
  O  O3612  1  0.197100  0.576000  0.076100  1
  O  O3613  1  0.576000  0.197100  0.923900  1
  O  O3614  1  0.424000  0.802900  0.923900  1
  O  O3615  1  0.697100  0.924000  0.423900  1
  O  O3616  1  0.302900  0.076000  0.423900  1
  O  O3617  1  0.759700  0.542500  0.595300  1
  O  O3618  1  0.240300  0.457500  0.595300  1
  O  O3619  1  0.957500  0.259700  0.095300  1
  O  O3620  1  0.042500  0.740300  0.095300  1
  O  O3621  1  0.740300  0.042500  0.904700  1
  O  O3622  1  0.259700  0.957500  0.904700  1
  O  O3623  1  0.542500  0.759700  0.404700  1
  O  O3624  1  0.457500  0.240300  0.404700  1
  O  O3625  1  0.763500  0.616400  0.638900  1
  O  O3626  1  0.236500  0.383600  0.638900  1
  O  O3627  1  0.883600  0.263500  0.138900  1
  O  O3628  1  0.116400  0.736500  0.138900  1
  O  O3629  1  0.736500  0.116400  0.861100  1
  O  O3630  1  0.263500  0.883600  0.861100  1
  O  O3631  1  0.616400  0.763500  0.361100  1
  O  O3632  1  0.383600  0.236500  0.361100  1
  O  O3633  1  0.781000  0.486600  0.551900  1
  O  O3634  1  0.219000  0.513400  0.551900  1
  O  O3635  1  0.013400  0.281000  0.051900  1
  O  O3636  1  0.986600  0.719000  0.051900  1
  O  O3637  1  0.719000  0.986600  0.948100  1
  O  O3638  1  0.281000  0.013400  0.948100  1
  O  O3639  1  0.486600  0.781000  0.448100  1
  O  O3640  1  0.513400  0.219000  0.448100  1
  O  O3641  1  0.560900  0.695500  0.945800  1
  O  O3642  1  0.439100  0.304500  0.945800  1
  O  O3643  1  0.804500  0.060900  0.445800  1
  O  O3644  1  0.195500  0.939100  0.445800  1
  O  O3645  1  0.939100  0.195500  0.554200  1
  O  O3646  1  0.060900  0.804500  0.554200  1
  O  O3647  1  0.695500  0.560900  0.054200  1
  O  O3648  1  0.304500  0.439100  0.054200  1
  O  O3649  1  0.899000  0.498000  0.959800  1
  O  O3650  1  0.101000  0.502000  0.959800  1
  O  O3651  1  0.002000  0.399000  0.459800  1
  O  O3652  1  0.998000  0.601000  0.459800  1
  O  O3653  1  0.601000  0.998000  0.540200  1
  O  O3654  1  0.399000  0.002000  0.540200  1
  O  O3655  1  0.498000  0.899000  0.040200  1
  O  O3656  1  0.502000  0.101000  0.040200  1
  O  O3657  1  0.588200  0.411800  0.500000  1
  O  O3658  1  0.411800  0.588200  0.500000  1
  O  O3659  1  0.088200  0.088200  0.000000  1
  O  O3660  1  0.911800  0.911800  0.000000  1
  O  O3661  1  0.799000  0.295000  0.649900  1
  O  O3662  1  0.201000  0.705000  0.649900  1
  O  O3663  1  0.205000  0.299000  0.149900  1
  O  O3664  1  0.795000  0.701000  0.149900  1
  O  O3665  1  0.701000  0.795000  0.850100  1
  O  O3666  1  0.299000  0.205000  0.850100  1
  O  O3667  1  0.295000  0.799000  0.350100  1
  O  O3668  1  0.705000  0.201000  0.350100  1
  O  O3669  1  0.532000  0.561000  0.977000  1
  O  O3670  1  0.468000  0.439000  0.977000  1
  O  O3671  1  0.939000  0.032000  0.477000  1
  O  O3672  1  0.061000  0.968000  0.477000  1
  O  O3673  1  0.968000  0.061000  0.523000  1
  O  O3674  1  0.032000  0.939000  0.523000  1
  O  O3675  1  0.561000  0.532000  0.023000  1
  O  O3676  1  0.439000  0.468000  0.023000  1
  O  O3677  1  0.560000  0.604000  0.575400  1
  O  O3678  1  0.440000  0.396000  0.575400  1
  O  O3679  1  0.896000  0.060000  0.075400  1
  O  O3680  1  0.104000  0.940000  0.075400  1
  O  O3681  1  0.940000  0.104000  0.924600  1
  O  O3682  1  0.060000  0.896000  0.924600  1
  O  O3683  1  0.604000  0.560000  0.424600  1
  O  O3684  1  0.396000  0.440000  0.424600  1
  O  O3685  1  0.521500  0.511700  0.908600  1
  O  O3686  1  0.478500  0.488300  0.908600  1
  O  O3687  1  0.988300  0.021500  0.408600  1
  O  O3688  1  0.011700  0.978500  0.408600  1
  O  O3689  1  0.978500  0.011700  0.591400  1
  O  O3690  1  0.021500  0.988300  0.591400  1
  O  O3691  1  0.511700  0.521500  0.091400  1
  O  O3692  1  0.488300  0.478500  0.091400  1
  O  O3693  1  0.589800  0.617700  0.993100  1
  O  O3694  1  0.410200  0.382300  0.993100  1
  O  O3695  1  0.882300  0.089800  0.493100  1
  O  O3696  1  0.117700  0.910200  0.493100  1
  O  O3697  1  0.910200  0.117700  0.506900  1
  O  O3698  1  0.089800  0.882300  0.506900  1
  O  O3699  1  0.617700  0.589800  0.006900  1
  O  O3700  1  0.382300  0.410200  0.006900  1
