# generated using pymatgen
data_Zn6H370Pd12C346N97O91
_symmetry_space_group_name_H-M   'P 1'
_cell_length_a   22.07500000
_cell_length_b   25.26500000
_cell_length_c   44.74000000
_cell_angle_alpha   90.00000000
_cell_angle_beta   90.00000000
_cell_angle_gamma   90.00000000
_symmetry_Int_Tables_number   1
_chemical_formula_structural   Zn6H370Pd12C346N97O91
_chemical_formula_sum   'Zn12 H740 Pd24 C692 N194 O182'
_cell_volume   24952.61090750
_cell_formula_units_Z   2
loop_
 _symmetry_equiv_pos_site_id
 _symmetry_equiv_pos_as_xyz
  1  'x, y, z'
loop_
 _atom_site_type_symbol
 _atom_site_label
 _atom_site_symmetry_multiplicity
 _atom_site_fract_x
 _atom_site_fract_y
 _atom_site_fract_z
 _atom_site_occupancy
  Zn  Zn1  1  0.551330  0.086820  0.742580  1
  Zn  Zn2  1  0.448670  0.913180  0.742580  1
  Zn  Zn3  1  0.448670  0.086820  0.257420  1
  Zn  Zn4  1  0.551330  0.913180  0.257420  1
  Zn  Zn5  1  0.660640  0.422280  0.792860  1
  Zn  Zn6  1  0.339360  0.577720  0.792860  1
  Zn  Zn7  1  0.339360  0.422280  0.207140  1
  Zn  Zn8  1  0.660640  0.577720  0.207140  1
  Zn  Zn9  1  0.939320  0.159390  0.709390  1
  Zn  Zn10  1  0.060680  0.840610  0.709390  1
  Zn  Zn11  1  0.060680  0.159390  0.290610  1
  Zn  Zn12  1  0.939320  0.840610  0.290610  1
  H  H13  1  0.736200  0.240300  0.884200  1
  H  H14  1  0.263800  0.759700  0.884200  1
  H  H15  1  0.263800  0.240300  0.115800  1
  H  H16  1  0.736200  0.759700  0.115800  1
  H  H17  1  0.802300  0.264800  0.879400  1
  H  H18  1  0.197700  0.735200  0.879400  1
  H  H19  1  0.197700  0.264800  0.120600  1
  H  H20  1  0.802300  0.735200  0.120600  1
  H  H21  1  0.793200  0.202000  0.879600  1
  H  H22  1  0.206800  0.798000  0.879600  1
  H  H23  1  0.206800  0.202000  0.120400  1
  H  H24  1  0.793200  0.798000  0.120400  1
  H  H25  1  0.575000  0.224700  0.762800  1
  H  H26  1  0.425000  0.775300  0.762800  1
  H  H27  1  0.425000  0.224700  0.237200  1
  H  H28  1  0.575000  0.775300  0.237200  1
  H  H29  1  0.575800  0.231500  0.814100  1
  H  H30  1  0.424200  0.768500  0.814100  1
  H  H31  1  0.424200  0.231500  0.185900  1
  H  H32  1  0.575800  0.768500  0.185900  1
  H  H33  1  0.581000  0.291500  0.802900  1
  H  H34  1  0.419000  0.708500  0.802900  1
  H  H35  1  0.419000  0.291500  0.197100  1
  H  H36  1  0.581000  0.708500  0.197100  1
  H  H37  1  0.640100  0.260800  0.814300  1
  H  H38  1  0.359900  0.739200  0.814300  1
  H  H39  1  0.359900  0.260800  0.185700  1
  H  H40  1  0.640100  0.739200  0.185700  1
  H  H41  1  0.741600  0.347200  0.728400  1
  H  H42  1  0.258400  0.652800  0.728400  1
  H  H43  1  0.258400  0.347200  0.271600  1
  H  H44  1  0.741600  0.652800  0.271600  1
  H  H45  1  0.807500  0.320800  0.769700  1
  H  H46  1  0.192500  0.679200  0.769700  1
  H  H47  1  0.192500  0.320800  0.230300  1
  H  H48  1  0.807500  0.679200  0.230300  1
  H  H49  1  0.844200  0.321900  0.738800  1
  H  H50  1  0.155800  0.678100  0.738800  1
  H  H51  1  0.155800  0.321900  0.261200  1
  H  H52  1  0.844200  0.678100  0.261200  1
  H  H53  1  0.822200  0.266700  0.752600  1
  H  H54  1  0.177800  0.733300  0.752600  1
  H  H55  1  0.177800  0.266700  0.247400  1
  H  H56  1  0.822200  0.733300  0.247400  1
  H  H57  1  0.771200  0.195500  0.667800  1
  H  H58  1  0.228800  0.804500  0.667800  1
  H  H59  1  0.228800  0.195500  0.332200  1
  H  H60  1  0.771200  0.804500  0.332200  1
  H  H61  1  0.778000  0.118500  0.698000  1
  H  H62  1  0.222000  0.881500  0.698000  1
  H  H63  1  0.222000  0.118500  0.302000  1
  H  H64  1  0.778000  0.881500  0.302000  1
  H  H65  1  0.735600  0.108600  0.669500  1
  H  H66  1  0.264400  0.891400  0.669500  1
  H  H67  1  0.264400  0.108600  0.330500  1
  H  H68  1  0.735600  0.891400  0.330500  1
  H  H69  1  0.705800  0.118200  0.701700  1
  H  H70  1  0.294200  0.881800  0.701700  1
  H  H71  1  0.294200  0.118200  0.298300  1
  H  H72  1  0.705800  0.881800  0.298300  1
  H  H73  1  0.837900  0.232500  0.781500  1
  H  H74  1  0.162100  0.767500  0.781500  1
  H  H75  1  0.162100  0.232500  0.218500  1
  H  H76  1  0.837900  0.767500  0.218500  1
  H  H77  1  0.772000  0.255500  0.787900  1
  H  H78  1  0.228000  0.744500  0.787900  1
  H  H79  1  0.228000  0.255500  0.212100  1
  H  H80  1  0.772000  0.744500  0.212100  1
  H  H81  1  0.679800  0.082700  0.790900  1
  H  H82  1  0.320200  0.917300  0.790900  1
  H  H83  1  0.320200  0.082700  0.209100  1
  H  H84  1  0.679800  0.917300  0.209100  1
  H  H85  1  0.720600  0.087400  0.761100  1
  H  H86  1  0.279400  0.912600  0.761100  1
  H  H87  1  0.279400  0.087400  0.238900  1
  H  H88  1  0.720600  0.912600  0.238900  1
  H  H89  1  0.556100  0.242500  0.696300  1
  H  H90  1  0.443900  0.757500  0.696300  1
  H  H91  1  0.443900  0.242500  0.303700  1
  H  H92  1  0.556100  0.757500  0.303700  1
  H  H93  1  0.560900  0.207400  0.666667  1
  H  H94  1  0.439100  0.792600  0.666667  1
  H  H95  1  0.439100  0.207400  0.333333  1
  H  H96  1  0.560900  0.792600  0.333333  1
  H  H97  1  0.612400  0.352900  0.650400  1
  H  H98  1  0.387600  0.647100  0.650400  1
  H  H99  1  0.387600  0.352900  0.349600  1
  H  H100  1  0.612400  0.647100  0.349600  1
  H  H101  1  0.645600  0.317200  0.672400  1
  H  H102  1  0.354400  0.682800  0.672400  1
  H  H103  1  0.354400  0.317200  0.327600  1
  H  H104  1  0.645600  0.682800  0.327600  1
  H  H105  1  0.671300  0.195000  0.797600  1
  H  H106  1  0.328700  0.805000  0.797600  1
  H  H107  1  0.328700  0.195000  0.202400  1
  H  H108  1  0.671300  0.805000  0.202400  1
  H  H109  1  0.717100  0.280600  0.771000  1
  H  H110  1  0.282900  0.719400  0.771000  1
  H  H111  1  0.282900  0.280600  0.229000  1
  H  H112  1  0.717100  0.719400  0.229000  1
  H  H113  1  0.752800  0.212900  0.725400  1
  H  H114  1  0.247200  0.787100  0.725400  1
  H  H115  1  0.247200  0.212900  0.274600  1
  H  H116  1  0.752800  0.787100  0.274600  1
  H  H117  1  0.844300  0.208600  0.830400  1
  H  H118  1  0.155700  0.791400  0.830400  1
  H  H119  1  0.155700  0.208600  0.169600  1
  H  H120  1  0.844300  0.791400  0.169600  1
  H  H121  1  0.752900  0.137100  0.812800  1
  H  H122  1  0.247100  0.862900  0.812800  1
  H  H123  1  0.247100  0.137100  0.187200  1
  H  H124  1  0.752900  0.862900  0.187200  1
  H  H125  1  0.652500  0.235900  0.702000  1
  H  H126  1  0.347500  0.764100  0.702000  1
  H  H127  1  0.347500  0.235900  0.298000  1
  H  H128  1  0.652500  0.764100  0.298000  1
  H  H129  1  0.541600  0.046900  0.854200  1
  H  H130  1  0.458400  0.953100  0.854200  1
  H  H131  1  0.458400  0.046900  0.145800  1
  H  H132  1  0.541600  0.953100  0.145800  1
  H  H133  1  0.605500  0.977900  0.836200  1
  H  H134  1  0.394500  0.022100  0.836200  1
  H  H135  1  0.394500  0.977900  0.163800  1
  H  H136  1  0.605500  0.022100  0.163800  1
  H  H137  1  0.713200  0.938400  0.728000  1
  H  H138  1  0.286800  0.061600  0.728000  1
  H  H139  1  0.286800  0.938400  0.272000  1
  H  H140  1  0.713200  0.061600  0.272000  1
  H  H141  1  0.690700  0.972200  0.677500  1
  H  H142  1  0.309300  0.027800  0.677500  1
  H  H143  1  0.309300  0.972200  0.322500  1
  H  H144  1  0.690700  0.027800  0.322500  1
  H  H145  1  0.514300  0.099400  0.628800  1
  H  H146  1  0.485700  0.900600  0.628800  1
  H  H147  1  0.485700  0.099400  0.371200  1
  H  H148  1  0.514300  0.900600  0.371200  1
  H  H149  1  0.439200  0.155700  0.648800  1
  H  H150  1  0.560800  0.844300  0.648800  1
  H  H151  1  0.560800  0.155700  0.351200  1
  H  H152  1  0.439200  0.844300  0.351200  1
  H  H153  1  0.406000  0.243200  0.753700  1
  H  H154  1  0.594000  0.756800  0.753700  1
  H  H155  1  0.594000  0.243200  0.246300  1
  H  H156  1  0.406000  0.756800  0.246300  1
  H  H157  1  0.433100  0.216300  0.809600  1
  H  H158  1  0.566900  0.783700  0.809600  1
  H  H159  1  0.566900  0.216300  0.190400  1
  H  H160  1  0.433100  0.783700  0.190400  1
  H  H161  1  0.718300  0.985600  0.815700  1
  H  H162  1  0.281700  0.014400  0.815700  1
  H  H163  1  0.281700  0.985600  0.184300  1
  H  H164  1  0.718300  0.014400  0.184300  1
  H  H165  1  0.636400  0.883700  0.760700  1
  H  H166  1  0.363600  0.116300  0.760700  1
  H  H167  1  0.363600  0.883700  0.239300  1
  H  H168  1  0.636400  0.116300  0.239300  1
  H  H169  1  0.697300  0.815200  0.782900  1
  H  H170  1  0.302700  0.184800  0.782900  1
  H  H171  1  0.302700  0.815200  0.217100  1
  H  H172  1  0.697300  0.184800  0.217100  1
  H  H173  1  0.762800  0.834200  0.819500  1
  H  H174  1  0.237200  0.165800  0.819500  1
  H  H175  1  0.237200  0.834200  0.180500  1
  H  H176  1  0.762800  0.165800  0.180500  1
  H  H177  1  0.640400  0.100500  0.627000  1
  H  H178  1  0.359600  0.899500  0.627000  1
  H  H179  1  0.359600  0.100500  0.373000  1
  H  H180  1  0.640400  0.899500  0.373000  1
  H  H181  1  0.592300  0.947100  0.645700  1
  H  H182  1  0.407700  0.052900  0.645700  1
  H  H183  1  0.407700  0.947100  0.354300  1
  H  H184  1  0.592300  0.052900  0.354300  1
  H  H185  1  0.644200  0.918600  0.599200  1
  H  H186  1  0.355800  0.081400  0.599200  1
  H  H187  1  0.355800  0.918600  0.400800  1
  H  H188  1  0.644200  0.081400  0.400800  1
  H  H189  1  0.662700  0.986400  0.566200  1
  H  H190  1  0.337300  0.013600  0.566200  1
  H  H191  1  0.337300  0.986400  0.433800  1
  H  H192  1  0.662700  0.013600  0.433800  1
  H  H193  1  0.454300  0.258300  0.682000  1
  H  H194  1  0.545700  0.741700  0.682000  1
  H  H195  1  0.545700  0.258300  0.318000  1
  H  H196  1  0.454300  0.741700  0.318000  1
  H  H197  1  0.322600  0.159900  0.714700  1
  H  H198  1  0.677400  0.840100  0.714700  1
  H  H199  1  0.677400  0.159900  0.285300  1
  H  H200  1  0.322600  0.840100  0.285300  1
  H  H201  1  0.259600  0.233200  0.701300  1
  H  H202  1  0.740400  0.766800  0.701300  1
  H  H203  1  0.740400  0.233200  0.298700  1
  H  H204  1  0.259600  0.766800  0.298700  1
  H  H205  1  0.290300  0.303300  0.668600  1
  H  H206  1  0.709700  0.696700  0.668600  1
  H  H207  1  0.709700  0.303300  0.331400  1
  H  H208  1  0.290300  0.696700  0.331400  1
  H  H209  1  0.565000  0.154800  0.860000  1
  H  H210  1  0.435000  0.845200  0.860000  1
  H  H211  1  0.435000  0.154800  0.140000  1
  H  H212  1  0.565000  0.845200  0.140000  1
  H  H213  1  0.389900  0.140800  0.832800  1
  H  H214  1  0.610100  0.859200  0.832800  1
  H  H215  1  0.610100  0.140800  0.167200  1
  H  H216  1  0.389900  0.859200  0.167200  1
  H  H217  1  0.362700  0.165900  0.883600  1
  H  H218  1  0.637300  0.834100  0.883600  1
  H  H219  1  0.637300  0.165900  0.116400  1
  H  H220  1  0.362700  0.834100  0.116400  1
  H  H221  1  0.432300  0.173500  0.919200  1
  H  H222  1  0.567700  0.826500  0.919200  1
  H  H223  1  0.567700  0.173500  0.080800  1
  H  H224  1  0.432300  0.826500  0.080800  1
  H  H225  1  0.962500  0.055700  0.808000  1
  H  H226  1  0.037500  0.944300  0.808000  1
  H  H227  1  0.037500  0.055700  0.192000  1
  H  H228  1  0.962500  0.944300  0.192000  1
  H  H229  1  0.990800  0.143800  0.820600  1
  H  H230  1  0.009200  0.856200  0.820600  1
  H  H231  1  0.009200  0.143800  0.179400  1
  H  H232  1  0.990800  0.856200  0.179400  1
  H  H233  1  0.007600  0.323300  0.765100  1
  H  H234  1  0.992400  0.676700  0.765100  1
  H  H235  1  0.992400  0.323300  0.234900  1
  H  H236  1  0.007600  0.676700  0.234900  1
  H  H237  1  0.970900  0.369500  0.716500  1
  H  H238  1  0.029100  0.630500  0.716500  1
  H  H239  1  0.029100  0.369500  0.283500  1
  H  H240  1  0.970900  0.630500  0.283500  1
  H  H241  1  0.912800  0.272900  0.612200  1
  H  H242  1  0.087200  0.727100  0.612200  1
  H  H243  1  0.087200  0.272900  0.387800  1
  H  H244  1  0.912800  0.727100  0.387800  1
  H  H245  1  0.887000  0.177700  0.598600  1
  H  H246  1  0.113000  0.822300  0.598600  1
  H  H247  1  0.113000  0.177700  0.401400  1
  H  H248  1  0.887000  0.822300  0.401400  1
  H  H249  1  0.821700  0.002900  0.660300  1
  H  H250  1  0.178300  0.997100  0.660300  1
  H  H251  1  0.178300  0.002900  0.339700  1
  H  H252  1  0.821700  0.997100  0.339700  1
  H  H253  1  0.843600  0.975900  0.712800  1
  H  H254  1  0.156400  0.024100  0.712800  1
  H  H255  1  0.156400  0.975900  0.287200  1
  H  H256  1  0.843600  0.024100  0.287200  1
  H  H257  1  0.941300  0.236000  0.826100  1
  H  H258  1  0.058700  0.764000  0.826100  1
  H  H259  1  0.058700  0.236000  0.173900  1
  H  H260  1  0.941300  0.764000  0.173900  1
  H  H261  1  0.090200  0.262600  0.782400  1
  H  H262  1  0.909800  0.737400  0.782400  1
  H  H263  1  0.909800  0.262600  0.217600  1
  H  H264  1  0.090200  0.737400  0.217600  1
  H  H265  1  0.140700  0.305200  0.826800  1
  H  H266  1  0.859300  0.694800  0.826800  1
  H  H267  1  0.859300  0.305200  0.173200  1
  H  H268  1  0.140700  0.694800  0.173200  1
  H  H269  1  0.065500  0.317800  0.861600  1
  H  H270  1  0.934500  0.682200  0.861600  1
  H  H271  1  0.934500  0.317800  0.138400  1
  H  H272  1  0.065500  0.682200  0.138400  1
  H  H273  1  0.853500  0.339200  0.652600  1
  H  H274  1  0.146500  0.660800  0.652600  1
  H  H275  1  0.146500  0.339200  0.347400  1
  H  H276  1  0.853500  0.660800  0.347400  1
  H  H277  1  0.037000  0.347900  0.665200  1
  H  H278  1  0.963000  0.652100  0.665200  1
  H  H279  1  0.963000  0.347900  0.334800  1
  H  H280  1  0.037000  0.652100  0.334800  1
  H  H281  1  0.039200  0.415600  0.626600  1
  H  H282  1  0.960800  0.584400  0.626600  1
  H  H283  1  0.960800  0.415600  0.373400  1
  H  H284  1  0.039200  0.584400  0.373400  1
  H  H285  1  0.951900  0.462500  0.618500  1
  H  H286  1  0.048100  0.537500  0.618500  1
  H  H287  1  0.048100  0.462500  0.381500  1
  H  H288  1  0.951900  0.537500  0.381500  1
  H  H289  1  0.782600  0.126400  0.614700  1
  H  H290  1  0.217400  0.873600  0.614700  1
  H  H291  1  0.217400  0.126400  0.385300  1
  H  H292  1  0.782600  0.873600  0.385300  1
  H  H293  1  0.915900  0.010600  0.615100  1
  H  H294  1  0.084100  0.989400  0.615100  1
  H  H295  1  0.084100  0.010600  0.384900  1
  H  H296  1  0.915900  0.989400  0.384900  1
  H  H297  1  0.878100  0.982400  0.568100  1
  H  H298  1  0.121900  0.017600  0.568100  1
  H  H299  1  0.121900  0.982400  0.431900  1
  H  H300  1  0.878100  0.017600  0.431900  1
  H  H301  1  0.785400  0.019700  0.550900  1
  H  H302  1  0.214600  0.980300  0.550900  1
  H  H303  1  0.214600  0.019700  0.449100  1
  H  H304  1  0.785400  0.980300  0.449100  1
  H  H305  1  0.862300  0.020200  0.805100  1
  H  H306  1  0.137700  0.979800  0.805100  1
  H  H307  1  0.137700  0.020200  0.194900  1
  H  H308  1  0.862300  0.979800  0.194900  1
  H  H309  1  0.932600  0.947200  0.730500  1
  H  H310  1  0.067400  0.052800  0.730500  1
  H  H311  1  0.067400  0.947200  0.269500  1
  H  H312  1  0.932600  0.052800  0.269500  1
  H  H313  1  0.920600  0.864400  0.752200  1
  H  H314  1  0.079400  0.135600  0.752200  1
  H  H315  1  0.079400  0.864400  0.247800  1
  H  H316  1  0.920600  0.135600  0.247800  1
  H  H317  1  0.868200  0.860100  0.800600  1
  H  H318  1  0.131800  0.139900  0.800600  1
  H  H319  1  0.131800  0.860100  0.199400  1
  H  H320  1  0.868200  0.139900  0.199400  1
  H  H321  1  0.770000  0.379200  0.893100  1
  H  H322  1  0.230000  0.620800  0.893100  1
  H  H323  1  0.230000  0.379200  0.106900  1
  H  H324  1  0.770000  0.620800  0.106900  1
  H  H325  1  0.664900  0.354600  0.900000  1
  H  H326  1  0.335100  0.645400  0.900000  1
  H  H327  1  0.335100  0.354600  0.100000  1
  H  H328  1  0.664900  0.645400  0.100000  1
  H  H329  1  0.461000  0.335400  0.838300  1
  H  H330  1  0.539000  0.664600  0.838300  1
  H  H331  1  0.539000  0.335400  0.161700  1
  H  H332  1  0.461000  0.664600  0.161700  1
  H  H333  1  0.439200  0.362100  0.784500  1
  H  H334  1  0.560800  0.637900  0.784500  1
  H  H335  1  0.560800  0.362100  0.215500  1
  H  H336  1  0.439200  0.637900  0.215500  1
  H  H337  1  0.546400  0.457100  0.694900  1
  H  H338  1  0.453600  0.542900  0.694900  1
  H  H339  1  0.453600  0.457100  0.305100  1
  H  H340  1  0.546400  0.542900  0.305100  1
  H  H341  1  0.652000  0.471900  0.682000  1
  H  H342  1  0.348000  0.528100  0.682000  1
  H  H343  1  0.348000  0.471900  0.318000  1
  H  H344  1  0.652000  0.528100  0.318000  1
  H  H345  1  0.860900  0.450200  0.739500  1
  H  H346  1  0.139100  0.549800  0.739500  1
  H  H347  1  0.139100  0.450200  0.260500  1
  H  H348  1  0.860900  0.549800  0.260500  1
  H  H349  1  0.895700  0.430700  0.793100  1
  H  H350  1  0.104300  0.569300  0.793100  1
  H  H351  1  0.104300  0.430700  0.206900  1
  H  H352  1  0.895700  0.569300  0.206900  1
  H  H353  1  0.604100  0.275500  0.879300  1
  H  H354  1  0.395900  0.724500  0.879300  1
  H  H355  1  0.395900  0.275500  0.120700  1
  H  H356  1  0.604100  0.724500  0.120700  1
  H  H357  1  0.506000  0.407000  0.886100  1
  H  H358  1  0.494000  0.593000  0.886100  1
  H  H359  1  0.494000  0.407000  0.113900  1
  H  H360  1  0.506000  0.593000  0.113900  1
  H  H361  1  0.457900  0.369100  0.931200  1
  H  H362  1  0.542100  0.630900  0.931200  1
  H  H363  1  0.542100  0.369100  0.068800  1
  H  H364  1  0.457900  0.630900  0.068800  1
  H  H365  1  0.492100  0.283600  0.947000  1
  H  H366  1  0.507900  0.716400  0.947000  1
  H  H367  1  0.507900  0.283600  0.053000  1
  H  H368  1  0.492100  0.716400  0.053000  1
  H  H369  1  0.495200  0.377500  0.696000  1
  H  H370  1  0.504800  0.622500  0.696000  1
  H  H371  1  0.504800  0.377500  0.304000  1
  H  H372  1  0.495200  0.622500  0.304000  1
  H  H373  1  0.421300  0.451300  0.765500  1
  H  H374  1  0.578700  0.548700  0.765500  1
  H  H375  1  0.578700  0.451300  0.234500  1
  H  H376  1  0.421300  0.548700  0.234500  1
  H  H377  1  0.327300  0.442200  0.744700  1
  H  H378  1  0.672700  0.557800  0.744700  1
  H  H379  1  0.672700  0.442200  0.255300  1
  H  H380  1  0.327300  0.557800  0.255300  1
  H  H381  1  0.319400  0.397800  0.695400  1
  H  H382  1  0.680600  0.602200  0.695400  1
  H  H383  1  0.680600  0.397800  0.304600  1
  H  H384  1  0.319400  0.602200  0.304600  1
  H  H385  1  0.761600  0.417100  0.674200  1
  H  H386  1  0.238400  0.582900  0.674200  1
  H  H387  1  0.238400  0.417100  0.325800  1
  H  H388  1  0.761600  0.582900  0.325800  1
  H  H389  1  0.794600  0.555100  0.723100  1
  H  H390  1  0.205400  0.444900  0.723100  1
  H  H391  1  0.205400  0.555100  0.276900  1
  H  H392  1  0.794600  0.444900  0.276900  1
  H  H393  1  0.836900  0.590400  0.678900  1
  H  H394  1  0.163100  0.409600  0.678900  1
  H  H395  1  0.163100  0.590400  0.321100  1
  H  H396  1  0.836900  0.409600  0.321100  1
  H  H397  1  0.853900  0.541600  0.636700  1
  H  H398  1  0.146100  0.458400  0.636700  1
  H  H399  1  0.146100  0.541600  0.363300  1
  H  H400  1  0.853900  0.458400  0.363300  1
  H  H401  1  0.847700  0.325500  0.852200  1
  H  H402  1  0.152300  0.674500  0.852200  1
  H  H403  1  0.152300  0.325500  0.147800  1
  H  H404  1  0.847700  0.674500  0.147800  1
  H  H405  1  0.872800  0.485600  0.845100  1
  H  H406  1  0.127200  0.514400  0.845100  1
  H  H407  1  0.127200  0.485600  0.154900  1
  H  H408  1  0.872800  0.514400  0.154900  1
  H  H409  1  0.959400  0.481800  0.877500  1
  H  H410  1  0.040600  0.518200  0.877500  1
  H  H411  1  0.040600  0.481800  0.122500  1
  H  H412  1  0.959400  0.518200  0.122500  1
  H  H413  1  0.980000  0.401500  0.901100  1
  H  H414  1  0.020000  0.598500  0.901100  1
  H  H415  1  0.020000  0.401500  0.098900  1
  H  H416  1  0.980000  0.598500  0.098900  1
  H  H417  1  0.806400  0.997900  0.901500  1
  H  H418  1  0.193600  0.002100  0.901500  1
  H  H419  1  0.193600  0.997900  0.098500  1
  H  H420  1  0.806400  0.002100  0.098500  1
  H  H421  1  0.754600  0.959600  0.943200  1
  H  H422  1  0.245400  0.040400  0.943200  1
  H  H423  1  0.245400  0.959600  0.056800  1
  H  H424  1  0.754600  0.040400  0.056800  1
  H  H425  1  0.800800  0.910800  0.943800  1
  H  H426  1  0.199200  0.089200  0.943800  1
  H  H427  1  0.199200  0.910800  0.056200  1
  H  H428  1  0.800800  0.089200  0.056200  1
  H  H429  1  0.827600  0.970400  0.981500  1
  H  H430  1  0.172400  0.029600  0.981500  1
  H  H431  1  0.172400  0.970400  0.018500  1
  H  H432  1  0.827600  0.029600  0.018500  1
  H  H433  1  0.832100  0.017700  0.957700  1
  H  H434  1  0.167900  0.982300  0.957700  1
  H  H435  1  0.167900  0.017700  0.042300  1
  H  H436  1  0.832100  0.982300  0.042300  1
  H  H437  1  0.906600  0.924700  0.954500  1
  H  H438  1  0.093400  0.075300  0.954500  1
  H  H439  1  0.093400  0.924700  0.045500  1
  H  H440  1  0.906600  0.075300  0.045500  1
  H  H441  1  0.929900  0.979100  0.968900  1
  H  H442  1  0.070100  0.020900  0.968900  1
  H  H443  1  0.070100  0.979100  0.031100  1
  H  H444  1  0.929900  0.020900  0.031100  1
  H  H445  1  0.963900  0.979300  0.918200  1
  H  H446  1  0.036100  0.020700  0.918200  1
  H  H447  1  0.036100  0.979300  0.081800  1
  H  H448  1  0.963900  0.020700  0.081800  1
  H  H449  1  0.909200  0.021800  0.919500  1
  H  H450  1  0.090800  0.978200  0.919500  1
  H  H451  1  0.090800  0.021800  0.080500  1
  H  H452  1  0.909200  0.978200  0.080500  1
  H  H453  1  0.888900  0.909200  0.906800  1
  H  H454  1  0.111100  0.090800  0.906800  1
  H  H455  1  0.111100  0.909200  0.093200  1
  H  H456  1  0.888900  0.090800  0.093200  1
  H  H457  1  0.903400  0.182800  0.919700  1
  H  H458  1  0.096600  0.817200  0.919700  1
  H  H459  1  0.096600  0.182800  0.080300  1
  H  H460  1  0.903400  0.817200  0.080300  1
  H  H461  1  0.972200  0.111900  0.934200  1
  H  H462  1  0.027800  0.888100  0.934200  1
  H  H463  1  0.027800  0.111900  0.065800  1
  H  H464  1  0.972200  0.888100  0.065800  1
  H  H465  1  0.006400  0.149700  0.957800  1
  H  H466  1  0.993600  0.850300  0.957800  1
  H  H467  1  0.993600  0.149700  0.042200  1
  H  H468  1  0.006400  0.850300  0.042200  1
  H  H469  1  0.878400  0.116400  0.962800  1
  H  H470  1  0.121600  0.883600  0.962800  1
  H  H471  1  0.121600  0.116400  0.037200  1
  H  H472  1  0.878400  0.883600  0.037200  1
  H  H473  1  0.930000  0.099600  0.986000  1
  H  H474  1  0.070000  0.900400  0.986000  1
  H  H475  1  0.070000  0.099600  0.014000  1
  H  H476  1  0.930000  0.900400  0.014000  1
  H  H477  1  0.866200  0.168300  0.007000  1
  H  H478  1  0.133800  0.831700  0.007000  1
  H  H479  1  0.133800  0.168300  0.993000  1
  H  H480  1  0.866200  0.831700  0.993000  1
  H  H481  1  0.935100  0.188700  0.004700  1
  H  H482  1  0.064900  0.811300  0.004700  1
  H  H483  1  0.064900  0.188700  0.995300  1
  H  H484  1  0.935100  0.811300  0.995300  1
  H  H485  1  0.868900  0.249400  0.984700  1
  H  H486  1  0.131100  0.750600  0.984700  1
  H  H487  1  0.131100  0.249400  0.015300  1
  H  H488  1  0.868900  0.750600  0.015300  1
  H  H489  1  0.843500  0.205800  0.962400  1
  H  H490  1  0.156500  0.794200  0.962400  1
  H  H491  1  0.156500  0.205800  0.037600  1
  H  H492  1  0.843500  0.794200  0.037600  1
  H  H493  1  0.959700  0.251200  0.959000  1
  H  H494  1  0.040300  0.748800  0.959000  1
  H  H495  1  0.040300  0.251200  0.041000  1
  H  H496  1  0.959700  0.748800  0.041000  1
  H  H497  1  0.694100  0.163200  0.939800  1
  H  H498  1  0.305900  0.836800  0.939800  1
  H  H499  1  0.305900  0.163200  0.060200  1
  H  H500  1  0.694100  0.836800  0.060200  1
  H  H501  1  0.681800  0.178900  0.004300  1
  H  H502  1  0.318200  0.821100  0.004300  1
  H  H503  1  0.318200  0.178900  0.995700  1
  H  H504  1  0.681800  0.821100  0.995700  1
  H  H505  1  0.737300  0.201600  0.985100  1
  H  H506  1  0.262700  0.798400  0.985100  1
  H  H507  1  0.262700  0.201600  0.014900  1
  H  H508  1  0.737300  0.798400  0.014900  1
  H  H509  1  0.773400  0.112300  0.975200  1
  H  H510  1  0.226600  0.887700  0.975200  1
  H  H511  1  0.226600  0.112300  0.024800  1
  H  H512  1  0.773400  0.887700  0.024800  1
  H  H513  1  0.766500  0.118600  0.010700  1
  H  H514  1  0.233500  0.881400  0.010700  1
  H  H515  1  0.233500  0.118600  0.989300  1
  H  H516  1  0.766500  0.881400  0.989300  1
  H  H517  1  0.675900  0.081500  0.010000  1
  H  H518  1  0.324100  0.918500  0.010000  1
  H  H519  1  0.324100  0.081500  0.990000  1
  H  H520  1  0.675900  0.918500  0.990000  1
  H  H521  1  0.723900  0.043100  0.994700  1
  H  H522  1  0.276100  0.956900  0.994700  1
  H  H523  1  0.276100  0.043100  0.005300  1
  H  H524  1  0.723900  0.956900  0.005300  1
  H  H525  1  0.632000  0.038500  0.971200  1
  H  H526  1  0.368000  0.961500  0.971200  1
  H  H527  1  0.368000  0.038500  0.028800  1
  H  H528  1  0.632000  0.961500  0.028800  1
  H  H529  1  0.682800  0.059800  0.948500  1
  H  H530  1  0.317200  0.940200  0.948500  1
  H  H531  1  0.317200  0.059800  0.051500  1
  H  H532  1  0.682800  0.940200  0.051500  1
  H  H533  1  0.595000  0.128200  0.980000  1
  H  H534  1  0.405000  0.871800  0.980000  1
  H  H535  1  0.405000  0.128200  0.020000  1
  H  H536  1  0.595000  0.871800  0.020000  1
  H  H537  1  0.625200  0.151200  0.513700  1
  H  H538  1  0.374800  0.848800  0.513700  1
  H  H539  1  0.374800  0.151200  0.486300  1
  H  H540  1  0.625200  0.848800  0.486300  1
  H  H541  1  0.555700  0.227500  0.543000  1
  H  H542  1  0.444300  0.772500  0.543000  1
  H  H543  1  0.444300  0.227500  0.457000  1
  H  H544  1  0.555700  0.772500  0.457000  1
  H  H545  1  0.532400  0.183600  0.519800  1
  H  H546  1  0.467600  0.816400  0.519800  1
  H  H547  1  0.467600  0.183600  0.480200  1
  H  H548  1  0.532400  0.816400  0.480200  1
  H  H549  1  0.590900  0.224100  0.479900  1
  H  H550  1  0.409100  0.775900  0.479900  1
  H  H551  1  0.409100  0.224100  0.520100  1
  H  H552  1  0.590900  0.775900  0.520100  1
  H  H553  1  0.548100  0.268800  0.494200  1
  H  H554  1  0.451900  0.731200  0.494200  1
  H  H555  1  0.451900  0.268800  0.505800  1
  H  H556  1  0.548100  0.731200  0.505800  1
  H  H557  1  0.629100  0.293200  0.526600  1
  H  H558  1  0.370900  0.706800  0.526600  1
  H  H559  1  0.370900  0.293200  0.473400  1
  H  H560  1  0.629100  0.706800  0.473400  1
  H  H561  1  0.644400  0.303900  0.492200  1
  H  H562  1  0.355600  0.696100  0.492200  1
  H  H563  1  0.355600  0.303900  0.507800  1
  H  H564  1  0.644400  0.696100  0.507800  1
  H  H565  1  0.729200  0.264700  0.517700  1
  H  H566  1  0.270800  0.735300  0.517700  1
  H  H567  1  0.270800  0.264700  0.482300  1
  H  H568  1  0.729200  0.735300  0.482300  1
  H  H569  1  0.707600  0.228200  0.490400  1
  H  H570  1  0.292400  0.771800  0.490400  1
  H  H571  1  0.292400  0.228200  0.509600  1
  H  H572  1  0.707600  0.771800  0.509600  1
  H  H573  1  0.682100  0.211100  0.553700  1
  H  H574  1  0.317900  0.788900  0.553700  1
  H  H575  1  0.317900  0.211100  0.446300  1
  H  H576  1  0.682100  0.788900  0.446300  1
  H  H577  1  0.798500  0.446300  0.545200  1
  H  H578  1  0.201500  0.553700  0.545200  1
  H  H579  1  0.201500  0.446300  0.454800  1
  H  H580  1  0.798500  0.553700  0.454800  1
  H  H581  1  0.741700  0.345700  0.532100  1
  H  H582  1  0.258300  0.654300  0.532100  1
  H  H583  1  0.258300  0.345700  0.467900  1
  H  H584  1  0.741700  0.654300  0.467900  1
  H  H585  1  0.794700  0.372600  0.512500  1
  H  H586  1  0.205300  0.627400  0.512500  1
  H  H587  1  0.205300  0.372600  0.487500  1
  H  H588  1  0.794700  0.627400  0.487500  1
  H  H589  1  0.731400  0.449700  0.504800  1
  H  H590  1  0.268600  0.550300  0.504800  1
  H  H591  1  0.268600  0.449700  0.495200  1
  H  H592  1  0.731400  0.550300  0.495200  1
  H  H593  1  0.700900  0.398400  0.490500  1
  H  H594  1  0.299100  0.601600  0.490500  1
  H  H595  1  0.299100  0.398400  0.509500  1
  H  H596  1  0.700900  0.601600  0.509500  1
  H  H597  1  0.633200  0.394400  0.531700  1
  H  H598  1  0.366800  0.605600  0.531700  1
  H  H599  1  0.366800  0.394400  0.468300  1
  H  H600  1  0.633200  0.605600  0.468300  1
  H  H601  1  0.626500  0.448700  0.513200  1
  H  H602  1  0.373500  0.551300  0.513200  1
  H  H603  1  0.373500  0.448700  0.486800  1
  H  H604  1  0.626500  0.551300  0.486800  1
  H  H605  1  0.686000  0.494100  0.547500  1
  H  H606  1  0.314000  0.505900  0.547500  1
  H  H607  1  0.314000  0.494100  0.452500  1
  H  H608  1  0.686000  0.505900  0.452500  1
  H  H609  1  0.635300  0.463600  0.566400  1
  H  H610  1  0.364700  0.536400  0.566400  1
  H  H611  1  0.364700  0.463600  0.433600  1
  H  H612  1  0.635300  0.536400  0.433600  1
  H  H613  1  0.701500  0.399100  0.580100  1
  H  H614  1  0.298500  0.600900  0.580100  1
  H  H615  1  0.298500  0.399100  0.419900  1
  H  H616  1  0.701500  0.600900  0.419900  1
  H  H617  1  0.380500  0.412800  0.592700  1
  H  H618  1  0.619500  0.587200  0.592700  1
  H  H619  1  0.619500  0.412800  0.407300  1
  H  H620  1  0.380500  0.587200  0.407300  1
  H  H621  1  0.505500  0.437700  0.581400  1
  H  H622  1  0.494500  0.562300  0.581400  1
  H  H623  1  0.494500  0.437700  0.418600  1
  H  H624  1  0.505500  0.562300  0.418600  1
  H  H625  1  0.451300  0.480200  0.582200  1
  H  H626  1  0.548700  0.519800  0.582200  1
  H  H627  1  0.548700  0.480200  0.417800  1
  H  H628  1  0.451300  0.519800  0.417800  1
  H  H629  1  0.403800  0.439900  0.539300  1
  H  H630  1  0.596200  0.560100  0.539300  1
  H  H631  1  0.596200  0.439900  0.460700  1
  H  H632  1  0.403800  0.560100  0.460700  1
  H  H633  1  0.473500  0.449000  0.530300  1
  H  H634  1  0.526500  0.551000  0.530300  1
  H  H635  1  0.526500  0.449000  0.469700  1
  H  H636  1  0.473500  0.551000  0.469700  1
  H  H637  1  0.496900  0.365300  0.543600  1
  H  H638  1  0.503100  0.634700  0.543600  1
  H  H639  1  0.503100  0.365300  0.456400  1
  H  H640  1  0.496900  0.634700  0.456400  1
  H  H641  1  0.444400  0.364900  0.519100  1
  H  H642  1  0.555600  0.635100  0.519100  1
  H  H643  1  0.555600  0.364900  0.480900  1
  H  H644  1  0.444400  0.635100  0.480900  1
  H  H645  1  0.427200  0.301800  0.554500  1
  H  H646  1  0.572800  0.698200  0.554500  1
  H  H647  1  0.572800  0.301800  0.445500  1
  H  H648  1  0.427200  0.698200  0.445500  1
  H  H649  1  0.374200  0.345300  0.555400  1
  H  H650  1  0.625800  0.654700  0.555400  1
  H  H651  1  0.625800  0.345300  0.444600  1
  H  H652  1  0.374200  0.654700  0.444600  1
  H  H653  1  0.477500  0.344900  0.593100  1
  H  H654  1  0.522500  0.655100  0.593100  1
  H  H655  1  0.522500  0.344900  0.406900  1
  H  H656  1  0.477500  0.655100  0.406900  1
  H  H657  1  0.739500  0.938000  0.884000  1
  H  H658  1  0.260500  0.062000  0.884000  1
  H  H659  1  0.260500  0.938000  0.116000  1
  H  H660  1  0.739500  0.062000  0.116000  1
  H  H661  1  0.779400  0.891900  0.891000  1
  H  H662  1  0.220600  0.108100  0.891000  1
  H  H663  1  0.220600  0.891900  0.109000  1
  H  H664  1  0.779400  0.108100  0.109000  1
  H  H665  1  0.928200  0.941400  0.861700  1
  H  H666  1  0.071800  0.058600  0.861700  1
  H  H667  1  0.071800  0.941400  0.138300  1
  H  H668  1  0.928200  0.058600  0.138300  1
  H  H669  1  0.900300  0.994900  0.865100  1
  H  H670  1  0.099700  0.005100  0.865100  1
  H  H671  1  0.099700  0.994900  0.134900  1
  H  H672  1  0.900300  0.005100  0.134900  1
  H  H673  1  0.986400  0.185400  0.893500  1
  H  H674  1  0.013600  0.814600  0.893500  1
  H  H675  1  0.013600  0.185400  0.106500  1
  H  H676  1  0.986400  0.814600  0.106500  1
  H  H677  1  0.021200  0.215200  0.916600  1
  H  H678  1  0.978800  0.784800  0.916600  1
  H  H679  1  0.978800  0.215200  0.083400  1
  H  H680  1  0.021200  0.784800  0.083400  1
  H  H681  1  0.905900  0.308700  0.939500  1
  H  H682  1  0.094100  0.691300  0.939500  1
  H  H683  1  0.094100  0.308700  0.060500  1
  H  H684  1  0.905900  0.691300  0.060500  1
  H  H685  1  0.863300  0.270800  0.925200  1
  H  H686  1  0.136700  0.729200  0.925200  1
  H  H687  1  0.136700  0.270800  0.074800  1
  H  H688  1  0.863300  0.729200  0.074800  1
  H  H689  1  0.649400  0.242300  0.945700  1
  H  H690  1  0.350600  0.757700  0.945700  1
  H  H691  1  0.350600  0.242300  0.054300  1
  H  H692  1  0.649400  0.757700  0.054300  1
  H  H693  1  0.609900  0.223500  0.970500  1
  H  H694  1  0.390100  0.776500  0.970500  1
  H  H695  1  0.390100  0.223500  0.029500  1
  H  H696  1  0.609900  0.776500  0.029500  1
  H  H697  1  0.556000  0.097000  0.937300  1
  H  H698  1  0.444000  0.903000  0.937300  1
  H  H699  1  0.444000  0.097000  0.062700  1
  H  H700  1  0.556000  0.903000  0.062700  1
  H  H701  1  0.613800  0.103500  0.920300  1
  H  H702  1  0.386200  0.896500  0.920300  1
  H  H703  1  0.386200  0.103500  0.079700  1
  H  H704  1  0.613800  0.896500  0.079700  1
  H  H705  1  0.596100  0.098800  0.544700  1
  H  H706  1  0.403900  0.901200  0.544700  1
  H  H707  1  0.403900  0.098800  0.455300  1
  H  H708  1  0.596100  0.901200  0.455300  1
  H  H709  1  0.594900  0.136200  0.570400  1
  H  H710  1  0.405100  0.863800  0.570400  1
  H  H711  1  0.405100  0.136200  0.429600  1
  H  H712  1  0.594900  0.863800  0.429600  1
  H  H713  1  0.762000  0.169100  0.548100  1
  H  H714  1  0.238000  0.830900  0.548100  1
  H  H715  1  0.238000  0.169100  0.451900  1
  H  H716  1  0.762000  0.830900  0.451900  1
  H  H717  1  0.740100  0.137900  0.521900  1
  H  H718  1  0.259900  0.862100  0.521900  1
  H  H719  1  0.259900  0.137900  0.478100  1
  H  H720  1  0.740100  0.862100  0.478100  1
  H  H721  1  0.862600  0.390400  0.567400  1
  H  H722  1  0.137400  0.609600  0.567400  1
  H  H723  1  0.137400  0.390400  0.432600  1
  H  H724  1  0.862600  0.609600  0.432600  1
  H  H725  1  0.814200  0.353800  0.578400  1
  H  H726  1  0.185800  0.646200  0.578400  1
  H  H727  1  0.185800  0.353800  0.421600  1
  H  H728  1  0.814200  0.646200  0.421600  1
  H  H729  1  0.705700  0.465200  0.611100  1
  H  H730  1  0.294300  0.534800  0.611100  1
  H  H731  1  0.294300  0.465200  0.388900  1
  H  H732  1  0.705700  0.534800  0.388900  1
  H  H733  1  0.742000  0.500000  0.590800  1
  H  H734  1  0.258000  0.500000  0.590800  1
  H  H735  1  0.258000  0.500000  0.409200  1
  H  H736  1  0.742000  0.500000  0.409200  1
  H  H737  1  0.409700  0.440900  0.637200  1
  H  H738  1  0.590300  0.559100  0.637200  1
  H  H739  1  0.590300  0.440900  0.362800  1
  H  H740  1  0.409700  0.559100  0.362800  1
  H  H741  1  0.471100  0.416900  0.635600  1
  H  H742  1  0.528900  0.583100  0.635600  1
  H  H743  1  0.528900  0.416900  0.364400  1
  H  H744  1  0.471100  0.583100  0.364400  1
  H  H745  1  0.423300  0.281100  0.610700  1
  H  H746  1  0.576700  0.718900  0.610700  1
  H  H747  1  0.576700  0.281100  0.389300  1
  H  H748  1  0.423300  0.718900  0.389300  1
  H  H749  1  0.363500  0.306000  0.603400  1
  H  H750  1  0.636500  0.694000  0.603400  1
  H  H751  1  0.636500  0.306000  0.396600  1
  H  H752  1  0.363500  0.694000  0.396600  1
  Pd  Pd753  1  0.819140  0.933960  0.844640  1
  Pd  Pd754  1  0.180860  0.066040  0.844640  1
  Pd  Pd755  1  0.180860  0.933960  0.155360  1
  Pd  Pd756  1  0.819140  0.066040  0.155360  1
  Pd  Pd757  1  0.402080  0.350710  0.652400  1
  Pd  Pd758  1  0.597920  0.649290  0.652400  1
  Pd  Pd759  1  0.597920  0.350710  0.347600  1
  Pd  Pd760  1  0.402080  0.649290  0.347600  1
  Pd  Pd761  1  0.564760  0.193910  0.923580  1
  Pd  Pd762  1  0.435240  0.806090  0.923580  1
  Pd  Pd763  1  0.435240  0.193910  0.076420  1
  Pd  Pd764  1  0.564760  0.806090  0.076420  1
  Pd  Pd765  1  0.694530  0.100670  0.566510  1
  Pd  Pd766  1  0.305470  0.899330  0.566510  1
  Pd  Pd767  1  0.305470  0.100670  0.433490  1
  Pd  Pd768  1  0.694530  0.899330  0.433490  1
  Pd  Pd769  1  0.816750  0.432330  0.613790  1
  Pd  Pd770  1  0.183250  0.567670  0.613790  1
  Pd  Pd771  1  0.183250  0.432330  0.386210  1
  Pd  Pd772  1  0.816750  0.567670  0.386210  1
  Pd  Pd773  1  0.954260  0.279710  0.890560  1
  Pd  Pd774  1  0.045740  0.720290  0.890560  1
  Pd  Pd775  1  0.045740  0.279710  0.109440  1
  Pd  Pd776  1  0.954260  0.720290  0.109440  1
  C  C777  1  0.775000  0.235900  0.873900  1
  C  C778  1  0.225000  0.764100  0.873900  1
  C  C779  1  0.225000  0.235900  0.126100  1
  C  C780  1  0.775000  0.764100  0.126100  1
  C  C781  1  0.764900  0.236700  0.841500  1
  C  C782  1  0.235100  0.763300  0.841500  1
  C  C783  1  0.235100  0.236700  0.158500  1
  C  C784  1  0.764900  0.763300  0.158500  1
  C  C785  1  0.613600  0.237700  0.771900  1
  C  C786  1  0.386400  0.762300  0.771900  1
  C  C787  1  0.386400  0.237700  0.228100  1
  C  C788  1  0.613600  0.762300  0.228100  1
  C  C789  1  0.601600  0.257100  0.803700  1
  C  C790  1  0.398400  0.742900  0.803700  1
  C  C791  1  0.398400  0.257100  0.196300  1
  C  C792  1  0.601600  0.742900  0.196300  1
  C  C793  1  0.646200  0.273200  0.750300  1
  C  C794  1  0.353800  0.726800  0.750300  1
  C  C795  1  0.353800  0.273200  0.249700  1
  C  C796  1  0.646200  0.726800  0.249700  1
  C  C797  1  0.750600  0.309000  0.732300  1
  C  C798  1  0.249400  0.691000  0.732300  1
  C  C799  1  0.249400  0.309000  0.267700  1
  C  C800  1  0.750600  0.691000  0.267700  1
  C  C801  1  0.811900  0.304200  0.750000  1
  C  C802  1  0.188100  0.695800  0.750000  1
  C  C803  1  0.188100  0.304200  0.250000  1
  C  C804  1  0.811900  0.695800  0.250000  1
  C  C805  1  0.746800  0.277800  0.702700  1
  C  C806  1  0.253200  0.722200  0.702700  1
  C  C807  1  0.253200  0.277800  0.297300  1
  C  C808  1  0.746800  0.722200  0.297300  1
  C  C809  1  0.737900  0.188300  0.682400  1
  C  C810  1  0.262100  0.811700  0.682400  1
  C  C811  1  0.262100  0.188300  0.317600  1
  C  C812  1  0.737900  0.811700  0.317600  1
  C  C813  1  0.739500  0.127800  0.688500  1
  C  C814  1  0.260500  0.872200  0.688500  1
  C  C815  1  0.260500  0.127800  0.311500  1
  C  C816  1  0.739500  0.872200  0.311500  1
  C  C817  1  0.679000  0.202100  0.666300  1
  C  C818  1  0.321000  0.797900  0.666300  1
  C  C819  1  0.321000  0.202100  0.333700  1
  C  C820  1  0.679000  0.797900  0.333700  1
  C  C821  1  0.799000  0.224700  0.791400  1
  C  C822  1  0.201000  0.775300  0.791400  1
  C  C823  1  0.201000  0.224700  0.208600  1
  C  C824  1  0.799000  0.775300  0.208600  1
  C  C825  1  0.770600  0.176800  0.775600  1
  C  C826  1  0.229400  0.823200  0.775600  1
  C  C827  1  0.229400  0.176800  0.224400  1
  C  C828  1  0.770600  0.823200  0.224400  1
  C  C829  1  0.700700  0.107600  0.777300  1
  C  C830  1  0.299300  0.892400  0.777300  1
  C  C831  1  0.299300  0.107600  0.222700  1
  C  C832  1  0.700700  0.892400  0.222700  1
  C  C833  1  0.657100  0.148600  0.764800  1
  C  C834  1  0.342900  0.851400  0.764800  1
  C  C835  1  0.342900  0.148600  0.235200  1
  C  C836  1  0.657100  0.851400  0.235200  1
  C  C837  1  0.578700  0.238000  0.677400  1
  C  C838  1  0.421300  0.762000  0.677400  1
  C  C839  1  0.421300  0.238000  0.322600  1
  C  C840  1  0.578700  0.762000  0.322600  1
  C  C841  1  0.569900  0.287300  0.658400  1
  C  C842  1  0.430100  0.712700  0.658400  1
  C  C843  1  0.430100  0.287300  0.341600  1
  C  C844  1  0.569900  0.712700  0.341600  1
  C  C845  1  0.540400  0.076800  0.810900  1
  C  C846  1  0.459600  0.923200  0.810900  1
  C  C847  1  0.459600  0.076800  0.189100  1
  C  C848  1  0.540400  0.923200  0.189100  1
  C  C849  1  0.554900  0.042900  0.834100  1
  C  C850  1  0.445100  0.957100  0.834100  1
  C  C851  1  0.445100  0.042900  0.165900  1
  C  C852  1  0.554900  0.957100  0.165900  1
  C  C853  1  0.588400  0.005700  0.824700  1
  C  C854  1  0.411600  0.994300  0.824700  1
  C  C855  1  0.411600  0.005700  0.175300  1
  C  C856  1  0.588400  0.994300  0.175300  1
  C  C857  1  0.595400  0.014300  0.792800  1
  C  C858  1  0.404600  0.985700  0.792800  1
  C  C859  1  0.404600  0.014300  0.207200  1
  C  C860  1  0.595400  0.985700  0.207200  1
  C  C861  1  0.629300  0.983400  0.774400  1
  C  C862  1  0.370700  0.016600  0.774400  1
  C  C863  1  0.370700  0.983400  0.225600  1
  C  C864  1  0.629300  0.016600  0.225600  1
  C  C865  1  0.634200  0.991400  0.743900  1
  C  C866  1  0.365800  0.008600  0.743900  1
  C  C867  1  0.365800  0.991400  0.256100  1
  C  C868  1  0.634200  0.008600  0.256100  1
  C  C869  1  0.682700  0.963200  0.722600  1
  C  C870  1  0.317300  0.036800  0.722600  1
  C  C871  1  0.317300  0.963200  0.277400  1
  C  C872  1  0.682700  0.036800  0.277400  1
  C  C873  1  0.670300  0.982600  0.695200  1
  C  C874  1  0.329700  0.017400  0.695200  1
  C  C875  1  0.329700  0.982600  0.304800  1
  C  C876  1  0.670300  0.017400  0.304800  1
  C  C877  1  0.623200  0.020200  0.696400  1
  C  C878  1  0.376800  0.979800  0.696400  1
  C  C879  1  0.376800  0.020200  0.303600  1
  C  C880  1  0.623200  0.979800  0.303600  1
  C  C881  1  0.590100  0.046900  0.673200  1
  C  C882  1  0.409900  0.953100  0.673200  1
  C  C883  1  0.409900  0.046900  0.326800  1
  C  C884  1  0.590100  0.953100  0.326800  1
  C  C885  1  0.550600  0.080200  0.675900  1
  C  C886  1  0.449400  0.919800  0.675900  1
  C  C887  1  0.449400  0.080200  0.324100  1
  C  C888  1  0.550600  0.919800  0.324100  1
  C  C889  1  0.508800  0.106200  0.649500  1
  C  C890  1  0.491200  0.893800  0.649500  1
  C  C891  1  0.491200  0.106200  0.350500  1
  C  C892  1  0.508800  0.893800  0.350500  1
  C  C893  1  0.468500  0.136400  0.659900  1
  C  C894  1  0.531500  0.863600  0.659900  1
  C  C895  1  0.531500  0.136400  0.340100  1
  C  C896  1  0.468500  0.863600  0.340100  1
  C  C897  1  0.475700  0.135800  0.692900  1
  C  C898  1  0.524300  0.864200  0.692900  1
  C  C899  1  0.524300  0.135800  0.307100  1
  C  C900  1  0.475700  0.864200  0.307100  1
  C  C901  1  0.443100  0.168500  0.712700  1
  C  C902  1  0.556900  0.831500  0.712700  1
  C  C903  1  0.556900  0.168500  0.287300  1
  C  C904  1  0.443100  0.831500  0.287300  1
  C  C905  1  0.451800  0.177200  0.742000  1
  C  C906  1  0.548200  0.822800  0.742000  1
  C  C907  1  0.548200  0.177200  0.258000  1
  C  C908  1  0.451800  0.822800  0.258000  1
  C  C909  1  0.428700  0.213100  0.759800  1
  C  C910  1  0.571300  0.786900  0.759800  1
  C  C911  1  0.571300  0.213100  0.240200  1
  C  C912  1  0.428700  0.786900  0.240200  1
  C  C913  1  0.444300  0.198500  0.791800  1
  C  C914  1  0.555700  0.801500  0.791800  1
  C  C915  1  0.555700  0.198500  0.208200  1
  C  C916  1  0.444300  0.801500  0.208200  1
  C  C917  1  0.479100  0.152400  0.788600  1
  C  C918  1  0.520900  0.847600  0.788600  1
  C  C919  1  0.520900  0.152400  0.211400  1
  C  C920  1  0.479100  0.847600  0.211400  1
  C  C921  1  0.502100  0.122900  0.814200  1
  C  C922  1  0.497900  0.877100  0.814200  1
  C  C923  1  0.497900  0.122900  0.185800  1
  C  C924  1  0.502100  0.877100  0.185800  1
  C  C925  1  0.712600  0.950200  0.809100  1
  C  C926  1  0.287400  0.049800  0.809100  1
  C  C927  1  0.287400  0.950200  0.190900  1
  C  C928  1  0.712600  0.049800  0.190900  1
  C  C929  1  0.668200  0.939000  0.786900  1
  C  C930  1  0.331800  0.061000  0.786900  1
  C  C931  1  0.331800  0.939000  0.213100  1
  C  C932  1  0.668200  0.061000  0.213100  1
  C  C933  1  0.663600  0.891600  0.776500  1
  C  C934  1  0.336400  0.108400  0.776500  1
  C  C935  1  0.336400  0.891600  0.223500  1
  C  C936  1  0.663600  0.108400  0.223500  1
  C  C937  1  0.700900  0.850700  0.789800  1
  C  C938  1  0.299100  0.149300  0.789800  1
  C  C939  1  0.299100  0.850700  0.210200  1
  C  C940  1  0.700900  0.149300  0.210200  1
  C  C941  1  0.739300  0.861800  0.810900  1
  C  C942  1  0.260700  0.138200  0.810900  1
  C  C943  1  0.260700  0.861800  0.189100  1
  C  C944  1  0.739300  0.138200  0.189100  1
  C  C945  1  0.636100  0.064600  0.621000  1
  C  C946  1  0.363900  0.935400  0.621000  1
  C  C947  1  0.363900  0.064600  0.379000  1
  C  C948  1  0.636100  0.935400  0.379000  1
  C  C949  1  0.610600  0.026700  0.640400  1
  C  C950  1  0.389400  0.973300  0.640400  1
  C  C951  1  0.389400  0.026700  0.359600  1
  C  C952  1  0.610600  0.973300  0.359600  1
  C  C953  1  0.610200  0.972200  0.632600  1
  C  C954  1  0.389800  0.027800  0.632600  1
  C  C955  1  0.389800  0.972200  0.367400  1
  C  C956  1  0.610200  0.027800  0.367400  1
  C  C957  1  0.637700  0.954700  0.604200  1
  C  C958  1  0.362300  0.045300  0.604200  1
  C  C959  1  0.362300  0.954700  0.395800  1
  C  C960  1  0.637700  0.045300  0.395800  1
  C  C961  1  0.652500  0.995400  0.586200  1
  C  C962  1  0.347500  0.004600  0.586200  1
  C  C963  1  0.347500  0.995400  0.413800  1
  C  C964  1  0.652500  0.004600  0.413800  1
  C  C965  1  0.412500  0.250400  0.684100  1
  C  C966  1  0.587500  0.749600  0.684100  1
  C  C967  1  0.587500  0.250400  0.315900  1
  C  C968  1  0.412500  0.749600  0.315900  1
  C  C969  1  0.397900  0.202300  0.699800  1
  C  C970  1  0.602100  0.797700  0.699800  1
  C  C971  1  0.602100  0.202300  0.300200  1
  C  C972  1  0.397900  0.797700  0.300200  1
  C  C973  1  0.337400  0.191200  0.705400  1
  C  C974  1  0.662600  0.808800  0.705400  1
  C  C975  1  0.662600  0.191200  0.294600  1
  C  C976  1  0.337400  0.808800  0.294600  1
  C  C977  1  0.301000  0.234000  0.695300  1
  C  C978  1  0.699000  0.766000  0.695300  1
  C  C979  1  0.699000  0.234000  0.304700  1
  C  C980  1  0.301000  0.766000  0.304700  1
  C  C981  1  0.319200  0.279500  0.676700  1
  C  C982  1  0.680800  0.720500  0.676700  1
  C  C983  1  0.680800  0.279500  0.323300  1
  C  C984  1  0.319200  0.720500  0.323300  1
  C  C985  1  0.522900  0.156300  0.864400  1
  C  C986  1  0.477100  0.843700  0.864400  1
  C  C987  1  0.477100  0.156300  0.135600  1
  C  C988  1  0.522900  0.843700  0.135600  1
  C  C989  1  0.479700  0.142500  0.841800  1
  C  C990  1  0.520300  0.857500  0.841800  1
  C  C991  1  0.520300  0.142500  0.158200  1
  C  C992  1  0.479700  0.857500  0.158200  1
  C  C993  1  0.419900  0.146900  0.847700  1
  C  C994  1  0.580100  0.853100  0.847700  1
  C  C995  1  0.580100  0.146900  0.152300  1
  C  C996  1  0.419900  0.853100  0.152300  1
  C  C997  1  0.404200  0.161700  0.878500  1
  C  C998  1  0.595800  0.838300  0.878500  1
  C  C999  1  0.595800  0.161700  0.121500  1
  C  C1000  1  0.404200  0.838300  0.121500  1
  C  C1001  1  0.445100  0.169400  0.899000  1
  C  C1002  1  0.554900  0.830600  0.899000  1
  C  C1003  1  0.554900  0.169400  0.101000  1
  C  C1004  1  0.445100  0.830600  0.101000  1
  C  C1005  1  0.932400  0.082500  0.762300  1
  C  C1006  1  0.067600  0.917500  0.762300  1
  C  C1007  1  0.067600  0.082500  0.237700  1
  C  C1008  1  0.932400  0.917500  0.237700  1
  C  C1009  1  0.959100  0.085300  0.795000  1
  C  C1010  1  0.040900  0.914700  0.795000  1
  C  C1011  1  0.040900  0.085300  0.205000  1
  C  C1012  1  0.959100  0.914700  0.205000  1
  C  C1013  1  0.975400  0.131900  0.801900  1
  C  C1014  1  0.024600  0.868100  0.801900  1
  C  C1015  1  0.024600  0.131900  0.198100  1
  C  C1016  1  0.975400  0.868100  0.198100  1
  C  C1017  1  0.965200  0.163500  0.774500  1
  C  C1018  1  0.034800  0.836500  0.774500  1
  C  C1019  1  0.034800  0.163500  0.225500  1
  C  C1020  1  0.965200  0.836500  0.225500  1
  C  C1021  1  0.983700  0.219600  0.774200  1
  C  C1022  1  0.016300  0.780400  0.774200  1
  C  C1023  1  0.016300  0.219600  0.225800  1
  C  C1024  1  0.983700  0.780400  0.225800  1
  C  C1025  1  0.977800  0.253300  0.749900  1
  C  C1026  1  0.022200  0.746700  0.749900  1
  C  C1027  1  0.022200  0.253300  0.250100  1
  C  C1028  1  0.977800  0.746700  0.250100  1
  C  C1029  1  0.988900  0.305200  0.748900  1
  C  C1030  1  0.011100  0.694800  0.748900  1
  C  C1031  1  0.011100  0.305200  0.251100  1
  C  C1032  1  0.988900  0.694800  0.251100  1
  C  C1033  1  0.971000  0.332900  0.721400  1
  C  C1034  1  0.029000  0.667100  0.721400  1
  C  C1035  1  0.029000  0.332900  0.278600  1
  C  C1036  1  0.971000  0.667100  0.278600  1
  C  C1037  1  0.952600  0.285100  0.703400  1
  C  C1038  1  0.047400  0.714900  0.703400  1
  C  C1039  1  0.047400  0.285100  0.296600  1
  C  C1040  1  0.952600  0.714900  0.296600  1
  C  C1041  1  0.936900  0.278900  0.673000  1
  C  C1042  1  0.063100  0.721100  0.673000  1
  C  C1043  1  0.063100  0.278900  0.327000  1
  C  C1044  1  0.936900  0.721100  0.327000  1
  C  C1045  1  0.923900  0.237000  0.657600  1
  C  C1046  1  0.076100  0.763000  0.657600  1
  C  C1047  1  0.076100  0.237000  0.342400  1
  C  C1048  1  0.923900  0.763000  0.342400  1
  C  C1049  1  0.911100  0.242700  0.624800  1
  C  C1050  1  0.088900  0.757300  0.624800  1
  C  C1051  1  0.088900  0.242700  0.375200  1
  C  C1052  1  0.911100  0.757300  0.375200  1
  C  C1053  1  0.895800  0.190000  0.618200  1
  C  C1054  1  0.104200  0.810000  0.618200  1
  C  C1055  1  0.104200  0.190000  0.381800  1
  C  C1056  1  0.895800  0.810000  0.381800  1
  C  C1057  1  0.894700  0.153600  0.646600  1
  C  C1058  1  0.105300  0.846400  0.646600  1
  C  C1059  1  0.105300  0.153600  0.353400  1
  C  C1060  1  0.894700  0.846400  0.353400  1
  C  C1061  1  0.871200  0.102100  0.646800  1
  C  C1062  1  0.128800  0.897900  0.646800  1
  C  C1063  1  0.128800  0.102100  0.353200  1
  C  C1064  1  0.871200  0.897900  0.353200  1
  C  C1065  1  0.871800  0.071700  0.671900  1
  C  C1066  1  0.128200  0.928300  0.671900  1
  C  C1067  1  0.128200  0.071700  0.328100  1
  C  C1068  1  0.871800  0.928300  0.328100  1
  C  C1069  1  0.843600  0.022400  0.674900  1
  C  C1070  1  0.156400  0.977600  0.674900  1
  C  C1071  1  0.156400  0.022400  0.325100  1
  C  C1072  1  0.843600  0.977600  0.325100  1
  C  C1073  1  0.855200  0.008700  0.704200  1
  C  C1074  1  0.144800  0.991300  0.704200  1
  C  C1075  1  0.144800  0.008700  0.295800  1
  C  C1076  1  0.855200  0.991300  0.295800  1
  C  C1077  1  0.884200  0.046500  0.719100  1
  C  C1078  1  0.115800  0.953500  0.719100  1
  C  C1079  1  0.115800  0.046500  0.280900  1
  C  C1080  1  0.884200  0.953500  0.280900  1
  C  C1081  1  0.904800  0.043100  0.748100  1
  C  C1082  1  0.095200  0.956900  0.748100  1
  C  C1083  1  0.095200  0.043100  0.251900  1
  C  C1084  1  0.904800  0.956900  0.251900  1
  C  C1085  1  0.982000  0.248400  0.826400  1
  C  C1086  1  0.018000  0.751600  0.826400  1
  C  C1087  1  0.018000  0.248400  0.173600  1
  C  C1088  1  0.982000  0.751600  0.173600  1
  C  C1089  1  0.011100  0.243200  0.801500  1
  C  C1090  1  0.988900  0.756800  0.801500  1
  C  C1091  1  0.988900  0.243200  0.198500  1
  C  C1092  1  0.011100  0.756800  0.198500  1
  C  C1093  1  0.068800  0.265100  0.800800  1
  C  C1094  1  0.931200  0.734900  0.800800  1
  C  C1095  1  0.931200  0.265100  0.199200  1
  C  C1096  1  0.068800  0.734900  0.199200  1
  C  C1097  1  0.100400  0.292000  0.825700  1
  C  C1098  1  0.899600  0.708000  0.825700  1
  C  C1099  1  0.899600  0.292000  0.174300  1
  C  C1100  1  0.100400  0.708000  0.174300  1
  C  C1101  1  0.055300  0.292400  0.846800  1
  C  C1102  1  0.944700  0.707600  0.846800  1
  C  C1103  1  0.944700  0.292400  0.153200  1
  C  C1104  1  0.055300  0.707600  0.153200  1
  C  C1105  1  0.891300  0.354200  0.646900  1
  C  C1106  1  0.108700  0.645800  0.646900  1
  C  C1107  1  0.108700  0.354200  0.353100  1
  C  C1108  1  0.891300  0.645800  0.353100  1
  C  C1109  1  0.945300  0.327900  0.655600  1
  C  C1110  1  0.054700  0.672100  0.655600  1
  C  C1111  1  0.054700  0.327900  0.344400  1
  C  C1112  1  0.945300  0.672100  0.344400  1
  C  C1113  1  0.002200  0.357700  0.654000  1
  C  C1114  1  0.997800  0.642300  0.654000  1
  C  C1115  1  0.997800  0.357700  0.346000  1
  C  C1116  1  0.002200  0.642300  0.346000  1
  C  C1117  1  0.001800  0.402900  0.634300  1
  C  C1118  1  0.998200  0.597100  0.634300  1
  C  C1119  1  0.998200  0.402900  0.365700  1
  C  C1120  1  0.001800  0.597100  0.365700  1
  C  C1121  1  0.949900  0.427700  0.626500  1
  C  C1122  1  0.050100  0.572300  0.626500  1
  C  C1123  1  0.050100  0.427700  0.373500  1
  C  C1124  1  0.949900  0.572300  0.373500  1
  C  C1125  1  0.802100  0.096500  0.606200  1
  C  C1126  1  0.197900  0.903500  0.606200  1
  C  C1127  1  0.197900  0.096500  0.393800  1
  C  C1128  1  0.802100  0.903500  0.393800  1
  C  C1129  1  0.852900  0.079700  0.619800  1
  C  C1130  1  0.147100  0.920300  0.619800  1
  C  C1131  1  0.147100  0.079700  0.380200  1
  C  C1132  1  0.852900  0.920300  0.380200  1
  C  C1133  1  0.882900  0.028100  0.605600  1
  C  C1134  1  0.117100  0.971900  0.605600  1
  C  C1135  1  0.117100  0.028100  0.394400  1
  C  C1136  1  0.882900  0.971900  0.394400  1
  C  C1137  1  0.858800  0.009900  0.579100  1
  C  C1138  1  0.141200  0.990100  0.579100  1
  C  C1139  1  0.141200  0.009900  0.420900  1
  C  C1140  1  0.858800  0.990100  0.420900  1
  C  C1141  1  0.803400  0.034100  0.568400  1
  C  C1142  1  0.196600  0.965900  0.568400  1
  C  C1143  1  0.196600  0.034100  0.431600  1
  C  C1144  1  0.803400  0.965900  0.431600  1
  C  C1145  1  0.871200  0.989000  0.794100  1
  C  C1146  1  0.128800  0.011000  0.794100  1
  C  C1147  1  0.128800  0.989000  0.205900  1
  C  C1148  1  0.871200  0.011000  0.205900  1
  C  C1149  1  0.894800  0.992000  0.763500  1
  C  C1150  1  0.105200  0.008000  0.763500  1
  C  C1151  1  0.105200  0.992000  0.236500  1
  C  C1152  1  0.894800  0.008000  0.236500  1
  C  C1153  1  0.913900  0.944700  0.749600  1
  C  C1154  1  0.086100  0.055300  0.749600  1
  C  C1155  1  0.086100  0.944700  0.250400  1
  C  C1156  1  0.913900  0.055300  0.250400  1
  C  C1157  1  0.907000  0.895500  0.762100  1
  C  C1158  1  0.093000  0.104500  0.762100  1
  C  C1159  1  0.093000  0.895500  0.237900  1
  C  C1160  1  0.907000  0.104500  0.237900  1
  C  C1161  1  0.877300  0.893300  0.791600  1
  C  C1162  1  0.122700  0.106700  0.791600  1
  C  C1163  1  0.122700  0.893300  0.208400  1
  C  C1164  1  0.877300  0.106700  0.208400  1
  C  C1165  1  0.745200  0.393100  0.843500  1
  C  C1166  1  0.254800  0.606900  0.843500  1
  C  C1167  1  0.254800  0.393100  0.156500  1
  C  C1168  1  0.745200  0.606900  0.156500  1
  C  C1169  1  0.739200  0.378800  0.878300  1
  C  C1170  1  0.260800  0.621200  0.878300  1
  C  C1171  1  0.260800  0.378800  0.121700  1
  C  C1172  1  0.739200  0.621200  0.121700  1
  C  C1173  1  0.681700  0.366300  0.881600  1
  C  C1174  1  0.318300  0.633700  0.881600  1
  C  C1175  1  0.318300  0.366300  0.118400  1
  C  C1176  1  0.681700  0.633700  0.118400  1
  C  C1177  1  0.648700  0.371700  0.856300  1
  C  C1178  1  0.351300  0.628300  0.856300  1
  C  C1179  1  0.351300  0.371700  0.143700  1
  C  C1180  1  0.648700  0.628300  0.143700  1
  C  C1181  1  0.586500  0.364800  0.853600  1
  C  C1182  1  0.413500  0.635200  0.853600  1
  C  C1183  1  0.413500  0.364800  0.146400  1
  C  C1184  1  0.586500  0.635200  0.146400  1
  C  C1185  1  0.554300  0.368700  0.827200  1
  C  C1186  1  0.445700  0.631300  0.827200  1
  C  C1187  1  0.445700  0.368700  0.172800  1
  C  C1188  1  0.554300  0.631300  0.172800  1
  C  C1189  1  0.487200  0.351700  0.824200  1
  C  C1190  1  0.512800  0.648300  0.824200  1
  C  C1191  1  0.512800  0.351700  0.175800  1
  C  C1192  1  0.487200  0.648300  0.175800  1
  C  C1193  1  0.476500  0.367300  0.794700  1
  C  C1194  1  0.523500  0.632700  0.794700  1
  C  C1195  1  0.523500  0.367300  0.205300  1
  C  C1196  1  0.476500  0.632700  0.205300  1
  C  C1197  1  0.523100  0.389600  0.783100  1
  C  C1198  1  0.476900  0.610400  0.783100  1
  C  C1199  1  0.476900  0.389600  0.216900  1
  C  C1200  1  0.523100  0.610400  0.216900  1
  C  C1201  1  0.526900  0.409600  0.749800  1
  C  C1202  1  0.473100  0.590400  0.749800  1
  C  C1203  1  0.473100  0.409600  0.250200  1
  C  C1204  1  0.526900  0.590400  0.250200  1
  C  C1205  1  0.579700  0.428300  0.736800  1
  C  C1206  1  0.420300  0.571700  0.736800  1
  C  C1207  1  0.420300  0.428300  0.263200  1
  C  C1208  1  0.579700  0.571700  0.263200  1
  C  C1209  1  0.580500  0.450400  0.707300  1
  C  C1210  1  0.419500  0.549600  0.707300  1
  C  C1211  1  0.419500  0.450400  0.292700  1
  C  C1212  1  0.580500  0.549600  0.292700  1
  C  C1213  1  0.637300  0.459600  0.700800  1
  C  C1214  1  0.362700  0.540400  0.700800  1
  C  C1215  1  0.362700  0.459600  0.299200  1
  C  C1216  1  0.637300  0.540400  0.299200  1
  C  C1217  1  0.675600  0.447500  0.727800  1
  C  C1218  1  0.324400  0.552500  0.727800  1
  C  C1219  1  0.324400  0.447500  0.272200  1
  C  C1220  1  0.675600  0.552500  0.272200  1
  C  C1221  1  0.739300  0.457400  0.728000  1
  C  C1222  1  0.260700  0.542600  0.728000  1
  C  C1223  1  0.260700  0.457400  0.272000  1
  C  C1224  1  0.739300  0.542600  0.272000  1
  C  C1225  1  0.769900  0.445100  0.755000  1
  C  C1226  1  0.230100  0.554900  0.755000  1
  C  C1227  1  0.230100  0.445100  0.245000  1
  C  C1228  1  0.769900  0.554900  0.245000  1
  C  C1229  1  0.835200  0.443700  0.756100  1
  C  C1230  1  0.164800  0.556300  0.756100  1
  C  C1231  1  0.164800  0.443700  0.243900  1
  C  C1232  1  0.835200  0.556300  0.243900  1
  C  C1233  1  0.855700  0.431500  0.785300  1
  C  C1234  1  0.144300  0.568500  0.785300  1
  C  C1235  1  0.144300  0.431500  0.214700  1
  C  C1236  1  0.855700  0.568500  0.214700  1
  C  C1237  1  0.800800  0.421100  0.799100  1
  C  C1238  1  0.199200  0.578900  0.799100  1
  C  C1239  1  0.199200  0.421100  0.200900  1
  C  C1240  1  0.800800  0.578900  0.200900  1
  C  C1241  1  0.796500  0.404500  0.829400  1
  C  C1242  1  0.203500  0.595500  0.829400  1
  C  C1243  1  0.203500  0.404500  0.170600  1
  C  C1244  1  0.796500  0.595500  0.170600  1
  C  C1245  1  0.572100  0.292500  0.889800  1
  C  C1246  1  0.427900  0.707500  0.889800  1
  C  C1247  1  0.427900  0.292500  0.110200  1
  C  C1248  1  0.572100  0.707500  0.110200  1
  C  C1249  1  0.554600  0.338800  0.880900  1
  C  C1250  1  0.445400  0.661200  0.880900  1
  C  C1251  1  0.445400  0.338800  0.119100  1
  C  C1252  1  0.554600  0.661200  0.119100  1
  C  C1253  1  0.514800  0.372700  0.893600  1
  C  C1254  1  0.485200  0.627300  0.893600  1
  C  C1255  1  0.485200  0.372700  0.106400  1
  C  C1256  1  0.514800  0.627300  0.106400  1
  C  C1257  1  0.487600  0.350400  0.920000  1
  C  C1258  1  0.512400  0.649600  0.920000  1
  C  C1259  1  0.512400  0.350400  0.080000  1
  C  C1260  1  0.487600  0.649600  0.080000  1
  C  C1261  1  0.507800  0.297600  0.928800  1
  C  C1262  1  0.492200  0.702400  0.928800  1
  C  C1263  1  0.492200  0.297600  0.071200  1
  C  C1264  1  0.507800  0.702400  0.071200  1
  C  C1265  1  0.460500  0.388900  0.706800  1
  C  C1266  1  0.539500  0.611100  0.706800  1
  C  C1267  1  0.539500  0.388900  0.293200  1
  C  C1268  1  0.460500  0.611100  0.293200  1
  C  C1269  1  0.470100  0.408700  0.735000  1
  C  C1270  1  0.529900  0.591300  0.735000  1
  C  C1271  1  0.529900  0.408700  0.265000  1
  C  C1272  1  0.470100  0.591300  0.265000  1
  C  C1273  1  0.417300  0.432000  0.747400  1
  C  C1274  1  0.582700  0.568000  0.747400  1
  C  C1275  1  0.582700  0.432000  0.252600  1
  C  C1276  1  0.417300  0.568000  0.252600  1
  C  C1277  1  0.362000  0.428400  0.735000  1
  C  C1278  1  0.638000  0.571600  0.735000  1
  C  C1279  1  0.638000  0.428400  0.265000  1
  C  C1280  1  0.362000  0.571600  0.265000  1
  C  C1281  1  0.357200  0.401800  0.705300  1
  C  C1282  1  0.642800  0.598200  0.705300  1
  C  C1283  1  0.642800  0.401800  0.294700  1
  C  C1284  1  0.357200  0.598200  0.294700  1
  C  C1285  1  0.776300  0.452300  0.676000  1
  C  C1286  1  0.223700  0.547700  0.676000  1
  C  C1287  1  0.223700  0.452300  0.324000  1
  C  C1288  1  0.776300  0.547700  0.324000  1
  C  C1289  1  0.766900  0.478800  0.703400  1
  C  C1290  1  0.233100  0.521200  0.703400  1
  C  C1291  1  0.233100  0.478800  0.296600  1
  C  C1292  1  0.766900  0.521200  0.296600  1
  C  C1293  1  0.795500  0.535000  0.705200  1
  C  C1294  1  0.204500  0.465000  0.705200  1
  C  C1295  1  0.204500  0.535000  0.294800  1
  C  C1296  1  0.795500  0.465000  0.294800  1
  C  C1297  1  0.823300  0.554700  0.678600  1
  C  C1298  1  0.176700  0.445300  0.678600  1
  C  C1299  1  0.176700  0.554700  0.321400  1
  C  C1300  1  0.823300  0.445300  0.321400  1
  C  C1301  1  0.831900  0.527400  0.653100  1
  C  C1302  1  0.168100  0.472600  0.653100  1
  C  C1303  1  0.168100  0.527400  0.346900  1
  C  C1304  1  0.831900  0.472600  0.346900  1
  C  C1305  1  0.869900  0.355900  0.858200  1
  C  C1306  1  0.130100  0.644100  0.858200  1
  C  C1307  1  0.130100  0.355900  0.141800  1
  C  C1308  1  0.869900  0.644100  0.141800  1
  C  C1309  1  0.853700  0.404600  0.846200  1
  C  C1310  1  0.146300  0.595400  0.846200  1
  C  C1311  1  0.146300  0.404600  0.153800  1
  C  C1312  1  0.853700  0.595400  0.153800  1
  C  C1313  1  0.885500  0.452900  0.853500  1
  C  C1314  1  0.114500  0.547100  0.853500  1
  C  C1315  1  0.114500  0.452900  0.146500  1
  C  C1316  1  0.885500  0.547100  0.146500  1
  C  C1317  1  0.935800  0.451200  0.873300  1
  C  C1318  1  0.064200  0.548800  0.873300  1
  C  C1319  1  0.064200  0.451200  0.126700  1
  C  C1320  1  0.935800  0.548800  0.126700  1
  C  C1321  1  0.949100  0.402500  0.886400  1
  C  C1322  1  0.050900  0.597500  0.886400  1
  C  C1323  1  0.050900  0.402500  0.113600  1
  C  C1324  1  0.949100  0.597500  0.113600  1
  C  C1325  1  0.813500  0.959700  0.906200  1
  C  C1326  1  0.186500  0.040300  0.906200  1
  C  C1327  1  0.186500  0.959700  0.093800  1
  C  C1328  1  0.813500  0.040300  0.093800  1
  C  C1329  1  0.797200  0.949200  0.939600  1
  C  C1330  1  0.202800  0.050800  0.939600  1
  C  C1331  1  0.202800  0.949200  0.060400  1
  C  C1332  1  0.797200  0.050800  0.060400  1
  C  C1333  1  0.837600  0.979200  0.960500  1
  C  C1334  1  0.162400  0.020800  0.960500  1
  C  C1335  1  0.162400  0.979200  0.039500  1
  C  C1336  1  0.837600  0.020800  0.039500  1
  C  C1337  1  0.902500  0.963700  0.953700  1
  C  C1338  1  0.097500  0.036300  0.953700  1
  C  C1339  1  0.097500  0.963700  0.046300  1
  C  C1340  1  0.902500  0.036300  0.046300  1
  C  C1341  1  0.920100  0.984100  0.922200  1
  C  C1342  1  0.079900  0.015900  0.922200  1
  C  C1343  1  0.079900  0.984100  0.077800  1
  C  C1344  1  0.920100  0.015900  0.077800  1
  C  C1345  1  0.880700  0.947200  0.902200  1
  C  C1346  1  0.119300  0.052800  0.902200  1
  C  C1347  1  0.119300  0.947200  0.097800  1
  C  C1348  1  0.880700  0.052800  0.097800  1
  C  C1349  1  0.940400  0.194600  0.930600  1
  C  C1350  1  0.059600  0.805400  0.930600  1
  C  C1351  1  0.059600  0.194600  0.069400  1
  C  C1352  1  0.940400  0.805400  0.069400  1
  C  C1353  1  0.967000  0.141900  0.948200  1
  C  C1354  1  0.033000  0.858100  0.948200  1
  C  C1355  1  0.033000  0.141900  0.051800  1
  C  C1356  1  0.967000  0.858100  0.051800  1
  C  C1357  1  0.915500  0.128800  0.973100  1
  C  C1358  1  0.084500  0.871200  0.973100  1
  C  C1359  1  0.084500  0.128800  0.026900  1
  C  C1360  1  0.915500  0.871200  0.026900  1
  C  C1361  1  0.899400  0.177200  0.993000  1
  C  C1362  1  0.100600  0.822800  0.993000  1
  C  C1363  1  0.100600  0.177200  0.007000  1
  C  C1364  1  0.899400  0.822800  0.007000  1
  C  C1365  1  0.880700  0.218400  0.972500  1
  C  C1366  1  0.119300  0.781600  0.972500  1
  C  C1367  1  0.119300  0.218400  0.027500  1
  C  C1368  1  0.880700  0.781600  0.027500  1
  C  C1369  1  0.922500  0.237700  0.948800  1
  C  C1370  1  0.077500  0.762300  0.948800  1
  C  C1371  1  0.077500  0.237700  0.051200  1
  C  C1372  1  0.922500  0.762300  0.051200  1
  C  C1373  1  0.668200  0.169500  0.957800  1
  C  C1374  1  0.331800  0.830500  0.957800  1
  C  C1375  1  0.331800  0.169500  0.042200  1
  C  C1376  1  0.668200  0.830500  0.042200  1
  C  C1377  1  0.708000  0.172100  0.986800  1
  C  C1378  1  0.292000  0.827900  0.986800  1
  C  C1379  1  0.292000  0.172100  0.013200  1
  C  C1380  1  0.708000  0.827900  0.013200  1
  C  C1381  1  0.744000  0.117700  0.991600  1
  C  C1382  1  0.256000  0.882300  0.991600  1
  C  C1383  1  0.256000  0.117700  0.008400  1
  C  C1384  1  0.744000  0.882300  0.008400  1
  C  C1385  1  0.701200  0.076500  0.991900  1
  C  C1386  1  0.298800  0.923500  0.991900  1
  C  C1387  1  0.298800  0.076500  0.008100  1
  C  C1388  1  0.701200  0.923500  0.008100  1
  C  C1389  1  0.659800  0.068200  0.966900  1
  C  C1390  1  0.340200  0.931800  0.966900  1
  C  C1391  1  0.340200  0.068200  0.033100  1
  C  C1392  1  0.659800  0.931800  0.033100  1
  C  C1393  1  0.622700  0.121600  0.962700  1
  C  C1394  1  0.377300  0.878400  0.962700  1
  C  C1395  1  0.377300  0.121600  0.037300  1
  C  C1396  1  0.622700  0.878400  0.037300  1
  C  C1397  1  0.622100  0.171300  0.532900  1
  C  C1398  1  0.377900  0.828700  0.532900  1
  C  C1399  1  0.377900  0.171300  0.467100  1
  C  C1400  1  0.622100  0.828700  0.467100  1
  C  C1401  1  0.567200  0.206300  0.525200  1
  C  C1402  1  0.432800  0.793700  0.525200  1
  C  C1403  1  0.432800  0.206300  0.474800  1
  C  C1404  1  0.567200  0.793700  0.474800  1
  C  C1405  1  0.582600  0.244700  0.498200  1
  C  C1406  1  0.417400  0.755300  0.498200  1
  C  C1407  1  0.417400  0.244700  0.501800  1
  C  C1408  1  0.582600  0.755300  0.501800  1
  C  C1409  1  0.637400  0.275800  0.507200  1
  C  C1410  1  0.362600  0.724200  0.507200  1
  C  C1411  1  0.362600  0.275800  0.492800  1
  C  C1412  1  0.637400  0.724200  0.492800  1
  C  C1413  1  0.695700  0.242400  0.510200  1
  C  C1414  1  0.304300  0.757600  0.510200  1
  C  C1415  1  0.304300  0.242400  0.489800  1
  C  C1416  1  0.695700  0.757600  0.489800  1
  C  C1417  1  0.682800  0.192000  0.534200  1
  C  C1418  1  0.317200  0.808000  0.534200  1
  C  C1419  1  0.317200  0.192000  0.465800  1
  C  C1420  1  0.682800  0.808000  0.465800  1
  C  C1421  1  0.779000  0.413500  0.553200  1
  C  C1422  1  0.221000  0.586500  0.553200  1
  C  C1423  1  0.221000  0.413500  0.446800  1
  C  C1424  1  0.779000  0.586500  0.446800  1
  C  C1425  1  0.759800  0.379800  0.525700  1
  C  C1426  1  0.240200  0.620200  0.525700  1
  C  C1427  1  0.240200  0.379800  0.474300  1
  C  C1428  1  0.759800  0.620200  0.474300  1
  C  C1429  1  0.711700  0.415600  0.509700  1
  C  C1430  1  0.288300  0.584400  0.509700  1
  C  C1431  1  0.288300  0.415600  0.490300  1
  C  C1432  1  0.711700  0.584400  0.490300  1
  C  C1433  1  0.654000  0.427600  0.526000  1
  C  C1434  1  0.346000  0.572400  0.526000  1
  C  C1435  1  0.346000  0.427600  0.474000  1
  C  C1436  1  0.654000  0.572400  0.474000  1
  C  C1437  1  0.671600  0.458600  0.553700  1
  C  C1438  1  0.328400  0.541400  0.553700  1
  C  C1439  1  0.328400  0.458600  0.446300  1
  C  C1440  1  0.671600  0.541400  0.446300  1
  C  C1441  1  0.720000  0.432000  0.571600  1
  C  C1442  1  0.280000  0.568000  0.571600  1
  C  C1443  1  0.280000  0.432000  0.428400  1
  C  C1444  1  0.720000  0.568000  0.428400  1
  C  C1445  1  0.424000  0.405200  0.597300  1
  C  C1446  1  0.576000  0.594800  0.597300  1
  C  C1447  1  0.576000  0.405200  0.402700  1
  C  C1448  1  0.424000  0.594800  0.402700  1
  C  C1449  1  0.461700  0.443000  0.577700  1
  C  C1450  1  0.538300  0.557000  0.577700  1
  C  C1451  1  0.538300  0.443000  0.422300  1
  C  C1452  1  0.461700  0.557000  0.422300  1
  C  C1453  1  0.446000  0.429500  0.543900  1
  C  C1454  1  0.554000  0.570500  0.543900  1
  C  C1455  1  0.554000  0.429500  0.456100  1
  C  C1456  1  0.446000  0.570500  0.456100  1
  C  C1457  1  0.453600  0.373700  0.540200  1
  C  C1458  1  0.546400  0.626300  0.540200  1
  C  C1459  1  0.546400  0.373700  0.459800  1
  C  C1460  1  0.453600  0.626300  0.459800  1
  C  C1461  1  0.417900  0.339300  0.559000  1
  C  C1462  1  0.582100  0.660700  0.559000  1
  C  C1463  1  0.582100  0.339300  0.441000  1
  C  C1464  1  0.417900  0.660700  0.441000  1
  C  C1465  1  0.433100  0.351500  0.590800  1
  C  C1466  1  0.566900  0.648500  0.590800  1
  C  C1467  1  0.566900  0.351500  0.409200  1
  C  C1468  1  0.433100  0.648500  0.409200  1
  N  N1469  1  0.614000  0.323200  0.660700  1
  N  N1470  1  0.386000  0.676800  0.660700  1
  N  N1471  1  0.386000  0.323200  0.339300  1
  N  N1472  1  0.614000  0.676800  0.339300  1
  N  N1473  1  0.651200  0.192700  0.780600  1
  N  N1474  1  0.348800  0.807300  0.780600  1
  N  N1475  1  0.348800  0.192700  0.219400  1
  N  N1476  1  0.651200  0.807300  0.219400  1
  N  N1477  1  0.703100  0.286300  0.752900  1
  N  N1478  1  0.296900  0.713700  0.752900  1
  N  N1479  1  0.296900  0.286300  0.247100  1
  N  N1480  1  0.703100  0.713700  0.247100  1
  N  N1481  1  0.747000  0.225400  0.707200  1
  N  N1482  1  0.253000  0.774600  0.707200  1
  N  N1483  1  0.253000  0.225400  0.292800  1
  N  N1484  1  0.747000  0.774600  0.292800  1
  N  N1485  1  0.809800  0.220800  0.823300  1
  N  N1486  1  0.190200  0.779200  0.823300  1
  N  N1487  1  0.190200  0.220800  0.176700  1
  N  N1488  1  0.809800  0.779200  0.176700  1
  N  N1489  1  0.744600  0.140600  0.793600  1
  N  N1490  1  0.255400  0.859400  0.793600  1
  N  N1491  1  0.255400  0.140600  0.206400  1
  N  N1492  1  0.744600  0.859400  0.206400  1
  N  N1493  1  0.639400  0.226300  0.684200  1
  N  N1494  1  0.360600  0.773700  0.684200  1
  N  N1495  1  0.360600  0.226300  0.315800  1
  N  N1496  1  0.639400  0.773700  0.315800  1
  N  N1497  1  0.563200  0.057200  0.786900  1
  N  N1498  1  0.436800  0.942800  0.786900  1
  N  N1499  1  0.436800  0.057200  0.213100  1
  N  N1500  1  0.563200  0.942800  0.213100  1
  N  N1501  1  0.597000  0.025600  0.727000  1
  N  N1502  1  0.403000  0.974400  0.727000  1
  N  N1503  1  0.403000  0.025600  0.273000  1
  N  N1504  1  0.597000  0.974400  0.273000  1
  N  N1505  1  0.522600  0.102300  0.699700  1
  N  N1506  1  0.477400  0.897700  0.699700  1
  N  N1507  1  0.477400  0.102300  0.300300  1
  N  N1508  1  0.522600  0.897700  0.300300  1
  N  N1509  1  0.487400  0.135700  0.760200  1
  N  N1510  1  0.512600  0.864300  0.760200  1
  N  N1511  1  0.512600  0.135700  0.239800  1
  N  N1512  1  0.487400  0.864300  0.239800  1
  N  N1513  1  0.746300  0.911100  0.820700  1
  N  N1514  1  0.253700  0.088900  0.820700  1
  N  N1515  1  0.253700  0.911100  0.179300  1
  N  N1516  1  0.746300  0.088900  0.179300  1
  N  N1517  1  0.654700  0.048500  0.593200  1
  N  N1518  1  0.345300  0.951500  0.593200  1
  N  N1519  1  0.345300  0.048500  0.406800  1
  N  N1520  1  0.654700  0.951500  0.406800  1
  N  N1521  1  0.374100  0.285100  0.672200  1
  N  N1522  1  0.625900  0.714900  0.672200  1
  N  N1523  1  0.625900  0.285100  0.327800  1
  N  N1524  1  0.374100  0.714900  0.327800  1
  N  N1525  1  0.503700  0.171800  0.893100  1
  N  N1526  1  0.496300  0.828200  0.893100  1
  N  N1527  1  0.496300  0.171800  0.106900  1
  N  N1528  1  0.503700  0.828200  0.106900  1
  N  N1529  1  0.940200  0.136000  0.754000  1
  N  N1530  1  0.059800  0.864000  0.754000  1
  N  N1531  1  0.059800  0.136000  0.246000  1
  N  N1532  1  0.940200  0.864000  0.246000  1
  N  N1533  1  0.957900  0.233300  0.723000  1
  N  N1534  1  0.042100  0.766700  0.723000  1
  N  N1535  1  0.042100  0.233300  0.277000  1
  N  N1536  1  0.957900  0.766700  0.277000  1
  N  N1537  1  0.910500  0.187400  0.668200  1
  N  N1538  1  0.089500  0.812600  0.668200  1
  N  N1539  1  0.089500  0.187400  0.331800  1
  N  N1540  1  0.910500  0.812600  0.331800  1
  N  N1541  1  0.896600  0.089100  0.701500  1
  N  N1542  1  0.103400  0.910900  0.701500  1
  N  N1543  1  0.103400  0.089100  0.298500  1
  N  N1544  1  0.896600  0.910900  0.298500  1
  N  N1545  1  0.001400  0.270000  0.854300  1
  N  N1546  1  0.998600  0.730000  0.854300  1
  N  N1547  1  0.998600  0.270000  0.145700  1
  N  N1548  1  0.001400  0.730000  0.145700  1
  N  N1549  1  0.891300  0.402600  0.629900  1
  N  N1550  1  0.108700  0.597400  0.629900  1
  N  N1551  1  0.108700  0.402600  0.370100  1
  N  N1552  1  0.891300  0.597400  0.370100  1
  N  N1553  1  0.775700  0.075000  0.581400  1
  N  N1554  1  0.224300  0.925000  0.581400  1
  N  N1555  1  0.224300  0.075000  0.418600  1
  N  N1556  1  0.775700  0.925000  0.418600  1
  N  N1557  1  0.862700  0.940800  0.806100  1
  N  N1558  1  0.137300  0.059200  0.806100  1
  N  N1559  1  0.137300  0.940800  0.193900  1
  N  N1560  1  0.862700  0.059200  0.193900  1
  N  N1561  1  0.688300  0.389200  0.834600  1
  N  N1562  1  0.311700  0.610800  0.834600  1
  N  N1563  1  0.311700  0.389200  0.165400  1
  N  N1564  1  0.688300  0.610800  0.165400  1
  N  N1565  1  0.573000  0.394800  0.800700  1
  N  N1566  1  0.427000  0.605200  0.800700  1
  N  N1567  1  0.427000  0.394800  0.199300  1
  N  N1568  1  0.573000  0.605200  0.199300  1
  N  N1569  1  0.637900  0.429600  0.747600  1
  N  N1570  1  0.362100  0.570400  0.747600  1
  N  N1571  1  0.362100  0.429600  0.252400  1
  N  N1572  1  0.637900  0.570400  0.252400  1
  N  N1573  1  0.745100  0.429300  0.782000  1
  N  N1574  1  0.254900  0.570700  0.782000  1
  N  N1575  1  0.254900  0.429300  0.218000  1
  N  N1576  1  0.745100  0.570700  0.218000  1
  N  N1577  1  0.546800  0.267200  0.913500  1
  N  N1578  1  0.453200  0.732800  0.913500  1
  N  N1579  1  0.453200  0.267200  0.086500  1
  N  N1580  1  0.546800  0.732800  0.086500  1
  N  N1581  1  0.408100  0.384100  0.693400  1
  N  N1582  1  0.591900  0.615900  0.693400  1
  N  N1583  1  0.591900  0.384100  0.306600  1
  N  N1584  1  0.408100  0.615900  0.306600  1
  N  N1585  1  0.804900  0.473700  0.652100  1
  N  N1586  1  0.195100  0.526300  0.652100  1
  N  N1587  1  0.195100  0.473700  0.347900  1
  N  N1588  1  0.804900  0.526300  0.347900  1
  N  N1589  1  0.916500  0.349500  0.878500  1
  N  N1590  1  0.083500  0.650500  0.878500  1
  N  N1591  1  0.083500  0.349500  0.121500  1
  N  N1592  1  0.916500  0.650500  0.121500  1
  N  N1593  1  0.779000  0.926700  0.885000  1
  N  N1594  1  0.221000  0.073300  0.885000  1
  N  N1595  1  0.221000  0.926700  0.115000  1
  N  N1596  1  0.779000  0.073300  0.115000  1
  N  N1597  1  0.894200  0.959300  0.868000  1
  N  N1598  1  0.105800  0.040700  0.868000  1
  N  N1599  1  0.105800  0.959300  0.132000  1
  N  N1600  1  0.894200  0.040700  0.132000  1
  N  N1601  1  0.983600  0.210800  0.908200  1
  N  N1602  1  0.016400  0.789200  0.908200  1
  N  N1603  1  0.016400  0.210800  0.091800  1
  N  N1604  1  0.983600  0.789200  0.091800  1
  N  N1605  1  0.903400  0.276600  0.929900  1
  N  N1606  1  0.096600  0.723400  0.929900  1
  N  N1607  1  0.096600  0.276600  0.070100  1
  N  N1608  1  0.903400  0.723400  0.070100  1
  N  N1609  1  0.627800  0.213800  0.952800  1
  N  N1610  1  0.372200  0.786200  0.952800  1
  N  N1611  1  0.372200  0.213800  0.047200  1
  N  N1612  1  0.627800  0.786200  0.047200  1
  N  N1613  1  0.589700  0.117900  0.934900  1
  N  N1614  1  0.410300  0.882100  0.934900  1
  N  N1615  1  0.410300  0.117900  0.065100  1
  N  N1616  1  0.589700  0.882100  0.065100  1
  N  N1617  1  0.616800  0.125900  0.553900  1
  N  N1618  1  0.383200  0.874100  0.553900  1
  N  N1619  1  0.383200  0.125900  0.446100  1
  N  N1620  1  0.616800  0.874100  0.446100  1
  N  N1621  1  0.728600  0.153500  0.539500  1
  N  N1622  1  0.271400  0.846500  0.539500  1
  N  N1623  1  0.271400  0.153500  0.460500  1
  N  N1624  1  0.728600  0.846500  0.460500  1
  N  N1625  1  0.823800  0.388700  0.574900  1
  N  N1626  1  0.176200  0.611300  0.574900  1
  N  N1627  1  0.176200  0.388700  0.425100  1
  N  N1628  1  0.823800  0.611300  0.425100  1
  N  N1629  1  0.735800  0.465700  0.596900  1
  N  N1630  1  0.264200  0.534300  0.596900  1
  N  N1631  1  0.264200  0.465700  0.403100  1
  N  N1632  1  0.735800  0.534300  0.403100  1
  N  N1633  1  0.430900  0.411600  0.631100  1
  N  N1634  1  0.569100  0.588400  0.631100  1
  N  N1635  1  0.569100  0.411600  0.368900  1
  N  N1636  1  0.430900  0.588400  0.368900  1
  N  N1637  1  0.402300  0.312500  0.610000  1
  N  N1638  1  0.597700  0.687500  0.610000  1
  N  N1639  1  0.597700  0.312500  0.390000  1
  N  N1640  1  0.402300  0.687500  0.390000  1
  N  N1641  1  0.922200  0.098000  0.870500  1
  N  N1642  1  0.077800  0.902000  0.870500  1
  N  N1643  1  0.077800  0.098000  0.129500  1
  N  N1644  1  0.922200  0.902000  0.129500  1
  N  N1645  1  0.694700  0.096400  0.862100  1
  N  N1646  1  0.305300  0.903600  0.862100  1
  N  N1647  1  0.305300  0.096400  0.137900  1
  N  N1648  1  0.694700  0.903600  0.137900  1
  N  N1649  1  0.737300  0.309100  0.945700  1
  N  N1650  1  0.262700  0.690900  0.945700  1
  N  N1651  1  0.262700  0.309100  0.054300  1
  N  N1652  1  0.737300  0.690900  0.054300  1
  N  N1653  1  0.593000  0.455900  0.630200  1
  N  N1654  1  0.407000  0.544100  0.630200  1
  N  N1655  1  0.407000  0.455900  0.369800  1
  N  N1656  1  0.593000  0.544100  0.369800  1
  N  N1657  1  0.260000  0.316000  0.775300  1
  N  N1658  1  0.740000  0.684000  0.775300  1
  N  N1659  1  0.740000  0.316000  0.224700  1
  N  N1660  1  0.260000  0.684000  0.224700  1
  N  N1661  1  0.000000  0.500000  0.721900  1
  N  N1662  1  0.000000  0.500000  0.278100  1
  O  O1663  1  0.723400  0.248200  0.825300  1
  O  O1664  1  0.276600  0.751800  0.825300  1
  O  O1665  1  0.276600  0.248200  0.174700  1
  O  O1666  1  0.723400  0.751800  0.174700  1
  O  O1667  1  0.629200  0.290800  0.727100  1
  O  O1668  1  0.370800  0.709200  0.727100  1
  O  O1669  1  0.370800  0.290800  0.272900  1
  O  O1670  1  0.629200  0.709200  0.272900  1
  O  O1671  1  0.746700  0.298800  0.678200  1
  O  O1672  1  0.253300  0.701200  0.678200  1
  O  O1673  1  0.253300  0.298800  0.321800  1
  O  O1674  1  0.746700  0.701200  0.321800  1
  O  O1675  1  0.675700  0.192800  0.638200  1
  O  O1676  1  0.324300  0.807200  0.638200  1
  O  O1677  1  0.324300  0.192800  0.361800  1
  O  O1678  1  0.675700  0.807200  0.361800  1
  O  O1679  1  0.780200  0.169800  0.748800  1
  O  O1680  1  0.219800  0.830200  0.748800  1
  O  O1681  1  0.219800  0.169800  0.251200  1
  O  O1682  1  0.780200  0.830200  0.251200  1
  O  O1683  1  0.623600  0.143400  0.743300  1
  O  O1684  1  0.376400  0.856600  0.743300  1
  O  O1685  1  0.376400  0.143400  0.256700  1
  O  O1686  1  0.623600  0.856600  0.256700  1
  O  O1687  1  0.523600  0.290600  0.642800  1
  O  O1688  1  0.476400  0.709400  0.642800  1
  O  O1689  1  0.476400  0.290600  0.357200  1
  O  O1690  1  0.523600  0.709400  0.357200  1
  O  O1691  1  0.031300  0.137500  0.699100  1
  O  O1692  1  0.968700  0.862500  0.699100  1
  O  O1693  1  0.968700  0.137500  0.300900  1
  O  O1694  1  0.031300  0.862500  0.300900  1
  O  O1695  1  0.645400  0.501900  0.806300  1
  O  O1696  1  0.354600  0.498100  0.806300  1
  O  O1697  1  0.354600  0.501900  0.193700  1
  O  O1698  1  0.645400  0.498100  0.193700  1
  O  O1699  1  0.966600  0.077900  0.869600  1
  O  O1700  1  0.033400  0.922100  0.869600  1
  O  O1701  1  0.033400  0.077900  0.130400  1
  O  O1702  1  0.966600  0.922100  0.130400  1
  O  O1703  1  0.874700  0.070900  0.860100  1
  O  O1704  1  0.125300  0.929100  0.860100  1
  O  O1705  1  0.125300  0.070900  0.139900  1
  O  O1706  1  0.874700  0.929100  0.139900  1
  O  O1707  1  0.909700  0.143700  0.870400  1
  O  O1708  1  0.090300  0.856300  0.870400  1
  O  O1709  1  0.090300  0.143700  0.129600  1
  O  O1710  1  0.909700  0.856300  0.129600  1
  O  O1711  1  0.677600  0.085400  0.887600  1
  O  O1712  1  0.322400  0.914600  0.887600  1
  O  O1713  1  0.322400  0.085400  0.112400  1
  O  O1714  1  0.677600  0.914600  0.112400  1
  O  O1715  1  0.680700  0.139600  0.851900  1
  O  O1716  1  0.319300  0.860400  0.851900  1
  O  O1717  1  0.319300  0.139600  0.148100  1
  O  O1718  1  0.680700  0.860400  0.148100  1
  O  O1719  1  0.727400  0.066200  0.847300  1
  O  O1720  1  0.272600  0.933800  0.847300  1
  O  O1721  1  0.272600  0.066200  0.152700  1
  O  O1722  1  0.727400  0.933800  0.152700  1
  O  O1723  1  0.750500  0.268000  0.933100  1
  O  O1724  1  0.249500  0.732000  0.933100  1
  O  O1725  1  0.249500  0.268000  0.066900  1
  O  O1726  1  0.750500  0.732000  0.066900  1
  O  O1727  1  0.774500  0.344100  0.950400  1
  O  O1728  1  0.225500  0.655900  0.950400  1
  O  O1729  1  0.225500  0.344100  0.049600  1
  O  O1730  1  0.774500  0.655900  0.049600  1
  O  O1731  1  0.686400  0.315800  0.955800  1
  O  O1732  1  0.313600  0.684200  0.955800  1
  O  O1733  1  0.313600  0.315800  0.044200  1
  O  O1734  1  0.686400  0.684200  0.044200  1
  O  O1735  1  0.610800  0.410000  0.630100  1
  O  O1736  1  0.389200  0.590000  0.630100  1
  O  O1737  1  0.389200  0.410000  0.369900  1
  O  O1738  1  0.610800  0.590000  0.369900  1
  O  O1739  1  0.632100  0.490600  0.628800  1
  O  O1740  1  0.367900  0.509400  0.628800  1
  O  O1741  1  0.367900  0.490600  0.371200  1
  O  O1742  1  0.632100  0.509400  0.371200  1
  O  O1743  1  0.544600  0.468100  0.640600  1
  O  O1744  1  0.455400  0.531900  0.640600  1
  O  O1745  1  0.455400  0.468100  0.359400  1
  O  O1746  1  0.544600  0.531900  0.359400  1
  O  O1747  1  0.229000  0.280000  0.784200  1
  O  O1748  1  0.771000  0.720000  0.784200  1
  O  O1749  1  0.771000  0.280000  0.215800  1
  O  O1750  1  0.229000  0.720000  0.215800  1
  O  O1751  1  0.314000  0.319000  0.782000  1
  O  O1752  1  0.686000  0.681000  0.782000  1
  O  O1753  1  0.686000  0.319000  0.218000  1
  O  O1754  1  0.314000  0.681000  0.218000  1
  O  O1755  1  0.238000  0.351000  0.759000  1
  O  O1756  1  0.762000  0.649000  0.759000  1
  O  O1757  1  0.762000  0.351000  0.241000  1
  O  O1758  1  0.238000  0.649000  0.241000  1
  O  O1759  1  0.000000  0.500000  0.748800  1
  O  O1760  1  0.000000  0.500000  0.251200  1
  O  O1761  1  0.472500  0.088400  0.965500  1
  O  O1762  1  0.527500  0.911600  0.965500  1
  O  O1763  1  0.527500  0.088400  0.034500  1
  O  O1764  1  0.472500  0.911600  0.034500  1
  O  O1765  1  0.198600  0.121800  0.714100  1
  O  O1766  1  0.801400  0.878200  0.714100  1
  O  O1767  1  0.801400  0.121800  0.285900  1
  O  O1768  1  0.198600  0.878200  0.285900  1
  O  O1769  1  0.506200  0.051900  0.548500  1
  O  O1770  1  0.493800  0.948100  0.548500  1
  O  O1771  1  0.493800  0.051900  0.451500  1
  O  O1772  1  0.506200  0.948100  0.451500  1
  O  O1773  1  0.797700  0.112300  0.907100  1
  O  O1774  1  0.202300  0.887700  0.907100  1
  O  O1775  1  0.202300  0.112300  0.092900  1
  O  O1776  1  0.797700  0.887700  0.092900  1
  O  O1777  1  0.747200  0.310400  0.614700  1
  O  O1778  1  0.252800  0.689600  0.614700  1
  O  O1779  1  0.252800  0.310400  0.385300  1
  O  O1780  1  0.747200  0.689600  0.385300  1
  O  O1781  1  0.735000  0.603400  0.636000  1
  O  O1782  1  0.265000  0.396600  0.636000  1
  O  O1783  1  0.265000  0.603400  0.364000  1
  O  O1784  1  0.735000  0.396600  0.364000  1
  O  O1785  1  0.622800  0.311200  0.584000  1
  O  O1786  1  0.377200  0.688800  0.584000  1
  O  O1787  1  0.377200  0.311200  0.416000  1
  O  O1788  1  0.622800  0.688800  0.416000  1
  O  O1789  1  0.579000  0.206600  0.604300  1
  O  O1790  1  0.421000  0.793400  0.604300  1
  O  O1791  1  0.421000  0.206600  0.395700  1
  O  O1792  1  0.579000  0.793400  0.395700  1
  O  O1793  1  0.661600  0.977500  0.889300  1
  O  O1794  1  0.338400  0.022500  0.889300  1
  O  O1795  1  0.338400  0.977500  0.110700  1
  O  O1796  1  0.661600  0.022500  0.110700  1
  O  O1797  1  0.916200  0.826800  0.863000  1
  O  O1798  1  0.083800  0.173200  0.863000  1
  O  O1799  1  0.083800  0.826800  0.137000  1
  O  O1800  1  0.916200  0.173200  0.137000  1
  O  O1801  1  0.806000  0.258400  0.563500  1
  O  O1802  1  0.194000  0.741600  0.563500  1
  O  O1803  1  0.194000  0.258400  0.436500  1
  O  O1804  1  0.806000  0.741600  0.436500  1
  O  O1805  1  0.033000  0.073000  0.652900  1
  O  O1806  1  0.967000  0.927000  0.652900  1
  O  O1807  1  0.967000  0.073000  0.347100  1
  O  O1808  1  0.033000  0.927000  0.347100  1
  O  O1809  1  0.186000  0.206000  0.747900  1
  O  O1810  1  0.814000  0.794000  0.747900  1
  O  O1811  1  0.814000  0.206000  0.252100  1
  O  O1812  1  0.186000  0.794000  0.252100  1
  O  O1813  1  0.181000  0.110000  0.651400  1
  O  O1814  1  0.819000  0.890000  0.651400  1
  O  O1815  1  0.819000  0.110000  0.348600  1
  O  O1816  1  0.181000  0.890000  0.348600  1
  O  O1817  1  0.000000  0.000000  0.672100  1
  O  O1818  1  0.000000  0.000000  0.327900  1
  O  O1819  1  0.253000  0.427000  0.793300  1
  O  O1820  1  0.747000  0.573000  0.793300  1
  O  O1821  1  0.747000  0.427000  0.206700  1
  O  O1822  1  0.253000  0.573000  0.206700  1
  O  O1823  1  0.449200  0.207500  0.597500  1
  O  O1824  1  0.550800  0.792500  0.597500  1
  O  O1825  1  0.550800  0.207500  0.402500  1
  O  O1826  1  0.449200  0.792500  0.402500  1
  O  O1827  1  0.108000  0.395000  0.758000  1
  O  O1828  1  0.892000  0.605000  0.758000  1
  O  O1829  1  0.892000  0.395000  0.242000  1
  O  O1830  1  0.108000  0.605000  0.242000  1
  O  O1831  1  0.699000  0.000000  0.500000  1
  O  O1832  1  0.301000  0.000000  0.500000  1
  O  O1833  1  0.508000  0.030200  0.908300  1
  O  O1834  1  0.492000  0.969800  0.908300  1
  O  O1835  1  0.492000  0.030200  0.091700  1
  O  O1836  1  0.508000  0.969800  0.091700  1
  O  O1837  1  0.152000  0.361000  0.738800  1
  O  O1838  1  0.848000  0.639000  0.738800  1
  O  O1839  1  0.848000  0.361000  0.261200  1
  O  O1840  1  0.152000  0.639000  0.261200  1
  O  O1841  1  0.045100  0.515000  0.707700  1.0
  O  O1842  1  0.954900  0.485000  0.707700  1.0
  O  O1843  1  0.954900  0.515000  0.292300  1.0
  O  O1844  1  0.045100  0.485000  0.292300  1.0
