
#######################################################################
#
#                 Cambridge Crystallographic Data Centre
#                                CCDC 
#
#######################################################################
#
# If this CIF has been generated from an entry in the Cambridge 
# Structural Database, then it will include bibliographic, chemical, 
# crystal, experimental, refinement or atomic coordinate data resulting 
# from the CCDC's data processing and validation procedures.
#
#######################################################################

data_CUDYEG
_chemical_formula_moiety         
'C167 H192 N40 O6 Pd6 Zn3 6+,6(N1 O3 1-),12.25(H2 O1)'
_chemical_name_systematic        
'hexakis(1,2-diaminocyclohexane)-tris(\m~5~-5,10,15,20-tetrakis(3-pyridyl)porphyrinato)-(N-[acetyl]alanylalanylalaninamide)-diaqua-hexa-palladium(ii)-tri-zinc hexanitrate hydrate'
_symmetry_cell_setting           orthorhombic
_symmetry_space_group_name_H-M   'P 2 2 2'
_symmetry_Int_Tables_number      16
_space_group_name_Hall           'P 2 2'
loop_
_symmetry_equiv_pos_site_id
_symmetry_equiv_pos_as_xyz
1 x,y,z
2 -x,-y,z
3 -x,y,-z
4 x,-y,-z
_cell_length_a                   22.145(4)
_cell_length_b                   25.674(5)
_cell_length_c                   44.795(9)
_cell_angle_alpha                90
_cell_angle_beta                 90
_cell_angle_gamma                90
_cell_volume                     25468.2
_exptl_crystal_colour            violet
_exptl_crystal_description       plate
_cell_formula_units_Z            4
loop_
_atom_site_label
_atom_site_type_symbol
_atom_site_fract_x
_atom_site_fract_y
_atom_site_fract_z
Pd1 Pd 0.31849(14) 0.43331(13) 0.84293(5)
Pd2 Pd 0.30929(16) 0.92783(12) 0.61434(6)
Pd3 Pd 0.45454(18) 0.77085(16) 0.88811(6)
Pd4 Pd 0.18361(16) 0.59494(14) 0.56546(6)
Pd5 Pd -0.09386(16) 0.85541(12) 0.65411(6)
Pd6 Pd 0.06595(16) 0.69049(13) 0.92462(6)
Zn1 Zn 0.4280(2) 0.6523(2) 0.70709(8)
Zn2 Zn 0.1638(2) 0.91602(19) 0.79378(8)
Zn3 Zn 0.0552(2) 0.59105(18) 0.74346(9)
C1 C 0.205(3) 0.608(3) 0.7786(16)
H1 H 0.2104 0.5785 0.7652
H2 H 0.1866 0.5964 0.7973
H3 H 0.2437 0.6247 0.7826
C2 C 0.1625(18) 0.648(2) 0.7637(7)
O1 O 0.1354(13) 0.6430(11) 0.7398(7)
N1 N 0.1673(18) 0.6847(15) 0.7851(9)
H4 H 0.1932 0.6837 0.7999
C3 C 0.124(2) 0.7259(18) 0.7802(10)
H5 H 0.0851 0.7089 0.7746
C4 C 0.112(3) 0.758(2) 0.8087(11)
H6 H 0.0834 0.7860 0.8042
H7 H 0.1502 0.7732 0.8158
H8 H 0.0953 0.7353 0.8241
C5 C 0.144(2) 0.7572(14) 0.7533(9)
O2 O 0.105(2) 0.7789(17) 0.7386(11)
N2 N 0.203(2) 0.7586(18) 0.7475(11)
H9 H 0.2272 0.7376 0.7575
C6 C 0.2298(18) 0.792(2) 0.7258(10)
H10 H 0.2042 0.8241 0.7230
C7 C 0.2972(19) 0.8079(19) 0.7276(11)
H11 H 0.3083 0.8277 0.7097
H12 H 0.3221 0.7764 0.7288
H13 H 0.3039 0.8294 0.7453
C8 C 0.2326(13) 0.7609(15) 0.6968(12)
O3 O 0.252(2) 0.7840(19) 0.6742(10)
N3 N 0.205(2) 0.7146(16) 0.6963(12)
H14 H 0.1786 0.7062 0.7100
C9 C 0.221(2) 0.678(3) 0.6727(10)
H15 H 0.2609 0.6886 0.6643
C10 C 0.225(2) 0.6262(17) 0.6834(10)
H16 H 0.2575 0.6238 0.6982
H17 H 0.2335 0.6027 0.6667
H18 H 0.1866 0.6162 0.6928
C11 C 0.1725(17) 0.6899(13) 0.6494(8)
O4 O 0.1798(18) 0.6752(15) 0.6230(8)
N4 N 0.124(2) 0.715(2) 0.6605(14)
H19 H 0.0939 0.7232 0.6488
H20 H 0.1236 0.7240 0.6795
C12 C -0.0216(19) 0.6427(16) 0.6960(8)
C13 C -0.0238(16) 0.6463(14) 0.6631(7)
H21 H -0.0468 0.6699 0.6514
C14 C 0.0128(18) 0.6100(15) 0.6537(9)
H22 H 0.0172 0.5993 0.6335
C15 C 0.0464(17) 0.5879(16) 0.6794(9)
C16 C 0.080(2) 0.5491(18) 0.6727(9)
C17 C 0.1115(18) 0.5173(15) 0.6968(8)
C18 C 0.1567(15) 0.4798(12) 0.6939(7)
H23 H 0.1746 0.4679 0.6759
C19 C 0.1709(18) 0.4626(15) 0.7241(9)
H24 H 0.2018 0.4391 0.7300
C20 C 0.1269(17) 0.4897(15) 0.7437(8)
C21 C 0.1293(17) 0.4872(15) 0.7768(9)
C22 C 0.0975(17) 0.5149(15) 0.7943(9)
C23 C 0.0899(14) 0.5031(13) 0.8242(7)
H25 H 0.1049 0.4745 0.8355
C24 C 0.0551(16) 0.5436(14) 0.8329(8)
H26 H 0.0413 0.5468 0.8529
C25 C 0.0411(16) 0.5785(14) 0.8125(8)
C26 C 0.0071(19) 0.6185(17) 0.8165(9)
C27 C -0.0135(19) 0.6532(18) 0.7916(10)
C28 C -0.0466(14) 0.7010(12) 0.7964(7)
H27 H -0.0559 0.7185 0.8145
C29 C -0.0611(18) 0.7144(15) 0.7667(9)
H28 H -0.0850 0.7439 0.7619
C30 C -0.0367(19) 0.6798(17) 0.7441(10)
C31 C -0.0489(19) 0.6758(16) 0.7142(10)
C32 C 0.1264(15) 0.5614(15) 0.6178(8)
H29 H 0.1309 0.5979 0.6203
C33 C 0.1023(16) 0.5296(15) 0.6433(8)
C34 C 0.095(2) 0.4781(18) 0.6309(10)
H30 H 0.0797 0.4533 0.6447
C35 C 0.1051(18) 0.4582(17) 0.6028(10)
H31 H 0.0956 0.4237 0.5967
C36 C 0.1313(19) 0.496(2) 0.5849(9)
H32 H 0.1420 0.4853 0.5653
C37 C 0.2125(15) 0.4547(14) 0.8064(7)
H33 H 0.2221 0.4894 0.8122
C38 C 0.1674(17) 0.4432(16) 0.7868(8)
C39 C 0.1617(16) 0.3909(15) 0.7779(8)
H34 H 0.1317 0.3835 0.7633
C40 C 0.1946(15) 0.3499(14) 0.7879(7)
H35 H 0.1899 0.3154 0.7806
C41 C 0.2330(15) 0.3625(14) 0.8086(7)
H36 H 0.2553 0.3358 0.8183
C42 C 0.0298(19) 0.6497(13) 0.8658(8)
H37 H 0.0721 0.6467 0.8626
C43 C -0.017(2) 0.6402(14) 0.8458(9)
C44 C -0.074(2) 0.6374(14) 0.8501(9)
H38 H -0.1003 0.6256 0.8346
C45 C -0.0988(19) 0.6527(13) 0.8794(8)
H39 H -0.1406 0.6508 0.8842
C46 C -0.0583(19) 0.6692(14) 0.8981(9)
H40 H -0.0715 0.6845 0.9162
C47 C -0.0767(17) 0.7522(15) 0.6865(7)
H41 H -0.0346 0.7559 0.6831
C48 C -0.095(2) 0.7089(18) 0.7017(10)
C49 C -0.152(3) 0.695(2) 0.7048(11)
H42 H -0.1669 0.6634 0.7135
C50 C -0.184(3) 0.735(2) 0.6925(12)
H43 H -0.2262 0.7296 0.6920
C51 C -0.166(2) 0.784(2) 0.6805(10)
H44 H -0.1940 0.8112 0.6761
C52 C 0.3775(17) 0.6486(14) 0.6441(8)
C53 C 0.3836(14) 0.6883(12) 0.6165(8)
H45 H 0.3815 0.6770 0.5963
C54 C 0.3918(15) 0.7383(13) 0.6238(8)
H46 H 0.3872 0.7697 0.6128
C55 C 0.4101(15) 0.7282(13) 0.6545(8)
C56 C 0.4292(17) 0.7775(16) 0.6697(8)
C57 C 0.4436(18) 0.7733(16) 0.7023(9)
C58 C 0.4577(19) 0.8295(17) 0.7153(10)
H47 H 0.4583 0.8636 0.7071
C59 C 0.470(2) 0.8068(16) 0.7465(11)
H48 H 0.4818 0.8275 0.7631
C60 C 0.461(2) 0.7502(16) 0.7485(10)
C61 C 0.4735(15) 0.7134(15) 0.7719(8)
C62 C 0.4570(17) 0.6643(17) 0.7737(9)
C63 C 0.4685(13) 0.6248(12) 0.7989(7)
H49 H 0.4882 0.6335 0.8170
C64 C 0.4501(12) 0.5814(12) 0.7934(6)
H50 H 0.4510 0.5521 0.8063
C65 C 0.4247(13) 0.5831(14) 0.7610(6)
C66 C 0.4025(15) 0.5400(15) 0.7487(8)
C67 C 0.3764(14) 0.5413(13) 0.7171(7)
C68 C 0.3438(15) 0.4969(14) 0.7038(7)
H51 H 0.3323 0.4645 0.7123
C69 C 0.3343(14) 0.5178(13) 0.6731(7)
H52 H 0.3144 0.5003 0.6572
C70 C 0.3611(13) 0.5705(12) 0.6718(6)
C71 C 0.3649(14) 0.6007(13) 0.6437(7)
C72 C 0.3832(19) 0.8427(15) 0.6439(8)
H53 H 0.3467 0.8236 0.6460
C73 C 0.432(2) 0.8266(15) 0.6541(9)
C74 C 0.489(2) 0.8365(16) 0.6509(9)
H54 H 0.5230 0.8177 0.6580
C75 C 0.487(3) 0.8865(19) 0.6326(9)
H55 H 0.5237 0.9026 0.6271
C76 C 0.436(2) 0.9082(18) 0.6242(8)
H56 H 0.4371 0.9400 0.6134
C77 C 0.4694(18) 0.7408(13) 0.8242(9)
H57 H 0.4275 0.7329 0.8244
C78 C 0.503(2) 0.7354(15) 0.8002(10)
C79 C 0.556(2) 0.7579(18) 0.7965(11)
H58 H 0.5801 0.7520 0.7792
C80 C 0.577(3) 0.794(2) 0.8218(14)
H59 H 0.6106 0.8172 0.8203
C81 C 0.541(2) 0.7903(17) 0.8472(13)
H60 H 0.5491 0.8121 0.8639
C82 C 0.3678(13) 0.4867(13) 0.7919(7)
H61 H 0.3593 0.5175 0.8029
C83 C 0.3912(14) 0.4853(13) 0.7603(7)
C84 C 0.4140(16) 0.4434(16) 0.7505(8)
H62 H 0.4365 0.4443 0.7324
C85 C 0.4076(16) 0.3991(15) 0.7644(8)
H63 H 0.4211 0.3684 0.7547
C86 C 0.3827(16) 0.3944(16) 0.7920(9)
H64 H 0.3820 0.3624 0.8026
C87 C 0.2882(17) 0.5883(14) 0.6048(8)
H65 H 0.2676 0.6164 0.6142
C88 C 0.3430(16) 0.5726(14) 0.6167(7)
C89 C 0.3685(18) 0.5310(15) 0.6075(8)
H66 H 0.4026 0.5158 0.6170
C90 C 0.3407(19) 0.5093(18) 0.5813(10)
H67 H 0.3572 0.4783 0.5731
C91 C 0.2897(18) 0.5319(15) 0.5671(9)
H68 H 0.2769 0.5211 0.5479
C92 C 0.179(2) 0.9417(17) 0.7286(10)
C93 C 0.1376(16) 0.9527(11) 0.7024(7)
H69 H 0.1519 0.9623 0.6832
C94 C 0.0856(18) 0.9480(12) 0.7084(7)
H70 H 0.0527 0.9576 0.6960
C95 C 0.0809(17) 0.9242(12) 0.7392(7)
C96 C 0.0334(17) 0.9056(12) 0.7509(6)
C97 C 0.0284(18) 0.8900(13) 0.7818(7)
C98 C -0.0215(18) 0.8632(13) 0.7932(8)
H71 H -0.0589 0.8560 0.7837
C99 C -0.0024(19) 0.8495(14) 0.8225(9)
H72 H -0.0267 0.8308 0.8363
C100 C 0.0535(15) 0.8659(12) 0.8282(6)
C101 C 0.0923(17) 0.8561(15) 0.8533(7)
C102 C 0.1543(17) 0.8663(16) 0.8578(9)
C103 C 0.1879(17) 0.8585(13) 0.8858(8)
H73 H 0.1761 0.8444 0.9045
C104 C 0.238(2) 0.8766(16) 0.8767(9)
H74 H 0.2684 0.8855 0.8905
C105 C 0.248(2) 0.8837(14) 0.8440(9)
C106 C 0.301(2) 0.9004(18) 0.8306(11)
C107 C 0.299(2) 0.916(2) 0.8009(12)
C108 C 0.354(2) 0.9239(15) 0.7844(10)
H75 H 0.3942 0.9190 0.7917
C109 C 0.3394(16) 0.9391(13) 0.7576(8)
H76 H 0.3673 0.9501 0.7428
C110 C 0.2767(17) 0.9369(15) 0.7535(10)
C111 C 0.2475(19) 0.9469(14) 0.7287(9)
C112 C -0.0315(18) 0.8899(13) 0.7070(8)
H77 H 0.0020 0.8772 0.6959
C113 C -0.0231(16) 0.9109(12) 0.7374(7)
C114 C -0.0787(18) 0.9327(13) 0.7467(8)
H78 H -0.0756 0.9508 0.7652
C115 C -0.1305(18) 0.9335(13) 0.7363(8)
H79 H -0.1641 0.9494 0.7459
C116 C -0.1337(18) 0.9066(12) 0.7071(7)
H80 H -0.1714 0.9027 0.6973
C117 C 0.0739(16) 0.7878(14) 0.8899(8)
H81 H 0.1013 0.7690 0.8776
C118 C 0.063(2) 0.8362(18) 0.8814(8)
C119 C 0.012(2) 0.8597(17) 0.8943(10)
H82 H -0.0021 0.8912 0.8857
C120 C -0.019(2) 0.8393(18) 0.9198(11)
H83 H -0.0513 0.8557 0.9304
C121 C 0.0078(17) 0.7874(17) 0.9265(9)
H84 H -0.0091 0.7694 0.9431
C122 C 0.380(2) 0.843(2) 0.8569(10)
H85 H 0.3581 0.8121 0.8528
C123 C 0.360(3) 0.892(2) 0.8463(11)
C124 C 0.400(3) 0.939(2) 0.8470(13)
H86 H 0.3924 0.9688 0.8350
C125 C 0.451(3) 0.936(2) 0.8677(12)
H87 H 0.4773 0.9638 0.8722
C126 C 0.457(2) 0.885(2) 0.8803(11)
H88 H 0.4843 0.8824 0.8965
C127 C 0.2745(15) 0.9455(14) 0.6807(8)
H89 H 0.2528 0.9136 0.6807
C128 C 0.2785(17) 0.9740(17) 0.7029(9)
C129 C 0.298(2) 1.0268(18) 0.7088(10)
H90 H 0.2880 1.0463 0.7262
C130 C 0.334(2) 1.0454(19) 0.6839(11)
H91 H 0.3553 1.0773 0.6854
C131 C 0.337(2) 1.0133(19) 0.6553(10)
H92 H 0.3588 1.0256 0.6385
C132 C 0.1156(15) 0.6633(13) 0.5249(8)
H93 H 0.1193 0.6432 0.5058
C133 C 0.0644(17) 0.7021(14) 0.5238(9)
H94 H 0.0590 0.7187 0.5436
H95 H 0.0262 0.6844 0.5183
C134 C 0.082(2) 0.7436(16) 0.4999(10)
H96 H 0.0801 0.7266 0.4801
H97 H 0.0500 0.7709 0.5000
C135 C 0.142(2) 0.7702(16) 0.5029(11)
H98 H 0.1424 0.7946 0.5200
H99 H 0.1524 0.7898 0.4845
C136 C 0.1880(19) 0.7253(15) 0.5080(10)
H100 H 0.1895 0.7039 0.4897
H101 H 0.2285 0.7408 0.5108
C137 C 0.1759(18) 0.6896(18) 0.5339(10)
H102 H 0.1706 0.7103 0.5526
C138 C 0.2608(17) 0.9087(15) 0.5578(8)
H103 H 0.2786 0.9417 0.5498
C139 C 0.2478(17) 0.8811(14) 0.5279(7)
H104 H 0.2858 0.8770 0.5165
H105 H 0.2311 0.8459 0.5318
C140 C 0.2051(17) 0.9110(15) 0.5107(8)
H106 H 0.1924 0.8902 0.4931
H107 H 0.2254 0.9428 0.5032
C141 C 0.150(2) 0.9266(16) 0.5278(9)
H108 H 0.1295 0.8952 0.5354
H109 H 0.1220 0.9455 0.5145
C142 C 0.1681(18) 0.9622(14) 0.5545(8)
H110 H 0.1317 0.9724 0.5659
H111 H 0.1881 0.9943 0.5471
C143 C 0.2125(14) 0.9306(12) 0.5749(6)
H112 H 0.1897 0.9018 0.5849
C144 C -0.0792(16) 0.9081(12) 0.5974(7)
H113 H -0.1230 0.9110 0.5923
C145 C -0.0466(16) 0.9399(14) 0.5799(7)
H114 H -0.0032 0.9344 0.5841
H115 H -0.0565 0.9764 0.5849
C146 C -0.0586(18) 0.9306(14) 0.5443(8)
H116 H -0.1019 0.9338 0.5392
H117 H -0.0348 0.9550 0.5319
C147 C -0.0359(19) 0.8735(16) 0.5409(10)
H118 H 0.0061 0.8709 0.5483
H119 H -0.0363 0.8635 0.5196
C148 C -0.0782(16) 0.8346(13) 0.5595(7)
H120 H -0.0695 0.7976 0.5549
H121 H -0.1216 0.8418 0.5563
C149 C -0.0570(18) 0.8500(14) 0.5930(8)
H122 H -0.0127 0.8456 0.5963
C150 C 0.3086(17) 0.4620(15) 0.9018(8)
H123 H 0.3025 0.4999 0.8978
C151 C 0.300(2) 0.4471(18) 0.9376(10)
H124 H 0.2580 0.4549 0.9434
H125 H 0.3063 0.4091 0.9399
C152 C 0.342(2) 0.4751(17) 0.9588(10)
H126 H 0.3310 0.4686 0.9799
H127 H 0.3427 0.5131 0.9550
C153 C 0.403(2) 0.4489(17) 0.9505(9)
H128 H 0.4349 0.4571 0.9655
H129 H 0.3991 0.4107 0.9489
C154 C 0.4193(19) 0.4733(15) 0.9197(8)
H130 H 0.4118 0.5113 0.9192
H131 H 0.4614 0.4659 0.9136
C155 C 0.3781(16) 0.4461(14) 0.9030(8)
H132 H 0.3805 0.4087 0.9090
C156 C 0.4411(18) 0.6820(15) 0.9274(9)
H133 H 0.4032 0.6691 0.9179
C157 C 0.4657(17) 0.6379(16) 0.9468(8)
H134 H 0.5052 0.6483 0.9553
H135 H 0.4719 0.6065 0.9344
C158 C 0.4214(17) 0.6254(13) 0.9723(8)
H136 H 0.3845 0.6099 0.9636
H137 H 0.4401 0.5991 0.9855
C159 C 0.4039(19) 0.6720(13) 0.9907(8)
H138 H 0.3722 0.6615 1.0051
H139 H 0.4394 0.6837 1.0023
C160 C 0.3809(18) 0.7165(16) 0.9724(8)
H140 H 0.3767 0.7477 0.9852
H141 H 0.3405 0.7078 0.9644
C161 C 0.4244(19) 0.7285(15) 0.9463(8)
H142 H 0.4630 0.7389 0.9563
C162 C 0.1666(18) 0.6658(16) 0.9574(9)
H143 H 0.1934 0.6580 0.9400
C163 C 0.206(2) 0.6721(19) 0.9859(9)
H144 H 0.2343 0.7017 0.9830
H145 H 0.1797 0.6808 1.0030
C164 C 0.243(2) 0.6233(18) 0.9935(11)
H146 H 0.2730 0.6172 0.9777
H147 H 0.2643 0.6287 1.0125
C165 C 0.204(2) 0.5785(17) 0.9960(10)
H148 H 0.1773 0.5828 1.0136
H149 H 0.2291 0.5472 0.9993
C166 C 0.1629(18) 0.5700(15) 0.9667(8)
H150 H 0.1884 0.5639 0.9489
H151 H 0.1355 0.5398 0.9694
C167 C 0.1281(17) 0.6190(14) 0.9637(8)
H152 H 0.1032 0.6250 0.9820
N5 N 0.0278(13) 0.6102(11) 0.7011(7)
N6 N 0.0963(12) 0.5244(10) 0.7262(6)
N7 N 0.0654(12) 0.5582(10) 0.7890(5)
N8 N -0.0061(14) 0.6396(12) 0.7592(7)
N9 N 0.1419(13) 0.5397(13) 0.5914(6)
N10 N 0.2422(11) 0.4130(11) 0.8168(5)
N11 N -0.0031(18) 0.6661(12) 0.8935(7)
N12 N -0.1122(16) 0.7888(11) 0.6763(6)
N13 N 0.3955(12) 0.6817(12) 0.6673(6)
N14 N 0.4358(14) 0.7259(12) 0.7192(7)
N15 N 0.4328(12) 0.6327(11) 0.7522(6)
N16 N 0.3873(11) 0.5836(10) 0.6992(6)
N17 N 0.3853(18) 0.8885(15) 0.6299(7)
N18 N 0.4990(18) 0.7585(15) 0.8484(8)
N19 N 0.3606(11) 0.4360(12) 0.8025(5)
N20 N 0.2628(14) 0.5664(12) 0.5811(7)
N21 N 0.1381(14) 0.9247(10) 0.7498(6)
N22 N 0.0772(14) 0.8875(11) 0.8006(7)
N23 N 0.1895(15) 0.8796(11) 0.8329(6)
N24 N 0.2589(15) 0.9221(12) 0.7803(8)
N25 N -0.0865(14) 0.8890(9) 0.6955(5)
N26 N 0.0528(14) 0.7629(11) 0.9124(7)
N27 N 0.4302(18) 0.8427(15) 0.8729(8)
N28 N 0.3067(14) 0.9661(12) 0.6540(7)
N29 N 0.1082(13) 0.6255(11) 0.5533(6)
H153 H 0.0814 0.5994 0.5486
H154 H 0.0924 0.6443 0.5689
N30 N 0.2205(14) 0.6461(12) 0.5389(7)
H155 H 0.2553 0.6590 0.5473
H156 H 0.2302 0.6307 0.5209
N31 N 0.3111(14) 0.8913(11) 0.5753(6)
H157 H 0.3467 0.8985 0.5655
H158 H 0.3087 0.8558 0.5782
N32 N 0.2352(12) 0.9654(10) 0.5973(6)
H159 H 0.2068 0.9711 0.6119
H160 H 0.2459 0.9969 0.5890
N33 N -0.0705(13) 0.9166(10) 0.6307(6)
H161 H -0.0933 0.9447 0.6367
H162 H -0.0306 0.9243 0.6344
N34 N -0.0968(14) 0.8162(11) 0.6149(6)
H163 H -0.0810 0.7833 0.6170
H164 H -0.1358 0.8136 0.6080
N35 N 0.2757(11) 0.4299(9) 0.8823(5)
H165 H 0.2367 0.4417 0.8804
H166 H 0.2748 0.3962 0.8892
N36 N 0.3904(14) 0.4497(12) 0.8676(7)
H167 H 0.4209 0.4269 0.8627
H168 H 0.4033 0.4828 0.8630
N37 N 0.4802(17) 0.7035(14) 0.9032(8)
H169 H 0.4808 0.6802 0.8876
H170 H 0.5190 0.7064 0.9103
N38 N 0.4113(14) 0.7714(11) 0.9259(7)
H171 H 0.4198 0.8022 0.9355
H172 H 0.3705 0.7712 0.9219
N39 N 0.1346(12) 0.7106(11) 0.9515(6)
H173 H 0.1589 0.7347 0.9423
H174 H 0.1201 0.7247 0.9690
N40 N 0.0881(15) 0.6176(12) 0.9363(7)
H175 H 0.0536 0.5988 0.9403
H176 H 0.1081 0.6017 0.9208
O5 O 0.5170(11) 0.6348(9) 0.6953(5)
O6 O 0.1550(12) 0.9947(10) 0.8113(6)
N41 N 0.771(2) 0.913(2) 0.6352(12)
O7 O 0.7478(15) 0.9238(13) 0.6094(6)
O8 O 0.8041(12) 0.9566(10) 0.6422(6)
O9 O 0.759(2) 0.8845(13) 0.6507(8)
N42 N 0.4141(14) 0.5950(11) 0.8651(6)
O10 O 0.3764(18) 0.5633(15) 0.8586(10)
O11 O 0.4653(16) 0.5823(13) 0.8696(8)
O12 O 0.4009(19) 0.6407(16) 0.8643(11)
N43 N -0.0270(17) 0.7027(14) 0.5958(7)
O13 O 0.0056(18) 0.7356(15) 0.6073(9)
O14 O -0.0811(16) 0.7083(19) 0.5948(11)
O15 O -0.005(2) 0.6622(16) 0.5862(12)
N44 N 0.619(3) 0.6924(16) 0.8636(13)
O16 O 0.623(3) 0.710(2) 0.8862(13)
O17 O 0.576(2) 0.6707(16) 0.8593(9)
O18 O 0.652(2) 0.697(2) 0.8474(12)
N45 N 0.0993(11) 0.9154(10) 0.6346(5)
O19 O 0.1518(10) 0.9036(10) 0.6354(7)
O20 O 0.0612(11) 0.8804(10) 0.6383(7)
O21 O 0.0822(12) 0.9601(9) 0.6323(7)
N46 N 0.250(2) 0.742(2) 0.9048(12)
O22 O 0.296(2) 0.7455(16) 0.8900(9)
O23 O 0.201(2) 0.7290(15) 0.8948(9)
O24 O 0.255(2) 0.764(2) 0.9287(14)
N47 N 0.188(2) 0.5380(13) 0.8814(11)
O25 O 0.1648(14) 0.4973(10) 0.8898(7)
O26 O 0.1632(16) 0.5804(11) 0.8854(8)
O27 O 0.224(2) 0.5369(17) 0.8603(11)
O28 O 0.5995(15) 0.9610(12) 0.5877(7)
O29 O 0.0060(17) 0.5571(13) 0.5333(7)
O30 O 0.0722(16) 0.7997(13) 0.6785(7)
O31 O 0.1172(16) 0.8110(13) 0.5892(7)
O32 O -0.0382(16) 0.5740(13) 0.9633(8)
O33 O 0.181(3) 0.670(2) 0.8495(13)
O34 O 0.305(3) 0.707(2) 0.7739(13)
O35 O 0.247(2) 0.7995(18) 0.6060(11)
O36 O 0.663(2) 0.8310(19) 0.6456(11)
O37 O 0.320(3) 0.763(3) 0.5578(15)
O38 O -0.134(3) 0.770(2) 0.8551(14)
O39 O 0.588(3) 0.933(3) 0.8723(16)
O40 O 0.744(2) 0.6780(19) 0.9021(11)
O41 O 0.6890(19) 0.9562(15) 0.5512(9)
O42 O 0.736(3) 0.852(2) 0.5534(14)
O43 O 0.774(3) 0.806(2) 0.5966(14)
O44 O 0.055(3) 0.482(2) 0.9055(13)
O45 O 0.319(3) 0.291(2) 0.7536(12)
O46 O 0.286(2) 0.3666(18) 0.7121(11)
O47 O 0.689(2) 0.7120(17) 0.9519(10)
O48 O 0.293(2) 0.6193(16) 0.9029(9)
O49 O 0.5000 0.5000 0.6438(15)
O50 O 0.649(3) 1.0000 0.5000
O51 O 0.701(4) 0.829(3) 0.8797(19)
O52 O 0.575(4) 0.763(3) 0.9513(17)
O53 O 0.604(4) 0.850(3) 0.5898(17)
O54 O 0.438(5) 0.861(4) 0.959(3)
O55 O 0.672(6) 0.931(5) 0.784(3)
O56 O 0.5000 0.0000 0.744(2)
O57 O -0.187(4) 0.830(3) 0.7774(19)
O58 O 0.5000 1.0000 0.5658(15)
O59 O 0.5000 0.5000 0.446(2)
O60 O 0.701(5) 0.931(4) 0.842(2)
O61 O 0.171(4) 0.5000 0.5000
O62 O 0.0000 0.5000 1.0000
O63 O 0.316(4) 0.704(4) 0.823(2)
loop_
_geom_bond_atom_site_label_1
_geom_bond_atom_site_label_2
_geom_bond_site_symmetry_1
_geom_bond_site_symmetry_2
Pd1 N10 1_555 1_555
Pd2 N17 1_555 1_555
Pd3 N18 1_555 1_555
Pd4 N9 1_555 1_555
Pd5 N12 1_555 1_555
Pd6 N11 1_555 1_555
Zn1 N13 1_555 1_555
Zn2 N21 1_555 1_555
Zn3 O1 1_555 1_555
C1 H1 1_555 1_555
H2 C1 1_555 1_555
H3 C1 1_555 1_555
C2 C1 1_555 1_555
O1 C2 1_555 1_555
N1 C2 1_555 1_555
H4 N1 1_555 1_555
C3 N1 1_555 1_555
H5 C3 1_555 1_555
C4 C3 1_555 1_555
H6 C4 1_555 1_555
H7 C4 1_555 1_555
H8 C4 1_555 1_555
C5 C3 1_555 1_555
O2 C5 1_555 1_555
N2 C5 1_555 1_555
H9 N2 1_555 1_555
C6 N2 1_555 1_555
H10 C6 1_555 1_555
C7 C6 1_555 1_555
H11 C7 1_555 1_555
H12 C7 1_555 1_555
H13 C7 1_555 1_555
C8 C6 1_555 1_555
O3 C8 1_555 1_555
N3 C8 1_555 1_555
H14 N3 1_555 1_555
C9 N3 1_555 1_555
H15 C9 1_555 1_555
C10 C9 1_555 1_555
H16 C10 1_555 1_555
H17 C10 1_555 1_555
H18 C10 1_555 1_555
C11 C9 1_555 1_555
O4 C11 1_555 1_555
N4 C11 1_555 1_555
H19 N4 1_555 1_555
H20 N4 1_555 1_555
C12 C13 1_555 1_555
C13 H21 1_555 1_555
C14 C13 1_555 1_555
H22 C14 1_555 1_555
C15 C14 1_555 1_555
C16 C15 1_555 1_555
C17 C16 1_555 1_555
C18 C17 1_555 1_555
H23 C18 1_555 1_555
C19 C18 1_555 1_555
H24 C19 1_555 1_555
C20 C19 1_555 1_555
C21 C20 1_555 1_555
C22 C21 1_555 1_555
C23 C22 1_555 1_555
H25 C23 1_555 1_555
C24 C23 1_555 1_555
H26 C24 1_555 1_555
C25 C24 1_555 1_555
C26 C25 1_555 1_555
C27 C26 1_555 1_555
C28 C27 1_555 1_555
H27 C28 1_555 1_555
C29 C28 1_555 1_555
H28 C29 1_555 1_555
C30 C29 1_555 1_555
C31 C12 1_555 1_555
C32 H29 1_555 1_555
C33 C16 1_555 1_555
C34 C33 1_555 1_555
H30 C34 1_555 1_555
C35 C34 1_555 1_555
H31 C35 1_555 1_555
C36 C35 1_555 1_555
H32 C36 1_555 1_555
C37 H33 1_555 1_555
C38 C21 1_555 1_555
C39 C38 1_555 1_555
H34 C39 1_555 1_555
C40 C39 1_555 1_555
H35 C40 1_555 1_555
C41 C40 1_555 1_555
H36 C41 1_555 1_555
C42 H37 1_555 1_555
C43 C26 1_555 1_555
C44 C43 1_555 1_555
H38 C44 1_555 1_555
C45 C44 1_555 1_555
H39 C45 1_555 1_555
C46 C45 1_555 1_555
H40 C46 1_555 1_555
C47 H41 1_555 1_555
C48 C31 1_555 1_555
C49 C48 1_555 1_555
H42 C49 1_555 1_555
C50 C49 1_555 1_555
H43 C50 1_555 1_555
C51 C50 1_555 1_555
H44 C51 1_555 1_555
C52 C53 1_555 1_555
C53 H45 1_555 1_555
C54 C53 1_555 1_555
H46 C54 1_555 1_555
C55 C54 1_555 1_555
C56 C55 1_555 1_555
C57 C56 1_555 1_555
C58 C57 1_555 1_555
H47 C58 1_555 1_555
C59 C58 1_555 1_555
H48 C59 1_555 1_555
C60 C59 1_555 1_555
C61 C60 1_555 1_555
C62 C61 1_555 1_555
C63 C62 1_555 1_555
H49 C63 1_555 1_555
C64 C63 1_555 1_555
H50 C64 1_555 1_555
C65 C64 1_555 1_555
C66 C65 1_555 1_555
C67 C66 1_555 1_555
C68 C67 1_555 1_555
H51 C68 1_555 1_555
C69 C68 1_555 1_555
H52 C69 1_555 1_555
C70 C69 1_555 1_555
C71 C52 1_555 1_555
C72 H53 1_555 1_555
C73 C56 1_555 1_555
C74 C73 1_555 1_555
H54 C74 1_555 1_555
C75 C74 1_555 1_555
H55 C75 1_555 1_555
C76 C75 1_555 1_555
H56 C76 1_555 1_555
C77 H57 1_555 1_555
C78 C61 1_555 1_555
C79 C78 1_555 1_555
H58 C79 1_555 1_555
C80 C79 1_555 1_555
H59 C80 1_555 1_555
C81 C80 1_555 1_555
H60 C81 1_555 1_555
C82 H61 1_555 1_555
C83 C66 1_555 1_555
C84 C83 1_555 1_555
H62 C84 1_555 1_555
C85 C84 1_555 1_555
H63 C85 1_555 1_555
C86 C85 1_555 1_555
H64 C86 1_555 1_555
C87 H65 1_555 1_555
C88 C71 1_555 1_555
C89 C88 1_555 1_555
H66 C89 1_555 1_555
C90 C89 1_555 1_555
H67 C90 1_555 1_555
C91 C90 1_555 1_555
H68 C91 1_555 1_555
C92 C93 1_555 1_555
C93 H69 1_555 1_555
C94 C93 1_555 1_555
H70 C94 1_555 1_555
C95 C94 1_555 1_555
C96 C95 1_555 1_555
C97 C96 1_555 1_555
C98 C97 1_555 1_555
H71 C98 1_555 1_555
C99 C98 1_555 1_555
H72 C99 1_555 1_555
C100 C99 1_555 1_555
C101 C100 1_555 1_555
C102 C101 1_555 1_555
C103 C102 1_555 1_555
H73 C103 1_555 1_555
C104 C103 1_555 1_555
H74 C104 1_555 1_555
C105 C104 1_555 1_555
C106 C105 1_555 1_555
C107 C106 1_555 1_555
C108 C107 1_555 1_555
H75 C108 1_555 1_555
C109 C108 1_555 1_555
H76 C109 1_555 1_555
C110 C109 1_555 1_555
C111 C92 1_555 1_555
C112 H77 1_555 1_555
C113 C96 1_555 1_555
C114 C113 1_555 1_555
H78 C114 1_555 1_555
C115 C114 1_555 1_555
H79 C115 1_555 1_555
C116 C115 1_555 1_555
H80 C116 1_555 1_555
C117 H81 1_555 1_555
C118 C101 1_555 1_555
C119 C118 1_555 1_555
H82 C119 1_555 1_555
C120 C119 1_555 1_555
H83 C120 1_555 1_555
C121 C120 1_555 1_555
H84 C121 1_555 1_555
C122 H85 1_555 1_555
C123 C106 1_555 1_555
C124 C123 1_555 1_555
H86 C124 1_555 1_555
C125 C124 1_555 1_555
H87 C125 1_555 1_555
C126 C125 1_555 1_555
H88 C126 1_555 1_555
C127 H89 1_555 1_555
C128 C111 1_555 1_555
C129 C128 1_555 1_555
H90 C129 1_555 1_555
C130 C129 1_555 1_555
H91 C130 1_555 1_555
C131 C130 1_555 1_555
H92 C131 1_555 1_555
C132 H93 1_555 1_555
C133 C132 1_555 1_555
H94 C133 1_555 1_555
H95 C133 1_555 1_555
C134 C133 1_555 1_555
H96 C134 1_555 1_555
H97 C134 1_555 1_555
C135 C134 1_555 1_555
H98 C135 1_555 1_555
H99 C135 1_555 1_555
C136 C135 1_555 1_555
H100 C136 1_555 1_555
H101 C136 1_555 1_555
C137 C132 1_555 1_555
H102 C137 1_555 1_555
C138 H103 1_555 1_555
C139 C138 1_555 1_555
H104 C139 1_555 1_555
H105 C139 1_555 1_555
C140 C139 1_555 1_555
H106 C140 1_555 1_555
H107 C140 1_555 1_555
C141 C140 1_555 1_555
H108 C141 1_555 1_555
H109 C141 1_555 1_555
C142 C141 1_555 1_555
H110 C142 1_555 1_555
H111 C142 1_555 1_555
C143 C138 1_555 1_555
H112 C143 1_555 1_555
C144 H113 1_555 1_555
C145 C144 1_555 1_555
H114 C145 1_555 1_555
H115 C145 1_555 1_555
C146 C145 1_555 1_555
H116 C146 1_555 1_555
H117 C146 1_555 1_555
C147 C146 1_555 1_555
H118 C147 1_555 1_555
H119 C147 1_555 1_555
C148 C147 1_555 1_555
H120 C148 1_555 1_555
H121 C148 1_555 1_555
C149 C144 1_555 1_555
H122 C149 1_555 1_555
C150 H123 1_555 1_555
C151 C150 1_555 1_555
H124 C151 1_555 1_555
H125 C151 1_555 1_555
C152 C151 1_555 1_555
H126 C152 1_555 1_555
H127 C152 1_555 1_555
C153 C152 1_555 1_555
H128 C153 1_555 1_555
H129 C153 1_555 1_555
C154 C153 1_555 1_555
H130 C154 1_555 1_555
H131 C154 1_555 1_555
C155 C150 1_555 1_555
H132 C155 1_555 1_555
C156 H133 1_555 1_555
C157 C156 1_555 1_555
H134 C157 1_555 1_555
H135 C157 1_555 1_555
C158 C157 1_555 1_555
H136 C158 1_555 1_555
H137 C158 1_555 1_555
C159 C158 1_555 1_555
H138 C159 1_555 1_555
H139 C159 1_555 1_555
C160 C159 1_555 1_555
H140 C160 1_555 1_555
H141 C160 1_555 1_555
C161 C156 1_555 1_555
H142 C161 1_555 1_555
C162 H143 1_555 1_555
C163 C162 1_555 1_555
H144 C163 1_555 1_555
H145 C163 1_555 1_555
C164 C163 1_555 1_555
H146 C164 1_555 1_555
H147 C164 1_555 1_555
C165 C164 1_555 1_555
H148 C165 1_555 1_555
H149 C165 1_555 1_555
C166 C165 1_555 1_555
H150 C166 1_555 1_555
H151 C166 1_555 1_555
C167 C162 1_555 1_555
H152 C167 1_555 1_555
N5 Zn3 1_555 1_555
N6 Zn3 1_555 1_555
N7 Zn3 1_555 1_555
N8 Zn3 1_555 1_555
N9 C32 1_555 1_555
N10 C37 1_555 1_555
N11 C42 1_555 1_555
N12 C47 1_555 1_555
N13 C52 1_555 1_555
N14 Zn1 1_555 1_555
N15 Zn1 1_555 1_555
N16 Zn1 1_555 1_555
N17 C72 1_555 1_555
N18 C77 1_555 1_555
N19 Pd1 1_555 1_555
N20 Pd4 1_555 1_555
N21 C92 1_555 1_555
N22 Zn2 1_555 1_555
N23 Zn2 1_555 1_555
N24 Zn2 1_555 1_555
N25 Pd5 1_555 1_555
N26 Pd6 1_555 1_555
N27 Pd3 1_555 1_555
N28 Pd2 1_555 1_555
N29 Pd4 1_555 1_555
H153 N29 1_555 1_555
H154 N29 1_555 1_555
N30 Pd4 1_555 1_555
H155 N30 1_555 1_555
H156 N30 1_555 1_555
N31 Pd2 1_555 1_555
H157 N31 1_555 1_555
H158 N31 1_555 1_555
N32 Pd2 1_555 1_555
H159 N32 1_555 1_555
H160 N32 1_555 1_555
N33 Pd5 1_555 1_555
H161 N33 1_555 1_555
H162 N33 1_555 1_555
N34 Pd5 1_555 1_555
H163 N34 1_555 1_555
H164 N34 1_555 1_555
N35 Pd1 1_555 1_555
H165 N35 1_555 1_555
H166 N35 1_555 1_555
N36 Pd1 1_555 1_555
H167 N36 1_555 1_555
H168 N36 1_555 1_555
N37 Pd3 1_555 1_555
H169 N37 1_555 1_555
H170 N37 1_555 1_555
N38 Pd3 1_555 1_555
H171 N38 1_555 1_555
H172 N38 1_555 1_555
N39 Pd6 1_555 1_555
H173 N39 1_555 1_555
H174 N39 1_555 1_555
N40 Pd6 1_555 1_555
H175 N40 1_555 1_555
H176 N40 1_555 1_555
O5 Zn1 1_555 1_555
O6 Zn2 1_555 1_555
N41 O7 1_555 1_555
O8 N41 1_555 1_555
O9 N41 1_555 1_555
N42 O10 1_555 1_555
O11 N42 1_555 1_555
O12 N42 1_555 1_555
N43 O13 1_555 1_555
O14 N43 1_555 1_555
O15 N43 1_555 1_555
N44 O16 1_555 1_555
O17 N44 1_555 1_555
O18 N44 1_555 1_555
N45 O19 1_555 1_555
O20 N45 1_555 1_555
O21 N45 1_555 1_555
N46 O22 1_555 1_555
O23 N46 1_555 1_555
O24 N46 1_555 1_555
N47 O25 1_555 1_555
O26 N47 1_555 1_555
O27 N47 1_555 1_555
C12 N5 1_555 1_555
C15 N5 1_555 1_555
C17 N6 1_555 1_555
C20 N6 1_555 1_555
C22 N7 1_555 1_555
C25 N7 1_555 1_555
C27 N8 1_555 1_555
C30 C31 1_555 1_555
C30 N8 1_555 1_555
C32 C33 1_555 1_555
C36 N9 1_555 1_555
C37 C38 1_555 1_555
C41 N10 1_555 1_555
C42 C43 1_555 1_555
C46 N11 1_555 1_555
C47 C48 1_555 1_555
C51 N12 1_555 1_555
C55 N13 1_555 1_555
C57 N14 1_555 1_555
C60 N14 1_555 1_555
C62 N15 1_555 1_555
C65 N15 1_555 1_555
C67 N16 1_555 1_555
C70 C71 1_555 1_555
C70 N16 1_555 1_555
C72 C73 1_555 1_555
C76 N17 1_555 1_555
C77 C78 1_555 1_555
C81 N18 1_555 1_555
C82 C83 1_555 1_555
C82 N19 1_555 1_555
C86 N19 1_555 1_555
C87 C88 1_555 1_555
C87 N20 1_555 1_555
C91 N20 1_555 1_555
C95 N21 1_555 1_555
C97 N22 1_555 1_555
C100 N22 1_555 1_555
C102 N23 1_555 1_555
C105 N23 1_555 1_555
C107 N24 1_555 1_555
C110 C111 1_555 1_555
C110 N24 1_555 1_555
C112 C113 1_555 1_555
C112 N25 1_555 1_555
C116 N25 1_555 1_555
C117 C118 1_555 1_555
C117 N26 1_555 1_555
C121 N26 1_555 1_555
C122 C123 1_555 1_555
C122 N27 1_555 1_555
C126 N27 1_555 1_555
C127 C128 1_555 1_555
C127 N28 1_555 1_555
C131 N28 1_555 1_555
C132 N29 1_555 1_555
C136 C137 1_555 1_555
C137 N30 1_555 1_555
C138 N31 1_555 1_555
C142 C143 1_555 1_555
C143 N32 1_555 1_555
C144 N33 1_555 1_555
C148 C149 1_555 1_555
C149 N34 1_555 1_555
C150 N35 1_555 1_555
C154 C155 1_555 1_555
C155 N36 1_555 1_555
C156 N37 1_555 1_555
C160 C161 1_555 1_555
C161 N38 1_555 1_555
C162 N39 1_555 1_555
C166 C167 1_555 1_555
C167 N40 1_555 1_555

#END
