
#######################################################################
#
#                 Cambridge Crystallographic Data Centre
#                                CCDC 
#
#######################################################################
#
# If this CIF has been generated from an entry in the Cambridge 
# Structural Database, then it will include bibliographic, chemical, 
# crystal, experimental, refinement or atomic coordinate data resulting 
# from the CCDC's data processing and validation procedures.
#
#######################################################################

data_CUDYOQ
_chemical_formula_moiety         
'C171 H198 N42 O8 Pd6 Zn3 6+,6(N1 O3 1-),18.5(H2 O1)'
_chemical_name_systematic        
'hexakis(1,2-diaminocyclohexane)-tris(\m~5~-5,10,15,20-tetrakis(3-pyridyl)porphyrinato)-(N-[acetyl]glycylglycylalanylalanylalaninamide)-diaqua-hexa-palladium(ii)-tri-zinc hexanitrate hydrate'
_symmetry_cell_setting           tetragonal
_symmetry_space_group_name_H-M   'P 42 21 2'
_symmetry_Int_Tables_number      94
_space_group_name_Hall           'P 4n 2n'
loop_
_symmetry_equiv_pos_site_id
_symmetry_equiv_pos_as_xyz
1 x,y,z
2 -x,-y,z
3 1/2-y,1/2+x,1/2+z
4 1/2+y,1/2-x,1/2+z
5 1/2-x,1/2+y,1/2-z
6 1/2+x,1/2-y,1/2-z
7 y,x,-z
8 -y,-x,-z
_cell_length_a                   34.796(4)
_cell_length_b                   34.796(4)
_cell_length_c                   44.488(10)
_cell_angle_alpha                90
_cell_angle_beta                 90
_cell_angle_gamma                90
_cell_volume                     53864.4
_exptl_crystal_colour            violet
_exptl_crystal_description       block
_cell_formula_units_Z            8
loop_
_atom_site_label
_atom_site_type_symbol
_atom_site_fract_x
_atom_site_fract_y
_atom_site_fract_z
Pd1 Pd 0.61795(10) 0.32319(10) 0.84070(7)
Pd2 Pd 0.64169(10) 0.73248(9) 0.65755(7)
Pd3 Pd 0.84704(12) 0.44424(11) 0.89235(7)
Pd4 Pd 0.62782(11) 0.56732(11) 0.92370(7)
Pd5 Pd 0.85756(11) 0.60313(11) 0.61975(8)
Pd6 Pd 0.64155(11) 0.46867(12) 0.56361(7)
Zn1 Zn 0.56557(14) 0.52215(13) 0.74007(9)
Zn2 Zn 0.78196(15) 0.39297(15) 0.70843(9)
Zn3 Zn 0.78546(16) 0.65491(15) 0.80067(10)
C1 C 0.7323(13) 0.5140(12) 0.8685(9)
H1 H 0.7269 0.5416 0.8696
H2 H 0.7562 0.5084 0.8794
H3 H 0.7111 0.4996 0.8776
C2 C 0.7368(12) 0.5020(13) 0.8355(10)
C3 C 0.6678(11) 0.5736(11) 0.7702(7)
H4 H 0.6421 0.5811 0.7620
C4 C 0.6761(12) 0.5998(12) 0.7991(9)
H5 H 0.6563 0.5952 0.8143
H6 H 0.6757 0.6270 0.7932
H7 H 0.7014 0.5934 0.8073
C5 C 0.6977(12) 0.5800(13) 0.7453(9)
C6 C 0.7590(11) 0.5593(13) 0.7266(8)
H8 H 0.7667 0.5865 0.7225
C7 C 0.7955(12) 0.5391(12) 0.7403(9)
H9 H 0.8009 0.5501 0.7602
H10 H 0.8175 0.5433 0.7270
H11 H 0.7906 0.5115 0.7423
C8 C 0.7463(13) 0.5433(13) 0.6974(10)
C9 C 0.7052(13) 0.4963(12) 0.6725(9)
H12 H 0.7271 0.4857 0.6606
C10 C 0.6778(12) 0.4634(12) 0.6803(9)
H13 H 0.6919 0.4434 0.6913
H14 H 0.6672 0.4525 0.6618
H15 H 0.6569 0.4732 0.6929
C11 C 0.6844(11) 0.5268(11) 0.6534(9)
C12 C 0.7479(12) 0.4479(12) 0.7973(9)
H16 H 0.7507 0.4196 0.7973
H17 H 0.7712 0.4592 0.7881
C13 C 0.7124(12) 0.4593(11) 0.7788(9)
C14 C 0.6431(14) 0.4665(13) 0.7729(10)
H18 H 0.6197 0.4618 0.7850
H19 H 0.6425 0.4495 0.7551
C15 C 0.6451(13) 0.5095(13) 0.7630(10)
N1 N 0.6650(10) 0.5564(10) 0.6632(8)
H20 H 0.6502 0.5694 0.6508
H21 H 0.6668 0.5633 0.6821
N2 N 0.6658(9) 0.5353(10) 0.7785(7)
H22 H 0.6787 0.5276 0.7944
N3 N 0.7307(10) 0.5612(9) 0.7501(7)
H23 H 0.7351 0.5501 0.7675
N4 N 0.7208(9) 0.5172(9) 0.6989(7)
H24 H 0.7118 0.5111 0.7167
N5 N 0.7433(10) 0.4623(11) 0.8291(8)
H25 H 0.7447 0.4459 0.8441
N6 N 0.6787(9) 0.4589(8) 0.7914(7)
H26 H 0.6766 0.4543 0.8108
O1 O 0.7352(9) 0.5247(9) 0.8135(7)
O2 O 0.6916(8) 0.6003(8) 0.7228(6)
O3 O 0.7612(8) 0.5575(8) 0.6737(7)
O4 O 0.6809(8) 0.5175(8) 0.6250(6)
O5 O 0.7204(8) 0.4678(7) 0.7495(6)
O6 O 0.6278(8) 0.5184(7) 0.7386(6)
C16 C 0.5617(12) 0.5228(14) 0.6731(9)
C17 C 0.5638(11) 0.5498(13) 0.6456(10)
H27 H 0.5656 0.5427 0.6250
C18 C 0.5623(11) 0.5854(12) 0.6570(9)
H28 H 0.5608 0.6085 0.6457
C19 C 0.5637(11) 0.5829(12) 0.6926(8)
C20 C 0.5664(11) 0.6129(12) 0.7105(9)
C21 C 0.5697(11) 0.6125(11) 0.7410(9)
C22 C 0.5778(11) 0.6416(13) 0.7627(9)
H29 H 0.5833 0.6676 0.7578
C23 C 0.5765(11) 0.6276(12) 0.7918(9)
H30 H 0.5796 0.6418 0.8098
C24 C 0.5695(13) 0.5862(14) 0.7891(11)
C25 C 0.5620(12) 0.5599(14) 0.8131(9)
C26 C 0.5552(11) 0.5225(12) 0.8095(9)
C27 C 0.5483(11) 0.4956(13) 0.8328(10)
H31 H 0.5464 0.5019 0.8535
C28 C 0.5448(9) 0.4597(11) 0.8215(8)
H32 H 0.5401 0.4365 0.8321
C29 C 0.5498(10) 0.4648(11) 0.7900(8)
C30 C 0.5505(10) 0.4338(12) 0.7727(8)
C31 C 0.5535(10) 0.4307(11) 0.7388(8)
C32 C 0.5595(9) 0.3991(10) 0.7197(7)
H33 H 0.5599 0.3727 0.7249
C33 C 0.5647(10) 0.4154(11) 0.6915(9)
H34 H 0.5716 0.4017 0.6739
C34 C 0.5576(11) 0.4582(12) 0.6931(9)
C35 C 0.5623(10) 0.4861(12) 0.6682(8)
C36 C 0.5939(9) 0.6717(10) 0.6878(7)
H35 H 0.6176 0.6580 0.6873
C37 C 0.5629(10) 0.6537(10) 0.7005(7)
C38 C 0.5308(16) 0.6739(15) 0.7009(11)
H36 H 0.5072 0.6620 0.7062
C39 C 0.5317(19) 0.7133(15) 0.6933(13)
H37 H 0.5104 0.7286 0.6994
C40 C 0.5619(12) 0.7323(13) 0.6775(9)
H38 H 0.5605 0.7575 0.6694
C41 C 0.5901(14) 0.5659(14) 0.8664(11)
H39 H 0.6092 0.5471 0.8621
C42 C 0.5595(13) 0.5786(12) 0.8440(10)
C43 C 0.5336(13) 0.6072(13) 0.8510(11)
H40 H 0.5146 0.6152 0.8369
C44 C 0.5359(16) 0.6233(16) 0.8781(12)
H41 H 0.5200 0.6443 0.8835
C45 C 0.5613(15) 0.6089(15) 0.8975(11)
H42 H 0.5597 0.6186 0.9174
C46 C 0.5742(9) 0.3819(10) 0.8035(7)
H43 H 0.5932 0.3996 0.8101
C47 C 0.5488(11) 0.3919(11) 0.7816(8)
C48 C 0.5226(11) 0.3661(11) 0.7742(8)
H44 H 0.5056 0.3722 0.7582
C49 C 0.5185(11) 0.3322(11) 0.7877(8)
H45 H 0.4974 0.3158 0.7833
C50 C 0.5455(11) 0.3220(11) 0.8077(8)
H46 H 0.5451 0.2968 0.8159
C51 C 0.5936(12) 0.4752(12) 0.6171(9)
H47 H 0.6123 0.4945 0.6211
C52 C 0.5628(13) 0.4668(12) 0.6400(10)
C53 C 0.5386(14) 0.4433(13) 0.6274(10)
H48 H 0.5175 0.4377 0.6403
C54 C 0.5357(15) 0.4243(14) 0.5999(11)
H49 H 0.5145 0.4091 0.5937
C55 C 0.5671(14) 0.4308(14) 0.5836(10)
H50 H 0.5701 0.4169 0.5654
C56 C 0.7528(13) 0.7003(13) 0.7453(10)
C57 C 0.7643(11) 0.7131(11) 0.7142(8)
H51 H 0.7518 0.7311 0.7014
C58 C 0.7975(11) 0.6924(10) 0.7087(8)
H52 H 0.8128 0.6951 0.6911
C59 C 0.8069(11) 0.6641(11) 0.7349(8)
C60 C 0.8406(13) 0.6417(13) 0.7353(9)
C61 C 0.8493(12) 0.6188(12) 0.7633(9)
C62 C 0.8769(12) 0.5907(11) 0.7602(9)
H53 H 0.8916 0.5845 0.7429
C63 C 0.8782(13) 0.5735(13) 0.7885(10)
H54 H 0.8953 0.5539 0.7952
C64 C 0.8471(12) 0.5922(12) 0.8059(9)
C65 C 0.8396(11) 0.5871(10) 0.8368(9)
C66 C 0.8099(12) 0.6024(12) 0.8507(9)
C67 C 0.8020(14) 0.5965(13) 0.8828(10)
H55 H 0.8180 0.5821 0.8959
C68 C 0.7680(11) 0.6147(10) 0.8915(9)
H56 H 0.7560 0.6142 0.9107
C69 C 0.7552(14) 0.6348(14) 0.8641(10)
C70 C 0.7270(11) 0.6582(10) 0.8633(8)
C71 C 0.7116(11) 0.6782(11) 0.8348(9)
C72 C 0.6709(11) 0.6973(10) 0.8300(9)
H57 H 0.6495 0.6996 0.8432
C73 C 0.6754(11) 0.7083(10) 0.8038(8)
H58 H 0.6555 0.7216 0.7935
C74 C 0.7105(11) 0.7007(10) 0.7896(8)
C75 C 0.7203(14) 0.7132(14) 0.7611(11)
C76 C 0.8517(15) 0.6286(13) 0.6822(11)
H59 H 0.8256 0.6211 0.6799
C77 C 0.8675(14) 0.6404(12) 0.7100(9)
C78 C 0.9017(15) 0.6526(13) 0.7135(11)
H60 H 0.9092 0.6634 0.7322
C79 C 0.926(2) 0.6504(17) 0.6922(14)
H61 H 0.9523 0.6543 0.6962
C80 C 0.9133(16) 0.6418(14) 0.6610(13)
H62 H 0.9294 0.6452 0.6440
C81 C 0.8486(12) 0.5206(12) 0.8616(9)
H63 H 0.8234 0.5135 0.8556
C82 C 0.8616(11) 0.5552(11) 0.8519(8)
C83 C 0.9000(15) 0.5638(16) 0.8605(10)
H64 H 0.9100 0.5885 0.8558
C84 C 0.9229(15) 0.5388(14) 0.8750(10)
H65 H 0.9492 0.5438 0.8791
C85 C 0.9049(13) 0.5050(13) 0.8835(9)
H66 H 0.9200 0.4863 0.8937
C86 C 0.6775(13) 0.6218(13) 0.8940(10)
H67 H 0.6806 0.6008 0.8806
C87 C 0.6979(12) 0.6526(12) 0.8865(8)
C88 C 0.6919(12) 0.6893(13) 0.9048(9)
H68 H 0.7039 0.7133 0.9009
C89 C 0.6627(14) 0.6813(16) 0.9315(11)
H69 H 0.6560 0.7018 0.9446
C90 C 0.6463(16) 0.6444(17) 0.9364(13)
H70 H 0.6301 0.6402 0.9533
C91 C 0.6843(11) 0.7268(12) 0.7156(9)
H71 H 0.6943 0.7050 0.7055
C92 C 0.6951(10) 0.7337(10) 0.7441(8)
C93 C 0.6806(14) 0.7722(14) 0.7541(11)
H72 H 0.6909 0.7821 0.7723
C94 C 0.6547(12) 0.7941(13) 0.7401(9)
H73 H 0.6429 0.8160 0.7489
C95 C 0.6472(12) 0.7817(13) 0.7124(9)
H74 H 0.6314 0.7974 0.7002
C96 C 0.8075(16) 0.4456(16) 0.6565(9)
C97 C 0.8034(13) 0.4503(12) 0.6235(9)
H75 H 0.8196 0.4646 0.6105
C98 C 0.7743(13) 0.4315(12) 0.6167(10)
H76 H 0.7651 0.4290 0.5966
C99 C 0.7557(12) 0.4139(12) 0.6423(9)
C100 C 0.7259(12) 0.3914(11) 0.6442(9)
C101 C 0.7097(12) 0.3712(11) 0.6696(9)
C102 C 0.6726(11) 0.3542(10) 0.6716(9)
H77 H 0.6541 0.3527 0.6560
C103 C 0.6690(13) 0.3411(11) 0.6992(9)
H78 H 0.6467 0.3289 0.7069
C104 C 0.7039(12) 0.3481(11) 0.7158(9)
C105 C 0.7167(12) 0.3360(11) 0.7464(9)
C106 C 0.7471(12) 0.3481(11) 0.7607(9)
C107 C 0.7581(11) 0.3355(10) 0.7923(8)
H79 H 0.7451 0.3178 0.8049
C108 C 0.7879(10) 0.3534(9) 0.7979(7)
H80 H 0.8004 0.3522 0.8168
C109 C 0.8014(12) 0.3754(12) 0.7743(9)
C110 C 0.8359(14) 0.4030(14) 0.7738(11)
C111 C 0.8415(12) 0.4275(12) 0.7493(10)
C112 C 0.8689(13) 0.4534(13) 0.7521(10)
H81 H 0.8839 0.4584 0.7695
C113 C 0.8715(15) 0.4717(16) 0.7252(12)
H82 H 0.8883 0.4921 0.7197
C114 C 0.8444(11) 0.4539(11) 0.7076(8)
C115 C 0.8371(14) 0.4634(13) 0.6775(8)
C116 C 0.6871(11) 0.4219(12) 0.6059(9)
H83 H 0.6897 0.4454 0.6166
C117 C 0.7021(13) 0.3868(14) 0.6168(10)
C118 C 0.6995(12) 0.3522(13) 0.6042(9)
H84 H 0.7129 0.3304 0.6115
C119 C 0.6745(13) 0.3506(14) 0.5783(10)
H85 H 0.6671 0.3267 0.5698
C120 C 0.6617(10) 0.3857(12) 0.5662(9)
H86 H 0.6474 0.3843 0.5480
C121 C 0.6699(12) 0.3250(12) 0.7876(9)
H87 H 0.6790 0.3482 0.7963
C122 C 0.6854(10) 0.3116(10) 0.7624(8)
C123 C 0.6750(12) 0.2747(13) 0.7510(9)
H88 H 0.6873 0.2645 0.7337
C124 C 0.6480(11) 0.2553(12) 0.7648(8)
H89 H 0.6385 0.2318 0.7568
C125 C 0.6336(11) 0.2708(13) 0.7923(9)
H90 H 0.6186 0.2541 0.8045
C126 C 0.8436(12) 0.4189(11) 0.8300(9)
H91 H 0.8175 0.4268 0.8311
C127 C 0.8613(11) 0.4042(10) 0.8036(8)
C128 C 0.8965(12) 0.3910(11) 0.7982(9)
H92 H 0.9043 0.3782 0.7804
C129 C 0.9222(14) 0.3995(12) 0.8249(10)
H93 H 0.9494 0.3970 0.8240
C130 C 0.9017(17) 0.4120(14) 0.8521(12)
H94 H 0.9158 0.4137 0.8704
C131 C 0.8510(13) 0.5264(13) 0.6503(9)
H95 H 0.8260 0.5343 0.6561
C132 C 0.8618(13) 0.4902(14) 0.6589(10)
C133 C 0.9037(16) 0.4793(17) 0.6568(12)
H96 H 0.9146 0.4554 0.6626
C134 C 0.9237(15) 0.5108(15) 0.6449(10)
H97 H 0.9509 0.5093 0.6436
C135 C 0.9061(16) 0.5433(14) 0.6352(10)
H98 H 0.9227 0.5627 0.6275
C136 C 0.6593(10) 0.7200(11) 0.5975(7)
H99 H 0.6789 0.6994 0.6007
C137 C 0.6470(12) 0.7173(14) 0.5620(10)
H100 H 0.6334 0.6929 0.5576
H101 H 0.6305 0.7392 0.5561
C138 C 0.6866(12) 0.7190(12) 0.5458(11)
H102 H 0.7018 0.6965 0.5524
H103 H 0.6821 0.7161 0.5240
C139 C 0.7114(11) 0.7554(11) 0.5506(7)
H104 H 0.6978 0.7783 0.5428
H105 H 0.7361 0.7528 0.5397
C140 C 0.7193(11) 0.7602(12) 0.5849(7)
H106 H 0.7299 0.7860 0.5893
H107 H 0.7378 0.7406 0.5920
C141 C 0.6786(14) 0.7546(14) 0.6008(10)
H108 H 0.6612 0.7760 0.5945
C142 C 0.8178(12) 0.6461(10) 0.5731(8)
H109 H 0.7918 0.6377 0.5801
C143 C 0.8108(12) 0.6860(12) 0.5557(9)
H110 H 0.7960 0.7042 0.5683
H111 H 0.8355 0.6981 0.5501
C144 C 0.7870(16) 0.6740(16) 0.5266(12)
H112 H 0.7882 0.6948 0.5114
H113 H 0.7597 0.6698 0.5320
C145 C 0.8055(16) 0.6343(13) 0.5127(11)
H114 H 0.7895 0.6268 0.4952
H115 H 0.8313 0.6407 0.5048
C146 C 0.8099(14) 0.5980(13) 0.5331(10)
H116 H 0.7846 0.5894 0.5406
H117 H 0.8219 0.5766 0.5218
C147 C 0.8357(11) 0.6108(10) 0.5590(8)
H118 H 0.8623 0.6166 0.5516
C148 C 0.6878(13) 0.5228(9) 0.5321(10)
H119 H 0.6970 0.5341 0.5515
C149 C 0.7119(17) 0.5415(14) 0.5059(13)
H120 H 0.7395 0.5359 0.5094
H121 H 0.7045 0.5291 0.4868
C150 C 0.7074(14) 0.5844(14) 0.5023(13)
H122 H 0.7235 0.5932 0.4853
H123 H 0.7167 0.5974 0.5207
C151 C 0.6650(14) 0.5962(15) 0.4965(14)
H124 H 0.6627 0.6244 0.4986
H125 H 0.6582 0.5895 0.4755
C152 C 0.6359(16) 0.5769(14) 0.5179(13)
H126 H 0.6338 0.5928 0.5362
H127 H 0.6104 0.5770 0.5080
C153 C 0.6450(13) 0.5359(13) 0.5273(9)
H128 H 0.6366 0.5204 0.5095
C154 C 0.6214(11) 0.4987(11) 0.9580(8)
H129 H 0.6089 0.5103 0.9761
C155 C 0.6172(13) 0.4534(13) 0.9603(9)
H130 H 0.5895 0.4469 0.9614
H131 H 0.6276 0.4417 0.9417
C156 C 0.6380(14) 0.4358(15) 0.9878(10)
H132 H 0.6253 0.4447 1.0065
H133 H 0.6359 0.4075 0.9870
C157 C 0.6744(15) 0.4455(13) 0.9886(12)
H134 H 0.6883 0.4326 0.9721
H135 H 0.6859 0.4369 1.0079
C158 C 0.6786(15) 0.4897(12) 0.9855(10)
H136 H 0.7065 0.4957 0.9856
H137 H 0.6675 0.5015 1.0038
C159 C 0.6606(12) 0.5103(12) 0.9578(9)
H138 H 0.6720 0.4969 0.9400
C160 C 0.8188(12) 0.4275(13) 0.9523(9)
H139 H 0.8428 0.4159 0.9607
C161 C 0.7883(14) 0.4406(15) 0.9757(10)
H140 H 0.7634 0.4461 0.9658
H141 H 0.7970 0.4639 0.9865
C162 C 0.7846(15) 0.4038(14) 0.9988(12)
H142 H 0.8095 0.3912 1.0029
H143 H 0.7715 0.4104 1.0179
C163 C 0.7572(16) 0.3791(16) 0.9757(12)
H144 H 0.7462 0.3562 0.9857
H145 H 0.7362 0.3951 0.9675
C164 C 0.7846(19) 0.3684(18) 0.9525(14)
H146 H 0.7738 0.3466 0.9410
H147 H 0.8083 0.3591 0.9624
C165 C 0.7965(15) 0.4027(14) 0.9285(11)
H148 H 0.7736 0.4164 0.9203
C166 C 0.6482(11) 0.2974(13) 0.8969(9)
H149 H 0.6309 0.2747 0.8997
C167 C 0.6811(11) 0.2992(12) 0.9206(8)
H150 H 0.7005 0.2791 0.9162
H151 H 0.6939 0.3245 0.9197
C168 C 0.6647(12) 0.2930(12) 0.9511(9)
H152 H 0.6847 0.2860 0.9660
H153 H 0.6441 0.2734 0.9511
C169 C 0.6489(13) 0.3340(12) 0.9564(10)
H154 H 0.6428 0.3385 0.9779
H155 H 0.6672 0.3539 0.9494
C170 C 0.6125(14) 0.3334(14) 0.9371(10)
H156 H 0.5954 0.3550 0.9426
H157 H 0.5984 0.3090 0.9400
C171 C 0.6270(14) 0.3375(14) 0.9028(10)
H158 H 0.6454 0.3594 0.9007
N7 N 0.7758(11) 0.4226(10) 0.6681(8)
N8 N 0.5627(8) 0.5443(9) 0.6961(6)
N9 N 0.5654(8) 0.5757(8) 0.7575(6)
N10 N 0.5563(8) 0.5000(9) 0.7840(6)
N11 N 0.5541(8) 0.4676(9) 0.7227(7)
N12 N 0.5934(10) 0.7083(11) 0.6757(8)
N13 N 0.5870(10) 0.5844(10) 0.8929(8)
N14 N 0.5720(9) 0.3459(9) 0.8161(6)
N15 N 0.5947(10) 0.4558(10) 0.5914(7)
N16 N 0.7794(9) 0.6722(9) 0.7563(7)
N17 N 0.8292(10) 0.6198(10) 0.7873(8)
N18 N 0.7820(9) 0.6250(9) 0.8406(7)
N19 N 0.7346(10) 0.6811(9) 0.8087(7)
N20 N 0.8769(11) 0.6288(10) 0.6592(8)
N21 N 0.8671(10) 0.4963(10) 0.8783(7)
N22 N 0.6537(10) 0.6146(10) 0.9166(8)
N23 N 0.6596(9) 0.7500(9) 0.7009(7)
N24 N 0.7300(9) 0.3681(9) 0.6969(7)
N25 N 0.7737(9) 0.3749(9) 0.7528(7)
N26 N 0.8235(11) 0.4253(11) 0.7233(8)
N27 N 0.6671(9) 0.4196(10) 0.5770(8)
N28 N 0.6386(8) 0.3037(9) 0.8018(6)
N29 N 0.8680(11) 0.4201(10) 0.8527(7)
N30 N 0.8712(11) 0.5515(9) 0.6347(7)
N31 N 0.6278(9) 0.7105(9) 0.6159(6)
H159 H 0.6246 0.6843 0.6168
H160 H 0.6056 0.7215 0.6087
N32 N 0.6866(8) 0.7581(9) 0.6372(6)
H161 H 0.6882 0.7834 0.6429
H162 H 0.7092 0.7459 0.6423
N33 N 0.8390(10) 0.6543(10) 0.5996(8)
H163 H 0.8238 0.6678 0.6129
H164 H 0.8599 0.6693 0.5949
N34 N 0.8362(9) 0.5798(9) 0.5793(7)
H165 H 0.8519 0.5604 0.5724
H166 H 0.8118 0.5701 0.5819
N35 N 0.6889(8) 0.4807(8) 0.5351(7)
H167 H 0.7116 0.4728 0.5437
H168 H 0.6861 0.4690 0.5168
N36 N 0.6202(11) 0.5209(10) 0.5519(8)
H169 H 0.5952 0.5186 0.5454
H170 H 0.6207 0.5373 0.5681
N37 N 0.6029(9) 0.5156(9) 0.9304(7)
H171 H 0.5769 0.5184 0.9333
H172 H 0.6069 0.4999 0.9140
N38 N 0.6680(9) 0.5499(9) 0.9528(7)
H173 H 0.6922 0.5534 0.9449
H174 H 0.6663 0.5635 0.9705
N39 N 0.8237(10) 0.4616(10) 0.9343(7)
H175 H 0.8401 0.4785 0.9437
H176 H 0.8005 0.4737 0.9315
N40 N 0.8240(9) 0.3947(9) 0.9062(7)
H177 H 0.8124 0.3823 0.8902
H178 H 0.8428 0.3789 0.9138
N41 N 0.6613(8) 0.3025(9) 0.8645(6)
H179 H 0.6690 0.2793 0.8567
H180 H 0.6818 0.3192 0.8637
N42 N 0.5955(9) 0.3407(9) 0.8809(6)
H181 H 0.5870 0.3656 0.8796
H182 H 0.5752 0.3252 0.8864
O7 O 0.8190(8) 0.3472(8) 0.6910(6)
O8 O 0.8218(8) 0.7013(8) 0.8168(6)
N43 N 0.7820(11) 0.7249(11) 0.6415(7)
O9 O 0.7615(10) 0.6958(10) 0.6367(7)
O10 O 0.8187(9) 0.7229(8) 0.6386(6)
O11 O 0.7706(9) 0.7544(9) 0.6530(7)
N44 N 0.7634(13) 0.5468(14) 0.9491(9)
O12 O 0.7546(10) 0.5163(11) 0.9358(8)
O13 O 0.8027(10) 0.5484(9) 0.9500(7)
O14 O 0.7463(10) 0.5718(10) 0.9549(7)
N45 N 0.6371(9) 0.4655(17) 0.8591(11)
O15 O 0.6204(9) 0.4581(9) 0.8847(7)
O16 O 0.6371(8) 0.4327(9) 0.8439(7)
O17 O 0.6468(11) 0.4953(14) 0.8504(9)
N46 N 0.7410(13) 0.3735(12) 0.8614(8)
O18 O 0.7650(9) 0.3989(9) 0.8641(6)
O19 O 0.7084(12) 0.3752(10) 0.8523(8)
O20 O 0.7548(9) 0.3420(10) 0.8715(7)
N47 N 0.6102(15) 0.8225(14) 0.6343(12)
O21 O 0.6485(9) 0.8324(9) 0.6419(7)
O22 O 0.6115(14) 0.8348(14) 0.6050(12)
O23 O 0.5912(12) 0.8108(12) 0.6533(10)
N48 N 0.5691(15) 0.3001(18) 0.6975(14)
O24 O 0.573(2) 0.270(2) 0.6844(15)
O25 O 0.5656(16) 0.3243(17) 0.6774(13)
O26 O 0.5646(13) 0.3036(12) 0.7235(11)
N49 N 0.6236(18) 0.620(2) 0.6042(17)
O27 O 0.5853(18) 0.6361(17) 0.5907(13)
O28 O 0.637(2) 0.578(2) 0.5952(15)
O29 O 0.6540(14) 0.6318(13) 0.6284(10)
O31 O 0.6655(14) 0.4272(15) 0.4811(11)
O32 O 0.5531(12) 0.4177(12) 0.8913(10)
O33 O 0.7013(10) 0.6522(10) 0.6743(8)
O34 O 0.5397(13) 0.2375(13) 0.7588(10)
O35 O 0.9465(12) 0.5638(12) 0.7121(9)
O36 O 0.9601(16) 0.4911(16) 0.7358(11)
O37 O 0.7118(12) 0.6098(12) 0.5881(9)
O38 O 0.9463(10) 0.4951(10) 0.8019(8)
O39 O 0.5925(15) 0.7082(15) 0.8816(11)
O40 O 0.9961(17) 0.4134(16) 0.6630(12)
O41 O 1.0131(11) 0.4427(11) 0.8128(8)
O42 O 0.9240(19) 0.6971(19) 0.5761(15)
O43 O 0.7597(15) 0.5425(15) 0.5953(11)
O44 O 0.7635(17) 0.6164(17) 0.6389(13)
O45 O 0.7810(18) 0.4866(18) 0.5519(13)
O46 O 0.5609(16) 0.6955(16) 0.9458(12)
O49 O 0.899(2) 0.498(2) 0.9598(17)
O50 O 0.5882(13) 0.4118(13) 0.5000
O51 O 0.799(3) 0.295(3) 0.6499(18)
O52 O 0.532(3) 0.561(3) 0.977(2)
loop_
_geom_bond_atom_site_label_1
_geom_bond_atom_site_label_2
_geom_bond_site_symmetry_1
_geom_bond_site_symmetry_2
Pd1 N14 1_555 1_555
Pd2 N12 1_555 1_555
Pd3 N21 1_555 1_555
Pd4 N13 1_555 1_555
Pd5 N20 1_555 1_555
Pd6 N15 1_555 1_555
Zn1 O6 1_555 1_555
Zn2 N7 1_555 1_555
Zn3 N16 1_555 1_555
C1 H1 1_555 1_555
H2 C1 1_555 1_555
H3 C1 1_555 1_555
C2 C1 1_555 1_555
C3 H4 1_555 1_555
C4 C3 1_555 1_555
H5 C4 1_555 1_555
H6 C4 1_555 1_555
H7 C4 1_555 1_555
C5 C3 1_555 1_555
C6 H8 1_555 1_555
C7 C6 1_555 1_555
H9 C7 1_555 1_555
H10 C7 1_555 1_555
H11 C7 1_555 1_555
C8 C6 1_555 1_555
C9 H12 1_555 1_555
C10 C9 1_555 1_555
H13 C10 1_555 1_555
H14 C10 1_555 1_555
H15 C10 1_555 1_555
C11 C9 1_555 1_555
C12 H16 1_555 1_555
H17 C12 1_555 1_555
C13 C12 1_555 1_555
C14 H18 1_555 1_555
H19 C14 1_555 1_555
C15 C14 1_555 1_555
N1 C11 1_555 1_555
H20 N1 1_555 1_555
H21 N1 1_555 1_555
N2 C3 1_555 1_555
H22 N2 1_555 1_555
N3 C5 1_555 1_555
H23 N3 1_555 1_555
N4 C8 1_555 1_555
H24 N4 1_555 1_555
N5 C2 1_555 1_555
H25 N5 1_555 1_555
N6 C13 1_555 1_555
H26 N6 1_555 1_555
O1 C2 1_555 1_555
O2 C5 1_555 1_555
O3 C8 1_555 1_555
O4 C11 1_555 1_555
O5 C13 1_555 1_555
O6 C15 1_555 1_555
C16 C17 1_555 1_555
C17 H27 1_555 1_555
C18 C17 1_555 1_555
H28 C18 1_555 1_555
C19 C18 1_555 1_555
C20 C19 1_555 1_555
C21 C20 1_555 1_555
C22 C21 1_555 1_555
H29 C22 1_555 1_555
C23 C22 1_555 1_555
H30 C23 1_555 1_555
C24 C23 1_555 1_555
C25 C24 1_555 1_555
C26 C25 1_555 1_555
C27 C26 1_555 1_555
H31 C27 1_555 1_555
C28 C27 1_555 1_555
H32 C28 1_555 1_555
C29 C28 1_555 1_555
C30 C29 1_555 1_555
C31 C30 1_555 1_555
C32 C31 1_555 1_555
H33 C32 1_555 1_555
C33 C32 1_555 1_555
H34 C33 1_555 1_555
C34 C33 1_555 1_555
C35 C16 1_555 1_555
C36 H35 1_555 1_555
C37 C20 1_555 1_555
C38 C37 1_555 1_555
H36 C38 1_555 1_555
C39 C38 1_555 1_555
H37 C39 1_555 1_555
C40 C39 1_555 1_555
H38 C40 1_555 1_555
C41 H39 1_555 1_555
C42 C25 1_555 1_555
C43 C42 1_555 1_555
H40 C43 1_555 1_555
C44 C43 1_555 1_555
H41 C44 1_555 1_555
C45 C44 1_555 1_555
H42 C45 1_555 1_555
C46 H43 1_555 1_555
C47 C30 1_555 1_555
C48 C47 1_555 1_555
H44 C48 1_555 1_555
C49 C48 1_555 1_555
H45 C49 1_555 1_555
C50 C49 1_555 1_555
H46 C50 1_555 1_555
C51 H47 1_555 1_555
C52 C35 1_555 1_555
C53 C52 1_555 1_555
H48 C53 1_555 1_555
C54 C53 1_555 1_555
H49 C54 1_555 1_555
C55 C54 1_555 1_555
H50 C55 1_555 1_555
C56 C57 1_555 1_555
C57 H51 1_555 1_555
C58 C57 1_555 1_555
H52 C58 1_555 1_555
C59 C58 1_555 1_555
C60 C59 1_555 1_555
C61 C60 1_555 1_555
C62 C61 1_555 1_555
H53 C62 1_555 1_555
C63 C62 1_555 1_555
H54 C63 1_555 1_555
C64 C63 1_555 1_555
C65 C64 1_555 1_555
C66 C65 1_555 1_555
C67 C66 1_555 1_555
H55 C67 1_555 1_555
C68 C67 1_555 1_555
H56 C68 1_555 1_555
C69 C68 1_555 1_555
C70 C69 1_555 1_555
C71 C70 1_555 1_555
C72 C71 1_555 1_555
H57 C72 1_555 1_555
C73 C72 1_555 1_555
H58 C73 1_555 1_555
C74 C73 1_555 1_555
C75 C56 1_555 1_555
C76 H59 1_555 1_555
C77 C60 1_555 1_555
C78 C77 1_555 1_555
H60 C78 1_555 1_555
C79 C78 1_555 1_555
H61 C79 1_555 1_555
C80 C79 1_555 1_555
H62 C80 1_555 1_555
C81 H63 1_555 1_555
C82 C65 1_555 1_555
C83 C82 1_555 1_555
H64 C83 1_555 1_555
C84 C83 1_555 1_555
H65 C84 1_555 1_555
C85 C84 1_555 1_555
H66 C85 1_555 1_555
C86 H67 1_555 1_555
C87 C70 1_555 1_555
C88 C87 1_555 1_555
H68 C88 1_555 1_555
C89 C88 1_555 1_555
H69 C89 1_555 1_555
C90 C89 1_555 1_555
H70 C90 1_555 1_555
C91 H71 1_555 1_555
C92 C75 1_555 1_555
C93 C92 1_555 1_555
H72 C93 1_555 1_555
C94 C93 1_555 1_555
H73 C94 1_555 1_555
C95 C94 1_555 1_555
H74 C95 1_555 1_555
C96 C97 1_555 1_555
C97 H75 1_555 1_555
C98 C97 1_555 1_555
H76 C98 1_555 1_555
C99 C98 1_555 1_555
C100 C99 1_555 1_555
C101 C100 1_555 1_555
C102 C101 1_555 1_555
H77 C102 1_555 1_555
C103 C102 1_555 1_555
H78 C103 1_555 1_555
C104 C103 1_555 1_555
C105 C104 1_555 1_555
C106 C105 1_555 1_555
C107 C106 1_555 1_555
H79 C107 1_555 1_555
C108 C107 1_555 1_555
H80 C108 1_555 1_555
C109 C108 1_555 1_555
C110 C109 1_555 1_555
C111 C110 1_555 1_555
C112 C111 1_555 1_555
H81 C112 1_555 1_555
C113 C112 1_555 1_555
H82 C113 1_555 1_555
C114 C113 1_555 1_555
C115 C96 1_555 1_555
C116 H83 1_555 1_555
C117 C100 1_555 1_555
C118 C117 1_555 1_555
H84 C118 1_555 1_555
C119 C118 1_555 1_555
H85 C119 1_555 1_555
C120 C119 1_555 1_555
H86 C120 1_555 1_555
C121 H87 1_555 1_555
C122 C105 1_555 1_555
C123 C122 1_555 1_555
H88 C123 1_555 1_555
C124 C123 1_555 1_555
H89 C124 1_555 1_555
C125 C124 1_555 1_555
H90 C125 1_555 1_555
C126 H91 1_555 1_555
C127 C110 1_555 1_555
C128 C127 1_555 1_555
H92 C128 1_555 1_555
C129 C128 1_555 1_555
H93 C129 1_555 1_555
C130 C129 1_555 1_555
H94 C130 1_555 1_555
C131 H95 1_555 1_555
C132 C115 1_555 1_555
C133 C132 1_555 1_555
H96 C133 1_555 1_555
C134 C133 1_555 1_555
H97 C134 1_555 1_555
C135 C134 1_555 1_555
H98 C135 1_555 1_555
C136 H99 1_555 1_555
C137 C136 1_555 1_555
H100 C137 1_555 1_555
H101 C137 1_555 1_555
C138 C137 1_555 1_555
H102 C138 1_555 1_555
H103 C138 1_555 1_555
C139 C138 1_555 1_555
H104 C139 1_555 1_555
H105 C139 1_555 1_555
C140 C139 1_555 1_555
H106 C140 1_555 1_555
H107 C140 1_555 1_555
C141 C136 1_555 1_555
H108 C141 1_555 1_555
C142 H109 1_555 1_555
C143 C142 1_555 1_555
H110 C143 1_555 1_555
H111 C143 1_555 1_555
C144 C143 1_555 1_555
H112 C144 1_555 1_555
H113 C144 1_555 1_555
C145 C144 1_555 1_555
H114 C145 1_555 1_555
H115 C145 1_555 1_555
C146 C145 1_555 1_555
H116 C146 1_555 1_555
H117 C146 1_555 1_555
C147 C142 1_555 1_555
H118 C147 1_555 1_555
C148 H119 1_555 1_555
C149 C148 1_555 1_555
H120 C149 1_555 1_555
H121 C149 1_555 1_555
C150 C149 1_555 1_555
H122 C150 1_555 1_555
H123 C150 1_555 1_555
C151 C150 1_555 1_555
H124 C151 1_555 1_555
H125 C151 1_555 1_555
C152 C151 1_555 1_555
H126 C152 1_555 1_555
H127 C152 1_555 1_555
C153 C148 1_555 1_555
H128 C153 1_555 1_555
C154 H129 1_555 1_555
C155 C154 1_555 1_555
H130 C155 1_555 1_555
H131 C155 1_555 1_555
C156 C155 1_555 1_555
H132 C156 1_555 1_555
H133 C156 1_555 1_555
C157 C156 1_555 1_555
H134 C157 1_555 1_555
H135 C157 1_555 1_555
C158 C157 1_555 1_555
H136 C158 1_555 1_555
H137 C158 1_555 1_555
C159 C154 1_555 1_555
H138 C159 1_555 1_555
C160 H139 1_555 1_555
C161 C160 1_555 1_555
H140 C161 1_555 1_555
H141 C161 1_555 1_555
C162 C161 1_555 1_555
H142 C162 1_555 1_555
H143 C162 1_555 1_555
C163 C162 1_555 1_555
H144 C163 1_555 1_555
H145 C163 1_555 1_555
C164 C163 1_555 1_555
H146 C164 1_555 1_555
H147 C164 1_555 1_555
C165 C160 1_555 1_555
H148 C165 1_555 1_555
C166 H149 1_555 1_555
C167 C166 1_555 1_555
H150 C167 1_555 1_555
H151 C167 1_555 1_555
C168 C167 1_555 1_555
H152 C168 1_555 1_555
H153 C168 1_555 1_555
C169 C168 1_555 1_555
H154 C169 1_555 1_555
H155 C169 1_555 1_555
C170 C169 1_555 1_555
H156 C170 1_555 1_555
H157 C170 1_555 1_555
C171 C166 1_555 1_555
H158 C171 1_555 1_555
N7 C96 1_555 1_555
N8 Zn1 1_555 1_555
N9 Zn1 1_555 1_555
N10 Zn1 1_555 1_555
N11 Zn1 1_555 1_555
N12 C36 1_555 1_555
N13 C41 1_555 1_555
N14 C46 1_555 1_555
N15 C51 1_555 1_555
N16 C56 1_555 1_555
N17 Zn3 1_555 1_555
N18 Zn3 1_555 1_555
N19 Zn3 1_555 1_555
N20 C76 1_555 1_555
N21 C81 1_555 1_555
N22 Pd4 1_555 1_555
N23 Pd2 1_555 1_555
N24 Zn2 1_555 1_555
N25 Zn2 1_555 1_555
N26 Zn2 1_555 1_555
N27 Pd6 1_555 1_555
N28 Pd1 1_555 1_555
N29 Pd3 1_555 1_555
N30 Pd5 1_555 1_555
N31 Pd2 1_555 1_555
H159 N31 1_555 1_555
H160 N31 1_555 1_555
N32 Pd2 1_555 1_555
H161 N32 1_555 1_555
H162 N32 1_555 1_555
N33 Pd5 1_555 1_555
H163 N33 1_555 1_555
H164 N33 1_555 1_555
N34 Pd5 1_555 1_555
H165 N34 1_555 1_555
H166 N34 1_555 1_555
N35 Pd6 1_555 1_555
H167 N35 1_555 1_555
H168 N35 1_555 1_555
N36 Pd6 1_555 1_555
H169 N36 1_555 1_555
H170 N36 1_555 1_555
N37 Pd4 1_555 1_555
H171 N37 1_555 1_555
H172 N37 1_555 1_555
N38 Pd4 1_555 1_555
H173 N38 1_555 1_555
H174 N38 1_555 1_555
N39 Pd3 1_555 1_555
H175 N39 1_555 1_555
H176 N39 1_555 1_555
N40 Pd3 1_555 1_555
H177 N40 1_555 1_555
H178 N40 1_555 1_555
N41 Pd1 1_555 1_555
H179 N41 1_555 1_555
H180 N41 1_555 1_555
N42 Pd1 1_555 1_555
H181 N42 1_555 1_555
H182 N42 1_555 1_555
O7 Zn2 1_555 1_555
O8 Zn3 1_555 1_555
N43 O9 1_555 1_555
O10 N43 1_555 1_555
O11 N43 1_555 1_555
N44 O12 1_555 1_555
O13 N44 1_555 1_555
O14 N44 1_555 1_555
N45 O15 1_555 1_555
O16 N45 1_555 1_555
O17 N45 1_555 1_555
N46 O18 1_555 1_555
O19 N46 1_555 1_555
O20 N46 1_555 1_555
N47 O21 1_555 1_555
O22 N47 1_555 1_555
O23 N47 1_555 1_555
N48 O24 1_555 1_555
O25 N48 1_555 1_555
O26 N48 1_555 1_555
N49 O27 1_555 1_555
O28 N49 1_555 1_555
O29 N49 1_555 1_555
C6 N3 1_555 1_555
C9 N4 1_555 1_555
C12 N5 1_555 1_555
C14 N6 1_555 1_555
C15 N2 1_555 1_555
C16 N8 1_555 1_555
C19 N8 1_555 1_555
C21 N9 1_555 1_555
C24 N9 1_555 1_555
C26 N10 1_555 1_555
C29 N10 1_555 1_555
C31 N11 1_555 1_555
C34 C35 1_555 1_555
C34 N11 1_555 1_555
C36 C37 1_555 1_555
C40 N12 1_555 1_555
C41 C42 1_555 1_555
C45 N13 1_555 1_555
C46 C47 1_555 1_555
C50 N14 1_555 1_555
C51 C52 1_555 1_555
C55 N15 1_555 1_555
C59 N16 1_555 1_555
C61 N17 1_555 1_555
C64 N17 1_555 1_555
C66 N18 1_555 1_555
C69 N18 1_555 1_555
C71 N19 1_555 1_555
C74 C75 1_555 1_555
C74 N19 1_555 1_555
C76 C77 1_555 1_555
C80 N20 1_555 1_555
C81 C82 1_555 1_555
C85 N21 1_555 1_555
C86 C87 1_555 1_555
C86 N22 1_555 1_555
C90 N22 1_555 1_555
C91 C92 1_555 1_555
C91 N23 1_555 1_555
C95 N23 1_555 1_555
C99 N7 1_555 1_555
C101 N24 1_555 1_555
C104 N24 1_555 1_555
C106 N25 1_555 1_555
C109 N25 1_555 1_555
C111 N26 1_555 1_555
C114 C115 1_555 1_555
C114 N26 1_555 1_555
C116 C117 1_555 1_555
C116 N27 1_555 1_555
C120 N27 1_555 1_555
C121 C122 1_555 1_555
C121 N28 1_555 1_555
C125 N28 1_555 1_555
C126 C127 1_555 1_555
C126 N29 1_555 1_555
C130 N29 1_555 1_555
C131 C132 1_555 1_555
C131 N30 1_555 1_555
C135 N30 1_555 1_555
C136 N31 1_555 1_555
C140 C141 1_555 1_555
C141 N32 1_555 1_555
C142 N33 1_555 1_555
C146 C147 1_555 1_555
C147 N34 1_555 1_555
C148 N35 1_555 1_555
C152 C153 1_555 1_555
C153 N36 1_555 1_555
C154 N37 1_555 1_555
C158 C159 1_555 1_555
C159 N38 1_555 1_555
C160 N39 1_555 1_555
C164 C165 1_555 1_555
C165 N40 1_555 1_555
C166 N41 1_555 1_555
C170 C171 1_555 1_555
C171 N42 1_555 1_555

#END
