# generated using pymatgen
data_Zn12H704Pd24C668N188O237
_symmetry_space_group_name_H-M   'P 1'
_cell_length_a   22.14500000
_cell_length_b   25.67400000
_cell_length_c   44.79500000
_cell_angle_alpha   90.00000000
_cell_angle_beta   90.00000000
_cell_angle_gamma   90.00000000
_symmetry_Int_Tables_number   1
_chemical_formula_structural   Zn12H704Pd24C668N188O237
_chemical_formula_sum   'Zn12 H704 Pd24 C668 N188 O237'
_cell_volume   25468.22995035
_cell_formula_units_Z   1
loop_
 _symmetry_equiv_pos_site_id
 _symmetry_equiv_pos_as_xyz
  1  'x, y, z'
loop_
 _atom_site_type_symbol
 _atom_site_label
 _atom_site_symmetry_multiplicity
 _atom_site_fract_x
 _atom_site_fract_y
 _atom_site_fract_z
 _atom_site_occupancy
  Zn  Zn1  1  0.428000  0.652300  0.707090  1
  Zn  Zn2  1  0.572000  0.347700  0.707090  1
  Zn  Zn3  1  0.572000  0.652300  0.292910  1
  Zn  Zn4  1  0.428000  0.347700  0.292910  1
  Zn  Zn5  1  0.163800  0.916020  0.793780  1
  Zn  Zn6  1  0.836200  0.083980  0.793780  1
  Zn  Zn7  1  0.836200  0.916020  0.206220  1
  Zn  Zn8  1  0.163800  0.083980  0.206220  1
  Zn  Zn9  1  0.055200  0.591050  0.743460  1
  Zn  Zn10  1  0.944800  0.408950  0.743460  1
  Zn  Zn11  1  0.944800  0.591050  0.256540  1
  Zn  Zn12  1  0.055200  0.408950  0.256540  1
  H  H13  1  0.210400  0.578500  0.765200  1
  H  H14  1  0.789600  0.421500  0.765200  1
  H  H15  1  0.789600  0.578500  0.234800  1
  H  H16  1  0.210400  0.421500  0.234800  1
  H  H17  1  0.186600  0.596400  0.797300  1
  H  H18  1  0.813400  0.403600  0.797300  1
  H  H19  1  0.813400  0.596400  0.202700  1
  H  H20  1  0.186600  0.403600  0.202700  1
  H  H21  1  0.243700  0.624700  0.782600  1
  H  H22  1  0.756300  0.375300  0.782600  1
  H  H23  1  0.756300  0.624700  0.217400  1
  H  H24  1  0.243700  0.375300  0.217400  1
  H  H25  1  0.193200  0.683700  0.799900  1
  H  H26  1  0.806800  0.316300  0.799900  1
  H  H27  1  0.806800  0.683700  0.200100  1
  H  H28  1  0.193200  0.316300  0.200100  1
  H  H29  1  0.085100  0.708900  0.774600  1
  H  H30  1  0.914900  0.291100  0.774600  1
  H  H31  1  0.914900  0.708900  0.225400  1
  H  H32  1  0.085100  0.291100  0.225400  1
  H  H33  1  0.083400  0.786000  0.804200  1
  H  H34  1  0.916600  0.214000  0.804200  1
  H  H35  1  0.916600  0.786000  0.195800  1
  H  H36  1  0.083400  0.214000  0.195800  1
  H  H37  1  0.150200  0.773200  0.815800  1
  H  H38  1  0.849800  0.226800  0.815800  1
  H  H39  1  0.849800  0.773200  0.184200  1
  H  H40  1  0.150200  0.226800  0.184200  1
  H  H41  1  0.095300  0.735300  0.824100  1
  H  H42  1  0.904700  0.264700  0.824100  1
  H  H43  1  0.904700  0.735300  0.175900  1
  H  H44  1  0.095300  0.264700  0.175900  1
  H  H45  1  0.227200  0.737600  0.757500  1
  H  H46  1  0.772800  0.262400  0.757500  1
  H  H47  1  0.772800  0.737600  0.242500  1
  H  H48  1  0.227200  0.262400  0.242500  1
  H  H49  1  0.204200  0.824100  0.723000  1
  H  H50  1  0.795800  0.175900  0.723000  1
  H  H51  1  0.795800  0.824100  0.277000  1
  H  H52  1  0.204200  0.175900  0.277000  1
  H  H53  1  0.308300  0.827700  0.709700  1
  H  H54  1  0.691700  0.172300  0.709700  1
  H  H55  1  0.691700  0.827700  0.290300  1
  H  H56  1  0.308300  0.172300  0.290300  1
  H  H57  1  0.322100  0.776400  0.728800  1
  H  H58  1  0.677900  0.223600  0.728800  1
  H  H59  1  0.677900  0.776400  0.271200  1
  H  H60  1  0.322100  0.223600  0.271200  1
  H  H61  1  0.303900  0.829400  0.745300  1
  H  H62  1  0.696100  0.170600  0.745300  1
  H  H63  1  0.696100  0.829400  0.254700  1
  H  H64  1  0.303900  0.170600  0.254700  1
  H  H65  1  0.178600  0.706200  0.710000  1
  H  H66  1  0.821400  0.293800  0.710000  1
  H  H67  1  0.821400  0.706200  0.290000  1
  H  H68  1  0.178600  0.293800  0.290000  1
  H  H69  1  0.260900  0.688600  0.664300  1
  H  H70  1  0.739100  0.311400  0.664300  1
  H  H71  1  0.739100  0.688600  0.335700  1
  H  H72  1  0.260900  0.311400  0.335700  1
  H  H73  1  0.257500  0.623800  0.698200  1
  H  H74  1  0.742500  0.376200  0.698200  1
  H  H75  1  0.742500  0.623800  0.301800  1
  H  H76  1  0.257500  0.376200  0.301800  1
  H  H77  1  0.233500  0.602700  0.666667  1
  H  H78  1  0.766500  0.397300  0.666667  1
  H  H79  1  0.766500  0.602700  0.333333  1
  H  H80  1  0.233500  0.397300  0.333333  1
  H  H81  1  0.186600  0.616200  0.692800  1
  H  H82  1  0.813400  0.383800  0.692800  1
  H  H83  1  0.813400  0.616200  0.307200  1
  H  H84  1  0.186600  0.383800  0.307200  1
  H  H85  1  0.093900  0.723200  0.648800  1
  H  H86  1  0.906100  0.276800  0.648800  1
  H  H87  1  0.906100  0.723200  0.351200  1
  H  H88  1  0.093900  0.276800  0.351200  1
  H  H89  1  0.123600  0.724000  0.679500  1
  H  H90  1  0.876400  0.276000  0.679500  1
  H  H91  1  0.876400  0.724000  0.320500  1
  H  H92  1  0.123600  0.276000  0.320500  1
  H  H93  1  0.953200  0.669900  0.651400  1
  H  H94  1  0.046800  0.330100  0.651400  1
  H  H95  1  0.046800  0.669900  0.348600  1
  H  H96  1  0.953200  0.330100  0.348600  1
  H  H97  1  0.017200  0.599300  0.633500  1
  H  H98  1  0.982800  0.400700  0.633500  1
  H  H99  1  0.982800  0.599300  0.366500  1
  H  H100  1  0.017200  0.400700  0.366500  1
  H  H101  1  0.174600  0.467900  0.675900  1
  H  H102  1  0.825400  0.532100  0.675900  1
  H  H103  1  0.825400  0.467900  0.324100  1
  H  H104  1  0.174600  0.532100  0.324100  1
  H  H105  1  0.201800  0.439100  0.730000  1
  H  H106  1  0.798200  0.560900  0.730000  1
  H  H107  1  0.798200  0.439100  0.270000  1
  H  H108  1  0.201800  0.560900  0.270000  1
  H  H109  1  0.104900  0.474500  0.835500  1
  H  H110  1  0.895100  0.525500  0.835500  1
  H  H111  1  0.895100  0.474500  0.164500  1
  H  H112  1  0.104900  0.525500  0.164500  1
  H  H113  1  0.041300  0.546800  0.852900  1
  H  H114  1  0.958700  0.453200  0.852900  1
  H  H115  1  0.958700  0.546800  0.147100  1
  H  H116  1  0.041300  0.453200  0.147100  1
  H  H117  1  0.944100  0.718500  0.814500  1
  H  H118  1  0.055900  0.281500  0.814500  1
  H  H119  1  0.055900  0.718500  0.185500  1
  H  H120  1  0.944100  0.281500  0.185500  1
  H  H121  1  0.915000  0.743900  0.761900  1
  H  H122  1  0.085000  0.256100  0.761900  1
  H  H123  1  0.085000  0.743900  0.238100  1
  H  H124  1  0.915000  0.256100  0.238100  1
  H  H125  1  0.130900  0.597900  0.620300  1
  H  H126  1  0.869100  0.402100  0.620300  1
  H  H127  1  0.869100  0.597900  0.379700  1
  H  H128  1  0.130900  0.402100  0.379700  1
  H  H129  1  0.079700  0.453300  0.644700  1
  H  H130  1  0.920300  0.546700  0.644700  1
  H  H131  1  0.920300  0.453300  0.355300  1
  H  H132  1  0.079700  0.546700  0.355300  1
  H  H133  1  0.095600  0.423700  0.596700  1
  H  H134  1  0.904400  0.576300  0.596700  1
  H  H135  1  0.904400  0.423700  0.403300  1
  H  H136  1  0.095600  0.576300  0.403300  1
  H  H137  1  0.142000  0.485300  0.565300  1
  H  H138  1  0.858000  0.514700  0.565300  1
  H  H139  1  0.858000  0.485300  0.434700  1
  H  H140  1  0.142000  0.514700  0.434700  1
  H  H141  1  0.222100  0.489400  0.812200  1
  H  H142  1  0.777900  0.510600  0.812200  1
  H  H143  1  0.777900  0.489400  0.187800  1
  H  H144  1  0.222100  0.510600  0.187800  1
  H  H145  1  0.131700  0.383500  0.763300  1
  H  H146  1  0.868300  0.616500  0.763300  1
  H  H147  1  0.868300  0.383500  0.236700  1
  H  H148  1  0.131700  0.616500  0.236700  1
  H  H149  1  0.189900  0.315400  0.780600  1
  H  H150  1  0.810100  0.684600  0.780600  1
  H  H151  1  0.810100  0.315400  0.219400  1
  H  H152  1  0.189900  0.684600  0.219400  1
  H  H153  1  0.255300  0.335800  0.818300  1
  H  H154  1  0.744700  0.664200  0.818300  1
  H  H155  1  0.744700  0.335800  0.181700  1
  H  H156  1  0.255300  0.664200  0.181700  1
  H  H157  1  0.072100  0.646700  0.862600  1
  H  H158  1  0.927900  0.353300  0.862600  1
  H  H159  1  0.927900  0.646700  0.137400  1
  H  H160  1  0.072100  0.353300  0.137400  1
  H  H161  1  0.899700  0.625600  0.834600  1
  H  H162  1  0.100300  0.374400  0.834600  1
  H  H163  1  0.100300  0.625600  0.165400  1
  H  H164  1  0.899700  0.374400  0.165400  1
  H  H165  1  0.859400  0.650800  0.884200  1
  H  H166  1  0.140600  0.349200  0.884200  1
  H  H167  1  0.140600  0.650800  0.115800  1
  H  H168  1  0.859400  0.349200  0.115800  1
  H  H169  1  0.928500  0.684500  0.916200  1
  H  H170  1  0.071500  0.315500  0.916200  1
  H  H171  1  0.071500  0.684500  0.083800  1
  H  H172  1  0.928500  0.315500  0.083800  1
  H  H173  1  0.965400  0.755900  0.683100  1
  H  H174  1  0.034600  0.244100  0.683100  1
  H  H175  1  0.034600  0.755900  0.316900  1
  H  H176  1  0.965400  0.244100  0.316900  1
  H  H177  1  0.833100  0.663400  0.713500  1
  H  H178  1  0.166900  0.336600  0.713500  1
  H  H179  1  0.166900  0.663400  0.286500  1
  H  H180  1  0.833100  0.336600  0.286500  1
  H  H181  1  0.773800  0.729600  0.692000  1
  H  H182  1  0.226200  0.270400  0.692000  1
  H  H183  1  0.226200  0.729600  0.308000  1
  H  H184  1  0.773800  0.270400  0.308000  1
  H  H185  1  0.806000  0.811200  0.676100  1
  H  H186  1  0.194000  0.188800  0.676100  1
  H  H187  1  0.194000  0.811200  0.323900  1
  H  H188  1  0.806000  0.188800  0.323900  1
  H  H189  1  0.381500  0.677000  0.596300  1
  H  H190  1  0.618500  0.323000  0.596300  1
  H  H191  1  0.618500  0.677000  0.403700  1
  H  H192  1  0.381500  0.323000  0.403700  1
  H  H193  1  0.387200  0.769700  0.612800  1
  H  H194  1  0.612800  0.230300  0.612800  1
  H  H195  1  0.612800  0.769700  0.387200  1
  H  H196  1  0.387200  0.230300  0.387200  1
  H  H197  1  0.458300  0.863600  0.707100  1
  H  H198  1  0.541700  0.136400  0.707100  1
  H  H199  1  0.541700  0.863600  0.292900  1
  H  H200  1  0.458300  0.136400  0.292900  1
  H  H201  1  0.481800  0.827500  0.763100  1
  H  H202  1  0.518200  0.172500  0.763100  1
  H  H203  1  0.518200  0.827500  0.236900  1
  H  H204  1  0.481800  0.172500  0.236900  1
  H  H205  1  0.488200  0.633500  0.817000  1
  H  H206  1  0.511800  0.366500  0.817000  1
  H  H207  1  0.511800  0.633500  0.183000  1
  H  H208  1  0.488200  0.366500  0.183000  1
  H  H209  1  0.451000  0.552100  0.806300  1
  H  H210  1  0.549000  0.447900  0.806300  1
  H  H211  1  0.549000  0.552100  0.193700  1
  H  H212  1  0.451000  0.447900  0.193700  1
  H  H213  1  0.332300  0.464500  0.712300  1
  H  H214  1  0.667700  0.535500  0.712300  1
  H  H215  1  0.667700  0.464500  0.287700  1
  H  H216  1  0.332300  0.535500  0.287700  1
  H  H217  1  0.314400  0.500300  0.657200  1
  H  H218  1  0.685600  0.499700  0.657200  1
  H  H219  1  0.685600  0.500300  0.342800  1
  H  H220  1  0.314400  0.499700  0.342800  1
  H  H221  1  0.346700  0.823600  0.646000  1
  H  H222  1  0.653300  0.176400  0.646000  1
  H  H223  1  0.653300  0.823600  0.354000  1
  H  H224  1  0.346700  0.176400  0.354000  1
  H  H225  1  0.523000  0.817700  0.658000  1
  H  H226  1  0.477000  0.182300  0.658000  1
  H  H227  1  0.477000  0.817700  0.342000  1
  H  H228  1  0.523000  0.182300  0.342000  1
  H  H229  1  0.523700  0.902600  0.627100  1
  H  H230  1  0.476300  0.097400  0.627100  1
  H  H231  1  0.476300  0.902600  0.372900  1
  H  H232  1  0.523700  0.097400  0.372900  1
  H  H233  1  0.437100  0.940000  0.613400  1
  H  H234  1  0.562900  0.060000  0.613400  1
  H  H235  1  0.562900  0.940000  0.386600  1
  H  H236  1  0.437100  0.060000  0.386600  1
  H  H237  1  0.427500  0.732900  0.824400  1
  H  H238  1  0.572500  0.267100  0.824400  1
  H  H239  1  0.572500  0.732900  0.175600  1
  H  H240  1  0.427500  0.267100  0.175600  1
  H  H241  1  0.580100  0.752000  0.779200  1
  H  H242  1  0.419900  0.248000  0.779200  1
  H  H243  1  0.419900  0.752000  0.220800  1
  H  H244  1  0.580100  0.248000  0.220800  1
  H  H245  1  0.610600  0.817200  0.820300  1
  H  H246  1  0.389400  0.182800  0.820300  1
  H  H247  1  0.389400  0.817200  0.179700  1
  H  H248  1  0.610600  0.182800  0.179700  1
  H  H249  1  0.549100  0.812100  0.863900  1
  H  H250  1  0.450900  0.187900  0.863900  1
  H  H251  1  0.450900  0.812100  0.136100  1
  H  H252  1  0.549100  0.187900  0.136100  1
  H  H253  1  0.359300  0.517500  0.802900  1
  H  H254  1  0.640700  0.482500  0.802900  1
  H  H255  1  0.640700  0.517500  0.197100  1
  H  H256  1  0.359300  0.482500  0.197100  1
  H  H257  1  0.436500  0.444300  0.732400  1
  H  H258  1  0.563500  0.555700  0.732400  1
  H  H259  1  0.563500  0.444300  0.267600  1
  H  H260  1  0.436500  0.555700  0.267600  1
  H  H261  1  0.421100  0.368400  0.754700  1
  H  H262  1  0.578900  0.631600  0.754700  1
  H  H263  1  0.578900  0.368400  0.245300  1
  H  H264  1  0.421100  0.631600  0.245300  1
  H  H265  1  0.382000  0.362400  0.802600  1
  H  H266  1  0.618000  0.637600  0.802600  1
  H  H267  1  0.618000  0.362400  0.197400  1
  H  H268  1  0.382000  0.637600  0.197400  1
  H  H269  1  0.267600  0.616400  0.614200  1
  H  H270  1  0.732400  0.383600  0.614200  1
  H  H271  1  0.732400  0.616400  0.385800  1
  H  H272  1  0.267600  0.383600  0.385800  1
  H  H273  1  0.402600  0.515800  0.617000  1
  H  H274  1  0.597400  0.484200  0.617000  1
  H  H275  1  0.597400  0.515800  0.383000  1
  H  H276  1  0.402600  0.484200  0.383000  1
  H  H277  1  0.357200  0.478300  0.573100  1
  H  H278  1  0.642800  0.521700  0.573100  1
  H  H279  1  0.642800  0.478300  0.426900  1
  H  H280  1  0.357200  0.521700  0.426900  1
  H  H281  1  0.276900  0.521100  0.547900  1
  H  H282  1  0.723100  0.478900  0.547900  1
  H  H283  1  0.723100  0.521100  0.452100  1
  H  H284  1  0.276900  0.478900  0.452100  1
  H  H285  1  0.151900  0.962300  0.683200  1
  H  H286  1  0.848100  0.037700  0.683200  1
  H  H287  1  0.848100  0.962300  0.316800  1
  H  H288  1  0.151900  0.037700  0.316800  1
  H  H289  1  0.052700  0.957600  0.696000  1
  H  H290  1  0.947300  0.042400  0.696000  1
  H  H291  1  0.947300  0.957600  0.304000  1
  H  H292  1  0.052700  0.042400  0.304000  1
  H  H293  1  0.941100  0.856000  0.783700  1
  H  H294  1  0.058900  0.144000  0.783700  1
  H  H295  1  0.058900  0.856000  0.216300  1
  H  H296  1  0.941100  0.144000  0.216300  1
  H  H297  1  0.973300  0.830800  0.836300  1
  H  H298  1  0.026700  0.169200  0.836300  1
  H  H299  1  0.026700  0.830800  0.163700  1
  H  H300  1  0.973300  0.169200  0.163700  1
  H  H301  1  0.176100  0.844400  0.904500  1
  H  H302  1  0.823900  0.155600  0.904500  1
  H  H303  1  0.823900  0.844400  0.095500  1
  H  H304  1  0.176100  0.155600  0.095500  1
  H  H305  1  0.268400  0.885500  0.890500  1
  H  H306  1  0.731600  0.114500  0.890500  1
  H  H307  1  0.731600  0.885500  0.109500  1
  H  H308  1  0.268400  0.114500  0.109500  1
  H  H309  1  0.394200  0.919000  0.791700  1
  H  H310  1  0.605800  0.081000  0.791700  1
  H  H311  1  0.605800  0.919000  0.208300  1
  H  H312  1  0.394200  0.081000  0.208300  1
  H  H313  1  0.367300  0.950100  0.742800  1
  H  H314  1  0.632700  0.049900  0.742800  1
  H  H315  1  0.632700  0.950100  0.257200  1
  H  H316  1  0.367300  0.049900  0.257200  1
  H  H317  1  0.002000  0.877200  0.695900  1
  H  H318  1  0.998000  0.122800  0.695900  1
  H  H319  1  0.998000  0.877200  0.304100  1
  H  H320  1  0.002000  0.122800  0.304100  1
  H  H321  1  0.924400  0.950800  0.765200  1
  H  H322  1  0.075600  0.049200  0.765200  1
  H  H323  1  0.075600  0.950800  0.234800  1
  H  H324  1  0.924400  0.049200  0.234800  1
  H  H325  1  0.835900  0.949400  0.745900  1
  H  H326  1  0.164100  0.050600  0.745900  1
  H  H327  1  0.164100  0.949400  0.254100  1
  H  H328  1  0.835900  0.050600  0.254100  1
  H  H329  1  0.828600  0.902700  0.697300  1
  H  H330  1  0.171400  0.097300  0.697300  1
  H  H331  1  0.171400  0.902700  0.302700  1
  H  H332  1  0.828600  0.097300  0.302700  1
  H  H333  1  0.101300  0.769000  0.877600  1
  H  H334  1  0.898700  0.231000  0.877600  1
  H  H335  1  0.898700  0.769000  0.122400  1
  H  H336  1  0.101300  0.231000  0.122400  1
  H  H337  1  0.997900  0.891200  0.885700  1
  H  H338  1  0.002100  0.108800  0.885700  1
  H  H339  1  0.002100  0.891200  0.114300  1
  H  H340  1  0.997900  0.108800  0.114300  1
  H  H341  1  0.948700  0.855700  0.930400  1
  H  H342  1  0.051300  0.144300  0.930400  1
  H  H343  1  0.051300  0.855700  0.069600  1
  H  H344  1  0.948700  0.144300  0.069600  1
  H  H345  1  0.990900  0.769400  0.943100  1
  H  H346  1  0.009100  0.230600  0.943100  1
  H  H347  1  0.009100  0.769400  0.056900  1
  H  H348  1  0.990900  0.230600  0.056900  1
  H  H349  1  0.358100  0.812100  0.852800  1
  H  H350  1  0.641900  0.187900  0.852800  1
  H  H351  1  0.641900  0.812100  0.147200  1
  H  H352  1  0.358100  0.187900  0.147200  1
  H  H353  1  0.392400  0.968800  0.835000  1
  H  H354  1  0.607600  0.031200  0.835000  1
  H  H355  1  0.607600  0.968800  0.165000  1
  H  H356  1  0.392400  0.031200  0.165000  1
  H  H357  1  0.477300  0.963800  0.872200  1
  H  H358  1  0.522700  0.036200  0.872200  1
  H  H359  1  0.522700  0.963800  0.127800  1
  H  H360  1  0.477300  0.036200  0.127800  1
  H  H361  1  0.484300  0.882400  0.896500  1
  H  H362  1  0.515700  0.117600  0.896500  1
  H  H363  1  0.515700  0.882400  0.103500  1
  H  H364  1  0.484300  0.117600  0.103500  1
  H  H365  1  0.252800  0.913600  0.680700  1
  H  H366  1  0.747200  0.086400  0.680700  1
  H  H367  1  0.747200  0.913600  0.319300  1
  H  H368  1  0.252800  0.086400  0.319300  1
  H  H369  1  0.288000  0.046300  0.726200  1
  H  H370  1  0.712000  0.953700  0.726200  1
  H  H371  1  0.712000  0.046300  0.273800  1
  H  H372  1  0.288000  0.953700  0.273800  1
  H  H373  1  0.355300  0.077300  0.685400  1
  H  H374  1  0.644700  0.922700  0.685400  1
  H  H375  1  0.644700  0.077300  0.314600  1
  H  H376  1  0.355300  0.922700  0.314600  1
  H  H377  1  0.358800  0.025600  0.638500  1
  H  H378  1  0.641200  0.974400  0.638500  1
  H  H379  1  0.641200  0.025600  0.361500  1
  H  H380  1  0.358800  0.974400  0.361500  1
  H  H381  1  0.119300  0.643200  0.505800  1
  H  H382  1  0.880700  0.356800  0.505800  1
  H  H383  1  0.880700  0.643200  0.494200  1
  H  H384  1  0.119300  0.356800  0.494200  1
  H  H385  1  0.059000  0.718700  0.543600  1
  H  H386  1  0.941000  0.281300  0.543600  1
  H  H387  1  0.941000  0.718700  0.456400  1
  H  H388  1  0.059000  0.281300  0.456400  1
  H  H389  1  0.026200  0.684400  0.518300  1
  H  H390  1  0.973800  0.315600  0.518300  1
  H  H391  1  0.973800  0.684400  0.481700  1
  H  H392  1  0.026200  0.315600  0.481700  1
  H  H393  1  0.080100  0.726600  0.480100  1
  H  H394  1  0.919900  0.273400  0.480100  1
  H  H395  1  0.919900  0.726600  0.519900  1
  H  H396  1  0.080100  0.273400  0.519900  1
  H  H397  1  0.050000  0.770900  0.500000  1
  H  H398  1  0.950000  0.229100  0.500000  1
  H  H399  1  0.950000  0.770900  0.500000  1
  H  H400  1  0.050000  0.229100  0.500000  1
  H  H401  1  0.142400  0.794600  0.520000  1
  H  H402  1  0.857600  0.205400  0.520000  1
  H  H403  1  0.857600  0.794600  0.480000  1
  H  H404  1  0.142400  0.205400  0.480000  1
  H  H405  1  0.152400  0.789800  0.484500  1
  H  H406  1  0.847600  0.210200  0.484500  1
  H  H407  1  0.847600  0.789800  0.515500  1
  H  H408  1  0.152400  0.210200  0.515500  1
  H  H409  1  0.189500  0.703900  0.489700  1
  H  H410  1  0.810500  0.296100  0.489700  1
  H  H411  1  0.810500  0.703900  0.510300  1
  H  H412  1  0.189500  0.296100  0.510300  1
  H  H413  1  0.228500  0.740800  0.510800  1
  H  H414  1  0.771500  0.259200  0.510800  1
  H  H415  1  0.771500  0.740800  0.489200  1
  H  H416  1  0.228500  0.259200  0.489200  1
  H  H417  1  0.170600  0.710300  0.552600  1
  H  H418  1  0.829400  0.289700  0.552600  1
  H  H419  1  0.829400  0.710300  0.447400  1
  H  H420  1  0.170600  0.289700  0.447400  1
  H  H421  1  0.278600  0.941700  0.549800  1
  H  H422  1  0.721400  0.058300  0.549800  1
  H  H423  1  0.721400  0.941700  0.450200  1
  H  H424  1  0.278600  0.058300  0.450200  1
  H  H425  1  0.285800  0.877000  0.516500  1
  H  H426  1  0.714200  0.123000  0.516500  1
  H  H427  1  0.714200  0.877000  0.483500  1
  H  H428  1  0.285800  0.123000  0.483500  1
  H  H429  1  0.231100  0.845900  0.531800  1
  H  H430  1  0.768900  0.154100  0.531800  1
  H  H431  1  0.768900  0.845900  0.468200  1
  H  H432  1  0.231100  0.154100  0.468200  1
  H  H433  1  0.192400  0.890200  0.493100  1
  H  H434  1  0.807600  0.109800  0.493100  1
  H  H435  1  0.807600  0.890200  0.506900  1
  H  H436  1  0.192400  0.109800  0.506900  1
  H  H437  1  0.225400  0.942800  0.503200  1
  H  H438  1  0.774600  0.057200  0.503200  1
  H  H439  1  0.774600  0.942800  0.496800  1
  H  H440  1  0.225400  0.057200  0.496800  1
  H  H441  1  0.129500  0.895200  0.535400  1
  H  H442  1  0.870500  0.104800  0.535400  1
  H  H443  1  0.870500  0.895200  0.464600  1
  H  H444  1  0.129500  0.104800  0.464600  1
  H  H445  1  0.122000  0.945500  0.514500  1
  H  H446  1  0.878000  0.054500  0.514500  1
  H  H447  1  0.878000  0.945500  0.485500  1
  H  H448  1  0.122000  0.054500  0.485500  1
  H  H449  1  0.131700  0.972400  0.565900  1
  H  H450  1  0.868300  0.027600  0.565900  1
  H  H451  1  0.868300  0.972400  0.434100  1
  H  H452  1  0.131700  0.027600  0.434100  1
  H  H453  1  0.188100  0.994300  0.547100  1
  H  H454  1  0.811900  0.005700  0.547100  1
  H  H455  1  0.811900  0.994300  0.452900  1
  H  H456  1  0.188100  0.005700  0.452900  1
  H  H457  1  0.189700  0.901800  0.584900  1
  H  H458  1  0.810300  0.098200  0.584900  1
  H  H459  1  0.810300  0.901800  0.415100  1
  H  H460  1  0.189700  0.098200  0.415100  1
  H  H461  1  0.877000  0.911000  0.592300  1
  H  H462  1  0.123000  0.089000  0.592300  1
  H  H463  1  0.123000  0.911000  0.407700  1
  H  H464  1  0.877000  0.089000  0.407700  1
  H  H465  1  0.996800  0.934400  0.584100  1
  H  H466  1  0.003200  0.065600  0.584100  1
  H  H467  1  0.003200  0.934400  0.415900  1
  H  H468  1  0.996800  0.065600  0.415900  1
  H  H469  1  0.943500  0.976400  0.584900  1
  H  H470  1  0.056500  0.023600  0.584900  1
  H  H471  1  0.056500  0.976400  0.415100  1
  H  H472  1  0.943500  0.023600  0.415100  1
  H  H473  1  0.898100  0.933800  0.539200  1
  H  H474  1  0.101900  0.066200  0.539200  1
  H  H475  1  0.101900  0.933800  0.460800  1
  H  H476  1  0.898100  0.066200  0.460800  1
  H  H477  1  0.965200  0.955000  0.531900  1
  H  H478  1  0.034800  0.045000  0.531900  1
  H  H479  1  0.034800  0.955000  0.468100  1
  H  H480  1  0.965200  0.045000  0.468100  1
  H  H481  1  0.006100  0.870900  0.548300  1
  H  H482  1  0.993900  0.129100  0.548300  1
  H  H483  1  0.993900  0.870900  0.451700  1
  H  H484  1  0.006100  0.129100  0.451700  1
  H  H485  1  0.963700  0.863500  0.519600  1
  H  H486  1  0.036300  0.136500  0.519600  1
  H  H487  1  0.036300  0.863500  0.480400  1
  H  H488  1  0.963700  0.136500  0.480400  1
  H  H489  1  0.930500  0.797600  0.554900  1
  H  H490  1  0.069500  0.202400  0.554900  1
  H  H491  1  0.069500  0.797600  0.445100  1
  H  H492  1  0.930500  0.202400  0.445100  1
  H  H493  1  0.878400  0.841800  0.556300  1
  H  H494  1  0.121600  0.158200  0.556300  1
  H  H495  1  0.121600  0.841800  0.443700  1
  H  H496  1  0.878400  0.158200  0.443700  1
  H  H497  1  0.987300  0.845600  0.596300  1
  H  H498  1  0.012700  0.154400  0.596300  1
  H  H499  1  0.012700  0.845600  0.403700  1
  H  H500  1  0.987300  0.154400  0.403700  1
  H  H501  1  0.302500  0.499900  0.897800  1
  H  H502  1  0.697500  0.500100  0.897800  1
  H  H503  1  0.697500  0.499900  0.102200  1
  H  H504  1  0.302500  0.500100  0.102200  1
  H  H505  1  0.258000  0.454900  0.943400  1
  H  H506  1  0.742000  0.545100  0.943400  1
  H  H507  1  0.742000  0.454900  0.056600  1
  H  H508  1  0.258000  0.545100  0.056600  1
  H  H509  1  0.306300  0.409100  0.939900  1
  H  H510  1  0.693700  0.590900  0.939900  1
  H  H511  1  0.693700  0.409100  0.060100  1
  H  H512  1  0.306300  0.590900  0.060100  1
  H  H513  1  0.331000  0.468600  0.979900  1
  H  H514  1  0.669000  0.531400  0.979900  1
  H  H515  1  0.669000  0.468600  0.020100  1
  H  H516  1  0.331000  0.531400  0.020100  1
  H  H517  1  0.342700  0.513100  0.955000  1
  H  H518  1  0.657300  0.486900  0.955000  1
  H  H519  1  0.657300  0.513100  0.045000  1
  H  H520  1  0.342700  0.486900  0.045000  1
  H  H521  1  0.434900  0.457100  0.965500  1
  H  H522  1  0.565100  0.542900  0.965500  1
  H  H523  1  0.565100  0.457100  0.034500  1
  H  H524  1  0.434900  0.542900  0.034500  1
  H  H525  1  0.399100  0.410700  0.948900  1
  H  H526  1  0.600900  0.589300  0.948900  1
  H  H527  1  0.600900  0.410700  0.051100  1
  H  H528  1  0.399100  0.589300  0.051100  1
  H  H529  1  0.411800  0.511300  0.919200  1
  H  H530  1  0.588200  0.488700  0.919200  1
  H  H531  1  0.588200  0.511300  0.080800  1
  H  H532  1  0.411800  0.488700  0.080800  1
  H  H533  1  0.461400  0.465900  0.913600  1
  H  H534  1  0.538600  0.534100  0.913600  1
  H  H535  1  0.538600  0.465900  0.086400  1
  H  H536  1  0.461400  0.534100  0.086400  1
  H  H537  1  0.380500  0.408700  0.909000  1
  H  H538  1  0.619500  0.591300  0.909000  1
  H  H539  1  0.619500  0.408700  0.091000  1
  H  H540  1  0.380500  0.591300  0.091000  1
  H  H541  1  0.403200  0.669100  0.917900  1
  H  H542  1  0.596800  0.330900  0.917900  1
  H  H543  1  0.596800  0.669100  0.082100  1
  H  H544  1  0.403200  0.330900  0.082100  1
  H  H545  1  0.505200  0.648300  0.955300  1
  H  H546  1  0.494800  0.351700  0.955300  1
  H  H547  1  0.494800  0.648300  0.044700  1
  H  H548  1  0.505200  0.351700  0.044700  1
  H  H549  1  0.471900  0.606500  0.934400  1
  H  H550  1  0.528100  0.393500  0.934400  1
  H  H551  1  0.528100  0.606500  0.065600  1
  H  H552  1  0.471900  0.393500  0.065600  1
  H  H553  1  0.384500  0.609900  0.963600  1
  H  H554  1  0.615500  0.390100  0.963600  1
  H  H555  1  0.615500  0.609900  0.036400  1
  H  H556  1  0.384500  0.390100  0.036400  1
  H  H557  1  0.440100  0.599100  0.985500  1
  H  H558  1  0.559900  0.400900  0.985500  1
  H  H559  1  0.559900  0.599100  0.014500  1
  H  H560  1  0.440100  0.400900  0.014500  1
  H  H561  1  0.372200  0.661500  0.005100  1
  H  H562  1  0.627800  0.338500  0.005100  1
  H  H563  1  0.627800  0.661500  0.994900  1
  H  H564  1  0.372200  0.338500  0.994900  1
  H  H565  1  0.439400  0.683700  0.002300  1
  H  H566  1  0.560600  0.316300  0.002300  1
  H  H567  1  0.560600  0.683700  0.997700  1
  H  H568  1  0.439400  0.316300  0.997700  1
  H  H569  1  0.376700  0.747700  0.985200  1
  H  H570  1  0.623300  0.252300  0.985200  1
  H  H571  1  0.623300  0.747700  0.014800  1
  H  H572  1  0.376700  0.252300  0.014800  1
  H  H573  1  0.340500  0.707800  0.964400  1
  H  H574  1  0.659500  0.292200  0.964400  1
  H  H575  1  0.659500  0.707800  0.035600  1
  H  H576  1  0.340500  0.292200  0.035600  1
  H  H577  1  0.463000  0.738900  0.956300  1
  H  H578  1  0.537000  0.261100  0.956300  1
  H  H579  1  0.537000  0.738900  0.043700  1
  H  H580  1  0.463000  0.261100  0.043700  1
  H  H581  1  0.193400  0.658000  0.940000  1
  H  H582  1  0.806600  0.342000  0.940000  1
  H  H583  1  0.806600  0.658000  0.060000  1
  H  H584  1  0.193400  0.342000  0.060000  1
  H  H585  1  0.234300  0.701700  0.983000  1
  H  H586  1  0.765700  0.298300  0.983000  1
  H  H587  1  0.765700  0.701700  0.017000  1
  H  H588  1  0.234300  0.298300  0.017000  1
  H  H589  1  0.179700  0.680800  0.003000  1
  H  H590  1  0.820300  0.319200  0.003000  1
  H  H591  1  0.820300  0.680800  0.997000  1
  H  H592  1  0.179700  0.319200  0.997000  1
  H  H593  1  0.273000  0.617200  0.977700  1
  H  H594  1  0.727000  0.382800  0.977700  1
  H  H595  1  0.727000  0.617200  0.022300  1
  H  H596  1  0.273000  0.382800  0.022300  1
  H  H597  1  0.264300  0.628700  0.012500  1
  H  H598  1  0.735700  0.371300  0.012500  1
  H  H599  1  0.735700  0.628700  0.987500  1
  H  H600  1  0.264300  0.371300  0.987500  1
  H  H601  1  0.177300  0.582800  0.013600  1
  H  H602  1  0.822700  0.417200  0.013600  1
  H  H603  1  0.822700  0.582800  0.986400  1
  H  H604  1  0.177300  0.417200  0.986400  1
  H  H605  1  0.229100  0.547200  0.999300  1
  H  H606  1  0.770900  0.452800  0.999300  1
  H  H607  1  0.770900  0.547200  0.000700  1
  H  H608  1  0.229100  0.452800  0.000700  1
  H  H609  1  0.188400  0.563900  0.948900  1
  H  H610  1  0.811600  0.436100  0.948900  1
  H  H611  1  0.811600  0.563900  0.051100  1
  H  H612  1  0.188400  0.436100  0.051100  1
  H  H613  1  0.135500  0.539800  0.969400  1
  H  H614  1  0.864500  0.460200  0.969400  1
  H  H615  1  0.864500  0.539800  0.030600  1
  H  H616  1  0.135500  0.460200  0.030600  1
  H  H617  1  0.103200  0.625000  0.982000  1
  H  H618  1  0.896800  0.375000  0.982000  1
  H  H619  1  0.896800  0.625000  0.018000  1
  H  H620  1  0.103200  0.375000  0.018000  1
  H  H621  1  0.081400  0.599400  0.548600  1
  H  H622  1  0.918600  0.400600  0.548600  1
  H  H623  1  0.918600  0.599400  0.451400  1
  H  H624  1  0.081400  0.400600  0.451400  1
  H  H625  1  0.092400  0.644300  0.568900  1
  H  H626  1  0.907600  0.355700  0.568900  1
  H  H627  1  0.907600  0.644300  0.431100  1
  H  H628  1  0.092400  0.355700  0.431100  1
  H  H629  1  0.255300  0.659000  0.547300  1
  H  H630  1  0.744700  0.341000  0.547300  1
  H  H631  1  0.744700  0.659000  0.452700  1
  H  H632  1  0.255300  0.341000  0.452700  1
  H  H633  1  0.230200  0.630700  0.520900  1
  H  H634  1  0.769800  0.369300  0.520900  1
  H  H635  1  0.769800  0.630700  0.479100  1
  H  H636  1  0.230200  0.369300  0.479100  1
  H  H637  1  0.346700  0.898500  0.565500  1
  H  H638  1  0.653300  0.101500  0.565500  1
  H  H639  1  0.653300  0.898500  0.434500  1
  H  H640  1  0.346700  0.101500  0.434500  1
  H  H641  1  0.308700  0.855800  0.578200  1
  H  H642  1  0.691300  0.144200  0.578200  1
  H  H643  1  0.691300  0.855800  0.421800  1
  H  H644  1  0.308700  0.144200  0.421800  1
  H  H645  1  0.206800  0.971100  0.611900  1
  H  H646  1  0.793200  0.028900  0.611900  1
  H  H647  1  0.793200  0.971100  0.388100  1
  H  H648  1  0.206800  0.028900  0.388100  1
  H  H649  1  0.245900  0.996900  0.589000  1
  H  H650  1  0.754100  0.003100  0.589000  1
  H  H651  1  0.754100  0.996900  0.411000  1
  H  H652  1  0.245900  0.003100  0.411000  1
  H  H653  1  0.906700  0.944700  0.636700  1
  H  H654  1  0.093300  0.055300  0.636700  1
  H  H655  1  0.093300  0.944700  0.363300  1
  H  H656  1  0.906700  0.055300  0.363300  1
  H  H657  1  0.969400  0.924300  0.634400  1
  H  H658  1  0.030600  0.075700  0.634400  1
  H  H659  1  0.030600  0.924300  0.365600  1
  H  H660  1  0.969400  0.075700  0.365600  1
  H  H661  1  0.919000  0.783300  0.617000  1
  H  H662  1  0.081000  0.216700  0.617000  1
  H  H663  1  0.081000  0.783300  0.383000  1
  H  H664  1  0.919000  0.216700  0.383000  1
  H  H665  1  0.864200  0.813600  0.608000  1
  H  H666  1  0.135800  0.186400  0.608000  1
  H  H667  1  0.135800  0.813600  0.392000  1
  H  H668  1  0.864200  0.186400  0.392000  1
  H  H669  1  0.236700  0.441700  0.880400  1
  H  H670  1  0.763300  0.558300  0.880400  1
  H  H671  1  0.763300  0.441700  0.119600  1
  H  H672  1  0.236700  0.558300  0.119600  1
  H  H673  1  0.274800  0.396200  0.889200  1
  H  H674  1  0.725200  0.603800  0.889200  1
  H  H675  1  0.725200  0.396200  0.110800  1
  H  H676  1  0.274800  0.603800  0.110800  1
  H  H677  1  0.420900  0.426900  0.862700  1
  H  H678  1  0.579100  0.573100  0.862700  1
  H  H679  1  0.579100  0.426900  0.137300  1
  H  H680  1  0.420900  0.573100  0.137300  1
  H  H681  1  0.403300  0.482800  0.863000  1
  H  H682  1  0.596700  0.517200  0.863000  1
  H  H683  1  0.596700  0.482800  0.137000  1
  H  H684  1  0.403300  0.517200  0.137000  1
  H  H685  1  0.480800  0.680200  0.887600  1
  H  H686  1  0.519200  0.319800  0.887600  1
  H  H687  1  0.519200  0.680200  0.112400  1
  H  H688  1  0.480800  0.319800  0.112400  1
  H  H689  1  0.519000  0.706400  0.910300  1
  H  H690  1  0.481000  0.293600  0.910300  1
  H  H691  1  0.481000  0.706400  0.089700  1
  H  H692  1  0.519000  0.293600  0.089700  1
  H  H693  1  0.419800  0.802200  0.935500  1
  H  H694  1  0.580200  0.197800  0.935500  1
  H  H695  1  0.580200  0.802200  0.064500  1
  H  H696  1  0.419800  0.197800  0.064500  1
  H  H697  1  0.370500  0.771200  0.921900  1
  H  H698  1  0.629500  0.228800  0.921900  1
  H  H699  1  0.629500  0.771200  0.078100  1
  H  H700  1  0.370500  0.228800  0.078100  1
  H  H701  1  0.158900  0.734700  0.942300  1
  H  H702  1  0.841100  0.265300  0.942300  1
  H  H703  1  0.841100  0.734700  0.057700  1
  H  H704  1  0.158900  0.265300  0.057700  1
  H  H705  1  0.120100  0.724700  0.969000  1
  H  H706  1  0.879900  0.275300  0.969000  1
  H  H707  1  0.879900  0.724700  0.031000  1
  H  H708  1  0.120100  0.275300  0.031000  1
  H  H709  1  0.053600  0.598800  0.940300  1
  H  H710  1  0.946400  0.401200  0.940300  1
  H  H711  1  0.946400  0.598800  0.059700  1
  H  H712  1  0.053600  0.401200  0.059700  1
  H  H713  1  0.108100  0.601700  0.920800  1
  H  H714  1  0.891900  0.398300  0.920800  1
  H  H715  1  0.891900  0.601700  0.079200  1
  H  H716  1  0.108100  0.398300  0.079200  1
  Pd  Pd717  1  0.318490  0.433310  0.842930  1
  Pd  Pd718  1  0.681510  0.566690  0.842930  1
  Pd  Pd719  1  0.681510  0.433310  0.157070  1
  Pd  Pd720  1  0.318490  0.566690  0.157070  1
  Pd  Pd721  1  0.309290  0.927830  0.614340  1
  Pd  Pd722  1  0.690710  0.072170  0.614340  1
  Pd  Pd723  1  0.690710  0.927830  0.385660  1
  Pd  Pd724  1  0.309290  0.072170  0.385660  1
  Pd  Pd725  1  0.454540  0.770850  0.888110  1
  Pd  Pd726  1  0.545460  0.229150  0.888110  1
  Pd  Pd727  1  0.545460  0.770850  0.111890  1
  Pd  Pd728  1  0.454540  0.229150  0.111890  1
  Pd  Pd729  1  0.183610  0.594940  0.565460  1
  Pd  Pd730  1  0.816390  0.405060  0.565460  1
  Pd  Pd731  1  0.816390  0.594940  0.434540  1
  Pd  Pd732  1  0.183610  0.405060  0.434540  1
  Pd  Pd733  1  0.906140  0.855410  0.654110  1
  Pd  Pd734  1  0.093860  0.144590  0.654110  1
  Pd  Pd735  1  0.093860  0.855410  0.345890  1
  Pd  Pd736  1  0.906140  0.144590  0.345890  1
  Pd  Pd737  1  0.065950  0.690490  0.924620  1
  Pd  Pd738  1  0.934050  0.309510  0.924620  1
  Pd  Pd739  1  0.934050  0.690490  0.075380  1
  Pd  Pd740  1  0.065950  0.309510  0.075380  1
  C  C741  1  0.205000  0.608000  0.778600  1
  C  C742  1  0.795000  0.392000  0.778600  1
  C  C743  1  0.795000  0.608000  0.221400  1
  C  C744  1  0.205000  0.392000  0.221400  1
  C  C745  1  0.162500  0.648000  0.763700  1
  C  C746  1  0.837500  0.352000  0.763700  1
  C  C747  1  0.837500  0.648000  0.236300  1
  C  C748  1  0.162500  0.352000  0.236300  1
  C  C749  1  0.124000  0.725900  0.780200  1
  C  C750  1  0.876000  0.274100  0.780200  1
  C  C751  1  0.876000  0.725900  0.219800  1
  C  C752  1  0.124000  0.274100  0.219800  1
  C  C753  1  0.112000  0.758000  0.808700  1
  C  C754  1  0.888000  0.242000  0.808700  1
  C  C755  1  0.888000  0.758000  0.191300  1
  C  C756  1  0.112000  0.242000  0.191300  1
  C  C757  1  0.144000  0.757200  0.753300  1
  C  C758  1  0.856000  0.242800  0.753300  1
  C  C759  1  0.856000  0.757200  0.246700  1
  C  C760  1  0.144000  0.242800  0.246700  1
  C  C761  1  0.229800  0.792000  0.725800  1
  C  C762  1  0.770200  0.208000  0.725800  1
  C  C763  1  0.770200  0.792000  0.274200  1
  C  C764  1  0.229800  0.208000  0.274200  1
  C  C765  1  0.297200  0.807900  0.727600  1
  C  C766  1  0.702800  0.192100  0.727600  1
  C  C767  1  0.702800  0.807900  0.272400  1
  C  C768  1  0.297200  0.192100  0.272400  1
  C  C769  1  0.232600  0.760900  0.696800  1
  C  C770  1  0.767400  0.239100  0.696800  1
  C  C771  1  0.767400  0.760900  0.303200  1
  C  C772  1  0.232600  0.239100  0.303200  1
  C  C773  1  0.221000  0.678000  0.672700  1
  C  C774  1  0.779000  0.322000  0.672700  1
  C  C775  1  0.779000  0.678000  0.327300  1
  C  C776  1  0.221000  0.322000  0.327300  1
  C  C777  1  0.225000  0.626200  0.683400  1
  C  C778  1  0.775000  0.373800  0.683400  1
  C  C779  1  0.775000  0.626200  0.316600  1
  C  C780  1  0.225000  0.373800  0.316600  1
  C  C781  1  0.172500  0.689900  0.649400  1
  C  C782  1  0.827500  0.310100  0.649400  1
  C  C783  1  0.827500  0.689900  0.350600  1
  C  C784  1  0.172500  0.310100  0.350600  1
  C  C785  1  0.978400  0.642700  0.696000  1
  C  C786  1  0.021600  0.357300  0.696000  1
  C  C787  1  0.021600  0.642700  0.304000  1
  C  C788  1  0.978400  0.357300  0.304000  1
  C  C789  1  0.976200  0.646300  0.663100  1
  C  C790  1  0.023800  0.353700  0.663100  1
  C  C791  1  0.023800  0.646300  0.336900  1
  C  C792  1  0.976200  0.353700  0.336900  1
  C  C793  1  0.012800  0.610000  0.653700  1
  C  C794  1  0.987200  0.390000  0.653700  1
  C  C795  1  0.987200  0.610000  0.346300  1
  C  C796  1  0.012800  0.390000  0.346300  1
  C  C797  1  0.046400  0.587900  0.679400  1
  C  C798  1  0.953600  0.412100  0.679400  1
  C  C799  1  0.953600  0.587900  0.320600  1
  C  C800  1  0.046400  0.412100  0.320600  1
  C  C801  1  0.080000  0.549100  0.672700  1
  C  C802  1  0.920000  0.450900  0.672700  1
  C  C803  1  0.920000  0.549100  0.327300  1
  C  C804  1  0.080000  0.450900  0.327300  1
  C  C805  1  0.111500  0.517300  0.696800  1
  C  C806  1  0.888500  0.482700  0.696800  1
  C  C807  1  0.888500  0.517300  0.303200  1
  C  C808  1  0.111500  0.482700  0.303200  1
  C  C809  1  0.156700  0.479800  0.693900  1
  C  C810  1  0.843300  0.520200  0.693900  1
  C  C811  1  0.843300  0.479800  0.306100  1
  C  C812  1  0.156700  0.520200  0.306100  1
  C  C813  1  0.170900  0.462600  0.724100  1
  C  C814  1  0.829100  0.537400  0.724100  1
  C  C815  1  0.829100  0.462600  0.275900  1
  C  C816  1  0.170900  0.537400  0.275900  1
  C  C817  1  0.126900  0.489700  0.743700  1
  C  C818  1  0.873100  0.510300  0.743700  1
  C  C819  1  0.873100  0.489700  0.256300  1
  C  C820  1  0.126900  0.510300  0.256300  1
  C  C821  1  0.129300  0.487200  0.776800  1
  C  C822  1  0.870700  0.512800  0.776800  1
  C  C823  1  0.870700  0.487200  0.223200  1
  C  C824  1  0.129300  0.512800  0.223200  1
  C  C825  1  0.097500  0.514900  0.794300  1
  C  C826  1  0.902500  0.485100  0.794300  1
  C  C827  1  0.902500  0.514900  0.205700  1
  C  C828  1  0.097500  0.485100  0.205700  1
  C  C829  1  0.089900  0.503100  0.824200  1
  C  C830  1  0.910100  0.496900  0.824200  1
  C  C831  1  0.910100  0.503100  0.175800  1
  C  C832  1  0.089900  0.496900  0.175800  1
  C  C833  1  0.055100  0.543600  0.832900  1
  C  C834  1  0.944900  0.456400  0.832900  1
  C  C835  1  0.944900  0.543600  0.167100  1
  C  C836  1  0.055100  0.456400  0.167100  1
  C  C837  1  0.041100  0.578500  0.812500  1
  C  C838  1  0.958900  0.421500  0.812500  1
  C  C839  1  0.958900  0.578500  0.187500  1
  C  C840  1  0.041100  0.421500  0.187500  1
  C  C841  1  0.007100  0.618500  0.816500  1
  C  C842  1  0.992900  0.381500  0.816500  1
  C  C843  1  0.992900  0.618500  0.183500  1
  C  C844  1  0.007100  0.381500  0.183500  1
  C  C845  1  0.986500  0.653200  0.791600  1
  C  C846  1  0.013500  0.346800  0.791600  1
  C  C847  1  0.013500  0.653200  0.208400  1
  C  C848  1  0.986500  0.346800  0.208400  1
  C  C849  1  0.953400  0.701000  0.796400  1
  C  C850  1  0.046600  0.299000  0.796400  1
  C  C851  1  0.046600  0.701000  0.203600  1
  C  C852  1  0.953400  0.299000  0.203600  1
  C  C853  1  0.938900  0.714400  0.766700  1
  C  C854  1  0.061100  0.285600  0.766700  1
  C  C855  1  0.061100  0.714400  0.233300  1
  C  C856  1  0.938900  0.285600  0.233300  1
  C  C857  1  0.963300  0.679800  0.744100  1
  C  C858  1  0.036700  0.320200  0.744100  1
  C  C859  1  0.036700  0.679800  0.255900  1
  C  C860  1  0.963300  0.320200  0.255900  1
  C  C861  1  0.951100  0.675800  0.714200  1
  C  C862  1  0.048900  0.324200  0.714200  1
  C  C863  1  0.048900  0.675800  0.285800  1
  C  C864  1  0.951100  0.324200  0.285800  1
  C  C865  1  0.126400  0.561400  0.617800  1
  C  C866  1  0.873600  0.438600  0.617800  1
  C  C867  1  0.873600  0.561400  0.382200  1
  C  C868  1  0.126400  0.438600  0.382200  1
  C  C869  1  0.102300  0.529600  0.643300  1
  C  C870  1  0.897700  0.470400  0.643300  1
  C  C871  1  0.897700  0.529600  0.356700  1
  C  C872  1  0.102300  0.470400  0.356700  1
  C  C873  1  0.095000  0.478100  0.630900  1
  C  C874  1  0.905000  0.521900  0.630900  1
  C  C875  1  0.905000  0.478100  0.369100  1
  C  C876  1  0.095000  0.521900  0.369100  1
  C  C877  1  0.105100  0.458200  0.602800  1
  C  C878  1  0.894900  0.541800  0.602800  1
  C  C879  1  0.894900  0.458200  0.397200  1
  C  C880  1  0.105100  0.541800  0.397200  1
  C  C881  1  0.131300  0.496000  0.584900  1
  C  C882  1  0.868700  0.504000  0.584900  1
  C  C883  1  0.868700  0.496000  0.415100  1
  C  C884  1  0.131300  0.504000  0.415100  1
  C  C885  1  0.212500  0.454700  0.806400  1
  C  C886  1  0.787500  0.545300  0.806400  1
  C  C887  1  0.787500  0.454700  0.193600  1
  C  C888  1  0.212500  0.545300  0.193600  1
  C  C889  1  0.167400  0.443200  0.786800  1
  C  C890  1  0.832600  0.556800  0.786800  1
  C  C891  1  0.832600  0.443200  0.213200  1
  C  C892  1  0.167400  0.556800  0.213200  1
  C  C893  1  0.161700  0.390900  0.777900  1
  C  C894  1  0.838300  0.609100  0.777900  1
  C  C895  1  0.838300  0.390900  0.222100  1
  C  C896  1  0.161700  0.609100  0.222100  1
  C  C897  1  0.194600  0.349900  0.787900  1
  C  C898  1  0.805400  0.650100  0.787900  1
  C  C899  1  0.805400  0.349900  0.212100  1
  C  C900  1  0.194600  0.650100  0.212100  1
  C  C901  1  0.233000  0.362500  0.808600  1
  C  C902  1  0.767000  0.637500  0.808600  1
  C  C903  1  0.767000  0.362500  0.191400  1
  C  C904  1  0.233000  0.637500  0.191400  1
  C  C905  1  0.029800  0.649700  0.865800  1
  C  C906  1  0.970200  0.350300  0.865800  1
  C  C907  1  0.970200  0.649700  0.134200  1
  C  C908  1  0.029800  0.350300  0.134200  1
  C  C909  1  0.983000  0.640200  0.845800  1
  C  C910  1  0.017000  0.359800  0.845800  1
  C  C911  1  0.017000  0.640200  0.154200  1
  C  C912  1  0.983000  0.359800  0.154200  1
  C  C913  1  0.926000  0.637400  0.850100  1
  C  C914  1  0.074000  0.362600  0.850100  1
  C  C915  1  0.074000  0.637400  0.149900  1
  C  C916  1  0.926000  0.362600  0.149900  1
  C  C917  1  0.901200  0.652700  0.879400  1
  C  C918  1  0.098800  0.347300  0.879400  1
  C  C919  1  0.098800  0.652700  0.120600  1
  C  C920  1  0.901200  0.347300  0.120600  1
  C  C921  1  0.941700  0.669200  0.898100  1
  C  C922  1  0.058300  0.330800  0.898100  1
  C  C923  1  0.058300  0.669200  0.101900  1
  C  C924  1  0.941700  0.330800  0.101900  1
  C  C925  1  0.923300  0.752200  0.686500  1
  C  C926  1  0.076700  0.247800  0.686500  1
  C  C927  1  0.076700  0.752200  0.313500  1
  C  C928  1  0.923300  0.247800  0.313500  1
  C  C929  1  0.905000  0.708900  0.701700  1
  C  C930  1  0.095000  0.291100  0.701700  1
  C  C931  1  0.095000  0.708900  0.298300  1
  C  C932  1  0.905000  0.291100  0.298300  1
  C  C933  1  0.848000  0.695000  0.704800  1
  C  C934  1  0.152000  0.305000  0.704800  1
  C  C935  1  0.152000  0.695000  0.295200  1
  C  C936  1  0.848000  0.305000  0.295200  1
  C  C937  1  0.816000  0.735000  0.692500  1
  C  C938  1  0.184000  0.265000  0.692500  1
  C  C939  1  0.184000  0.735000  0.307500  1
  C  C940  1  0.816000  0.265000  0.307500  1
  C  C941  1  0.834000  0.784000  0.680500  1
  C  C942  1  0.166000  0.216000  0.680500  1
  C  C943  1  0.166000  0.784000  0.319500  1
  C  C944  1  0.834000  0.216000  0.319500  1
  C  C945  1  0.377500  0.648600  0.644100  1
  C  C946  1  0.622500  0.351400  0.644100  1
  C  C947  1  0.622500  0.648600  0.355900  1
  C  C948  1  0.377500  0.351400  0.355900  1
  C  C949  1  0.383600  0.688300  0.616500  1
  C  C950  1  0.616400  0.311700  0.616500  1
  C  C951  1  0.616400  0.688300  0.383500  1
  C  C952  1  0.383600  0.311700  0.383500  1
  C  C953  1  0.391800  0.738300  0.623800  1
  C  C954  1  0.608200  0.261700  0.623800  1
  C  C955  1  0.608200  0.738300  0.376200  1
  C  C956  1  0.391800  0.261700  0.376200  1
  C  C957  1  0.410100  0.728200  0.654500  1
  C  C958  1  0.589900  0.271800  0.654500  1
  C  C959  1  0.589900  0.728200  0.345500  1
  C  C960  1  0.410100  0.271800  0.345500  1
  C  C961  1  0.429200  0.777500  0.669700  1
  C  C962  1  0.570800  0.222500  0.669700  1
  C  C963  1  0.570800  0.777500  0.330300  1
  C  C964  1  0.429200  0.222500  0.330300  1
  C  C965  1  0.443600  0.773300  0.702300  1
  C  C966  1  0.556400  0.226700  0.702300  1
  C  C967  1  0.556400  0.773300  0.297700  1
  C  C968  1  0.443600  0.226700  0.297700  1
  C  C969  1  0.457700  0.829500  0.715300  1
  C  C970  1  0.542300  0.170500  0.715300  1
  C  C971  1  0.542300  0.829500  0.284700  1
  C  C972  1  0.457700  0.170500  0.284700  1
  C  C973  1  0.470000  0.806800  0.746500  1
  C  C974  1  0.530000  0.193200  0.746500  1
  C  C975  1  0.530000  0.806800  0.253500  1
  C  C976  1  0.470000  0.193200  0.253500  1
  C  C977  1  0.461000  0.750200  0.748500  1
  C  C978  1  0.539000  0.249800  0.748500  1
  C  C979  1  0.539000  0.750200  0.251500  1
  C  C980  1  0.461000  0.249800  0.251500  1
  C  C981  1  0.473500  0.713400  0.771900  1
  C  C982  1  0.526500  0.286600  0.771900  1
  C  C983  1  0.526500  0.713400  0.228100  1
  C  C984  1  0.473500  0.286600  0.228100  1
  C  C985  1  0.457000  0.664300  0.773700  1
  C  C986  1  0.543000  0.335700  0.773700  1
  C  C987  1  0.543000  0.664300  0.226300  1
  C  C988  1  0.457000  0.335700  0.226300  1
  C  C989  1  0.468500  0.624800  0.798900  1
  C  C990  1  0.531500  0.375200  0.798900  1
  C  C991  1  0.531500  0.624800  0.201100  1
  C  C992  1  0.468500  0.375200  0.201100  1
  C  C993  1  0.450100  0.581400  0.793400  1
  C  C994  1  0.549900  0.418600  0.793400  1
  C  C995  1  0.549900  0.581400  0.206600  1
  C  C996  1  0.450100  0.418600  0.206600  1
  C  C997  1  0.424700  0.583100  0.761000  1
  C  C998  1  0.575300  0.416900  0.761000  1
  C  C999  1  0.575300  0.583100  0.239000  1
  C  C1000  1  0.424700  0.416900  0.239000  1
  C  C1001  1  0.402500  0.540000  0.748700  1
  C  C1002  1  0.597500  0.460000  0.748700  1
  C  C1003  1  0.597500  0.540000  0.251300  1
  C  C1004  1  0.402500  0.460000  0.251300  1
  C  C1005  1  0.376400  0.541300  0.717100  1
  C  C1006  1  0.623600  0.458700  0.717100  1
  C  C1007  1  0.623600  0.541300  0.282900  1
  C  C1008  1  0.376400  0.458700  0.282900  1
  C  C1009  1  0.343800  0.496900  0.703800  1
  C  C1010  1  0.656200  0.503100  0.703800  1
  C  C1011  1  0.656200  0.496900  0.296200  1
  C  C1012  1  0.343800  0.503100  0.296200  1
  C  C1013  1  0.334300  0.517800  0.673100  1
  C  C1014  1  0.665700  0.482200  0.673100  1
  C  C1015  1  0.665700  0.517800  0.326900  1
  C  C1016  1  0.334300  0.482200  0.326900  1
  C  C1017  1  0.361100  0.570500  0.671800  1
  C  C1018  1  0.638900  0.429500  0.671800  1
  C  C1019  1  0.638900  0.570500  0.328200  1
  C  C1020  1  0.361100  0.429500  0.328200  1
  C  C1021  1  0.364900  0.600700  0.643700  1
  C  C1022  1  0.635100  0.399300  0.643700  1
  C  C1023  1  0.635100  0.600700  0.356300  1
  C  C1024  1  0.364900  0.399300  0.356300  1
  C  C1025  1  0.383200  0.842700  0.643900  1
  C  C1026  1  0.616800  0.157300  0.643900  1
  C  C1027  1  0.616800  0.842700  0.356100  1
  C  C1028  1  0.383200  0.157300  0.356100  1
  C  C1029  1  0.432000  0.826600  0.654100  1
  C  C1030  1  0.568000  0.173400  0.654100  1
  C  C1031  1  0.568000  0.826600  0.345900  1
  C  C1032  1  0.432000  0.173400  0.345900  1
  C  C1033  1  0.489000  0.836500  0.650900  1
  C  C1034  1  0.511000  0.163500  0.650900  1
  C  C1035  1  0.511000  0.836500  0.349100  1
  C  C1036  1  0.489000  0.163500  0.349100  1
  C  C1037  1  0.487000  0.886500  0.632600  1
  C  C1038  1  0.513000  0.113500  0.632600  1
  C  C1039  1  0.513000  0.886500  0.367400  1
  C  C1040  1  0.487000  0.113500  0.367400  1
  C  C1041  1  0.436000  0.908200  0.624200  1
  C  C1042  1  0.564000  0.091800  0.624200  1
  C  C1043  1  0.564000  0.908200  0.375800  1
  C  C1044  1  0.436000  0.091800  0.375800  1
  C  C1045  1  0.469400  0.740800  0.824200  1
  C  C1046  1  0.530600  0.259200  0.824200  1
  C  C1047  1  0.530600  0.740800  0.175800  1
  C  C1048  1  0.469400  0.259200  0.175800  1
  C  C1049  1  0.503000  0.735400  0.800200  1
  C  C1050  1  0.497000  0.264600  0.800200  1
  C  C1051  1  0.497000  0.735400  0.199800  1
  C  C1052  1  0.503000  0.264600  0.199800  1
  C  C1053  1  0.556000  0.757900  0.796500  1
  C  C1054  1  0.444000  0.242100  0.796500  1
  C  C1055  1  0.444000  0.757900  0.203500  1
  C  C1056  1  0.556000  0.242100  0.203500  1
  C  C1057  1  0.577000  0.794000  0.821800  1
  C  C1058  1  0.423000  0.206000  0.821800  1
  C  C1059  1  0.423000  0.794000  0.178200  1
  C  C1060  1  0.577000  0.206000  0.178200  1
  C  C1061  1  0.541000  0.790300  0.847200  1
  C  C1062  1  0.459000  0.209700  0.847200  1
  C  C1063  1  0.459000  0.790300  0.152800  1
  C  C1064  1  0.541000  0.209700  0.152800  1
  C  C1065  1  0.367800  0.486700  0.791900  1
  C  C1066  1  0.632200  0.513300  0.791900  1
  C  C1067  1  0.632200  0.486700  0.208100  1
  C  C1068  1  0.367800  0.513300  0.208100  1
  C  C1069  1  0.391200  0.485300  0.760300  1
  C  C1070  1  0.608800  0.514700  0.760300  1
  C  C1071  1  0.608800  0.485300  0.239700  1
  C  C1072  1  0.391200  0.514700  0.239700  1
  C  C1073  1  0.414000  0.443400  0.750500  1
  C  C1074  1  0.586000  0.556600  0.750500  1
  C  C1075  1  0.586000  0.443400  0.249500  1
  C  C1076  1  0.414000  0.556600  0.249500  1
  C  C1077  1  0.407600  0.399100  0.764400  1
  C  C1078  1  0.592400  0.600900  0.764400  1
  C  C1079  1  0.592400  0.399100  0.235600  1
  C  C1080  1  0.407600  0.600900  0.235600  1
  C  C1081  1  0.382700  0.394400  0.792000  1
  C  C1082  1  0.617300  0.605600  0.792000  1
  C  C1083  1  0.617300  0.394400  0.208000  1
  C  C1084  1  0.382700  0.605600  0.208000  1
  C  C1085  1  0.288200  0.588300  0.604800  1
  C  C1086  1  0.711800  0.411700  0.604800  1
  C  C1087  1  0.711800  0.588300  0.395200  1
  C  C1088  1  0.288200  0.411700  0.395200  1
  C  C1089  1  0.343000  0.572600  0.616700  1
  C  C1090  1  0.657000  0.427400  0.616700  1
  C  C1091  1  0.657000  0.572600  0.383300  1
  C  C1092  1  0.343000  0.427400  0.383300  1
  C  C1093  1  0.368500  0.531000  0.607500  1
  C  C1094  1  0.631500  0.469000  0.607500  1
  C  C1095  1  0.631500  0.531000  0.392500  1
  C  C1096  1  0.368500  0.469000  0.392500  1
  C  C1097  1  0.340700  0.509300  0.581300  1
  C  C1098  1  0.659300  0.490700  0.581300  1
  C  C1099  1  0.659300  0.509300  0.418700  1
  C  C1100  1  0.340700  0.490700  0.418700  1
  C  C1101  1  0.289700  0.531900  0.567100  1
  C  C1102  1  0.710300  0.468100  0.567100  1
  C  C1103  1  0.710300  0.531900  0.432900  1
  C  C1104  1  0.289700  0.468100  0.432900  1
  C  C1105  1  0.179000  0.941700  0.728600  1
  C  C1106  1  0.821000  0.058300  0.728600  1
  C  C1107  1  0.821000  0.941700  0.271400  1
  C  C1108  1  0.179000  0.058300  0.271400  1
  C  C1109  1  0.137600  0.952700  0.702400  1
  C  C1110  1  0.862400  0.047300  0.702400  1
  C  C1111  1  0.862400  0.952700  0.297600  1
  C  C1112  1  0.137600  0.047300  0.297600  1
  C  C1113  1  0.085600  0.948000  0.708400  1
  C  C1114  1  0.914400  0.052000  0.708400  1
  C  C1115  1  0.914400  0.948000  0.291600  1
  C  C1116  1  0.085600  0.052000  0.291600  1
  C  C1117  1  0.080900  0.924200  0.739200  1
  C  C1118  1  0.919100  0.075800  0.739200  1
  C  C1119  1  0.919100  0.924200  0.260800  1
  C  C1120  1  0.080900  0.075800  0.260800  1
  C  C1121  1  0.033400  0.905600  0.750900  1
  C  C1122  1  0.966600  0.094400  0.750900  1
  C  C1123  1  0.966600  0.905600  0.249100  1
  C  C1124  1  0.033400  0.094400  0.249100  1
  C  C1125  1  0.028400  0.890000  0.781800  1
  C  C1126  1  0.971600  0.110000  0.781800  1
  C  C1127  1  0.971600  0.890000  0.218200  1
  C  C1128  1  0.028400  0.110000  0.218200  1
  C  C1129  1  0.978500  0.863200  0.793200  1
  C  C1130  1  0.021500  0.136800  0.793200  1
  C  C1131  1  0.021500  0.863200  0.206800  1
  C  C1132  1  0.978500  0.136800  0.206800  1
  C  C1133  1  0.997600  0.849500  0.822500  1
  C  C1134  1  0.002400  0.150500  0.822500  1
  C  C1135  1  0.002400  0.849500  0.177500  1
  C  C1136  1  0.997600  0.150500  0.177500  1
  C  C1137  1  0.053500  0.865900  0.828200  1
  C  C1138  1  0.946500  0.134100  0.828200  1
  C  C1139  1  0.946500  0.865900  0.171800  1
  C  C1140  1  0.053500  0.134100  0.171800  1
  C  C1141  1  0.092300  0.856100  0.853300  1
  C  C1142  1  0.907700  0.143900  0.853300  1
  C  C1143  1  0.907700  0.856100  0.146700  1
  C  C1144  1  0.092300  0.143900  0.146700  1
  C  C1145  1  0.154300  0.866300  0.857800  1
  C  C1146  1  0.845700  0.133700  0.857800  1
  C  C1147  1  0.845700  0.866300  0.142200  1
  C  C1148  1  0.154300  0.133700  0.142200  1
  C  C1149  1  0.187900  0.858500  0.885800  1
  C  C1150  1  0.812100  0.141500  0.885800  1
  C  C1151  1  0.812100  0.858500  0.114200  1
  C  C1152  1  0.187900  0.141500  0.114200  1
  C  C1153  1  0.238000  0.876600  0.876700  1
  C  C1154  1  0.762000  0.123400  0.876700  1
  C  C1155  1  0.762000  0.876600  0.123300  1
  C  C1156  1  0.238000  0.123400  0.123300  1
  C  C1157  1  0.248000  0.883700  0.844000  1
  C  C1158  1  0.752000  0.116300  0.844000  1
  C  C1159  1  0.752000  0.883700  0.156000  1
  C  C1160  1  0.248000  0.116300  0.156000  1
  C  C1161  1  0.301000  0.900400  0.830600  1
  C  C1162  1  0.699000  0.099600  0.830600  1
  C  C1163  1  0.699000  0.900400  0.169400  1
  C  C1164  1  0.301000  0.099600  0.169400  1
  C  C1165  1  0.299000  0.916000  0.800900  1
  C  C1166  1  0.701000  0.084000  0.800900  1
  C  C1167  1  0.701000  0.916000  0.199100  1
  C  C1168  1  0.299000  0.084000  0.199100  1
  C  C1169  1  0.354000  0.923900  0.784400  1
  C  C1170  1  0.646000  0.076100  0.784400  1
  C  C1171  1  0.646000  0.923900  0.215600  1
  C  C1172  1  0.354000  0.076100  0.215600  1
  C  C1173  1  0.339400  0.939100  0.757600  1
  C  C1174  1  0.660600  0.060900  0.757600  1
  C  C1175  1  0.660600  0.939100  0.242400  1
  C  C1176  1  0.339400  0.060900  0.242400  1
  C  C1177  1  0.276700  0.936900  0.753500  1
  C  C1178  1  0.723300  0.063100  0.753500  1
  C  C1179  1  0.723300  0.936900  0.246500  1
  C  C1180  1  0.276700  0.063100  0.246500  1
  C  C1181  1  0.247500  0.946900  0.728700  1
  C  C1182  1  0.752500  0.053100  0.728700  1
  C  C1183  1  0.752500  0.946900  0.271300  1
  C  C1184  1  0.247500  0.053100  0.271300  1
  C  C1185  1  0.968500  0.889900  0.707000  1
  C  C1186  1  0.031500  0.110100  0.707000  1
  C  C1187  1  0.031500  0.889900  0.293000  1
  C  C1188  1  0.968500  0.110100  0.293000  1
  C  C1189  1  0.976900  0.910900  0.737400  1
  C  C1190  1  0.023100  0.089100  0.737400  1
  C  C1191  1  0.023100  0.910900  0.262600  1
  C  C1192  1  0.976900  0.089100  0.262600  1
  C  C1193  1  0.921300  0.932700  0.746700  1
  C  C1194  1  0.078700  0.067300  0.746700  1
  C  C1195  1  0.078700  0.932700  0.253300  1
  C  C1196  1  0.921300  0.067300  0.253300  1
  C  C1197  1  0.869500  0.933500  0.736300  1
  C  C1198  1  0.130500  0.066500  0.736300  1
  C  C1199  1  0.130500  0.933500  0.263700  1
  C  C1200  1  0.869500  0.066500  0.263700  1
  C  C1201  1  0.866300  0.906600  0.707100  1
  C  C1202  1  0.133700  0.093400  0.707100  1
  C  C1203  1  0.133700  0.906600  0.292900  1
  C  C1204  1  0.866300  0.093400  0.292900  1
  C  C1205  1  0.073900  0.787800  0.889900  1
  C  C1206  1  0.926100  0.212200  0.889900  1
  C  C1207  1  0.926100  0.787800  0.110100  1
  C  C1208  1  0.073900  0.212200  0.110100  1
  C  C1209  1  0.063000  0.836200  0.881400  1
  C  C1210  1  0.937000  0.163800  0.881400  1
  C  C1211  1  0.937000  0.836200  0.118600  1
  C  C1212  1  0.063000  0.163800  0.118600  1
  C  C1213  1  0.012000  0.859700  0.894300  1
  C  C1214  1  0.988000  0.140300  0.894300  1
  C  C1215  1  0.988000  0.859700  0.105700  1
  C  C1216  1  0.012000  0.140300  0.105700  1
  C  C1217  1  0.981000  0.839300  0.919800  1
  C  C1218  1  0.019000  0.160700  0.919800  1
  C  C1219  1  0.019000  0.839300  0.080200  1
  C  C1220  1  0.981000  0.160700  0.080200  1
  C  C1221  1  0.007800  0.787400  0.926500  1
  C  C1222  1  0.992200  0.212600  0.926500  1
  C  C1223  1  0.992200  0.787400  0.073500  1
  C  C1224  1  0.007800  0.212600  0.073500  1
  C  C1225  1  0.380000  0.843000  0.856900  1
  C  C1226  1  0.620000  0.157000  0.856900  1
  C  C1227  1  0.620000  0.843000  0.143100  1
  C  C1228  1  0.380000  0.157000  0.143100  1
  C  C1229  1  0.360000  0.892000  0.846300  1
  C  C1230  1  0.640000  0.108000  0.846300  1
  C  C1231  1  0.640000  0.892000  0.153700  1
  C  C1232  1  0.360000  0.108000  0.153700  1
  C  C1233  1  0.400000  0.939000  0.847000  1
  C  C1234  1  0.600000  0.061000  0.847000  1
  C  C1235  1  0.600000  0.939000  0.153000  1
  C  C1236  1  0.400000  0.061000  0.153000  1
  C  C1237  1  0.451000  0.936000  0.867700  1
  C  C1238  1  0.549000  0.064000  0.867700  1
  C  C1239  1  0.549000  0.936000  0.132300  1
  C  C1240  1  0.451000  0.064000  0.132300  1
  C  C1241  1  0.457000  0.885000  0.880300  1
  C  C1242  1  0.543000  0.115000  0.880300  1
  C  C1243  1  0.543000  0.885000  0.119700  1
  C  C1244  1  0.457000  0.115000  0.119700  1
  C  C1245  1  0.274500  0.945500  0.680700  1
  C  C1246  1  0.725500  0.054500  0.680700  1
  C  C1247  1  0.725500  0.945500  0.319300  1
  C  C1248  1  0.274500  0.054500  0.319300  1
  C  C1249  1  0.278500  0.974000  0.702900  1
  C  C1250  1  0.721500  0.026000  0.702900  1
  C  C1251  1  0.721500  0.974000  0.297100  1
  C  C1252  1  0.278500  0.026000  0.297100  1
  C  C1253  1  0.298000  0.026800  0.708800  1
  C  C1254  1  0.702000  0.973200  0.708800  1
  C  C1255  1  0.702000  0.026800  0.291200  1
  C  C1256  1  0.298000  0.973200  0.291200  1
  C  C1257  1  0.334000  0.045400  0.683900  1
  C  C1258  1  0.666000  0.954600  0.683900  1
  C  C1259  1  0.666000  0.045400  0.316100  1
  C  C1260  1  0.334000  0.954600  0.316100  1
  C  C1261  1  0.337000  0.013300  0.655300  1
  C  C1262  1  0.663000  0.986700  0.655300  1
  C  C1263  1  0.663000  0.013300  0.344700  1
  C  C1264  1  0.337000  0.986700  0.344700  1
  C  C1265  1  0.115600  0.663300  0.524900  1
  C  C1266  1  0.884400  0.336700  0.524900  1
  C  C1267  1  0.884400  0.663300  0.475100  1
  C  C1268  1  0.115600  0.336700  0.475100  1
  C  C1269  1  0.064400  0.702100  0.523800  1
  C  C1270  1  0.935600  0.297900  0.523800  1
  C  C1271  1  0.935600  0.702100  0.476200  1
  C  C1272  1  0.064400  0.297900  0.476200  1
  C  C1273  1  0.082000  0.743600  0.499900  1
  C  C1274  1  0.918000  0.256400  0.499900  1
  C  C1275  1  0.918000  0.743600  0.500100  1
  C  C1276  1  0.082000  0.256400  0.500100  1
  C  C1277  1  0.142000  0.770200  0.502900  1
  C  C1278  1  0.858000  0.229800  0.502900  1
  C  C1279  1  0.858000  0.770200  0.497100  1
  C  C1280  1  0.142000  0.229800  0.497100  1
  C  C1281  1  0.188000  0.725300  0.508000  1
  C  C1282  1  0.812000  0.274700  0.508000  1
  C  C1283  1  0.812000  0.725300  0.492000  1
  C  C1284  1  0.188000  0.274700  0.492000  1
  C  C1285  1  0.175900  0.689600  0.533900  1
  C  C1286  1  0.824100  0.310400  0.533900  1
  C  C1287  1  0.824100  0.689600  0.466100  1
  C  C1288  1  0.175900  0.310400  0.466100  1
  C  C1289  1  0.260800  0.908700  0.557800  1
  C  C1290  1  0.739200  0.091300  0.557800  1
  C  C1291  1  0.739200  0.908700  0.442200  1
  C  C1292  1  0.260800  0.091300  0.442200  1
  C  C1293  1  0.247800  0.881100  0.527900  1
  C  C1294  1  0.752200  0.118900  0.527900  1
  C  C1295  1  0.752200  0.881100  0.472100  1
  C  C1296  1  0.247800  0.118900  0.472100  1
  C  C1297  1  0.205100  0.911000  0.510700  1
  C  C1298  1  0.794900  0.089000  0.510700  1
  C  C1299  1  0.794900  0.911000  0.489300  1
  C  C1300  1  0.205100  0.089000  0.489300  1
  C  C1301  1  0.150000  0.926600  0.527800  1
  C  C1302  1  0.850000  0.073400  0.527800  1
  C  C1303  1  0.850000  0.926600  0.472200  1
  C  C1304  1  0.150000  0.073400  0.472200  1
  C  C1305  1  0.168100  0.962200  0.554500  1
  C  C1306  1  0.831900  0.037800  0.554500  1
  C  C1307  1  0.831900  0.962200  0.445500  1
  C  C1308  1  0.168100  0.037800  0.445500  1
  C  C1309  1  0.212500  0.930600  0.574900  1
  C  C1310  1  0.787500  0.069400  0.574900  1
  C  C1311  1  0.787500  0.930600  0.425100  1
  C  C1312  1  0.212500  0.069400  0.425100  1
  C  C1313  1  0.920800  0.908100  0.597400  1
  C  C1314  1  0.079200  0.091900  0.597400  1
  C  C1315  1  0.079200  0.908100  0.402600  1
  C  C1316  1  0.920800  0.091900  0.402600  1
  C  C1317  1  0.953400  0.939900  0.579900  1
  C  C1318  1  0.046600  0.060100  0.579900  1
  C  C1319  1  0.046600  0.939900  0.420100  1
  C  C1320  1  0.953400  0.060100  0.420100  1
  C  C1321  1  0.941400  0.930600  0.544300  1
  C  C1322  1  0.058600  0.069400  0.544300  1
  C  C1323  1  0.058600  0.930600  0.455700  1
  C  C1324  1  0.941400  0.069400  0.455700  1
  C  C1325  1  0.964100  0.873500  0.540900  1
  C  C1326  1  0.035900  0.126500  0.540900  1
  C  C1327  1  0.035900  0.873500  0.459100  1
  C  C1328  1  0.964100  0.126500  0.459100  1
  C  C1329  1  0.921800  0.834600  0.559500  1
  C  C1330  1  0.078200  0.165400  0.559500  1
  C  C1331  1  0.078200  0.834600  0.440500  1
  C  C1332  1  0.921800  0.165400  0.440500  1
  C  C1333  1  0.943000  0.850000  0.593000  1
  C  C1334  1  0.057000  0.150000  0.593000  1
  C  C1335  1  0.057000  0.850000  0.407000  1
  C  C1336  1  0.943000  0.150000  0.407000  1
  C  C1337  1  0.308600  0.462000  0.901800  1
  C  C1338  1  0.691400  0.538000  0.901800  1
  C  C1339  1  0.691400  0.462000  0.098200  1
  C  C1340  1  0.308600  0.538000  0.098200  1
  C  C1341  1  0.300000  0.447100  0.937600  1
  C  C1342  1  0.700000  0.552900  0.937600  1
  C  C1343  1  0.700000  0.447100  0.062400  1
  C  C1344  1  0.300000  0.552900  0.062400  1
  C  C1345  1  0.342000  0.475100  0.958800  1
  C  C1346  1  0.658000  0.524900  0.958800  1
  C  C1347  1  0.658000  0.475100  0.041200  1
  C  C1348  1  0.342000  0.524900  0.041200  1
  C  C1349  1  0.403000  0.448900  0.950500  1
  C  C1350  1  0.597000  0.551100  0.950500  1
  C  C1351  1  0.597000  0.448900  0.049500  1
  C  C1352  1  0.403000  0.551100  0.049500  1
  C  C1353  1  0.419300  0.473300  0.919700  1
  C  C1354  1  0.580700  0.526700  0.919700  1
  C  C1355  1  0.580700  0.473300  0.080300  1
  C  C1356  1  0.419300  0.526700  0.080300  1
  C  C1357  1  0.378100  0.446100  0.903000  1
  C  C1358  1  0.621900  0.553900  0.903000  1
  C  C1359  1  0.621900  0.446100  0.097000  1
  C  C1360  1  0.378100  0.553900  0.097000  1
  C  C1361  1  0.441100  0.682000  0.927400  1
  C  C1362  1  0.558900  0.318000  0.927400  1
  C  C1363  1  0.558900  0.682000  0.072600  1
  C  C1364  1  0.441100  0.318000  0.072600  1
  C  C1365  1  0.465700  0.637900  0.946800  1
  C  C1366  1  0.534300  0.362100  0.946800  1
  C  C1367  1  0.534300  0.637900  0.053200  1
  C  C1368  1  0.465700  0.362100  0.053200  1
  C  C1369  1  0.421400  0.625400  0.972300  1
  C  C1370  1  0.578600  0.374600  0.972300  1
  C  C1371  1  0.578600  0.625400  0.027700  1
  C  C1372  1  0.421400  0.374600  0.027700  1
  C  C1373  1  0.403900  0.672000  0.990700  1
  C  C1374  1  0.596100  0.328000  0.990700  1
  C  C1375  1  0.596100  0.672000  0.009300  1
  C  C1376  1  0.403900  0.328000  0.009300  1
  C  C1377  1  0.380900  0.716500  0.972400  1
  C  C1378  1  0.619100  0.283500  0.972400  1
  C  C1379  1  0.619100  0.716500  0.027600  1
  C  C1380  1  0.380900  0.283500  0.027600  1
  C  C1381  1  0.424400  0.728500  0.946300  1
  C  C1382  1  0.575600  0.271500  0.946300  1
  C  C1383  1  0.575600  0.728500  0.053700  1
  C  C1384  1  0.424400  0.271500  0.053700  1
  C  C1385  1  0.166600  0.665800  0.957400  1
  C  C1386  1  0.833400  0.334200  0.957400  1
  C  C1387  1  0.833400  0.665800  0.042600  1
  C  C1388  1  0.166600  0.334200  0.042600  1
  C  C1389  1  0.206000  0.672100  0.985900  1
  C  C1390  1  0.794000  0.327900  0.985900  1
  C  C1391  1  0.794000  0.672100  0.014100  1
  C  C1392  1  0.206000  0.327900  0.014100  1
  C  C1393  1  0.243000  0.623300  0.993500  1
  C  C1394  1  0.757000  0.376700  0.993500  1
  C  C1395  1  0.757000  0.623300  0.006500  1
  C  C1396  1  0.243000  0.376700  0.006500  1
  C  C1397  1  0.204000  0.578500  0.996000  1
  C  C1398  1  0.796000  0.421500  0.996000  1
  C  C1399  1  0.796000  0.578500  0.004000  1
  C  C1400  1  0.204000  0.421500  0.004000  1
  C  C1401  1  0.162900  0.570000  0.966700  1
  C  C1402  1  0.837100  0.430000  0.966700  1
  C  C1403  1  0.837100  0.570000  0.033300  1
  C  C1404  1  0.162900  0.430000  0.033300  1
  C  C1405  1  0.128100  0.619000  0.963700  1
  C  C1406  1  0.871900  0.381000  0.963700  1
  C  C1407  1  0.871900  0.619000  0.036300  1
  C  C1408  1  0.128100  0.381000  0.036300  1
  N  N1409  1  0.167300  0.684700  0.785100  1
  N  N1410  1  0.832700  0.315300  0.785100  1
  N  N1411  1  0.832700  0.684700  0.214900  1
  N  N1412  1  0.167300  0.315300  0.214900  1
  N  N1413  1  0.203000  0.758600  0.747500  1
  N  N1414  1  0.797000  0.241400  0.747500  1
  N  N1415  1  0.797000  0.758600  0.252500  1
  N  N1416  1  0.203000  0.241400  0.252500  1
  N  N1417  1  0.205000  0.714600  0.696300  1
  N  N1418  1  0.795000  0.285400  0.696300  1
  N  N1419  1  0.795000  0.714600  0.303700  1
  N  N1420  1  0.205000  0.285400  0.303700  1
  N  N1421  1  0.124000  0.715000  0.660500  1
  N  N1422  1  0.876000  0.285000  0.660500  1
  N  N1423  1  0.876000  0.715000  0.339500  1
  N  N1424  1  0.124000  0.285000  0.339500  1
  N  N1425  1  0.027800  0.610200  0.701100  1
  N  N1426  1  0.972200  0.389800  0.701100  1
  N  N1427  1  0.972200  0.610200  0.298900  1
  N  N1428  1  0.027800  0.389800  0.298900  1
  N  N1429  1  0.096300  0.524400  0.726200  1
  N  N1430  1  0.903700  0.475600  0.726200  1
  N  N1431  1  0.903700  0.524400  0.273800  1
  N  N1432  1  0.096300  0.475600  0.273800  1
  N  N1433  1  0.065400  0.558200  0.789000  1
  N  N1434  1  0.934600  0.441800  0.789000  1
  N  N1435  1  0.934600  0.558200  0.211000  1
  N  N1436  1  0.065400  0.441800  0.211000  1
  N  N1437  1  0.993900  0.639600  0.759200  1
  N  N1438  1  0.006100  0.360400  0.759200  1
  N  N1439  1  0.006100  0.639600  0.240800  1
  N  N1440  1  0.993900  0.360400  0.240800  1
  N  N1441  1  0.141900  0.539700  0.591400  1
  N  N1442  1  0.858100  0.460300  0.591400  1
  N  N1443  1  0.858100  0.539700  0.408600  1
  N  N1444  1  0.141900  0.460300  0.408600  1
  N  N1445  1  0.242200  0.413000  0.816800  1
  N  N1446  1  0.757800  0.587000  0.816800  1
  N  N1447  1  0.757800  0.413000  0.183200  1
  N  N1448  1  0.242200  0.587000  0.183200  1
  N  N1449  1  0.996900  0.666100  0.893500  1
  N  N1450  1  0.003100  0.333900  0.893500  1
  N  N1451  1  0.003100  0.666100  0.106500  1
  N  N1452  1  0.996900  0.333900  0.106500  1
  N  N1453  1  0.887800  0.788800  0.676300  1
  N  N1454  1  0.112200  0.211200  0.676300  1
  N  N1455  1  0.112200  0.788800  0.323700  1
  N  N1456  1  0.887800  0.211200  0.323700  1
  N  N1457  1  0.395500  0.681700  0.667300  1
  N  N1458  1  0.604500  0.318300  0.667300  1
  N  N1459  1  0.604500  0.681700  0.332700  1
  N  N1460  1  0.395500  0.318300  0.332700  1
  N  N1461  1  0.435800  0.725900  0.719200  1
  N  N1462  1  0.564200  0.274100  0.719200  1
  N  N1463  1  0.564200  0.725900  0.280800  1
  N  N1464  1  0.435800  0.274100  0.280800  1
  N  N1465  1  0.432800  0.632700  0.752200  1
  N  N1466  1  0.567200  0.367300  0.752200  1
  N  N1467  1  0.567200  0.632700  0.247800  1
  N  N1468  1  0.432800  0.367300  0.247800  1
  N  N1469  1  0.387300  0.583600  0.699200  1
  N  N1470  1  0.612700  0.416400  0.699200  1
  N  N1471  1  0.612700  0.583600  0.300800  1
  N  N1472  1  0.387300  0.416400  0.300800  1
  N  N1473  1  0.385300  0.888500  0.629900  1
  N  N1474  1  0.614700  0.111500  0.629900  1
  N  N1475  1  0.614700  0.888500  0.370100  1
  N  N1476  1  0.385300  0.111500  0.370100  1
  N  N1477  1  0.499000  0.758500  0.848400  1
  N  N1478  1  0.501000  0.241500  0.848400  1
  N  N1479  1  0.501000  0.758500  0.151600  1
  N  N1480  1  0.499000  0.241500  0.151600  1
  N  N1481  1  0.360600  0.436000  0.802500  1
  N  N1482  1  0.639400  0.564000  0.802500  1
  N  N1483  1  0.639400  0.436000  0.197500  1
  N  N1484  1  0.360600  0.564000  0.197500  1
  N  N1485  1  0.262800  0.566400  0.581100  1
  N  N1486  1  0.737200  0.433600  0.581100  1
  N  N1487  1  0.737200  0.566400  0.418900  1
  N  N1488  1  0.262800  0.433600  0.418900  1
  N  N1489  1  0.138100  0.924700  0.749800  1
  N  N1490  1  0.861900  0.075300  0.749800  1
  N  N1491  1  0.861900  0.924700  0.250200  1
  N  N1492  1  0.138100  0.075300  0.250200  1
  N  N1493  1  0.077200  0.887500  0.800600  1
  N  N1494  1  0.922800  0.112500  0.800600  1
  N  N1495  1  0.922800  0.887500  0.199400  1
  N  N1496  1  0.077200  0.112500  0.199400  1
  N  N1497  1  0.189500  0.879600  0.832900  1
  N  N1498  1  0.810500  0.120400  0.832900  1
  N  N1499  1  0.810500  0.879600  0.167100  1
  N  N1500  1  0.189500  0.120400  0.167100  1
  N  N1501  1  0.258900  0.922100  0.780300  1
  N  N1502  1  0.741100  0.077900  0.780300  1
  N  N1503  1  0.741100  0.922100  0.219700  1
  N  N1504  1  0.258900  0.077900  0.219700  1
  N  N1505  1  0.913500  0.889000  0.695500  1
  N  N1506  1  0.086500  0.111000  0.695500  1
  N  N1507  1  0.086500  0.889000  0.304500  1
  N  N1508  1  0.913500  0.111000  0.304500  1
  N  N1509  1  0.052800  0.762900  0.912400  1
  N  N1510  1  0.947200  0.237100  0.912400  1
  N  N1511  1  0.947200  0.762900  0.087600  1
  N  N1512  1  0.052800  0.237100  0.087600  1
  N  N1513  1  0.430200  0.842700  0.872900  1
  N  N1514  1  0.569800  0.157300  0.872900  1
  N  N1515  1  0.569800  0.842700  0.127100  1
  N  N1516  1  0.430200  0.157300  0.127100  1
  N  N1517  1  0.306700  0.966100  0.654000  1
  N  N1518  1  0.693300  0.033900  0.654000  1
  N  N1519  1  0.693300  0.966100  0.346000  1
  N  N1520  1  0.306700  0.033900  0.346000  1
  N  N1521  1  0.108200  0.625500  0.553300  1
  N  N1522  1  0.891800  0.374500  0.553300  1
  N  N1523  1  0.891800  0.625500  0.446700  1
  N  N1524  1  0.108200  0.374500  0.446700  1
  N  N1525  1  0.220500  0.646100  0.538900  1
  N  N1526  1  0.779500  0.353900  0.538900  1
  N  N1527  1  0.779500  0.646100  0.461100  1
  N  N1528  1  0.220500  0.353900  0.461100  1
  N  N1529  1  0.311100  0.891300  0.575300  1
  N  N1530  1  0.688900  0.108700  0.575300  1
  N  N1531  1  0.688900  0.891300  0.424700  1
  N  N1532  1  0.311100  0.108700  0.424700  1
  N  N1533  1  0.235200  0.965400  0.597300  1
  N  N1534  1  0.764800  0.034600  0.597300  1
  N  N1535  1  0.764800  0.965400  0.402700  1
  N  N1536  1  0.235200  0.034600  0.402700  1
  N  N1537  1  0.929500  0.916600  0.630700  1
  N  N1538  1  0.070500  0.083400  0.630700  1
  N  N1539  1  0.070500  0.916600  0.369300  1
  N  N1540  1  0.929500  0.083400  0.369300  1
  N  N1541  1  0.903200  0.816200  0.614900  1
  N  N1542  1  0.096800  0.183800  0.614900  1
  N  N1543  1  0.096800  0.816200  0.385100  1
  N  N1544  1  0.903200  0.183800  0.385100  1
  N  N1545  1  0.275700  0.429900  0.882300  1
  N  N1546  1  0.724300  0.570100  0.882300  1
  N  N1547  1  0.724300  0.429900  0.117700  1
  N  N1548  1  0.275700  0.570100  0.117700  1
  N  N1549  1  0.390400  0.449700  0.867600  1
  N  N1550  1  0.609600  0.550300  0.867600  1
  N  N1551  1  0.609600  0.449700  0.132400  1
  N  N1552  1  0.390400  0.550300  0.132400  1
  N  N1553  1  0.480200  0.703500  0.903200  1
  N  N1554  1  0.519800  0.296500  0.903200  1
  N  N1555  1  0.519800  0.703500  0.096800  1
  N  N1556  1  0.480200  0.296500  0.096800  1
  N  N1557  1  0.411300  0.771400  0.925900  1
  N  N1558  1  0.588700  0.228600  0.925900  1
  N  N1559  1  0.588700  0.771400  0.074100  1
  N  N1560  1  0.411300  0.228600  0.074100  1
  N  N1561  1  0.134600  0.710600  0.951500  1
  N  N1562  1  0.865400  0.289400  0.951500  1
  N  N1563  1  0.865400  0.710600  0.048500  1
  N  N1564  1  0.134600  0.289400  0.048500  1
  N  N1565  1  0.088100  0.617600  0.936300  1
  N  N1566  1  0.911900  0.382400  0.936300  1
  N  N1567  1  0.911900  0.617600  0.063700  1
  N  N1568  1  0.088100  0.382400  0.063700  1
  N  N1569  1  0.771000  0.913000  0.635200  1
  N  N1570  1  0.229000  0.087000  0.635200  1
  N  N1571  1  0.229000  0.913000  0.364800  1
  N  N1572  1  0.771000  0.087000  0.364800  1
  N  N1573  1  0.414100  0.595000  0.865100  1
  N  N1574  1  0.585900  0.405000  0.865100  1
  N  N1575  1  0.585900  0.595000  0.134900  1
  N  N1576  1  0.414100  0.405000  0.134900  1
  N  N1577  1  0.973000  0.702700  0.595800  1
  N  N1578  1  0.027000  0.297300  0.595800  1
  N  N1579  1  0.027000  0.702700  0.404200  1
  N  N1580  1  0.973000  0.297300  0.404200  1
  N  N1581  1  0.619000  0.692400  0.863600  1
  N  N1582  1  0.381000  0.307600  0.863600  1
  N  N1583  1  0.381000  0.692400  0.136400  1
  N  N1584  1  0.619000  0.307600  0.136400  1
  N  N1585  1  0.099300  0.915400  0.634600  1
  N  N1586  1  0.900700  0.084600  0.634600  1
  N  N1587  1  0.900700  0.915400  0.365400  1
  N  N1588  1  0.099300  0.084600  0.365400  1
  N  N1589  1  0.250000  0.742000  0.904800  1
  N  N1590  1  0.750000  0.258000  0.904800  1
  N  N1591  1  0.750000  0.742000  0.095200  1
  N  N1592  1  0.250000  0.258000  0.095200  1
  N  N1593  1  0.188000  0.538000  0.881400  1
  N  N1594  1  0.812000  0.462000  0.881400  1
  N  N1595  1  0.812000  0.538000  0.118600  1
  N  N1596  1  0.188000  0.462000  0.118600  1
  O  O1597  1  0.135400  0.643000  0.739800  1
  O  O1598  1  0.864600  0.357000  0.739800  1
  O  O1599  1  0.864600  0.643000  0.260200  1
  O  O1600  1  0.135400  0.357000  0.260200  1
  O  O1601  1  0.105000  0.778900  0.738600  1
  O  O1602  1  0.895000  0.221100  0.738600  1
  O  O1603  1  0.895000  0.778900  0.261400  1
  O  O1604  1  0.105000  0.221100  0.261400  1
  O  O1605  1  0.252000  0.784000  0.674200  1
  O  O1606  1  0.748000  0.216000  0.674200  1
  O  O1607  1  0.748000  0.784000  0.325800  1
  O  O1608  1  0.252000  0.216000  0.325800  1
  O  O1609  1  0.179800  0.675200  0.623000  1
  O  O1610  1  0.820200  0.324800  0.623000  1
  O  O1611  1  0.820200  0.675200  0.377000  1
  O  O1612  1  0.179800  0.324800  0.377000  1
  O  O1613  1  0.517000  0.634800  0.695300  1
  O  O1614  1  0.483000  0.365200  0.695300  1
  O  O1615  1  0.483000  0.634800  0.304700  1
  O  O1616  1  0.517000  0.365200  0.304700  1
  O  O1617  1  0.155000  0.994700  0.811300  1
  O  O1618  1  0.845000  0.005300  0.811300  1
  O  O1619  1  0.845000  0.994700  0.188700  1
  O  O1620  1  0.155000  0.005300  0.188700  1
  O  O1621  1  0.747800  0.923800  0.609400  1
  O  O1622  1  0.252200  0.076200  0.609400  1
  O  O1623  1  0.252200  0.923800  0.390600  1
  O  O1624  1  0.747800  0.076200  0.390600  1
  O  O1625  1  0.804100  0.956600  0.642200  1
  O  O1626  1  0.195900  0.043400  0.642200  1
  O  O1627  1  0.195900  0.956600  0.357800  1
  O  O1628  1  0.804100  0.043400  0.357800  1
  O  O1629  1  0.759000  0.884500  0.650700  1
  O  O1630  1  0.241000  0.115500  0.650700  1
  O  O1631  1  0.241000  0.884500  0.349300  1
  O  O1632  1  0.759000  0.115500  0.349300  1
  O  O1633  1  0.376400  0.563300  0.858600  1
  O  O1634  1  0.623600  0.436700  0.858600  1
  O  O1635  1  0.623600  0.563300  0.141400  1
  O  O1636  1  0.376400  0.436700  0.141400  1
  O  O1637  1  0.465300  0.582300  0.869600  1
  O  O1638  1  0.534700  0.417700  0.869600  1
  O  O1639  1  0.534700  0.582300  0.130400  1
  O  O1640  1  0.465300  0.417700  0.130400  1
  O  O1641  1  0.400900  0.640700  0.864300  1
  O  O1642  1  0.599100  0.359300  0.864300  1
  O  O1643  1  0.599100  0.640700  0.135700  1
  O  O1644  1  0.400900  0.359300  0.135700  1
  O  O1645  1  0.005600  0.735600  0.607300  1
  O  O1646  1  0.994400  0.264400  0.607300  1
  O  O1647  1  0.994400  0.735600  0.392700  1
  O  O1648  1  0.005600  0.264400  0.392700  1
  O  O1649  1  0.918900  0.708300  0.594800  1
  O  O1650  1  0.081100  0.291700  0.594800  1
  O  O1651  1  0.081100  0.708300  0.405200  1
  O  O1652  1  0.918900  0.291700  0.405200  1
  O  O1653  1  0.995000  0.662200  0.586200  1
  O  O1654  1  0.005000  0.337800  0.586200  1
  O  O1655  1  0.005000  0.662200  0.413800  1
  O  O1656  1  0.995000  0.337800  0.413800  1
  O  O1657  1  0.623000  0.710000  0.886200  1
  O  O1658  1  0.377000  0.290000  0.886200  1
  O  O1659  1  0.377000  0.710000  0.113800  1
  O  O1660  1  0.623000  0.290000  0.113800  1
  O  O1661  1  0.576000  0.670700  0.859300  1
  O  O1662  1  0.424000  0.329300  0.859300  1
  O  O1663  1  0.424000  0.670700  0.140700  1
  O  O1664  1  0.576000  0.329300  0.140700  1
  O  O1665  1  0.652000  0.697000  0.847400  1
  O  O1666  1  0.348000  0.303000  0.847400  1
  O  O1667  1  0.348000  0.697000  0.152600  1
  O  O1668  1  0.652000  0.303000  0.152600  1
  O  O1669  1  0.151800  0.903600  0.635400  1
  O  O1670  1  0.848200  0.096400  0.635400  1
  O  O1671  1  0.848200  0.903600  0.364600  1
  O  O1672  1  0.151800  0.096400  0.364600  1
  O  O1673  1  0.061200  0.880400  0.638300  1
  O  O1674  1  0.938800  0.119600  0.638300  1
  O  O1675  1  0.938800  0.880400  0.361700  1
  O  O1676  1  0.061200  0.119600  0.361700  1
  O  O1677  1  0.082200  0.960100  0.632300  1
  O  O1678  1  0.917800  0.039900  0.632300  1
  O  O1679  1  0.917800  0.960100  0.367700  1
  O  O1680  1  0.082200  0.039900  0.367700  1
  O  O1681  1  0.296000  0.745500  0.890000  1
  O  O1682  1  0.704000  0.254500  0.890000  1
  O  O1683  1  0.704000  0.745500  0.110000  1
  O  O1684  1  0.296000  0.254500  0.110000  1
  O  O1685  1  0.201000  0.729000  0.894800  1
  O  O1686  1  0.799000  0.271000  0.894800  1
  O  O1687  1  0.799000  0.729000  0.105200  1
  O  O1688  1  0.201000  0.271000  0.105200  1
  O  O1689  1  0.255000  0.764000  0.928700  1
  O  O1690  1  0.745000  0.236000  0.928700  1
  O  O1691  1  0.745000  0.764000  0.071300  1
  O  O1692  1  0.255000  0.236000  0.071300  1
  O  O1693  1  0.164800  0.497300  0.889800  1
  O  O1694  1  0.835200  0.502700  0.889800  1
  O  O1695  1  0.835200  0.497300  0.110200  1
  O  O1696  1  0.164800  0.502700  0.110200  1
  O  O1697  1  0.163200  0.580400  0.885400  1
  O  O1698  1  0.836800  0.419600  0.885400  1
  O  O1699  1  0.836800  0.580400  0.114600  1
  O  O1700  1  0.163200  0.419600  0.114600  1
  O  O1701  1  0.224000  0.536900  0.860300  1
  O  O1702  1  0.776000  0.463100  0.860300  1
  O  O1703  1  0.776000  0.536900  0.139700  1
  O  O1704  1  0.224000  0.463100  0.139700  1
  O  O1705  1  0.599500  0.961000  0.587700  1
  O  O1706  1  0.400500  0.039000  0.587700  1
  O  O1707  1  0.400500  0.961000  0.412300  1
  O  O1708  1  0.599500  0.039000  0.412300  1
  O  O1709  1  0.006000  0.557100  0.533300  1
  O  O1710  1  0.994000  0.442900  0.533300  1
  O  O1711  1  0.994000  0.557100  0.466700  1
  O  O1712  1  0.006000  0.442900  0.466700  1
  O  O1713  1  0.072200  0.799700  0.678500  1
  O  O1714  1  0.927800  0.200300  0.678500  1
  O  O1715  1  0.927800  0.799700  0.321500  1
  O  O1716  1  0.072200  0.200300  0.321500  1
  O  O1717  1  0.117200  0.811000  0.589200  1
  O  O1718  1  0.882800  0.189000  0.589200  1
  O  O1719  1  0.882800  0.811000  0.410800  1
  O  O1720  1  0.117200  0.189000  0.410800  1
  O  O1721  1  0.961800  0.574000  0.963300  1
  O  O1722  1  0.038200  0.426000  0.963300  1
  O  O1723  1  0.038200  0.574000  0.036700  1
  O  O1724  1  0.961800  0.426000  0.036700  1
  O  O1725  1  0.181000  0.670000  0.849500  1
  O  O1726  1  0.819000  0.330000  0.849500  1
  O  O1727  1  0.819000  0.670000  0.150500  1
  O  O1728  1  0.181000  0.330000  0.150500  1
  O  O1729  1  0.305000  0.707000  0.773900  1
  O  O1730  1  0.695000  0.293000  0.773900  1
  O  O1731  1  0.695000  0.707000  0.226100  1
  O  O1732  1  0.305000  0.293000  0.226100  1
  O  O1733  1  0.247000  0.799500  0.606000  1
  O  O1734  1  0.753000  0.200500  0.606000  1
  O  O1735  1  0.753000  0.799500  0.394000  1
  O  O1736  1  0.247000  0.200500  0.394000  1
  O  O1737  1  0.663000  0.831000  0.645600  1
  O  O1738  1  0.337000  0.169000  0.645600  1
  O  O1739  1  0.337000  0.831000  0.354400  1
  O  O1740  1  0.663000  0.169000  0.354400  1
  O  O1741  1  0.320000  0.763000  0.557800  1
  O  O1742  1  0.680000  0.237000  0.557800  1
  O  O1743  1  0.680000  0.763000  0.442200  1
  O  O1744  1  0.320000  0.237000  0.442200  1
  O  O1745  1  0.866000  0.770000  0.855100  1
  O  O1746  1  0.134000  0.230000  0.855100  1
  O  O1747  1  0.134000  0.770000  0.144900  1
  O  O1748  1  0.866000  0.230000  0.144900  1
  O  O1749  1  0.588000  0.933000  0.872300  1
  O  O1750  1  0.412000  0.067000  0.872300  1
  O  O1751  1  0.412000  0.933000  0.127700  1
  O  O1752  1  0.588000  0.067000  0.127700  1
  O  O1753  1  0.744000  0.678000  0.902100  1
  O  O1754  1  0.256000  0.322000  0.902100  1
  O  O1755  1  0.256000  0.678000  0.097900  1
  O  O1756  1  0.744000  0.322000  0.097900  1
  O  O1757  1  0.689000  0.956200  0.551200  1
  O  O1758  1  0.311000  0.043800  0.551200  1
  O  O1759  1  0.311000  0.956200  0.448800  1
  O  O1760  1  0.689000  0.043800  0.448800  1
  O  O1761  1  0.736000  0.852000  0.553400  1
  O  O1762  1  0.264000  0.148000  0.553400  1
  O  O1763  1  0.264000  0.852000  0.446600  1
  O  O1764  1  0.736000  0.148000  0.446600  1
  O  O1765  1  0.774000  0.806000  0.596600  1
  O  O1766  1  0.226000  0.194000  0.596600  1
  O  O1767  1  0.226000  0.806000  0.403400  1
  O  O1768  1  0.774000  0.194000  0.403400  1
  O  O1769  1  0.055000  0.482000  0.905500  1
  O  O1770  1  0.945000  0.518000  0.905500  1
  O  O1771  1  0.945000  0.482000  0.094500  1
  O  O1772  1  0.055000  0.518000  0.094500  1
  O  O1773  1  0.319000  0.291000  0.753600  1
  O  O1774  1  0.681000  0.709000  0.753600  1
  O  O1775  1  0.681000  0.291000  0.246400  1
  O  O1776  1  0.319000  0.709000  0.246400  1
  O  O1777  1  0.286000  0.366600  0.712100  1
  O  O1778  1  0.714000  0.633400  0.712100  1
  O  O1779  1  0.714000  0.366600  0.287900  1
  O  O1780  1  0.286000  0.633400  0.287900  1
  O  O1781  1  0.689000  0.712000  0.951900  1
  O  O1782  1  0.311000  0.288000  0.951900  1
  O  O1783  1  0.311000  0.712000  0.048100  1
  O  O1784  1  0.689000  0.288000  0.048100  1
  O  O1785  1  0.293000  0.619300  0.902900  1
  O  O1786  1  0.707000  0.380700  0.902900  1
  O  O1787  1  0.707000  0.619300  0.097100  1
  O  O1788  1  0.293000  0.380700  0.097100  1
  O  O1789  1  0.500000  0.500000  0.643800  1
  O  O1790  1  0.500000  0.500000  0.356200  1
  O  O1791  1  0.649000  0.000000  0.500000  1
  O  O1792  1  0.351000  0.000000  0.500000  1
  O  O1793  1  0.701000  0.829000  0.879700  1
  O  O1794  1  0.299000  0.171000  0.879700  1
  O  O1795  1  0.299000  0.829000  0.120300  1
  O  O1796  1  0.701000  0.171000  0.120300  1
  O  O1797  1  0.575000  0.763000  0.951300  1
  O  O1798  1  0.425000  0.237000  0.951300  1
  O  O1799  1  0.425000  0.763000  0.048700  1
  O  O1800  1  0.575000  0.237000  0.048700  1
  O  O1801  1  0.604000  0.850000  0.589800  1
  O  O1802  1  0.396000  0.150000  0.589800  1
  O  O1803  1  0.396000  0.850000  0.410200  1
  O  O1804  1  0.604000  0.150000  0.410200  1
  O  O1805  1  0.438000  0.861000  0.959000  1
  O  O1806  1  0.562000  0.139000  0.959000  1
  O  O1807  1  0.562000  0.861000  0.041000  1
  O  O1808  1  0.438000  0.139000  0.041000  1
  O  O1809  1  0.672000  0.931000  0.784000  1
  O  O1810  1  0.328000  0.069000  0.784000  1
  O  O1811  1  0.328000  0.931000  0.216000  1
  O  O1812  1  0.672000  0.069000  0.216000  1
  O  O1813  1  0.500000  0.000000  0.744000  1
  O  O1814  1  0.500000  0.000000  0.256000  1
  O  O1815  1  0.813000  0.830000  0.777400  1
  O  O1816  1  0.187000  0.170000  0.777400  1
  O  O1817  1  0.187000  0.830000  0.222600  1
  O  O1818  1  0.813000  0.170000  0.222600  1
  O  O1819  1  0.500000  0.000000  0.565800  1
  O  O1820  1  0.500000  0.000000  0.434200  1
  O  O1821  1  0.500000  0.500000  0.446000  1
  O  O1822  1  0.500000  0.500000  0.554000  1
  O  O1823  1  0.701000  0.931000  0.842000  1
  O  O1824  1  0.299000  0.069000  0.842000  1
  O  O1825  1  0.299000  0.931000  0.158000  1
  O  O1826  1  0.701000  0.069000  0.158000  1
  O  O1827  1  0.171000  0.500000  0.500000  1
  O  O1828  1  0.829000  0.500000  0.500000  1
  O  O1829  1  0.000000  0.500000  0.000000  1
  O  O1830  1  0.316000  0.704000  0.823000  1
  O  O1831  1  0.684000  0.296000  0.823000  1
  O  O1832  1  0.684000  0.704000  0.177000  1
  O  O1833  1  0.316000  0.296000  0.177000  1
