# generated using pymatgen
data_Zn7Cu10H250C335S16N101O164
_symmetry_space_group_name_H-M   'P 1'
_cell_length_a   24.63390000
_cell_length_b   26.27710000
_cell_length_c   38.56600000
_cell_angle_alpha   71.18900000
_cell_angle_beta   77.80000000
_cell_angle_gamma   87.75000000
_symmetry_Int_Tables_number   1
_chemical_formula_structural   Zn7Cu10H250C335S16N101O164
_chemical_formula_sum   'Zn14 Cu20 H500 C670 S32 N202 O328'
_cell_volume   23085.72982786
_cell_formula_units_Z   2
loop_
 _symmetry_equiv_pos_site_id
 _symmetry_equiv_pos_as_xyz
  1  'x, y, z'
loop_
 _atom_site_type_symbol
 _atom_site_label
 _atom_site_symmetry_multiplicity
 _atom_site_fract_x
 _atom_site_fract_y
 _atom_site_fract_z
 _atom_site_occupancy
  Zn  Zn1  1  0.282580  0.368320  0.732640  1
  Zn  Zn2  1  0.717420  0.631680  0.267360  1
  Zn  Zn3  1  0.214600  0.400610  0.949670  1
  Zn  Zn4  1  0.785400  0.599390  0.050330  1
  Zn  Zn5  1  0.482400  0.650860  0.633580  1
  Zn  Zn6  1  0.517600  0.349140  0.366420  1
  Zn  Zn7  1  0.304500  0.850980  0.109770  1
  Zn  Zn8  1  0.695500  0.149020  0.890230  1
  Zn  Zn9  1  0.030800  0.207460  0.132210  1
  Zn  Zn10  1  0.969200  0.792540  0.867790  1
  Zn  Zn11  1  0.087610  0.915840  0.287340  1
  Zn  Zn12  1  0.912390  0.084160  0.712660  1
  Zn  Zn13  1  0.301400  0.570200  0.356370  1
  Zn  Zn14  1  0.698600  0.429800  0.643630  1
  Cu  Cu15  1  0.282660  0.633020  0.559890  1
  Cu  Cu16  1  0.717340  0.366980  0.440110  1
  Cu  Cu17  1  0.396340  0.545740  0.762040  1
  Cu  Cu18  1  0.603660  0.454260  0.237960  1
  Cu  Cu19  1  0.710740  0.685400  0.651300  1
  Cu  Cu20  1  0.289260  0.314600  0.348700  1
  Cu  Cu21  1  0.592670  0.813670  0.447150  1
  Cu  Cu22  1  0.407330  0.186330  0.552850  1
  Cu  Cu23  1  0.484440  0.659840  0.850460  1
  Cu  Cu24  1  0.515560  0.340160  0.149540  1
  Cu  Cu25  1  0.313220  0.839400  0.329510  1
  Cu  Cu26  1  0.686780  0.160600  0.670490  1
  Cu  Cu27  1  0.154350  0.002450  0.153950  1
  Cu  Cu28  1  0.845650  0.997550  0.846050  1
  Cu  Cu29  1  0.846780  0.983090  0.284930  1
  Cu  Cu30  1  0.153220  0.016910  0.715070  1
  Cu  Cu31  1  0.984960  0.785620  0.466650  1
  Cu  Cu32  1  0.015040  0.214380  0.533350  1
  Cu  Cu33  1  0.228920  0.150380  0.937730  1
  Cu  Cu34  1  0.771080  0.849620  0.062270  1
  H  H35  1  0.388400  0.542300  0.523200  1
  H  H36  1  0.611600  0.457700  0.476800  1
  H  H37  1  0.423100  0.528400  0.685800  1
  H  H38  1  0.576900  0.471600  0.314200  1
  H  H39  1  0.182200  0.706200  0.518300  1
  H  H40  1  0.817800  0.293800  0.481700  1
  H  H41  1  0.150300  0.717500  0.464300  1
  H  H42  1  0.849700  0.282500  0.535700  1
  H  H43  1  0.196300  0.678900  0.420500  1
  H  H44  1  0.803700  0.321100  0.579500  1
  H  H45  1  0.272500  0.624400  0.433900  1
  H  H46  1  0.727500  0.375600  0.566100  1
  H  H47  1  0.335000  0.581100  0.477400  1
  H  H48  1  0.665000  0.418900  0.522600  1
  H  H49  1  0.455700  0.499500  0.542000  1
  H  H50  1  0.544300  0.500500  0.458000  1
  H  H51  1  0.525500  0.432900  0.631900  1
  H  H52  1  0.474500  0.567100  0.368100  1
  H  H53  1  0.395300  0.530900  0.639000  1
  H  H54  1  0.604700  0.469100  0.361000  1
  H  H55  1  0.482200  0.432500  0.748300  1
  H  H56  1  0.517800  0.567500  0.251700  1
  H  H57  1  0.496900  0.390500  0.815300  1
  H  H58  1  0.503100  0.609500  0.184700  1
  H  H59  1  0.490300  0.396100  0.876000  1
  H  H60  1  0.509700  0.603900  0.124000  1
  H  H61  1  0.447500  0.469400  0.889900  1
  H  H62  1  0.552500  0.530600  0.110100  1
  H  H63  1  0.408300  0.532700  0.846100  1
  H  H64  1  0.591700  0.467300  0.153900  1
  H  H65  1  0.445500  0.657500  0.716600  1
  H  H66  1  0.554500  0.342500  0.283400  1
  H  H67  1  0.295400  0.457400  0.799100  1
  H  H68  1  0.704600  0.542600  0.200900  1
  H  H69  1  0.201800  0.462300  0.822400  1
  H  H70  1  0.798200  0.537700  0.177600  1
  H  H71  1  0.164000  0.544600  0.822300  1
  H  H72  1  0.836000  0.455400  0.177700  1
  H  H73  1  0.222000  0.622800  0.794900  1
  H  H74  1  0.778000  0.377200  0.205100  1
  H  H75  1  0.315000  0.667100  0.759400  1
  H  H76  1  0.685000  0.332900  0.240600  1
  H  H77  1  0.417000  0.817000  0.712100  1
  H  H78  1  0.583000  0.183000  0.287900  1
  H  H79  1  0.578300  0.853300  0.660100  1
  H  H80  1  0.421700  0.146700  0.339900  1
  H  H81  1  0.524900  0.697500  0.708100  1
  H  H82  1  0.475100  0.302500  0.291900  1
  H  H83  1  0.755800  0.831100  0.628700  1
  H  H84  1  0.244200  0.168900  0.371300  1
  H  H85  1  0.856400  0.831500  0.600400  1
  H  H86  1  0.143600  0.168500  0.399600  1
  H  H87  1  0.936400  0.784500  0.584500  1
  H  H88  1  0.063600  0.215500  0.415500  1
  H  H89  1  0.928000  0.692400  0.596600  1
  H  H90  1  0.072000  0.307600  0.403400  1
  H  H91  1  0.841900  0.649400  0.620700  1
  H  H92  1  0.158100  0.350600  0.379300  1
  H  H93  1  0.711900  0.708800  0.729100  1
  H  H94  1  0.288100  0.291200  0.270900  1
  H  H95  1  0.721800  0.657300  0.788200  1
  H  H96  1  0.278200  0.342700  0.211800  1
  H  H97  1  0.728200  0.564700  0.803100  1
  H  H98  1  0.271800  0.435300  0.196900  1
  H  H99  1  0.729400  0.525600  0.755800  1
  H  H100  1  0.270600  0.474400  0.244200  1
  H  H101  1  0.732800  0.536700  0.687100  1
  H  H102  1  0.267200  0.463300  0.312900  1
  H  H103  1  0.733900  0.561800  0.565800  1
  H  H104  1  0.266100  0.438200  0.434200  1
  H  H105  1  0.684100  0.624700  0.467400  1
  H  H106  1  0.315900  0.375300  0.532600  1
  H  H107  1  0.661700  0.706800  0.541800  1
  H  H108  1  0.338300  0.293200  0.458200  1
  H  H109  1  0.613400  0.738900  0.377100  1
  H  H110  1  0.386600  0.261100  0.622900  1
  H  H111  1  0.565900  0.800800  0.328100  1
  H  H112  1  0.434100  0.199200  0.671900  1
  H  H113  1  0.517900  0.880400  0.306400  1
  H  H114  1  0.482100  0.119600  0.693600  1
  H  H115  1  0.498900  0.936500  0.342900  1
  H  H116  1  0.501100  0.063500  0.657100  1
  H  H117  1  0.531000  0.916400  0.397600  1
  H  H118  1  0.469000  0.083600  0.602400  1
  H  H119  1  0.724600  0.836900  0.389600  1
  H  H120  1  0.275400  0.163100  0.610400  1
  H  H121  1  0.804900  0.878500  0.389900  1
  H  H122  1  0.195100  0.121500  0.610100  1
  H  H123  1  0.801700  0.935400  0.425500  1
  H  H124  1  0.198300  0.064600  0.574500  1
  H  H125  1  0.715900  0.945400  0.463500  1
  H  H126  1  0.284100  0.054600  0.536500  1
  H  H127  1  0.615200  0.922100  0.487700  1
  H  H128  1  0.384800  0.077900  0.512300  1
  H  H129  1  0.429000  0.911500  0.520000  1
  H  H130  1  0.571000  0.088500  0.480000  1
  H  H131  1  0.283400  0.827700  0.570900  1
  H  H132  1  0.716600  0.172300  0.429100  1
  H  H133  1  0.411900  0.758900  0.519500  1
  H  H134  1  0.588100  0.241100  0.480500  1
  H  H135  1  0.172900  0.677900  0.625400  1
  H  H136  1  0.827100  0.322100  0.374600  1
  H  H137  1  0.117600  0.589900  0.658200  1
  H  H138  1  0.882400  0.410100  0.341800  1
  H  H139  1  0.099000  0.500800  0.661500  1
  H  H140  1  0.901000  0.499200  0.338500  1
  H  H141  1  0.156400  0.464300  0.620200  1
  H  H142  1  0.843600  0.535700  0.379800  1
  H  H143  1  0.232700  0.513200  0.579200  1
  H  H144  1  0.767300  0.486800  0.420800  1
  H  H145  1  0.245700  0.406700  0.649100  1
  H  H146  1  0.754300  0.593300  0.350900  1
  H  H147  1  0.289500  0.415000  0.588400  1
  H  H148  1  0.710500  0.585000  0.411600  1
  H  H149  1  0.382200  0.393600  0.575200  1
  H  H150  1  0.617800  0.606400  0.424800  1
  H  H151  1  0.428400  0.358900  0.625300  1
  H  H152  1  0.571600  0.641100  0.374700  1
  H  H153  1  0.424500  0.323500  0.694400  1
  H  H154  1  0.575500  0.676500  0.305600  1
  H  H155  1  0.435500  0.282000  0.814700  1
  H  H156  1  0.564500  0.718000  0.185300  1
  H  H157  1  0.403400  0.295400  0.918800  1
  H  H158  1  0.596600  0.704600  0.081200  1
  H  H159  1  0.303900  0.366300  0.846500  1
  H  H160  1  0.696100  0.633700  0.153500  1
  H  H161  1  0.315300  0.348400  0.014700  1
  H  H162  1  0.684700  0.651600  0.985300  1
  H  H163  1  0.263100  0.363100  0.073600  1
  H  H164  1  0.736900  0.636900  0.926400  1
  H  H165  1  0.186400  0.398700  0.105400  1
  H  H166  1  0.813600  0.601300  0.894600  1
  H  H167  1  0.117900  0.439300  0.073500  1
  H  H168  1  0.882100  0.560700  0.926500  1
  H  H169  1  0.123200  0.440100  0.012900  1
  H  H170  1  0.876800  0.559900  0.987100  1
  H  H171  1  0.352900  0.728000  0.830400  1
  H  H172  1  0.647100  0.272000  0.169600  1
  H  H173  1  0.181300  0.269400  0.986000  1
  H  H174  1  0.818700  0.730600  0.014000  1
  H  H175  1  0.105200  0.214500  0.995500  1
  H  H176  1  0.894800  0.785500  0.004500  1
  H  H177  1  0.022800  0.252000  0.980700  1
  H  H178  1  0.977200  0.748000  0.019300  1
  H  H179  1  0.020400  0.346200  0.953100  1
  H  H180  1  0.979600  0.653800  0.046900  1
  H  H181  1  0.069300  0.437000  0.927300  1
  H  H182  1  0.930700  0.563000  0.072700  1
  H  H183  1  0.148500  0.599800  0.893900  1
  H  H184  1  0.851500  0.400200  0.106100  1
  H  H185  1  0.271200  0.715000  0.848200  1
  H  H186  1  0.728800  0.285000  0.151800  1
  H  H187  1  0.309600  0.558400  0.888200  1
  H  H188  1  0.690400  0.441600  0.111800  1
  H  H189  1  0.425800  0.793800  0.798700  1
  H  H190  1  0.574200  0.206200  0.201300  1
  H  H191  1  0.514000  0.845700  0.757400  1
  H  H192  1  0.486000  0.154300  0.242600  1
  H  H193  1  0.611900  0.854800  0.742900  1
  H  H194  1  0.388100  0.145200  0.257100  1
  H  H195  1  0.662700  0.785600  0.774300  1
  H  H196  1  0.337300  0.214400  0.225700  1
  H  H197  1  0.617800  0.707900  0.816400  1
  H  H198  1  0.382200  0.292100  0.183600  1
  H  H199  1  0.424600  0.728100  0.902100  1
  H  H200  1  0.575400  0.271900  0.097900  1
  H  H201  1  0.427400  0.729300  0.961200  1
  H  H202  1  0.572600  0.270700  0.038800  1
  H  H203  1  0.478700  0.666500  0.997700  1
  H  H204  1  0.521300  0.333500  0.002300  1
  H  H205  1  0.531200  0.605400  0.971800  1
  H  H206  1  0.468800  0.394600  0.028200  1
  H  H207  1  0.566800  0.572300  0.915800  1
  H  H208  1  0.433200  0.427700  0.084200  1
  H  H209  1  0.598600  0.501600  0.818900  1
  H  H210  1  0.401400  0.498400  0.181100  1
  H  H211  1  0.601700  0.500700  0.713600  1
  H  H212  1  0.398300  0.499300  0.286400  1
  H  H213  1  0.522800  0.618400  0.749500  1
  H  H214  1  0.477200  0.381600  0.250500  1
  H  H215  1  0.591600  0.559200  0.598300  1
  H  H216  1  0.408400  0.440800  0.401700  1
  H  H217  1  0.577100  0.579800  0.532300  1
  H  H218  1  0.422900  0.420200  0.467700  1
  H  H219  1  0.524700  0.619900  0.486400  1
  H  H220  1  0.475300  0.380100  0.513600  1
  H  H221  1  0.449000  0.670100  0.501000  1
  H  H222  1  0.551000  0.329900  0.499000  1
  H  H223  1  0.429200  0.684000  0.558400  1
  H  H224  1  0.570800  0.316000  0.441600  1
  H  H225  1  0.605900  0.708600  0.597500  1
  H  H226  1  0.394100  0.291400  0.402500  1
  H  H227  1  0.643700  0.794900  0.573200  1
  H  H228  1  0.356300  0.205100  0.426800  1
  H  H229  1  0.586000  0.867800  0.567300  1
  H  H230  1  0.414000  0.132200  0.432700  1
  H  H231  1  0.489300  0.851500  0.589700  1
  H  H232  1  0.510700  0.148500  0.410300  1
  H  H233  1  0.407400  0.786000  0.622900  1
  H  H234  1  0.592600  0.214000  0.377100  1
  H  H235  1  0.263600  0.686800  0.680300  1
  H  H236  1  0.736400  0.313200  0.319700  1
  H  H237  1  0.166600  0.551100  0.730500  1
  H  H238  1  0.833400  0.448900  0.269500  1
  H  H239  1  0.330100  0.541200  0.687300  1
  H  H240  1  0.669900  0.458800  0.312700  1
  H  H241  1  0.126300  0.368000  0.765900  1
  H  H242  1  0.873700  0.632000  0.234100  1
  H  H243  1  0.103800  0.268100  0.789600  1
  H  H244  1  0.896200  0.731900  0.210400  1
  H  H245  1  0.133100  0.178900  0.799100  1
  H  H246  1  0.866900  0.821100  0.200900  1
  H  H247  1  0.226800  0.164400  0.780900  1
  H  H248  1  0.773200  0.835600  0.219100  1
  H  H249  1  0.289900  0.236000  0.757200  1
  H  H250  1  0.710100  0.764000  0.242800  1
  H  H251  1  0.156700  0.894200  0.209200  1
  H  H252  1  0.843300  0.105800  0.790800  1
  H  H253  1  0.392500  0.861400  0.385400  1
  H  H254  1  0.607500  0.138600  0.614600  1
  H  H255  1  0.445400  0.811400  0.426300  1
  H  H256  1  0.554600  0.188600  0.573700  1
  H  H257  1  0.443700  0.718400  0.442500  1
  H  H258  1  0.556300  0.281600  0.557500  1
  H  H259  1  0.391100  0.677100  0.413800  1
  H  H260  1  0.608900  0.322900  0.586200  1
  H  H261  1  0.330600  0.685200  0.366400  1
  H  H262  1  0.669400  0.314800  0.633600  1
  H  H263  1  0.195400  0.688500  0.312900  1
  H  H264  1  0.804600  0.311500  0.687100  1
  H  H265  1  0.100700  0.729800  0.234500  1
  H  H266  1  0.899300  0.270200  0.765500  1
  H  H267  1  0.203600  0.841200  0.241400  1
  H  H268  1  0.796400  0.158800  0.758600  1
  H  H269  1  0.083500  0.889500  0.143700  1
  H  H270  1  0.916500  0.110500  0.856300  1
  H  H271  1  0.041500  0.938900  0.089300  1
  H  H272  1  0.958500  0.061100  0.910700  1
  H  H273  1  0.023700  0.020700  0.045400  1
  H  H274  1  0.976300  0.979300  0.954600  1
  H  H275  1  0.058700  0.100400  0.047100  1
  H  H276  1  0.941300  0.899600  0.952900  1
  H  H277  1  0.113700  0.098300  0.089000  1
  H  H278  1  0.886300  0.901700  0.911000  1
  H  H279  1  0.104900  0.032600  0.219200  1
  H  H280  1  0.895100  0.967400  0.780800  1
  H  H281  1  0.250500  0.997400  0.084000  1
  H  H282  1  0.749500  0.002600  0.916000  1
  H  H283  1  0.336500  0.039600  0.056900  1
  H  H284  1  0.663500  0.960400  0.943100  1
  H  H285  1  0.366200  0.104300  0.078500  1
  H  H286  1  0.633800  0.895700  0.921500  1
  H  H287  1  0.308900  0.122000  0.130500  1
  H  H288  1  0.691100  0.878000  0.869500  1
  H  H289  1  0.223100  0.099100  0.182800  1
  H  H290  1  0.776900  0.900900  0.817200  1
  H  H291  1  0.117300  0.149100  0.276100  1
  H  H292  1  0.882700  0.850900  0.723900  1
  H  H293  1  0.957200  0.111200  0.330700  1
  H  H294  1  0.042800  0.888800  0.669300  1
  H  H295  1  0.023900  0.053400  0.245900  1
  H  H296  1  0.976100  0.946600  0.754100  1
  H  H297  1  0.787300  0.054500  0.356800  1
  H  H298  1  0.212700  0.945500  0.643200  1
  H  H299  1  0.686900  0.028000  0.373500  1
  H  H300  1  0.313100  0.972000  0.626500  1
  H  H301  1  0.612500  0.981400  0.366000  1
  H  H302  1  0.387500  0.018600  0.634000  1
  H  H303  1  0.630500  0.932800  0.324400  1
  H  H304  1  0.369500  0.067200  0.675600  1
  H  H305  1  0.720400  0.926900  0.293700  1
  H  H306  1  0.279600  0.073100  0.706300  1
  H  H307  1  0.837600  0.110500  0.235800  1
  H  H308  1  0.162400  0.889500  0.764200  1
  H  H309  1  0.811600  0.154500  0.179800  1
  H  H310  1  0.188400  0.845500  0.820200  1
  H  H311  1  0.796100  0.106300  0.141800  1
  H  H312  1  0.203900  0.893700  0.858200  1
  H  H313  1  0.802500  0.011800  0.163000  1
  H  H314  1  0.197500  0.988200  0.837000  1
  H  H315  1  0.816000  0.926500  0.213800  1
  H  H316  1  0.184000  0.073500  0.786200  1
  H  H317  1  0.863500  0.779900  0.293700  1
  H  H318  1  0.136500  0.220100  0.706300  1
  H  H319  1  0.930900  0.684200  0.378400  1
  H  H320  1  0.069100  0.315800  0.621600  1
  H  H321  1  0.910200  0.842300  0.366700  1
  H  H322  1  0.089800  0.157700  0.633300  1
  H  H323  1  0.005100  0.641800  0.477400  1
  H  H324  1  0.994900  0.358200  0.522600  1
  H  H325  1  0.041500  0.612400  0.537600  1
  H  H326  1  0.958500  0.387600  0.462400  1
  H  H327  1  0.073100  0.634400  0.584900  1
  H  H328  1  0.926900  0.365600  0.415100  1
  H  H329  1  0.071500  0.723300  0.583500  1
  H  H330  1  0.928500  0.276700  0.416500  1
  H  H331  1  0.035000  0.787400  0.538500  1
  H  H332  1  0.965000  0.212600  0.461500  1
  H  H333  1  0.863500  0.710500  0.511100  1
  H  H334  1  0.136500  0.289500  0.488900  1
  H  H335  1  0.772000  0.729500  0.530200  1
  H  H336  1  0.228000  0.270500  0.469800  1
  H  H337  1  0.749200  0.814600  0.533400  1
  H  H338  1  0.250800  0.185400  0.466600  1
  H  H339  1  0.820300  0.881700  0.513500  1
  H  H340  1  0.179700  0.118300  0.486500  1
  H  H341  1  0.920100  0.910800  0.486600  1
  H  H342  1  0.079900  0.089200  0.513400  1
  H  H343  1  0.094600  0.965200  0.457400  1
  H  H344  1  0.905400  0.034800  0.542600  1
  H  H345  1  0.251000  0.991000  0.394200  1
  H  H346  1  0.749000  0.009000  0.605800  1
  H  H347  1  0.160100  0.859900  0.404000  1
  H  H348  1  0.839900  0.140100  0.596000  1
  H  H349  1  0.391500  0.969200  0.304600  1
  H  H350  1  0.608500  0.030800  0.695400  1
  H  H351  1  0.464500  0.961900  0.248600  1
  H  H352  1  0.535500  0.038100  0.751400  1
  H  H353  1  0.506900  0.910800  0.210500  1
  H  H354  1  0.493100  0.089200  0.789500  1
  H  H355  1  0.468800  0.826500  0.220700  1
  H  H356  1  0.531200  0.173500  0.779300  1
  H  H357  1  0.388300  0.796200  0.265200  1
  H  H358  1  0.611700  0.203800  0.734800  1
  H  H359  1  0.099800  0.063400  0.961900  1
  H  H360  1  0.900200  0.936600  0.038100  1
  H  H361  1  0.380100  0.791600  0.174300  1
  H  H362  1  0.619900  0.208400  0.825700  1
  H  H363  1  0.367800  0.716200  0.226800  1
  H  H364  1  0.632200  0.283800  0.773200  1
  H  H365  1  0.286800  0.663700  0.244700  1
  H  H366  1  0.713200  0.336300  0.755300  1
  H  H367  1  0.220500  0.686300  0.206500  1
  H  H368  1  0.779500  0.313700  0.793500  1
  H  H369  1  0.194700  0.741600  0.146200  1
  H  H370  1  0.805300  0.258400  0.853800  1
  H  H371  1  0.111900  0.845500  0.059800  1
  H  H372  1  0.888100  0.154500  0.940200  1
  H  H373  1  0.079800  0.982500  0.981800  1
  H  H374  1  0.920200  0.017500  0.018200  1
  H  H375  1  0.218700  0.974300  0.023800  1
  H  H376  1  0.781300  0.025700  0.976200  1
  H  H377  1  0.079600  0.146700  0.921300  1
  H  H378  1  0.920400  0.853300  0.078700  1
  H  H379  1  0.069500  0.242800  0.882100  1
  H  H380  1  0.930500  0.757200  0.117900  1
  H  H381  1  0.106900  0.331200  0.851900  1
  H  H382  1  0.893100  0.668800  0.148100  1
  H  H383  1  0.196800  0.349800  0.854900  1
  H  H384  1  0.803200  0.650200  0.145100  1
  H  H385  1  0.249400  0.281500  0.884200  1
  H  H386  1  0.750600  0.718500  0.115800  1
  H  H387  1  0.219400  0.105800  0.869200  1
  H  H388  1  0.780600  0.894200  0.130800  1
  H  H389  1  0.282300  0.087600  0.821600  1
  H  H390  1  0.717700  0.912400  0.178400  1
  H  H391  1  0.376100  0.108100  0.812600  1
  H  H392  1  0.623900  0.891900  0.187400  1
  H  H393  1  0.405500  0.143100  0.855000  1
  H  H394  1  0.594500  0.856900  0.145000  1
  H  H395  1  0.383200  0.172700  0.912400  1
  H  H396  1  0.616800  0.827300  0.087600  1
  H  H397  1  0.344200  0.218300  0.015100  1
  H  H398  1  0.655800  0.781700  0.984900  1
  H  H399  1  0.253700  0.243400  0.108600  1
  H  H400  1  0.746300  0.756600  0.891400  1
  H  H401  1  0.178300  0.185300  0.044800  1
  H  H402  1  0.821700  0.814700  0.955200  1
  H  H403  1  0.109300  0.249600  0.194700  1
  H  H404  1  0.890700  0.750400  0.805300  1
  H  H405  1  0.031300  0.248700  0.249100  1
  H  H406  1  0.968700  0.751300  0.750900  1
  H  H407  1  0.935700  0.238700  0.277100  1
  H  H408  1  0.064300  0.761300  0.722900  1
  H  H409  1  0.874600  0.215200  0.246100  1
  H  H410  1  0.125400  0.784800  0.753900  1
  H  H411  1  0.908200  0.197400  0.190800  1
  H  H412  1  0.091800  0.802600  0.809200  1
  H  H413  1  0.052800  0.338300  0.106500  1
  H  H414  1  0.947200  0.661700  0.893500  1
  H  H415  1  0.024000  0.412300  0.063900  1
  H  H416  1  0.976000  0.587700  0.936100  1
  H  H417  1  0.970300  0.401000  0.024000  1
  H  H418  1  0.029700  0.599000  0.976000  1
  H  H419  1  0.942000  0.313000  0.030500  1
  H  H420  1  0.058000  0.687000  0.969500  1
  H  H421  1  0.941100  0.213100  0.063100  1
  H  H422  1  0.058900  0.786900  0.936900  1
  H  H423  1  0.932500  0.036500  0.118500  1
  H  H424  1  0.067500  0.963500  0.881500  1
  H  H425  1  0.954800  0.894700  0.195700  1
  H  H426  1  0.045200  0.105300  0.804300  1
  H  H427  1  0.018000  0.033300  0.198100  1
  H  H428  1  0.982000  0.966700  0.801900  1
  H  H429  1  0.009000  0.785700  0.297800  1
  H  H430  1  0.991000  0.214300  0.702200  1
  H  H431  1  0.048200  0.720600  0.350700  1
  H  H432  1  0.951800  0.279400  0.649300  1
  H  H433  1  0.111600  0.702400  0.391000  1
  H  H434  1  0.888400  0.297600  0.609000  1
  H  H435  1  0.170300  0.771500  0.387600  1
  H  H436  1  0.829700  0.228500  0.612400  1
  H  H437  1  0.162800  0.857000  0.347700  1
  H  H438  1  0.837200  0.143000  0.652300  1
  H  H439  1  0.958000  0.913700  0.337400  1
  H  H440  1  0.042000  0.086300  0.662600  1
  H  H441  1  0.912300  0.950600  0.381800  1
  H  H442  1  0.087700  0.049400  0.618200  1
  H  H443  1  0.961600  0.001100  0.404900  1
  H  H444  1  0.038400  0.998900  0.595100  1
  H  H445  1  0.057700  0.017700  0.379600  1
  H  H446  1  0.942300  0.982300  0.620400  1
  H  H447  1  0.144600  0.006200  0.334300  1
  H  H448  1  0.855400  0.993800  0.665700  1
  H  H449  1  0.288500  0.019000  0.247800  1
  H  H450  1  0.711500  0.981000  0.752200  1
  H  H451  1  0.394100  0.991800  0.160000  1
  H  H452  1  0.605900  0.008200  0.840000  1
  H  H453  1  0.242300  0.916600  0.199300  1
  H  H454  1  0.757700  0.083400  0.800700  1
  H  H455  1  0.454700  0.902500  0.071300  1
  H  H456  1  0.545300  0.097500  0.928700  1
  H  H457  1  0.485400  0.851500  0.025600  1
  H  H458  1  0.514600  0.148500  0.974400  1
  H  H459  1  0.465700  0.788700  0.997400  1
  H  H460  1  0.534300  0.211300  0.002600  1
  H  H461  1  0.377400  0.748900  0.015100  1
  H  H462  1  0.622600  0.251100  0.984900  1
  H  H463  1  0.309500  0.774300  0.057000  1
  H  H464  1  0.690500  0.225700  0.943000  1
  H  H465  1  0.392600  0.619600  0.280400  1
  H  H466  1  0.607400  0.380400  0.719600  1
  H  H467  1  0.484600  0.724000  0.299100  1
  H  H468  1  0.515400  0.276000  0.700900  1
  H  H469  1  0.464000  0.671000  0.333900  1
  H  H470  1  0.536000  0.329000  0.666100  1
  H  H471  1  0.421100  0.717000  0.321100  1
  H  H472  1  0.578900  0.283000  0.678900  1
  H  H473  1  0.501600  0.715100  0.246400  1
  H  H474  1  0.498400  0.284900  0.753600  1
  H  H475  1  0.450300  0.701900  0.231100  1
  H  H476  1  0.549700  0.298100  0.768900  1
  H  H477  1  0.492900  0.656000  0.244800  1
  H  H478  1  0.507100  0.344000  0.755200  1
  H  H479  1  0.222600  0.906300  0.497500  1
  H  H480  1  0.777400  0.093700  0.502500  1
  H  H481  1  0.316600  0.817200  0.451400  1
  H  H482  1  0.683400  0.182800  0.548600  1
  H  H483  1  0.251900  0.810400  0.452600  1
  H  H484  1  0.748100  0.189600  0.547400  1
  H  H485  1  0.275200  0.786600  0.490200  1
  H  H486  1  0.724800  0.213400  0.509800  1
  H  H487  1  0.345600  0.893300  0.444900  1
  H  H488  1  0.654400  0.106700  0.555100  1
  H  H489  1  0.324600  0.916100  0.479100  1
  H  H490  1  0.675400  0.083900  0.520900  1
  H  H491  1  0.301200  0.939800  0.441500  1
  H  H492  1  0.698800  0.060200  0.558500  1
  H  H493  1  0.299200  0.779800  0.777000  1
  H  H494  1  0.700800  0.220200  0.223000  1
  H  H495  1  0.322100  0.937600  0.746900  1
  H  H496  1  0.677900  0.062400  0.253100  1
  H  H497  1  0.366800  0.902000  0.768100  1
  H  H498  1  0.633200  0.098000  0.231900  1
  H  H499  1  0.305600  0.906600  0.791000  1
  H  H500  1  0.694400  0.093400  0.209000  1
  H  H501  1  0.288700  0.906800  0.712600  1
  H  H502  1  0.711300  0.093200  0.287400  1
  H  H503  1  0.248900  0.854300  0.732600  1
  H  H504  1  0.751100  0.145700  0.267400  1
  H  H505  1  0.310100  0.849700  0.709700  1
  H  H506  1  0.689900  0.150300  0.290300  1
  H  H507  1  0.758400  0.704100  0.367500  1
  H  H508  1  0.241600  0.295900  0.632500  1
  H  H509  1  0.813100  0.712500  0.454900  1
  H  H510  1  0.186900  0.287500  0.545100  1
  H  H511  1  0.757400  0.743700  0.447600  1
  H  H512  1  0.242600  0.256300  0.552400  1
  H  H513  1  0.816000  0.767500  0.420900  1
  H  H514  1  0.184000  0.232500  0.579100  1
  H  H515  1  0.825100  0.642200  0.441300  1
  H  H516  1  0.174900  0.357800  0.558700  1
  H  H517  1  0.836400  0.648000  0.397800  1
  H  H518  1  0.163600  0.352000  0.602200  1
  H  H519  1  0.777800  0.624300  0.424500  1
  H  H520  1  0.222200  0.375700  0.575500  1
  H  H521  1  0.285700  0.934200  0.472700  1
  H  H522  1  0.714300  0.065800  0.527300  1
  H  H523  1  0.218700  0.793100  0.485700  1
  H  H524  1  0.781300  0.206900  0.514300  1
  H  H525  1  0.285200  0.797000  0.476700  1
  H  H526  1  0.714800  0.203000  0.523300  1
  H  H527  1  0.252100  0.825200  0.444400  1
  H  H528  1  0.747900  0.174800  0.555600  1
  H  H529  1  0.177000  0.838500  0.517500  1
  H  H530  1  0.823000  0.161500  0.482500  1
  H  H531  1  0.181300  0.902400  0.498300  1
  H  H532  1  0.818700  0.097600  0.501700  1
  H  H533  1  0.214400  0.874100  0.530700  1
  H  H534  1  0.785600  0.125900  0.469300  1
  C  C535  1  0.200300  0.688500  0.501200  1
  C  C536  1  0.799700  0.311500  0.498800  1
  C  C537  1  0.181700  0.696200  0.468900  1
  C  C538  1  0.818300  0.303800  0.531100  1
  C  C539  1  0.208200  0.673200  0.443200  1
  C  C540  1  0.791800  0.326800  0.556800  1
  C  C541  1  0.253200  0.641200  0.451100  1
  C  C542  1  0.746800  0.358800  0.548900  1
  C  C543  1  0.269000  0.634700  0.484200  1
  C  C544  1  0.731000  0.365300  0.515800  1
  C  C545  1  0.315500  0.598900  0.494000  1
  C  C546  1  0.684500  0.401100  0.506000  1
  C  C547  1  0.376500  0.556000  0.571300  1
  C  C548  1  0.623500  0.444000  0.428700  1
  C  C549  1  0.419200  0.520400  0.587900  1
  C  C550  1  0.580800  0.479600  0.412100  1
  C  C551  1  0.457000  0.494800  0.567300  1
  C  C552  1  0.543000  0.505200  0.432700  1
  C  C553  1  0.496600  0.462200  0.583700  1
  C  C554  1  0.503400  0.537800  0.416300  1
  C  C555  1  0.498400  0.455200  0.620700  1
  C  C556  1  0.501600  0.544800  0.379300  1
  C  C557  1  0.460700  0.480800  0.641300  1
  C  C558  1  0.539300  0.519200  0.358700  1
  C  C559  1  0.421100  0.513400  0.624900  1
  C  C560  1  0.578900  0.486600  0.375100  1
  C  C561  1  0.464700  0.467600  0.681700  1
  C  C562  1  0.535300  0.532400  0.318300  1
  C  C563  1  0.462000  0.458200  0.758100  1
  C  C564  1  0.538000  0.541800  0.241900  1
  C  C565  1  0.456500  0.459600  0.796900  1
  C  C566  1  0.543500  0.540400  0.203100  1
  C  C567  1  0.479100  0.419700  0.822100  1
  C  C568  1  0.520900  0.580300  0.177900  1
  C  C569  1  0.475300  0.423100  0.857700  1
  C  C570  1  0.524700  0.576900  0.142300  1
  C  C571  1  0.449800  0.465900  0.865900  1
  C  C572  1  0.550200  0.534100  0.134100  1
  C  C573  1  0.427400  0.503900  0.839500  1
  C  C574  1  0.572600  0.496100  0.160500  1
  C  C575  1  0.280100  0.491600  0.797600  1
  C  C576  1  0.719900  0.508400  0.202400  1
  C  C577  1  0.224600  0.494100  0.812100  1
  C  C578  1  0.775400  0.505900  0.187900  1
  C  C579  1  0.202200  0.542400  0.811800  1
  C  C580  1  0.797800  0.457600  0.188200  1
  C  C581  1  0.236400  0.588400  0.795800  1
  C  C582  1  0.763600  0.411600  0.204200  1
  C  C583  1  0.291200  0.582900  0.781300  1
  C  C584  1  0.708800  0.417100  0.218700  1
  C  C585  1  0.328200  0.631700  0.762700  1
  C  C586  1  0.671800  0.368300  0.237300  1
  C  C587  1  0.416300  0.714300  0.734500  1
  C  C588  1  0.583700  0.285700  0.265500  1
  C  C589  1  0.464200  0.751200  0.713200  1
  C  C590  1  0.535800  0.248800  0.286800  1
  C  C591  1  0.453400  0.805700  0.704500  1
  C  C592  1  0.546600  0.194300  0.295500  1
  C  C593  1  0.496000  0.843800  0.684700  1
  C  C594  1  0.504000  0.156200  0.315300  1
  C  C595  1  0.549300  0.827300  0.673600  1
  C  C596  1  0.450700  0.172700  0.326400  1
  C  C597  1  0.560000  0.772800  0.682300  1
  C  C598  1  0.440000  0.227200  0.317700  1
  C  C599  1  0.517500  0.734800  0.702100  1
  C  C600  1  0.482500  0.265200  0.297900  1
  C  C601  1  0.614100  0.750100  0.671100  1
  C  C602  1  0.385900  0.249900  0.328900  1
  C  C603  1  0.754000  0.793900  0.631500  1
  C  C604  1  0.246000  0.206100  0.368500  1
  C  C605  1  0.804600  0.765700  0.619900  1
  C  C606  1  0.195400  0.234300  0.380100  1
  C  C607  1  0.854200  0.793900  0.604600  1
  C  C608  1  0.145800  0.206100  0.395400  1
  C  C609  1  0.901300  0.766200  0.595300  1
  C  C610  1  0.098700  0.233800  0.404700  1
  C  C611  1  0.896200  0.712300  0.602200  1
  C  C612  1  0.103800  0.287700  0.397800  1
  C  C613  1  0.845000  0.686800  0.617100  1
  C  C614  1  0.155000  0.313200  0.382900  1
  C  C615  1  0.716500  0.671100  0.734400  1
  C  C616  1  0.283500  0.328900  0.265600  1
  C  C617  1  0.721400  0.640600  0.769800  1
  C  C618  1  0.278600  0.359400  0.230200  1
  C  C619  1  0.725600  0.586400  0.778500  1
  C  C620  1  0.274400  0.413600  0.221500  1
  C  C621  1  0.726200  0.563400  0.750700  1
  C  C622  1  0.273800  0.436600  0.249300  1
  C  C623  1  0.722000  0.596400  0.715700  1
  C  C624  1  0.278000  0.403600  0.284300  1
  C  C625  1  0.724900  0.573100  0.685000  1
  C  C626  1  0.275100  0.426900  0.315000  1
  C  C627  1  0.704000  0.639400  0.594900  1
  C  C628  1  0.296000  0.360600  0.405100  1
  C  C629  1  0.698600  0.634900  0.559300  1
  C  C630  1  0.301400  0.365100  0.440700  1
  C  C631  1  0.717400  0.589900  0.549300  1
  C  C632  1  0.282600  0.410100  0.450700  1
  C  C633  1  0.712000  0.586100  0.515000  1
  C  C634  1  0.288000  0.413900  0.485000  1
  C  C635  1  0.687800  0.627300  0.490800  1
  C  C636  1  0.312200  0.372700  0.509200  1
  C  C637  1  0.669100  0.672300  0.500800  1
  C  C638  1  0.330900  0.327700  0.499200  1
  C  C639  1  0.674500  0.676000  0.535000  1
  C  C640  1  0.325500  0.324000  0.465000  1
  C  C641  1  0.642900  0.716400  0.476600  1
  C  C642  1  0.357100  0.283600  0.523400  1
  C  C643  1  0.602900  0.763600  0.390600  1
  C  C644  1  0.397100  0.236400  0.609400  1
  C  C645  1  0.574500  0.814400  0.375500  1
  C  C646  1  0.425500  0.185600  0.624500  1
  C  C647  1  0.558100  0.824900  0.342200  1
  C  C648  1  0.441900  0.175100  0.657800  1
  C  C649  1  0.529700  0.871700  0.329500  1
  C  C650  1  0.470300  0.128300  0.670500  1
  C  C651  1  0.519000  0.904700  0.350800  1
  C  C652  1  0.481000  0.095300  0.649200  1
  C  C653  1  0.537500  0.892100  0.383600  1
  C  C654  1  0.462500  0.107900  0.616400  1
  C  C655  1  0.722900  0.858500  0.405300  1
  C  C656  1  0.277100  0.141500  0.594700  1
  C  C657  1  0.770700  0.883900  0.404900  1
  C  C658  1  0.229300  0.116100  0.595100  1
  C  C659  1  0.769000  0.916800  0.426000  1
  C  C660  1  0.231000  0.083200  0.574000  1
  C  C661  1  0.718500  0.922900  0.448300  1
  C  C662  1  0.281500  0.077100  0.551700  1
  C  C663  1  0.672600  0.895600  0.447700  1
  C  C664  1  0.327400  0.104400  0.552300  1
  C  C665  1  0.618500  0.899500  0.472500  1
  C  C666  1  0.381500  0.100500  0.527500  1
  C  C667  1  0.488500  0.836800  0.494500  1
  C  C668  1  0.511500  0.163200  0.505500  1
  C  C669  1  0.429100  0.835700  0.516600  1
  C  C670  1  0.570900  0.164300  0.483400  1
  C  C671  1  0.407000  0.879500  0.526800  1
  C  C672  1  0.593000  0.120500  0.473200  1
  C  C673  1  0.352700  0.876500  0.547100  1
  C  C674  1  0.647300  0.123500  0.452900  1
  C  C675  1  0.320500  0.829700  0.557100  1
  C  C676  1  0.679500  0.170300  0.442900  1
  C  C677  1  0.342500  0.785900  0.546800  1
  C  C678  1  0.657500  0.214100  0.453200  1
  C  C679  1  0.396800  0.788900  0.526500  1
  C  C680  1  0.603200  0.211100  0.473500  1
  C  C681  1  0.311500  0.733100  0.556300  1
  C  C682  1  0.688500  0.266900  0.443700  1
  C  C683  1  0.197100  0.657900  0.612400  1
  C  C684  1  0.802900  0.342100  0.387600  1
  C  C685  1  0.185700  0.601100  0.616100  1
  C  C686  1  0.814300  0.398900  0.383900  1
  C  C687  1  0.140700  0.573500  0.642000  1
  C  C688  1  0.859300  0.426500  0.358000  1
  C  C689  1  0.129700  0.521200  0.643800  1
  C  C690  1  0.870300  0.478800  0.356200  1
  C  C691  1  0.163700  0.499700  0.619800  1
  C  C692  1  0.836300  0.500300  0.380200  1
  C  C693  1  0.208500  0.529300  0.595000  1
  C  C694  1  0.791500  0.470700  0.405000  1
  C  C695  1  0.283000  0.396000  0.644300  1
  C  C696  1  0.717000  0.604000  0.355700  1
  C  C697  1  0.309200  0.401900  0.608100  1
  C  C698  1  0.690800  0.598100  0.391900  1
  C  C699  1  0.363400  0.388900  0.600300  1
  C  C700  1  0.636600  0.611100  0.399700  1
  C  C701  1  0.390700  0.368600  0.629700  1
  C  C702  1  0.609300  0.631400  0.370300  1
  C  C703  1  0.361700  0.363000  0.665300  1
  C  C704  1  0.638300  0.637000  0.334700  1
  C  C705  1  0.389200  0.339300  0.697500  1
  C  C706  1  0.610800  0.660700  0.302500  1
  C  C707  1  0.349100  0.341300  0.789100  1
  C  C708  1  0.650900  0.658700  0.210900  1
  C  C709  1  0.367600  0.326000  0.825100  1
  C  C710  1  0.632400  0.674000  0.174900  1
  C  C711  1  0.413300  0.295200  0.833100  1
  C  C712  1  0.586700  0.704800  0.166900  1
  C  C713  1  0.426700  0.283800  0.868000  1
  C  C714  1  0.573300  0.716200  0.132000  1
  C  C715  1  0.394300  0.303200  0.894900  1
  C  C716  1  0.605700  0.696800  0.105100  1
  C  C717  1  0.348600  0.333900  0.886900  1
  C  C718  1  0.651400  0.666100  0.113100  1
  C  C719  1  0.335200  0.345300  0.852000  1
  C  C720  1  0.664800  0.654700  0.148000  1
  C  C721  1  0.310600  0.353000  0.914000  1
  C  C722  1  0.689400  0.647000  0.086000  1
  C  C723  1  0.284500  0.362600  0.003800  1
  C  C724  1  0.715500  0.637400  0.996200  1
  C  C725  1  0.235600  0.382800  0.025000  1
  C  C726  1  0.764400  0.617200  0.975000  1
  C  C727  1  0.234100  0.379500  0.061400  1
  C  C728  1  0.765900  0.620500  0.938600  1
  C  C729  1  0.189000  0.400500  0.080100  1
  C  C730  1  0.811000  0.599500  0.919900  1
  C  C731  1  0.148700  0.423800  0.061500  1
  C  C732  1  0.851300  0.576200  0.938500  1
  C  C733  1  0.152500  0.425100  0.025200  1
  C  C734  1  0.847500  0.574900  0.974800  1
  C  C735  1  0.148500  0.285200  0.978600  1
  C  C736  1  0.851500  0.714800  0.021400  1
  C  C737  1  0.103000  0.252400  0.984900  1
  C  C738  1  0.897000  0.747600  0.015100  1
  C  C739  1  0.054800  0.274200  0.976000  1
  C  C740  1  0.945200  0.725800  0.024000  1
  C  C741  1  0.053400  0.329600  0.959800  1
  C  C742  1  0.946600  0.670400  0.040200  1
  C  C743  1  0.100600  0.359800  0.953800  1
  C  C744  1  0.899400  0.640200  0.046200  1
  C  C745  1  0.100900  0.418900  0.935100  1
  C  C746  1  0.899100  0.581100  0.064900  1
  C  C747  1  0.209400  0.514100  0.911500  1
  C  C748  1  0.790600  0.485900  0.088500  1
  C  C749  1  0.226400  0.570600  0.893700  1
  C  C750  1  0.773600  0.429400  0.106300  1
  C  C751  1  0.186900  0.609800  0.887000  1
  C  C752  1  0.813100  0.390200  0.113000  1
  C  C753  1  0.203600  0.663600  0.870000  1
  C  C754  1  0.796400  0.336400  0.130000  1
  C  C755  1  0.259800  0.678300  0.859800  1
  C  C756  1  0.740200  0.321700  0.140200  1
  C  C757  1  0.299300  0.639000  0.866600  1
  C  C758  1  0.700700  0.361000  0.133400  1
  C  C759  1  0.282600  0.585200  0.883500  1
  C  C760  1  0.717400  0.414800  0.116500  1
  C  C761  1  0.362300  0.651600  0.856300  1
  C  C762  1  0.637700  0.348400  0.143700  1
  C  C763  1  0.450200  0.765500  0.806400  1
  C  C764  1  0.549800  0.234500  0.193600  1
  C  C765  1  0.511800  0.771400  0.795700  1
  C  C766  1  0.488200  0.228600  0.204300  1
  C  C767  1  0.536000  0.817900  0.769500  1
  C  C768  1  0.464000  0.182100  0.230500  1
  C  C769  1  0.593700  0.823200  0.761000  1
  C  C770  1  0.406300  0.176800  0.239000  1
  C  C771  1  0.623300  0.782400  0.779200  1
  C  C772  1  0.376700  0.217600  0.220800  1
  C  C773  1  0.596300  0.736600  0.804700  1
  C  C774  1  0.403700  0.263400  0.195300  1
  C  C775  1  0.447300  0.703400  0.916200  1
  C  C776  1  0.552700  0.296600  0.083800  1
  C  C777  1  0.448100  0.703700  0.951600  1
  C  C778  1  0.551900  0.296300  0.048400  1
  C  C779  1  0.478500  0.667200  0.972900  1
  C  C780  1  0.521500  0.332800  0.027100  1
  C  C781  1  0.509300  0.631200  0.957700  1
  C  C782  1  0.490700  0.368800  0.042300  1
  C  C783  1  0.507200  0.633800  0.922000  1
  C  C784  1  0.492800  0.366200  0.078000  1
  C  C785  1  0.541600  0.597200  0.904500  1
  C  C786  1  0.458400  0.402800  0.095500  1
  C  C787  1  0.540700  0.589300  0.817800  1
  C  C788  1  0.459300  0.410700  0.182200  1
  C  C789  1  0.558100  0.563700  0.788700  1
  C  C790  1  0.441900  0.436300  0.211300  1
  C  C791  1  0.588700  0.517300  0.795300  1
  C  C792  1  0.411300  0.482700  0.204700  1
  C  C793  1  0.605000  0.493800  0.767300  1
  C  C794  1  0.395000  0.506200  0.232700  1
  C  C795  1  0.590600  0.516700  0.732700  1
  C  C796  1  0.409400  0.483300  0.267300  1
  C  C797  1  0.560000  0.563200  0.726100  1
  C  C798  1  0.440000  0.436800  0.273900  1
  C  C799  1  0.543700  0.586700  0.754100  1
  C  C800  1  0.456300  0.413300  0.245900  1
  C  C801  1  0.543200  0.587600  0.690200  1
  C  C802  1  0.456800  0.412400  0.309800  1
  C  C803  1  0.562100  0.583000  0.601200  1
  C  C804  1  0.437900  0.417000  0.398800  1
  C  C805  1  0.531200  0.609400  0.571300  1
  C  C806  1  0.468800  0.390600  0.428700  1
  C  C807  1  0.546300  0.601100  0.537300  1
  C  C808  1  0.453700  0.398900  0.462700  1
  C  C809  1  0.515300  0.624600  0.510300  1
  C  C810  1  0.484700  0.375400  0.489700  1
  C  C811  1  0.471300  0.654400  0.518900  1
  C  C812  1  0.528700  0.345600  0.481100  1
  C  C813  1  0.459100  0.661800  0.553300  1
  C  C814  1  0.540900  0.338200  0.446700  1
  C  C815  1  0.581900  0.738000  0.596500  1
  C  C816  1  0.418100  0.262000  0.403500  1
  C  C817  1  0.604600  0.789300  0.581400  1
  C  C818  1  0.395400  0.210700  0.418600  1
  C  C819  1  0.570900  0.832100  0.578200  1
  C  C820  1  0.429100  0.167900  0.421800  1
  C  C821  1  0.514000  0.822500  0.591300  1
  C  C822  1  0.486000  0.177500  0.408700  1
  C  C823  1  0.494300  0.770300  0.606600  1
  C  C824  1  0.505700  0.229700  0.393400  1
  C  C825  1  0.433900  0.758900  0.622200  1
  C  C826  1  0.566100  0.241100  0.377800  1
  C  C827  1  0.364400  0.642300  0.660400  1
  C  C828  1  0.635600  0.357700  0.339600  1
  C  C829  1  0.305000  0.617900  0.680900  1
  C  C830  1  0.695000  0.382100  0.319100  1
  C  C831  1  0.259500  0.648700  0.688100  1
  C  C832  1  0.740500  0.351300  0.311900  1
  C  C833  1  0.207900  0.623800  0.706600  1
  C  C834  1  0.792100  0.376200  0.293400  1
  C  C835  1  0.201900  0.568100  0.717900  1
  C  C836  1  0.798100  0.431900  0.282100  1
  C  C837  1  0.247400  0.537300  0.710700  1
  C  C838  1  0.752600  0.462700  0.289300  1
  C  C839  1  0.299000  0.562200  0.692200  1
  C  C840  1  0.701000  0.437800  0.307800  1
  C  C841  1  0.250600  0.475700  0.720500  1
  C  C842  1  0.749400  0.524300  0.279500  1
  C  C843  1  0.163800  0.358300  0.759800  1
  C  C844  1  0.836200  0.641700  0.240200  1
  C  C845  1  0.181300  0.301700  0.767400  1
  C  C846  1  0.818700  0.698300  0.232600  1
  C  C847  1  0.142000  0.260800  0.782800  1
  C  C848  1  0.858000  0.739200  0.217200  1
  C  C849  1  0.159200  0.208300  0.788300  1
  C  C850  1  0.840800  0.791700  0.211700  1
  C  C851  1  0.214200  0.199900  0.778000  1
  C  C852  1  0.785800  0.800100  0.222000  1
  C  C853  1  0.251500  0.242800  0.763200  1
  C  C854  1  0.748500  0.757200  0.236800  1
  C  C855  1  0.392900  0.823500  0.390800  1
  C  C856  1  0.607100  0.176500  0.609200  1
  C  C857  1  0.423700  0.793900  0.415600  1
  C  C858  1  0.576300  0.206100  0.584400  1
  C  C859  1  0.423200  0.739400  0.424900  1
  C  C860  1  0.576800  0.260600  0.575100  1
  C  C861  1  0.392100  0.715100  0.408100  1
  C  C862  1  0.607900  0.284900  0.591900  1
  C  C863  1  0.363000  0.747200  0.383100  1
  C  C864  1  0.637000  0.252800  0.616900  1
  C  C865  1  0.331300  0.722400  0.363600  1
  C  C866  1  0.668700  0.277600  0.636400  1
  C  C867  1  0.249800  0.781000  0.300000  1
  C  C868  1  0.750200  0.219000  0.700000  1
  C  C869  1  0.205700  0.767000  0.279800  1
  C  C870  1  0.794300  0.233000  0.720200  1
  C  C871  1  0.183700  0.714800  0.292600  1
  C  C872  1  0.816300  0.285200  0.707400  1
  C  C873  1  0.144600  0.700900  0.275700  1
  C  C874  1  0.855400  0.299100  0.724300  1
  C  C875  1  0.127500  0.739300  0.246000  1
  C  C876  1  0.872500  0.260700  0.754000  1
  C  C877  1  0.149500  0.791600  0.233200  1
  C  C878  1  0.850500  0.208400  0.766800  1
  C  C879  1  0.188600  0.805400  0.250100  1
  C  C880  1  0.811400  0.194600  0.749900  1
  C  C881  1  0.131800  0.832300  0.200800  1
  C  C882  1  0.868200  0.167700  0.799200  1
  C  C883  1  0.097200  0.923200  0.142900  1
  C  C884  1  0.902800  0.076800  0.857100  1
  C  C885  1  0.087200  0.973900  0.114000  1
  C  C886  1  0.912800  0.026100  0.886000  1
  C  C887  1  0.055700  0.972200  0.089000  1
  C  C888  1  0.944300  0.027800  0.911000  1
  C  C889  1  0.045200  0.020300  0.063200  1
  C  C890  1  0.954800  0.979700  0.936800  1
  C  C891  1  0.066100  0.066900  0.064100  1
  C  C892  1  0.933900  0.933100  0.935900  1
  C  C893  1  0.098000  0.065500  0.089500  1
  C  C894  1  0.902000  0.934500  0.910500  1
  C  C895  1  0.262900  0.022400  0.094000  1
  C  C896  1  0.737100  0.977600  0.906000  1
  C  C897  1  0.313800  0.048100  0.077400  1
  C  C898  1  0.686200  0.951900  0.922600  1
  C  C899  1  0.331400  0.085700  0.090200  1
  C  C900  1  0.668600  0.914300  0.909800  1
  C  C901  1  0.297700  0.096200  0.120700  1
  C  C902  1  0.702300  0.903800  0.879300  1
  C  C903  1  0.247900  0.068400  0.136300  1
  C  C904  1  0.752100  0.931600  0.863700  1
  C  C905  1  0.212000  0.077300  0.170000  1
  C  C906  1  0.788000  0.922700  0.830000  1
  C  C907  1  0.121600  0.094500  0.227800  1
  C  C908  1  0.878400  0.905500  0.772200  1
  C  C909  1  0.077700  0.100600  0.256600  1
  C  C910  1  0.922300  0.899400  0.743400  1
  C  C911  1  0.083000  0.131000  0.279400  1
  C  C912  1  0.917000  0.869000  0.720600  1
  C  C913  1  0.038100  0.135000  0.307000  1
  C  C914  1  0.961900  0.865000  0.693000  1
  C  C915  1  0.987900  0.108500  0.311800  1
  C  C916  1  0.012100  0.891500  0.688200  1
  C  C917  1  0.982600  0.078100  0.289100  1
  C  C918  1  0.017400  0.921900  0.710900  1
  C  C919  1  0.027500  0.074200  0.261500  1
  C  C920  1  0.972500  0.925800  0.738500  1
  C  C921  1  0.924800  0.050400  0.295500  1
  C  C922  1  0.075200  0.949600  0.704500  1
  C  C923  1  0.792400  0.034200  0.340100  1
  C  C924  1  0.207600  0.965800  0.659900  1
  C  C925  1  0.745200  0.003500  0.337000  1
  C  C926  1  0.254800  0.996500  0.663000  1
  C  C927  1  0.693000  0.007300  0.357000  1
  C  C928  1  0.307000  0.992700  0.643000  1
  C  C929  1  0.649200  0.979900  0.352500  1
  C  C930  1  0.350800  0.020100  0.647500  1
  C  C931  1  0.659900  0.951100  0.328300  1
  C  C932  1  0.340100  0.048900  0.671700  1
  C  C933  1  0.713400  0.948500  0.309700  1
  C  C934  1  0.286600  0.051500  0.690300  1
  C  C935  1  0.829500  0.090000  0.221100  1
  C  C936  1  0.170500  0.910000  0.778900  1
  C  C937  1  0.814900  0.116500  0.187500  1
  C  C938  1  0.185100  0.883500  0.812500  1
  C  C939  1  0.805300  0.088300  0.165300  1
  C  C940  1  0.194700  0.911700  0.834700  1
  C  C941  1  0.809300  0.032700  0.177800  1
  C  C942  1  0.190700  0.967300  0.822200  1
  C  C943  1  0.823100  0.008900  0.211800  1
  C  C944  1  0.176900  0.991100  0.788200  1
  C  C945  1  0.825300  0.949300  0.226600  1
  C  C946  1  0.174700  0.050700  0.773400  1
  C  C947  1  0.866200  0.873000  0.307800  1
  C  C948  1  0.133800  0.127000  0.692200  1
  C  C949  1  0.884100  0.819000  0.327200  1
  C  C950  1  0.115900  0.181000  0.672800  1
  C  C951  1  0.878900  0.775400  0.315000  1
  C  C952  1  0.121100  0.224600  0.685000  1
  C  C953  1  0.896400  0.725100  0.334100  1
  C  C954  1  0.103600  0.274900  0.665900  1
  C  C955  1  0.919000  0.718600  0.365400  1
  C  C956  1  0.081000  0.281400  0.634600  1
  C  C957  1  0.924100  0.762200  0.377500  1
  C  C958  1  0.075900  0.237800  0.622500  1
  C  C959  1  0.906700  0.812400  0.358400  1
  C  C960  1  0.093300  0.187600  0.641600  1
  C  C961  1  0.947800  0.761800  0.410800  1
  C  C962  1  0.052200  0.238200  0.589200  1
  C  C963  1  0.003200  0.676300  0.480500  1
  C  C964  1  0.996800  0.323700  0.519500  1
  C  C965  1  0.021300  0.688600  0.511400  1
  C  C966  1  0.978700  0.311400  0.488600  1
  C  C967  1  0.040800  0.648300  0.538100  1
  C  C968  1  0.959200  0.351700  0.461900  1
  C  C969  1  0.059500  0.661300  0.565800  1
  C  C970  1  0.940500  0.338700  0.434200  1
  C  C971  1  0.058100  0.713400  0.565200  1
  C  C972  1  0.941900  0.286600  0.434800  1
  C  C973  1  0.037200  0.751500  0.537900  1
  C  C974  1  0.962800  0.248500  0.462100  1
  C  C975  1  0.854500  0.746100  0.510900  1
  C  C976  1  0.145500  0.253900  0.489100  1
  C  C977  1  0.800100  0.756900  0.523000  1
  C  C978  1  0.199900  0.243100  0.477000  1
  C  C979  1  0.786500  0.806900  0.524500  1
  C  C980  1  0.213500  0.193100  0.475500  1
  C  C981  1  0.828400  0.846300  0.513000  1
  C  C982  1  0.171600  0.153700  0.487000  1
  C  C983  1  0.881600  0.832900  0.500700  1
  C  C984  1  0.118400  0.167100  0.499300  1
  C  C985  1  0.926900  0.874900  0.486700  1
  C  C986  1  0.073100  0.125100  0.513300  1
  C  C987  1  0.066000  0.872400  0.448600  1
  C  C988  1  0.934000  0.127600  0.551400  1
  C  C989  1  0.119600  0.907600  0.433000  1
  C  C990  1  0.880400  0.092400  0.567000  1
  C  C991  1  0.124600  0.954400  0.441700  1
  C  C992  1  0.875400  0.045600  0.558300  1
  C  C993  1  0.173600  0.985500  0.427200  1
  C  C994  1  0.826400  0.014500  0.572800  1
  C  C995  1  0.217500  0.969700  0.404100  1
  C  C996  1  0.782500  0.030300  0.595900  1
  C  C997  1  0.212500  0.922900  0.395400  1
  C  C998  1  0.787500  0.077100  0.604600  1
  C  C999  1  0.163500  0.891900  0.409900  1
  C  C1000  1  0.836500  0.108100  0.590100  1
  C  C1001  1  0.253500  0.903900  0.371900  1
  C  C1002  1  0.746500  0.096100  0.628100  1
  C  C1003  1  0.376600  0.936800  0.304000  1
  C  C1004  1  0.623400  0.063200  0.696000  1
  C  C1005  1  0.402900  0.906400  0.278600  1
  C  C1006  1  0.597100  0.093600  0.721400  1
  C  C1007  1  0.449600  0.927500  0.251800  1
  C  C1008  1  0.550400  0.072500  0.748200  1
  C  C1009  1  0.474600  0.897300  0.229500  1
  C  C1010  1  0.525400  0.102700  0.770500  1
  C  C1011  1  0.451900  0.848200  0.235300  1
  C  C1012  1  0.548100  0.151800  0.764700  1
  C  C1013  1  0.404500  0.829900  0.262200  1
  C  C1014  1  0.595500  0.170100  0.737800  1
  C  C1015  1  0.347700  0.769400  0.180600  1
  C  C1016  1  0.652300  0.230600  0.819400  1
  C  C1017  1  0.340100  0.725100  0.212200  1
  C  C1018  1  0.659900  0.274900  0.787800  1
  C  C1019  1  0.292900  0.694000  0.222600  1
  C  C1020  1  0.707100  0.306000  0.777400  1
  C  C1021  1  0.253800  0.707300  0.200100  1
  C  C1022  1  0.746200  0.292700  0.799900  1
  C  C1023  1  0.264500  0.751600  0.168600  1
  C  C1024  1  0.735500  0.248400  0.831400  1
  C  C1025  1  0.224400  0.765600  0.143300  1
  C  C1026  1  0.775600  0.234400  0.856700  1
  C  C1027  1  0.213800  0.878900  0.070400  1
  C  C1028  1  0.786200  0.121100  0.929600  1
  C  C1029  1  0.170700  0.905300  0.045500  1
  C  C1030  1  0.829300  0.094700  0.954500  1
  C  C1031  1  0.122000  0.881400  0.044300  1
  C  C1032  1  0.878000  0.118600  0.955700  1
  C  C1033  1  0.088200  0.910200  0.020600  1
  C  C1034  1  0.911800  0.089800  0.979400  1
  C  C1035  1  0.102900  0.962800  0.998000  1
  C  C1036  1  0.897100  0.037200  0.002000  1
  C  C1037  1  0.151600  0.986700  0.999200  1
  C  C1038  1  0.848400  0.013300  0.000800  1
  C  C1039  1  0.185400  0.958000  0.022900  1
  C  C1040  1  0.814600  0.042000  0.977100  1
  C  C1041  1  0.168100  0.042000  0.976800  1
  C  C1042  1  0.831900  0.958000  0.023200  1
  C  C1043  1  0.116000  0.157700  0.921000  1
  C  C1044  1  0.884000  0.842300  0.079000  1
  C  C1045  1  0.139200  0.213200  0.900500  1
  C  C1046  1  0.860800  0.786800  0.099500  1
  C  C1047  1  0.106400  0.251600  0.882500  1
  C  C1048  1  0.893600  0.748400  0.117500  1
  C  C1049  1  0.128300  0.303600  0.864800  1
  C  C1050  1  0.871700  0.696400  0.135200  1
  C  C1051  1  0.181200  0.314300  0.866300  1
  C  C1052  1  0.818800  0.685700  0.133700  1
  C  C1053  1  0.212100  0.273600  0.884300  1
  C  C1054  1  0.787900  0.726400  0.115700  1
  C  C1055  1  0.257800  0.112700  0.866700  1
  C  C1056  1  0.742200  0.887300  0.133300  1
  C  C1057  1  0.295000  0.102600  0.837900  1
  C  C1058  1  0.705000  0.897400  0.162100  1
  C  C1059  1  0.350000  0.114100  0.832800  1
  C  C1060  1  0.650000  0.885900  0.167200  1
  C  C1061  1  0.367400  0.134900  0.857700  1
  C  C1062  1  0.632600  0.865100  0.142300  1
  C  C1063  1  0.328000  0.143100  0.886100  1
  C  C1064  1  0.672000  0.856900  0.113900  1
  C  C1065  1  0.345700  0.163200  0.914100  1
  C  C1066  1  0.654300  0.836800  0.085900  1
  C  C1067  1  0.261900  0.181400  0.993200  1
  C  C1068  1  0.738100  0.818600  0.006800  1
  C  C1069  1  0.261700  0.199200  0.025000  1
  C  C1070  1  0.738300  0.800800  0.975000  1
  C  C1071  1  0.309500  0.217200  0.031800  1
  C  C1072  1  0.690500  0.782800  0.968200  1
  C  C1073  1  0.306500  0.233700  0.063000  1
  C  C1074  1  0.693500  0.766300  0.937000  1
  C  C1075  1  0.255700  0.232200  0.087300  1
  C  C1076  1  0.744300  0.767800  0.912700  1
  C  C1077  1  0.207900  0.214100  0.080600  1
  C  C1078  1  0.792100  0.785900  0.919400  1
  C  C1079  1  0.210900  0.197600  0.049400  1
  C  C1080  1  0.789100  0.802400  0.950600  1
  C  C1081  1  0.148300  0.211000  0.104000  1
  C  C1082  1  0.851700  0.789000  0.896000  1
  C  C1083  1  0.082100  0.237100  0.185000  1
  C  C1084  1  0.917900  0.762900  0.815000  1
  C  C1085  1  0.022400  0.229100  0.203900  1
  C  C1086  1  0.977600  0.770900  0.796100  1
  C  C1087  1  0.005300  0.238500  0.237400  1
  C  C1088  1  0.994700  0.761500  0.762600  1
  C  C1089  1  0.949000  0.232800  0.253700  1
  C  C1090  1  0.051000  0.767200  0.746300  1
  C  C1091  1  0.913300  0.218500  0.235700  1
  C  C1092  1  0.086700  0.781500  0.764300  1
  C  C1093  1  0.933500  0.208800  0.202500  1
  C  C1094  1  0.066500  0.791200  0.797500  1
  C  C1095  1  0.029200  0.333000  0.091300  1
  C  C1096  1  0.970800  0.667000  0.908700  1
  C  C1097  1  0.013000  0.377200  0.065500  1
  C  C1098  1  0.987000  0.622800  0.934500  1
  C  C1099  1  0.981100  0.370700  0.042400  1
  C  C1100  1  0.018900  0.629300  0.957600  1
  C  C1101  1  0.964500  0.319000  0.046100  1
  C  C1102  1  0.035500  0.681000  0.953900  1
  C  C1103  1  0.981500  0.276700  0.072900  1
  C  C1104  1  0.018500  0.723300  0.927100  1
  C  C1105  1  0.962500  0.221100  0.078500  1
  C  C1106  1  0.037500  0.778900  0.921500  1
  C  C1107  1  0.987600  0.102400  0.143400  1
  C  C1108  1  0.012400  0.897600  0.856600  1
  C  C1109  1  0.976500  0.043700  0.155900  1
  C  C1110  1  0.023500  0.956300  0.844100  1
  C  C1111  1  0.947100  0.016900  0.139700  1
  C  C1112  1  0.052900  0.983100  0.860300  1
  C  C1113  1  0.939000  0.961300  0.154500  1
  C  C1114  1  0.061000  0.038700  0.845500  1
  C  C1115  1  0.960300  0.932600  0.185500  1
  C  C1116  1  0.039700  0.067400  0.814500  1
  C  C1117  1  0.989800  0.959500  0.201800  1
  C  C1118  1  0.010200  0.040500  0.798200  1
  C  C1119  1  0.997900  0.015000  0.187000  1
  C  C1120  1  0.002100  0.985000  0.813000  1
  C  C1121  1  0.017900  0.932200  0.233800  1
  C  C1122  1  0.982100  0.067800  0.766200  1
  C  C1123  1  0.033300  0.811500  0.299600  1
  C  C1124  1  0.966700  0.188500  0.700400  1
  C  C1125  1  0.071200  0.799400  0.326300  1
  C  C1126  1  0.928800  0.200600  0.673700  1
  C  C1127  1  0.072400  0.748100  0.350300  1
  C  C1128  1  0.927600  0.251900  0.649700  1
  C  C1129  1  0.109800  0.737400  0.373900  1
  C  C1130  1  0.890200  0.262600  0.626100  1
  C  C1131  1  0.143800  0.778100  0.372100  1
  C  C1132  1  0.856200  0.221900  0.627900  1
  C  C1133  1  0.139800  0.828800  0.347900  1
  C  C1134  1  0.860200  0.171200  0.652100  1
  C  C1135  1  0.978500  0.935800  0.345600  1
  C  C1136  1  0.021500  0.064200  0.654400  1
  C  C1137  1  0.951200  0.957000  0.372500  1
  C  C1138  1  0.048800  0.043000  0.627500  1
  C  C1139  1  0.979900  0.987000  0.385900  1
  C  C1140  1  0.020100  0.013000  0.614100  1
  C  C1141  1  0.036500  0.996600  0.371100  1
  C  C1142  1  0.963500  0.003400  0.628900  1
  C  C1143  1  0.060800  0.975000  0.343900  1
  C  C1144  1  0.939200  0.025000  0.656100  1
  C  C1145  1  0.120800  0.986400  0.326400  1
  C  C1146  1  0.879200  0.013600  0.673600  1
  C  C1147  1  0.204100  0.956600  0.254300  1
  C  C1148  1  0.795900  0.043400  0.745700  1
  C  C1149  1  0.257400  0.966300  0.227500  1
  C  C1150  1  0.742600  0.033700  0.772500  1
  C  C1151  1  0.296500  0.001400  0.229400  1
  C  C1152  1  0.703500  0.998600  0.770600  1
  C  C1153  1  0.347500  0.011000  0.204200  1
  C  C1154  1  0.652500  0.989000  0.795800  1
  C  C1155  1  0.359300  0.985300  0.177200  1
  C  C1156  1  0.640700  0.014700  0.822800  1
  C  C1157  1  0.320100  0.950100  0.175400  1
  C  C1158  1  0.679900  0.049900  0.824600  1
  C  C1159  1  0.269100  0.940600  0.200500  1
  C  C1160  1  0.730900  0.059400  0.799500  1
  C  C1161  1  0.326800  0.919700  0.147300  1
  C  C1162  1  0.673200  0.080300  0.852700  1
  C  C1163  1  0.419600  0.884800  0.076700  1
  C  C1164  1  0.580400  0.115200  0.923300  1
  C  C1165  1  0.407800  0.847000  0.057500  1
  C  C1166  1  0.592200  0.153000  0.942500  1
  C  C1167  1  0.449500  0.834900  0.031900  1
  C  C1168  1  0.550500  0.165100  0.968100  1
  C  C1169  1  0.437900  0.797900  0.015400  1
  C  C1170  1  0.562100  0.202100  0.984600  1
  C  C1171  1  0.386000  0.774900  0.025600  1
  C  C1172  1  0.614000  0.225100  0.974400  1
  C  C1173  1  0.346000  0.789500  0.051000  1
  C  C1174  1  0.654000  0.210500  0.949000  1
  C  C1175  1  0.399400  0.635400  0.298100  1
  C  C1176  1  0.600600  0.364600  0.701900  1
  C  C1177  1  0.453500  0.698100  0.312400  1
  C  C1178  1  0.546500  0.301900  0.687600  1
  C  C1179  1  0.473900  0.687500  0.249300  1
  C  C1180  1  0.526100  0.312500  0.750700  1
  C  C1181  1  0.225200  0.873000  0.492600  1
  C  C1182  1  0.774800  0.127000  0.507400  1
  C  C1183  1  0.279000  0.816000  0.466400  1
  C  C1184  1  0.721000  0.184000  0.533600  1
  C  C1185  1  0.314000  0.907000  0.458600  1
  C  C1186  1  0.686000  0.093000  0.541400  1
  C  C1187  1  0.311800  0.809000  0.783000  1
  C  C1188  1  0.688200  0.191000  0.217000  1
  C  C1189  1  0.327400  0.904900  0.767100  1
  C  C1190  1  0.672600  0.095100  0.232900  1
  C  C1191  1  0.287400  0.868100  0.725900  1
  C  C1192  1  0.712600  0.131900  0.274100  1
  C  C1193  1  0.761900  0.725400  0.382700  1
  C  C1194  1  0.238100  0.274600  0.617300  1
  C  C1195  1  0.793900  0.734500  0.435600  1
  C  C1196  1  0.206100  0.265500  0.564400  1
  C  C1197  1  0.808300  0.650300  0.419400  1
  C  C1198  1  0.191700  0.349700  0.580600  1
  C  C1199  1  0.289100  0.902900  0.465300  1
  C  C1200  1  0.710900  0.097100  0.534700  1
  C  C1201  1  0.251000  0.816000  0.471200  1
  C  C1202  1  0.749000  0.184000  0.528800  1
  C  C1203  1  0.202000  0.870000  0.509200  1
  C  C1204  1  0.798000  0.130000  0.490800  1
  S  S1205  1  0.541500  0.424800  0.559300  1
  S  S1206  1  0.458500  0.575200  0.440700  1
  S  S1207  1  0.481600  0.913000  0.673500  1
  S  S1208  1  0.518400  0.087000  0.326500  1
  S  S1209  1  0.735300  0.530300  0.500600  1
  S  S1210  1  0.264700  0.469700  0.499400  1
  S  S1211  1  0.323500  0.933200  0.558400  1
  S  S1212  1  0.676500  0.066800  0.441600  1
  S  S1213  1  0.485700  0.245000  0.876600  1
  S  S1214  1  0.514300  0.755000  0.123400  1
  S  S1215  1  0.155800  0.715800  0.860500  1
  S  S1216  1  0.844200  0.284200  0.139500  1
  S  S1217  1  0.641500  0.433500  0.774800  1
  S  S1218  1  0.358500  0.566500  0.225200  1
  S  S1219  1  0.148100  0.659800  0.717300  1
  S  S1220  1  0.851900  0.340200  0.282700  1
  S  S1221  1  0.116600  0.634600  0.290900  1
  S  S1222  1  0.883400  0.365400  0.709100  1
  S  S1223  1  0.045500  0.173100  0.336400  1
  S  S1224  1  0.954500  0.826900  0.663600  1
  S  S1225  1  0.889400  0.669800  0.318500  1
  S  S1226  1  0.110600  0.330200  0.681500  1
  S  S1227  1  0.180600  0.044000  0.439000  1
  S  S1228  1  0.819400  0.956000  0.561000  1
  S  S1229  1  0.025600  0.878300  0.021720  1
  S  S1230  1  0.974400  0.121700  0.978280  1
  S  S1231  1  0.366400  0.257500  0.072800  1
  S  S1232  1  0.633600  0.742500  0.927200  1
  S  S1233  1  0.904800  0.926300  0.132600  1
  S  S1234  1  0.095200  0.073700  0.867400  1
  S  S1235  1  0.396400  0.058300  0.204000  1
  S  S1236  1  0.603600  0.941700  0.796000  1
  N  N1237  1  0.328300  0.593000  0.525000  1
  N  N1238  1  0.671700  0.407000  0.475000  1
  N  N1239  1  0.368500  0.560100  0.537000  1
  N  N1240  1  0.631500  0.439900  0.463000  1
  N  N1241  1  0.439000  0.501200  0.699800  1
  N  N1242  1  0.561000  0.498800  0.300200  1
  N  N1243  1  0.433200  0.500100  0.738100  1
  N  N1244  1  0.566800  0.499900  0.261900  1
  N  N1245  1  0.242900  0.657300  0.509600  1
  N  N1246  1  0.757100  0.342700  0.490400  1
  N  N1247  1  0.431300  0.502000  0.804900  1
  N  N1248  1  0.568700  0.498000  0.195100  1
  N  N1249  1  0.378300  0.622600  0.751600  1
  N  N1250  1  0.621700  0.377400  0.248400  1
  N  N1251  1  0.417000  0.664600  0.732300  1
  N  N1252  1  0.583000  0.335400  0.267700  1
  N  N1253  1  0.658600  0.788400  0.657500  1
  N  N1254  1  0.341400  0.211600  0.342500  1
  N  N1255  1  0.707600  0.766700  0.645600  1
  N  N1256  1  0.292400  0.233300  0.354400  1
  N  N1257  1  0.313600  0.535300  0.781600  1
  N  N1258  1  0.686400  0.464700  0.218400  1
  N  N1259  1  0.799300  0.712400  0.626800  1
  N  N1260  1  0.200700  0.287600  0.373200  1
  N  N1261  1  0.715100  0.609000  0.655100  1
  N  N1262  1  0.284900  0.391000  0.344900  1
  N  N1263  1  0.714000  0.595600  0.623300  1
  N  N1264  1  0.286000  0.404400  0.376700  1
  N  N1265  1  0.637100  0.711300  0.443700  1
  N  N1266  1  0.362900  0.288700  0.556300  1
  N  N1267  1  0.612000  0.756000  0.423900  1
  N  N1268  1  0.388000  0.244000  0.576100  1
  N  N1269  1  0.717800  0.650100  0.707000  1
  N  N1270  1  0.282200  0.349900  0.293000  1
  N  N1271  1  0.564000  0.847000  0.396700  1
  N  N1272  1  0.436000  0.153000  0.603300  1
  N  N1273  1  0.575700  0.871300  0.472900  1
  N  N1274  1  0.424300  0.128700  0.527100  1
  N  N1275  1  0.524200  0.874000  0.493400  1
  N  N1276  1  0.475800  0.126000  0.506600  1
  N  N1277  1  0.263700  0.726900  0.581800  1
  N  N1278  1  0.736300  0.273100  0.418200  1
  N  N1279  1  0.242800  0.676900  0.589900  1
  N  N1280  1  0.757200  0.323100  0.410100  1
  N  N1281  1  0.674100  0.862900  0.426900  1
  N  N1282  1  0.325900  0.137100  0.573100  1
  N  N1283  1  0.219500  0.580000  0.592200  1
  N  N1284  1  0.780500  0.420000  0.407800  1
  N  N1285  1  0.362000  0.341200  0.731600  1
  N  N1286  1  0.638000  0.658800  0.268400  1
  N  N1287  1  0.383800  0.325300  0.761500  1
  N  N1288  1  0.616200  0.674700  0.238500  1
  N  N1289  1  0.321600  0.344400  0.948300  1
  N  N1290  1  0.678400  0.655600  0.051700  1
  N  N1291  1  0.283000  0.365400  0.969200  1
  N  N1292  1  0.717000  0.634600  0.030800  1
  N  N1293  1  0.308100  0.375800  0.673200  1
  N  N1294  1  0.691900  0.624200  0.326800  1
  N  N1295  1  0.195900  0.405900  0.006400  1
  N  N1296  1  0.804100  0.594100  0.993600  1
  N  N1297  1  0.147600  0.443800  0.930200  1
  N  N1298  1  0.852400  0.556200  0.069800  1
  N  N1299  1  0.157700  0.499600  0.913400  1
  N  N1300  1  0.842300  0.500400  0.086600  1
  N  N1301  1  0.377600  0.703600  0.836900  1
  N  N1302  1  0.622400  0.296400  0.163100  1
  N  N1303  1  0.433500  0.716800  0.827800  1
  N  N1304  1  0.566500  0.283200  0.172200  1
  N  N1305  1  0.148400  0.338400  0.962500  1
  N  N1306  1  0.851600  0.661600  0.037500  1
  N  N1307  1  0.541000  0.730900  0.813800  1
  N  N1308  1  0.459000  0.269100  0.186200  1
  N  N1309  1  0.531900  0.604200  0.871200  1
  N  N1310  1  0.468100  0.395800  0.128800  1
  N  N1311  1  0.555900  0.574300  0.849900  1
  N  N1312  1  0.444100  0.425700  0.150100  1
  N  N1313  1  0.567100  0.571500  0.662100  1
  N  N1314  1  0.432900  0.428500  0.337900  1
  N  N1315  1  0.544400  0.595900  0.633100  1
  N  N1316  1  0.455600  0.404100  0.366900  1
  N  N1317  1  0.477200  0.669800  0.900800  1
  N  N1318  1  0.522800  0.330200  0.099200  1
  N  N1319  1  0.487600  0.638900  0.579900  1
  N  N1320  1  0.512400  0.361100  0.420100  1
  N  N1321  1  0.421100  0.706700  0.635000  1
  N  N1322  1  0.578900  0.293300  0.365000  1
  N  N1323  1  0.366800  0.691800  0.651700  1
  N  N1324  1  0.633200  0.308200  0.348300  1
  N  N1325  1  0.198600  0.447900  0.736500  1
  N  N1326  1  0.801400  0.552100  0.263500  1
  N  N1327  1  0.205800  0.394100  0.743700  1
  N  N1328  1  0.794200  0.605900  0.256300  1
  N  N1329  1  0.527500  0.727800  0.609800  1
  N  N1330  1  0.472500  0.272200  0.390200  1
  N  N1331  1  0.235800  0.293600  0.757100  1
  N  N1332  1  0.764200  0.706400  0.242900  1
  N  N1333  1  0.304300  0.758700  0.341900  1
  N  N1334  1  0.695700  0.241300  0.658100  1
  N  N1335  1  0.270700  0.741100  0.324500  1
  N  N1336  1  0.729300  0.258900  0.675500  1
  N  N1337  1  0.139700  0.884900  0.194200  1
  N  N1338  1  0.860300  0.115100  0.805800  1
  N  N1339  1  0.123200  0.926500  0.165400  1
  N  N1340  1  0.876800  0.073500  0.834600  1
  N  N1341  1  0.363400  0.801100  0.373800  1
  N  N1342  1  0.636600  0.198900  0.626200  1
  N  N1343  1  0.108000  0.019900  0.115000  1
  N  N1344  1  0.892000  0.980100  0.885000  1
  N  N1345  1  0.163800  0.052100  0.180100  1
  N  N1346  1  0.836200  0.947900  0.819900  1
  N  N1347  1  0.129900  0.059100  0.209000  1
  N  N1348  1  0.870100  0.940900  0.791000  1
  N  N1349  1  0.883700  0.059600  0.318000  1
  N  N1350  1  0.116300  0.940400  0.682000  1
  N  N1351  1  0.840300  0.032300  0.319500  1
  N  N1352  1  0.159700  0.967700  0.680500  1
  N  N1353  1  0.230200  0.031200  0.123800  1
  N  N1354  1  0.769800  0.968800  0.876200  1
  N  N1355  1  0.756000  0.975100  0.313000  1
  N  N1356  1  0.244000  0.024900  0.687000  1
  N  N1357  1  0.841700  0.930400  0.259800  1
  N  N1358  1  0.158300  0.069600  0.740200  1
  N  N1359  1  0.851500  0.877200  0.275700  1
  N  N1360  1  0.148500  0.122800  0.724300  1
  N  N1361  1  0.962900  0.710500  0.430400  1
  N  N1362  1  0.037100  0.289500  0.569600  1
  N  N1363  1  0.985100  0.717300  0.459000  1
  N  N1364  1  0.014900  0.282700  0.541000  1
  N  N1365  1  0.832600  0.036600  0.234000  1
  N  N1366  1  0.167400  0.963400  0.766000  1
  N  N1367  1  0.019800  0.740200  0.510600  1
  N  N1368  1  0.980200  0.259800  0.489400  1
  N  N1369  1  0.976900  0.859800  0.474500  1
  N  N1370  1  0.023100  0.140200  0.525500  1
  N  N1371  1  0.020000  0.896100  0.461600  1
  N  N1372  1  0.980000  0.103900  0.538400  1
  N  N1373  1  0.298300  0.938000  0.347700  1
  N  N1374  1  0.701700  0.062000  0.652300  1
  N  N1375  1  0.331600  0.913400  0.324600  1
  N  N1376  1  0.668400  0.086600  0.675400  1
  N  N1377  1  0.895300  0.783500  0.499100  1
  N  N1378  1  0.104700  0.216500  0.500900  1
  N  N1379  1  0.380200  0.857800  0.284500  1
  N  N1380  1  0.619800  0.142200  0.715500  1
  N  N1381  1  0.231400  0.809400  0.118400  1
  N  N1382  1  0.768600  0.190600  0.881600  1
  N  N1383  1  0.194800  0.830900  0.095300  1
  N  N1384  1  0.805200  0.169100  0.904700  1
  N  N1385  1  0.133900  0.074800  0.959700  1
  N  N1386  1  0.866100  0.925200  0.040300  1
  N  N1387  1  0.150000  0.126100  0.938400  1
  N  N1388  1  0.850000  0.873900  0.061600  1
  N  N1389  1  0.311100  0.782600  0.158200  1
  N  N1390  1  0.688900  0.217400  0.841800  1
  N  N1391  1  0.191600  0.223500  0.902100  1
  N  N1392  1  0.808400  0.776500  0.097900  1
  N  N1393  1  0.305800  0.166500  0.940700  1
  N  N1394  1  0.694200  0.833500  0.059300  1
  N  N1395  1  0.310000  0.184800  0.969500  1
  N  N1396  1  0.690000  0.815200  0.030500  1
  N  N1397  1  0.148300  0.227500  0.133700  1
  N  N1398  1  0.851700  0.772500  0.866300  1
  N  N1399  1  0.093700  0.225400  0.153900  1
  N  N1400  1  0.906300  0.774600  0.846100  1
  N  N1401  1  0.273600  0.131700  0.891300  1
  N  N1402  1  0.726400  0.868300  0.108700  1
  N  N1403  1  0.987300  0.214900  0.185900  1
  N  N1404  1  0.012700  0.785100  0.814100  1
  N  N1405  1  0.977100  0.185400  0.105500  1
  N  N1406  1  0.022900  0.814600  0.894500  1
  N  N1407  1  0.962900  0.132800  0.115100  1
  N  N1408  1  0.037100  0.867200  0.884900  1
  N  N1409  1  0.006000  0.879600  0.251900  1
  N  N1410  1  0.994000  0.120400  0.748100  1
  N  N1411  1  0.037400  0.860700  0.279600  1
  N  N1412  1  0.962600  0.139300  0.720400  1
  N  N1413  1  0.013100  0.283000  0.095800  1
  N  N1414  1  0.986900  0.717000  0.904200  1
  N  N1415  1  0.104800  0.839900  0.324400  1
  N  N1416  1  0.895200  0.160100  0.675600  1
  N  N1417  1  0.137000  0.966700  0.299500  1
  N  N1418  1  0.863000  0.033300  0.700500  1
  N  N1419  1  0.190700  0.977300  0.280400  1
  N  N1420  1  0.809300  0.022700  0.719600  1
  N  N1421  1  0.377300  0.923500  0.123600  1
  N  N1422  1  0.622700  0.076500  0.876400  1
  N  N1423  1  0.377400  0.891600  0.101700  1
  N  N1424  1  0.622600  0.108400  0.898300  1
  N  N1425  1  0.032600  0.945200  0.330500  1
  N  N1426  1  0.967400  0.054800  0.669500  1
  N  N1427  1  0.356300  0.824400  0.067700  1
  N  N1428  1  0.643700  0.175600  0.932300  1
  N  N1429  1  0.439900  0.672000  0.287100  1
  N  N1430  1  0.560100  0.328000  0.712900  1
  N  N1431  1  0.268700  0.866800  0.473900  1
  N  N1432  1  0.731300  0.133200  0.526100  1
  N  N1433  1  0.308900  0.858200  0.759800  1
  N  N1434  1  0.691100  0.141800  0.240200  1
  N  N1435  1  0.786800  0.704400  0.411200  1
  N  N1436  1  0.213200  0.295600  0.588800  1
  N  N1437  1  0.249300  0.865100  0.481100  1
  N  N1438  1  0.750700  0.134900  0.518900  1
  O  O1439  1  0.555700  0.457500  0.521100  1
  O  O1440  1  0.444300  0.542500  0.478900  1
  O  O1441  1  0.509400  0.377200  0.565300  1
  O  O1442  1  0.490600  0.622800  0.434700  1
  O  O1443  1  0.588900  0.413500  0.577100  1
  O  O1444  1  0.411100  0.586500  0.422900  1
  O  O1445  1  0.343700  0.578400  0.592000  1
  O  O1446  1  0.656300  0.421600  0.408000  1
  O  O1447  1  0.488800  0.426400  0.697300  1
  O  O1448  1  0.511200  0.573600  0.302700  1
  O  O1449  1  0.522000  0.939200  0.640600  1
  O  O1450  1  0.478000  0.060800  0.359400  1
  O  O1451  1  0.487100  0.927200  0.705600  1
  O  O1452  1  0.512900  0.072800  0.294400  1
  O  O1453  1  0.425300  0.917800  0.667400  1
  O  O1454  1  0.574700  0.082200  0.332600  1
  O  O1455  1  0.376000  0.729900  0.755100  1
  O  O1456  1  0.624000  0.270100  0.244900  1
  O  O1457  1  0.620100  0.704000  0.673400  1
  O  O1458  1  0.379900  0.296000  0.326600  1
  O  O1459  1  0.734800  0.485900  0.533700  1
  O  O1460  1  0.265200  0.514100  0.466300  1
  O  O1461  1  0.790100  0.546200  0.478000  1
  O  O1462  1  0.209900  0.453800  0.522000  1
  O  O1463  1  0.696200  0.523400  0.479100  1
  O  O1464  1  0.303800  0.476600  0.520900  1
  O  O1465  1  0.698400  0.686500  0.599500  1
  O  O1466  1  0.301600  0.313500  0.400500  1
  O  O1467  1  0.623800  0.757200  0.486900  1
  O  O1468  1  0.376200  0.242800  0.513100  1
  O  O1469  1  0.285600  0.912300  0.593400  1
  O  O1470  1  0.714400  0.087700  0.406600  1
  O  O1471  1  0.296900  0.961300  0.528100  1
  O  O1472  1  0.703100  0.038700  0.471900  1
  O  O1473  1  0.369500  0.964000  0.560400  1
  O  O1474  1  0.630500  0.036000  0.439600  1
  O  O1475  1  0.502600  0.800600  0.479000  1
  O  O1476  1  0.497400  0.199400  0.521000  1
  O  O1477  1  0.333800  0.699800  0.541700  1
  O  O1478  1  0.666200  0.300200  0.458300  1
  O  O1479  1  0.482500  0.226600  0.916000  1
  O  O1480  1  0.517500  0.773400  0.084000  1
  O  O1481  1  0.532600  0.280900  0.855900  1
  O  O1482  1  0.467400  0.719100  0.144100  1
  O  O1483  1  0.481200  0.201800  0.861600  1
  O  O1484  1  0.518800  0.798200  0.138400  1
  O  O1485  1  0.304100  0.363300  0.785300  1
  O  O1486  1  0.695900  0.636700  0.214700  1
  O  O1487  1  0.265600  0.374500  0.905700  1
  O  O1488  1  0.734400  0.625500  0.094300  1
  O  O1489  1  0.179000  0.751400  0.824100  1
  O  O1490  1  0.821000  0.248600  0.175900  1
  O  O1491  1  0.152500  0.739300  0.889700  1
  O  O1492  1  0.847500  0.260700  0.110300  1
  O  O1493  1  0.103800  0.690200  0.862200  1
  O  O1494  1  0.896200  0.309800  0.137800  1
  O  O1495  1  0.246900  0.481500  0.924000  1
  O  O1496  1  0.753100  0.518500  0.076000  1
  O  O1497  1  0.394200  0.617600  0.868000  1
  O  O1498  1  0.605800  0.382400  0.132000  1
  O  O1499  1  0.691300  0.445400  0.746700  1
  O  O1500  1  0.308700  0.554600  0.253300  1
  O  O1501  1  0.604900  0.395400  0.770900  1
  O  O1502  1  0.395100  0.604600  0.229100  1
  O  O1503  1  0.651400  0.419400  0.812400  1
  O  O1504  1  0.348600  0.580600  0.187600  1
  O  O1505  1  0.503500  0.623000  0.810000  1
  O  O1506  1  0.496500  0.377000  0.190000  1
  O  O1507  1  0.504800  0.622000  0.687900  1
  O  O1508  1  0.495200  0.378000  0.312100  1
  O  O1509  1  0.125400  0.635600  0.756200  1
  O  O1510  1  0.874600  0.364400  0.243800  1
  O  O1511  1  0.111900  0.654900  0.693600  1
  O  O1512  1  0.888100  0.345100  0.306400  1
  O  O1513  1  0.168700  0.714400  0.708000  1
  O  O1514  1  0.831300  0.285600  0.292000  1
  O  O1515  1  0.403400  0.608700  0.661200  1
  O  O1516  1  0.596600  0.391300  0.338800  1
  O  O1517  1  0.292100  0.454500  0.715000  1
  O  O1518  1  0.707900  0.545500  0.285000  1
  O  O1519  1  0.093000  0.629500  0.261400  1
  O  O1520  1  0.907000  0.370500  0.738600  1
  O  O1521  1  0.076300  0.629100  0.324900  1
  O  O1522  1  0.923700  0.370900  0.675100  1
  O  O1523  1  0.163900  0.600900  0.297000  1
  O  O1524  1  0.836100  0.399100  0.703000  1
  O  O1525  1  0.259100  0.831600  0.292600  1
  O  O1526  1  0.740900  0.168400  0.707400  1
  O  O1527  1  0.115300  0.813400  0.178400  1
  O  O1528  1  0.884700  0.186600  0.821600  1
  O  O1529  1  0.003100  0.154500  0.369300  1
  O  O1530  1  0.996900  0.845500  0.630700  1
  O  O1531  1  0.041100  0.228700  0.315400  1
  O  O1532  1  0.958900  0.771300  0.684600  1
  O  O1533  1  0.100800  0.160300  0.343200  1
  O  O1534  1  0.899200  0.839700  0.656800  1
  O  O1535  1  0.157700  0.135900  0.213000  1
  O  O1536  1  0.842300  0.864100  0.787000  1
  O  O1537  1  0.930000  0.019800  0.274100  1
  O  O1538  1  0.070000  0.980200  0.725900  1
  O  O1539  1  0.903700  0.623600  0.346200  1
  O  O1540  1  0.096300  0.376400  0.653800  1
  O  O1541  1  0.927000  0.681600  0.282700  1
  O  O1542  1  0.073000  0.318400  0.717300  1
  O  O1543  1  0.831700  0.668800  0.315900  1
  O  O1544  1  0.168300  0.331200  0.684100  1
  O  O1545  1  0.871000  0.911400  0.319500  1
  O  O1546  1  0.129000  0.088600  0.680500  1
  O  O1547  1  0.955500  0.802200  0.417800  1
  O  O1548  1  0.044500  0.197800  0.582200  1
  O  O1549  1  0.211400  0.082400  0.406200  1
  O  O1550  1  0.788600  0.917600  0.593800  1
  O  O1551  1  0.209800  0.026800  0.469200  1
  O  O1552  1  0.790200  0.973200  0.530800  1
  O  O1553  1  0.124700  0.060400  0.450600  1
  O  O1554  1  0.875300  0.939600  0.549400  1
  O  O1555  1  0.068800  0.827000  0.442800  1
  O  O1556  1  0.931200  0.173000  0.557200  1
  O  O1557  1  0.249500  0.856600  0.368000  1
  O  O1558  1  0.750500  0.143400  0.632000  1
  O  O1559  1  0.013700  0.834800  0.055900  1
  O  O1560  1  0.986300  0.165200  0.944100  1
  O  O1561  1  0.036400  0.861500  0.989000  1
  O  O1562  1  0.963600  0.138500  0.011000  1
  O  O1563  1  0.984900  0.920000  0.019800  1
  O  O1564  1  0.015100  0.080000  0.980200  1
  O  O1565  1  0.253700  0.905800  0.069700  1
  O  O1566  1  0.746300  0.094200  0.930300  1
  O  O1567  1  0.216600  0.059900  0.972600  1
  O  O1568  1  0.783400  0.940100  0.027400  1
  O  O1569  1  0.369200  0.226200  0.110100  1
  O  O1570  1  0.630800  0.773800  0.889900  1
  O  O1571  1  0.358100  0.313600  0.068100  1
  O  O1572  1  0.641900  0.686400  0.931900  1
  O  O1573  1  0.412200  0.248700  0.045000  1
  O  O1574  1  0.587800  0.751300  0.955000  1
  O  O1575  1  0.216200  0.171800  0.984100  1
  O  O1576  1  0.783800  0.828200  0.015900  1
  O  O1577  1  0.109800  0.197100  0.094800  1
  O  O1578  1  0.890200  0.802900  0.905200  1
  O  O1579  1  0.911100  0.959300  0.094500  1
  O  O1580  1  0.088900  0.040700  0.905500  1
  O  O1581  1  0.848000  0.919000  0.152900  1
  O  O1582  1  0.152000  0.081000  0.847100  1
  O  O1583  1  0.933100  0.875900  0.137000  1
  O  O1584  1  0.066900  0.124100  0.863000  1
  O  O1585  1  0.020800  0.121600  0.156000  1
  O  O1586  1  0.979200  0.878400  0.844000  1
  O  O1587  1  0.051000  0.959900  0.243100  1
  O  O1588  1  0.949000  0.040100  0.756900  1
  O  O1589  1  0.399100  0.048200  0.242100  1
  O  O1590  1  0.600900  0.951800  0.757900  1
  O  O1591  1  0.373400  0.109400  0.187600  1
  O  O1592  1  0.626600  0.890600  0.812400  1
  O  O1593  1  0.448400  0.049700  0.181100  1
  O  O1594  1  0.551600  0.950300  0.818900  1
  O  O1595  1  0.164800  0.927100  0.248500  1
  O  O1596  1  0.835200  0.072900  0.751500  1
  O  O1597  1  0.284500  0.896400  0.145700  1
  O  O1598  1  0.715500  0.103600  0.854300  1
  O  O1599  1  0.254500  0.632200  0.366700  1
  O  O1600  1  0.745500  0.367800  0.633300  1
  O  O1601  1  0.274500  0.587000  0.307100  1
  O  O1602  1  0.725500  0.413000  0.692900  1
  O  O1603  1  0.343900  0.505300  0.347200  1
  O  O1604  1  0.656100  0.494700  0.652800  1
  O  O1605  1  0.326000  0.551300  0.406500  1
  O  O1606  1  0.674000  0.448700  0.593500  1
  O  O1607  1  0.232500  0.519600  0.383000  1
  O  O1608  1  0.767500  0.480400  0.617000  1
  O  O1609  1  0.369400  0.620000  0.330300  1
  O  O1610  1  0.630600  0.380000  0.669700  1
  O  O1611  1  0.181000  0.842200  0.507200  1
  O  O1612  1  0.819000  0.157800  0.492800  1
  O  O1613  1  0.330000  0.798600  0.812100  1
  O  O1614  1  0.670000  0.201400  0.187900  1
  O  O1615  1  0.742900  0.771100  0.374700  1
  O  O1616  1  0.257100  0.228900  0.625300  1
  O  O1617  1  0.521600  0.954000  0.524900  1
  O  O1618  1  0.478400  0.046000  0.475100  1
  O  O1619  1  0.888400  0.116200  0.074000  1
  O  O1620  1  0.111600  0.883800  0.926000  1
  O  O1621  1  0.073100  0.531900  0.874300  1
  O  O1622  1  0.926900  0.468100  0.125700  1
  O  O1623  1  0.066900  0.633200  0.825400  1
  O  O1624  1  0.933100  0.366800  0.174600  1
  O  O1625  1  0.102900  0.761000  0.118300  1
  O  O1626  1  0.897100  0.239000  0.881700  1
  O  O1627  1  0.983900  0.783100  0.231000  1
  O  O1628  1  0.016100  0.216900  0.769000  1
  O  O1629  1  0.224300  0.251000  0.172500  1
  O  O1630  1  0.775700  0.749000  0.827500  1
  O  O1631  1  0.814100  0.026800  0.089900  1
  O  O1632  1  0.185900  0.973200  0.910100  1
  O  O1633  1  0.007400  0.788000  0.159100  1
  O  O1634  1  0.992600  0.212000  0.840900  1
  O  O1635  1  0.082400  0.443600  0.843800  1
  O  O1636  1  0.917600  0.556400  0.156200  1
  O  O1637  1  0.987700  0.991300  0.468600  1
  O  O1638  1  0.012300  0.008700  0.531400  1
  O  O1639  1  0.540200  0.001500  0.420400  1
  O  O1640  1  0.459800  0.998500  0.579600  1
  O  O1641  1  0.311500  0.768800  0.678100  1
  O  O1642  1  0.688500  0.231200  0.321900  1
  O  O1643  1  0.663700  0.895000  0.639700  1
  O  O1644  1  0.336300  0.105000  0.360300  1
  O  O1645  1  0.995000  0.369000  0.874100  1
  O  O1646  1  0.005000  0.631000  0.125900  1
  O  O1647  1  0.617200  0.327200  0.873400  1
  O  O1648  1  0.382800  0.672800  0.126600  1
  O  O1649  1  0.343100  0.141400  0.741300  1
  O  O1650  1  0.656900  0.858600  0.258700  1
  O  O1651  1  0.422200  0.330100  0.969100  1
  O  O1652  1  0.577800  0.669900  0.030900  1
  O  O1653  1  0.624100  0.973800  0.531400  1
  O  O1654  1  0.375900  0.026200  0.468600  1
  O  O1655  1  0.052700  0.726200  0.070800  1
  O  O1656  1  0.947300  0.273800  0.929200  1
  O  O1657  1  0.091800  0.474500  0.765800  1
  O  O1658  1  0.908200  0.525500  0.234200  1
  O  O1659  1  0.735000  0.827000  0.300600  1
  O  O1660  1  0.265000  0.173000  0.699400  1
  O  O1661  1  0.231200  0.727400  0.757600  1
  O  O1662  1  0.768800  0.272600  0.242400  1
  O  O1663  1  0.054100  0.378200  0.160100  1
  O  O1664  1  0.945900  0.621800  0.839900  1
  O  O1665  1  0.983200  0.676700  0.179900  1
  O  O1666  1  0.016800  0.323300  0.820100  1
  O  O1667  1  0.987700  0.615500  0.251900  1
  O  O1668  1  0.012300  0.384500  0.748100  1
  O  O1669  1  0.030000  0.097200  0.436800  1
  O  O1670  1  0.970000  0.902800  0.563200  1
  O  O1671  1  0.175500  0.103400  0.337000  1
  O  O1672  1  0.824500  0.896600  0.663000  1
  O  O1673  1  0.573300  0.781400  0.258100  1
  O  O1674  1  0.426700  0.218600  0.741900  1
  O  O1675  1  0.693200  0.906400  0.556300  1
  O  O1676  1  0.306800  0.093600  0.443700  1
  O  O1677  1  0.773300  0.915200  0.723600  1
  O  O1678  1  0.226700  0.084800  0.276400  1
  O  O1679  1  0.370800  0.863500  0.640500  1
  O  O1680  1  0.629200  0.136500  0.359500  1
  O  O1681  1  0.460100  0.177100  0.134400  1
  O  O1682  1  0.539900  0.822900  0.865600  1
  O  O1683  1  0.709000  0.562800  0.879300  1
  O  O1684  1  0.291000  0.437200  0.120700  1
  O  O1685  1  0.141000  0.606900  0.397700  1
  O  O1686  1  0.859000  0.393100  0.602300  1
  O  O1687  1  0.688000  0.946900  0.682800  1
  O  O1688  1  0.312000  0.053100  0.317200  1
  O  O1689  1  0.438000  0.945000  0.430100  1
  O  O1690  1  0.562000  0.055000  0.569900  1
  O  O1691  1  0.164000  0.788300  0.582900  1
  O  O1692  1  0.836000  0.211700  0.417100  1
  O  O1693  1  0.633500  0.499500  0.879400  1
  O  O1694  1  0.366500  0.500500  0.120600  1
  O  O1695  1  0.689300  0.672700  0.858500  1
  O  O1696  1  0.310700  0.327300  0.141500  1
  O  O1697  1  0.278000  0.679000  0.102500  1
  O  O1698  1  0.722000  0.321000  0.897500  1
  O  O1699  1  0.762000  0.800000  0.713800  1
  O  O1700  1  0.238000  0.200000  0.286200  1
  O  O1701  1  0.952000  0.502000  0.001900  1
  O  O1702  1  0.048000  0.498000  0.998100  1
  O  O1703  1  0.082000  0.870000  0.541600  1
  O  O1704  1  0.918000  0.130000  0.458400  1
  O  O1705  1  0.001000  0.460000  0.379600  1
  O  O1706  1  0.999000  0.540000  0.620400  1
  O  O1707  1  0.456000  0.990000  0.739000  1
  O  O1708  1  0.544000  0.010000  0.261000  1
  O  O1709  1  0.884000  0.264000  0.998000  1
  O  O1710  1  0.116000  0.736000  0.002000  1
  O  O1711  1  0.871000  0.351000  0.825000  1
  O  O1712  1  0.129000  0.649000  0.175000  1
  O  O1713  1  0.699000  0.040000  0.132000  1
  O  O1714  1  0.301000  0.960000  0.868000  1
  O  O1715  1  0.129000  0.892000  0.632000  1
  O  O1716  1  0.871000  0.108000  0.368000  1
  O  O1717  1  0.064000  0.752000  0.648100  1
  O  O1718  1  0.936000  0.248000  0.351900  1
  O  O1719  1  0.336000  0.969000  0.963000  1
  O  O1720  1  0.664000  0.031000  0.037000  1
  O  O1721  1  0.024000  0.511000  0.068000  1
  O  O1722  1  0.976000  0.489000  0.932000  1
  O  O1723  1  0.981000  0.598000  0.664000  1
  O  O1724  1  0.019000  0.402000  0.336000  1
  O  O1725  1  0.991000  0.574000  0.355600  1
  O  O1726  1  0.009000  0.426000  0.644400  1
  O  O1727  1  0.396000  0.610000  0.085000  1
  O  O1728  1  0.604000  0.390000  0.915000  1
  O  O1729  1  0.374000  0.036000  0.765500  1
  O  O1730  1  0.626000  0.964000  0.234500  1
  O  O1731  1  0.468000  0.658000  0.067600  1
  O  O1732  1  0.532000  0.342000  0.932400  1
  O  O1733  1  0.154000  0.572000  0.986000  1
  O  O1734  1  0.846000  0.428000  0.014000  1
  O  O1735  1  0.544000  0.846000  0.950800  1
  O  O1736  1  0.456000  0.154000  0.049200  1
  O  O1737  1  0.494000  0.909000  0.133500  1
  O  O1738  1  0.506000  0.091000  0.866500  1
  O  O1739  1  0.149000  0.325000  0.210000  1
  O  O1740  1  0.851000  0.675000  0.790000  1
  O  O1741  1  0.268000  0.500000  0.372200  1
  O  O1742  1  0.732000  0.500000  0.627800  1
  O  O1743  1  0.330500  0.899900  0.441300  1
  O  O1744  1  0.669500  0.100100  0.558700  1
  O  O1745  1  0.317000  0.800000  0.806200  1
  O  O1746  1  0.683000  0.200000  0.193800  1
  O  O1747  1  0.728000  0.739000  0.333900  1
  O  O1748  1  0.272000  0.261000  0.666100  1
  O  O1749  1  0.138300  0.825700  0.619200  1
  O  O1750  1  0.861700  0.174300  0.380800  1
  O  O1751  1  0.197000  0.792000  0.635400  1
  O  O1752  1  0.803000  0.208000  0.364600  1
  O  O1753  1  0.101000  0.842000  0.604600  1
  O  O1754  1  0.899000  0.158000  0.395400  1
  O  O1755  1  0.585000  0.868000  0.010000  1
  O  O1756  1  0.415000  0.132000  0.990000  1
  O  O1757  1  0.578000  0.829000  0.020800  1
  O  O1758  1  0.422000  0.171000  0.979200  1
  O  O1759  1  0.295000  0.153100  0.192600  1
  O  O1760  1  0.705000  0.846900  0.807400  1
  O  O1761  1  0.265900  0.155800  0.220500  1
  O  O1762  1  0.734100  0.844200  0.779500  1
  O  O1763  1  0.132000  0.997800  0.542400  1
  O  O1764  1  0.868000  0.002200  0.457600  1
  O  O1765  1  0.171000  0.965000  0.575000  1
  O  O1766  1  0.829000  0.035000  0.425000  1
