# generated using pymatgen
data_Na13Zn12Cu4H226C326S16N98O137
_symmetry_space_group_name_H-M   'P 1'
_cell_length_a   21.91216000
_cell_length_b   32.64068000
_cell_length_c   35.03860000
_cell_angle_alpha   90.00000000
_cell_angle_beta   98.26940000
_cell_angle_gamma   90.00000000
_symmetry_Int_Tables_number   1
_chemical_formula_structural   Na13Zn12Cu4H226C326S16N98O137
_chemical_formula_sum   'Na26 Zn24 Cu8 H452 C652 S32 N196 O274'
_cell_volume   24800.01962083
_cell_formula_units_Z   2
loop_
 _symmetry_equiv_pos_site_id
 _symmetry_equiv_pos_as_xyz
  1  'x, y, z'
loop_
 _atom_site_type_symbol
 _atom_site_label
 _atom_site_symmetry_multiplicity
 _atom_site_fract_x
 _atom_site_fract_y
 _atom_site_fract_z
 _atom_site_occupancy
  Na  Na1  1  0.663800  0.319800  0.161990  1
  Na  Na2  1  0.163800  0.680200  0.661990  1
  Na  Na3  1  0.543100  0.836200  0.231600  1
  Na  Na4  1  0.043100  0.163800  0.731600  1
  Na  Na5  1  0.438010  0.354240  0.237760  1
  Na  Na6  1  0.938010  0.645760  0.737760  1
  Na  Na7  1  0.739800  0.820800  0.211130  1
  Na  Na8  1  0.239800  0.179200  0.711130  1
  Na  Na9  1  0.507660  0.880180  0.039520  1
  Na  Na10  1  0.007660  0.119820  0.539520  1
  Na  Na11  1  0.675100  0.377930  0.041780  1
  Na  Na12  1  0.175100  0.622070  0.541780  1
  Na  Na13  1  0.332700  0.799700  0.069500  1
  Na  Na14  1  0.832700  0.200300  0.569500  1
  Na  Na15  1  0.392400  0.858000  0.974800  1
  Na  Na16  1  0.892400  0.142000  0.474800  1
  Na  Na17  1  0.399820  0.329610  0.114050  1
  Na  Na18  1  0.899820  0.670390  0.614050  1
  Na  Na19  1  0.525640  0.341630  0.075230  1
  Na  Na20  1  0.025640  0.658370  0.575230  1
  Na  Na21  1  0.472530  0.849100  0.131610  1
  Na  Na22  1  0.972530  0.150900  0.631610  1
  Na  Na23  1  0.237200  0.302130  0.166250  1
  Na  Na24  1  0.737200  0.697870  0.666250  1
  Na  Na25  1  0.698600  0.839600  0.219100  1
  Na  Na26  1  0.198600  0.160400  0.719100  1
  Zn  Zn27  1  0.741370  0.069810  0.982390  1
  Zn  Zn28  1  0.241370  0.930190  0.482390  1
  Zn  Zn29  1  0.603180  0.154990  0.298610  1
  Zn  Zn30  1  0.103180  0.845010  0.798610  1
  Zn  Zn31  1  0.929020  0.081900  0.204870  1
  Zn  Zn32  1  0.429020  0.918100  0.704870  1
  Zn  Zn33  1  0.188820  0.622180  0.189460  1
  Zn  Zn34  1  0.688820  0.377820  0.689460  1
  Zn  Zn35  1  0.677570  0.514320  0.280810  1
  Zn  Zn36  1  0.177570  0.485680  0.780810  1
  Zn  Zn37  1  0.415900  0.614940  0.400090  1
  Zn  Zn38  1  0.915900  0.385060  0.900090  1
  Zn  Zn39  1  0.257560  0.499280  0.016280  1
  Zn  Zn40  1  0.757560  0.500720  0.516280  1
  Zn  Zn41  1  0.538190  0.605000  0.911660  1
  Zn  Zn42  1  0.038190  0.395000  0.411660  1
  Zn  Zn43  1  0.758130  0.640830  0.121760  1
  Zn  Zn44  1  0.258130  0.359170  0.621760  1
  Zn  Zn45  1  0.455030  0.178450  0.946950  1
  Zn  Zn46  1  0.955030  0.821550  0.446950  1
  Zn  Zn47  1  0.131420  0.081710  0.016570  1
  Zn  Zn48  1  0.631420  0.918290  0.516570  1
  Zn  Zn49  1  0.320480  0.026210  0.236330  1
  Zn  Zn50  1  0.820480  0.973790  0.736330  1
  Cu  Cu51  1  0.429360  0.110870  0.087740  1
  Cu  Cu52  1  0.929360  0.889130  0.587740  1
  Cu  Cu53  1  0.484880  0.567900  0.080760  1
  Cu  Cu54  1  0.984880  0.432100  0.580760  1
  Cu  Cu55  1  0.451130  0.568020  0.227680  1
  Cu  Cu56  1  0.951130  0.431980  0.727680  1
  Cu  Cu57  1  0.634580  0.110200  0.148450  1
  Cu  Cu58  1  0.134580  0.889800  0.648450  1
  H  H59  1  0.820400  0.996400  0.950700  1
  H  H60  1  0.320400  0.003600  0.450700  1
  H  H61  1  0.920100  0.989700  0.933400  1
  H  H62  1  0.420100  0.010300  0.433400  1
  H  H63  1  0.978400  0.050500  0.927300  1
  H  H64  1  0.478400  0.949500  0.427300  1
  H  H65  1  0.944900  0.110100  0.949000  1
  H  H66  1  0.444900  0.889900  0.449000  1
  H  H67  1  0.858400  0.152600  0.976200  1
  H  H68  1  0.358400  0.847400  0.476200  1
  H  H69  1  0.722100  0.224300  0.035300  1
  H  H70  1  0.222100  0.775700  0.535300  1
  H  H71  1  0.568700  0.239000  0.085600  1
  H  H72  1  0.068700  0.761000  0.585600  1
  H  H73  1  0.597400  0.131800  0.033600  1
  H  H74  1  0.097400  0.868200  0.533600  1
  H  H75  1  0.374900  0.216200  0.100200  1
  H  H76  1  0.874900  0.783800  0.600200  1
  H  H77  1  0.268400  0.198700  0.124700  1
  H  H78  1  0.768400  0.801300  0.624700  1
  H  H79  1  0.206700  0.149600  0.148700  1
  H  H80  1  0.706700  0.850400  0.648700  1
  H  H81  1  0.237000  0.079400  0.148800  1
  H  H82  1  0.737000  0.920600  0.648800  1
  H  H83  1  0.327100  0.062900  0.125300  1
  H  H84  1  0.827100  0.937100  0.625300  1
  H  H85  1  0.359100  0.118900  0.998600  1
  H  H86  1  0.859100  0.881100  0.498600  1
  H  H87  1  0.322600  0.074400  0.949100  1
  H  H88  1  0.822600  0.925600  0.449100  1
  H  H89  1  0.335000  0.005300  0.957600  1
  H  H90  1  0.835000  0.994700  0.457600  1
  H  H91  1  0.383800  0.979800  0.017400  1
  H  H92  1  0.883800  0.020200  0.517400  1
  H  H93  1  0.433100  0.994500  0.085900  1
  H  H94  1  0.933100  0.005500  0.585900  1
  H  H95  1  0.534400  0.939400  0.196200  1
  H  H96  1  0.034400  0.060600  0.696200  1
  H  H97  1  0.610800  0.992200  0.295800  1
  H  H98  1  0.110800  0.007800  0.795800  1
  H  H99  1  0.532700  0.063200  0.207300  1
  H  H100  1  0.032700  0.936800  0.707300  1
  H  H101  1  0.664800  0.084200  0.381800  1
  H  H102  1  0.164800  0.915800  0.881800  1
  H  H103  1  0.686400  0.130200  0.439200  1
  H  H104  1  0.186400  0.869800  0.939200  1
  H  H105  1  0.705300  0.197900  0.461600  1
  H  H106  1  0.205300  0.802100  0.961600  1
  H  H107  1  0.672300  0.252400  0.421500  1
  H  H108  1  0.172300  0.747600  0.921500  1
  H  H109  1  0.629300  0.238600  0.355900  1
  H  H110  1  0.129300  0.761400  0.855900  1
  H  H111  1  0.494400  0.063100  0.154800  1
  H  H112  1  0.994400  0.936900  0.654800  1
  H  H113  1  0.479500  0.121000  0.328000  1
  H  H114  1  0.979500  0.879000  0.828000  1
  H  H115  1  0.378400  0.144000  0.331500  1
  H  H116  1  0.878400  0.856000  0.831500  1
  H  H117  1  0.355700  0.212200  0.315800  1
  H  H118  1  0.855700  0.787800  0.815800  1
  H  H119  1  0.420800  0.248300  0.283100  1
  H  H120  1  0.920800  0.751700  0.783100  1
  H  H121  1  0.530300  0.256900  0.263100  1
  H  H122  1  0.030300  0.743100  0.763100  1
  H  H123  1  0.724900  0.277200  0.241500  1
  H  H124  1  0.224900  0.722800  0.741500  1
  H  H125  1  0.880600  0.243700  0.197900  1
  H  H126  1  0.380600  0.756300  0.697900  1
  H  H127  1  0.776400  0.157600  0.242400  1
  H  H128  1  0.276400  0.842400  0.742400  1
  H  H129  1  0.017500  0.165300  0.160800  1
  H  H130  1  0.517500  0.834700  0.660800  1
  H  H131  1  0.097700  0.125700  0.130500  1
  H  H132  1  0.597700  0.874300  0.630500  1
  H  H133  1  0.137300  0.058200  0.116900  1
  H  H134  1  0.637300  0.941800  0.616900  1
  H  H135  1  0.098800  0.003200  0.139500  1
  H  H136  1  0.598800  0.996800  0.639500  1
  H  H137  1  0.017400  0.005700  0.177800  1
  H  H138  1  0.517400  0.994300  0.677800  1
  H  H139  1  0.020700  0.140000  0.262000  1
  H  H140  1  0.520700  0.860000  0.762000  1
  H  H141  1  0.068900  0.139700  0.326300  1
  H  H142  1  0.568900  0.860300  0.826300  1
  H  H143  1  0.051100  0.082600  0.365300  1
  H  H144  1  0.551100  0.917400  0.865300  1
  H  H145  1  0.989600  0.028600  0.338200  1
  H  H146  1  0.489600  0.971400  0.838200  1
  H  H147  1  0.925200  0.996900  0.278800  1
  H  H148  1  0.425200  0.003100  0.778800  1
  H  H149  1  0.799900  0.941300  0.177500  1
  H  H150  1  0.299900  0.058700  0.677500  1
  H  H151  1  0.705100  0.937600  0.069200  1
  H  H152  1  0.205100  0.062400  0.569200  1
  H  H153  1  0.821800  0.032000  0.101500  1
  H  H154  1  0.321800  0.968000  0.601500  1
  H  H155  1  0.637400  0.979100  0.952200  1
  H  H156  1  0.137400  0.020900  0.452200  1
  H  H157  1  0.578500  0.002800  0.887100  1
  H  H158  1  0.078500  0.997200  0.387100  1
  H  H159  1  0.566700  0.049600  0.837800  1
  H  H160  1  0.066700  0.950400  0.337800  1
  H  H161  1  0.630000  0.107600  0.840600  1
  H  H162  1  0.130000  0.892400  0.340600  1
  H  H163  1  0.706100  0.114700  0.895400  1
  H  H164  1  0.206100  0.885300  0.395400  1
  H  H165  1  0.107700  0.696800  0.224400  1
  H  H166  1  0.607700  0.303200  0.724400  1
  H  H167  1  0.030900  0.699600  0.266400  1
  H  H168  1  0.530900  0.300400  0.766400  1
  H  H169  1  0.006500  0.640300  0.299000  1
  H  H170  1  0.506500  0.359700  0.799000  1
  H  H171  1  0.044900  0.579000  0.281700  1
  H  H172  1  0.544900  0.421000  0.781700  1
  H  H173  1  0.118600  0.538500  0.243700  1
  H  H174  1  0.618600  0.461500  0.743700  1
  H  H175  1  0.247700  0.460100  0.191600  1
  H  H176  1  0.747700  0.539900  0.691600  1
  H  H177  1  0.392200  0.435400  0.134200  1
  H  H178  1  0.892200  0.564600  0.634200  1
  H  H179  1  0.325200  0.550600  0.135600  1
  H  H180  1  0.825200  0.449400  0.635600  1
  H  H181  1  0.534200  0.465200  0.055300  1
  H  H182  1  0.034200  0.534800  0.555300  1
  H  H183  1  0.631300  0.484300  0.023600  1
  H  H184  1  0.131300  0.515700  0.523600  1
  H  H185  1  0.698000  0.537100  0.007900  1
  H  H186  1  0.198000  0.462900  0.507900  1
  H  H187  1  0.682400  0.603200  0.027300  1
  H  H188  1  0.182400  0.396800  0.527300  1
  H  H189  1  0.595600  0.619800  0.055400  1
  H  H190  1  0.095600  0.380200  0.555400  1
  H  H191  1  0.393500  0.563600  0.998300  1
  H  H192  1  0.893500  0.436400  0.498300  1
  H  H193  1  0.336300  0.607700  0.956900  1
  H  H194  1  0.836300  0.392300  0.456900  1
  H  H195  1  0.339900  0.679600  0.972400  1
  H  H196  1  0.839900  0.320400  0.472400  1
  H  H197  1  0.399600  0.700600  0.029400  1
  H  H198  1  0.899600  0.299400  0.529400  1
  H  H199  1  0.473400  0.684100  0.089200  1
  H  H200  1  0.973400  0.315900  0.589200  1
  H  H201  1  0.593300  0.736100  0.193900  1
  H  H202  1  0.093300  0.263900  0.693900  1
  H  H203  1  0.697700  0.679400  0.283500  1
  H  H204  1  0.197700  0.320600  0.783500  1
  H  H205  1  0.597200  0.611800  0.199700  1
  H  H206  1  0.097200  0.388200  0.699700  1
  H  H207  1  0.773300  0.579900  0.357500  1
  H  H208  1  0.273300  0.420100  0.857500  1
  H  H209  1  0.819200  0.527100  0.407400  1
  H  H210  1  0.319200  0.472900  0.907400  1
  H  H211  1  0.821200  0.459500  0.430500  1
  H  H212  1  0.321200  0.540500  0.930500  1
  H  H213  1  0.775700  0.406900  0.388400  1
  H  H214  1  0.275700  0.593100  0.888400  1
  H  H215  1  0.719100  0.427000  0.330300  1
  H  H216  1  0.219100  0.573000  0.830300  1
  H  H217  1  0.540000  0.614400  0.151900  1
  H  H218  1  0.040000  0.385600  0.651900  1
  H  H219  1  0.799300  0.537000  0.244600  1
  H  H220  1  0.299300  0.463000  0.744600  1
  H  H221  1  0.862700  0.506100  0.204000  1
  H  H222  1  0.362700  0.493900  0.704000  1
  H  H223  1  0.833500  0.442100  0.176800  1
  H  H224  1  0.333500  0.557900  0.676800  1
  H  H225  1  0.746000  0.409500  0.193000  1
  H  H226  1  0.246000  0.590500  0.693000  1
  H  H227  1  0.648600  0.412600  0.228100  1
  H  H228  1  0.148600  0.587400  0.728100  1
  H  H229  1  0.495400  0.407400  0.301400  1
  H  H230  1  0.995400  0.592600  0.801400  1
  H  H231  1  0.372200  0.455200  0.364900  1
  H  H232  1  0.872200  0.544800  0.864900  1
  H  H233  1  0.511500  0.525900  0.336600  1
  H  H234  1  0.011500  0.474100  0.836600  1
  H  H235  1  0.273900  0.556200  0.417600  1
  H  H236  1  0.773900  0.443800  0.917600  1
  H  H237  1  0.214800  0.609900  0.450000  1
  H  H238  1  0.714800  0.390100  0.950000  1
  H  H239  1  0.213800  0.674600  0.480400  1
  H  H240  1  0.713800  0.325400  0.980400  1
  H  H241  1  0.298200  0.718700  0.479300  1
  H  H242  1  0.798200  0.281300  0.979300  1
  H  H243  1  0.381500  0.696300  0.451300  1
  H  H244  1  0.881500  0.303700  0.951300  1
  H  H245  1  0.483400  0.551400  0.464700  1
  H  H246  1  0.983400  0.448600  0.964700  1
  H  H247  1  0.558800  0.555400  0.519700  1
  H  H248  1  0.058800  0.444600  0.019700  1
  H  H249  1  0.627600  0.609000  0.524100  1
  H  H250  1  0.127600  0.391000  0.024100  1
  H  H251  1  0.605700  0.665600  0.481700  1
  H  H252  1  0.105700  0.334400  0.981700  1
  H  H253  1  0.539000  0.695800  0.422600  1
  H  H254  1  0.039000  0.304200  0.922600  1
  H  H255  1  0.428100  0.757300  0.323400  1
  H  H256  1  0.928100  0.242700  0.823400  1
  H  H257  1  0.316500  0.761100  0.220500  1
  H  H258  1  0.816500  0.238900  0.720500  1
  H  H259  1  0.313900  0.663000  0.290900  1
  H  H260  1  0.813900  0.337000  0.790900  1
  H  H261  1  0.172200  0.717300  0.126800  1
  H  H262  1  0.672200  0.282700  0.626800  1
  H  H263  1  0.101500  0.689200  0.065500  1
  H  H264  1  0.601500  0.310800  0.565500  1
  H  H265  1  0.051900  0.632700  0.032800  1
  H  H266  1  0.551900  0.367300  0.532800  1
  H  H267  1  0.048500  0.571100  0.066900  1
  H  H268  1  0.548500  0.428900  0.566900  1
  H  H269  1  0.102300  0.564900  0.128300  1
  H  H270  1  0.602300  0.435100  0.628300  1
  H  H271  1  0.134600  0.521400  0.054800  1
  H  H272  1  0.634600  0.478600  0.554800  1
  H  H273  1  0.079200  0.493900  0.099500  1
  H  H274  1  0.579200  0.506100  0.599500  1
  H  H275  1  0.110500  0.430800  0.127900  1
  H  H276  1  0.610500  0.569200  0.627900  1
  H  H277  1  0.201500  0.399700  0.113000  1
  H  H278  1  0.701500  0.600300  0.613000  1
  H  H279  1  0.291100  0.400800  0.072900  1
  H  H280  1  0.791100  0.599200  0.572900  1
  H  H281  1  0.442300  0.396200  0.999500  1
  H  H282  1  0.942300  0.603800  0.499500  1
  H  H283  1  0.579200  0.446900  0.948600  1
  H  H284  1  0.079200  0.553100  0.448600  1
  H  H285  1  0.431400  0.514700  0.965400  1
  H  H286  1  0.931400  0.485300  0.465400  1
  H  H287  1  0.673300  0.542100  0.886400  1
  H  H288  1  0.173300  0.457900  0.386400  1
  H  H289  1  0.729000  0.595900  0.850000  1
  H  H290  1  0.229000  0.404100  0.350000  1
  H  H291  1  0.735300  0.663300  0.829900  1
  H  H292  1  0.235300  0.336700  0.329900  1
  H  H293  1  0.660600  0.710200  0.838200  1
  H  H294  1  0.160600  0.289800  0.338200  1
  H  H295  1  0.576900  0.689000  0.870500  1
  H  H296  1  0.076900  0.311000  0.370500  1
  H  H297  1  0.493200  0.537800  0.839900  1
  H  H298  1  0.993200  0.462200  0.339900  1
  H  H299  1  0.411000  0.532100  0.789900  1
  H  H300  1  0.911000  0.467900  0.289900  1
  H  H301  1  0.335100  0.578600  0.782400  1
  H  H302  1  0.835100  0.421400  0.282400  1
  H  H303  1  0.341000  0.636400  0.825500  1
  H  H304  1  0.841000  0.363600  0.325500  1
  H  H305  1  0.401500  0.674600  0.882200  1
  H  H306  1  0.901500  0.325400  0.382200  1
  H  H307  1  0.479100  0.739000  0.987300  1
  H  H308  1  0.979100  0.261000  0.487300  1
  H  H309  1  0.588300  0.759600  0.088200  1
  H  H310  1  0.088300  0.240400  0.588200  1
  H  H311  1  0.632600  0.671300  0.015200  1
  H  H312  1  0.132600  0.328700  0.515200  1
  H  H313  1  0.740000  0.731500  0.185500  1
  H  H314  1  0.240000  0.268500  0.685500  1
  H  H315  1  0.806500  0.709100  0.247500  1
  H  H316  1  0.306500  0.290900  0.747500  1
  H  H317  1  0.878200  0.666000  0.280300  1
  H  H318  1  0.378200  0.334000  0.780300  1
  H  H319  1  0.896300  0.600000  0.248800  1
  H  H320  1  0.396300  0.400000  0.748800  1
  H  H321  1  0.851100  0.592100  0.186600  1
  H  H322  1  0.351100  0.407900  0.686600  1
  H  H323  1  0.840900  0.716900  0.089500  1
  H  H324  1  0.340900  0.283100  0.589500  1
  H  H325  1  0.912200  0.723600  0.044700  1
  H  H326  1  0.412200  0.276400  0.544700  1
  H  H327  1  0.948900  0.666300  0.020200  1
  H  H328  1  0.448900  0.333700  0.520200  1
  H  H329  1  0.914000  0.603100  0.036500  1
  H  H330  1  0.414000  0.396900  0.536500  1
  H  H331  1  0.846500  0.559200  0.074400  1
  H  H332  1  0.346500  0.440800  0.574400  1
  H  H333  1  0.705800  0.479100  0.112100  1
  H  H334  1  0.205800  0.520900  0.612100  1
  H  H335  1  0.553300  0.448600  0.160000  1
  H  H336  1  0.053300  0.551400  0.660000  1
  H  H337  1  0.613600  0.565600  0.164700  1
  H  H338  1  0.113600  0.434400  0.664700  1
  H  H339  1  0.409900  0.459500  0.233500  1
  H  H340  1  0.909900  0.540500  0.733500  1
  H  H341  1  0.314800  0.468000  0.273100  1
  H  H342  1  0.814800  0.532000  0.773100  1
  H  H343  1  0.254500  0.514000  0.305800  1
  H  H344  1  0.754500  0.486000  0.805800  1
  H  H345  1  0.281800  0.583900  0.310000  1
  H  H346  1  0.781800  0.416100  0.810000  1
  H  H347  1  0.363300  0.605500  0.281200  1
  H  H348  1  0.863300  0.394500  0.781200  1
  H  H349  1  0.546500  0.576100  0.301200  1
  H  H350  1  0.046500  0.423900  0.801200  1
  H  H351  1  0.588200  0.629400  0.342000  1
  H  H352  1  0.088200  0.370600  0.842000  1
  H  H353  1  0.569500  0.696700  0.325000  1
  H  H354  1  0.069500  0.303300  0.825000  1
  H  H355  1  0.499000  0.711600  0.268000  1
  H  H356  1  0.999000  0.288400  0.768000  1
  H  H357  1  0.428400  0.684900  0.210200  1
  H  H358  1  0.928400  0.315100  0.710200  1
  H  H359  1  0.301400  0.724100  0.106500  1
  H  H360  1  0.801400  0.275900  0.606500  1
  H  H361  1  0.211000  0.659900  0.015200  1
  H  H362  1  0.711000  0.340100  0.515200  1
  H  H363  1  0.324300  0.601300  0.100300  1
  H  H364  1  0.824300  0.398700  0.600300  1
  H  H365  1  0.150300  0.560500  0.941800  1
  H  H366  1  0.650300  0.439500  0.441800  1
  H  H367  1  0.108700  0.508400  0.891800  1
  H  H368  1  0.608700  0.491600  0.391800  1
  H  H369  1  0.109200  0.440400  0.869800  1
  H  H370  1  0.609200  0.559600  0.369800  1
  H  H371  1  0.159500  0.391000  0.910000  1
  H  H372  1  0.659500  0.609000  0.410000  1
  H  H373  1  0.220700  0.409600  0.967500  1
  H  H374  1  0.720700  0.590400  0.467500  1
  H  H375  1  0.341900  0.613200  0.163900  1
  H  H376  1  0.841900  0.386800  0.663900  1
  H  H377  1  0.583700  0.155700  0.912900  1
  H  H378  1  0.083700  0.844300  0.412900  1
  H  H379  1  0.678100  0.185200  0.911200  1
  H  H380  1  0.178100  0.814800  0.411200  1
  H  H381  1  0.699500  0.250700  0.938100  1
  H  H382  1  0.199500  0.749300  0.438100  1
  H  H383  1  0.625000  0.281100  0.971800  1
  H  H384  1  0.125000  0.718900  0.471800  1
  H  H385  1  0.519700  0.278300  0.992700  1
  H  H386  1  0.019700  0.721700  0.492700  1
  H  H387  1  0.334700  0.282200  0.027400  1
  H  H388  1  0.834700  0.717800  0.527400  1
  H  H389  1  0.176300  0.238500  0.059300  1
  H  H390  1  0.676300  0.761500  0.559300  1
  H  H391  1  0.281400  0.166000  0.001400  1
  H  H392  1  0.781400  0.834000  0.501400  1
  H  H393  1  0.019400  0.153000  0.058500  1
  H  H394  1  0.519400  0.847000  0.558500  1
  H  H395  1  0.930700  0.103600  0.063100  1
  H  H396  1  0.430700  0.896400  0.563100  1
  H  H397  1  0.887600  0.037700  0.053800  1
  H  H398  1  0.387600  0.962300  0.553800  1
  H  H399  1  0.950900  0.984200  0.033800  1
  H  H400  1  0.450900  0.015800  0.533800  1
  H  H401  1  0.045100  0.001600  0.019300  1
  H  H402  1  0.545100  0.998400  0.519300  1
  H  H403  1  0.049100  0.151400  0.959400  1
  H  H404  1  0.549100  0.848600  0.459400  1
  H  H405  1  0.021300  0.162100  0.892500  1
  H  H406  1  0.521300  0.837900  0.392500  1
  H  H407  1  0.049900  0.112900  0.849900  1
  H  H408  1  0.549900  0.887100  0.349900  1
  H  H409  1  0.107700  0.057500  0.873600  1
  H  H410  1  0.607700  0.942500  0.373600  1
  H  H411  1  0.159900  0.016300  0.931300  1
  H  H412  1  0.659900  0.983700  0.431300  1
  H  H413  1  0.268700  0.945300  0.021900  1
  H  H414  1  0.768700  0.054700  0.521900  1
  H  H415  1  0.360300  0.918800  0.128400  1
  H  H416  1  0.860300  0.081200  0.628400  1
  H  H417  1  0.237500  0.012300  0.113800  1
  H  H418  1  0.737500  0.987700  0.613800  1
  H  H419  1  0.431700  0.937300  0.251600  1
  H  H420  1  0.931700  0.062700  0.751600  1
  H  H421  1  0.492100  0.953700  0.316800  1
  H  H422  1  0.992100  0.046300  0.816800  1
  H  H423  1  0.509200  0.000400  0.371800  1
  H  H424  1  0.009200  0.999600  0.871800  1
  H  H425  1  0.441200  0.053200  0.372100  1
  H  H426  1  0.941200  0.946800  0.872100  1
  H  H427  1  0.360700  0.063700  0.323400  1
  H  H428  1  0.860700  0.936300  0.823400  1
  H  H429  1  0.237800  0.945700  0.255800  1
  H  H430  1  0.737800  0.054300  0.755800  1
  H  H431  1  0.137400  0.932400  0.268900  1
  H  H432  1  0.637400  0.067600  0.768900  1
  H  H433  1  0.071000  0.987400  0.273100  1
  H  H434  1  0.571000  0.012600  0.773100  1
  H  H435  1  0.105600  0.053000  0.262900  1
  H  H436  1  0.605600  0.947000  0.762900  1
  H  H437  1  0.194300  0.101600  0.252900  1
  H  H438  1  0.694300  0.898400  0.752900  1
  H  H439  1  0.331000  0.191200  0.217700  1
  H  H440  1  0.831000  0.808800  0.717700  1
  H  H441  1  0.485200  0.227000  0.175800  1
  H  H442  1  0.985200  0.773000  0.675800  1
  H  H443  1  0.460700  0.108000  0.199800  1
  H  H444  1  0.960700  0.892000  0.699800  1
  H  H445  1  0.683000  0.217700  0.158400  1
  H  H446  1  0.183000  0.782300  0.658400  1
  H  H447  1  0.788800  0.211800  0.130700  1
  H  H448  1  0.288800  0.788200  0.630700  1
  H  H449  1  0.854800  0.172200  0.101200  1
  H  H450  1  0.354800  0.827800  0.601200  1
  H  H451  1  0.827500  0.103900  0.082400  1
  H  H452  1  0.327500  0.896100  0.582400  1
  H  H453  1  0.733800  0.078400  0.100000  1
  H  H454  1  0.233800  0.921600  0.600000  1
  H  H455  1  0.704800  0.109100  0.237800  1
  H  H456  1  0.204800  0.890900  0.737800  1
  H  H457  1  0.751900  0.061200  0.281000  1
  H  H458  1  0.251900  0.938800  0.781000  1
  H  H459  1  0.749500  0.990700  0.263500  1
  H  H460  1  0.249500  0.009300  0.763500  1
  H  H461  1  0.702400  0.973200  0.200700  1
  H  H462  1  0.202400  0.026800  0.700700  1
  H  H463  1  0.644700  0.995800  0.136400  1
  H  H464  1  0.144700  0.004200  0.636400  1
  H  H465  1  0.555500  0.954400  0.019900  1
  H  H466  1  0.055500  0.045600  0.519900  1
  H  H467  1  0.472100  0.015600  0.926200  1
  H  H468  1  0.972100  0.984400  0.426200  1
  H  H469  1  0.537400  0.078500  0.023300  1
  H  H470  1  0.037400  0.921500  0.523300  1
  H  H471  1  0.398200  0.118200  0.854900  1
  H  H472  1  0.898200  0.881800  0.354900  1
  H  H473  1  0.339900  0.173400  0.811700  1
  H  H474  1  0.839900  0.826600  0.311700  1
  H  H475  1  0.302100  0.242100  0.807100  1
  H  H476  1  0.802100  0.757900  0.307100  1
  H  H477  1  0.336700  0.287500  0.853100  1
  H  H478  1  0.836700  0.712500  0.353100  1
  H  H479  1  0.395500  0.265900  0.909900  1
  H  H480  1  0.895500  0.734100  0.409900  1
  H  H481  1  0.583600  0.071900  0.074800  1
  H  H482  1  0.083600  0.928100  0.574800  1
  H  H483  1  0.492200  0.306200  0.311200  1
  H  H484  1  0.992200  0.693800  0.811200  1
  H  H485  1  0.615500  0.371000  0.315600  1
  H  H486  1  0.115500  0.629000  0.815600  1
  H  H487  1  0.651500  0.349100  0.353100  1
  H  H488  1  0.151500  0.650900  0.853100  1
  H  H489  1  0.603300  0.385000  0.357700  1
  H  H490  1  0.103300  0.615000  0.857700  1
  H  H491  1  0.513500  0.305100  0.375100  1
  H  H492  1  0.013500  0.694900  0.875100  1
  H  H493  1  0.558400  0.339700  0.395900  1
  H  H494  1  0.058400  0.660300  0.895900  1
  H  H495  1  0.585800  0.296200  0.385700  1
  H  H496  1  0.085800  0.703800  0.885700  1
  H  H497  1  0.743800  0.901600  0.337300  1
  H  H498  1  0.243800  0.098400  0.837300  1
  H  H499  1  0.788000  0.847700  0.424500  1
  H  H500  1  0.288000  0.152300  0.924500  1
  H  H501  1  0.720900  0.828000  0.423200  1
  H  H502  1  0.220900  0.172000  0.923200  1
  H  H503  1  0.732000  0.875100  0.434800  1
  H  H504  1  0.232000  0.124900  0.934800  1
  H  H505  1  0.691900  0.843800  0.328200  1
  H  H506  1  0.191900  0.156200  0.828200  1
  H  H507  1  0.660700  0.825600  0.363200  1
  H  H508  1  0.160700  0.174400  0.863200  1
  H  H509  1  0.726800  0.809200  0.355500  1
  H  H510  1  0.226800  0.190800  0.855500  1
  C  C511  1  0.846100  0.019800  0.950400  1
  C  C512  1  0.346100  0.980200  0.450400  1
  C  C513  1  0.904700  0.015700  0.939300  1
  C  C514  1  0.404700  0.984300  0.439300  1
  C  C515  1  0.940200  0.051700  0.937100  1
  C  C516  1  0.440200  0.948300  0.437100  1
  C  C517  1  0.919900  0.086300  0.948700  1
  C  C518  1  0.419900  0.913700  0.448700  1
  C  C519  1  0.861800  0.089000  0.960800  1
  C  C520  1  0.361800  0.911000  0.460800  1
  C  C521  1  0.836500  0.127400  0.975200  1
  C  C522  1  0.336500  0.872600  0.475200  1
  C  C523  1  0.703400  0.144400  0.011000  1
  C  C524  1  0.203400  0.855600  0.511000  1
  C  C525  1  0.667000  0.173400  0.031600  1
  C  C526  1  0.167000  0.826600  0.531600  1
  C  C527  1  0.684900  0.213500  0.042100  1
  C  C528  1  0.184900  0.786500  0.542100  1
  C  C529  1  0.648400  0.237460  0.062400  1
  C  C530  1  0.148400  0.762540  0.562400  1
  C  C531  1  0.593400  0.222110  0.071900  1
  C  C532  1  0.093400  0.777890  0.571900  1
  C  C533  1  0.574200  0.183280  0.061960  1
  C  C534  1  0.074200  0.816720  0.561960  1
  C  C535  1  0.610800  0.158640  0.041190  1
  C  C536  1  0.110800  0.841360  0.541190  1
  C  C537  1  0.517000  0.165410  0.072540  1
  C  C538  1  0.017000  0.834590  0.572540  1
  C  C539  1  0.379800  0.187200  0.100200  1
  C  C540  1  0.879800  0.812800  0.600200  1
  C  C541  1  0.333500  0.159200  0.112200  1
  C  C542  1  0.833500  0.840800  0.612200  1
  C  C543  1  0.280100  0.170700  0.125300  1
  C  C544  1  0.780100  0.829300  0.625300  1
  C  C545  1  0.243500  0.141700  0.139300  1
  C  C546  1  0.743500  0.858300  0.639300  1
  C  C547  1  0.261300  0.100100  0.139400  1
  C  C548  1  0.761300  0.899900  0.639400  1
  C  C549  1  0.315000  0.090800  0.125400  1
  C  C550  1  0.815000  0.909200  0.625400  1
  C  C551  1  0.364000  0.090300  0.002700  1
  C  C552  1  0.864000  0.909700  0.502700  1
  C  C553  1  0.342400  0.063900  0.973000  1
  C  C554  1  0.842400  0.936100  0.473000  1
  C  C555  1  0.349400  0.023600  0.978000  1
  C  C556  1  0.849400  0.976400  0.478000  1
  C  C557  1  0.377900  0.008300  0.013200  1
  C  C558  1  0.877900  0.991700  0.513200  1
  C  C559  1  0.397600  0.036900  0.042300  1
  C  C560  1  0.897600  0.963100  0.542300  1
  C  C561  1  0.428600  0.022800  0.079800  1
  C  C562  1  0.928600  0.977200  0.579800  1
  C  C563  1  0.491100  0.003660  0.156600  1
  C  C564  1  0.991100  0.996340  0.656600  1
  C  C565  1  0.525900  0.001900  0.196100  1
  C  C566  1  0.025900  0.998100  0.696100  1
  C  C567  1  0.543700  0.963500  0.211100  1
  C  C568  1  0.043700  0.036500  0.711100  1
  C  C569  1  0.575100  0.961200  0.247900  1
  C  C570  1  0.075100  0.038800  0.747900  1
  C  C571  1  0.589400  0.995100  0.270300  1
  C  C572  1  0.089400  0.004900  0.770300  1
  C  C573  1  0.572700  0.033600  0.255800  1
  C  C574  1  0.072700  0.966400  0.755800  1
  C  C575  1  0.542300  0.036900  0.218100  1
  C  C576  1  0.042300  0.963100  0.718100  1
  C  C577  1  0.588500  0.071900  0.278500  1
  C  C578  1  0.088500  0.928100  0.778500  1
  C  C579  1  0.650900  0.107600  0.366900  1
  C  C580  1  0.150900  0.892400  0.866900  1
  C  C581  1  0.659100  0.148200  0.383000  1
  C  C582  1  0.159100  0.851800  0.883000  1
  C  C583  1  0.678800  0.153000  0.422400  1
  C  C584  1  0.178800  0.847000  0.922400  1
  C  C585  1  0.686900  0.193000  0.435700  1
  C  C586  1  0.186900  0.807000  0.935700  1
  C  C587  1  0.668700  0.225100  0.412200  1
  C  C588  1  0.168700  0.774900  0.912200  1
  C  C589  1  0.643700  0.216700  0.372500  1
  C  C590  1  0.143700  0.783300  0.872500  1
  C  C591  1  0.467700  0.147600  0.318800  1
  C  C592  1  0.967700  0.852400  0.818800  1
  C  C593  1  0.407600  0.161400  0.322000  1
  C  C594  1  0.907600  0.838600  0.822000  1
  C  C595  1  0.393500  0.200400  0.311100  1
  C  C596  1  0.893500  0.799600  0.811100  1
  C  C597  1  0.432700  0.222200  0.293600  1
  C  C598  1  0.932700  0.777800  0.793600  1
  C  C599  1  0.492000  0.206800  0.290600  1
  C  C600  1  0.992000  0.793200  0.790600  1
  C  C601  1  0.537800  0.230200  0.273500  1
  C  C602  1  0.037800  0.769800  0.773500  1
  C  C603  1  0.684300  0.201500  0.261700  1
  C  C604  1  0.184300  0.798500  0.761700  1
  C  C605  1  0.740600  0.214700  0.244700  1
  C  C606  1  0.240600  0.785300  0.744700  1
  C  C607  1  0.752300  0.256200  0.236000  1
  C  C608  1  0.252300  0.743800  0.736000  1
  C  C609  1  0.803000  0.265400  0.219600  1
  C  C610  1  0.303000  0.734600  0.719600  1
  C  C611  1  0.846200  0.236300  0.210000  1
  C  C612  1  0.346200  0.763700  0.710000  1
  C  C613  1  0.834500  0.194900  0.219900  1
  C  C614  1  0.334500  0.805100  0.719900  1
  C  C615  1  0.783300  0.185400  0.236400  1
  C  C616  1  0.283300  0.814600  0.736400  1
  C  C617  1  0.876500  0.161400  0.209700  1
  C  C618  1  0.376500  0.838600  0.709700  1
  C  C619  1  0.003100  0.139600  0.168600  1
  C  C620  1  0.503100  0.860400  0.668600  1
  C  C621  1  0.033400  0.101300  0.161900  1
  C  C622  1  0.533400  0.898700  0.661900  1
  C  C623  1  0.081500  0.101200  0.139800  1
  C  C624  1  0.581500  0.898800  0.639800  1
  C  C625  1  0.104800  0.060700  0.132000  1
  C  C626  1  0.604800  0.939300  0.632000  1
  C  C627  1  0.082500  0.029100  0.145200  1
  C  C628  1  0.582500  0.970900  0.645200  1
  C  C629  1  0.033600  0.030200  0.168500  1
  C  C630  1  0.533600  0.969800  0.668500  1
  C  C631  1  0.015300  0.117000  0.277800  1
  C  C632  1  0.515300  0.883000  0.777800  1
  C  C633  1  0.043700  0.117500  0.316100  1
  C  C634  1  0.543700  0.882500  0.816100  1
  C  C635  1  0.033200  0.083600  0.339000  1
  C  C636  1  0.533200  0.916400  0.839000  1
  C  C637  1  0.996800  0.051700  0.323000  1
  C  C638  1  0.496800  0.948300  0.823000  1
  C  C639  1  0.970900  0.053700  0.284400  1
  C  C640  1  0.470900  0.946300  0.784400  1
  C  C641  1  0.933100  0.021400  0.265700  1
  C  C642  1  0.433100  0.978600  0.765700  1
  C  C643  1  0.858000  0.015300  0.172600  1
  C  C644  1  0.358000  0.984700  0.672600  1
  C  C645  1  0.817800  0.990200  0.144200  1
  C  C646  1  0.317800  0.009800  0.644200  1
  C  C647  1  0.789900  0.953700  0.152900  1
  C  C648  1  0.289900  0.046300  0.652900  1
  C  C649  1  0.747400  0.935900  0.124900  1
  C  C650  1  0.247400  0.064100  0.624900  1
  C  C651  1  0.733700  0.951300  0.087900  1
  C  C652  1  0.233700  0.048700  0.587900  1
  C  C653  1  0.762400  0.986900  0.078400  1
  C  C654  1  0.262400  0.013100  0.578400  1
  C  C655  1  0.803500  0.006800  0.107300  1
  C  C656  1  0.303500  0.993200  0.607300  1
  C  C657  1  0.748600  0.007400  0.041300  1
  C  C658  1  0.248600  0.992600  0.541300  1
  C  C659  1  0.658500  0.004600  0.952800  1
  C  C660  1  0.158500  0.995400  0.452800  1
  C  C661  1  0.648300  0.032600  0.920500  1
  C  C662  1  0.148300  0.967400  0.420500  1
  C  C663  1  0.604100  0.026400  0.888600  1
  C  C664  1  0.104100  0.973600  0.388600  1
  C  C665  1  0.597400  0.053900  0.859500  1
  C  C666  1  0.097400  0.946100  0.359500  1
  C  C667  1  0.634100  0.088000  0.860800  1
  C  C668  1  0.134100  0.912000  0.360800  1
  C  C669  1  0.678800  0.091900  0.894300  1
  C  C670  1  0.178800  0.908100  0.394300  1
  C  C671  1  0.093700  0.672500  0.235200  1
  C  C672  1  0.593700  0.327500  0.735200  1
  C  C673  1  0.049400  0.674200  0.261500  1
  C  C674  1  0.549400  0.325800  0.761500  1
  C  C675  1  0.033400  0.639100  0.280100  1
  C  C676  1  0.533400  0.360900  0.780100  1
  C  C677  1  0.056900  0.603700  0.270500  1
  C  C678  1  0.556900  0.396300  0.770500  1
  C  C679  1  0.099200  0.602300  0.244100  1
  C  C680  1  0.599200  0.397700  0.744100  1
  C  C681  1  0.128800  0.564100  0.233400  1
  C  C682  1  0.628800  0.435900  0.733400  1
  C  C683  1  0.241400  0.543300  0.179000  1
  C  C684  1  0.741400  0.456700  0.679000  1
  C  C685  1  0.279900  0.510380  0.165870  1
  C  C686  1  0.779900  0.489620  0.665870  1
  C  C687  1  0.277500  0.469390  0.176400  1
  C  C688  1  0.777500  0.530610  0.676400  1
  C  C689  1  0.320700  0.441660  0.163900  1
  C  C690  1  0.820700  0.558340  0.663900  1
  C  C691  1  0.363600  0.454380  0.142100  1
  C  C692  1  0.863600  0.545620  0.642100  1
  C  C693  1  0.365300  0.496180  0.131300  1
  C  C694  1  0.865300  0.503820  0.631300  1
  C  C695  1  0.324000  0.522710  0.143110  1
  C  C696  1  0.824000  0.477290  0.643110  1
  C  C697  1  0.413000  0.512290  0.109740  1
  C  C698  1  0.913000  0.487710  0.609740  1
  C  C699  1  0.531100  0.493770  0.059660  1
  C  C700  1  0.031100  0.506230  0.559660  1
  C  C701  1  0.574700  0.522980  0.047250  1
  C  C702  1  0.074700  0.477020  0.547250  1
  C  C703  1  0.624200  0.512100  0.029700  1
  C  C704  1  0.124200  0.487900  0.529700  1
  C  C705  1  0.664200  0.543300  0.021100  1
  C  C706  1  0.164200  0.456700  0.521100  1
  C  C707  1  0.654100  0.582300  0.031700  1
  C  C708  1  0.154100  0.417700  0.531700  1
  C  C709  1  0.602800  0.592100  0.049100  1
  C  C710  1  0.102800  0.407900  0.549100  1
  C  C711  1  0.394800  0.592000  0.004500  1
  C  C712  1  0.894800  0.408000  0.504500  1
  C  C713  1  0.360600  0.617700  0.979600  1
  C  C714  1  0.860600  0.382300  0.479600  1
  C  C715  1  0.362600  0.660300  0.989000  1
  C  C716  1  0.862600  0.339700  0.489000  1
  C  C717  1  0.398100  0.672500  0.022300  1
  C  C718  1  0.898100  0.327500  0.522300  1
  C  C719  1  0.431300  0.644240  0.045580  1
  C  C720  1  0.931300  0.355760  0.545580  1
  C  C721  1  0.469100  0.656210  0.081700  1
  C  C722  1  0.969100  0.343790  0.581700  1
  C  C723  1  0.548100  0.673960  0.153260  1
  C  C724  1  0.048100  0.326040  0.653260  1
  C  C725  1  0.589100  0.674100  0.190200  1
  C  C726  1  0.089100  0.325900  0.690200  1
  C  C727  1  0.607600  0.711400  0.206500  1
  C  C728  1  0.107600  0.288600  0.706500  1
  C  C729  1  0.646500  0.712910  0.240800  1
  C  C730  1  0.146500  0.287090  0.740800  1
  C  C731  1  0.670000  0.677600  0.260100  1
  C  C732  1  0.170000  0.322400  0.760100  1
  C  C733  1  0.651600  0.639450  0.243760  1
  C  C734  1  0.151600  0.360550  0.743760  1
  C  C735  1  0.610900  0.637660  0.209920  1
  C  C736  1  0.110900  0.362340  0.709920  1
  C  C737  1  0.671200  0.599560  0.263600  1
  C  C738  1  0.171200  0.400440  0.763600  1
  C  C739  1  0.754800  0.557400  0.343100  1
  C  C740  1  0.254800  0.442600  0.843100  1
  C  C741  1  0.764300  0.515600  0.357100  1
  C  C742  1  0.264300  0.484400  0.857100  1
  C  C743  1  0.797800  0.506100  0.392200  1
  C  C744  1  0.297800  0.493900  0.892200  1
  C  C745  1  0.800600  0.465900  0.405500  1
  C  C746  1  0.300600  0.534100  0.905500  1
  C  C747  1  0.772400  0.435000  0.381300  1
  C  C748  1  0.272400  0.565000  0.881300  1
  C  C749  1  0.739800  0.447400  0.346600  1
  C  C750  1  0.239800  0.552600  0.846600  1
  C  C751  1  0.788300  0.510900  0.233800  1
  C  C752  1  0.288300  0.489100  0.733800  1
  C  C753  1  0.826400  0.492800  0.209500  1
  C  C754  1  0.326400  0.507200  0.709500  1
  C  C755  1  0.809400  0.454900  0.193900  1
  C  C756  1  0.309400  0.545100  0.693900  1
  C  C757  1  0.757500  0.435900  0.203000  1
  C  C758  1  0.257500  0.564100  0.703000  1
  C  C759  1  0.722400  0.455400  0.226780  1
  C  C760  1  0.222400  0.544600  0.726780  1
  C  C761  1  0.665100  0.438100  0.237800  1
  C  C762  1  0.165100  0.561900  0.737800  1
  C  C763  1  0.569700  0.475500  0.298000  1
  C  C764  1  0.069700  0.524500  0.798000  1
  C  C765  1  0.514100  0.468200  0.316700  1
  C  C766  1  0.014100  0.531800  0.816700  1
  C  C767  1  0.481600  0.430100  0.314800  1
  C  C768  1  0.981600  0.569900  0.814800  1
  C  C769  1  0.430100  0.426700  0.332700  1
  C  C770  1  0.930100  0.573300  0.832700  1
  C  C771  1  0.407600  0.458800  0.352500  1
  C  C772  1  0.907600  0.541200  0.852500  1
  C  C773  1  0.438300  0.497000  0.354100  1
  C  C774  1  0.938300  0.503000  0.854100  1
  C  C775  1  0.490800  0.500300  0.335800  1
  C  C776  1  0.990800  0.499700  0.835800  1
  C  C777  1  0.417200  0.533800  0.372100  1
  C  C778  1  0.917200  0.466200  0.872100  1
  C  C779  1  0.305500  0.576200  0.417800  1
  C  C780  1  0.805500  0.423800  0.917800  1
  C  C781  1  0.299500  0.616500  0.434600  1
  C  C782  1  0.799500  0.383500  0.934600  1
  C  C783  1  0.249000  0.627900  0.450700  1
  C  C784  1  0.749000  0.372100  0.950700  1
  C  C785  1  0.248100  0.666400  0.468400  1
  C  C786  1  0.748100  0.333600  0.968400  1
  C  C787  1  0.297800  0.692300  0.468000  1
  C  C788  1  0.797800  0.307700  0.968000  1
  C  C789  1  0.346800  0.678700  0.450800  1
  C  C790  1  0.846800  0.321300  0.950800  1
  C  C791  1  0.505900  0.576100  0.470200  1
  C  C792  1  0.005900  0.423900  0.970200  1
  C  C793  1  0.553900  0.577000  0.501400  1
  C  C794  1  0.053900  0.423000  0.001400  1
  C  C795  1  0.592300  0.608800  0.504900  1
  C  C796  1  0.092300  0.391200  0.004900  1
  C  C797  1  0.579700  0.642200  0.479600  1
  C  C798  1  0.079700  0.357800  0.979600  1
  C  C799  1  0.529400  0.640000  0.451900  1
  C  C800  1  0.029400  0.360000  0.951900  1
  C  C801  1  0.514200  0.672000  0.422900  1
  C  C802  1  0.014200  0.328000  0.922900  1
  C  C803  1  0.399300  0.680000  0.347000  1
  C  C804  1  0.899300  0.320000  0.847000  1
  C  C805  1  0.374800  0.706100  0.312900  1
  C  C806  1  0.874800  0.293900  0.812900  1
  C  C807  1  0.397500  0.744600  0.305200  1
  C  C808  1  0.897500  0.255400  0.805200  1
  C  C809  1  0.376100  0.763700  0.271900  1
  C  C810  1  0.876100  0.236300  0.771900  1
  C  C811  1  0.330600  0.746800  0.243700  1
  C  C812  1  0.830600  0.253200  0.743700  1
  C  C813  1  0.307500  0.708600  0.251100  1
  C  C814  1  0.807500  0.291400  0.751100  1
  C  C815  1  0.330100  0.689100  0.285800  1
  C  C816  1  0.830100  0.310900  0.785800  1
  C  C817  1  0.263300  0.686500  0.223200  1
  C  C818  1  0.763300  0.313500  0.723200  1
  C  C819  1  0.170500  0.690200  0.136500  1
  C  C820  1  0.670500  0.309800  0.636500  1
  C  C821  1  0.132900  0.657000  0.115000  1
  C  C822  1  0.632900  0.343000  0.615000  1
  C  C823  1  0.101700  0.663100  0.077500  1
  C  C824  1  0.601700  0.336900  0.577500  1
  C  C825  1  0.071600  0.630400  0.058700  1
  C  C826  1  0.571600  0.369600  0.558700  1
  C  C827  1  0.070800  0.593900  0.078600  1
  C  C828  1  0.570800  0.406100  0.578600  1
  C  C829  1  0.102300  0.590500  0.115500  1
  C  C830  1  0.602300  0.409500  0.615500  1
  C  C831  1  0.147900  0.496200  0.066800  1
  C  C832  1  0.647900  0.503800  0.566800  1
  C  C833  1  0.114500  0.480100  0.093100  1
  C  C834  1  0.614500  0.519900  0.593100  1
  C  C835  1  0.133500  0.443300  0.110000  1
  C  C836  1  0.633500  0.556700  0.610000  1
  C  C837  1  0.186700  0.424500  0.100800  1
  C  C838  1  0.686700  0.575500  0.600800  1
  C  C839  1  0.217200  0.442500  0.073600  1
  C  C840  1  0.717200  0.557500  0.573600  1
  C  C841  1  0.273600  0.425700  0.062400  1
  C  C842  1  0.773600  0.574300  0.562400  1
  C  C843  1  0.368700  0.462690  0.001080  1
  C  C844  1  0.868700  0.537310  0.501080  1
  C  C845  1  0.427100  0.456300  0.985830  1
  C  C846  1  0.927100  0.543700  0.485830  1
  C  C847  1  0.459100  0.419400  0.988400  1
  C  C848  1  0.959100  0.580600  0.488400  1
  C  C849  1  0.515300  0.415990  0.974800  1
  C  C850  1  0.015300  0.584010  0.474800  1
  C  C851  1  0.540800  0.449500  0.957900  1
  C  C852  1  0.040800  0.550500  0.457900  1
  C  C853  1  0.509800  0.486400  0.954700  1
  C  C854  1  0.009800  0.513600  0.454700  1
  C  C855  1  0.453100  0.489500  0.968220  1
  C  C856  1  0.953100  0.510500  0.468220  1
  C  C857  1  0.532800  0.524100  0.938100  1
  C  C858  1  0.032800  0.475900  0.438100  1
  C  C859  1  0.644600  0.563200  0.889500  1
  C  C860  1  0.144600  0.436800  0.389500  1
  C  C861  1  0.649900  0.604300  0.874300  1
  C  C862  1  0.149900  0.395700  0.374300  1
  C  C863  1  0.698700  0.615400  0.854700  1
  C  C864  1  0.198700  0.384600  0.354700  1
  C  C865  1  0.701500  0.655100  0.842400  1
  C  C866  1  0.201500  0.344900  0.342400  1
  C  C867  1  0.658100  0.682900  0.847300  1
  C  C868  1  0.158100  0.317100  0.347300  1
  C  C869  1  0.608300  0.670100  0.866400  1
  C  C870  1  0.108300  0.329900  0.366400  1
  C  C871  1  0.462500  0.558500  0.836500  1
  C  C872  1  0.962500  0.441500  0.336500  1
  C  C873  1  0.412700  0.554800  0.807000  1
  C  C874  1  0.912700  0.445200  0.307000  1
  C  C875  1  0.369000  0.581600  0.802400  1
  C  C876  1  0.869000  0.418400  0.302400  1
  C  C877  1  0.372500  0.616200  0.828100  1
  C  C878  1  0.872500  0.383800  0.328100  1
  C  C879  1  0.422700  0.619400  0.856800  1
  C  C880  1  0.922700  0.380600  0.356800  1
  C  C881  1  0.430300  0.652700  0.883900  1
  C  C882  1  0.930300  0.347300  0.383900  1
  C  C883  1  0.537200  0.673100  0.962100  1
  C  C884  1  0.037200  0.326900  0.462100  1
  C  C885  1  0.552900  0.700600  0.996500  1
  C  C886  1  0.052900  0.299400  0.496500  1
  C  C887  1  0.514900  0.732100  0.004800  1
  C  C888  1  0.014900  0.267900  0.504800  1
  C  C889  1  0.529300  0.753380  0.038600  1
  C  C890  1  0.029300  0.246620  0.538600  1
  C  C891  1  0.580100  0.744400  0.064900  1
  C  C892  1  0.080100  0.255600  0.564900  1
  C  C893  1  0.620300  0.712390  0.057200  1
  C  C894  1  0.120300  0.287610  0.557200  1
  C  C895  1  0.605400  0.691900  0.021900  1
  C  C896  1  0.105400  0.308100  0.521900  1
  C  C897  1  0.671800  0.697000  0.084400  1
  C  C898  1  0.171800  0.303000  0.584400  1
  C  C899  1  0.751900  0.706200  0.175400  1
  C  C900  1  0.251900  0.293800  0.675400  1
  C  C901  1  0.794800  0.679300  0.198300  1
  C  C902  1  0.294800  0.320700  0.698300  1
  C  C903  1  0.818600  0.685300  0.234900  1
  C  C904  1  0.318600  0.314700  0.734900  1
  C  C905  1  0.858700  0.659600  0.255000  1
  C  C906  1  0.358700  0.340400  0.755000  1
  C  C907  1  0.870900  0.620900  0.236000  1
  C  C908  1  0.370900  0.379100  0.736000  1
  C  C909  1  0.843900  0.617000  0.199300  1
  C  C910  1  0.343900  0.383000  0.699300  1
  C  C911  1  0.855700  0.692900  0.078400  1
  C  C912  1  0.355700  0.307100  0.578400  1
  C  C913  1  0.899000  0.697300  0.051700  1
  C  C914  1  0.399000  0.302700  0.551700  1
  C  C915  1  0.919400  0.664400  0.037500  1
  C  C916  1  0.419400  0.335600  0.537500  1
  C  C917  1  0.899100  0.627300  0.047200  1
  C  C918  1  0.399100  0.372700  0.547200  1
  C  C919  1  0.857200  0.624400  0.072400  1
  C  C920  1  0.357200  0.375600  0.572400  1
  C  C921  1  0.830800  0.584500  0.082100  1
  C  C922  1  0.330800  0.415500  0.582100  1
  C  C923  1  0.708300  0.561200  0.128800  1
  C  C924  1  0.208300  0.438800  0.628800  1
  C  C925  1  0.665200  0.527870  0.136900  1
  C  C926  1  0.165200  0.472130  0.636900  1
  C  C927  1  0.672600  0.487000  0.125200  1
  C  C928  1  0.172600  0.513000  0.625200  1
  C  C929  1  0.629200  0.459170  0.133800  1
  C  C930  1  0.129200  0.540830  0.633800  1
  C  C931  1  0.581000  0.469100  0.153700  1
  C  C932  1  0.081000  0.530900  0.653700  1
  C  C933  1  0.574000  0.510200  0.164300  1
  C  C934  1  0.074000  0.489800  0.664300  1
  C  C935  1  0.617000  0.538070  0.156400  1
  C  C936  1  0.117000  0.461930  0.656400  1
  C  C937  1  0.523700  0.522400  0.185700  1
  C  C938  1  0.023700  0.477600  0.685700  1
  C  C939  1  0.410700  0.488500  0.234800  1
  C  C940  1  0.910700  0.511500  0.734800  1
  C  C941  1  0.368000  0.512800  0.256000  1
  C  C942  1  0.868000  0.487200  0.756000  1
  C  C943  1  0.322900  0.496600  0.273900  1
  C  C944  1  0.822900  0.503400  0.773900  1
  C  C945  1  0.288000  0.523900  0.294100  1
  C  C946  1  0.788000  0.476100  0.794100  1
  C  C947  1  0.303700  0.565100  0.296300  1
  C  C948  1  0.803700  0.434900  0.796300  1
  C  C949  1  0.351000  0.577700  0.278400  1
  C  C950  1  0.851000  0.422300  0.778400  1
  C  C951  1  0.535300  0.603600  0.294800  1
  C  C952  1  0.035300  0.396400  0.794800  1
  C  C953  1  0.561800  0.635800  0.318800  1
  C  C954  1  0.061800  0.364200  0.818800  1
  C  C955  1  0.550100  0.675300  0.309400  1
  C  C956  1  0.050100  0.324700  0.809400  1
  C  C957  1  0.508200  0.684100  0.275700  1
  C  C958  1  0.008200  0.315900  0.775700  1
  C  C959  1  0.480800  0.650990  0.254200  1
  C  C960  1  0.980800  0.349010  0.754200  1
  C  C961  1  0.436600  0.657900  0.219600  1
  C  C962  1  0.936600  0.342100  0.719600  1
  C  C963  1  0.361600  0.666290  0.146100  1
  C  C964  1  0.861600  0.333710  0.646100  1
  C  C965  1  0.318500  0.661900  0.109800  1
  C  C966  1  0.818500  0.338100  0.609800  1
  C  C967  1  0.291900  0.698700  0.093900  1
  C  C968  1  0.791900  0.301300  0.593900  1
  C  C969  1  0.251500  0.696900  0.059200  1
  C  C970  1  0.751500  0.303100  0.559200  1
  C  C971  1  0.238000  0.660200  0.039000  1
  C  C972  1  0.738000  0.339800  0.539000  1
  C  C973  1  0.265200  0.623700  0.054800  1
  C  C974  1  0.765200  0.376300  0.554800  1
  C  C975  1  0.305400  0.625800  0.089900  1
  C  C976  1  0.805400  0.374200  0.589900  1
  C  C977  1  0.254300  0.583900  0.035000  1
  C  C978  1  0.754300  0.416100  0.535000  1
  C  C979  1  0.173400  0.538800  0.955000  1
  C  C980  1  0.673400  0.461200  0.455000  1
  C  C981  1  0.169300  0.498800  0.939700  1
  C  C982  1  0.669300  0.501200  0.439700  1
  C  C983  1  0.133000  0.488200  0.906500  1
  C  C984  1  0.633000  0.511800  0.406500  1
  C  C985  1  0.131400  0.447800  0.894100  1
  C  C986  1  0.631400  0.552200  0.394100  1
  C  C987  1  0.162400  0.419000  0.917400  1
  C  C988  1  0.662400  0.581000  0.417400  1
  C  C989  1  0.198100  0.430000  0.952000  1
  C  C990  1  0.698100  0.570000  0.452000  1
  C  C991  1  0.592200  0.181700  0.924800  1
  C  C992  1  0.092200  0.818300  0.424800  1
  C  C993  1  0.648100  0.199100  0.923400  1
  C  C994  1  0.148100  0.800900  0.423400  1
  C  C995  1  0.661400  0.237300  0.939900  1
  C  C996  1  0.161400  0.762700  0.439900  1
  C  C997  1  0.617200  0.255400  0.959200  1
  C  C998  1  0.117200  0.744600  0.459200  1
  C  C999  1  0.561700  0.235490  0.959700  1
  C  C1000  1  0.061700  0.764510  0.459700  1
  C  C1001  1  0.514500  0.252670  0.979700  1
  C  C1002  1  0.014500  0.747330  0.479700  1
  C  C1003  1  0.372500  0.215000  0.992200  1
  C  C1004  1  0.872500  0.785000  0.492200  1
  C  C1005  1  0.317100  0.222800  0.011000  1
  C  C1006  1  0.817100  0.777200  0.511000  1
  C  C1007  1  0.306600  0.260200  0.028200  1
  C  C1008  1  0.806600  0.739800  0.528200  1
  C  C1009  1  0.254400  0.265010  0.046700  1
  C  C1010  1  0.754400  0.734990  0.546700  1
  C  C1011  1  0.212300  0.234300  0.047700  1
  C  C1012  1  0.712300  0.765700  0.547700  1
  C  C1013  1  0.223800  0.195900  0.030800  1
  C  C1014  1  0.723800  0.804100  0.530800  1
  C  C1015  1  0.274600  0.191600  0.013000  1
  C  C1016  1  0.774600  0.808400  0.513000  1
  C  C1017  1  0.181400  0.160100  0.031500  1
  C  C1018  1  0.681400  0.839900  0.531500  1
  C  C1019  1  0.039900  0.129700  0.050100  1
  C  C1020  1  0.539900  0.870300  0.550100  1
  C  C1021  1  0.010600  0.088400  0.045800  1
  C  C1022  1  0.510600  0.911600  0.545800  1
  C  C1023  1  0.953600  0.081900  0.053900  1
  C  C1024  1  0.453600  0.918100  0.553900  1
  C  C1025  1  0.928400  0.043100  0.048900  1
  C  C1026  1  0.428400  0.956900  0.548900  1
  C  C1027  1  0.964900  0.011700  0.036300  1
  C  C1028  1  0.464900  0.988300  0.536300  1
  C  C1029  1  0.020700  0.022700  0.028000  1
  C  C1030  1  0.520700  0.977300  0.528000  1
  C  C1031  1  0.061300  0.132000  0.941700  1
  C  C1032  1  0.561300  0.868000  0.441700  1
  C  C1033  1  0.044200  0.138600  0.901800  1
  C  C1034  1  0.544200  0.861400  0.401800  1
  C  C1035  1  0.061600  0.109800  0.876900  1
  C  C1036  1  0.561600  0.890200  0.376900  1
  C  C1037  1  0.095400  0.077200  0.890900  1
  C  C1038  1  0.595400  0.922800  0.390900  1
  C  C1039  1  0.112000  0.072000  0.929700  1
  C  C1040  1  0.612000  0.928000  0.429700  1
  C  C1041  1  0.147300  0.037500  0.947000  1
  C  C1042  1  0.647300  0.962500  0.447000  1
  C  C1043  1  0.205200  0.012500  0.039500  1
  C  C1044  1  0.705200  0.987500  0.539500  1
  C  C1045  1  0.247200  0.982500  0.064600  1
  C  C1046  1  0.747200  0.017500  0.564600  1
  C  C1047  1  0.276600  0.950900  0.048700  1
  C  C1048  1  0.776600  0.049100  0.548700  1
  C  C1049  1  0.318500  0.927200  0.073600  1
  C  C1050  1  0.818500  0.072800  0.573600  1
  C  C1051  1  0.331300  0.935100  0.112200  1
  C  C1052  1  0.831300  0.064900  0.612200  1
  C  C1053  1  0.300500  0.968100  0.127600  1
  C  C1054  1  0.800500  0.031900  0.627600  1
  C  C1055  1  0.258900  0.990600  0.103500  1
  C  C1056  1  0.758900  0.009400  0.603500  1
  C  C1057  1  0.315300  0.979500  0.169300  1
  C  C1058  1  0.815300  0.020500  0.669300  1
  C  C1059  1  0.409300  0.961800  0.254400  1
  C  C1060  1  0.909300  0.038200  0.754400  1
  C  C1061  1  0.420600  0.985600  0.289500  1
  C  C1062  1  0.920600  0.014400  0.789500  1
  C  C1063  1  0.466600  0.977100  0.318200  1
  C  C1064  1  0.966600  0.022900  0.818200  1
  C  C1065  1  0.476400  0.004200  0.351200  1
  C  C1066  1  0.976400  0.995800  0.851200  1
  C  C1067  1  0.436400  0.034800  0.350800  1
  C  C1068  1  0.936400  0.965200  0.850800  1
  C  C1069  1  0.388400  0.041700  0.321500  1
  C  C1070  1  0.888400  0.958300  0.821500  1
  C  C1071  1  0.210900  0.968100  0.258300  1
  C  C1072  1  0.710900  0.031900  0.758300  1
  C  C1073  1  0.150600  0.959700  0.265600  1
  C  C1074  1  0.650600  0.040300  0.765600  1
  C  C1075  1  0.111700  0.991700  0.267700  1
  C  C1076  1  0.611700  0.008300  0.767700  1
  C  C1077  1  0.132700  0.030400  0.262000  1
  C  C1078  1  0.632700  0.969600  0.762000  1
  C  C1079  1  0.192400  0.037600  0.254900  1
  C  C1080  1  0.692400  0.962400  0.754900  1
  C  C1081  1  0.217500  0.077400  0.250100  1
  C  C1082  1  0.717500  0.922600  0.750100  1
  C  C1083  1  0.355100  0.108500  0.223100  1
  C  C1084  1  0.855100  0.891500  0.723100  1
  C  C1085  1  0.389800  0.143900  0.211300  1
  C  C1086  1  0.889800  0.856100  0.711300  1
  C  C1087  1  0.369200  0.184400  0.209600  1
  C  C1088  1  0.869200  0.815600  0.709600  1
  C  C1089  1  0.404600  0.214120  0.196300  1
  C  C1090  1  0.904600  0.785880  0.696300  1
  C  C1091  1  0.461300  0.205800  0.184800  1
  C  C1092  1  0.961300  0.794200  0.684800  1
  C  C1093  1  0.482300  0.165330  0.186700  1
  C  C1094  1  0.982300  0.834670  0.686700  1
  C  C1095  1  0.446600  0.135600  0.199200  1
  C  C1096  1  0.946600  0.864400  0.699200  1
  C  C1097  1  0.540700  0.154100  0.173100  1
  C  C1098  1  0.040700  0.845900  0.673100  1
  C  C1099  1  0.679300  0.189450  0.151970  1
  C  C1100  1  0.179300  0.810550  0.651970  1
  C  C1101  1  0.725900  0.167700  0.133800  1
  C  C1102  1  0.225900  0.832300  0.633800  1
  C  C1103  1  0.778800  0.184100  0.124600  1
  C  C1104  1  0.278800  0.815900  0.624600  1
  C  C1105  1  0.817000  0.160900  0.106700  1
  C  C1106  1  0.317000  0.839100  0.606700  1
  C  C1107  1  0.802000  0.120300  0.096000  1
  C  C1108  1  0.302000  0.879700  0.596000  1
  C  C1109  1  0.746000  0.105700  0.106900  1
  C  C1110  1  0.246000  0.894300  0.606900  1
  C  C1111  1  0.704500  0.081100  0.230200  1
  C  C1112  1  0.204500  0.918900  0.730200  1
  C  C1113  1  0.732400  0.052700  0.256300  1
  C  C1114  1  0.232400  0.947300  0.756300  1
  C  C1115  1  0.731600  0.011100  0.245900  1
  C  C1116  1  0.231600  0.988900  0.745900  1
  C  C1117  1  0.703800  0.000800  0.209200  1
  C  C1118  1  0.203800  0.999200  0.709200  1
  C  C1119  1  0.677200  0.032700  0.184520  1
  C  C1120  1  0.177200  0.967300  0.684520  1
  C  C1121  1  0.647300  0.023100  0.145800  1
  C  C1122  1  0.147300  0.976900  0.645800  1
  C  C1123  1  0.581900  0.013420  0.068240  1
  C  C1124  1  0.081900  0.986580  0.568240  1
  C  C1125  1  0.552200  0.016860  0.028480  1
  C  C1126  1  0.052200  0.983140  0.528480  1
  C  C1127  1  0.542200  0.979590  0.007830  1
  C  C1128  1  0.042200  0.020410  0.507830  1
  C  C1129  1  0.513100  0.979950  0.970050  1
  C  C1130  1  0.013100  0.020050  0.470050  1
  C  C1131  1  0.493100  0.016100  0.951820  1
  C  C1132  1  0.993100  0.983900  0.451820  1
  C  C1133  1  0.504100  0.053490  0.971340  1
  C  C1134  1  0.004100  0.946510  0.471340  1
  C  C1135  1  0.532000  0.053370  0.009670  1
  C  C1136  1  0.032000  0.946630  0.509670  1
  C  C1137  1  0.482700  0.093260  0.954010  1
  C  C1138  1  0.982700  0.906740  0.454010  1
  C  C1139  1  0.407400  0.139200  0.873500  1
  C  C1140  1  0.907400  0.860800  0.373500  1
  C  C1141  1  0.387300  0.181600  0.865900  1
  C  C1142  1  0.887300  0.818400  0.365900  1
  C  C1143  1  0.350600  0.192500  0.832000  1
  C  C1144  1  0.850600  0.807500  0.332000  1
  C  C1145  1  0.329800  0.233600  0.829000  1
  C  C1146  1  0.829800  0.766400  0.329000  1
  C  C1147  1  0.348300  0.259500  0.856100  1
  C  C1148  1  0.848300  0.740500  0.356100  1
  C  C1149  1  0.385000  0.246800  0.889600  1
  C  C1150  1  0.885000  0.753200  0.389600  1
  C  C1151  1  0.526600  0.323200  0.308700  1
  C  C1152  1  0.026600  0.676800  0.808700  1
  C  C1153  1  0.612400  0.361600  0.341900  1
  C  C1154  1  0.112400  0.638400  0.841900  1
  C  C1155  1  0.554800  0.317200  0.377100  1
  C  C1156  1  0.054800  0.682800  0.877100  1
  C  C1157  1  0.749300  0.898300  0.364500  1
  C  C1158  1  0.249300  0.101700  0.864500  1
  C  C1159  1  0.743600  0.852900  0.418500  1
  C  C1160  1  0.243600  0.147100  0.918500  1
  C  C1161  1  0.699800  0.833300  0.354700  1
  C  C1162  1  0.199800  0.166700  0.854700  1
  S  S1163  1  0.673460  0.286800  0.079350  1
  S  S1164  1  0.173460  0.713200  0.579350  1
  S  S1165  1  0.598110  0.912240  0.267410  1
  S  S1166  1  0.098110  0.087760  0.767410  1
  S  S1167  1  0.817310  0.318350  0.210770  1
  S  S1168  1  0.317310  0.681650  0.710770  1
  S  S1169  1  0.704500  0.893400  0.138680  1
  S  S1170  1  0.204500  0.106600  0.638680  1
  S  S1171  1  0.323960  0.390550  0.181670  1
  S  S1172  1  0.823960  0.609450  0.681670  1
  S  S1173  1  0.668630  0.761100  0.262380  1
  S  S1174  1  0.168630  0.238900  0.762380  1
  S  S1175  1  0.388700  0.379400  0.331450  1
  S  S1176  1  0.888700  0.620600  0.831450  1
  S  S1177  1  0.408700  0.810910  0.260510  1
  S  S1178  1  0.908700  0.189090  0.760510  1
  S  S1179  1  0.552790  0.367110  0.977510  1
  S  S1180  1  0.052790  0.632890  0.477510  1
  S  S1181  1  0.475930  0.790870  0.050290  1
  S  S1182  1  0.975930  0.209130  0.550290  1
  S  S1183  1  0.633710  0.407380  0.118110  1
  S  S1184  1  0.133710  0.592620  0.618110  1
  S  S1185  1  0.216300  0.743370  0.039540  1
  S  S1186  1  0.716300  0.256630  0.539540  1
  S  S1187  1  0.242290  0.313960  0.066560  1
  S  S1188  1  0.742290  0.686040  0.566560  1
  S  S1189  1  0.360530  0.888220  0.053350  1
  S  S1190  1  0.860530  0.111780  0.553350  1
  S  S1191  1  0.378890  0.266090  0.191180  1
  S  S1192  1  0.878890  0.733910  0.691180  1
  S  S1193  1  0.503360  0.932090  0.945300  1
  S  S1194  1  0.003360  0.067910  0.445300  1
  N  N1195  1  0.825900  0.056400  0.960800  1
  N  N1196  1  0.325900  0.943600  0.460800  1
  N  N1197  1  0.785900  0.124670  0.985810  1
  N  N1198  1  0.285900  0.875330  0.485810  1
  N  N1199  1  0.757200  0.157220  0.001600  1
  N  N1200  1  0.257200  0.842780  0.501600  1
  N  N1201  1  0.476100  0.191700  0.080770  1
  N  N1202  1  0.976100  0.808300  0.580770  1
  N  N1203  1  0.426100  0.170430  0.089750  1
  N  N1204  1  0.926100  0.829570  0.589750  1
  N  N1205  1  0.351100  0.118330  0.112050  1
  N  N1206  1  0.851100  0.881670  0.612050  1
  N  N1207  1  0.391300  0.077160  0.037000  1
  N  N1208  1  0.891300  0.922840  0.537000  1
  N  N1209  1  0.449600  0.050830  0.104160  1
  N  N1210  1  0.949600  0.949170  0.604160  1
  N  N1211  1  0.480300  0.042050  0.140500  1
  N  N1212  1  0.980300  0.957950  0.640500  1
  N  N1213  1  0.614500  0.066300  0.314600  1
  N  N1214  1  0.114500  0.933700  0.814600  1
  N  N1215  1  0.624400  0.103700  0.332100  1
  N  N1216  1  0.124400  0.896300  0.832100  1
  N  N1217  1  0.640800  0.178500  0.359100  1
  N  N1218  1  0.140800  0.821500  0.859100  1
  N  N1219  1  0.508000  0.169600  0.303900  1
  N  N1220  1  0.008000  0.830400  0.803900  1
  N  N1221  1  0.590700  0.210800  0.273800  1
  N  N1222  1  0.090700  0.789200  0.773800  1
  N  N1223  1  0.636800  0.228300  0.258800  1
  N  N1224  1  0.136800  0.771700  0.758800  1
  N  N1225  1  0.923900  0.172200  0.193300  1
  N  N1226  1  0.423900  0.827800  0.693300  1
  N  N1227  1  0.956300  0.136500  0.185300  1
  N  N1228  1  0.456300  0.863500  0.685300  1
  N  N1229  1  0.011700  0.067100  0.176600  1
  N  N1230  1  0.511700  0.932900  0.676600  1
  N  N1231  1  0.982000  0.086600  0.262830  1
  N  N1232  1  0.482000  0.913400  0.762830  1
  N  N1233  1  0.910500  0.027790  0.229940  1
  N  N1234  1  0.410500  0.972210  0.729940  1
  N  N1235  1  0.874800  0.999200  0.208440  1
  N  N1236  1  0.374800  0.000800  0.708440  1
  N  N1237  1  0.706800  0.990400  0.013310  1
  N  N1238  1  0.206800  0.009600  0.513310  1
  N  N1239  1  0.697100  0.015500  0.982170  1
  N  N1240  1  0.197100  0.984500  0.482170  1
  N  N1241  1  0.685400  0.067300  0.923600  1
  N  N1242  1  0.185400  0.932700  0.423600  1
  N  N1243  1  0.115200  0.635300  0.226100  1
  N  N1244  1  0.615200  0.364700  0.726100  1
  N  N1245  1  0.167600  0.566300  0.210500  1
  N  N1246  1  0.667600  0.433700  0.710500  1
  N  N1247  1  0.197300  0.531900  0.199900  1
  N  N1248  1  0.697300  0.468100  0.699900  1
  N  N1249  1  0.447200  0.486490  0.092950  1
  N  N1250  1  0.947200  0.513510  0.592950  1
  N  N1251  1  0.489200  0.508430  0.076450  1
  N  N1252  1  0.989200  0.491570  0.576450  1
  N  N1253  1  0.562900  0.562650  0.057180  1
  N  N1254  1  0.062900  0.437350  0.557180  1
  N  N1255  1  0.430000  0.603230  0.036870  1
  N  N1256  1  0.930000  0.396770  0.536870  1
  N  N1257  1  0.495100  0.628810  0.102130  1
  N  N1258  1  0.995100  0.371190  0.602130  1
  N  N1259  1  0.529000  0.636060  0.137500  1
  N  N1260  1  0.029000  0.363940  0.637500  1
  N  N1261  1  0.708100  0.602090  0.296600  1
  N  N1262  1  0.208100  0.397910  0.796600  1
  N  N1263  1  0.721000  0.562730  0.310930  1
  N  N1264  1  0.221000  0.437270  0.810930  1
  N  N1265  1  0.735300  0.485920  0.334560  1
  N  N1266  1  0.235300  0.514080  0.834560  1
  N  N1267  1  0.738300  0.493170  0.242070  1
  N  N1268  1  0.238300  0.506830  0.742070  1
  N  N1269  1  0.638800  0.460110  0.261870  1
  N  N1270  1  0.138800  0.539890  0.761870  1
  N  N1271  1  0.586600  0.446410  0.275260  1
  N  N1272  1  0.086600  0.553590  0.775260  1
  N  N1273  1  0.365300  0.531200  0.388530  1
  N  N1274  1  0.865300  0.468800  0.888530  1
  N  N1275  1  0.354100  0.568550  0.403550  1
  N  N1276  1  0.854100  0.431450  0.903550  1
  N  N1277  1  0.348200  0.642100  0.433400  1
  N  N1278  1  0.848200  0.357900  0.933400  1
  N  N1279  1  0.491500  0.607800  0.448900  1
  N  N1280  1  0.991500  0.392200  0.948900  1
  N  N1281  1  0.466300  0.666667  0.397700  1
  N  N1282  1  0.966300  0.333333  0.897700  1
  N  N1283  1  0.447100  0.695400  0.370200  1
  N  N1284  1  0.947100  0.304600  0.870200  1
  N  N1285  1  0.239200  0.706600  0.191800  1
  N  N1286  1  0.739200  0.293400  0.691800  1
  N  N1287  1  0.200100  0.679200  0.168700  1
  N  N1288  1  0.700100  0.320800  0.668700  1
  N  N1289  1  0.132300  0.621200  0.133700  1
  N  N1290  1  0.632300  0.378800  0.633700  1
  N  N1291  1  0.198000  0.478660  0.056790  1
  N  N1292  1  0.698000  0.521340  0.556790  1
  N  N1293  1  0.298500  0.446720  0.037260  1
  N  N1294  1  0.798500  0.553280  0.537260  1
  N  N1295  1  0.352100  0.434210  0.024670  1
  N  N1296  1  0.852100  0.565790  0.524670  1
  N  N1297  1  0.584300  0.519760  0.922100  1
  N  N1298  1  0.084300  0.480240  0.422100  1
  N  N1299  1  0.598100  0.557790  0.907300  1
  N  N1300  1  0.098100  0.442210  0.407300  1
  N  N1301  1  0.606000  0.630900  0.878800  1
  N  N1302  1  0.106000  0.369100  0.378800  1
  N  N1303  1  0.467500  0.591300  0.860200  1
  N  N1304  1  0.967500  0.408700  0.360200  1
  N  N1305  1  0.476500  0.652100  0.910050  1
  N  N1306  1  0.976500  0.347900  0.410050  1
  N  N1307  1  0.486500  0.682300  0.938000  1
  N  N1308  1  0.986500  0.317700  0.438000  1
  N  N1309  1  0.685800  0.716880  0.118700  1
  N  N1310  1  0.185800  0.283120  0.618700  1
  N  N1311  1  0.730400  0.694970  0.141500  1
  N  N1312  1  0.230400  0.305030  0.641500  1
  N  N1313  1  0.808300  0.644400  0.179100  1
  N  N1314  1  0.308300  0.355600  0.679100  1
  N  N1315  1  0.835400  0.656300  0.088300  1
  N  N1316  1  0.335400  0.343700  0.588300  1
  N  N1317  1  0.786000  0.586300  0.101200  1
  N  N1318  1  0.286000  0.413700  0.601200  1
  N  N1319  1  0.755400  0.551000  0.111400  1
  N  N1320  1  0.255400  0.449000  0.611400  1
  N  N1321  1  0.489200  0.492610  0.198320  1
  N  N1322  1  0.989200  0.507390  0.698320  1
  N  N1323  1  0.447600  0.509980  0.218900  1
  N  N1324  1  0.947600  0.490020  0.718900  1
  N  N1325  1  0.381100  0.553700  0.257400  1
  N  N1326  1  0.881100  0.446300  0.757400  1
  N  N1327  1  0.494900  0.611200  0.263460  1
  N  N1328  1  0.994900  0.388800  0.763460  1
  N  N1329  1  0.409100  0.627780  0.202050  1
  N  N1330  1  0.909100  0.372220  0.702050  1
  N  N1331  1  0.368000  0.633410  0.170100  1
  N  N1332  1  0.868000  0.366590  0.670100  1
  N  N1333  1  0.215300  0.584600  0.001670  1
  N  N1334  1  0.715300  0.415400  0.501670  1
  N  N1335  1  0.208500  0.546000  0.986970  1
  N  N1336  1  0.708500  0.454000  0.486970  1
  N  N1337  1  0.200800  0.469500  0.963600  1
  N  N1338  1  0.700800  0.530500  0.463600  1
  N  N1339  1  0.548700  0.199410  0.941900  1
  N  N1340  1  0.048700  0.800590  0.441900  1
  N  N1341  1  0.464400  0.230940  0.979030  1
  N  N1342  1  0.964400  0.769060  0.479030  1
  N  N1343  1  0.416900  0.243840  0.997580  1
  N  N1344  1  0.916900  0.756160  0.497580  1
  N  N1345  1  0.127600  0.166700  0.044700  1
  N  N1346  1  0.627600  0.833300  0.544700  1
  N  N1347  1  0.094600  0.131400  0.041600  1
  N  N1348  1  0.594600  0.868600  0.541600  1
  N  N1349  1  0.044700  0.059100  0.030600  1
  N  N1350  1  0.544700  0.940900  0.530600  1
  N  N1351  1  0.094000  0.099300  0.955500  1
  N  N1352  1  0.594000  0.900700  0.455500  1
  N  N1353  1  0.161300  0.035800  0.983300  1
  N  N1354  1  0.661300  0.964200  0.483300  1
  N  N1355  1  0.196600  0.005700  0.001700  1
  N  N1356  1  0.696600  0.994300  0.501700  1
  N  N1357  1  0.357400  0.957600  0.191600  1
  N  N1358  1  0.857400  0.042400  0.691600  1
  N  N1359  1  0.368200  0.974600  0.227000  1
  N  N1360  1  0.868200  0.025400  0.727000  1
  N  N1361  1  0.380900  0.017900  0.291000  1
  N  N1362  1  0.880900  0.982100  0.791000  1
  N  N1363  1  0.232200  0.006100  0.254800  1
  N  N1364  1  0.732200  0.993900  0.754800  1
  N  N1365  1  0.273000  0.079200  0.242000  1
  N  N1366  1  0.773000  0.920800  0.742000  1
  N  N1367  1  0.298900  0.115800  0.234400  1
  N  N1368  1  0.798900  0.884200  0.734400  1
  N  N1369  1  0.582900  0.183800  0.172650  1
  N  N1370  1  0.082900  0.816200  0.672650  1
  N  N1371  1  0.633700  0.167980  0.158490  1
  N  N1372  1  0.133700  0.832020  0.658490  1
  N  N1373  1  0.710700  0.127120  0.125500  1
  N  N1374  1  0.210700  0.872880  0.625500  1
  N  N1375  1  0.677800  0.071700  0.195510  1
  N  N1376  1  0.177800  0.928300  0.695510  1
  N  N1377  1  0.624500  0.053370  0.124930  1
  N  N1378  1  0.124500  0.946630  0.624930  1
  N  N1379  1  0.595000  0.049190  0.087430  1
  N  N1380  1  0.095000  0.950810  0.587430  1
  N  N1381  1  0.457900  0.093780  0.917060  1
  N  N1382  1  0.957900  0.906220  0.417060  1
  N  N1383  1  0.438300  0.132140  0.906870  1
  N  N1384  1  0.938300  0.867860  0.406870  1
  N  N1385  1  0.405500  0.209100  0.894100  1
  N  N1386  1  0.905500  0.790900  0.394100  1
  N  N1387  1  0.564700  0.332400  0.340600  1
  N  N1388  1  0.064700  0.667600  0.840600  1
  N  N1389  1  0.729000  0.864200  0.379500  1
  N  N1390  1  0.229000  0.135800  0.879500  1
  O  O1391  1  0.681400  0.109180  0.004200  1
  O  O1392  1  0.181400  0.890820  0.504200  1
  O  O1393  1  0.698400  0.306160  0.048300  1
  O  O1394  1  0.198400  0.693840  0.548300  1
  O  O1395  1  0.620100  0.306980  0.090010  1
  O  O1396  1  0.120100  0.693020  0.590010  1
  O  O1397  1  0.719300  0.279550  0.113020  1
  O  O1398  1  0.219300  0.720450  0.613020  1
  O  O1399  1  0.513500  0.126050  0.074020  1
  O  O1400  1  0.013500  0.873950  0.574020  1
  O  O1401  1  0.473300  0.972490  0.139020  1
  O  O1402  1  0.973300  0.027510  0.639020  1
  O  O1403  1  0.625600  0.891900  0.238800  1
  O  O1404  1  0.125600  0.108100  0.738800  1
  O  O1405  1  0.637800  0.920300  0.302700  1
  O  O1406  1  0.137800  0.079700  0.802700  1
  O  O1407  1  0.541500  0.893400  0.274700  1
  O  O1408  1  0.041500  0.106600  0.774700  1
  O  O1409  1  0.575100  0.105230  0.261400  1
  O  O1410  1  0.075100  0.894770  0.761400  1
  O  O1411  1  0.685100  0.166360  0.276070  1
  O  O1412  1  0.185100  0.833640  0.776070  1
  O  O1413  1  0.864300  0.319800  0.187300  1
  O  O1414  1  0.364300  0.680200  0.687300  1
  O  O1415  1  0.759400  0.334080  0.191500  1
  O  O1416  1  0.259400  0.665920  0.691500  1
  O  O1417  1  0.834800  0.336400  0.248000  1
  O  O1418  1  0.334800  0.663600  0.748000  1
  O  O1419  1  0.862900  0.125290  0.218900  1
  O  O1420  1  0.362900  0.874710  0.718900  1
  O  O1421  1  0.873000  0.050150  0.162050  1
  O  O1422  1  0.373000  0.949850  0.662050  1
  O  O1423  1  0.695900  0.865020  0.107000  1
  O  O1424  1  0.195900  0.134980  0.607000  1
  O  O1425  1  0.739800  0.876870  0.172900  1
  O  O1426  1  0.239800  0.123130  0.672900  1
  O  O1427  1  0.645000  0.910310  0.146330  1
  O  O1428  1  0.145000  0.089690  0.646330  1
  O  O1429  1  0.774100  0.042350  0.037620  1
  O  O1430  1  0.274100  0.957650  0.537620  1
  O  O1431  1  0.254800  0.580020  0.171020  1
  O  O1432  1  0.754800  0.419980  0.671020  1
  O  O1433  1  0.263100  0.373390  0.173800  1
  O  O1434  1  0.763100  0.626610  0.673800  1
  O  O1435  1  0.369100  0.369670  0.162280  1
  O  O1436  1  0.869100  0.630330  0.662280  1
  O  O1437  1  0.345400  0.394150  0.222380  1
  O  O1438  1  0.845400  0.605850  0.722380  1
  O  O1439  1  0.419900  0.551480  0.110680  1
  O  O1440  1  0.919900  0.448520  0.610680  1
  O  O1441  1  0.528900  0.705240  0.137580  1
  O  O1442  1  0.028900  0.294760  0.637580  1
  O  O1443  1  0.624100  0.790560  0.245600  1
  O  O1444  1  0.124100  0.209440  0.745600  1
  O  O1445  1  0.673400  0.755030  0.302980  1
  O  O1446  1  0.173400  0.244970  0.802980  1
  O  O1447  1  0.727500  0.770100  0.250400  1
  O  O1448  1  0.227500  0.229900  0.750400  1
  O  O1449  1  0.649000  0.566820  0.247040  1
  O  O1450  1  0.149000  0.433180  0.747040  1
  O  O1451  1  0.596700  0.510370  0.305480  1
  O  O1452  1  0.096700  0.489630  0.805480  1
  O  O1453  1  0.407200  0.361400  0.368300  1
  O  O1454  1  0.907200  0.638600  0.868300  1
  O  O1455  1  0.325100  0.390500  0.325800  1
  O  O1456  1  0.825100  0.609500  0.825800  1
  O  O1457  1  0.405700  0.355890  0.300280  1
  O  O1458  1  0.905700  0.644110  0.800280  1
  O  O1459  1  0.449400  0.565860  0.370980  1
  O  O1460  1  0.949400  0.434140  0.870980  1
  O  O1461  1  0.373600  0.646730  0.350080  1
  O  O1462  1  0.873600  0.353270  0.850080  1
  O  O1463  1  0.461500  0.799300  0.240500  1
  O  O1464  1  0.961500  0.200700  0.740500  1
  O  O1465  1  0.367800  0.831000  0.232200  1
  O  O1466  1  0.867800  0.169000  0.732200  1
  O  O1467  1  0.431900  0.830400  0.296400  1
  O  O1468  1  0.931900  0.169600  0.796400  1
  O  O1469  1  0.252200  0.648740  0.231580  1
  O  O1470  1  0.752200  0.351260  0.731580  1
  O  O1471  1  0.339000  0.495910  0.991420  1
  O  O1472  1  0.839000  0.504090  0.491420  1
  O  O1473  1  0.530200  0.345810  0.941990  1
  O  O1474  1  0.030200  0.654190  0.441990  1
  O  O1475  1  0.617500  0.375490  0.981200  1
  O  O1476  1  0.117500  0.624510  0.481200  1
  O  O1477  1  0.535400  0.347170  0.010480  1
  O  O1478  1  0.035400  0.652830  0.510480  1
  O  O1479  1  0.504100  0.556480  0.941050  1
  O  O1480  1  0.004100  0.443520  0.441050  1
  O  O1481  1  0.571400  0.642490  0.959750  1
  O  O1482  1  0.071400  0.357510  0.459750  1
  O  O1483  1  0.423100  0.768320  0.059700  1
  O  O1484  1  0.923100  0.231680  0.559700  1
  O  O1485  1  0.508500  0.814270  0.081490  1
  O  O1486  1  0.008500  0.185730  0.581490  1
  O  O1487  1  0.459100  0.815570  0.016390  1
  O  O1488  1  0.959100  0.184430  0.516390  1
  O  O1489  1  0.697400  0.664350  0.076020  1
  O  O1490  1  0.197400  0.335650  0.576020  1
  O  O1491  1  0.693200  0.597190  0.137600  1
  O  O1492  1  0.193200  0.402810  0.637600  1
  O  O1493  1  0.588300  0.402620  0.085600  1
  O  O1494  1  0.088300  0.597380  0.585600  1
  O  O1495  1  0.696100  0.400930  0.108500  1
  O  O1496  1  0.196100  0.599070  0.608500  1
  O  O1497  1  0.625100  0.383370  0.151590  1
  O  O1498  1  0.125100  0.616630  0.651590  1
  O  O1499  1  0.514700  0.560630  0.191800  1
  O  O1500  1  0.014700  0.439370  0.691800  1
  O  O1501  1  0.391500  0.697680  0.153620  1
  O  O1502  1  0.891500  0.302320  0.653620  1
  O  O1503  1  0.263000  0.772900  0.045200  1
  O  O1504  1  0.763000  0.227100  0.545200  1
  O  O1505  1  0.187800  0.734600  0.001400  1
  O  O1506  1  0.687800  0.265400  0.501400  1
  O  O1507  1  0.168500  0.753500  0.063300  1
  O  O1508  1  0.668500  0.246500  0.563300  1
  O  O1509  1  0.282200  0.552840  0.050490  1
  O  O1510  1  0.782200  0.447160  0.550490  1
  O  O1511  1  0.374500  0.181980  0.972840  1
  O  O1512  1  0.874500  0.818020  0.472840  1
  O  O1513  1  0.207200  0.336600  0.035500  1
  O  O1514  1  0.707200  0.663400  0.535500  1
  O  O1515  1  0.208400  0.306090  0.098100  1
  O  O1516  1  0.708400  0.693910  0.598100  1
  O  O1517  1  0.302900  0.330310  0.078580  1
  O  O1518  1  0.802900  0.669690  0.578580  1
  O  O1519  1  0.198800  0.126620  0.018340  1
  O  O1520  1  0.698800  0.873380  0.518340  1
  O  O1521  1  0.181900  0.041490  0.057070  1
  O  O1522  1  0.681900  0.958510  0.557070  1
  O  O1523  1  0.409600  0.909440  0.039000  1
  O  O1524  1  0.909600  0.090560  0.539000  1
  O  O1525  1  0.382400  0.861350  0.085220  1
  O  O1526  1  0.882400  0.138650  0.585220  1
  O  O1527  1  0.320100  0.867400  0.024200  1
  O  O1528  1  0.820100  0.132600  0.524200  1
  O  O1529  1  0.288000  0.010830  0.179640  1
  O  O1530  1  0.788000  0.989170  0.679640  1
  O  O1531  1  0.378300  0.073580  0.221430  1
  O  O1532  1  0.878300  0.926420  0.721430  1
  O  O1533  1  0.372400  0.274010  0.150120  1
  O  O1534  1  0.872400  0.725990  0.650120  1
  O  O1535  1  0.320500  0.268210  0.205700  1
  O  O1536  1  0.820500  0.731790  0.705700  1
  O  O1537  1  0.425000  0.289090  0.214500  1
  O  O1538  1  0.925000  0.710910  0.714500  1
  O  O1539  1  0.549300  0.116860  0.163410  1
  O  O1540  1  0.049300  0.883140  0.663410  1
  O  O1541  1  0.594700  0.980560  0.084070  1
  O  O1542  1  0.094700  0.019440  0.584070  1
  O  O1543  1  0.490600  0.901920  0.973590  1
  O  O1544  1  0.990600  0.098080  0.473590  1
  O  O1545  1  0.453300  0.937990  0.914790  1
  O  O1546  1  0.953300  0.062010  0.414790  1
  O  O1547  1  0.561300  0.925360  0.931530  1
  O  O1548  1  0.061300  0.074640  0.431530  1
  O  O1549  1  0.488900  0.124660  0.975940  1
  O  O1550  1  0.988900  0.875340  0.475940  1
  O  O1551  1  0.835300  0.793400  0.201100  1
  O  O1552  1  0.335300  0.206600  0.701100  1
  O  O1553  1  0.436200  0.388270  0.078520  1
  O  O1554  1  0.936200  0.611730  0.578520  1
  O  O1555  1  0.454400  0.284850  0.069110  1
  O  O1556  1  0.954400  0.715150  0.569110  1
  O  O1557  1  0.502400  0.404490  0.216890  1
  O  O1558  1  0.002400  0.595510  0.716890  1
  O  O1559  1  0.524900  0.904450  0.104390  1
  O  O1560  1  0.024900  0.095550  0.604390  1
  O  O1561  1  0.506400  0.332890  0.145500  1
  O  O1562  1  0.006400  0.667110  0.645500  1
  O  O1563  1  0.666800  0.794270  0.150700  1
  O  O1564  1  0.166800  0.205730  0.650700  1
  O  O1565  1  0.594600  0.270500  0.181800  1
  O  O1566  1  0.094600  0.729500  0.681800  1
  O  O1567  1  0.435700  0.882400  0.184600  1
  O  O1568  1  0.935700  0.117600  0.684600  1
  O  O1569  1  0.610400  0.875400  0.039900  1
  O  O1570  1  0.110400  0.124600  0.539900  1
  O  O1571  1  0.724700  0.435100  0.022600  1
  O  O1572  1  0.224700  0.564900  0.522600  1
  O  O1573  1  0.572100  0.841200  0.172900  1
  O  O1574  1  0.072100  0.158800  0.672900  1
  O  O1575  1  0.755600  0.872500  0.263200  1
  O  O1576  1  0.255600  0.127500  0.763200  1
  O  O1577  1  0.629900  0.335000  0.230600  1
  O  O1578  1  0.129900  0.665000  0.730600  1
  O  O1579  1  0.193800  0.239700  0.165300  1
  O  O1580  1  0.693800  0.760300  0.665300  1
  O  O1581  1  0.433200  0.785500  0.150400  1
  O  O1582  1  0.933200  0.214500  0.650400  1
  O  O1583  1  0.339900  0.910400  0.937900  1
  O  O1584  1  0.839900  0.089600  0.437900  1
  O  O1585  1  0.186700  0.320800  0.223500  1
  O  O1586  1  0.686700  0.679200  0.723500  1
  O  O1587  1  0.532500  0.335100  0.276100  1
  O  O1588  1  0.032500  0.664900  0.776100  1
  O  O1589  1  0.342100  0.803800  0.006700  1
  O  O1590  1  0.842100  0.196200  0.506700  1
  O  O1591  1  0.699900  0.480370  0.952300  1
  O  O1592  1  0.199900  0.519630  0.452300  1
  O  O1593  1  0.944300  0.957800  0.350700  1
  O  O1594  1  0.444300  0.042200  0.850700  1
  O  O1595  1  0.801500  0.483300  0.073300  1
  O  O1596  1  0.301500  0.516700  0.573300  1
  O  O1597  1  0.102600  0.202500  0.115400  1
  O  O1598  1  0.602600  0.797500  0.615400  1
  O  O1599  1  0.841200  0.220900  0.017600  1
  O  O1600  1  0.341200  0.779100  0.517600  1
  O  O1601  1  0.309600  0.293700  0.283300  1
  O  O1602  1  0.809600  0.706300  0.783300  1
  O  O1603  1  0.731800  0.357200  0.284100  1
  O  O1604  1  0.231800  0.642800  0.784100  1
  O  O1605  1  0.229700  0.949200  0.944300  1
  O  O1606  1  0.729700  0.050800  0.444300  1
  O  O1607  1  0.788000  0.525000  0.918800  1
  O  O1608  1  0.288000  0.475000  0.418800  1
  O  O1609  1  0.212000  0.180900  0.227000  1
  O  O1610  1  0.712000  0.819100  0.727000  1
  O  O1611  1  0.830200  0.975800  0.333333  1
  O  O1612  1  0.330200  0.024200  0.833333  1
  O  O1613  1  0.739100  0.660300  0.354600  1
  O  O1614  1  0.239100  0.339700  0.854600  1
  O  O1615  1  0.164800  0.463100  0.246900  1
  O  O1616  1  0.664800  0.536900  0.746900  1
  O  O1617  1  0.674800  0.912000  0.987500  1
  O  O1618  1  0.174800  0.088000  0.487500  1
  O  O1619  1  0.236600  0.394700  0.259300  1
  O  O1620  1  0.736600  0.605300  0.759300  1
  O  O1621  1  0.376600  0.735700  0.926800  1
  O  O1622  1  0.876600  0.264300  0.426800  1
  O  O1623  1  0.555300  0.791200  0.329100  1
  O  O1624  1  0.055300  0.208800  0.829100  1
  O  O1625  1  0.873100  0.500100  0.001700  1
  O  O1626  1  0.373100  0.499900  0.501700  1
  O  O1627  1  0.503400  0.081800  0.785800  1
  O  O1628  1  0.003400  0.918200  0.285800  1
  O  O1629  1  0.853400  0.929100  0.255100  1
  O  O1630  1  0.353400  0.070900  0.755100  1
  O  O1631  1  0.543500  0.040700  0.437600  1
  O  O1632  1  0.043500  0.959300  0.937600  1
  O  O1633  1  0.156600  0.310800  0.900200  1
  O  O1634  1  0.656600  0.689200  0.400200  1
  O  O1635  1  0.999100  0.234500  0.889000  1
  O  O1636  1  0.499100  0.765500  0.389000  1
  O  O1637  1  0.193900  0.646500  0.940800  1
  O  O1638  1  0.693900  0.353500  0.440800  1
  O  O1639  1  0.005000  0.548900  0.955600  1
  O  O1640  1  0.505000  0.451100  0.455600  1
  O  O1641  1  0.685300  0.010600  0.371700  1
  O  O1642  1  0.185300  0.989400  0.871700  1
  O  O1643  1  0.865000  0.125000  0.325500  1
  O  O1644  1  0.365000  0.875000  0.825500  1
  O  O1645  1  0.818300  0.070300  0.849900  1
  O  O1646  1  0.318300  0.929700  0.349900  1
  O  O1647  1  0.922000  0.560100  0.334400  1
  O  O1648  1  0.422000  0.439900  0.834400  1
  O  O1649  1  0.871500  0.259400  0.086600  1
  O  O1650  1  0.371500  0.740600  0.586600  1
  O  O1651  1  0.951700  0.202800  0.984700  1
  O  O1652  1  0.451700  0.797200  0.484700  1
  O  O1653  1  0.268700  0.688800  0.851100  1
  O  O1654  1  0.768700  0.311200  0.351100  1
  O  O1655  1  0.278600  0.671900  0.902100  1
  O  O1656  1  0.778600  0.328100  0.402100  1
  O  O1657  1  0.775000  0.925500  0.385200  1
  O  O1658  1  0.275000  0.074500  0.885200  1
  O  O1659  1  0.569900  0.341200  0.289000  1
  O  O1660  1  0.069900  0.658800  0.789000  1
  O  O1661  1  0.829800  0.014300  0.350700  1
  O  O1662  1  0.329800  0.985700  0.850700  1
  O  O1663  1  0.956000  0.557000  0.352600  1
  O  O1664  1  0.456000  0.443000  0.852600  1
