
#######################################################################
#
#                 Cambridge Crystallographic Data Centre
#                                CCDC 
#
#######################################################################
#
# If this CIF has been generated from an entry in the Cambridge 
# Structural Database, then it will include bibliographic, chemical, 
# crystal, experimental, refinement or atomic coordinate data resulting 
# from the CCDC's data processing and validation procedures.
#
#######################################################################

data_CUPFUQ
_chemical_formula_moiety         
'4(C80 H53 Cu1 N24 O20 S4 Zn3 3-),1.65(C3 H7 N1 O1),12(Na1 1+),33.90(H2 O1)'
_chemical_name_systematic        
'dodeca-sodium tetrakis(tris(\m-N^1^,N^3^-bis((pyridin-2-yl)methylidene)-5-sulfonatobenzene-1,3-dicarbohydrazonato)-(\m-N-((pyridin-2-yl)methylidene)-3-(2-((pyridin-2-yl)methylidene)hydrazinecarbonyl)-5-sulfonatobenzene-1-carbohydrazonato)-copper(ii)-tri-zinc(ii)) N,N-dimethylformamide solvate hydrate'
_symmetry_cell_setting           monoclinic
_symmetry_space_group_name_H-M   'P n'
_symmetry_Int_Tables_number      7
_space_group_name_Hall           'P -2yac'
loop_
_symmetry_equiv_pos_site_id
_symmetry_equiv_pos_as_xyz
1 x,y,z
2 1/2+x,-y,1/2+z
_cell_length_a                   21.91216(13)
_cell_length_b                   32.64068(17)
_cell_length_c                   35.0386(2)
_cell_angle_alpha                90
_cell_angle_beta                 98.2694(6)
_cell_angle_gamma                90
_cell_volume                     24800
_exptl_crystal_colour            brown
_exptl_crystal_description       plate
_cell_formula_units_Z            2
loop_
_atom_site_label
_atom_site_type_symbol
_atom_site_fract_x
_atom_site_fract_y
_atom_site_fract_z
Zn1 Zn 0.74137(5) 0.06981(3) -0.01761(3)
Cu1 Cu 0.42936(5) 0.11087(3) 0.08774(3)
Zn2 Zn 0.60318(7) 0.15499(4) 0.29861(3)
Zn3 Zn 0.92902(5) 0.08190(3) 0.20487(3)
C1 C 0.8461(5) 0.0198(3) -0.0496(3)
H1 H 0.8204 -0.0036 -0.0493
C2 C 0.9047(5) 0.0157(4) -0.0607(4)
H2 H 0.9201 -0.0103 -0.0666
C3 C 0.9402(6) 0.0517(5) -0.0629(5)
H3 H 0.9784 0.0505 -0.0727
C4 C 0.9199(5) 0.0863(4) -0.0513(4)
H4 H 0.9449 0.1101 -0.0510
C5 C 0.8618(4) 0.0890(3) -0.0392(3)
C6 C 0.8365(4) 0.1274(3) -0.0248(3)
H5 H 0.8584 0.1526 -0.0238
C7 C 0.7034(3) 0.1444(2) 0.0110(2)
C8 C 0.6670(3) 0.1734(2) 0.0316(2)
C9 C 0.6849(3) 0.2135(2) 0.0421(2)
H6 H 0.7221 0.2243 0.0353
C10 C 0.6484(3) 0.23746(16) 0.06240(19)
C11 C 0.5934(3) 0.22211(19) 0.07190(19)
H7 H 0.5687 0.2390 0.0856
C12 C 0.5742(3) 0.18328(18) 0.06196(18)
C13 C 0.6108(3) 0.15864(18) 0.04119(19)
H8 H 0.5974 0.1318 0.0336
C14 C 0.5170(3) 0.16541(19) 0.07254(18)
C15 C 0.3798(4) 0.1872(2) 0.1002(2)
H9 H 0.3749 0.2162 0.1002
C16 C 0.3335(3) 0.1592(2) 0.1122(2)
C17 C 0.2801(4) 0.1707(2) 0.1253(2)
H10 H 0.2684 0.1987 0.1247
C18 C 0.2435(4) 0.1417(3) 0.1393(3)
H11 H 0.2067 0.1496 0.1487
C19 C 0.2613(4) 0.1001(3) 0.1394(3)
H12 H 0.2370 0.0794 0.1488
C20 C 0.3150(4) 0.0908(2) 0.1254(2)
H13 H 0.3271 0.0629 0.1253
N1 N 0.8259(3) 0.0564(2) -0.0392(2)
N2 N 0.7859(3) 0.12467(19) -0.01419(19)
N3 N 0.7572(3) 0.15722(19) 0.0016(2)
N4 N 0.4761(3) 0.19170(16) 0.08077(17)
N5 N 0.4261(3) 0.17043(16) 0.08975(16)
N6 N 0.3511(3) 0.11833(17) 0.11205(18)
O1 O 0.6814(2) 0.10918(15) 0.00420(17)
O2 O 0.6984(3) 0.30616(15) 0.04830(17)
O3 O 0.6201(2) 0.30698(14) 0.09001(17)
O4 O 0.7193(3) 0.27955(15) 0.11302(17)
O5 O 0.5135(2) 0.12605(14) 0.07402(14)
S1 S 0.67346(8) 0.28680(4) 0.07935(5)
C21 C 0.3640(3) 0.0903(2) 0.0027(2)
H14 H 0.3591 0.1189 -0.0014
C22 C 0.3424(4) 0.0639(3) -0.0270(2)
H15 H 0.3226 0.0744 -0.0509
C23 C 0.3494(4) 0.0236(3) -0.0220(2)
H16 H 0.3350 0.0053 -0.0424
C24 C 0.3779(3) 0.0083(2) 0.0132(2)
H17 H 0.3838 -0.0202 0.0174
C25 C 0.3976(3) 0.0369(2) 0.0423(2)
C26 C 0.4286(3) 0.0228(2) 0.0798(2)
H18 H 0.4331 -0.0055 0.0859
C27 C 0.4911(3) 0.00366(19) 0.15660(19)
C28 C 0.5259(3) 0.0019(2) 0.1961(2)
C29 C 0.5437(3) -0.0365(2) 0.2111(2)
H19 H 0.5344 -0.0606 0.1962
C30 C 0.5751(4) -0.0388(2) 0.2479(2)
C31 C 0.5894(4) -0.0049(2) 0.2703(2)
H20 H 0.6108 -0.0078 0.2958
C32 C 0.5727(4) 0.0336(2) 0.2558(2)
C33 C 0.5423(3) 0.0369(2) 0.2181(2)
H21 H 0.5327 0.0632 0.2073
C34 C 0.5885(4) 0.0719(2) 0.2785(2)
C35 C 0.6509(8) 0.1076(4) 0.3669(3)
H22 H 0.6648 0.0842 0.3818
C36 C 0.6591(8) 0.1482(4) 0.3830(3)
C37 C 0.6788(10) 0.1530(5) 0.4224(4)
H23 H 0.6864 0.1302 0.4392
C38 C 0.6869(10) 0.1930(5) 0.4357(4)
H24 H 0.7053 0.1979 0.4616
C39 C 0.6687(12) 0.2251(5) 0.4122(5)
H25 H 0.6723 0.2524 0.4215
C40 C 0.6437(10) 0.2167(4) 0.3725(4)
H26 H 0.6293 0.2386 0.3559
N7 N 0.3913(3) 0.07716(17) 0.03700(16)
N8 N 0.4496(3) 0.05083(15) 0.10416(15)
N9 N 0.4803(3) 0.04205(17) 0.14050(16)
H27 H 0.4944 0.0631 0.1548
N10 N 0.6145(5) 0.0663(2) 0.3146(2)
N11 N 0.6244(5) 0.1037(2) 0.3321(2)
N12 N 0.6408(6) 0.1785(3) 0.3591(3)
O6 O 0.4733(3) -0.02751(15) 0.13902(16)
O7 O 0.6256(5) -0.1081(2) 0.2388(2)
O8 O 0.6378(5) -0.0797(3) 0.3027(3)
O9 O 0.5415(4) -0.1066(2) 0.2747(3)
O10 O 0.5751(3) 0.10523(16) 0.26140(15)
S2 S 0.59811(12) -0.08776(6) 0.26741(8)
C41 C 0.4677(7) 0.1476(4) 0.3188(4)
H28 H 0.4795 0.1210 0.3280
C42 C 0.4076(8) 0.1614(5) 0.3220(5)
H29 H 0.3784 0.1440 0.3315
C43 C 0.3935(7) 0.2004(4) 0.3111(4)
H30 H 0.3557 0.2122 0.3158
C44 C 0.4327(6) 0.2222(4) 0.2936(3)
H31 H 0.4208 0.2483 0.2831
C45 C 0.4920(5) 0.2068(3) 0.2906(3)
C46 C 0.5378(5) 0.2302(3) 0.2735(3)
H32 H 0.5303 0.2569 0.2631
C47 C 0.6843(5) 0.2015(3) 0.2617(3)
C48 C 0.7406(5) 0.2147(2) 0.2447(3)
C49 C 0.7523(4) 0.2562(3) 0.2360(3)
H33 H 0.7249 0.2772 0.2415
C50 C 0.8030(5) 0.2654(2) 0.2196(3)
C51 C 0.8462(4) 0.2363(2) 0.2100(3)
H34 H 0.8806 0.2437 0.1979
C52 C 0.8345(5) 0.1949(2) 0.2199(3)
C53 C 0.7833(4) 0.1854(2) 0.2364(3)
H35 H 0.7764 0.1576 0.2424
C54 C 0.8765(4) 0.1614(3) 0.2097(3)
C55 C 1.0031(5) 0.1396(4) 0.1686(3)
H36 H 1.0175 0.1653 0.1608
C56 C 1.0334(4) 0.1013(3) 0.1619(3)
C57 C 1.0815(5) 0.1012(5) 0.1398(3)
H37 H 1.0977 0.1257 0.1305
C58 C 1.1048(5) 0.0607(5) 0.1320(3)
H38 H 1.1373 0.0582 0.1169
C59 C 1.0825(6) 0.0291(5) 0.1452(4)
H39 H 1.0988 0.0032 0.1395
C60 C 1.0336(5) 0.0302(4) 0.1685(3)
H40 H 1.0174 0.0057 0.1778
N13 N 0.5080(4) 0.1696(3) 0.3039(2)
N14 N 0.5907(4) 0.2108(2) 0.2738(2)
N15 N 0.6368(4) 0.2283(2) 0.2588(2)
N16 N 0.9239(4) 0.1722(2) 0.1933(2)
N17 N 0.9563(4) 0.1365(2) 0.1853(2)
N18 N 1.0117(3) 0.0671(2) 0.1766(2)
O11 O 0.6851(3) 0.16636(18) 0.27607(19)
O12 O 0.8643(4) 0.3198(2) 0.1873(3)
O13 O 0.7594(3) 0.33408(18) 0.1915(2)
O14 O 0.8348(4) 0.3364(2) 0.2480(2)
O15 O 0.8629(3) 0.12529(17) 0.2189(2)
S3 S 0.81731(13) 0.31835(7) 0.21077(9)
C61 C 1.0153(5) 0.1170(3) 0.2778(2)
H41 H 1.0207 0.1400 0.2620
C62 C 1.0437(5) 0.1175(3) 0.3161(3)
H42 H 1.0689 0.1397 0.3263
C63 C 1.0332(6) 0.0836(3) 0.3390(3)
H43 H 1.0511 0.0826 0.3653
C64 C 0.9968(5) 0.0517(3) 0.3230(2)
H44 H 0.9896 0.0286 0.3382
C65 C 0.9709(4) 0.0537(3) 0.2844(2)
C66 C 0.9331(4) 0.0214(2) 0.2657(2)
H45 H 0.9252 -0.0031 0.2788
C67 C 0.8580(3) 0.0153(2) 0.1726(2)
C68 C 0.8178(3) -0.0098(2) 0.1442(2)
C69 C 0.7899(4) -0.0463(2) 0.1529(2)
H46 H 0.7999 -0.0587 0.1775
C70 C 0.7474(4) -0.0641(2) 0.1249(2)
C71 C 0.7337(4) -0.0487(2) 0.0879(2)
H47 H 0.7051 -0.0624 0.0692
C72 C 0.7624(3) -0.0131(2) 0.0784(2)
C73 C 0.8035(3) 0.0068(2) 0.1073(2)
H48 H 0.8218 0.0320 0.1015
C74 C 0.7486(3) 0.0074(2) 0.0413(2)
C75 C 0.6585(4) 0.0046(3) -0.0472(2)
H49 H 0.6374 -0.0209 -0.0478
C76 C 0.6483(4) 0.0326(3) -0.0795(2)
C77 C 0.6041(5) 0.0264(4) -0.1114(3)
H50 H 0.5785 0.0028 -0.1129
C78 C 0.5974(6) 0.0539(5) -0.1405(3)
H51 H 0.5667 0.0496 -0.1622
C79 C 0.6341(6) 0.0880(5) -0.1392(3)
H52 H 0.6300 0.1076 -0.1594
C80 C 0.6788(6) 0.0919(4) -0.1057(3)
H53 H 0.7061 0.1147 -0.1046
N19 N 0.9820(3) 0.0866(2) 0.26283(17)
N20 N 0.9105(3) 0.02779(19) 0.22994(18)
N21 N 0.8748(3) -0.00080(19) 0.20844(19)
N22 N 0.7068(3) -0.0096(2) 0.01331(18)
N23 N 0.6971(3) 0.0155(2) -0.01783(18)
N24 N 0.6854(4) 0.0673(2) -0.0764(2)
O16 O 0.8730(3) 0.05015(18) 0.16205(16)
O17 O 0.6959(3) -0.13498(16) 0.10700(16)
O18 O 0.7398(3) -0.12313(19) 0.17290(17)
O19 O 0.6450(3) -0.08969(18) 0.14633(19)
O20 O 0.7741(3) 0.04235(16) 0.03762(15)
S4 S 0.70450(11) -0.10660(6) 0.13868(6)
Na1 Na 0.6638(2) 0.31980(9) 0.16199(12)
Na2 Na 0.5431(3) -0.1638(2) 0.2316(2)
Zn4 Zn 0.18882(6) 0.62218(4) 0.18946(4)
Cu2 Cu 0.48488(5) 0.56790(3) 0.08076(3)
Zn5 Zn 0.67757(4) 0.51432(3) 0.28081(3)
Zn6 Zn 0.41590(5) 0.61494(3) 0.40009(3)
C81 C 0.0937(7) 0.6725(4) 0.2352(4)
H54 H 0.1077 0.6968 0.2244
C82 C 0.0494(7) 0.6742(5) 0.2615(4)
H55 H 0.0309 0.6996 0.2664
C83 C 0.0334(7) 0.6391(5) 0.2801(4)
H56 H 0.0065 0.6403 0.2990
C84 C 0.0569(6) 0.6037(4) 0.2705(4)
H57 H 0.0449 0.5790 0.2817
C85 C 0.0992(5) 0.6023(3) 0.2441(3)
C86 C 0.1288(5) 0.5641(3) 0.2334(3)
H58 H 0.1186 0.5385 0.2437
C87 C 0.2414(4) 0.5433(2) 0.1790(2)
C88 C 0.2799(3) 0.51038(19) 0.16587(19)
C89 C 0.2775(3) 0.46939(19) 0.1764(2)
H59 H 0.2477 0.4601 0.1916
C90 C 0.3207(3) 0.44166(17) 0.1639(2)
C91 C 0.3636(3) 0.45438(19) 0.1421(2)
H60 H 0.3922 0.4354 0.1342
C92 C 0.3653(4) 0.49618(19) 0.1313(2)
C93 C 0.3240(4) 0.52271(18) 0.14311(19)
H61 H 0.3252 0.5506 0.1356
C94 C 0.4130(3) 0.51229(18) 0.10974(19)
C95 C 0.5311(3) 0.49377(18) 0.05966(19)
H62 H 0.5342 0.4652 0.0553
C96 C 0.5747(3) 0.52298(19) 0.04725(19)
C97 C 0.6242(4) 0.5121(2) 0.0297(2)
H63 H 0.6313 0.4843 0.0236
C98 C 0.6642(4) 0.5433(2) 0.0211(3)
H64 H 0.6980 0.5371 0.0079
C99 C 0.6541(4) 0.5823(3) 0.0317(3)
H65 H 0.6824 0.6032 0.0273
C100 C 0.6028(4) 0.5921(2) 0.0491(3)
H66 H 0.5956 0.6198 0.0554
N25 N 0.1152(4) 0.6353(3) 0.2261(2)
N26 N 0.1676(3) 0.5663(2) 0.2105(2)
N27 N 0.1973(4) 0.5319(2) 0.1999(2)
N28 N 0.4472(3) 0.48649(16) 0.09295(18)
N29 N 0.4892(3) 0.50843(16) 0.07645(17)
N30 N 0.5629(3) 0.56265(16) 0.05718(18)
O21 O 0.2548(3) 0.58002(15) 0.17102(16)
O22 O 0.2631(3) 0.37339(16) 0.1738(2)
O23 O 0.3691(3) 0.36967(16) 0.16228(18)
O24 O 0.3454(3) 0.39415(15) 0.22238(14)
O25 O 0.4199(3) 0.55148(14) 0.11068(15)
S5 S 0.32396(9) 0.39055(4) 0.18167(5)
C101 C 0.3948(4) 0.5920(2) 0.0045(2)
H67 H 0.3935 0.5636 -0.0017
C102 C 0.3606(4) 0.6177(3) -0.0204(3)
H68 H 0.3363 0.6077 -0.0431
C103 C 0.3626(4) 0.6603(2) -0.0110(3)
H69 H 0.3399 0.6796 -0.0276
C104 C 0.3981(4) 0.6725(2) 0.0223(2)
H70 H 0.3996 0.7006 0.0294
C105 C 0.4313(3) 0.64424(18) 0.04558(19)
C106 C 0.4691(4) 0.65621(19) 0.0817(2)
H71 H 0.4734 0.6841 0.0892
C107 C 0.5481(3) 0.67396(17) 0.15326(19)
C108 C 0.5891(4) 0.6741(2) 0.1902(2)
C109 C 0.6076(4) 0.7114(2) 0.2065(2)
H72 H 0.5933 0.7361 0.1939
C110 C 0.6465(5) 0.71291(18) 0.2408(2)
C111 C 0.6700(4) 0.6776(2) 0.2601(2)
H73 H 0.6977 0.6794 0.2835
C112 C 0.6516(4) 0.63945(19) 0.24376(19)
C113 C 0.6109(3) 0.63766(18) 0.20992(19)
H74 H 0.5972 0.6118 0.1997
C114 C 0.6712(3) 0.59956(19) 0.2636(2)
C115 C 0.7548(4) 0.5574(2) 0.3431(2)
H75 H 0.7733 0.5799 0.3575
C116 C 0.7643(4) 0.5156(2) 0.3571(2)
C117 C 0.7978(5) 0.5061(3) 0.3922(3)
H76 H 0.8192 0.5271 0.4074
C118 C 0.8006(6) 0.4659(3) 0.4055(3)
H77 H 0.8212 0.4595 0.4305
C119 C 0.7724(6) 0.4350(3) 0.3813(3)
H78 H 0.7757 0.4069 0.3884
C120 C 0.7398(5) 0.4474(2) 0.3466(2)
H79 H 0.7191 0.4270 0.3303
N31 N 0.4300(3) 0.60323(15) 0.03687(16)
N32 N 0.4951(4) 0.62881(17) 0.10213(17)
N33 N 0.5290(5) 0.63606(19) 0.1375(2)
H80 H 0.5400 0.6144 0.1519
N34 N 0.7081(3) 0.60209(17) 0.29660(18)
N35 N 0.7210(3) 0.56273(17) 0.31093(17)
N36 N 0.7353(3) 0.48592(19) 0.33456(18)
O26 O 0.5289(3) 0.70524(15) 0.13758(18)
O27 O 0.6241(4) 0.79056(18) 0.2456(2)
O28 O 0.6734(5) 0.75503(19) 0.30298(17)
O29 O 0.7275(4) 0.7701(2) 0.2504(2)
O30 O 0.6490(2) 0.56682(13) 0.24704(14)
S6 S 0.66863(15) 0.76110(6) 0.26238(6)
C121 C 0.7883(4) 0.5109(3) 0.2338(3)
H81 H 0.7993 0.5370 0.2446
C122 C 0.8264(5) 0.4928(3) 0.2095(3)
H82 H 0.8627 0.5061 0.2040
C123 C 0.8094(5) 0.4549(3) 0.1939(3)
H83 H 0.8335 0.4421 0.1768
C124 C 0.7575(4) 0.4359(2) 0.2030(2)
H84 H 0.7460 0.4095 0.1930
C125 C 0.7224(3) 0.4554(2) 0.22678(18)
C126 C 0.6651(4) 0.4381(2) 0.2378(2)
H85 H 0.6486 0.4126 0.2281
C127 C 0.5697(4) 0.4755(2) 0.2980(2)
C128 C 0.5141(3) 0.4682(2) 0.3167(2)
C129 C 0.4816(4) 0.4301(2) 0.3148(2)
H86 H 0.4954 0.4074 0.3014
C130 C 0.4301(4) 0.4267(2) 0.3327(2)
C131 C 0.4076(4) 0.4588(2) 0.3525(2)
H87 H 0.3722 0.4552 0.3649
C132 C 0.4383(4) 0.4970(2) 0.3541(2)
C133 C 0.4908(4) 0.50030(19) 0.3358(2)
H88 H 0.5115 0.5259 0.3366
C134 C 0.4172(3) 0.5338(2) 0.3721(2)
C135 C 0.3055(4) 0.5762(3) 0.4178(3)
H89 H 0.2739 0.5562 0.4176
C136 C 0.2995(4) 0.6165(3) 0.4346(2)
C137 C 0.2490(4) 0.6279(3) 0.4507(3)
H90 H 0.2148 0.6099 0.4500
C138 C 0.2481(5) 0.6664(3) 0.4684(3)
H91 H 0.2138 0.6746 0.4804
C139 C 0.2978(5) 0.6923(3) 0.4680(3)
H92 H 0.2982 0.7187 0.4793
C140 C 0.3468(5) 0.6787(3) 0.4508(3)
H93 H 0.3815 0.6963 0.4513
N37 N 0.7383(3) 0.49317(17) 0.24207(17)
N38 N 0.6388(3) 0.46011(17) 0.26187(16)
N39 N 0.5866(3) 0.44641(17) 0.27526(17)
N40 N 0.3653(3) 0.5312(2) 0.38853(19)
N41 N 0.3541(3) 0.56855(19) 0.40355(18)
N42 N 0.3482(3) 0.6421(2) 0.4334(2)
O31 O 0.5967(2) 0.51037(14) 0.30548(15)
O32 O 0.4072(7) 0.3614(3) 0.3683(2)
O33 O 0.3251(3) 0.3905(3) 0.3258(4)
O34 O 0.4057(3) 0.35589(17) 0.30028(18)
O35 O 0.4494(3) 0.56586(16) 0.37098(19)
S7 S 0.38870(17) 0.37940(8) 0.33145(9)
C141 C 0.5059(6) 0.5761(4) 0.4702(5)
H94 H 0.4834 0.5514 0.4647
C142 C 0.5539(7) 0.5770(5) 0.5014(5)
H95 H 0.5588 0.5554 0.5197
C143 C 0.5923(6) 0.6088(4) 0.5049(4)
H96 H 0.6276 0.6090 0.5241
C144 C 0.5797(5) 0.6422(4) 0.4796(4)
H97 H 0.6057 0.6656 0.4817
C145 C 0.5294(4) 0.6400(3) 0.4519(3)
C146 C 0.5142(5) 0.6720(4) 0.4229(4)
H98 H 0.5390 0.6958 0.4226
C147 C 0.3993(4) 0.6800(2) 0.3470(2)
C148 C 0.3748(4) 0.7061(2) 0.3129(3)
C149 C 0.3975(5) 0.7446(3) 0.3052(3)
H99 H 0.4281 0.7573 0.3234
C150 C 0.3761(5) 0.7637(3) 0.2719(3)
C151 C 0.3306(5) 0.7468(3) 0.2437(4)
H100 H 0.3165 0.7611 0.2205
C152 C 0.3075(4) 0.7086(2) 0.2511(2)
C153 C 0.3301(4) 0.6891(2) 0.2858(2)
H101 H 0.3139 0.6630 0.2909
C154 C 0.2633(4) 0.6865(3) 0.2232(2)
C155 C 0.1705(5) 0.6902(3) 0.1365(3)
H102 H 0.1722 0.7173 0.1268
C156 C 0.1329(5) 0.6570(3) 0.1150(3)
C157 C 0.1017(5) 0.6631(4) 0.0775(3)
H103 H 0.1015 0.6892 0.0655
C158 C 0.0716(5) 0.6304(4) 0.0587(4)
H104 H 0.0519 0.6327 0.0328
C159 C 0.0708(5) 0.5939(4) 0.0786(3)
H105 H 0.0485 0.5711 0.0669
C160 C 0.1023(5) 0.5905(3) 0.1155(3)
H106 H 0.1023 0.5649 0.1283
N43 N 0.4915(4) 0.6078(3) 0.4489(3)
N44 N 0.4663(3) 0.6667(2) 0.3977(2)
N45 N 0.4471(3) 0.6954(2) 0.3702(2)
N46 N 0.2392(4) 0.7066(2) 0.1918(2)
N47 N 0.2001(4) 0.6792(2) 0.1687(2)
N48 N 0.1323(4) 0.6212(2) 0.1337(2)
O36 O 0.3736(3) 0.64673(18) 0.35008(18)
O37 O 0.4615(6) 0.7993(4) 0.2405(5)
O38 O 0.3678(6) 0.8310(4) 0.2322(5)
O39 O 0.4319(8) 0.8304(3) 0.2964(3)
O40 O 0.2522(3) 0.64874(17) 0.23158(17)
S8 S 0.4087(2) 0.81091(15) 0.26051(17)
Na3 Na 0.43801(15) 0.35424(8) 0.23776(10)
Na4 Na 0.7398(4) 0.82080(18) 0.21113(18)
Zn7 Zn 0.25756(4) 0.49928(3) 0.01628(3)
Zn8 Zn 0.53819(5) 0.60500(3) -0.08834(3)
Zn9 Zn 0.75813(6) 0.64083(3) 0.12176(4)
Cu3 Cu 0.45113(7) 0.56802(3) 0.22768(5)
C161 C 0.1479(4) 0.4962(2) 0.0668(3)
H107 H 0.1346 0.5214 0.0548
C162 C 0.1145(4) 0.4801(3) 0.0931(3)
H108 H 0.0792 0.4939 0.0995
C163 C 0.1335(4) 0.4433(3) 0.1100(3)
H109 H 0.1105 0.4308 0.1279
C164 C 0.1867(4) 0.4245(2) 0.1008(2)
H110 H 0.2015 0.3997 0.1130
C165 C 0.2172(3) 0.4425(2) 0.0736(2)
C166 C 0.2736(3) 0.4257(2) 0.0624(2)
H111 H 0.2911 0.4008 0.0729
C167 C 0.3687(3) 0.46269(19) 0.00108(19)
C168 C 0.4271(3) 0.4563(2) -0.01417(19)
C169 C 0.4591(3) 0.4194(2) -0.0116(2)
H112 H 0.4423 0.3962 -0.0005
C170 C 0.5153(3) 0.41599(17) -0.0252(2)
C171 C 0.5408(3) 0.4495(2) -0.0421(2)
H113 H 0.5792 0.4469 -0.0514
C172 C 0.5098(3) 0.4864(2) -0.0453(2)
C173 C 0.4531(3) 0.4895(2) -0.03178(19)
H114 H 0.4314 0.5147 -0.0346
C174 C 0.5328(3) 0.5241(2) -0.0619(2)
C175 C 0.6446(4) 0.5632(3) -0.1105(3)
H115 H 0.6733 0.5421 -0.1136
C176 C 0.6499(4) 0.6043(3) -0.1257(3)
C177 C 0.6987(6) 0.6154(3) -0.1453(4)
H116 H 0.7290 0.5959 -0.1500
C178 C 0.7015(7) 0.6551(4) -0.1576(5)
H117 H 0.7353 0.6633 -0.1701
C179 C 0.6581(6) 0.6829(3) -0.1527(4)
H118 H 0.6606 0.7102 -0.1618
C180 C 0.6083(5) 0.6701(3) -0.1336(3)
H119 H 0.5769 0.6890 -0.1295
N49 N 0.1980(3) 0.47866(17) 0.05679(18)
N50 N 0.2985(2) 0.44672(16) 0.03726(16)
N51 N 0.3521(3) 0.43421(16) 0.02467(16)
N52 N 0.5843(3) 0.51976(19) -0.07790(19)
N53 N 0.5981(3) 0.55779(18) -0.09270(18)
N54 N 0.6060(3) 0.6309(2) -0.1212(2)
O41 O 0.3390(2) 0.49591(14) -0.00858(14)
O42 O 0.5302(4) 0.34581(19) -0.05801(17)
O43 O 0.6175(3) 0.37549(18) -0.0188(2)
O44 O 0.5354(3) 0.34717(13) 0.01048(15)
O45 O 0.5041(2) 0.55648(14) -0.05895(16)
S9 S 0.55279(9) 0.36711(5) -0.02249(6)
C181 C 0.4625(6) 0.5585(3) -0.1635(3)
H120 H 0.4932 0.5378 -0.1601
C182 C 0.4127(6) 0.5548(4) -0.1930(4)
H121 H 0.4110 0.5321 -0.2101
C183 C 0.3690(6) 0.5816(4) -0.1976(3)
H122 H 0.3351 0.5786 -0.2176
C184 C 0.3725(5) 0.6162(3) -0.1719(3)
H123 H 0.3410 0.6364 -0.1745
C185 C 0.4227(4) 0.6194(3) -0.1432(3)
C186 C 0.4303(4) 0.6527(3) -0.1161(3)
H124 H 0.4015 0.6746 -0.1178
C187 C 0.5372(3) 0.6731(2) -0.0379(2)
C188 C 0.5529(4) 0.7006(2) -0.0035(2)
C189 C 0.5149(4) 0.7321(2) 0.0048(2)
H125 H 0.4791 0.7390 -0.0127
C190 C 0.5293(3) 0.75338(18) 0.0386(2)
C191 C 0.5801(4) 0.7444(2) 0.0649(2)
H126 H 0.5883 0.7596 0.0882
C192 C 0.6203(3) 0.71239(18) 0.0572(2)
C193 C 0.6054(4) 0.6919(2) 0.0219(2)
H127 H 0.6326 0.6713 0.0152
C194 C 0.6718(4) 0.6970(2) 0.0844(2)
C195 C 0.7519(4) 0.7062(3) 0.1754(3)
H128 H 0.7400 0.7315 0.1855
C196 C 0.7948(5) 0.6793(3) 0.1983(3)
C197 C 0.8186(5) 0.6853(4) 0.2349(4)
H129 H 0.8065 0.7091 0.2475
C198 C 0.8587(8) 0.6596(5) 0.2550(5)
H130 H 0.8782 0.6660 0.2803
C199 C 0.8709(8) 0.6209(5) 0.2360(5)
H131 H 0.8963 0.6000 0.2488
C200 C 0.8439(6) 0.6170(4) 0.1993(5)
H132 H 0.8511 0.5921 0.1866
N55 N 0.4675(4) 0.5913(2) -0.1398(2)
N56 N 0.4765(3) 0.65210(19) -0.08995(18)
N57 N 0.4865(4) 0.6823(2) -0.0620(2)
N58 N 0.6858(3) 0.71688(19) 0.1187(2)
N59 N 0.7304(3) 0.69497(18) 0.1415(2)
N60 N 0.8083(4) 0.6444(2) 0.1791(3)
O46 O 0.5714(3) 0.64249(16) -0.04025(16)
O47 O 0.4231(3) 0.76832(18) 0.0597(2)
O48 O 0.5085(3) 0.81427(15) 0.08149(17)
O49 O 0.4591(3) 0.81557(17) 0.01639(17)
O50 O 0.6974(3) 0.66435(16) 0.07602(17)
S10 S 0.47593(9) 0.79087(5) 0.05029(6)
C201 C 0.8557(6) 0.6929(4) 0.0784(6)
H133 H 0.8409 0.7169 0.0895
C202 C 0.8990(7) 0.6973(5) 0.0517(6)
H134 H 0.9122 0.7236 0.0447
C203 C 0.9194(8) 0.6644(5) 0.0375(7)
H135 H 0.9489 0.6663 0.0202
C204 C 0.8991(6) 0.6273(5) 0.0472(5)
H136 H 0.9140 0.6031 0.0365
C205 C 0.8572(5) 0.6244(3) 0.0724(4)
C206 C 0.8308(5) 0.5845(3) 0.0821(3)
H137 H 0.8465 0.5592 0.0744
C207 C 0.7083(4) 0.5612(2) 0.1288(2)
C208 C 0.6652(4) 0.52787(19) 0.1369(2)
C209 C 0.6726(4) 0.4870(2) 0.1252(2)
H138 H 0.7058 0.4791 0.1121
C210 C 0.6292(4) 0.45917(18) 0.1338(2)
C211 C 0.5810(4) 0.4691(2) 0.1537(2)
H139 H 0.5533 0.4486 0.1600
C212 C 0.5740(4) 0.5102(2) 0.1643(2)
C213 C 0.6170(4) 0.53807(19) 0.1564(2)
H140 H 0.6136 0.5656 0.1647
C214 C 0.5237(4) 0.5224(2) 0.1857(2)
C215 C 0.4107(4) 0.4885(2) 0.2348(2)
H141 H 0.4099 0.4595 0.2335
C216 C 0.3680(4) 0.5128(2) 0.2560(2)
C217 C 0.3229(5) 0.4966(3) 0.2739(3)
H142 H 0.3148 0.4680 0.2731
C218 C 0.2880(5) 0.5239(4) 0.2941(3)
H143 H 0.2545 0.5140 0.3058
C219 C 0.3037(7) 0.5651(4) 0.2963(4)
H144 H 0.2818 0.5839 0.3100
C220 C 0.3510(7) 0.5777(3) 0.2784(5)
H145 H 0.3633 0.6055 0.2812
N61 N 0.8354(4) 0.6563(3) 0.0883(3)
N62 N 0.7860(4) 0.5863(2) 0.1012(2)
N63 N 0.7554(4) 0.5510(2) 0.1114(2)
N64 N 0.4892(3) 0.49261(18) 0.19832(19)
N65 N 0.4476(3) 0.50998(18) 0.21890(19)
N66 N 0.3811(4) 0.5537(2) 0.2574(3)
O51 O 0.6932(3) 0.59719(15) 0.1376(2)
O52 O 0.5883(3) 0.40262(17) 0.08560(18)
O53 O 0.6961(3) 0.40093(18) 0.1085(2)
O54 O 0.6251(3) 0.38337(17) 0.15159(18)
O55 O 0.5147(3) 0.56063(15) 0.1918(2)
S11 S 0.63371(11) 0.40738(5) 0.11811(6)
C221 C 0.5353(4) 0.6036(2) 0.2948(2)
H146 H 0.5465 0.5761 0.3012
C222 C 0.5618(4) 0.6358(2) 0.3188(2)
H147 H 0.5882 0.6294 0.3420
C223 C 0.5501(4) 0.6753(3) 0.3094(2)
H148 H 0.5695 0.6967 0.3250
C224 C 0.5082(4) 0.6841(2) 0.2757(2)
H149 H 0.4990 0.7116 0.2680
C225 C 0.4808(4) 0.65099(19) 0.2542(2)
C226 C 0.4366(4) 0.6579(2) 0.2196(2)
H150 H 0.4284 0.6849 0.2102
C227 C 0.3616(3) 0.66629(19) 0.1461(2)
C228 C 0.3185(3) 0.6619(2) 0.1098(2)
C229 C 0.2919(5) 0.6987(2) 0.0939(3)
H151 H 0.3014 0.7241 0.1065
C230 C 0.2515(4) 0.6969(2) 0.0592(3)
C231 C 0.2380(4) 0.6602(2) 0.0390(3)
H152 H 0.2110 0.6599 0.0152
C232 C 0.2652(4) 0.6237(2) 0.0548(2)
C233 C 0.3054(3) 0.62580(19) 0.0899(2)
H153 H 0.3243 0.6013 0.1003
C234 C 0.2543(3) 0.5839(2) 0.0350(2)
C235 C 0.1734(5) 0.5388(3) -0.0450(3)
H154 H 0.1503 0.5605 -0.0582
C236 C 0.1693(5) 0.4988(3) -0.0603(2)
C237 C 0.1330(5) 0.4882(4) -0.0935(3)
H155 H 0.1087 0.5084 -0.1082
C238 C 0.1314(6) 0.4478(4) -0.1059(4)
H156 H 0.1092 0.4404 -0.1302
C239 C 0.1624(6) 0.4190(4) -0.0826(4)
H157 H 0.1595 0.3910 -0.0900
C240 C 0.1981(5) 0.4300(3) -0.0480(3)
H158 H 0.2207 0.4096 -0.0325
N67 N 0.4949(3) 0.61120(17) 0.26346(18)
N68 N 0.4091(3) 0.62778(17) 0.20205(19)
N69 N 0.3680(4) 0.63341(19) 0.1701(2)
H159 H 0.3419 0.6132 0.1639
N70 N 0.2153(3) 0.5846(2) 0.00167(18)
N71 N 0.2085(3) 0.5460(2) -0.01303(17)
N72 N 0.2008(3) 0.4695(2) -0.0364(2)
O56 O 0.3915(4) 0.69768(19) 0.15362(19)
O57 O 0.2630(5) 0.7729(2) 0.0452(4)
O58 O 0.1878(8) 0.7346(3) 0.0014(3)
O59 O 0.1685(5) 0.7535(3) 0.0633(4)
O60 O 0.2822(2) 0.55284(15) 0.05049(15)
S12 S 0.2163(2) 0.74337(8) 0.03954(10)
Na5 Na 0.50766(16) 0.88018(9) 0.03952(10)
Na6 Na 0.6751(3) 0.37793(10) 0.04178(12)
Na7 Na 0.3327(6) 0.7997(4) 0.0695(4)
Zn10 Zn 0.45503(4) 1.17845(3) -0.05305(3)
Zn11 Zn 0.13142(5) 1.08171(3) 0.01657(3)
Zn12 Zn 0.32048(5) 1.02621(3) 0.23633(3)
Cu4 Cu 0.63458(5) 1.11020(3) 0.14845(3)
C241 C 0.5922(4) 1.1817(2) -0.0752(2)
H160 H 0.5837 1.1557 -0.0871
C242 C 0.6481(4) 1.1991(3) -0.0766(3)
H161 H 0.6781 1.1852 -0.0888
C243 C 0.6614(4) 1.2373(3) -0.0601(3)
H162 H 0.6995 1.2507 -0.0619
C244 C 0.6172(4) 1.2554(2) -0.0408(2)
H163 H 0.6250 1.2811 -0.0282
C245 C 0.5617(3) 1.23549(19) -0.0403(2)
C246 C 0.5145(3) 1.25267(18) -0.0203(2)
H164 H 0.5197 1.2783 -0.0073
C247 C 0.3725(3) 1.2150(2) -0.0078(2)
C248 C 0.3171(3) 1.2228(2) 0.0110(2)
C249 C 0.3066(4) 1.2602(2) 0.0282(2)
H165 H 0.3347 1.2822 0.0274
C250 C 0.2544(3) 1.26501(18) 0.0467(2)
C251 C 0.2123(3) 1.2343(2) 0.0477(2)
H166 H 0.1763 1.2385 0.0593
C252 C 0.2238(3) 1.1959(2) 0.0308(2)
C253 C 0.2746(3) 1.1916(2) 0.0130(2)
H167 H 0.2814 1.1660 0.0014
C254 C 0.1814(3) 1.1601(2) 0.0315(2)
C255 C 0.0399(4) 1.1297(3) 0.0501(3)
H168 H 0.0194 1.1530 0.0585
C256 C 0.0106(4) 1.0884(3) 0.0458(3)
C257 C -0.0464(5) 1.0819(4) 0.0539(4)
H169 H -0.0693 1.1036 0.0631
C258 C -0.0716(7) 1.0431(5) 0.0489(5)
H170 H -0.1124 1.0377 0.0538
C259 C -0.0351(7) 1.0117(5) 0.0363(5)
H171 H -0.0491 0.9842 0.0338
C260 C 0.0207(5) 1.0227(3) 0.0280(4)
H172 H 0.0451 1.0016 0.0193
N73 N 0.5487(3) 1.19941(16) -0.05810(17)
N74 N 0.4644(3) 1.23094(15) -0.02097(16)
N75 N 0.4169(3) 1.24384(17) -0.00242(18)
N76 N 0.1276(3) 1.1667(2) 0.0447(2)
N77 N 0.0946(3) 1.1314(2) 0.0416(2)
N78 N 0.0447(3) 1.0591(2) 0.0306(2)
O61 O 0.3745(2) 1.18198(14) -0.02716(16)
O62 O 0.2072(3) 1.3366(2) 0.0355(2)
O63 O 0.2084(3) 1.30609(19) 0.0981(2)
O64 O 0.3029(2) 1.33031(14) 0.07858(17)
O65 O 0.1988(3) 1.12662(16) 0.01834(19)
S13 S 0.24229(8) 1.31396(5) 0.06656(7)
C261 C 0.0613(5) 1.1320(3) -0.0583(3)
H173 H 0.0491 1.1514 -0.0406
C262 C 0.0442(7) 1.1386(4) -0.0982(4)
H174 H 0.0213 1.1621 -0.1075
C263 C 0.0616(6) 1.1098(4) -0.1231(4)
H175 H 0.0499 1.1129 -0.1501
C264 C 0.0954(6) 1.0772(3) -0.1091(3)
H176 H 0.1077 1.0575 -0.1264
C265 C 0.1120(5) 1.0720(3) -0.0703(3)
C266 C 0.1473(5) 1.0375(3) -0.0530(3)
H177 H 0.1599 1.0163 -0.0687
C267 C 0.2052(3) 1.0125(2) 0.0395(2)
C268 C 0.2472(3) 0.9825(2) 0.0646(2)
C269 C 0.2766(4) 0.9509(2) 0.0487(3)
H178 H 0.2687 0.9453 0.0219
C270 C 0.3185(4) 0.9272(2) 0.0736(3)
C271 C 0.3313(4) 0.9351(2) 0.1122(3)
H179 H 0.3603 0.9188 0.1284
C272 C 0.3005(4) 0.9681(2) 0.1276(3)
C273 C 0.2589(4) 0.9906(2) 0.1035(2)
H180 H 0.2375 1.0123 0.1138
C274 C 0.3153(4) 0.9795(2) 0.1693(3)
C275 C 0.4093(4) 0.9618(3) 0.2544(3)
H181 H 0.4317 0.9373 0.2516
C276 C 0.4206(4) 0.9856(3) 0.2895(3)
C277 C 0.4666(5) 0.9771(4) 0.3182(3)
H182 H 0.4921 0.9537 0.3168
C278 C 0.4764(6) 1.0042(4) 0.3512(3)
H183 H 0.5092 1.0004 0.3718
C279 C 0.4364(6) 1.0348(4) 0.3508(3)
H184 H 0.4412 1.0532 0.3721
C280 C 0.3884(5) 1.0417(3) 0.3215(3)
H185 H 0.3607 1.0637 0.3234
N79 N 0.0940(4) 1.0993(2) -0.0445(2)
N80 N 0.1613(3) 1.0358(2) -0.0167(2)
N81 N 0.1966(4) 1.0057(2) 0.0017(2)
N82 N 0.3574(4) 0.9576(2) 0.1916(2)
N83 N 0.3682(3) 0.9746(2) 0.2270(2)
N84 N 0.3809(3) 1.0179(2) 0.2910(2)
O66 O 0.1819(3) 1.04149(16) 0.05707(17)
O67 O 0.4096(3) 0.90944(19) 0.0390(2)
O68 O 0.3824(3) 0.86135(15) 0.08522(17)
O69 O 0.3201(4) 0.8674(2) 0.0242(2)
O70 O 0.2880(3) 1.01083(17) 0.17964(18)
S14 S 0.36053(10) 0.88822(6) 0.05335(7)
C281 C 0.2109(6) 0.9681(4) 0.2583(5)
H186 H 0.2378 0.9457 0.2558
C282 C 0.1506(6) 0.9597(5) 0.2656(5)
H187 H 0.1374 0.9324 0.2689
C283 C 0.1117(6) 0.9917(4) 0.2677(4)
H188 H 0.0710 0.9874 0.2731
C284 C 0.1327(5) 1.0304(4) 0.2620(4)
H189 H 0.1056 1.0530 0.2629
C285 C 0.1924(4) 1.0376(3) 0.2549(3)
C286 C 0.2175(5) 1.0774(3) 0.2501(3)
H190 H 0.1943 1.1016 0.2529
C287 C 0.3551(4) 1.1085(2) 0.2231(2)
C288 C 0.3898(4) 1.1439(2) 0.2113(2)
C289 C 0.3692(4) 1.1844(2) 0.2096(2)
H191 H 0.3310 1.1912 0.2177
C290 C 0.4046(4) 1.21412(19) 0.1963(2)
C291 C 0.4613(4) 1.2058(2) 0.1848(2)
H192 H 0.4852 1.2270 0.1758
C292 C 0.4823(3) 1.16533(19) 0.1867(2)
C293 C 0.4466(4) 1.1356(2) 0.1992(2)
H193 H 0.4607 1.1080 0.1998
C294 C 0.5407(4) 1.1541(2) 0.1731(2)
C295 C 0.6793(3) 1.18945(19) 0.15197(19)
H194 H 0.6830 1.2177 0.1584
C296 C 0.7259(3) 1.1677(2) 0.1338(2)
C297 C 0.7788(4) 1.1841(2) 0.1246(2)
H195 H 0.7888 1.2118 0.1307
C298 C 0.8170(4) 1.1609(2) 0.1067(3)
H196 H 0.8548 1.1722 0.1012
C299 C 0.8020(5) 1.1203(3) 0.0960(4)
H197 H 0.8275 1.1039 0.0824
C300 C 0.7460(4) 1.1057(2) 0.1069(3)
H198 H 0.7338 1.0784 0.1000
N85 N 0.2322(4) 1.0061(3) 0.2548(2)
N86 N 0.2730(3) 1.0792(2) 0.2420(2)
N87 N 0.2989(3) 1.1158(2) 0.2344(2)
N88 N 0.5829(3) 1.18380(17) 0.17265(18)
N89 N 0.6337(3) 1.16798(16) 0.15849(16)
N90 N 0.7107(3) 1.12712(18) 0.1255(2)
O71 O 0.3783(3) 1.07358(17) 0.22143(19)
O72 O 0.3724(3) 1.27401(15) 0.15012(15)
O73 O 0.3205(3) 1.26821(19) 0.2057(2)
O74 O 0.4250(3) 1.28909(17) 0.2145(2)
O75 O 0.5493(2) 1.11686(13) 0.16341(14)
S15 S 0.37889(10) 1.26609(5) 0.19118(6)
C301 C 0.7045(4) 1.0811(3) 0.2302(2)
H199 H 0.7048 1.1091 0.2378
C302 C 0.7324(5) 1.0527(3) 0.2563(3)
H200 H 0.7519 1.0612 0.2810
C303 C 0.7316(5) 1.0111(3) 0.2459(2)
H201 H 0.7495 0.9907 0.2635
C304 C 0.7038(4) 1.0008(3) 0.2092(2)
H202 H 0.7024 0.9732 0.2007
C305 C 0.6772(3) 1.0327(2) 0.18452(19)
C306 C 0.6473(3) 1.0231(2) 0.1458(2)
H203 H 0.6447 0.9958 0.1364
C307 C 0.5819(3) 1.01342(18) 0.06824(18)
C308 C 0.5522(3) 1.01686(17) 0.02848(18)
C309 C 0.5422(3) 0.97959(18) 0.00783(18)
H204 H 0.5555 0.9544 0.0199
C310 C 0.5131(3) 0.97995(17) -0.02995(19)
C311 C 0.4931(3) 1.01610(19) -0.04818(19)
H205 H 0.4721 1.0156 -0.0738
C312 C 0.5041(3) 1.05349(18) -0.02866(19)
C313 C 0.5320(3) 1.05337(18) 0.00967(18)
H206 H 0.5374 1.0785 0.0233
C314 C 0.4827(3) 1.09326(19) -0.04599(18)
C315 C 0.4074(4) 1.1392(2) -0.1265(2)
H207 H 0.3982 1.1182 -0.1451
C316 C 0.3873(4) 1.1816(3) -0.1341(3)
C317 C 0.3506(6) 1.1925(4) -0.1680(3)
H208 H 0.3399 1.1734 -0.1883
C318 C 0.3298(7) 1.2336(4) -0.1710(4)
H209 H 0.3021 1.2421 -0.1929
C319 C 0.3483(9) 1.2595(4) -0.1439(5)
H210 H 0.3367 1.2875 -0.1469
C320 C 0.3850(6) 1.2468(3) -0.1104(3)
H211 H 0.3955 1.2659 -0.0901
N91 N 0.6778(3) 1.07170(19) 0.19551(18)
N92 N 0.6245(3) 1.05337(16) 0.12493(16)
N93 N 0.5950(3) 1.04919(16) 0.08743(17)
H212 H 0.5836 1.0719 0.0748
N94 N 0.4579(3) 1.09378(17) -0.08294(17)
N95 N 0.4383(3) 1.13214(18) -0.09313(17)
N96 N 0.4055(3) 1.2091(2) -0.1059(2)
O76 O 0.5947(3) 0.98056(15) 0.08407(16)
O77 O 0.4906(3) 0.90192(14) -0.02641(14)
O78 O 0.4533(3) 0.93799(16) -0.08521(15)
O79 O 0.5613(3) 0.92536(17) -0.06847(17)
O80 O 0.4889(2) 1.12466(13) -0.02406(13)
S16 S 0.50336(9) 0.93209(5) -0.05470(5)
Na8 Na 0.3924(4) 0.8580(2) -0.0252(2)
Na9 Na 0.39982(12) 0.32961(8) 0.11405(8)
Na10 Na 0.52564(13) 0.34163(8) 0.07523(9)
Na11 Na 0.47253(19) 0.84910(10) 0.13161(10)
Na12 Na 0.2372(3) 0.30213(12) 0.16625(17)
O81 O 0.8353(13) 0.7934(8) 0.2011(8)
O82 O 0.4362(2) 0.38827(15) 0.07852(15)
O83 O 0.4544(2) 0.28485(15) 0.06911(15)
O84 O 0.5024(3) 0.40449(17) 0.21689(19)
O85 O 0.5249(3) 0.90445(18) 0.10439(19)
O86 O 0.5064(3) 0.33289(19) 0.14550(19)
O87 O 0.6668(4) 0.79427(18) 0.1507(2)
O88 O 0.5946(4) 0.2705(2) 0.1818(2)
O89 O 0.4357(4) 0.8824(2) 0.1846(2)
O90 O 0.6104(3) 0.8754(3) 0.0399(2)
O91 O 0.7247(4) 0.4351(2) 0.0226(2)
O92 O 0.5721(5) 0.8412(3) 0.1729(3)
O93 O 0.7556(6) 0.8725(3) 0.2632(3)
O94 O 0.6299(6) 0.3350(3) 0.2306(3)
O95 O 0.1938(6) 0.2397(4) 0.1653(4)
O96 O 0.4332(12) 0.7855(3) 0.1504(6)
O97 O 0.3399(6) 0.9104(6) -0.0621(5)
O98 O 0.1867(13) 0.3208(8) 0.2235(8)
C321 C 0.5266(7) 0.3232(4) 0.3087(4)
H213 H 0.4922 0.3062 0.3112
C322 C 0.6124(9) 0.3616(6) 0.3419(6)
H214 H 0.6155 0.3710 0.3156
H215 H 0.6515 0.3491 0.3531
H216 H 0.6033 0.3850 0.3577
C323 C 0.5548(12) 0.3172(6) 0.3771(4)
H217 H 0.5135 0.3051 0.3751
H218 H 0.5584 0.3397 0.3959
H219 H 0.5858 0.2962 0.3857
N97 N 0.5647(6) 0.3324(4) 0.3406(3)
O99 O 0.5325(4) 0.3351(2) 0.2761(3)
O100 O 0.3421(9) 0.8038(6) 0.0067(6)
O101 O 0.6999(3) 0.48037(19) -0.0477(2)
O102 O 0.9443(5) -0.0422(3) 0.3507(3)
O103 O 0.8015(4) 0.4833(3) 0.0733(4)
O104 O 0.1026(6) 0.2025(3) 0.1154(3)
O105 O 0.8412(5) 0.2209(3) 0.0176(4)
O106 O 0.3096(6) 0.2937(4) 0.2833(3)
O107 O 0.7318(5) 0.3572(4) 0.2841(4)
O108 O 0.2297(6) -0.0508(4) -0.0557(4)
O109 O 0.7880(6) 0.5250(3) -0.0812(5)
O110 O 0.2120(7) 0.1809(4) 0.2270(4)
O111 O 0.8302(7) -0.0242(5) 0.3333(5)
O112 O 0.7391(11) 0.6603(4) 0.3546(5)
O113 O 0.1648(10) 0.4631(4) 0.2469(7)
O114 O 0.6748(8) -0.0880(5) -0.0125(4)
O115 O 0.2366(12) 0.3947(4) 0.2593(6)
O116 O 0.3766(9) 0.7357(6) -0.0732(6)
O117 O 0.5553(9) 0.7912(6) 0.3291(6)
O118 O 0.8731(11) 0.5001(7) 0.0017(7)
O119 O 0.5034(12) 0.0818(8) -0.2142(7)
O120 O 0.8534(15) -0.0709(9) 0.2551(9)
O121 O 0.5435(12) 0.0407(8) 0.4376(7)
O122 O 0.1566(13) 0.3108(9) -0.0998(8)
O123 O -0.0009(10) 0.2345(7) -0.1110(6)
O124 O 0.1939(13) 0.6465(9) -0.0592(8)
O125 O 0.005(3) 0.5489(17) -0.0444(16)
O126 O 0.6853(10) 0.0106(7) 0.3717(6)
O127 O 0.8650(13) 0.1250(8) 0.3255(8)
O128 O 0.8183(12) 0.0703(8) -0.1501(8)
O129 O 0.922(2) 0.5601(14) 0.3344(13)
O130 O 0.8715(19) 0.2594(12) 0.0866(11)
O131 O 0.9517(13) 0.2028(9) -0.0153(8)
O132 O 0.2687(12) 0.6888(8) -0.1489(7)
O133 O 0.2786(12) 0.6719(8) -0.0979(7)
C324 C 0.7493(8) 0.8983(5) 0.3645(4)
H220 H 0.7438 0.9016 0.3373
C325 C 0.7436(9) 0.8529(5) 0.4185(3)
H221 H 0.7880 0.8477 0.4245
H222 H 0.7209 0.8280 0.4232
H223 H 0.7320 0.8751 0.4348
C326 C 0.6998(7) 0.8333(3) 0.3547(3)
H224 H 0.6919 0.8438 0.3282
H225 H 0.6607 0.8256 0.3632
H226 H 0.7268 0.8092 0.3555
N98 N 0.7290(5) 0.8642(3) 0.3795(2)
O134 O 0.7750(11) 0.9255(5) 0.3852(4)
loop_
_geom_bond_atom_site_label_1
_geom_bond_atom_site_label_2
_geom_bond_site_symmetry_1
_geom_bond_site_symmetry_2
Zn1 N1 1_555 1_555
Cu1 N5 1_555 1_555
Zn2 N11 1_555 1_555
Zn3 N17 1_555 1_555
C1 H1 1_555 1_555
C2 C1 1_555 1_555
H2 C2 1_555 1_555
C3 C2 1_555 1_555
H3 C3 1_555 1_555
C4 C3 1_555 1_555
H4 C4 1_555 1_555
C5 C4 1_555 1_555
C6 C5 1_555 1_555
H5 C6 1_555 1_555
C7 C8 1_555 1_555
C8 C9 1_555 1_555
C9 H6 1_555 1_555
C10 C9 1_555 1_555
C11 C10 1_555 1_555
H7 C11 1_555 1_555
C12 C11 1_555 1_555
C13 C8 1_555 1_555
H8 C13 1_555 1_555
C14 C12 1_555 1_555
C15 H9 1_555 1_555
C16 C15 1_555 1_555
C17 C16 1_555 1_555
H10 C17 1_555 1_555
C18 C17 1_555 1_555
H11 C18 1_555 1_555
C19 C18 1_555 1_555
H12 C19 1_555 1_555
C20 C19 1_555 1_555
H13 C20 1_555 1_555
N1 C1 1_555 1_555
N2 Zn1 1_555 1_555
N3 C7 1_555 1_555
N4 C14 1_555 1_555
N5 C15 1_555 1_555
N6 Cu1 1_555 1_555
O1 Zn1 1_555 1_555
O2 S1 1_555 1_555
O3 S1 1_555 1_555
O4 S1 1_555 1_555
O5 Cu1 1_555 1_555
S1 C10 1_555 1_555
C21 H14 1_555 1_555
C22 C21 1_555 1_555
H15 C22 1_555 1_555
C23 C22 1_555 1_555
H16 C23 1_555 1_555
C24 C23 1_555 1_555
H17 C24 1_555 1_555
C25 C24 1_555 1_555
C26 C25 1_555 1_555
H18 C26 1_555 1_555
C27 C28 1_555 1_555
C28 C29 1_555 1_555
C29 H19 1_555 1_555
C30 C29 1_555 1_555
C31 C30 1_555 1_555
H20 C31 1_555 1_555
C32 C31 1_555 1_555
C33 C28 1_555 1_555
H21 C33 1_555 1_555
C34 C32 1_555 1_555
C35 H22 1_555 1_555
C36 C35 1_555 1_555
C37 C36 1_555 1_555
H23 C37 1_555 1_555
C38 C37 1_555 1_555
H24 C38 1_555 1_555
C39 C38 1_555 1_555
H25 C39 1_555 1_555
C40 C39 1_555 1_555
H26 C40 1_555 1_555
N7 Cu1 1_555 1_555
N8 Cu1 1_555 1_555
N9 C27 1_555 1_555
H27 N9 1_555 1_555
N10 C34 1_555 1_555
N11 C35 1_555 1_555
N12 Zn2 1_555 1_555
O6 C27 1_555 1_555
O7 S2 1_555 1_555
O8 S2 1_555 1_555
O9 S2 1_555 1_555
O10 Zn2 1_555 1_555
S2 C30 1_555 1_555
C41 H28 1_555 1_555
C42 C41 1_555 1_555
H29 C42 1_555 1_555
C43 C42 1_555 1_555
H30 C43 1_555 1_555
C44 C43 1_555 1_555
H31 C44 1_555 1_555
C45 C44 1_555 1_555
C46 C45 1_555 1_555
H32 C46 1_555 1_555
C47 C48 1_555 1_555
C48 C49 1_555 1_555
C49 H33 1_555 1_555
C50 C49 1_555 1_555
C51 C50 1_555 1_555
H34 C51 1_555 1_555
C52 C51 1_555 1_555
C53 C48 1_555 1_555
H35 C53 1_555 1_555
C54 C52 1_555 1_555
C55 H36 1_555 1_555
C56 C55 1_555 1_555
C57 C56 1_555 1_555
H37 C57 1_555 1_555
C58 C57 1_555 1_555
H38 C58 1_555 1_555
C59 C58 1_555 1_555
H39 C59 1_555 1_555
C60 C59 1_555 1_555
H40 C60 1_555 1_555
N13 Zn2 1_555 1_555
N14 Zn2 1_555 1_555
N15 C47 1_555 1_555
N16 C54 1_555 1_555
N17 C55 1_555 1_555
N18 Zn3 1_555 1_555
O11 Zn2 1_555 1_555
O12 S3 1_555 1_555
O13 S3 1_555 1_555
O14 S3 1_555 1_555
O15 Zn3 1_555 1_555
S3 C50 1_555 1_555
C61 H41 1_555 1_555
C62 C61 1_555 1_555
H42 C62 1_555 1_555
C63 C62 1_555 1_555
H43 C63 1_555 1_555
C64 C63 1_555 1_555
H44 C64 1_555 1_555
C65 C64 1_555 1_555
C66 C65 1_555 1_555
H45 C66 1_555 1_555
C67 C68 1_555 1_555
C68 C69 1_555 1_555
C69 H46 1_555 1_555
C70 C69 1_555 1_555
C71 C70 1_555 1_555
H47 C71 1_555 1_555
C72 C71 1_555 1_555
C73 C68 1_555 1_555
H48 C73 1_555 1_555
C74 C72 1_555 1_555
C75 H49 1_555 1_555
C76 C75 1_555 1_555
C77 C76 1_555 1_555
H50 C77 1_555 1_555
C78 C77 1_555 1_555
H51 C78 1_555 1_555
C79 C78 1_555 1_555
H52 C79 1_555 1_555
C80 C79 1_555 1_555
H53 C80 1_555 1_555
N19 Zn3 1_555 1_555
N20 Zn3 1_555 1_555
N21 C67 1_555 1_555
N22 C74 1_555 1_555
N23 Zn1 1_555 1_555
N24 Zn1 1_555 1_555
O16 Zn3 1_555 1_555
O17 S4 1_555 1_555
O18 S4 1_555 1_555
O19 S4 1_555 1_555
O20 Zn1 1_555 1_555
S4 C70 1_555 1_555
Zn4 N25 1_555 1_555
Cu2 N29 1_555 1_555
Zn5 N35 1_555 1_555
Zn6 N41 1_555 1_555
C81 H54 1_555 1_555
C82 C81 1_555 1_555
H55 C82 1_555 1_555
C83 C82 1_555 1_555
H56 C83 1_555 1_555
C84 C83 1_555 1_555
H57 C84 1_555 1_555
C85 C84 1_555 1_555
C86 C85 1_555 1_555
H58 C86 1_555 1_555
C87 C88 1_555 1_555
C88 C89 1_555 1_555
C89 H59 1_555 1_555
C90 C89 1_555 1_555
C91 C90 1_555 1_555
H60 C91 1_555 1_555
C92 C91 1_555 1_555
C93 C88 1_555 1_555
H61 C93 1_555 1_555
C94 C92 1_555 1_555
C95 H62 1_555 1_555
C96 C95 1_555 1_555
C97 C96 1_555 1_555
H63 C97 1_555 1_555
C98 C97 1_555 1_555
H64 C98 1_555 1_555
C99 C98 1_555 1_555
H65 C99 1_555 1_555
C100 C99 1_555 1_555
H66 C100 1_555 1_555
N25 C81 1_555 1_555
N26 Zn4 1_555 1_555
N27 C87 1_555 1_555
N28 C94 1_555 1_555
N29 C95 1_555 1_555
N30 Cu2 1_555 1_555
O21 Zn4 1_555 1_555
O22 S5 1_555 1_555
O23 S5 1_555 1_555
O24 S5 1_555 1_555
O25 Cu2 1_555 1_555
S5 C90 1_555 1_555
C101 H67 1_555 1_555
C102 C101 1_555 1_555
H68 C102 1_555 1_555
C103 C102 1_555 1_555
H69 C103 1_555 1_555
C104 C103 1_555 1_555
H70 C104 1_555 1_555
C105 C104 1_555 1_555
C106 C105 1_555 1_555
H71 C106 1_555 1_555
C107 C108 1_555 1_555
C108 C109 1_555 1_555
C109 H72 1_555 1_555
C110 C109 1_555 1_555
C111 C110 1_555 1_555
H73 C111 1_555 1_555
C112 C111 1_555 1_555
C113 C108 1_555 1_555
H74 C113 1_555 1_555
C114 C112 1_555 1_555
C115 H75 1_555 1_555
C116 C115 1_555 1_555
C117 C116 1_555 1_555
H76 C117 1_555 1_555
C118 C117 1_555 1_555
H77 C118 1_555 1_555
C119 C118 1_555 1_555
H78 C119 1_555 1_555
C120 C119 1_555 1_555
H79 C120 1_555 1_555
N31 Cu2 1_555 1_555
N32 Cu2 1_555 1_555
N33 C107 1_555 1_555
H80 N33 1_555 1_555
N34 C114 1_555 1_555
N35 C115 1_555 1_555
N36 Zn5 1_555 1_555
O26 C107 1_555 1_555
O27 S6 1_555 1_555
O28 S6 1_555 1_555
O29 S6 1_555 1_555
O30 Zn5 1_555 1_555
S6 C110 1_555 1_555
C121 H81 1_555 1_555
C122 C121 1_555 1_555
H82 C122 1_555 1_555
C123 C122 1_555 1_555
H83 C123 1_555 1_555
C124 C123 1_555 1_555
H84 C124 1_555 1_555
C125 C124 1_555 1_555
C126 C125 1_555 1_555
H85 C126 1_555 1_555
C127 C128 1_555 1_555
C128 C129 1_555 1_555
C129 H86 1_555 1_555
C130 C129 1_555 1_555
C131 C130 1_555 1_555
H87 C131 1_555 1_555
C132 C131 1_555 1_555
C133 C128 1_555 1_555
H88 C133 1_555 1_555
C134 C132 1_555 1_555
C135 H89 1_555 1_555
C136 C135 1_555 1_555
C137 C136 1_555 1_555
H90 C137 1_555 1_555
C138 C137 1_555 1_555
H91 C138 1_555 1_555
C139 C138 1_555 1_555
H92 C139 1_555 1_555
C140 C139 1_555 1_555
H93 C140 1_555 1_555
N37 Zn5 1_555 1_555
N38 Zn5 1_555 1_555
N39 C127 1_555 1_555
N40 C134 1_555 1_555
N41 C135 1_555 1_555
N42 Zn6 1_555 1_555
O31 Zn5 1_555 1_555
O32 S7 1_555 1_555
O33 S7 1_555 1_555
O34 S7 1_555 1_555
O35 Zn6 1_555 1_555
S7 C130 1_555 1_555
C141 H94 1_555 1_555
C142 C141 1_555 1_555
H95 C142 1_555 1_555
C143 C142 1_555 1_555
H96 C143 1_555 1_555
C144 C143 1_555 1_555
H97 C144 1_555 1_555
C145 C144 1_555 1_555
C146 C145 1_555 1_555
H98 C146 1_555 1_555
C147 C148 1_555 1_555
C148 C149 1_555 1_555
C149 H99 1_555 1_555
C150 C149 1_555 1_555
C151 C150 1_555 1_555
H100 C151 1_555 1_555
C152 C151 1_555 1_555
C153 C148 1_555 1_555
H101 C153 1_555 1_555
C154 C152 1_555 1_555
C155 H102 1_555 1_555
C156 C155 1_555 1_555
C157 C156 1_555 1_555
H103 C157 1_555 1_555
C158 C157 1_555 1_555
H104 C158 1_555 1_555
C159 C158 1_555 1_555
H105 C159 1_555 1_555
C160 C159 1_555 1_555
H106 C160 1_555 1_555
N43 Zn6 1_555 1_555
N44 Zn6 1_555 1_555
N45 C147 1_555 1_555
N46 C154 1_555 1_555
N47 Zn4 1_555 1_555
N48 Zn4 1_555 1_555
O36 Zn6 1_555 1_555
O37 S8 1_555 1_555
O38 S8 1_555 1_555
O39 S8 1_555 1_555
O40 Zn4 1_555 1_555
S8 C150 1_555 1_555
Zn7 N49 1_555 1_555
Zn8 N53 1_555 1_555
Zn9 N59 1_555 1_555
Cu3 N65 1_555 1_555
C161 H107 1_555 1_555
C162 C161 1_555 1_555
H108 C162 1_555 1_555
C163 C162 1_555 1_555
H109 C163 1_555 1_555
C164 C163 1_555 1_555
H110 C164 1_555 1_555
C165 C164 1_555 1_555
C166 C165 1_555 1_555
H111 C166 1_555 1_555
C167 C168 1_555 1_555
C168 C169 1_555 1_555
C169 H112 1_555 1_555
C170 C169 1_555 1_555
C171 C170 1_555 1_555
H113 C171 1_555 1_555
C172 C171 1_555 1_555
C173 C168 1_555 1_555
H114 C173 1_555 1_555
C174 C172 1_555 1_555
C175 H115 1_555 1_555
C176 C175 1_555 1_555
C177 C176 1_555 1_555
H116 C177 1_555 1_555
C178 C177 1_555 1_555
H117 C178 1_555 1_555
C179 C178 1_555 1_555
H118 C179 1_555 1_555
C180 C179 1_555 1_555
H119 C180 1_555 1_555
N49 C161 1_555 1_555
N50 Zn7 1_555 1_555
N51 C167 1_555 1_555
N52 C174 1_555 1_555
N53 C175 1_555 1_555
N54 Zn8 1_555 1_555
O41 Zn7 1_555 1_555
O42 S9 1_555 1_555
O43 S9 1_555 1_555
O44 S9 1_555 1_555
O45 Zn8 1_555 1_555
S9 C170 1_555 1_555
C181 H120 1_555 1_555
C182 C181 1_555 1_555
H121 C182 1_555 1_555
C183 C182 1_555 1_555
H122 C183 1_555 1_555
C184 C183 1_555 1_555
H123 C184 1_555 1_555
C185 C184 1_555 1_555
C186 C185 1_555 1_555
H124 C186 1_555 1_555
C187 C188 1_555 1_555
C188 C189 1_555 1_555
C189 H125 1_555 1_555
C190 C189 1_555 1_555
C191 C190 1_555 1_555
H126 C191 1_555 1_555
C192 C191 1_555 1_555
C193 C188 1_555 1_555
H127 C193 1_555 1_555
C194 C192 1_555 1_555
C195 H128 1_555 1_555
C196 C195 1_555 1_555
C197 C196 1_555 1_555
H129 C197 1_555 1_555
C198 C197 1_555 1_555
H130 C198 1_555 1_555
C199 C198 1_555 1_555
H131 C199 1_555 1_555
C200 C199 1_555 1_555
H132 C200 1_555 1_555
N55 Zn8 1_555 1_555
N56 Zn8 1_555 1_555
N57 C187 1_555 1_555
N58 C194 1_555 1_555
N59 C195 1_555 1_555
N60 Zn9 1_555 1_555
O46 Zn8 1_555 1_555
O47 S10 1_555 1_555
O48 S10 1_555 1_555
O49 S10 1_555 1_555
O50 Zn9 1_555 1_555
S10 C190 1_555 1_555
C201 H133 1_555 1_555
C202 C201 1_555 1_555
H134 C202 1_555 1_555
C203 C202 1_555 1_555
H135 C203 1_555 1_555
C204 C203 1_555 1_555
H136 C204 1_555 1_555
C205 C204 1_555 1_555
C206 C205 1_555 1_555
H137 C206 1_555 1_555
C207 C208 1_555 1_555
C208 C209 1_555 1_555
C209 H138 1_555 1_555
C210 C209 1_555 1_555
C211 C210 1_555 1_555
H139 C211 1_555 1_555
C212 C211 1_555 1_555
C213 C208 1_555 1_555
H140 C213 1_555 1_555
C214 C212 1_555 1_555
C215 H141 1_555 1_555
C216 C215 1_555 1_555
C217 C216 1_555 1_555
H142 C217 1_555 1_555
C218 C217 1_555 1_555
H143 C218 1_555 1_555
C219 C218 1_555 1_555
H144 C219 1_555 1_555
C220 C219 1_555 1_555
H145 C220 1_555 1_555
N61 Zn9 1_555 1_555
N62 Zn9 1_555 1_555
N63 C207 1_555 1_555
N64 C214 1_555 1_555
N65 C215 1_555 1_555
N66 Cu3 1_555 1_555
O51 Zn9 1_555 1_555
O52 S11 1_555 1_555
O53 S11 1_555 1_555
O54 S11 1_555 1_555
O55 Cu3 1_555 1_555
S11 C210 1_555 1_555
C221 H146 1_555 1_555
C222 C221 1_555 1_555
H147 C222 1_555 1_555
C223 C222 1_555 1_555
H148 C223 1_555 1_555
C224 C223 1_555 1_555
H149 C224 1_555 1_555
C225 C224 1_555 1_555
C226 C225 1_555 1_555
H150 C226 1_555 1_555
C227 C228 1_555 1_555
C228 C229 1_555 1_555
C229 H151 1_555 1_555
C230 C229 1_555 1_555
C231 C230 1_555 1_555
H152 C231 1_555 1_555
C232 C231 1_555 1_555
C233 C228 1_555 1_555
H153 C233 1_555 1_555
C234 C232 1_555 1_555
C235 H154 1_555 1_555
C236 C235 1_555 1_555
C237 C236 1_555 1_555
H155 C237 1_555 1_555
C238 C237 1_555 1_555
H156 C238 1_555 1_555
C239 C238 1_555 1_555
H157 C239 1_555 1_555
C240 C239 1_555 1_555
H158 C240 1_555 1_555
N67 Cu3 1_555 1_555
N68 Cu3 1_555 1_555
N69 C227 1_555 1_555
H159 N69 1_555 1_555
N70 C234 1_555 1_555
N71 Zn7 1_555 1_555
N72 Zn7 1_555 1_555
O56 C227 1_555 1_555
O57 S12 1_555 1_555
O58 S12 1_555 1_555
O59 S12 1_555 1_555
O60 Zn7 1_555 1_555
S12 C230 1_555 1_555
Zn10 N73 1_555 1_555
Zn11 N77 1_555 1_555
Zn12 N83 1_555 1_555
Cu4 N89 1_555 1_555
C241 H160 1_555 1_555
C242 C241 1_555 1_555
H161 C242 1_555 1_555
C243 C242 1_555 1_555
H162 C243 1_555 1_555
C244 C243 1_555 1_555
H163 C244 1_555 1_555
C245 C244 1_555 1_555
C246 C245 1_555 1_555
H164 C246 1_555 1_555
C247 C248 1_555 1_555
C248 C249 1_555 1_555
C249 H165 1_555 1_555
C250 C249 1_555 1_555
C251 C250 1_555 1_555
H166 C251 1_555 1_555
C252 C251 1_555 1_555
C253 C248 1_555 1_555
H167 C253 1_555 1_555
C254 C252 1_555 1_555
C255 H168 1_555 1_555
C256 C255 1_555 1_555
C257 C256 1_555 1_555
H169 C257 1_555 1_555
C258 C257 1_555 1_555
H170 C258 1_555 1_555
C259 C258 1_555 1_555
H171 C259 1_555 1_555
C260 C259 1_555 1_555
H172 C260 1_555 1_555
N73 C241 1_555 1_555
N74 Zn10 1_555 1_555
N75 C247 1_555 1_555
N76 C254 1_555 1_555
N77 C255 1_555 1_555
N78 Zn11 1_555 1_555
O61 Zn10 1_555 1_555
O62 S13 1_555 1_555
O63 S13 1_555 1_555
O64 S13 1_555 1_555
O65 Zn11 1_555 1_555
S13 C250 1_555 1_555
C261 H173 1_555 1_555
C262 C261 1_555 1_555
H174 C262 1_555 1_555
C263 C262 1_555 1_555
H175 C263 1_555 1_555
C264 C263 1_555 1_555
H176 C264 1_555 1_555
C265 C264 1_555 1_555
C266 C265 1_555 1_555
H177 C266 1_555 1_555
C267 C268 1_555 1_555
C268 C269 1_555 1_555
C269 H178 1_555 1_555
C270 C269 1_555 1_555
C271 C270 1_555 1_555
H179 C271 1_555 1_555
C272 C271 1_555 1_555
C273 C268 1_555 1_555
H180 C273 1_555 1_555
C274 C272 1_555 1_555
C275 H181 1_555 1_555
C276 C275 1_555 1_555
C277 C276 1_555 1_555
H182 C277 1_555 1_555
C278 C277 1_555 1_555
H183 C278 1_555 1_555
C279 C278 1_555 1_555
H184 C279 1_555 1_555
C280 C279 1_555 1_555
H185 C280 1_555 1_555
N79 Zn11 1_555 1_555
N80 Zn11 1_555 1_555
N81 C267 1_555 1_555
N82 C274 1_555 1_555
N83 C275 1_555 1_555
N84 Zn12 1_555 1_555
O66 Zn11 1_555 1_555
O67 S14 1_555 1_555
O68 S14 1_555 1_555
O69 S14 1_555 1_555
O70 Zn12 1_555 1_555
S14 C270 1_555 1_555
C281 H186 1_555 1_555
C282 C281 1_555 1_555
H187 C282 1_555 1_555
C283 C282 1_555 1_555
H188 C283 1_555 1_555
C284 C283 1_555 1_555
H189 C284 1_555 1_555
C285 C284 1_555 1_555
C286 C285 1_555 1_555
H190 C286 1_555 1_555
C287 C288 1_555 1_555
C288 C289 1_555 1_555
C289 H191 1_555 1_555
C290 C289 1_555 1_555
C291 C290 1_555 1_555
H192 C291 1_555 1_555
C292 C291 1_555 1_555
C293 C288 1_555 1_555
H193 C293 1_555 1_555
C294 C292 1_555 1_555
C295 H194 1_555 1_555
C296 C295 1_555 1_555
C297 C296 1_555 1_555
H195 C297 1_555 1_555
C298 C297 1_555 1_555
H196 C298 1_555 1_555
C299 C298 1_555 1_555
H197 C299 1_555 1_555
C300 C299 1_555 1_555
H198 C300 1_555 1_555
N85 Zn12 1_555 1_555
N86 Zn12 1_555 1_555
N87 C287 1_555 1_555
N88 C294 1_555 1_555
N89 C295 1_555 1_555
N90 Cu4 1_555 1_555
O71 Zn12 1_555 1_555
O72 S15 1_555 1_555
O73 S15 1_555 1_555
O74 S15 1_555 1_555
O75 Cu4 1_555 1_555
S15 C290 1_555 1_555
C301 H199 1_555 1_555
C302 C301 1_555 1_555
H200 C302 1_555 1_555
C303 C302 1_555 1_555
H201 C303 1_555 1_555
C304 C303 1_555 1_555
H202 C304 1_555 1_555
C305 C304 1_555 1_555
C306 C305 1_555 1_555
H203 C306 1_555 1_555
C307 C308 1_555 1_555
C308 C309 1_555 1_555
C309 H204 1_555 1_555
C310 C309 1_555 1_555
C311 C310 1_555 1_555
H205 C311 1_555 1_555
C312 C311 1_555 1_555
C313 C308 1_555 1_555
H206 C313 1_555 1_555
C314 C312 1_555 1_555
C315 H207 1_555 1_555
C316 C315 1_555 1_555
C317 C316 1_555 1_555
H208 C317 1_555 1_555
C318 C317 1_555 1_555
H209 C318 1_555 1_555
C319 C318 1_555 1_555
H210 C319 1_555 1_555
C320 C319 1_555 1_555
H211 C320 1_555 1_555
N91 Cu4 1_555 1_555
N92 Cu4 1_555 1_555
N93 C307 1_555 1_555
H212 N93 1_555 1_555
N94 C314 1_555 1_555
N95 Zn10 1_555 1_555
N96 Zn10 1_555 1_555
O76 C307 1_555 1_555
O77 S16 1_555 1_555
O78 S16 1_555 1_555
O79 S16 1_555 1_555
O80 Zn10 1_555 1_555
S16 C310 1_555 1_555
C321 H213 1_555 1_555
C322 H214 1_555 1_555
H215 C322 1_555 1_555
H216 C322 1_555 1_555
C323 H217 1_555 1_555
H218 C323 1_555 1_555
H219 C323 1_555 1_555
N97 C321 1_555 1_555
O99 C321 1_555 1_555
C324 H220 1_555 1_555
C325 H221 1_555 1_555
H222 C325 1_555 1_555
H223 C325 1_555 1_555
C326 H224 1_555 1_555
H225 C326 1_555 1_555
H226 C326 1_555 1_555
N98 C324 1_555 1_555
O134 C324 1_555 1_555
C5 N1 1_555 1_555
C6 N2 1_555 1_555
C7 O1 1_555 1_555
C12 C13 1_555 1_555
C14 O5 1_555 1_555
C16 N6 1_555 1_555
C20 N6 1_555 1_555
N2 N3 1_555 1_555
N4 N5 1_555 1_555
C21 N7 1_555 1_555
C25 N7 1_555 1_555
C26 N8 1_555 1_555
C32 C33 1_555 1_555
C34 O10 1_555 1_555
C36 N12 1_555 1_555
C40 N12 1_555 1_555
N8 N9 1_555 1_555
N10 N11 1_555 1_555
C41 N13 1_555 1_555
C45 N13 1_555 1_555
C46 N14 1_555 1_555
C47 O11 1_555 1_555
C52 C53 1_555 1_555
C54 O15 1_555 1_555
C56 N18 1_555 1_555
C60 N18 1_555 1_555
N14 N15 1_555 1_555
N16 N17 1_555 1_555
C61 N19 1_555 1_555
C65 N19 1_555 1_555
C66 N20 1_555 1_555
C67 O16 1_555 1_555
C72 C73 1_555 1_555
C74 O20 1_555 1_555
C75 N23 1_555 1_555
C76 N24 1_555 1_555
C80 N24 1_555 1_555
N20 N21 1_555 1_555
N22 N23 1_555 1_555
C85 N25 1_555 1_555
C86 N26 1_555 1_555
C87 O21 1_555 1_555
C92 C93 1_555 1_555
C94 O25 1_555 1_555
C96 N30 1_555 1_555
C100 N30 1_555 1_555
N26 N27 1_555 1_555
N28 N29 1_555 1_555
C101 N31 1_555 1_555
C105 N31 1_555 1_555
C106 N32 1_555 1_555
C112 C113 1_555 1_555
C114 O30 1_555 1_555
C116 N36 1_555 1_555
C120 N36 1_555 1_555
N32 N33 1_555 1_555
N34 N35 1_555 1_555
C121 N37 1_555 1_555
C125 N37 1_555 1_555
C126 N38 1_555 1_555
C127 O31 1_555 1_555
C132 C133 1_555 1_555
C134 O35 1_555 1_555
C136 N42 1_555 1_555
C140 N42 1_555 1_555
N38 N39 1_555 1_555
N40 N41 1_555 1_555
C141 N43 1_555 1_555
C145 N43 1_555 1_555
C146 N44 1_555 1_555
C147 O36 1_555 1_555
C152 C153 1_555 1_555
C154 O40 1_555 1_555
C155 N47 1_555 1_555
C156 N48 1_555 1_555
C160 N48 1_555 1_555
N44 N45 1_555 1_555
N46 N47 1_555 1_555
C165 N49 1_555 1_555
C166 N50 1_555 1_555
C167 O41 1_555 1_555
C172 C173 1_555 1_555
C174 O45 1_555 1_555
C176 N54 1_555 1_555
C180 N54 1_555 1_555
N50 N51 1_555 1_555
N52 N53 1_555 1_555
C181 N55 1_555 1_555
C185 N55 1_555 1_555
C186 N56 1_555 1_555
C187 O46 1_555 1_555
C192 C193 1_555 1_555
C194 O50 1_555 1_555
C196 N60 1_555 1_555
C200 N60 1_555 1_555
N56 N57 1_555 1_555
N58 N59 1_555 1_555
C201 N61 1_555 1_555
C205 N61 1_555 1_555
C206 N62 1_555 1_555
C207 O51 1_555 1_555
C212 C213 1_555 1_555
C214 O55 1_555 1_555
C216 N66 1_555 1_555
C220 N66 1_555 1_555
N62 N63 1_555 1_555
N64 N65 1_555 1_555
C221 N67 1_555 1_555
C225 N67 1_555 1_555
C226 N68 1_555 1_555
C232 C233 1_555 1_555
C234 O60 1_555 1_555
C235 N71 1_555 1_555
C236 N72 1_555 1_555
C240 N72 1_555 1_555
N68 N69 1_555 1_555
N70 N71 1_555 1_555
C245 N73 1_555 1_555
C246 N74 1_555 1_555
C247 O61 1_555 1_555
C252 C253 1_555 1_555
C254 O65 1_555 1_555
C256 N78 1_555 1_555
C260 N78 1_555 1_555
N74 N75 1_555 1_555
N76 N77 1_555 1_555
C261 N79 1_555 1_555
C265 N79 1_555 1_555
C266 N80 1_555 1_555
C267 O66 1_555 1_555
C272 C273 1_555 1_555
C274 O70 1_555 1_555
C276 N84 1_555 1_555
C280 N84 1_555 1_555
N80 N81 1_555 1_555
N82 N83 1_555 1_555
C281 N85 1_555 1_555
C285 N85 1_555 1_555
C286 N86 1_555 1_555
C287 O71 1_555 1_555
C292 C293 1_555 1_555
C294 O75 1_555 1_555
C296 N90 1_555 1_555
C300 N90 1_555 1_555
N86 N87 1_555 1_555
N88 N89 1_555 1_555
C301 N91 1_555 1_555
C305 N91 1_555 1_555
C306 N92 1_555 1_555
C312 C313 1_555 1_555
C314 O80 1_555 1_555
C315 N95 1_555 1_555
C316 N96 1_555 1_555
C320 N96 1_555 1_555
N92 N93 1_555 1_555
N94 N95 1_555 1_555
C322 N97 1_555 1_555
C323 N97 1_555 1_555
C325 N98 1_555 1_555
C326 N98 1_555 1_555

#END
