
#######################################################################
#
#                 Cambridge Crystallographic Data Centre
#                                CCDC 
#
#######################################################################
#
# If this CIF has been generated from an entry in the Cambridge 
# Structural Database, then it will include bibliographic, chemical, 
# crystal, experimental, refinement or atomic coordinate data resulting 
# from the CCDC's data processing and validation procedures.
#
#######################################################################

data_CUPFOK
_chemical_formula_moiety         
'C80 H55 Cu4 N24 O20 S4 2-,C80 H54 Cu4 N24 O20 S4 4-,2(C80 H53 Cu1 N24 O20 S4 Zn3 3-),0.4(C3 H17 N1 O6 Zn1 2+),1.75(C3 H7 N1 O1),35.4(H2 O1),11.2(Na1 1+)'
_chemical_name_systematic        
'sodium pentaaqua-(N,N-dimethylformamide)-zinc(ii) bis(\m-N^1^,N^3^-bis((pyridin-2-yl)methylidene)-5-sulfonatobenzene-1,3-dicarbohydrazonato)-bis(\m-N-((pyridin-2-yl)methylidene)-3-(2-((pyridin-2-yl)methylidene)hydrazinecarbonyl)-5-sulfonatobenzene-1-carbohydrazonato)-copper(i)-tri-copper(ii) (\m-3,5-bis(2-((pyridin-2-yl)methylidene)hydrazinecarbonyl)benzene-1-sulfonato)-bis(\m-N^1^,N^3^-bis((pyridin-2-yl)methylidene)-5-sulfonatobenzene-1,3-dicarbohydrazonato)-(\m-N-((pyridin-2-yl)methylidene)-3-(2-((pyridin-2-yl)methylidene)hydrazinecarbonyl)-5-sulfonatobenzene-1-carbohydrazonato)-copper(i)-tri-copper(ii) bis(tris(\m-N^1^,N^3^-bis((pyridin-2-yl)methylidene)-5-sulfonatobenzene-1,3-dicarbohydrazonato)-(\m-N-((pyridin-2-yl)methylidene)-3-(2-((pyridin-2-yl)methylidene)hydrazinecarbonyl)-5-sulfonatobenzene-1-carbohydrazonato)-copper(ii)-tri-zinc(ii)) N,N-dimethylformamide solvate hydrate'
_symmetry_cell_setting           triclinic
_symmetry_space_group_name_H-M   'P -1'
_symmetry_Int_Tables_number      2
_space_group_name_Hall           '-P 1'
loop_
_symmetry_equiv_pos_site_id
_symmetry_equiv_pos_as_xyz
1 x,y,z
2 -x,-y,-z
_cell_length_a                   24.6339(15)
_cell_length_b                   26.2771(16)
_cell_length_c                   38.566(2)
_cell_angle_alpha                71.189(3)
_cell_angle_beta                 77.800(2)
_cell_angle_gamma                87.750(2)
_cell_volume                     23085.7
_cell_formula_units_Z            2
loop_
_atom_site_label
_atom_site_type_symbol
_atom_site_fract_x
_atom_site_fract_y
_atom_site_fract_z
Cu1 Cu 0.28266(15) 0.63302(13) 0.55989(9)
Cu2 Cu 0.39634(16) 0.54574(16) 0.76204(10)
Cu3 Cu 0.71074(16) 0.68540(15) 0.65130(9)
Cu4 Cu 0.59267(16) 0.81367(13) 0.44715(9)
S1 S 0.5415(3) 0.4248(4) 0.5593(2)
O1 O 0.5557(6) 0.4575(6) 0.5211(2)
O2 O 0.5094(6) 0.3772(5) 0.5653(4)
O3 O 0.5889(5) 0.4135(7) 0.5771(4)
O4 O 0.3437(7) 0.5784(7) 0.5920(4)
O5 O 0.4888(10) 0.4264(9) 0.6973(5)
N1 N 0.3283(8) 0.5930(7) 0.5250(5)
N2 N 0.3685(9) 0.5601(8) 0.5370(5)
H1 H 0.3884 0.5423 0.5232
N3 N 0.4390(9) 0.5012(9) 0.6998(6)
H2 H 0.4231 0.5284 0.6858
N4 N 0.4332(9) 0.5001(9) 0.7381(6)
N5 N 0.2429(6) 0.6573(5) 0.5096(3)
C1 C 0.2003(6) 0.6885(6) 0.5012(4)
H3 H 0.1822 0.7062 0.5183
C2 C 0.1817(6) 0.6962(6) 0.4689(5)
H4 H 0.1503 0.7175 0.4643
C3 C 0.2082(7) 0.6732(7) 0.4432(4)
H5 H 0.1963 0.6789 0.4205
C4 C 0.2532(6) 0.6412(6) 0.4511(3)
H6 H 0.2725 0.6244 0.4339
C5 C 0.2690(5) 0.6347(4) 0.4842(3)
C6 C 0.3155(6) 0.5989(6) 0.4940(5)
H7 H 0.3350 0.5811 0.4774
C7 C 0.3765(11) 0.5560(9) 0.5713(7)
C8 C 0.4192(5) 0.5204(4) 0.5879(4)
C9 C 0.4570(6) 0.4948(6) 0.5673(3)
H8 H 0.4557 0.4995 0.5420
C10 C 0.4966(5) 0.4622(5) 0.5837(4)
C11 C 0.4984(5) 0.4552(5) 0.6207(4)
H9 H 0.5255 0.4329 0.6319
C12 C 0.4607(7) 0.4808(6) 0.6413(3)
C13 C 0.4211(5) 0.5134(5) 0.6249(4)
H10 H 0.3953 0.5309 0.6390
C14 C 0.4647(13) 0.4676(12) 0.6817(8)
C15 C 0.4620(9) 0.4582(8) 0.7581(3)
H11 H 0.4822 0.4325 0.7483
C16 C 0.4565(5) 0.4596(5) 0.7969(3)
C17 C 0.4791(6) 0.4197(5) 0.8221(4)
H12 H 0.4969 0.3905 0.8153
C18 C 0.4753(7) 0.4231(6) 0.8577(4)
H13 H 0.4903 0.3961 0.8760
C19 C 0.4498(7) 0.4659(7) 0.8659(3)
H14 H 0.4475 0.4694 0.8899
C20 C 0.4274(6) 0.5039(6) 0.8395(4)
H15 H 0.4083 0.5327 0.8461
N6 N 0.4313(6) 0.5020(5) 0.8049(4)
S2 S 0.4816(5) 0.9130(3) 0.6735(3)
O6 O 0.5220(8) 0.9392(8) 0.6406(5)
O7 O 0.4871(12) 0.9272(8) 0.7056(5)
O8 O 0.4253(6) 0.9178(9) 0.6674(7)
O9 O 0.3760(9) 0.7299(8) 0.7551(6)
O10 O 0.6201(8) 0.7040(8) 0.6734(5)
N7 N 0.3783(11) 0.6226(10) 0.7516(6)
N8 N 0.4170(10) 0.6646(9) 0.7323(6)
H16 H 0.4455 0.6575 0.7166
N9 N 0.6586(10) 0.7884(9) 0.6575(6)
N10 N 0.7076(10) 0.7667(9) 0.6456(6)
N11 N 0.3136(6) 0.5353(7) 0.7816(4)
C21 C 0.2801(8) 0.4916(5) 0.7976(5)
H17 H 0.2954 0.4574 0.7991
C22 C 0.2246(7) 0.4941(7) 0.8121(4)
H18 H 0.2018 0.4623 0.8224
C23 C 0.2022(5) 0.5424(8) 0.8118(5)
H19 H 0.1640 0.5446 0.8223
C24 C 0.2364(6) 0.5884(6) 0.7958(4)
H20 H 0.2220 0.6228 0.7949
C25 C 0.2912(6) 0.5829(6) 0.7813(3)
C26 C 0.3282(9) 0.6317(7) 0.7627(5)
H21 H 0.3150 0.6671 0.7594
C27 C 0.4163(14) 0.7143(14) 0.7345(6)
C28 C 0.4642(7) 0.7512(6) 0.7132(3)
C29 C 0.4534(6) 0.8057(7) 0.7045(4)
H22 H 0.4170 0.8170 0.7121
C30 C 0.4960(8) 0.8438(4) 0.6847(4)
C31 C 0.5493(7) 0.8273(6) 0.6736(4)
H23 H 0.5783 0.8533 0.6601
C32 C 0.5600(6) 0.7728(7) 0.6823(4)
C33 C 0.5175(8) 0.7348(4) 0.7021(4)
H24 H 0.5249 0.6975 0.7081
C34 C 0.6141(12) 0.7501(12) 0.6711(6)
C35 C 0.7540(7) 0.7939(8) 0.6315(5)
H25 H 0.7558 0.8311 0.6287
C36 C 0.8046(6) 0.7657(5) 0.6199(3)
C37 C 0.8542(7) 0.7939(5) 0.6046(4)
H26 H 0.8564 0.8315 0.6004
C38 C 0.9013(6) 0.7662(8) 0.5953(5)
H27 H 0.9364 0.7845 0.5845
C39 C 0.8962(6) 0.7123(8) 0.6022(4)
H28 H 0.9280 0.6924 0.5966
C40 C 0.8450(8) 0.6868(5) 0.6171(4)
H29 H 0.8419 0.6494 0.6207
N12 N 0.7993(6) 0.7124(5) 0.6268(4)
S3 S 0.7353(4) 0.5303(3) 0.5006(3)
O11 O 0.7348(8) 0.4859(5) 0.5337(3)
O12 O 0.7901(5) 0.5462(7) 0.4780(5)
O13 O 0.6962(7) 0.5234(7) 0.4791(5)
O14 O 0.6984(7) 0.6865(7) 0.5995(4)
O15 O 0.6238(8) 0.7572(7) 0.4869(5)
N13 N 0.7151(9) 0.6090(9) 0.6551(6)
N14 N 0.7140(9) 0.5956(9) 0.6233(6)
N15 N 0.6371(9) 0.7113(8) 0.4437(6)
N16 N 0.6120(9) 0.7560(9) 0.4239(6)
N17 N 0.7178(7) 0.6501(6) 0.7070(4)
C41 C 0.7165(8) 0.6711(6) 0.7344(5)
H30 H 0.7119 0.7088 0.7291
C42 C 0.7214(8) 0.6406(8) 0.7698(5)
H31 H 0.7218 0.6573 0.7882
C43 C 0.7256(8) 0.5864(8) 0.7785(4)
H32 H 0.7282 0.5647 0.8031
C44 C 0.7262(8) 0.5634(6) 0.7507(4)
H33 H 0.7294 0.5256 0.7558
C45 C 0.7220(5) 0.5964(6) 0.7157(4)
C46 C 0.7249(9) 0.5731(9) 0.6850(5)
H34 H 0.7328 0.5367 0.6871
C47 C 0.7040(9) 0.6394(11) 0.5949(7)
C48 C 0.6986(5) 0.6349(6) 0.5593(3)
C49 C 0.7174(5) 0.5899(5) 0.5493(4)
H35 H 0.7339 0.5618 0.5658
C50 C 0.7120(5) 0.5861(4) 0.5150(4)
C51 C 0.6878(6) 0.6273(6) 0.4908(3)
H36 H 0.6841 0.6247 0.4674
C52 C 0.6691(5) 0.6723(5) 0.5008(4)
C53 C 0.6745(5) 0.6760(4) 0.5350(4)
H37 H 0.6617 0.7068 0.5418
C54 C 0.6429(10) 0.7164(11) 0.4766(7)
C55 C 0.6029(8) 0.7636(7) 0.3906(6)
H38 H 0.6134 0.7389 0.3771
C56 C 0.5745(5) 0.8144(5) 0.3755(4)
C57 C 0.5581(8) 0.8249(7) 0.3422(4)
H39 H 0.5659 0.8008 0.3281
C58 C 0.5297(8) 0.8717(8) 0.3295(4)
H40 H 0.5179 0.8804 0.3064
C59 C 0.5190(7) 0.9047(6) 0.3508(5)
H41 H 0.4989 0.9365 0.3429
C60 C 0.5375(7) 0.8921(6) 0.3836(5)
H42 H 0.5310 0.9164 0.3976
N18 N 0.5640(6) 0.8470(6) 0.3967(4)
S4 S 0.3235(4) 0.9332(3) 0.5584(2)
O16 O 0.2856(6) 0.9123(6) 0.5934(3)
O17 O 0.2969(7) 0.9613(6) 0.5281(4)
O18 O 0.3695(5) 0.9640(6) 0.5604(5)
O19 O 0.5026(7) 0.8006(7) 0.4790(4)
O20 O 0.3338(7) 0.6998(7) 0.5417(5)
N19 N 0.5757(10) 0.8713(8) 0.4729(6)
N20 N 0.5242(9) 0.8740(8) 0.4934(5)
N21 N 0.2637(10) 0.7269(9) 0.5818(6)
N22 N 0.2428(9) 0.6769(9) 0.5899(6)
N23 N 0.6741(6) 0.8629(5) 0.4269(4)
C61 C 0.7229(7) 0.8585(6) 0.4053(4)
H43 H 0.7246 0.8369 0.3896
C62 C 0.7707(6) 0.8839(7) 0.4049(4)
H44 H 0.8049 0.8785 0.3899
C63 C 0.7690(5) 0.9168(7) 0.4260(5)
H45 H 0.8017 0.9354 0.4255
C64 C 0.7185(6) 0.9229(5) 0.4483(4)
H46 H 0.7159 0.9454 0.4635
C65 C 0.6726(5) 0.8956(4) 0.4477(3)
C66 C 0.6185(6) 0.8995(7) 0.4725(5)
H47 H 0.6152 0.9221 0.4877
C67 C 0.4885(11) 0.8368(10) 0.4945(6)
C68 C 0.4291(5) 0.8357(6) 0.5166(3)
C69 C 0.4070(7) 0.8795(5) 0.5268(4)
H48 H 0.4290 0.9115 0.5200
C70 C 0.3527(7) 0.8765(5) 0.5471(4)
C71 C 0.3205(5) 0.8297(7) 0.5571(4)
H49 H 0.2834 0.8277 0.5709
C72 C 0.3425(7) 0.7859(5) 0.5468(4)
C73 C 0.3968(7) 0.7889(5) 0.5265(4)
H50 H 0.4119 0.7589 0.5195
C74 C 0.3115(12) 0.7331(11) 0.5563(7)
C75 C 0.1971(9) 0.6579(5) 0.6124(5)
H51 H 0.1729 0.6779 0.6254
C76 C 0.1857(5) 0.6011(5) 0.6161(3)
C77 C 0.1407(6) 0.5735(6) 0.6420(4)
H52 H 0.1176 0.5899 0.6582
C78 C 0.1297(6) 0.5212(6) 0.6438(4)
H53 H 0.0990 0.5008 0.6615
C79 C 0.1637(7) 0.4997(5) 0.6198(5)
H54 H 0.1564 0.4643 0.6202
C80 C 0.2085(7) 0.5293(6) 0.5950(4)
H55 H 0.2327 0.5132 0.5792
N24 N 0.2195(5) 0.5800(6) 0.5922(3)
Zn1 Zn 0.28258(16) 0.36832(15) 0.73264(10)
Zn2 Zn 0.21460(19) 0.40061(16) 0.94967(11)
Cu5 Cu 0.48444(17) 0.65984(17) 0.85046(11)
Zn3 Zn 0.48240(15) 0.65086(13) 0.63358(9)
S5 S 0.4857(4) 0.2450(5) 0.8766(3)
O21 O 0.4825(9) 0.2266(10) 0.9160(3)
O22 O 0.5326(6) 0.2809(7) 0.8559(6)
O23 O 0.4812(9) 0.2018(7) 0.8616(6)
O24 O 0.3041(9) 0.3633(7) 0.7853(5)
O25 O 0.2656(8) 0.3745(7) 0.9057(5)
N25 N 0.3620(10) 0.3412(9) 0.7316(7)
N26 N 0.3838(10) 0.3253(9) 0.7615(7)
N27 N 0.3216(11) 0.3444(10) 0.9483(7)
N28 N 0.2830(11) 0.3654(10) 0.9692(7)
N29 N 0.3081(6) 0.3758(6) 0.6732(4)
C81 C 0.2830(6) 0.3960(6) 0.6443(5)
H56 H 0.2457 0.4067 0.6491
C82 C 0.3092(8) 0.4019(6) 0.6081(4)
H57 H 0.2895 0.4150 0.5884
C83 C 0.3634(8) 0.3889(7) 0.6003(3)
H58 H 0.3822 0.3936 0.5752
C84 C 0.3907(6) 0.3686(7) 0.6297(4)
H59 H 0.4284 0.3589 0.6253
C85 C 0.3617(6) 0.3630(5) 0.6653(4)
C86 C 0.3892(9) 0.3393(8) 0.6975(5)
H60 H 0.4245 0.3235 0.6944
C87 C 0.3491(14) 0.3413(10) 0.7891(9)
C88 C 0.3676(7) 0.3260(6) 0.8251(4)
C89 C 0.4133(6) 0.2952(6) 0.8331(5)
H61 H 0.4355 0.2820 0.8147
C90 C 0.4267(5) 0.2838(5) 0.8680(6)
C91 C 0.3943(7) 0.3032(6) 0.8949(4)
H62 H 0.4034 0.2954 0.9188
C92 C 0.3486(6) 0.3339(6) 0.8869(5)
C93 C 0.3352(5) 0.3453(5) 0.8520(5)
H63 H 0.3039 0.3663 0.8465
C94 C 0.3106(13) 0.3530(11) 0.9140(8)
C95 C 0.2845(8) 0.3626(9) 1.0038(7)
H64 H 0.3153 0.3484 1.0147
C96 C 0.2356(7) 0.3828(6) 1.0250(4)
C97 C 0.2341(9) 0.3795(8) 1.0614(4)
H65 H 0.2631 0.3631 1.0736
C98 C 0.1890(10) 0.4005(9) 1.0801(4)
H66 H 0.1864 0.3987 1.1054
C99 C 0.1487(8) 0.4238(8) 1.0615(6)
H67 H 0.1179 0.4393 1.0735
C100 C 0.1525(8) 0.4251(7) 1.0252(6)
H68 H 0.1232 0.4401 1.0129
N30 N 0.1959(8) 0.4059(7) 1.0064(4)
S6 S 0.1558(3) 0.7158(3) 0.8605(2)
O26 O 0.1790(6) 0.7514(6) 0.8241(3)
O27 O 0.1525(7) 0.7393(6) 0.8897(4)
O28 O 0.1038(5) 0.6902(6) 0.8622(4)
O29 O 0.2469(8) 0.4815(7) 0.9240(5)
O30 O 0.3942(8) 0.6176(7) 0.8680(5)
N31 N 0.1476(10) 0.4438(9) 0.9302(6)
N32 N 0.1577(10) 0.4996(9) 0.9134(6)
N33 N 0.3776(10) 0.7036(9) 0.8369(6)
H69 H 0.3529 0.7280 0.8304
N34 N 0.4335(10) 0.7168(10) 0.8278(6)
N35 N 0.1484(6) 0.3384(6) 0.9625(4)
C101 C 0.1485(7) 0.2852(6) 0.9786(5)
H70 H 0.1813 0.2694 0.9860
C102 C 0.1030(9) 0.2524(5) 0.9849(4)
H71 H 0.1052 0.2145 0.9955
C103 C 0.0548(7) 0.2742(7) 0.9760(5)
H72 H 0.0228 0.2520 0.9807
C104 C 0.0534(6) 0.3296(7) 0.9598(5)
H73 H 0.0204 0.3462 0.9531
C105 C 0.1006(6) 0.3598(5) 0.9538(3)
C106 C 0.1009(10) 0.4189(5) 0.9351(5)
H74 H 0.0693 0.4370 0.9273
C107 C 0.2094(14) 0.5141(12) 0.9115(6)
C108 C 0.2264(7) 0.5706(4) 0.8937(3)
C109 C 0.1869(5) 0.6098(7) 0.8870(4)
H75 H 0.1485 0.5998 0.8939
C110 C 0.2036(6) 0.6636(6) 0.8700(4)
C111 C 0.2598(7) 0.6783(5) 0.8598(4)
H76 H 0.2712 0.7150 0.8482
C112 C 0.2993(5) 0.6390(7) 0.8666(4)
C113 C 0.2826(6) 0.5852(6) 0.8835(4)
H77 H 0.3096 0.5584 0.8882
C114 C 0.3623(13) 0.6516(12) 0.8563(7)
C115 C 0.4502(6) 0.7655(10) 0.8064(6)
H78 H 0.4258 0.7938 0.7987
C116 C 0.5118(6) 0.7714(6) 0.7957(4)
C117 C 0.5360(8) 0.8179(6) 0.7695(4)
H79 H 0.5140 0.8457 0.7574
C118 C 0.5937(8) 0.8232(7) 0.7610(4)
H80 H 0.6119 0.8548 0.7429
C119 C 0.6233(6) 0.7824(9) 0.7792(5)
H81 H 0.6627 0.7856 0.7743
C120 C 0.5963(7) 0.7366(7) 0.8047(5)
H82 H 0.6178 0.7079 0.8164
N36 N 0.5410(7) 0.7309(5) 0.8138(4)
S7 S 0.6415(4) 0.4335(3) 0.7748(3)
O31 O 0.6913(6) 0.4454(7) 0.7467(5)
O32 O 0.6049(7) 0.3954(7) 0.7709(5)
O33 O 0.6514(9) 0.4194(8) 0.8124(3)
O34 O 0.5035(8) 0.6230(8) 0.8100(5)
O35 O 0.5048(9) 0.6220(8) 0.6879(5)
N37 N 0.5319(10) 0.6042(9) 0.8712(6)
N38 N 0.5559(10) 0.5743(9) 0.8499(7)
N39 N 0.5671(10) 0.5715(9) 0.6621(7)
N40 N 0.5444(9) 0.5959(8) 0.6331(6)
N41 N 0.4772(7) 0.6698(7) 0.9008(4)
C121 C 0.4473(8) 0.7034(7) 0.9162(6)
H83 H 0.4246 0.7281 0.9021
C122 C 0.4481(8) 0.7037(8) 0.9516(6)
H84 H 0.4274 0.7293 0.9612
C123 C 0.4785(9) 0.6672(9) 0.9729(4)
H85 H 0.4787 0.6665 0.9977
C124 C 0.5093(8) 0.6312(8) 0.9577(4)
H86 H 0.5312 0.6054 0.9718
C125 C 0.5072(6) 0.6338(6) 0.9220(4)
C126 C 0.5416(8) 0.5972(8) 0.9045(6)
H87 H 0.5668 0.5723 0.9158
C127 C 0.5407(10) 0.5893(11) 0.8178(8)
C128 C 0.5581(5) 0.5637(6) 0.7887(4)
C129 C 0.5887(6) 0.5173(6) 0.7953(4)
H88 H 0.5986 0.5016 0.8189
C130 C 0.6050(5) 0.4938(4) 0.7673(5)
C131 C 0.5906(6) 0.5167(6) 0.7327(4)
H89 H 0.6017 0.5007 0.7136
C132 C 0.5600(7) 0.5632(7) 0.7261(4)
C133 C 0.5437(5) 0.5867(4) 0.7541(5)
H90 H 0.5228 0.6184 0.7495
C134 C 0.5432(13) 0.5876(13) 0.6902(9)
C135 C 0.5621(8) 0.5830(8) 0.6012(5)
H91 H 0.5916 0.5592 0.5983
C136 C 0.5312(6) 0.6094(5) 0.5713(4)
C137 C 0.5463(6) 0.6011(6) 0.5373(4)
H92 H 0.5771 0.5798 0.5323
C138 C 0.5153(8) 0.6246(7) 0.5103(3)
H93 H 0.5247 0.6199 0.4864
C139 C 0.4713(7) 0.6544(6) 0.5189(4)
H94 H 0.4490 0.6701 0.5010
C140 C 0.4591(6) 0.6618(6) 0.5533(5)
H95 H 0.4292 0.6840 0.5584
N42 N 0.4876(6) 0.6389(6) 0.5799(4)
S8 S 0.1481(3) 0.6598(4) 0.7173(3)
O36 O 0.1254(7) 0.6356(7) 0.7562(3)
O37 O 0.1119(7) 0.6549(8) 0.6936(5)
O38 O 0.1687(8) 0.7144(4) 0.7080(5)
O39 O 0.4034(8) 0.6087(7) 0.6612(5)
O40 O 0.2921(8) 0.4545(7) 0.7150(5)
N43 N 0.4211(9) 0.7067(9) 0.6350(5)
N44 N 0.3668(11) 0.6918(10) 0.6517(6)
N45 N 0.1986(9) 0.4479(9) 0.7365(6)
N46 N 0.2058(9) 0.3941(9) 0.7437(6)
N47 N 0.5275(6) 0.7278(5) 0.6098(3)
C141 C 0.5819(6) 0.7380(6) 0.5965(4)
H96 H 0.6059 0.7086 0.5975
C142 C 0.6046(5) 0.7893(7) 0.5814(4)
H97 H 0.6437 0.7949 0.5732
C143 C 0.5709(7) 0.8321(6) 0.5782(4)
H98 H 0.5860 0.8678 0.5673
C144 C 0.5140(7) 0.8225(5) 0.5913(4)
H99 H 0.4893 0.8515 0.5897
C145 C 0.4943(5) 0.7703(5) 0.6066(3)
C146 C 0.4339(5) 0.7589(9) 0.6222(5)
H100 H 0.4074 0.7860 0.6229
C147 C 0.3644(12) 0.6423(12) 0.6604(6)
C148 C 0.3050(5) 0.6179(7) 0.6809(3)
C149 C 0.2595(7) 0.6487(5) 0.6881(4)
H101 H 0.2636 0.6868 0.6803
C150 C 0.2079(5) 0.6238(7) 0.7066(4)
C151 C 0.2019(5) 0.5681(7) 0.7179(4)
H102 H 0.1666 0.5511 0.7305
C152 C 0.2474(7) 0.5373(5) 0.7107(4)
C153 C 0.2990(5) 0.5622(6) 0.6922(4)
H103 H 0.3301 0.5412 0.6873
C154 C 0.2506(14) 0.4757(12) 0.7205(7)
C155 C 0.1638(9) 0.3583(6) 0.7598(5)
H104 H 0.1263 0.3680 0.7659
C156 C 0.1813(6) 0.3017(5) 0.7674(3)
C157 C 0.1420(6) 0.2608(7) 0.7828(4)
H105 H 0.1038 0.2681 0.7896
C158 C 0.1592(8) 0.2083(6) 0.7883(5)
H106 H 0.1331 0.1789 0.7991
C159 C 0.2142(9) 0.1999(5) 0.7780(5)
H107 H 0.2268 0.1644 0.7809
C160 C 0.2515(6) 0.2428(7) 0.7632(5)
H108 H 0.2899 0.2360 0.7572
N48 N 0.2358(6) 0.2936(6) 0.7571(4)
Cu6 Cu 0.31322(18) 0.83940(19) 0.32951(12)
Cu7 Cu 0.15435(18) 1.00245(19) 0.15395(12)
Cu8 Cu -0.15322(18) 0.98309(16) 0.28493(10)
Cu9 Cu -0.01504(19) 0.78562(18) 0.46665(11)
S9 S 0.1166(5) 0.6346(4) 0.2909(4)
O41 O 0.0930(11) 0.6295(9) 0.2614(5)
O42 O 0.0763(9) 0.6291(9) 0.3249(5)
O43 O 0.1639(7) 0.6009(8) 0.2970(7)
O44 O 0.2591(9) 0.8316(9) 0.2926(5)
O45 O 0.1153(10) 0.8134(9) 0.1784(7)
N49 N 0.3043(11) 0.7587(10) 0.3419(7)
N50 N 0.2707(12) 0.7411(11) 0.3245(7)
N51 N 0.1397(11) 0.8849(12) 0.1942(7)
H109 H 0.1567 0.8942 0.2092
N52 N 0.1232(11) 0.9265(11) 0.1654(8)
N53 N 0.3634(7) 0.8011(6) 0.3738(4)
C161 C 0.3929(8) 0.8235(7) 0.3908(5)
H110 H 0.3925 0.8614 0.3854
C162 C 0.4237(8) 0.7939(9) 0.4156(5)
H111 H 0.4454 0.8114 0.4263
C163 C 0.4232(8) 0.7394(9) 0.4249(5)
H112 H 0.4437 0.7184 0.4425
C164 C 0.3921(8) 0.7151(6) 0.4081(5)
H113 H 0.3911 0.6771 0.4138
C165 C 0.3630(6) 0.7472(7) 0.3831(4)
C166 C 0.3313(9) 0.7224(10) 0.3636(6)
H114 H 0.3306 0.6852 0.3664
C167 C 0.2498(12) 0.7810(15) 0.3000(8)
C168 C 0.2057(6) 0.7670(8) 0.2798(5)
C169 C 0.1837(8) 0.7148(7) 0.2926(4)
H115 H 0.1954 0.6885 0.3129
C170 C 0.1446(7) 0.7009(5) 0.2757(5)
C171 C 0.1275(7) 0.7393(9) 0.2460(5)
H116 H 0.1007 0.7298 0.2345
C172 C 0.1495(8) 0.7916(7) 0.2332(4)
C173 C 0.1886(8) 0.8054(5) 0.2501(5)
H117 H 0.2036 0.8412 0.2414
C174 C 0.1318(14) 0.8323(16) 0.2008(10)
C175 C 0.0972(9) 0.9232(7) 0.1429(5)
H118 H 0.0835 0.8895 0.1437
C176 C 0.0872(5) 0.9739(5) 0.1140(4)
C177 C 0.0557(7) 0.9722(6) 0.0890(5)
H119 H 0.0415 0.9389 0.0893
C178 C 0.0452(7) 1.0203(8) 0.0632(4)
H120 H 0.0237 1.0207 0.0454
C179 C 0.0661(7) 1.0669(6) 0.0641(4)
H121 H 0.0587 1.1004 0.0471
C180 C 0.0980(7) 1.0655(6) 0.0895(5)
H122 H 0.1137 1.0983 0.0890
N54 N 0.1080(6) 1.0199(6) 0.1150(4)
S10 S 0.0455(5) 1.1731(5) 0.3364(3)
O46 O 0.0031(9) 1.1545(10) 0.3693(5)
O47 O 0.0411(11) 1.2287(5) 0.3154(5)
O48 O 0.1008(7) 1.1603(10) 0.3432(7)
O49 O 0.1577(11) 1.1359(9) 0.2130(7)
O50 O -0.0700(9) 1.0198(8) 0.2741(5)
N55 N 0.1638(12) 1.0521(10) 0.1801(8)
N56 N 0.1299(11) 1.0591(10) 0.2090(7)
H123 H 0.1049 1.0326 0.2192
N57 N -0.1163(13) 1.0596(10) 0.3180(7)
N58 N -0.1597(12) 1.0323(10) 0.3195(7)
N59 N 0.2302(7) 1.0312(6) 0.1238(5)
C181 C 0.2629(9) 1.0224(7) 0.0940(5)
H124 H 0.2505 0.9974 0.0840
C182 C 0.3138(8) 1.0481(8) 0.0774(5)
H125 H 0.3365 1.0396 0.0569
C183 C 0.3314(6) 1.0857(8) 0.0902(5)
H126 H 0.3662 1.1043 0.0785
C184 C 0.2977(7) 1.0962(6) 0.1207(5)
H127 H 0.3089 1.1220 0.1305
C185 C 0.2479(6) 1.0684(5) 0.1363(4)
C186 C 0.2120(8) 1.0773(8) 0.1700(5)
H128 H 0.2231 1.0991 0.1828
C187 C 0.1216(14) 1.0945(11) 0.2278(8)
C188 C 0.0777(8) 1.1006(6) 0.2566(4)
C189 C 0.0830(7) 1.1310(6) 0.2794(5)
H129 H 0.1173 1.1491 0.2761
C190 C 0.0381(10) 1.1350(6) 0.3070(4)
C191 C -0.0121(8) 1.1085(7) 0.3118(4)
H130 H -0.0428 1.1112 0.3307
C192 C -0.0174(7) 1.0781(6) 0.2891(5)
C193 C 0.0275(10) 1.0742(5) 0.2615(4)
H131 H 0.0239 1.0534 0.2459
C194 C -0.0752(15) 1.0504(12) 0.2955(9)
C195 C -0.2076(9) 1.0342(8) 0.3401(6)
H132 H -0.2127 1.0545 0.3568
C196 C -0.2548(6) 1.0035(5) 0.3370(4)
C197 C -0.3070(7) 1.0073(7) 0.3570(4)
H133 H -0.3131 1.0280 0.3735
C198 C -0.3508(6) 0.9799(8) 0.3525(5)
H134 H -0.3875 0.9814 0.3660
C199 C -0.3401(7) 0.9511(7) 0.3283(5)
H135 H -0.3695 0.9328 0.3244
C200 C -0.2866(8) 0.9485(6) 0.3097(4)
H136 H -0.2796 0.9269 0.2937
N60 N -0.2440(6) 0.9751(6) 0.3130(4)
S11 S -0.1106(4) 0.6698(3) 0.3185(2)
O51 O -0.0963(7) 0.6236(5) 0.3462(4)
O52 O -0.0730(5) 0.6816(6) 0.2827(3)
O53 O -0.1683(4) 0.6688(6) 0.3159(4)
O54 O -0.1290(8) 0.9114(7) 0.3195(5)
O55 O -0.0445(8) 0.8022(8) 0.4178(5)
N61 N -0.1583(9) 0.9304(9) 0.2598(6)
N62 N -0.1485(10) 0.8772(9) 0.2757(6)
N63 N -0.0371(11) 0.7105(10) 0.4304(7)
N64 N -0.0149(11) 0.7173(10) 0.4590(7)
N65 N -0.1674(6) 1.0366(6) 0.2340(4)
C201 C -0.1705(7) 1.0900(6) 0.2211(5)
H137 H -0.1624 1.1105 0.2358
C202 C -0.1851(7) 1.1165(5) 0.1875(5)
H138 H -0.1884 1.1545 0.1798
C203 C -0.1947(7) 1.0883(7) 0.1653(4)
H139 H -0.2039 1.1063 0.1418
C204 C -0.1907(7) 1.0327(6) 0.1778(4)
H140 H -0.1975 1.0118 0.1630
C205 C -0.1769(5) 1.0089(5) 0.2118(3)
C206 C -0.1747(9) 0.9493(5) 0.2266(6)
H141 H -0.1840 0.9265 0.2138
C207 C -0.1338(9) 0.8730(12) 0.3078(7)
C208 C -0.1159(5) 0.8190(5) 0.3272(4)
C209 C -0.1211(5) 0.7754(7) 0.3150(3)
H142 H -0.1365 0.7799 0.2937
C210 C -0.1036(6) 0.7251(5) 0.3341(4)
C211 C -0.0810(6) 0.7186(5) 0.3654(4)
H143 H -0.0691 0.6842 0.3784
C212 C -0.0759(6) 0.7622(7) 0.3775(3)
C213 C -0.0933(6) 0.8124(5) 0.3584(4)
H144 H -0.0898 0.8423 0.3667
C214 C -0.0522(11) 0.7618(13) 0.4108(8)
C215 C 0.0032(10) 0.6763(11) 0.4805(5)
H145 H 0.0051 0.6418 0.4774
C216 C 0.0213(6) 0.6886(7) 0.5114(4)
C217 C 0.0408(9) 0.6483(6) 0.5381(5)
H146 H 0.0415 0.6124 0.5376
C218 C 0.0595(9) 0.6613(9) 0.5658(5)
H147 H 0.0731 0.6344 0.5849
C219 C 0.0581(8) 0.7134(10) 0.5652(5)
H148 H 0.0715 0.7233 0.5835
C220 C 0.0372(8) 0.7515(7) 0.5379(6)
H149 H 0.0350 0.7874 0.5385
N66 N 0.0198(7) 0.7402(6) 0.5106(5)
S12 S 0.1806(4) 1.0440(3) 0.4390(3)
O56 O 0.2114(7) 1.0824(6) 0.4062(3)
O57 O 0.2098(7) 1.0268(6) 0.4692(4)
O58 O 0.1247(5) 1.0604(7) 0.4506(5)
O59 O 0.0688(9) 0.8270(9) 0.4428(5)
O60 O 0.2495(8) 0.8566(8) 0.3680(5)
N67 N -0.0231(12) 0.8598(11) 0.4745(7)
N68 N 0.0200(12) 0.8961(11) 0.4616(7)
N69 N 0.2983(12) 0.9380(11) 0.3477(7)
N70 N 0.3316(12) 0.9134(11) 0.3246(8)
N71 N -0.1047(7) 0.7835(8) 0.4991(4)
C221 C -0.1455(10) 0.7461(7) 0.5109(5)
H150 H -0.1365 0.7105 0.5111
C222 C -0.1999(9) 0.7569(9) 0.5230(5)
H151 H -0.2280 0.7295 0.5302
C223 C -0.2135(6) 0.8069(11) 0.5245(5)
H152 H -0.2508 0.8146 0.5334
C224 C -0.1716(8) 0.8463(8) 0.5130(5)
H153 H -0.1797 0.8817 0.5135
C225 C -0.1184(7) 0.8329(7) 0.5007(4)
C226 C -0.0731(10) 0.8749(9) 0.4867(6)
H154 H -0.0799 0.9108 0.4866
C227 C 0.0660(14) 0.8724(13) 0.4486(7)
C228 C 0.1196(7) 0.9076(6) 0.4330(4)
C229 C 0.1246(7) 0.9544(7) 0.4417(4)
H155 H 0.0946 0.9652 0.4574
C230 C 0.1736(8) 0.9855(4) 0.4272(4)
C231 C 0.2175(6) 0.9697(6) 0.4041(4)
H156 H 0.2510 0.9910 0.3942
C232 C 0.2125(7) 0.9229(7) 0.3954(4)
C233 C 0.1635(9) 0.8919(4) 0.4099(4)
H157 H 0.1601 0.8599 0.4040
C234 C 0.2535(13) 0.9039(13) 0.3719(8)
C235 C 0.3766(11) 0.9368(10) 0.3040(6)
H158 H 0.3915 0.9692 0.3046
C236 C 0.4029(7) 0.9064(7) 0.2786(4)
C237 C 0.4496(8) 0.9275(8) 0.2518(5)
H159 H 0.4645 0.9619 0.2486
C238 C 0.4746(8) 0.8973(11) 0.2295(5)
H160 H 0.5069 0.9108 0.2105
C239 C 0.4519(10) 0.8482(10) 0.2353(6)
H161 H 0.4688 0.8265 0.2207
C240 C 0.4045(10) 0.8299(8) 0.2622(6)
H162 H 0.3883 0.7962 0.2652
N72 N 0.3802(7) 0.8578(8) 0.2845(5)
Zn4 Zn 0.30450(16) 0.85098(16) 0.10977(11)
Cu10 Cu 0.22892(15) 1.15038(15) -0.06227(10)
Zn5 Zn 0.03080(17) 1.20746(14) 0.13221(10)
Zn6 Zn 0.08761(16) 0.91584(14) 0.28734(10)
S13 S 0.0256(3) 0.8783(3) 0.02172(19)
O61 O 0.0137(6) 0.8348(4) 0.0559(2)
O62 O 0.0364(6) 0.8615(5) -0.0110(3)
O63 O -0.0151(5) 0.9200(4) 0.0198(3)
O64 O 0.2537(8) 0.9058(8) 0.0697(5)
O65 O 0.2166(8) 1.0599(7) -0.0274(5)
N73 N 0.2314(10) 0.8094(10) 0.1184(7)
N74 N 0.1948(10) 0.8309(10) 0.0953(7)
N75 N 0.1339(9) 1.0748(9) -0.0403(5)
H163 H 0.0998 1.0634 -0.0381
N76 N 0.1500(9) 1.1261(9) -0.0616(6)
N77 N 0.3111(7) 0.7826(6) 0.1582(4)
C241 C 0.3477(7) 0.7694(8) 0.1806(6)
H164 H 0.3801 0.7916 0.1743
C242 C 0.3401(8) 0.7251(9) 0.2122(5)
H165 H 0.3678 0.7162 0.2268
C243 C 0.2929(9) 0.6940(7) 0.2226(4)
H166 H 0.2868 0.6637 0.2447
C244 C 0.2538(7) 0.7073(6) 0.2001(5)
H167 H 0.2205 0.6863 0.2065
C245 C 0.2645(6) 0.7516(6) 0.1686(4)
C246 C 0.2244(9) 0.7656(10) 0.1433(6)
H168 H 0.1947 0.7416 0.1462
C247 C 0.2138(12) 0.8789(12) 0.0704(7)
C248 C 0.1707(5) 0.9053(6) 0.0455(4)
C249 C 0.1220(6) 0.8814(5) 0.0443(3)
H169 H 0.1119 0.8455 0.0598
C250 C 0.0882(4) 0.9102(6) 0.0206(4)
C251 C 0.1029(5) 0.9628(6) -0.0020(4)
H170 H 0.0798 0.9825 -0.0182
C252 C 0.1516(6) 0.9867(5) -0.0008(4)
C253 C 0.1854(4) 0.9580(7) 0.0229(4)
H171 H 0.2187 0.9743 0.0238
C254 C 0.1681(12) 1.0420(11) -0.0232(7)
C255 C 0.1160(9) 1.1577(6) -0.0790(5)
H172 H 0.0796 1.1467 -0.0787
C256 C 0.1392(5) 1.2132(5) -0.0995(3)
C257 C 0.1064(5) 1.2516(6) -0.1175(4)
H173 H 0.0695 1.2428 -0.1179
C258 C 0.1283(8) 1.3036(6) -0.1352(5)
H174 H 0.1069 1.3312 -0.1481
C259 C 0.1812(8) 1.3143(5) -0.1337(4)
H175 H 0.1968 1.3498 -0.1451
C260 C 0.2121(6) 1.2736(7) -0.1157(5)
H176 H 0.2494 1.2815 -0.1158
N78 N 0.1916(6) 1.2235(6) -0.0979(4)
S14 S 0.3664(3) 1.2575(4) 0.0728(2)
O66 O 0.3692(7) 1.2262(6) 0.1101(3)
O67 O 0.3581(7) 1.3136(4) 0.0681(4)
O68 O 0.4122(5) 1.2487(7) 0.0450(4)
O69 O 0.2162(8) 1.1718(7) -0.0159(5)
O70 O 0.1098(8) 1.1971(7) 0.0948(5)
N79 N 0.3058(10) 1.1665(10) -0.0593(7)
N80 N 0.3100(10) 1.1848(9) -0.0305(6)
N81 N 0.1483(10) 1.2275(9) 0.1337(6)
N82 N 0.0937(11) 1.2254(9) 0.1539(7)
N83 N 0.2736(6) 1.1317(6) -0.1087(4)
C261 C 0.2578(7) 1.1127(7) -0.1333(5)
H177 H 0.2194 1.1058 -0.1308
C262 C 0.2950(9) 1.1026(7) -0.1621(5)
H178 H 0.2823 1.0876 -0.1784
C263 C 0.3500(9) 1.1141(8) -0.1672(5)
H179 H 0.3761 1.1081 -0.1874
C264 C 0.3674(6) 1.1349(8) -0.1423(5)
H180 H 0.4055 1.1431 -0.1450
C265 C 0.3280(7) 1.1431(5) -0.1139(4)
C266 C 0.3457(10) 1.1632(9) -0.0859(5)
H181 H 0.3832 1.1727 -0.0876
C267 C 0.2619(13) 1.1814(9) -0.0068(8)
C268 C 0.2617(7) 1.1992(5) 0.0250(4)
C269 C 0.3095(5) 1.2172(5) 0.0318(4)
H182 H 0.3442 1.2183 0.0151
C270 C 0.3065(5) 1.2337(5) 0.0630(5)
C271 C 0.2557(7) 1.2322(6) 0.0873(4)
H183 H 0.2537 1.2434 0.1086
C272 C 0.2079(5) 1.2141(6) 0.0806(4)
C273 C 0.2109(5) 1.1976(5) 0.0494(5)
H184 H 0.1783 1.1853 0.0448
C274 C 0.1483(13) 1.2110(10) 0.1040(8)
C275 C 0.0821(6) 1.2371(8) 0.1850(6)
H185 H 0.1093 1.2496 0.1947
C276 C 0.0224(6) 1.2291(5) 0.2039(4)
C277 C 0.0053(7) 1.2385(6) 0.2374(4)
H186 H 0.0313 1.2487 0.2491
C278 C -0.0510(8) 1.2328(7) 0.2537(4)
H187 H -0.0643 1.2387 0.2771
C279 C -0.0867(6) 1.2185(6) 0.2357(5)
H188 H -0.1254 1.2152 0.2461
C280 C -0.0665(6) 1.2088(6) 0.2025(5)
H189 H -0.0918 1.1974 0.1908
N84 N -0.0127(7) 1.2149(5) 0.1859(3)
S15 S -0.0952(3) 0.9263(3) 0.1326(2)
O71 O -0.0889(6) 0.9593(5) 0.0945(2)
O72 O -0.1520(4) 0.9190(6) 0.1529(4)
O73 O -0.0669(6) 0.8759(4) 0.1370(4)
O74 O 0.0208(7) 1.1216(6) 0.1560(4)
O75 O 0.0510(8) 0.9599(7) 0.2431(5)
N85 N -0.0229(9) 1.1854(9) 0.1055(5)
N86 N -0.0371(8) 1.1328(8) 0.1151(5)
N87 N 0.0060(10) 0.8796(9) 0.2519(6)
N88 N 0.0374(10) 0.8607(9) 0.2796(6)
N89 N 0.0131(7) 1.2830(6) 0.0958(4)
C281 C 0.0292(7) 1.3330(7) 0.0913(5)
H190 H 0.0528 1.3383 0.1065
C282 C 0.0130(8) 1.3772(6) 0.0655(6)
H191 H 0.0240 1.4123 0.0639
C283 C -0.0189(9) 1.3707(6) 0.0424(5)
H192 H -0.0297 1.4010 0.0240
C284 C -0.0355(7) 1.3190(7) 0.0461(4)
H193 H -0.0580 1.3130 0.0305
C285 C -0.0185(6) 1.2767(5) 0.0729(4)
C286 C -0.0375(9) 1.2211(6) 0.0785(6)
H194 H -0.0589 1.2131 0.0631
C287 C -0.0124(9) 1.1024(10) 0.1434(6)
C288 C -0.0235(5) 1.0437(4) 0.1559(4)
C289 C -0.0529(5) 1.0169(6) 0.1397(3)
H195 H -0.0675 1.0365 0.1185
C290 C -0.0610(5) 0.9613(6) 0.1545(4)
C291 C -0.0397(6) 0.9326(4) 0.1855(4)
H196 H -0.0452 0.8947 0.1957
C292 C -0.0102(6) 0.9595(6) 0.2018(3)
C293 C -0.0021(5) 1.0150(6) 0.1870(4)
H197 H 0.0180 1.0333 0.1981
C294 C 0.0179(11) 0.9322(11) 0.2338(7)
C295 C 0.0333(7) 0.8115(8) 0.2996(5)
H198 H 0.0090 0.7857 0.2978
C296 C 0.0712(5) 0.7994(5) 0.3263(3)
C297 C 0.0724(7) 0.7481(5) 0.3503(4)
H199 H 0.0482 0.7206 0.3507
C298 C 0.1098(8) 0.7374(5) 0.3739(4)
H200 H 0.1116 0.7024 0.3910
C299 C 0.1438(6) 0.7781(7) 0.3721(4)
H201 H 0.1703 0.7715 0.3876
C300 C 0.1398(6) 0.8288(6) 0.3479(4)
H202 H 0.1628 0.8570 0.3477
N90 N 0.1048(6) 0.8399(5) 0.3244(4)
S16 S 0.3964(4) 1.0583(4) 0.2040(3)
O76 O 0.3991(8) 1.0482(7) 0.2421(3)
O77 O 0.3734(7) 1.1094(5) 0.1876(5)
O78 O 0.4484(5) 1.0497(7) 0.1811(5)
O79 O 0.1648(8) 0.9271(8) 0.2485(5)
O80 O 0.2845(8) 0.8964(8) 0.1457(5)
N91 N 0.1370(11) 0.9667(9) 0.2995(7)
N92 N 0.1907(12) 0.9773(10) 0.2804(7)
N93 N 0.3773(10) 0.9235(10) 0.1236(7)
N94 N 0.3774(11) 0.8916(11) 0.1017(8)
N95 N 0.0326(7) 0.9452(5) 0.3305(4)
C301 C -0.0215(7) 0.9358(6) 0.3456(5)
H203 H -0.0420 0.9137 0.3374
C302 C -0.0488(6) 0.9570(7) 0.3725(5)
H204 H -0.0877 0.9506 0.3818
C303 C -0.0201(8) 0.9870(7) 0.3859(4)
H205 H -0.0384 1.0011 0.4049
C304 C 0.0365(8) 0.9966(6) 0.3711(4)
H206 H 0.0577 1.0177 0.3796
C305 C 0.0608(6) 0.9750(5) 0.3439(4)
C306 C 0.1208(6) 0.9864(8) 0.3264(6)
H207 H 0.1446 1.0062 0.3343
C307 C 0.2041(13) 0.9566(10) 0.2543(8)
C308 C 0.2574(5) 0.9663(6) 0.2275(4)
C309 C 0.2965(8) 1.0014(6) 0.2294(4)
H208 H 0.2885 1.0190 0.2478
C310 C 0.3475(7) 1.0110(5) 0.2042(5)
C311 C 0.3593(6) 0.9853(7) 0.1772(4)
H209 H 0.3941 0.9918 0.1600
C312 C 0.3201(9) 0.9501(6) 0.1754(4)
C313 C 0.2691(7) 0.9406(5) 0.2005(5)
H210 H 0.2423 0.9166 0.1993
C314 C 0.3268(14) 0.9197(12) 0.1473(8)
C315 C 0.4196(12) 0.8848(9) 0.0767(7)
H211 H 0.4547 0.9025 0.0713
C316 C 0.4078(7) 0.8470(6) 0.0575(4)
C317 C 0.4495(7) 0.8349(9) 0.0319(6)
H212 H 0.4854 0.8515 0.0256
C318 C 0.4379(10) 0.7979(10) 0.0154(6)
H213 H 0.4657 0.7887 -0.0026
C319 C 0.3860(12) 0.7749(8) 0.0256(6)
H214 H 0.3774 0.7489 0.0151
C320 C 0.3460(8) 0.7895(8) 0.0510(6)
H215 H 0.3095 0.7743 0.0570
N96 N 0.3563(7) 0.8244(8) 0.0677(5)
Zn7 Zn 0.3014(3) 0.5702(3) 0.35637(18)
O81 O 0.2545(5) 0.6322(4) 0.3667(5)
O82 O 0.2745(6) 0.5870(7) 0.3071(3)
O83 O 0.3439(6) 0.5053(4) 0.3472(5)
O84 O 0.3260(6) 0.5513(7) 0.4065(2)
O85 O 0.2325(4) 0.5196(5) 0.3830(4)
O86 O 0.3694(4) 0.6200(4) 0.3303(3)
N97 N 0.4399(6) 0.6720(8) 0.2871(5)
C321 C 0.3994(5) 0.6354(6) 0.2981(4)
H216 H 0.3926 0.6196 0.2804
C322 C 0.4535(8) 0.6981(8) 0.3124(7)
H217 H 0.4846 0.7240 0.2991
H218 H 0.4640 0.6710 0.3339
H219 H 0.4211 0.7170 0.3211
C323 C 0.4739(8) 0.6875(10) 0.2493(6)
H220 H 0.5016 0.7151 0.2464
H221 H 0.4503 0.7019 0.2311
H222 H 0.4929 0.6560 0.2448
C324 C 0.2252(16) 0.8730(15) 0.4926(10)
H223 H 0.2226 0.9063 0.4975
C325 C 0.2790(18) 0.816(2) 0.4664(17)
H224 H 0.3166 0.8172 0.4514
H225 H 0.2519 0.8104 0.4526
H226 H 0.2752 0.7866 0.4902
C326 C 0.314(2) 0.907(2) 0.4586(16)
H227 H 0.3456 0.8933 0.4449
H228 H 0.3246 0.9161 0.4791
H229 H 0.3012 0.9398 0.4415
N98 N 0.2687(14) 0.8668(16) 0.4739(9)
O87 O 0.1810(14) 0.8422(17) 0.5072(11)
C327 C 0.3118(13) 0.8090(10) 0.7830(8)
H230 H 0.2992 0.7798 0.7770
C328 C 0.3274(18) 0.9049(11) 0.7671(10)
H231 H 0.3221 0.9376 0.7469
H232 H 0.3668 0.9020 0.7681
H233 H 0.3056 0.9066 0.7910
C329 C 0.2874(17) 0.8681(15) 0.7259(8)
H234 H 0.2887 0.9068 0.7126
H235 H 0.2489 0.8543 0.7326
H236 H 0.3101 0.8497 0.7097
N99 N 0.3089(9) 0.8582(10) 0.7598(6)
O88 O 0.3300(17) 0.7986(14) 0.8121(9)
C330 C -0.2381(12) 0.7254(13) 0.3827(7)
H237 H -0.2416 0.7041 0.3675
C331 C -0.2061(17) 0.7345(15) 0.4356(9)
H238 H -0.1869 0.7125 0.4549
H239 H -0.2426 0.7437 0.4476
H240 H -0.1840 0.7675 0.4209
C332 C -0.1917(17) 0.6503(13) 0.4194(12)
H241 H -0.1749 0.6422 0.4413
H242 H -0.1636 0.6480 0.3978
H243 H -0.2222 0.6243 0.4245
N100 N -0.2132(10) 0.7044(11) 0.4112(7)
O89 O -0.2571(14) 0.7711(14) 0.3747(9)
O90 O 0.5216(8) 0.9540(7) 0.5249(5)
O91 O -0.1116(8) 1.1162(8) 0.0740(5)
O92 O 0.0731(9) 0.5319(8) 0.8743(6)
O93 O 0.0669(9) 0.6332(8) 0.8254(5)
O94 O 0.1029(9) 0.7610(9) 0.1183(6)
O95 O -0.0161(9) 0.7831(8) 0.2310(6)
O96 O 0.2243(10) 1.2510(10) 0.1725(7)
O97 O -0.1859(10) 1.0268(10) 0.0899(6)
O98 O 0.0074(12) 0.7880(11) 0.1591(8)
O99 O 0.0824(12) 0.4436(11) 0.8438(8)
O100 O -0.0123(12) 0.9913(12) 0.4686(7)
O101 O 0.5402(12) 1.0015(12) 0.4204(7)
O102 O 0.3115(18) 0.7688(17) 0.6781(11)
O103 O 0.6637(14) 0.8950(12) 0.6397(9)
O104 O -0.0050(15) 0.3690(14) 0.8741(9)
O105 O 0.6172(15) 0.3272(13) 0.8734(9)
O106 O 0.3431(15) 1.1414(14) -0.2587(8)
O107 O 0.4222(13) 0.3301(13) 0.9691(8)
O108 O 0.6241(14) 0.9738(13) 0.5314(9)
O109 O 0.0527(15) 0.7262(14) 0.0708(10)
O110 O 0.0918(14) 0.4745(13) 0.7658(10)
O111 O -0.2650(15) 0.8270(14) 0.3006(10)
O112 O 0.2312(15) 0.7274(13) 0.7576(10)
O113 O 0.0541(15) 1.3782(14) 0.1601(9)
O114 O -0.0168(14) 0.6767(13) 0.1799(9)
O115 O -0.0123(16) 0.6155(15) 0.2519(10)
O116 O 0.0300(18) 1.0972(17) 0.4368(11)
O117 O 0.1755(19) 1.1034(17) 0.3370(11)
O118 O 0.5733(16) 0.7814(15) 0.2581(11)
O119 O 0.6932(18) 0.9064(18) 0.5563(11)
O120 O 0.7733(18) 0.9152(16) 0.7236(11)
O121 O 0.3708(19) 0.8635(16) 0.6405(11)
O122 O 0.4601(16) 1.1771(16) 0.1344(10)
O123 O 0.709(2) 0.5628(18) 0.8793(12)
O124 O 0.141(2) 0.6069(19) 0.3977(13)
O125 O 0.688(2) 0.9469(18) 0.6828(12)
O126 O 0.438(2) 0.945(2) 0.4301(13)
O127 O 0.164(2) 0.7883(19) 0.5829(13)
O128 O 0.6335(19) 0.4995(18) 0.8794(11)
O129 O 0.6893(12) 0.6727(11) 0.8585(7)
O130 O 0.278(3) 0.679(2) 0.1025(15)
O131 O 0.762(3) 0.800(2) 0.7138(16)
O132 O -0.048(3) 0.502(2) 1.0019(15)
O133 O 0.082(3) 0.870(3) 0.5416(18)
O134 O 0.001(3) 0.460(2) 0.3796(15)
O135 O 0.456(3) 0.990(3) -0.261(2)
O136 O -0.116(3) 1.264(3) -0.002(2)
O137 O -0.129(3) 0.351(3) 0.825(2)
O138 O -0.301(4) 1.040(3) 0.132(2)
O139 O 0.129(4) 0.892(3) 0.632(2)
O140 O 0.064(3) 0.752(3) 0.6481(19)
O141 O 0.336(4) 0.969(3) -0.037(2)
O142 O 0.024(3) 1.511(3) 0.068(2)
O143 O -0.019(3) 0.598(3) 0.664(2)
O144 O -0.009(3) 0.574(3) 0.3556(16)
O145 O 0.396(3) 0.610(3) 1.085(2)
O146 O 0.374(3) 1.036(3) -0.2345(17)
O147 O 0.468(3) 0.658(2) 1.0676(16)
O148 O 0.154(3) 0.572(3) 0.986(2)
O149 O 0.544(3) 0.846(2) -0.0492(15)
O150 O 0.494(3) 0.909(2) 0.1335(15)
O151 O 0.149(3) 1.325(3) 0.210(2)
O152? O 0.268(3) 0.500(3) 0.3722(17)
C333? C 0.2891(19) 0.9029(17) 0.4653(12)
H244? H 0.2857 0.9342 0.4727
C334? C 0.251(2) 0.816(2) 0.4712(19)
H245? H 0.2187 0.7931 0.4857
H246? H 0.2852 0.7970 0.4767
H247? H 0.2521 0.8252 0.4444
C335? C 0.202(2) 0.870(3) 0.5092(17)
H248? H 0.1770 0.8385 0.5175
H249? H 0.1813 0.9024 0.4983
H250? H 0.2144 0.8741 0.5307
N101? N 0.2493(16) 0.8651(18) 0.4811(11)
O153? O 0.3305(18) 0.8999(19) 0.4413(12)
O154? O 0.317(2) 0.800(2) 0.8062(13)
O155? O -0.272(2) 0.739(2) 0.3339(14)
O156? O 0.1383(15) 0.8257(13) 0.6192(9)
O157? O 0.197(2) 0.792(2) 0.6354(14)
O158? O 0.101(3) 0.842(3) 0.6046(18)
O159? O 0.585(2) 0.868(2) 0.0100(15)
O160? O 0.578(2) 0.829(2) 0.0208(13)
O161? O 0.295(2) 1.1531(19) 0.1926(14)
O162? O 0.2659(19) 1.1558(17) 0.2205(13)
O163? O 0.132(2) 0.9978(18) 0.5424(12)
O164? O 0.171(3) 0.965(3) 0.575(2)
loop_
_geom_bond_atom_site_label_1
_geom_bond_atom_site_label_2
_geom_bond_site_symmetry_1
_geom_bond_site_symmetry_2
Cu1 O4 1_555 1_555
Cu2 N4 1_555 1_555
Cu3 O10 1_555 1_555
Cu4 O15 1_555 1_555
S1 O1 1_555 1_555
O2 S1 1_555 1_555
O3 S1 1_555 1_555
O4 C7 1_555 1_555
O5 C14 1_555 1_555
N1 Cu1 1_555 1_555
N2 N1 1_555 1_555
H1 N2 1_555 1_555
N3 H2 1_555 1_555
N4 N3 1_555 1_555
N5 Cu1 1_555 1_555
C1 N5 1_555 1_555
H3 C1 1_555 1_555
C2 C1 1_555 1_555
H4 C2 1_555 1_555
C3 C2 1_555 1_555
H5 C3 1_555 1_555
C4 C3 1_555 1_555
H6 C4 1_555 1_555
C5 N5 1_555 1_555
C6 N1 1_555 1_555
H7 C6 1_555 1_555
C7 N2 1_555 1_555
C8 C7 1_555 1_555
C9 C8 1_555 1_555
H8 C9 1_555 1_555
C10 S1 1_555 1_555
C11 C10 1_555 1_555
H9 C11 1_555 1_555
C12 C11 1_555 1_555
C13 C8 1_555 1_555
H10 C13 1_555 1_555
C14 N3 1_555 1_555
C15 N4 1_555 1_555
H11 C15 1_555 1_555
C16 C15 1_555 1_555
C17 C16 1_555 1_555
H12 C17 1_555 1_555
C18 C17 1_555 1_555
H13 C18 1_555 1_555
C19 C18 1_555 1_555
H14 C19 1_555 1_555
C20 C19 1_555 1_555
H15 C20 1_555 1_555
N6 Cu2 1_555 1_555
S2 O6 1_555 1_555
O7 S2 1_555 1_555
O8 S2 1_555 1_555
O9 C27 1_555 1_555
O10 C34 1_555 1_555
N7 Cu2 1_555 1_555
N8 N7 1_555 1_555
H16 N8 1_555 1_555
N9 N10 1_555 1_555
N10 Cu3 1_555 1_555
N11 Cu2 1_555 1_555
C21 N11 1_555 1_555
H17 C21 1_555 1_555
C22 C21 1_555 1_555
H18 C22 1_555 1_555
C23 C22 1_555 1_555
H19 C23 1_555 1_555
C24 C23 1_555 1_555
H20 C24 1_555 1_555
C25 N11 1_555 1_555
C26 N7 1_555 1_555
H21 C26 1_555 1_555
C27 N8 1_555 1_555
C28 C27 1_555 1_555
C29 C28 1_555 1_555
H22 C29 1_555 1_555
C30 S2 1_555 1_555
C31 C30 1_555 1_555
H23 C31 1_555 1_555
C32 C31 1_555 1_555
C33 C28 1_555 1_555
H24 C33 1_555 1_555
C34 N9 1_555 1_555
C35 N10 1_555 1_555
H25 C35 1_555 1_555
C36 C35 1_555 1_555
C37 C36 1_555 1_555
H26 C37 1_555 1_555
C38 C37 1_555 1_555
H27 C38 1_555 1_555
C39 C38 1_555 1_555
H28 C39 1_555 1_555
C40 C39 1_555 1_555
H29 C40 1_555 1_555
N12 Cu3 1_555 1_555
S3 O11 1_555 1_555
O12 S3 1_555 1_555
O13 S3 1_555 1_555
O14 Cu3 1_555 1_555
O15 C54 1_555 1_555
N13 Cu3 1_555 1_555
N14 N13 1_555 1_555
N15 N16 1_555 1_555
N16 Cu4 1_555 1_555
N17 Cu3 1_555 1_555
C41 N17 1_555 1_555
H30 C41 1_555 1_555
C42 C41 1_555 1_555
H31 C42 1_555 1_555
C43 C42 1_555 1_555
H32 C43 1_555 1_555
C44 C43 1_555 1_555
H33 C44 1_555 1_555
C45 N17 1_555 1_555
C46 N13 1_555 1_555
H34 C46 1_555 1_555
C47 O14 1_555 1_555
C48 C47 1_555 1_555
C49 C48 1_555 1_555
H35 C49 1_555 1_555
C50 S3 1_555 1_555
C51 C50 1_555 1_555
H36 C51 1_555 1_555
C52 C51 1_555 1_555
C53 C48 1_555 1_555
H37 C53 1_555 1_555
C54 N15 1_555 1_555
C55 N16 1_555 1_555
H38 C55 1_555 1_555
C56 C55 1_555 1_555
C57 C56 1_555 1_555
H39 C57 1_555 1_555
C58 C57 1_555 1_555
H40 C58 1_555 1_555
C59 C58 1_555 1_555
H41 C59 1_555 1_555
C60 C59 1_555 1_555
H42 C60 1_555 1_555
N18 Cu4 1_555 1_555
S4 O16 1_555 1_555
O17 S4 1_555 1_555
O18 S4 1_555 1_555
O19 Cu4 1_555 1_555
O20 Cu1 1_555 1_555
N19 Cu4 1_555 1_555
N20 N19 1_555 1_555
N21 N22 1_555 1_555
N22 Cu1 1_555 1_555
N23 Cu4 1_555 1_555
C61 N23 1_555 1_555
H43 C61 1_555 1_555
C62 C61 1_555 1_555
H44 C62 1_555 1_555
C63 C62 1_555 1_555
H45 C63 1_555 1_555
C64 C63 1_555 1_555
H46 C64 1_555 1_555
C65 N23 1_555 1_555
C66 N19 1_555 1_555
H47 C66 1_555 1_555
C67 O19 1_555 1_555
C68 C67 1_555 1_555
C69 C68 1_555 1_555
H48 C69 1_555 1_555
C70 S4 1_555 1_555
C71 C70 1_555 1_555
H49 C71 1_555 1_555
C72 C71 1_555 1_555
C73 C68 1_555 1_555
H50 C73 1_555 1_555
C74 O20 1_555 1_555
C75 N22 1_555 1_555
H51 C75 1_555 1_555
C76 C75 1_555 1_555
C77 C76 1_555 1_555
H52 C77 1_555 1_555
C78 C77 1_555 1_555
H53 C78 1_555 1_555
C79 C78 1_555 1_555
H54 C79 1_555 1_555
C80 C79 1_555 1_555
H55 C80 1_555 1_555
N24 Cu1 1_555 1_555
Zn1 O24 1_555 1_555
Zn2 O25 1_555 1_555
Cu5 O30 1_555 1_555
Zn3 O35 1_555 1_555
S5 O21 1_555 1_555
O22 S5 1_555 1_555
O23 S5 1_555 1_555
O24 C87 1_555 1_555
O25 C94 1_555 1_555
N25 Zn1 1_555 1_555
N26 N25 1_555 1_555
N27 N28 1_555 1_555
N28 Zn2 1_555 1_555
N29 Zn1 1_555 1_555
C81 N29 1_555 1_555
H56 C81 1_555 1_555
C82 C81 1_555 1_555
H57 C82 1_555 1_555
C83 C82 1_555 1_555
H58 C83 1_555 1_555
C84 C83 1_555 1_555
H59 C84 1_555 1_555
C85 N29 1_555 1_555
C86 N25 1_555 1_555
H60 C86 1_555 1_555
C87 N26 1_555 1_555
C88 C87 1_555 1_555
C89 C88 1_555 1_555
H61 C89 1_555 1_555
C90 S5 1_555 1_555
C91 C90 1_555 1_555
H62 C91 1_555 1_555
C92 C91 1_555 1_555
C93 C88 1_555 1_555
H63 C93 1_555 1_555
C94 N27 1_555 1_555
C95 N28 1_555 1_555
H64 C95 1_555 1_555
C96 C95 1_555 1_555
C97 C96 1_555 1_555
H65 C97 1_555 1_555
C98 C97 1_555 1_555
H66 C98 1_555 1_555
C99 C98 1_555 1_555
H67 C99 1_555 1_555
C100 C99 1_555 1_555
H68 C100 1_555 1_555
N30 Zn2 1_555 1_555
S6 O26 1_555 1_555
O27 S6 1_555 1_555
O28 S6 1_555 1_555
O29 Zn2 1_555 1_555
O30 C114 1_555 1_555
N31 Zn2 1_555 1_555
N32 N31 1_555 1_555
N33 H69 1_555 1_555
N34 Cu5 1_555 1_555
N35 Zn2 1_555 1_555
C101 N35 1_555 1_555
H70 C101 1_555 1_555
C102 C101 1_555 1_555
H71 C102 1_555 1_555
C103 C102 1_555 1_555
H72 C103 1_555 1_555
C104 C103 1_555 1_555
H73 C104 1_555 1_555
C105 N35 1_555 1_555
C106 N31 1_555 1_555
H74 C106 1_555 1_555
C107 O29 1_555 1_555
C108 C107 1_555 1_555
C109 C108 1_555 1_555
H75 C109 1_555 1_555
C110 S6 1_555 1_555
C111 C110 1_555 1_555
H76 C111 1_555 1_555
C112 C111 1_555 1_555
C113 C108 1_555 1_555
H77 C113 1_555 1_555
C114 N33 1_555 1_555
C115 N34 1_555 1_555
H78 C115 1_555 1_555
C116 C115 1_555 1_555
C117 C116 1_555 1_555
H79 C117 1_555 1_555
C118 C117 1_555 1_555
H80 C118 1_555 1_555
C119 C118 1_555 1_555
H81 C119 1_555 1_555
C120 C119 1_555 1_555
H82 C120 1_555 1_555
N36 Cu5 1_555 1_555
S7 O31 1_555 1_555
O32 S7 1_555 1_555
O33 S7 1_555 1_555
O34 Cu5 1_555 1_555
O35 C134 1_555 1_555
N37 Cu5 1_555 1_555
N38 N37 1_555 1_555
N39 N40 1_555 1_555
N40 Zn3 1_555 1_555
N41 Cu5 1_555 1_555
C121 N41 1_555 1_555
H83 C121 1_555 1_555
C122 C121 1_555 1_555
H84 C122 1_555 1_555
C123 C122 1_555 1_555
H85 C123 1_555 1_555
C124 C123 1_555 1_555
H86 C124 1_555 1_555
C125 N41 1_555 1_555
C126 N37 1_555 1_555
H87 C126 1_555 1_555
C127 O34 1_555 1_555
C128 C127 1_555 1_555
C129 C128 1_555 1_555
H88 C129 1_555 1_555
C130 S7 1_555 1_555
C131 C130 1_555 1_555
H89 C131 1_555 1_555
C132 C131 1_555 1_555
C133 C128 1_555 1_555
H90 C133 1_555 1_555
C134 N39 1_555 1_555
C135 N40 1_555 1_555
H91 C135 1_555 1_555
C136 C135 1_555 1_555
C137 C136 1_555 1_555
H92 C137 1_555 1_555
C138 C137 1_555 1_555
H93 C138 1_555 1_555
C139 C138 1_555 1_555
H94 C139 1_555 1_555
C140 C139 1_555 1_555
H95 C140 1_555 1_555
N42 Zn3 1_555 1_555
S8 O36 1_555 1_555
O37 S8 1_555 1_555
O38 S8 1_555 1_555
O39 Zn3 1_555 1_555
O40 Zn1 1_555 1_555
N43 Zn3 1_555 1_555
N44 N43 1_555 1_555
N45 N46 1_555 1_555
N46 Zn1 1_555 1_555
N47 Zn3 1_555 1_555
C141 N47 1_555 1_555
H96 C141 1_555 1_555
C142 C141 1_555 1_555
H97 C142 1_555 1_555
C143 C142 1_555 1_555
H98 C143 1_555 1_555
C144 C143 1_555 1_555
H99 C144 1_555 1_555
C145 N47 1_555 1_555
C146 N43 1_555 1_555
H100 C146 1_555 1_555
C147 O39 1_555 1_555
C148 C147 1_555 1_555
C149 C148 1_555 1_555
H101 C149 1_555 1_555
C150 S8 1_555 1_555
C151 C150 1_555 1_555
H102 C151 1_555 1_555
C152 C151 1_555 1_555
C153 C148 1_555 1_555
H103 C153 1_555 1_555
C154 O40 1_555 1_555
C155 N46 1_555 1_555
H104 C155 1_555 1_555
C156 C155 1_555 1_555
C157 C156 1_555 1_555
H105 C157 1_555 1_555
C158 C157 1_555 1_555
H106 C158 1_555 1_555
C159 C158 1_555 1_555
H107 C159 1_555 1_555
C160 C159 1_555 1_555
H108 C160 1_555 1_555
N48 Zn1 1_555 1_555
Cu6 O44 1_555 1_555
Cu7 N52 1_555 1_555
Cu8 O50 1_555 1_555
Cu9 O55 1_555 1_555
S9 O41 1_555 1_555
O42 S9 1_555 1_555
O43 S9 1_555 1_555
O44 C167 1_555 1_555
O45 C174 1_555 1_555
N49 Cu6 1_555 1_555
N50 N49 1_555 1_555
N51 H109 1_555 1_555
N52 N51 1_555 1_555
N53 Cu6 1_555 1_555
C161 N53 1_555 1_555
H110 C161 1_555 1_555
C162 C161 1_555 1_555
H111 C162 1_555 1_555
C163 C162 1_555 1_555
H112 C163 1_555 1_555
C164 C163 1_555 1_555
H113 C164 1_555 1_555
C165 N53 1_555 1_555
C166 N49 1_555 1_555
H114 C166 1_555 1_555
C167 N50 1_555 1_555
C168 C167 1_555 1_555
C169 C168 1_555 1_555
H115 C169 1_555 1_555
C170 S9 1_555 1_555
C171 C170 1_555 1_555
H116 C171 1_555 1_555
C172 C171 1_555 1_555
C173 C168 1_555 1_555
H117 C173 1_555 1_555
C174 N51 1_555 1_555
C175 N52 1_555 1_555
H118 C175 1_555 1_555
C176 C175 1_555 1_555
C177 C176 1_555 1_555
H119 C177 1_555 1_555
C178 C177 1_555 1_555
H120 C178 1_555 1_555
C179 C178 1_555 1_555
H121 C179 1_555 1_555
C180 C179 1_555 1_555
H122 C180 1_555 1_555
N54 Cu7 1_555 1_555
S10 O46 1_555 1_555
O47 S10 1_555 1_555
O48 S10 1_555 1_555
O49 C187 1_555 1_555
O50 C194 1_555 1_555
N55 Cu7 1_555 1_555
N56 N55 1_555 1_555
H123 N56 1_555 1_555
N57 N58 1_555 1_555
N58 Cu8 1_555 1_555
N59 Cu7 1_555 1_555
C181 N59 1_555 1_555
H124 C181 1_555 1_555
C182 C181 1_555 1_555
H125 C182 1_555 1_555
C183 C182 1_555 1_555
H126 C183 1_555 1_555
C184 C183 1_555 1_555
H127 C184 1_555 1_555
C185 N59 1_555 1_555
C186 N55 1_555 1_555
H128 C186 1_555 1_555
C187 N56 1_555 1_555
C188 C187 1_555 1_555
C189 C188 1_555 1_555
H129 C189 1_555 1_555
C190 S10 1_555 1_555
C191 C190 1_555 1_555
H130 C191 1_555 1_555
C192 C191 1_555 1_555
C193 C188 1_555 1_555
H131 C193 1_555 1_555
C194 N57 1_555 1_555
C195 N58 1_555 1_555
H132 C195 1_555 1_555
C196 C195 1_555 1_555
C197 C196 1_555 1_555
H133 C197 1_555 1_555
C198 C197 1_555 1_555
H134 C198 1_555 1_555
C199 C198 1_555 1_555
H135 C199 1_555 1_555
C200 C199 1_555 1_555
H136 C200 1_555 1_555
N60 Cu8 1_555 1_555
S11 O51 1_555 1_555
O52 S11 1_555 1_555
O53 S11 1_555 1_555
O54 Cu8 1_555 1_555
O55 C214 1_555 1_555
N61 Cu8 1_555 1_555
N62 N61 1_555 1_555
N63 N64 1_555 1_555
N64 Cu9 1_555 1_555
N65 Cu8 1_555 1_555
C201 N65 1_555 1_555
H137 C201 1_555 1_555
C202 C201 1_555 1_555
H138 C202 1_555 1_555
C203 C202 1_555 1_555
H139 C203 1_555 1_555
C204 C203 1_555 1_555
H140 C204 1_555 1_555
C205 N65 1_555 1_555
C206 N61 1_555 1_555
H141 C206 1_555 1_555
C207 O54 1_555 1_555
C208 C207 1_555 1_555
C209 C208 1_555 1_555
H142 C209 1_555 1_555
C210 S11 1_555 1_555
C211 C210 1_555 1_555
H143 C211 1_555 1_555
C212 C211 1_555 1_555
C213 C208 1_555 1_555
H144 C213 1_555 1_555
C214 N63 1_555 1_555
C215 N64 1_555 1_555
H145 C215 1_555 1_555
C216 C215 1_555 1_555
C217 C216 1_555 1_555
H146 C217 1_555 1_555
C218 C217 1_555 1_555
H147 C218 1_555 1_555
C219 C218 1_555 1_555
H148 C219 1_555 1_555
C220 C219 1_555 1_555
H149 C220 1_555 1_555
N66 Cu9 1_555 1_555
S12 O56 1_555 1_555
O57 S12 1_555 1_555
O58 S12 1_555 1_555
O59 Cu9 1_555 1_555
O60 Cu6 1_555 1_555
N67 Cu9 1_555 1_555
N68 N67 1_555 1_555
N69 N70 1_555 1_555
N70 Cu6 1_555 1_555
N71 Cu9 1_555 1_555
C221 N71 1_555 1_555
H150 C221 1_555 1_555
C222 C221 1_555 1_555
H151 C222 1_555 1_555
C223 C222 1_555 1_555
H152 C223 1_555 1_555
C224 C223 1_555 1_555
H153 C224 1_555 1_555
C225 N71 1_555 1_555
C226 N67 1_555 1_555
H154 C226 1_555 1_555
C227 O59 1_555 1_555
C228 C227 1_555 1_555
C229 C228 1_555 1_555
H155 C229 1_555 1_555
C230 S12 1_555 1_555
C231 C230 1_555 1_555
H156 C231 1_555 1_555
C232 C231 1_555 1_555
C233 C228 1_555 1_555
H157 C233 1_555 1_555
C234 O60 1_555 1_555
C235 N70 1_555 1_555
H158 C235 1_555 1_555
C236 C235 1_555 1_555
C237 C236 1_555 1_555
H159 C237 1_555 1_555
C238 C237 1_555 1_555
H160 C238 1_555 1_555
C239 C238 1_555 1_555
H161 C239 1_555 1_555
C240 C239 1_555 1_555
H162 C240 1_555 1_555
N72 Cu6 1_555 1_555
Zn4 O64 1_555 1_555
Cu10 O65 1_555 1_555
Zn5 O70 1_555 1_555
Zn6 O75 1_555 1_555
S13 O61 1_555 1_555
O62 S13 1_555 1_555
O63 S13 1_555 1_555
O64 C247 1_555 1_555
O65 C254 1_555 1_555
N73 Zn4 1_555 1_555
N74 N73 1_555 1_555
N75 H163 1_555 1_555
N76 Cu10 1_555 1_555
N77 Zn4 1_555 1_555
C241 N77 1_555 1_555
H164 C241 1_555 1_555
C242 C241 1_555 1_555
H165 C242 1_555 1_555
C243 C242 1_555 1_555
H166 C243 1_555 1_555
C244 C243 1_555 1_555
H167 C244 1_555 1_555
C245 N77 1_555 1_555
C246 N73 1_555 1_555
H168 C246 1_555 1_555
C247 N74 1_555 1_555
C248 C247 1_555 1_555
C249 C248 1_555 1_555
H169 C249 1_555 1_555
C250 S13 1_555 1_555
C251 C250 1_555 1_555
H170 C251 1_555 1_555
C252 C251 1_555 1_555
C253 C248 1_555 1_555
H171 C253 1_555 1_555
C254 N75 1_555 1_555
C255 N76 1_555 1_555
H172 C255 1_555 1_555
C256 C255 1_555 1_555
C257 C256 1_555 1_555
H173 C257 1_555 1_555
C258 C257 1_555 1_555
H174 C258 1_555 1_555
C259 C258 1_555 1_555
H175 C259 1_555 1_555
C260 C259 1_555 1_555
H176 C260 1_555 1_555
N78 Cu10 1_555 1_555
S14 O66 1_555 1_555
O67 S14 1_555 1_555
O68 S14 1_555 1_555
O69 Cu10 1_555 1_555
O70 C274 1_555 1_555
N79 Cu10 1_555 1_555
N80 N79 1_555 1_555
N81 N82 1_555 1_555
N82 Zn5 1_555 1_555
N83 Cu10 1_555 1_555
C261 N83 1_555 1_555
H177 C261 1_555 1_555
C262 C261 1_555 1_555
H178 C262 1_555 1_555
C263 C262 1_555 1_555
H179 C263 1_555 1_555
C264 C263 1_555 1_555
H180 C264 1_555 1_555
C265 N83 1_555 1_555
C266 N79 1_555 1_555
H181 C266 1_555 1_555
C267 O69 1_555 1_555
C268 C267 1_555 1_555
C269 C268 1_555 1_555
H182 C269 1_555 1_555
C270 S14 1_555 1_555
C271 C270 1_555 1_555
H183 C271 1_555 1_555
C272 C271 1_555 1_555
C273 C268 1_555 1_555
H184 C273 1_555 1_555
C274 N81 1_555 1_555
C275 N82 1_555 1_555
H185 C275 1_555 1_555
C276 C275 1_555 1_555
C277 C276 1_555 1_555
H186 C277 1_555 1_555
C278 C277 1_555 1_555
H187 C278 1_555 1_555
C279 C278 1_555 1_555
H188 C279 1_555 1_555
C280 C279 1_555 1_555
H189 C280 1_555 1_555
N84 Zn5 1_555 1_555
S15 O71 1_555 1_555
O72 S15 1_555 1_555
O73 S15 1_555 1_555
O74 Zn5 1_555 1_555
O75 C294 1_555 1_555
N85 Zn5 1_555 1_555
N86 N85 1_555 1_555
N87 N88 1_555 1_555
N88 Zn6 1_555 1_555
N89 Zn5 1_555 1_555
C281 N89 1_555 1_555
H190 C281 1_555 1_555
C282 C281 1_555 1_555
H191 C282 1_555 1_555
C283 C282 1_555 1_555
H192 C283 1_555 1_555
C284 C283 1_555 1_555
H193 C284 1_555 1_555
C285 N89 1_555 1_555
C286 N85 1_555 1_555
H194 C286 1_555 1_555
C287 O74 1_555 1_555
C288 C287 1_555 1_555
C289 C288 1_555 1_555
H195 C289 1_555 1_555
C290 S15 1_555 1_555
C291 C290 1_555 1_555
H196 C291 1_555 1_555
C292 C291 1_555 1_555
C293 C288 1_555 1_555
H197 C293 1_555 1_555
C294 N87 1_555 1_555
C295 N88 1_555 1_555
H198 C295 1_555 1_555
C296 C295 1_555 1_555
C297 C296 1_555 1_555
H199 C297 1_555 1_555
C298 C297 1_555 1_555
H200 C298 1_555 1_555
C299 C298 1_555 1_555
H201 C299 1_555 1_555
C300 C299 1_555 1_555
H202 C300 1_555 1_555
N90 Zn6 1_555 1_555
S16 O76 1_555 1_555
O77 S16 1_555 1_555
O78 S16 1_555 1_555
O79 Zn6 1_555 1_555
O80 Zn4 1_555 1_555
N91 Zn6 1_555 1_555
N92 N91 1_555 1_555
N93 N94 1_555 1_555
N94 Zn4 1_555 1_555
N95 Zn6 1_555 1_555
C301 N95 1_555 1_555
H203 C301 1_555 1_555
C302 C301 1_555 1_555
H204 C302 1_555 1_555
C303 C302 1_555 1_555
H205 C303 1_555 1_555
C304 C303 1_555 1_555
H206 C304 1_555 1_555
C305 N95 1_555 1_555
C306 N91 1_555 1_555
H207 C306 1_555 1_555
C307 O79 1_555 1_555
C308 C307 1_555 1_555
C309 C308 1_555 1_555
H208 C309 1_555 1_555
C310 S16 1_555 1_555
C311 C310 1_555 1_555
H209 C311 1_555 1_555
C312 C311 1_555 1_555
C313 C308 1_555 1_555
H210 C313 1_555 1_555
C314 O80 1_555 1_555
C315 N94 1_555 1_555
H211 C315 1_555 1_555
C316 C315 1_555 1_555
C317 C316 1_555 1_555
H212 C317 1_555 1_555
C318 C317 1_555 1_555
H213 C318 1_555 1_555
C319 C318 1_555 1_555
H214 C319 1_555 1_555
C320 C319 1_555 1_555
H215 C320 1_555 1_555
N96 Zn4 1_555 1_555
Zn7 O81 1_555 1_555
O82 Zn7 1_555 1_555
O83 Zn7 1_555 1_555
O84 Zn7 1_555 1_555
O85 Zn7 1_555 1_555
O86 Zn7 1_555 1_555
N97 C321 1_555 1_555
C321 O86 1_555 1_555
H216 C321 1_555 1_555
C322 N97 1_555 1_555
H217 C322 1_555 1_555
H218 C322 1_555 1_555
H219 C322 1_555 1_555
C323 N97 1_555 1_555
H220 C323 1_555 1_555
H221 C323 1_555 1_555
H222 C323 1_555 1_555
C324 H223 1_555 1_555
C325 H224 1_555 1_555
H225 C325 1_555 1_555
H226 C325 1_555 1_555
C326 H227 1_555 1_555
H228 C326 1_555 1_555
H229 C326 1_555 1_555
N98 C324 1_555 1_555
O87 C324 1_555 1_555
C327 H230 1_555 1_555
C328 H231 1_555 1_555
H232 C328 1_555 1_555
H233 C328 1_555 1_555
C329 H234 1_555 1_555
H235 C329 1_555 1_555
H236 C329 1_555 1_555
N99 C327 1_555 1_555
O88 C327 1_555 1_555
C330 H237 1_555 1_555
C331 H238 1_555 1_555
H239 C331 1_555 1_555
H240 C331 1_555 1_555
C332 H241 1_555 1_555
H242 C332 1_555 1_555
H243 C332 1_555 1_555
N100 C330 1_555 1_555
O89 C330 1_555 1_555
C4 C5 1_555 1_555
C5 C6 1_555 1_555
C9 C10 1_555 1_555
C12 C13 1_555 1_555
C12 C14 1_555 1_555
C16 N6 1_555 1_555
C20 N6 1_555 1_555
C24 C25 1_555 1_555
C25 C26 1_555 1_555
C29 C30 1_555 1_555
C32 C33 1_555 1_555
C32 C34 1_555 1_555
C36 N12 1_555 1_555
C40 N12 1_555 1_555
N14 C47 1_555 1_555
C44 C45 1_555 1_555
C45 C46 1_555 1_555
C49 C50 1_555 1_555
C52 C53 1_555 1_555
C52 C54 1_555 1_555
C56 N18 1_555 1_555
C60 N18 1_555 1_555
N20 C67 1_555 1_555
N21 C74 1_555 1_555
C64 C65 1_555 1_555
C65 C66 1_555 1_555
C69 C70 1_555 1_555
C72 C73 1_555 1_555
C72 C74 1_555 1_555
C76 N24 1_555 1_555
C80 N24 1_555 1_555
C84 C85 1_555 1_555
C85 C86 1_555 1_555
C89 C90 1_555 1_555
C92 C93 1_555 1_555
C92 C94 1_555 1_555
C96 N30 1_555 1_555
C100 N30 1_555 1_555
N32 C107 1_555 1_555
N33 N34 1_555 1_555
C104 C105 1_555 1_555
C105 C106 1_555 1_555
C109 C110 1_555 1_555
C112 C113 1_555 1_555
C112 C114 1_555 1_555
C116 N36 1_555 1_555
C120 N36 1_555 1_555
N38 C127 1_555 1_555
C124 C125 1_555 1_555
C125 C126 1_555 1_555
C129 C130 1_555 1_555
C132 C133 1_555 1_555
C132 C134 1_555 1_555
C136 N42 1_555 1_555
C140 N42 1_555 1_555
N44 C147 1_555 1_555
N45 C154 1_555 1_555
C144 C145 1_555 1_555
C145 C146 1_555 1_555
C149 C150 1_555 1_555
C152 C153 1_555 1_555
C152 C154 1_555 1_555
C156 N48 1_555 1_555
C160 N48 1_555 1_555
C164 C165 1_555 1_555
C165 C166 1_555 1_555
C169 C170 1_555 1_555
C172 C173 1_555 1_555
C172 C174 1_555 1_555
C176 N54 1_555 1_555
C180 N54 1_555 1_555
C184 C185 1_555 1_555
C185 C186 1_555 1_555
C189 C190 1_555 1_555
C192 C193 1_555 1_555
C192 C194 1_555 1_555
C196 N60 1_555 1_555
C200 N60 1_555 1_555
N62 C207 1_555 1_555
C204 C205 1_555 1_555
C205 C206 1_555 1_555
C209 C210 1_555 1_555
C212 C213 1_555 1_555
C212 C214 1_555 1_555
C216 N66 1_555 1_555
C220 N66 1_555 1_555
N68 C227 1_555 1_555
N69 C234 1_555 1_555
C224 C225 1_555 1_555
C225 C226 1_555 1_555
C229 C230 1_555 1_555
C232 C233 1_555 1_555
C232 C234 1_555 1_555
C236 N72 1_555 1_555
C240 N72 1_555 1_555
N75 N76 1_555 1_555
C244 C245 1_555 1_555
C245 C246 1_555 1_555
C249 C250 1_555 1_555
C252 C253 1_555 1_555
C252 C254 1_555 1_555
C256 N78 1_555 1_555
C260 N78 1_555 1_555
N80 C267 1_555 1_555
C264 C265 1_555 1_555
C265 C266 1_555 1_555
C269 C270 1_555 1_555
C272 C273 1_555 1_555
C272 C274 1_555 1_555
C276 N84 1_555 1_555
C280 N84 1_555 1_555
N86 C287 1_555 1_555
C284 C285 1_555 1_555
C285 C286 1_555 1_555
C289 C290 1_555 1_555
C292 C293 1_555 1_555
C292 C294 1_555 1_555
C296 N90 1_555 1_555
C300 N90 1_555 1_555
N92 C307 1_555 1_555
N93 C314 1_555 1_555
C304 C305 1_555 1_555
C305 C306 1_555 1_555
C309 C310 1_555 1_555
C312 C313 1_555 1_555
C312 C314 1_555 1_555
C316 N96 1_555 1_555
C320 N96 1_555 1_555
C325 N98 1_555 1_555
C326 N98 1_555 1_555
C328 N99 1_555 1_555
C329 N99 1_555 1_555
C331 N100 1_555 1_555
C332 N100 1_555 1_555

#END
