# generated using pymatgen
data_ZnH16C24S2(N3O4)2
_symmetry_space_group_name_H-M   'P 1'
_cell_length_a   16.46410000
_cell_length_b   16.46410000
_cell_length_c   53.39700000
_cell_angle_alpha   90.00000000
_cell_angle_beta   90.00000000
_cell_angle_gamma   90.00000000
_symmetry_Int_Tables_number   1
_chemical_formula_structural   ZnH16C24S2(N3O4)2
_chemical_formula_sum   'Zn16 H256 C384 S32 N96 O128'
_cell_volume   14474.14264269
_cell_formula_units_Z   16
loop_
 _symmetry_equiv_pos_site_id
 _symmetry_equiv_pos_as_xyz
  1  'x, y, z'
loop_
 _atom_site_type_symbol
 _atom_site_label
 _atom_site_symmetry_multiplicity
 _atom_site_fract_x
 _atom_site_fract_y
 _atom_site_fract_z
 _atom_site_occupancy
  Zn  Zn1  1  0.316310  0.552660  0.363880  1.0
  Zn  Zn2  1  0.683690  0.947340  0.363880  1.0
  Zn  Zn3  1  0.197340  0.566310  0.613880  1.0
  Zn  Zn4  1  0.802660  0.933690  0.613880  1.0
  Zn  Zn5  1  0.816310  0.052660  0.863880  1.0
  Zn  Zn6  1  0.183690  0.447340  0.863880  1.0
  Zn  Zn7  1  0.697340  0.066310  0.113880  1.0
  Zn  Zn8  1  0.302660  0.433690  0.113880  1.0
  Zn  Zn9  1  0.683690  0.447340  0.636120  1.0
  Zn  Zn10  1  0.316310  0.052660  0.636120  1.0
  Zn  Zn11  1  0.802660  0.433690  0.386120  1.0
  Zn  Zn12  1  0.197340  0.066310  0.386120  1.0
  Zn  Zn13  1  0.183690  0.947340  0.136120  1.0
  Zn  Zn14  1  0.816310  0.552660  0.136120  1.0
  Zn  Zn15  1  0.302660  0.933690  0.886120  1.0
  Zn  Zn16  1  0.697340  0.566310  0.886120  1.0
  H  H17  1  0.311800  0.465800  0.461200  1
  H  H18  1  0.688200  0.034200  0.461200  1
  H  H19  1  0.284200  0.561800  0.711200  1
  H  H20  1  0.715800  0.938200  0.711200  1
  H  H21  1  0.811800  0.965800  0.961200  1
  H  H22  1  0.188200  0.534200  0.961200  1
  H  H23  1  0.784200  0.061800  0.211200  1
  H  H24  1  0.215800  0.438200  0.211200  1
  H  H25  1  0.688200  0.534200  0.538800  1
  H  H26  1  0.311800  0.965800  0.538800  1
  H  H27  1  0.715800  0.438200  0.288800  1
  H  H28  1  0.284200  0.061800  0.288800  1
  H  H29  1  0.188200  0.034200  0.038800  1
  H  H30  1  0.811800  0.465800  0.038800  1
  H  H31  1  0.215800  0.938200  0.788800  1
  H  H32  1  0.784200  0.561800  0.788800  1
  H  H33  1  0.257400  0.227800  0.471900  1
  H  H34  1  0.742600  0.272200  0.471900  1
  H  H35  1  0.522200  0.507400  0.721900  1
  H  H36  1  0.477800  0.992600  0.721900  1
  H  H37  1  0.757400  0.727800  0.971900  1
  H  H38  1  0.242600  0.772200  0.971900  1
  H  H39  1  0.022200  0.007400  0.221900  1
  H  H40  1  0.977800  0.492600  0.221900  1
  H  H41  1  0.742600  0.772200  0.528100  1
  H  H42  1  0.257400  0.727800  0.528100  1
  H  H43  1  0.477800  0.492600  0.278100  1
  H  H44  1  0.522200  0.007400  0.278100  1
  H  H45  1  0.242600  0.272200  0.028100  1
  H  H46  1  0.757400  0.227800  0.028100  1
  H  H47  1  0.977800  0.992600  0.778100  1
  H  H48  1  0.022200  0.507400  0.778100  1
  H  H49  1  0.287000  0.315400  0.401500  1
  H  H50  1  0.713000  0.184600  0.401500  1
  H  H51  1  0.434600  0.537000  0.651500  1
  H  H52  1  0.565400  0.963000  0.651500  1
  H  H53  1  0.787000  0.815400  0.901500  1
  H  H54  1  0.213000  0.684600  0.901500  1
  H  H55  1  0.934600  0.037000  0.151500  1
  H  H56  1  0.065400  0.463000  0.151500  1
  H  H57  1  0.713000  0.684600  0.598500  1
  H  H58  1  0.287000  0.815400  0.598500  1
  H  H59  1  0.565400  0.463000  0.348500  1
  H  H60  1  0.434600  0.037000  0.348500  1
  H  H61  1  0.213000  0.184600  0.098500  1
  H  H62  1  0.787000  0.315400  0.098500  1
  H  H63  1  0.065400  0.963000  0.848500  1
  H  H64  1  0.934600  0.537000  0.848500  1
  H  H65  1  0.332100  0.705200  0.323100  1.0
  H  H66  1  0.667900  0.794800  0.323100  1.0
  H  H67  1  0.044800  0.582100  0.573100  1.0
  H  H68  1  0.955200  0.917900  0.573100  1.0
  H  H69  1  0.832100  0.205200  0.823100  1.0
  H  H70  1  0.167900  0.294800  0.823100  1.0
  H  H71  1  0.544800  0.082100  0.073100  1.0
  H  H72  1  0.455200  0.417900  0.073100  1.0
  H  H73  1  0.667900  0.294800  0.676900  1.0
  H  H74  1  0.332100  0.205200  0.676900  1.0
  H  H75  1  0.955200  0.417900  0.426900  1.0
  H  H76  1  0.044800  0.082100  0.426900  1.0
  H  H77  1  0.167900  0.794800  0.176900  1.0
  H  H78  1  0.832100  0.705200  0.176900  1.0
  H  H79  1  0.455200  0.917900  0.926900  1.0
  H  H80  1  0.544800  0.582100  0.926900  1.0
  H  H81  1  0.376000  0.841000  0.323400  1.0
  H  H82  1  0.624000  0.659000  0.323400  1.0
  H  H83  1  0.909000  0.626000  0.573400  1.0
  H  H84  1  0.091000  0.874000  0.573400  1.0
  H  H85  1  0.876000  0.341000  0.823400  1.0
  H  H86  1  0.124000  0.159000  0.823400  1.0
  H  H87  1  0.409000  0.126000  0.073400  1.0
  H  H88  1  0.591000  0.374000  0.073400  1.0
  H  H89  1  0.624000  0.159000  0.676600  1.0
  H  H90  1  0.376000  0.341000  0.676600  1.0
  H  H91  1  0.091000  0.374000  0.426600  1.0
  H  H92  1  0.909000  0.126000  0.426600  1.0
  H  H93  1  0.124000  0.659000  0.176600  1.0
  H  H94  1  0.876000  0.841000  0.176600  1.0
  H  H95  1  0.591000  0.874000  0.926600  1.0
  H  H96  1  0.409000  0.626000  0.926600  1.0
  H  H97  1  0.424000  0.896000  0.361400  1.0
  H  H98  1  0.576000  0.604000  0.361400  1.0
  H  H99  1  0.854000  0.674000  0.611400  1.0
  H  H100  1  0.146000  0.826000  0.611400  1.0
  H  H101  1  0.924000  0.396000  0.861400  1.0
  H  H102  1  0.076000  0.104000  0.861400  1.0
  H  H103  1  0.354000  0.174000  0.111400  1.0
  H  H104  1  0.646000  0.326000  0.111400  1.0
  H  H105  1  0.576000  0.104000  0.638600  1.0
  H  H106  1  0.424000  0.396000  0.638600  1.0
  H  H107  1  0.146000  0.326000  0.388600  1.0
  H  H108  1  0.854000  0.174000  0.388600  1.0
  H  H109  1  0.076000  0.604000  0.138600  1.0
  H  H110  1  0.924000  0.896000  0.138600  1.0
  H  H111  1  0.646000  0.826000  0.888600  1.0
  H  H112  1  0.354000  0.674000  0.888600  1.0
  H  H113  1  0.409100  0.822000  0.398500  1.0
  H  H114  1  0.590900  0.678000  0.398500  1.0
  H  H115  1  0.928000  0.659100  0.648500  1.0
  H  H116  1  0.072000  0.840900  0.648500  1.0
  H  H117  1  0.909100  0.322000  0.898500  1.0
  H  H118  1  0.090900  0.178000  0.898500  1.0
  H  H119  1  0.428000  0.159100  0.148500  1.0
  H  H120  1  0.572000  0.340900  0.148500  1.0
  H  H121  1  0.590900  0.178000  0.601500  1.0
  H  H122  1  0.409100  0.322000  0.601500  1.0
  H  H123  1  0.072000  0.340900  0.351500  1.0
  H  H124  1  0.928000  0.159100  0.351500  1.0
  H  H125  1  0.090900  0.678000  0.101500  1.0
  H  H126  1  0.909100  0.822000  0.101500  1.0
  H  H127  1  0.572000  0.840900  0.851500  1.0
  H  H128  1  0.428000  0.659100  0.851500  1.0
  H  H129  1  0.376600  0.687100  0.419500  1.0
  H  H130  1  0.623400  0.812900  0.419500  1.0
  H  H131  1  0.062900  0.626600  0.669500  1.0
  H  H132  1  0.937100  0.873400  0.669500  1.0
  H  H133  1  0.876600  0.187100  0.919500  1.0
  H  H134  1  0.123400  0.312900  0.919500  1.0
  H  H135  1  0.562900  0.126600  0.169500  1.0
  H  H136  1  0.437100  0.373400  0.169500  1.0
  H  H137  1  0.623400  0.312900  0.580500  1.0
  H  H138  1  0.376600  0.187100  0.580500  1.0
  H  H139  1  0.937100  0.373400  0.330500  1.0
  H  H140  1  0.062900  0.126600  0.330500  1.0
  H  H141  1  0.123400  0.812900  0.080500  1.0
  H  H142  1  0.876600  0.687100  0.080500  1.0
  H  H143  1  0.437100  0.873400  0.830500  1.0
  H  H144  1  0.562900  0.626600  0.830500  1.0
  H  H145  1  0.229800  0.966700  0.450100  1.0
  H  H146  1  0.770200  0.533300  0.450100  1.0
  H  H147  1  0.783300  0.479800  0.700100  1.0
  H  H148  1  0.216700  0.020200  0.700100  1.0
  H  H149  1  0.729800  0.466700  0.950100  1.0
  H  H150  1  0.270200  0.033300  0.950100  1.0
  H  H151  1  0.283300  0.979800  0.200100  1.0
  H  H152  1  0.716700  0.520200  0.200100  1.0
  H  H153  1  0.770200  0.033300  0.549900  1.0
  H  H154  1  0.229800  0.466700  0.549900  1.0
  H  H155  1  0.216700  0.520200  0.299900  1.0
  H  H156  1  0.783300  0.979800  0.299900  1.0
  H  H157  1  0.270200  0.533300  0.049900  1.0
  H  H158  1  0.729800  0.966700  0.049900  1.0
  H  H159  1  0.716700  0.020200  0.799900  1.0
  H  H160  1  0.283300  0.479800  0.799900  1.0
  H  H161  1  0.198700  0.817500  0.440500  1.0
  H  H162  1  0.801300  0.682500  0.440500  1.0
  H  H163  1  0.932500  0.448700  0.690500  1.0
  H  H164  1  0.067500  0.051300  0.690500  1.0
  H  H165  1  0.698700  0.317500  0.940500  1.0
  H  H166  1  0.301300  0.182500  0.940500  1.0
  H  H167  1  0.432500  0.948700  0.190500  1.0
  H  H168  1  0.567500  0.551300  0.190500  1.0
  H  H169  1  0.801300  0.182500  0.559500  1.0
  H  H170  1  0.198700  0.317500  0.559500  1.0
  H  H171  1  0.067500  0.551300  0.309500  1.0
  H  H172  1  0.932500  0.948700  0.309500  1.0
  H  H173  1  0.301300  0.682500  0.059500  1.0
  H  H174  1  0.698700  0.817500  0.059500  1.0
  H  H175  1  0.567500  0.051300  0.809500  1.0
  H  H176  1  0.432500  0.448700  0.809500  1.0
  H  H177  1  0.168600  0.718300  0.410800  1.0
  H  H178  1  0.831400  0.781700  0.410800  1.0
  H  H179  1  0.031700  0.418600  0.660800  1.0
  H  H180  1  0.968300  0.081400  0.660800  1.0
  H  H181  1  0.668600  0.218300  0.910800  1.0
  H  H182  1  0.331400  0.281700  0.910800  1.0
  H  H183  1  0.531700  0.918600  0.160800  1.0
  H  H184  1  0.468300  0.581400  0.160800  1.0
  H  H185  1  0.831400  0.281700  0.589200  1.0
  H  H186  1  0.168600  0.218300  0.589200  1.0
  H  H187  1  0.968300  0.581400  0.339200  1.0
  H  H188  1  0.031700  0.918600  0.339200  1.0
  H  H189  1  0.331400  0.781700  0.089200  1.0
  H  H190  1  0.668600  0.718300  0.089200  1.0
  H  H191  1  0.468300  0.081400  0.839200  1.0
  H  H192  1  0.531700  0.418600  0.839200  1.0
  H  H193  1  0.153300  0.755200  0.368500  1.0
  H  H194  1  0.846700  0.744800  0.368500  1.0
  H  H195  1  0.994800  0.403300  0.618500  1.0
  H  H196  1  0.005200  0.096700  0.618500  1.0
  H  H197  1  0.653300  0.255200  0.868500  1.0
  H  H198  1  0.346700  0.244800  0.868500  1.0
  H  H199  1  0.494800  0.903300  0.118500  1.0
  H  H200  1  0.505200  0.596700  0.118500  1.0
  H  H201  1  0.846700  0.244800  0.631500  1.0
  H  H202  1  0.153300  0.255200  0.631500  1.0
  H  H203  1  0.005200  0.596700  0.381500  1.0
  H  H204  1  0.994800  0.903300  0.381500  1.0
  H  H205  1  0.346700  0.744800  0.131500  1.0
  H  H206  1  0.653300  0.755200  0.131500  1.0
  H  H207  1  0.505200  0.096700  0.881500  1.0
  H  H208  1  0.494800  0.403300  0.881500  1.0
  H  H209  1  0.163600  0.892400  0.357400  1.0
  H  H210  1  0.836400  0.607600  0.357400  1.0
  H  H211  1  0.857600  0.413600  0.607400  1.0
  H  H212  1  0.142400  0.086400  0.607400  1.0
  H  H213  1  0.663600  0.392400  0.857400  1.0
  H  H214  1  0.336400  0.107600  0.857400  1.0
  H  H215  1  0.357600  0.913600  0.107400  1.0
  H  H216  1  0.642400  0.586400  0.107400  1.0
  H  H217  1  0.836400  0.107600  0.642600  1.0
  H  H218  1  0.163600  0.392400  0.642600  1.0
  H  H219  1  0.142400  0.586400  0.392600  1.0
  H  H220  1  0.857600  0.913600  0.392600  1.0
  H  H221  1  0.336400  0.607600  0.142600  1.0
  H  H222  1  0.663600  0.892400  0.142600  1.0
  H  H223  1  0.642400  0.086400  0.892600  1.0
  H  H224  1  0.357600  0.413600  0.892600  1.0
  H  H225  1  0.324000  0.463300  0.461100  1.0
  H  H226  1  0.676000  0.036700  0.461100  1.0
  H  H227  1  0.286700  0.574000  0.711100  1.0
  H  H228  1  0.713300  0.926000  0.711100  1.0
  H  H229  1  0.824000  0.963300  0.961100  1.0
  H  H230  1  0.176000  0.536700  0.961100  1.0
  H  H231  1  0.786700  0.074000  0.211100  1.0
  H  H232  1  0.213300  0.426000  0.211100  1.0
  H  H233  1  0.676000  0.536700  0.538900  1.0
  H  H234  1  0.324000  0.963300  0.538900  1.0
  H  H235  1  0.713300  0.426000  0.288900  1.0
  H  H236  1  0.286700  0.074000  0.288900  1.0
  H  H237  1  0.176000  0.036700  0.038900  1.0
  H  H238  1  0.824000  0.463300  0.038900  1.0
  H  H239  1  0.213300  0.926000  0.788900  1.0
  H  H240  1  0.786700  0.574000  0.788900  1.0
  H  H241  1  0.269500  0.225600  0.472000  1.0
  H  H242  1  0.730500  0.274400  0.472000  1.0
  H  H243  1  0.524400  0.519500  0.722000  1.0
  H  H244  1  0.475600  0.980500  0.722000  1.0
  H  H245  1  0.769500  0.725600  0.972000  1.0
  H  H246  1  0.230500  0.774400  0.972000  1.0
  H  H247  1  0.024400  0.019500  0.222000  1.0
  H  H248  1  0.975600  0.480500  0.222000  1.0
  H  H249  1  0.730500  0.774400  0.528000  1.0
  H  H250  1  0.269500  0.725600  0.528000  1.0
  H  H251  1  0.475600  0.480500  0.278000  1.0
  H  H252  1  0.524400  0.019500  0.278000  1.0
  H  H253  1  0.230500  0.274400  0.028000  1.0
  H  H254  1  0.769500  0.225600  0.028000  1.0
  H  H255  1  0.975600  0.980500  0.778000  1.0
  H  H256  1  0.024400  0.519500  0.778000  1.0
  H  H257  1  0.278600  0.317400  0.401600  1.0
  H  H258  1  0.721400  0.182600  0.401600  1.0
  H  H259  1  0.432600  0.528600  0.651600  1.0
  H  H260  1  0.567400  0.971400  0.651600  1.0
  H  H261  1  0.778600  0.817400  0.901600  1.0
  H  H262  1  0.221400  0.682600  0.901600  1.0
  H  H263  1  0.932600  0.028600  0.151600  1.0
  H  H264  1  0.067400  0.471400  0.151600  1.0
  H  H265  1  0.721400  0.682600  0.598400  1.0
  H  H266  1  0.278600  0.817400  0.598400  1.0
  H  H267  1  0.567400  0.471400  0.348400  1.0
  H  H268  1  0.432600  0.028600  0.348400  1.0
  H  H269  1  0.221400  0.182600  0.098400  1.0
  H  H270  1  0.778600  0.317400  0.098400  1.0
  H  H271  1  0.067400  0.971400  0.848400  1.0
  H  H272  1  0.932600  0.528600  0.848400  1.0
  C  C273  1  0.301600  0.413300  0.454530  1
  C  C274  1  0.698400  0.086700  0.454530  1
  C  C275  1  0.336700  0.551600  0.704530  1
  C  C276  1  0.663300  0.948400  0.704530  1
  C  C277  1  0.801600  0.913300  0.954530  1
  C  C278  1  0.198400  0.586700  0.954530  1
  C  C279  1  0.836700  0.051600  0.204530  1
  C  C280  1  0.163300  0.448400  0.204530  1
  C  C281  1  0.698400  0.586700  0.545470  1
  C  C282  1  0.301600  0.913300  0.545470  1
  C  C283  1  0.663300  0.448400  0.295470  1
  C  C284  1  0.336700  0.051600  0.295470  1
  C  C285  1  0.198400  0.086700  0.045470  1
  C  C286  1  0.801600  0.413300  0.045470  1
  C  C287  1  0.163300  0.948400  0.795470  1
  C  C288  1  0.836700  0.551600  0.795470  1
  C  C289  1  0.284700  0.348400  0.470490  1
  C  C290  1  0.715300  0.151600  0.470490  1
  C  C291  1  0.401600  0.534700  0.720490  1
  C  C292  1  0.598400  0.965300  0.720490  1
  C  C293  1  0.784700  0.848400  0.970490  1
  C  C294  1  0.215300  0.651600  0.970490  1
  C  C295  1  0.901600  0.034700  0.220490  1
  C  C296  1  0.098400  0.465300  0.220490  1
  C  C297  1  0.715300  0.651600  0.529510  1
  C  C298  1  0.284700  0.848400  0.529510  1
  C  C299  1  0.598400  0.465300  0.279510  1
  C  C300  1  0.401600  0.034700  0.279510  1
  C  C301  1  0.215300  0.151600  0.029510  1
  C  C302  1  0.784700  0.348400  0.029510  1
  C  C303  1  0.098400  0.965300  0.779510  1
  C  C304  1  0.901600  0.534700  0.779510  1
  C  C305  1  0.269400  0.271600  0.460970  1
  C  C306  1  0.730600  0.228400  0.460970  1
  C  C307  1  0.478400  0.519400  0.710970  1
  C  C308  1  0.521600  0.980600  0.710970  1
  C  C309  1  0.769400  0.771600  0.960970  1
  C  C310  1  0.230600  0.728400  0.960970  1
  C  C311  1  0.978400  0.019400  0.210970  1
  C  C312  1  0.021600  0.480600  0.210970  1
  C  C313  1  0.730600  0.728400  0.539030  1
  C  C314  1  0.269400  0.771600  0.539030  1
  C  C315  1  0.521600  0.480600  0.289030  1
  C  C316  1  0.478400  0.019400  0.289030  1
  C  C317  1  0.230600  0.228400  0.039030  1
  C  C318  1  0.769400  0.271600  0.039030  1
  C  C319  1  0.021600  0.980600  0.789030  1
  C  C320  1  0.978400  0.519400  0.789030  1
  C  C321  1  0.287300  0.323800  0.419070  1
  C  C322  1  0.712700  0.176200  0.419070  1
  C  C323  1  0.426200  0.537300  0.669070  1
  C  C324  1  0.573800  0.962700  0.669070  1
  C  C325  1  0.787300  0.823800  0.919070  1
  C  C326  1  0.212700  0.676200  0.919070  1
  C  C327  1  0.926200  0.037300  0.169070  1
  C  C328  1  0.073800  0.462700  0.169070  1
  C  C329  1  0.712700  0.676200  0.580930  1
  C  C330  1  0.287300  0.823800  0.580930  1
  C  C331  1  0.573800  0.462700  0.330930  1
  C  C332  1  0.426200  0.037300  0.330930  1
  C  C333  1  0.212700  0.176200  0.080930  1
  C  C334  1  0.787300  0.323800  0.080930  1
  C  C335  1  0.073800  0.962700  0.830930  1
  C  C336  1  0.926200  0.537300  0.830930  1
  C  C337  1  0.348800  0.729300  0.338380  1.0
  C  C338  1  0.651200  0.770700  0.338380  1.0
  C  C339  1  0.020700  0.598800  0.588380  1.0
  C  C340  1  0.979300  0.901200  0.588380  1.0
  C  C341  1  0.848800  0.229300  0.838380  1.0
  C  C342  1  0.151200  0.270700  0.838380  1.0
  C  C343  1  0.520700  0.098800  0.088380  1.0
  C  C344  1  0.479300  0.401200  0.088380  1.0
  C  C345  1  0.651200  0.270700  0.661620  1.0
  C  C346  1  0.348800  0.229300  0.661620  1.0
  C  C347  1  0.979300  0.401200  0.411620  1.0
  C  C348  1  0.020700  0.098800  0.411620  1.0
  C  C349  1  0.151200  0.770700  0.161620  1.0
  C  C350  1  0.848800  0.729300  0.161620  1.0
  C  C351  1  0.479300  0.901200  0.911620  1.0
  C  C352  1  0.520700  0.598800  0.911620  1.0
  C  C353  1  0.375600  0.809700  0.338340  1.0
  C  C354  1  0.624400  0.690300  0.338340  1.0
  C  C355  1  0.940300  0.625600  0.588340  1.0
  C  C356  1  0.059700  0.874400  0.588340  1.0
  C  C357  1  0.875600  0.309700  0.838340  1.0
  C  C358  1  0.124400  0.190300  0.838340  1.0
  C  C359  1  0.440300  0.125600  0.088340  1.0
  C  C360  1  0.559700  0.374400  0.088340  1.0
  C  C361  1  0.624400  0.190300  0.661660  1.0
  C  C362  1  0.375600  0.309700  0.661660  1.0
  C  C363  1  0.059700  0.374400  0.411660  1.0
  C  C364  1  0.940300  0.125600  0.411660  1.0
  C  C365  1  0.124400  0.690300  0.161660  1.0
  C  C366  1  0.875600  0.809700  0.161660  1.0
  C  C367  1  0.559700  0.874400  0.911660  1.0
  C  C368  1  0.440300  0.625600  0.911660  1.0
  C  C369  1  0.401800  0.842700  0.361020  1.0
  C  C370  1  0.598200  0.657300  0.361020  1.0
  C  C371  1  0.907300  0.651800  0.611020  1.0
  C  C372  1  0.092700  0.848200  0.611020  1.0
  C  C373  1  0.901800  0.342700  0.861020  1.0
  C  C374  1  0.098200  0.157300  0.861020  1.0
  C  C375  1  0.407300  0.151800  0.111020  1.0
  C  C376  1  0.592700  0.348200  0.111020  1.0
  C  C377  1  0.598200  0.157300  0.638980  1.0
  C  C378  1  0.401800  0.342700  0.638980  1.0
  C  C379  1  0.092700  0.348200  0.388980  1.0
  C  C380  1  0.907300  0.151800  0.388980  1.0
  C  C381  1  0.098200  0.657300  0.138980  1.0
  C  C382  1  0.901800  0.842700  0.138980  1.0
  C  C383  1  0.592700  0.848200  0.888980  1.0
  C  C384  1  0.407300  0.651800  0.888980  1.0
  C  C385  1  0.395600  0.798400  0.382820  1.0
  C  C386  1  0.604400  0.701600  0.382820  1.0
  C  C387  1  0.951600  0.645600  0.632820  1.0
  C  C388  1  0.048400  0.854400  0.632820  1.0
  C  C389  1  0.895600  0.298400  0.882820  1.0
  C  C390  1  0.104400  0.201600  0.882820  1.0
  C  C391  1  0.451600  0.145600  0.132820  1.0
  C  C392  1  0.548400  0.354400  0.132820  1.0
  C  C393  1  0.604400  0.201600  0.617180  1.0
  C  C394  1  0.395600  0.298400  0.617180  1.0
  C  C395  1  0.048400  0.354400  0.367180  1.0
  C  C396  1  0.951600  0.145600  0.367180  1.0
  C  C397  1  0.104400  0.701600  0.117180  1.0
  C  C398  1  0.895600  0.798400  0.117180  1.0
  C  C399  1  0.548400  0.854400  0.867180  1.0
  C  C400  1  0.451600  0.645600  0.867180  1.0
  C  C401  1  0.368900  0.718300  0.381320  1.0
  C  C402  1  0.631100  0.781700  0.381320  1.0
  C  C403  1  0.031700  0.618900  0.631320  1.0
  C  C404  1  0.968300  0.881100  0.631320  1.0
  C  C405  1  0.868900  0.218300  0.881320  1.0
  C  C406  1  0.131100  0.281700  0.881320  1.0
  C  C407  1  0.531700  0.118900  0.131320  1.0
  C  C408  1  0.468300  0.381100  0.131320  1.0
  C  C409  1  0.631100  0.281700  0.618680  1.0
  C  C410  1  0.368900  0.218300  0.618680  1.0
  C  C411  1  0.968300  0.381100  0.368680  1.0
  C  C412  1  0.031700  0.118900  0.368680  1.0
  C  C413  1  0.131100  0.781700  0.118680  1.0
  C  C414  1  0.868900  0.718300  0.118680  1.0
  C  C415  1  0.468300  0.881100  0.868680  1.0
  C  C416  1  0.531700  0.618900  0.868680  1.0
  C  C417  1  0.364100  0.667200  0.403270  1.0
  C  C418  1  0.635900  0.832800  0.403270  1.0
  C  C419  1  0.082800  0.614100  0.653270  1.0
  C  C420  1  0.917200  0.885900  0.653270  1.0
  C  C421  1  0.864100  0.167200  0.903270  1.0
  C  C422  1  0.135900  0.332800  0.903270  1.0
  C  C423  1  0.582800  0.114100  0.153270  1.0
  C  C424  1  0.417200  0.385900  0.153270  1.0
  C  C425  1  0.635900  0.332800  0.596730  1.0
  C  C426  1  0.364100  0.167200  0.596730  1.0
  C  C427  1  0.917200  0.385900  0.346730  1.0
  C  C428  1  0.082800  0.114100  0.346730  1.0
  C  C429  1  0.135900  0.832800  0.096730  1.0
  C  C430  1  0.864100  0.667200  0.096730  1.0
  C  C431  1  0.417200  0.885900  0.846730  1.0
  C  C432  1  0.582800  0.614100  0.846730  1.0
  C  C433  1  0.315200  0.467000  0.410350  1.0
  C  C434  1  0.684800  0.033000  0.410350  1.0
  C  C435  1  0.283000  0.565200  0.660350  1.0
  C  C436  1  0.717000  0.934800  0.660350  1.0
  C  C437  1  0.815200  0.967000  0.910350  1.0
  C  C438  1  0.184800  0.533000  0.910350  1.0
  C  C439  1  0.783000  0.065200  0.160350  1.0
  C  C440  1  0.217000  0.434800  0.160350  1.0
  C  C441  1  0.684800  0.533000  0.589650  1.0
  C  C442  1  0.315200  0.967000  0.589650  1.0
  C  C443  1  0.717000  0.434800  0.339650  1.0
  C  C444  1  0.283000  0.065200  0.339650  1.0
  C  C445  1  0.184800  0.033000  0.089650  1.0
  C  C446  1  0.815200  0.467000  0.089650  1.0
  C  C447  1  0.217000  0.934800  0.839650  1.0
  C  C448  1  0.783000  0.565200  0.839650  1.0
  C  C449  1  0.249200  0.178700  0.423200  1.0
  C  C450  1  0.750800  0.321300  0.423200  1.0
  C  C451  1  0.571300  0.499200  0.673200  1.0
  C  C452  1  0.428700  0.000800  0.673200  1.0
  C  C453  1  0.749200  0.678700  0.923200  1.0
  C  C454  1  0.250800  0.821300  0.923200  1.0
  C  C455  1  0.071300  0.999200  0.173200  1.0
  C  C456  1  0.928700  0.500800  0.173200  1.0
  C  C457  1  0.750800  0.821300  0.576800  1.0
  C  C458  1  0.249200  0.678700  0.576800  1.0
  C  C459  1  0.428700  0.500800  0.326800  1.0
  C  C460  1  0.571300  0.999200  0.326800  1.0
  C  C461  1  0.250800  0.321300  0.076800  1.0
  C  C462  1  0.749200  0.178700  0.076800  1.0
  C  C463  1  0.928700  0.000800  0.826800  1.0
  C  C464  1  0.071300  0.499200  0.826800  1.0
  C  C465  1  0.220100  0.977000  0.432840  1.0
  C  C466  1  0.779900  0.523000  0.432840  1.0
  C  C467  1  0.773000  0.470100  0.682840  1.0
  C  C468  1  0.227000  0.029900  0.682840  1.0
  C  C469  1  0.720100  0.477000  0.932840  1.0
  C  C470  1  0.279900  0.023000  0.932840  1.0
  C  C471  1  0.273000  0.970100  0.182840  1.0
  C  C472  1  0.727000  0.529900  0.182840  1.0
  C  C473  1  0.779900  0.023000  0.567160  1.0
  C  C474  1  0.220100  0.477000  0.567160  1.0
  C  C475  1  0.227000  0.529900  0.317160  1.0
  C  C476  1  0.773000  0.970100  0.317160  1.0
  C  C477  1  0.279900  0.523000  0.067160  1.0
  C  C478  1  0.720100  0.977000  0.067160  1.0
  C  C479  1  0.727000  0.029900  0.817160  1.0
  C  C480  1  0.273000  0.470100  0.817160  1.0
  C  C481  1  0.199000  0.912700  0.415600  1.0
  C  C482  1  0.801000  0.587300  0.415600  1.0
  C  C483  1  0.837300  0.449000  0.665600  1.0
  C  C484  1  0.162700  0.051000  0.665600  1.0
  C  C485  1  0.699000  0.412700  0.915600  1.0
  C  C486  1  0.301000  0.087300  0.915600  1.0
  C  C487  1  0.337300  0.949000  0.165600  1.0
  C  C488  1  0.662700  0.551000  0.165600  1.0
  C  C489  1  0.801000  0.087300  0.584400  1.0
  C  C490  1  0.199000  0.412700  0.584400  1.0
  C  C491  1  0.162700  0.551000  0.334400  1.0
  C  C492  1  0.837300  0.949000  0.334400  1.0
  C  C493  1  0.301000  0.587300  0.084400  1.0
  C  C494  1  0.699000  0.912700  0.084400  1.0
  C  C495  1  0.662700  0.051000  0.834400  1.0
  C  C496  1  0.337300  0.449000  0.834400  1.0
  C  C497  1  0.191600  0.831700  0.423390  1.0
  C  C498  1  0.808400  0.668300  0.423390  1.0
  C  C499  1  0.918300  0.441600  0.673390  1.0
  C  C500  1  0.081700  0.058400  0.673390  1.0
  C  C501  1  0.691600  0.331700  0.923390  1.0
  C  C502  1  0.308400  0.168300  0.923390  1.0
  C  C503  1  0.418300  0.941600  0.173390  1.0
  C  C504  1  0.581700  0.558400  0.173390  1.0
  C  C505  1  0.808400  0.168300  0.576610  1.0
  C  C506  1  0.191600  0.331700  0.576610  1.0
  C  C507  1  0.081700  0.558400  0.326610  1.0
  C  C508  1  0.918300  0.941600  0.326610  1.0
  C  C509  1  0.308400  0.668300  0.076610  1.0
  C  C510  1  0.691600  0.831700  0.076610  1.0
  C  C511  1  0.581700  0.058400  0.826610  1.0
  C  C512  1  0.418300  0.441600  0.826610  1.0
  C  C513  1  0.174100  0.773500  0.405910  1.0
  C  C514  1  0.825900  0.726500  0.405910  1.0
  C  C515  1  0.976500  0.424100  0.655910  1.0
  C  C516  1  0.023500  0.075900  0.655910  1.0
  C  C517  1  0.674100  0.273500  0.905910  1.0
  C  C518  1  0.325900  0.226500  0.905910  1.0
  C  C519  1  0.476500  0.924100  0.155910  1.0
  C  C520  1  0.523500  0.575900  0.155910  1.0
  C  C521  1  0.825900  0.226500  0.594090  1.0
  C  C522  1  0.174100  0.273500  0.594090  1.0
  C  C523  1  0.023500  0.575900  0.344090  1.0
  C  C524  1  0.976500  0.924100  0.344090  1.0
  C  C525  1  0.325900  0.726500  0.094090  1.0
  C  C526  1  0.674100  0.773500  0.094090  1.0
  C  C527  1  0.523500  0.075900  0.844090  1.0
  C  C528  1  0.476500  0.424100  0.844090  1.0
  C  C529  1  0.164300  0.795200  0.380850  1.0
  C  C530  1  0.835700  0.704800  0.380850  1.0
  C  C531  1  0.954800  0.414300  0.630850  1.0
  C  C532  1  0.045200  0.085700  0.630850  1.0
  C  C533  1  0.664300  0.295200  0.880850  1.0
  C  C534  1  0.335700  0.204800  0.880850  1.0
  C  C535  1  0.454800  0.914300  0.130850  1.0
  C  C536  1  0.545200  0.585700  0.130850  1.0
  C  C537  1  0.835700  0.204800  0.619150  1.0
  C  C538  1  0.164300  0.295200  0.619150  1.0
  C  C539  1  0.045200  0.585700  0.369150  1.0
  C  C540  1  0.954800  0.914300  0.369150  1.0
  C  C541  1  0.335700  0.704800  0.119150  1.0
  C  C542  1  0.664300  0.795200  0.119150  1.0
  C  C543  1  0.545200  0.085700  0.869150  1.0
  C  C544  1  0.454800  0.414300  0.869150  1.0
  C  C545  1  0.170900  0.876800  0.374420  1.0
  C  C546  1  0.829100  0.623200  0.374420  1.0
  C  C547  1  0.873200  0.420900  0.624420  1.0
  C  C548  1  0.126800  0.079100  0.624420  1.0
  C  C549  1  0.670900  0.376800  0.874420  1.0
  C  C550  1  0.329100  0.123200  0.874420  1.0
  C  C551  1  0.373200  0.920900  0.124420  1.0
  C  C552  1  0.626800  0.579100  0.124420  1.0
  C  C553  1  0.829100  0.123200  0.625580  1.0
  C  C554  1  0.170900  0.376800  0.625580  1.0
  C  C555  1  0.126800  0.579100  0.375580  1.0
  C  C556  1  0.873200  0.920900  0.375580  1.0
  C  C557  1  0.329100  0.623200  0.125580  1.0
  C  C558  1  0.670900  0.876800  0.125580  1.0
  C  C559  1  0.626800  0.079100  0.875580  1.0
  C  C560  1  0.373200  0.420900  0.875580  1.0
  C  C561  1  0.303400  0.400800  0.428770  1.0
  C  C562  1  0.696600  0.099200  0.428770  1.0
  C  C563  1  0.349200  0.553400  0.678770  1.0
  C  C564  1  0.650800  0.946600  0.678770  1.0
  C  C565  1  0.803400  0.900800  0.928770  1.0
  C  C566  1  0.196600  0.599200  0.928770  1.0
  C  C567  1  0.849200  0.053400  0.178770  1.0
  C  C568  1  0.150800  0.446600  0.178770  1.0
  C  C569  1  0.696600  0.599200  0.571230  1.0
  C  C570  1  0.303400  0.900800  0.571230  1.0
  C  C571  1  0.650800  0.446600  0.321230  1.0
  C  C572  1  0.349200  0.053400  0.321230  1.0
  C  C573  1  0.196600  0.099200  0.071230  1.0
  C  C574  1  0.803400  0.400800  0.071230  1.0
  C  C575  1  0.150800  0.946600  0.821230  1.0
  C  C576  1  0.849200  0.553400  0.821230  1.0
  C  C577  1  0.271600  0.259300  0.435210  1.0
  C  C578  1  0.728400  0.240700  0.435210  1.0
  C  C579  1  0.490700  0.521600  0.685210  1.0
  C  C580  1  0.509300  0.978400  0.685210  1.0
  C  C581  1  0.771600  0.759300  0.935210  1.0
  C  C582  1  0.228400  0.740700  0.935210  1.0
  C  C583  1  0.990700  0.021600  0.185210  1.0
  C  C584  1  0.009300  0.478400  0.185210  1.0
  C  C585  1  0.728400  0.740700  0.564790  1.0
  C  C586  1  0.271600  0.759300  0.564790  1.0
  C  C587  1  0.509300  0.478400  0.314790  1.0
  C  C588  1  0.490700  0.021600  0.314790  1.0
  C  C589  1  0.228400  0.240700  0.064790  1.0
  C  C590  1  0.771600  0.259300  0.064790  1.0
  C  C591  1  0.009300  0.978400  0.814790  1.0
  C  C592  1  0.990700  0.521600  0.814790  1.0
  C  C593  1  0.310500  0.411500  0.454540  1.0
  C  C594  1  0.689500  0.088500  0.454540  1.0
  C  C595  1  0.338500  0.560500  0.704540  1.0
  C  C596  1  0.661500  0.939500  0.704540  1.0
  C  C597  1  0.810500  0.911500  0.954540  1.0
  C  C598  1  0.189500  0.588500  0.954540  1.0
  C  C599  1  0.838500  0.060500  0.204540  1.0
  C  C600  1  0.161500  0.439500  0.204540  1.0
  C  C601  1  0.689500  0.588500  0.545460  1.0
  C  C602  1  0.310500  0.911500  0.545460  1.0
  C  C603  1  0.661500  0.439500  0.295460  1.0
  C  C604  1  0.338500  0.060500  0.295460  1.0
  C  C605  1  0.189500  0.088500  0.045460  1.0
  C  C606  1  0.810500  0.411500  0.045460  1.0
  C  C607  1  0.161500  0.939500  0.795460  1.0
  C  C608  1  0.838500  0.560500  0.795460  1.0
  C  C609  1  0.298000  0.345800  0.470740  1.0
  C  C610  1  0.702000  0.154200  0.470740  1.0
  C  C611  1  0.404200  0.548000  0.720740  1.0
  C  C612  1  0.595800  0.952000  0.720740  1.0
  C  C613  1  0.798000  0.845800  0.970740  1.0
  C  C614  1  0.202000  0.654200  0.970740  1.0
  C  C615  1  0.904200  0.048000  0.220740  1.0
  C  C616  1  0.095800  0.452000  0.220740  1.0
  C  C617  1  0.702000  0.654200  0.529260  1.0
  C  C618  1  0.298000  0.845800  0.529260  1.0
  C  C619  1  0.595800  0.452000  0.279260  1.0
  C  C620  1  0.404200  0.048000  0.279260  1.0
  C  C621  1  0.202000  0.154200  0.029260  1.0
  C  C622  1  0.798000  0.345800  0.029260  1.0
  C  C623  1  0.095800  0.952000  0.779260  1.0
  C  C624  1  0.904200  0.548000  0.779260  1.0
  C  C625  1  0.278400  0.270100  0.461060  1.0
  C  C626  1  0.721600  0.229900  0.461060  1.0
  C  C627  1  0.479900  0.528400  0.711060  1.0
  C  C628  1  0.520100  0.971600  0.711060  1.0
  C  C629  1  0.778400  0.770100  0.961060  1.0
  C  C630  1  0.221600  0.729900  0.961060  1.0
  C  C631  1  0.979900  0.028400  0.211060  1.0
  C  C632  1  0.020100  0.471600  0.211060  1.0
  C  C633  1  0.721600  0.729900  0.538940  1.0
  C  C634  1  0.278400  0.770100  0.538940  1.0
  C  C635  1  0.520100  0.471600  0.288940  1.0
  C  C636  1  0.479900  0.028400  0.288940  1.0
  C  C637  1  0.221600  0.229900  0.038940  1.0
  C  C638  1  0.778400  0.270100  0.038940  1.0
  C  C639  1  0.020100  0.971600  0.788940  1.0
  C  C640  1  0.979900  0.528400  0.788940  1.0
  C  C641  1  0.283700  0.324700  0.419170  1.0
  C  C642  1  0.716300  0.175300  0.419170  1.0
  C  C643  1  0.425300  0.533700  0.669170  1.0
  C  C644  1  0.574700  0.966300  0.669170  1.0
  C  C645  1  0.783700  0.824700  0.919170  1.0
  C  C646  1  0.216300  0.675300  0.919170  1.0
  C  C647  1  0.925300  0.033700  0.169170  1.0
  C  C648  1  0.074700  0.466300  0.169170  1.0
  C  C649  1  0.716300  0.675300  0.580830  1.0
  C  C650  1  0.283700  0.824700  0.580830  1.0
  C  C651  1  0.574700  0.466300  0.330830  1.0
  C  C652  1  0.425300  0.033700  0.330830  1.0
  C  C653  1  0.216300  0.175300  0.080830  1.0
  C  C654  1  0.783700  0.324700  0.080830  1.0
  C  C655  1  0.074700  0.966300  0.830830  1.0
  C  C656  1  0.925300  0.533700  0.830830  1.0
  S  S657  1  0.280800  0.365000  0.501800  1
  S  S658  1  0.719200  0.135000  0.501800  1
  S  S659  1  0.385000  0.530800  0.751800  1
  S  S660  1  0.615000  0.969200  0.751800  1
  S  S661  1  0.780800  0.865000  0.001800  1
  S  S662  1  0.219200  0.635000  0.001800  1
  S  S663  1  0.885000  0.030800  0.251800  1
  S  S664  1  0.115000  0.469200  0.251800  1
  S  S665  1  0.719200  0.635000  0.498200  1
  S  S666  1  0.280800  0.865000  0.498200  1
  S  S667  1  0.615000  0.469200  0.248200  1
  S  S668  1  0.385000  0.030800  0.248200  1
  S  S669  1  0.219200  0.135000  0.998200  1
  S  S670  1  0.780800  0.365000  0.998200  1
  S  S671  1  0.115000  0.969200  0.748200  1
  S  S672  1  0.885000  0.530800  0.748200  1
  S  S673  1  0.306500  0.359900  0.503620  1.0
  S  S674  1  0.693500  0.140100  0.503620  1.0
  S  S675  1  0.390100  0.556500  0.753620  1.0
  S  S676  1  0.609900  0.943500  0.753620  1.0
  S  S677  1  0.806500  0.859900  0.003620  1.0
  S  S678  1  0.193500  0.640100  0.003620  1.0
  S  S679  1  0.890100  0.056500  0.253620  1.0
  S  S680  1  0.109900  0.443500  0.253620  1.0
  S  S681  1  0.693500  0.640100  0.496380  1.0
  S  S682  1  0.306500  0.859900  0.496380  1.0
  S  S683  1  0.609900  0.443500  0.246380  1.0
  S  S684  1  0.390100  0.056500  0.246380  1.0
  S  S685  1  0.193500  0.140100  0.996380  1.0
  S  S686  1  0.806500  0.359900  0.996380  1.0
  S  S687  1  0.109900  0.943500  0.746380  1.0
  S  S688  1  0.890100  0.556500  0.746380  1.0
  N  N689  1  0.345900  0.684700  0.359650  1.0
  N  N690  1  0.654100  0.815300  0.359650  1.0
  N  N691  1  0.065300  0.595900  0.609650  1.0
  N  N692  1  0.934700  0.904100  0.609650  1.0
  N  N693  1  0.845900  0.184700  0.859650  1.0
  N  N694  1  0.154100  0.315300  0.859650  1.0
  N  N695  1  0.565300  0.095900  0.109650  1.0
  N  N696  1  0.434700  0.404100  0.109650  1.0
  N  N697  1  0.654100  0.315300  0.640350  1.0
  N  N698  1  0.345900  0.184700  0.640350  1.0
  N  N699  1  0.934700  0.404100  0.390350  1.0
  N  N700  1  0.065300  0.095900  0.390350  1.0
  N  N701  1  0.154100  0.815300  0.140350  1.0
  N  N702  1  0.845900  0.684700  0.140350  1.0
  N  N703  1  0.434700  0.904100  0.890350  1.0
  N  N704  1  0.565300  0.595900  0.890350  1.0
  N  N705  1  0.342100  0.593200  0.399600  1.0
  N  N706  1  0.657900  0.906800  0.399600  1.0
  N  N707  1  0.156800  0.592100  0.649600  1.0
  N  N708  1  0.843200  0.907900  0.649600  1.0
  N  N709  1  0.842100  0.093200  0.899600  1.0
  N  N710  1  0.157900  0.406800  0.899600  1.0
  N  N711  1  0.656800  0.092100  0.149600  1.0
  N  N712  1  0.343200  0.407900  0.149600  1.0
  N  N713  1  0.657900  0.406800  0.600400  1.0
  N  N714  1  0.342100  0.093200  0.600400  1.0
  N  N715  1  0.843200  0.407900  0.350400  1.0
  N  N716  1  0.156800  0.092100  0.350400  1.0
  N  N717  1  0.157900  0.906800  0.100400  1.0
  N  N718  1  0.842100  0.593200  0.100400  1.0
  N  N719  1  0.343200  0.907900  0.850400  1.0
  N  N720  1  0.656800  0.592100  0.850400  1.0
  N  N721  1  0.337100  0.540500  0.419370  1.0
  N  N722  1  0.662900  0.959500  0.419370  1.0
  N  N723  1  0.209500  0.587100  0.669370  1.0
  N  N724  1  0.790500  0.912900  0.669370  1.0
  N  N725  1  0.837100  0.040500  0.919370  1.0
  N  N726  1  0.162900  0.459500  0.919370  1.0
  N  N727  1  0.709500  0.087100  0.169370  1.0
  N  N728  1  0.290500  0.412900  0.169370  1.0
  N  N729  1  0.662900  0.459500  0.580630  1.0
  N  N730  1  0.337100  0.040500  0.580630  1.0
  N  N731  1  0.790500  0.412900  0.330630  1.0
  N  N732  1  0.209500  0.087100  0.330630  1.0
  N  N733  1  0.162900  0.959500  0.080630  1.0
  N  N734  1  0.837100  0.540500  0.080630  1.0
  N  N735  1  0.290500  0.912900  0.830630  1.0
  N  N736  1  0.709500  0.587100  0.830630  1.0
  N  N737  1  0.246500  0.115100  0.438080  1.0
  N  N738  1  0.753500  0.384900  0.438080  1.0
  N  N739  1  0.634900  0.496500  0.688080  1.0
  N  N740  1  0.365100  0.003500  0.688080  1.0
  N  N741  1  0.746500  0.615100  0.938080  1.0
  N  N742  1  0.253500  0.884900  0.938080  1.0
  N  N743  1  0.134900  0.996500  0.188080  1.0
  N  N744  1  0.865100  0.503500  0.188080  1.0
  N  N745  1  0.753500  0.884900  0.561920  1.0
  N  N746  1  0.246500  0.615100  0.561920  1.0
  N  N747  1  0.365100  0.503500  0.311920  1.0
  N  N748  1  0.634900  0.996500  0.311920  1.0
  N  N749  1  0.253500  0.384900  0.061920  1.0
  N  N750  1  0.746500  0.115100  0.061920  1.0
  N  N751  1  0.865100  0.003500  0.811920  1.0
  N  N752  1  0.134900  0.496500  0.811920  1.0
  N  N753  1  0.224800  0.048900  0.423500  1.0
  N  N754  1  0.775200  0.451100  0.423500  1.0
  N  N755  1  0.701100  0.474800  0.673500  1.0
  N  N756  1  0.298900  0.025200  0.673500  1.0
  N  N757  1  0.724800  0.548900  0.923500  1.0
  N  N758  1  0.275200  0.951100  0.923500  1.0
  N  N759  1  0.201100  0.974800  0.173500  1.0
  N  N760  1  0.798900  0.525200  0.173500  1.0
  N  N761  1  0.775200  0.951100  0.576500  1.0
  N  N762  1  0.224800  0.548900  0.576500  1.0
  N  N763  1  0.298900  0.525200  0.326500  1.0
  N  N764  1  0.701100  0.974800  0.326500  1.0
  N  N765  1  0.275200  0.451100  0.076500  1.0
  N  N766  1  0.724800  0.048900  0.076500  1.0
  N  N767  1  0.798900  0.025200  0.826500  1.0
  N  N768  1  0.201100  0.474800  0.826500  1.0
  N  N769  1  0.187500  0.934100  0.391690  1.0
  N  N770  1  0.812500  0.565900  0.391690  1.0
  N  N771  1  0.815900  0.437500  0.641690  1.0
  N  N772  1  0.184100  0.062500  0.641690  1.0
  N  N773  1  0.687500  0.434100  0.891690  1.0
  N  N774  1  0.312500  0.065900  0.891690  1.0
  N  N775  1  0.315900  0.937500  0.141690  1.0
  N  N776  1  0.684100  0.562500  0.141690  1.0
  N  N777  1  0.812500  0.065900  0.608310  1.0
  N  N778  1  0.187500  0.434100  0.608310  1.0
  N  N779  1  0.184100  0.562500  0.358310  1.0
  N  N780  1  0.815900  0.937500  0.358310  1.0
  N  N781  1  0.312500  0.565900  0.108310  1.0
  N  N782  1  0.687500  0.934100  0.108310  1.0
  N  N783  1  0.684100  0.062500  0.858310  1.0
  N  N784  1  0.315900  0.437500  0.858310  1.0
  O  O785  1  0.277000  0.287800  0.515000  1
  O  O786  1  0.723000  0.212200  0.515000  1
  O  O787  1  0.462200  0.527000  0.765000  1
  O  O788  1  0.537800  0.973000  0.765000  1
  O  O789  1  0.777000  0.787800  0.015000  1
  O  O790  1  0.223000  0.712200  0.015000  1
  O  O791  1  0.962200  0.027000  0.265000  1
  O  O792  1  0.037800  0.473000  0.265000  1
  O  O793  1  0.723000  0.712200  0.485000  1
  O  O794  1  0.277000  0.787800  0.485000  1
  O  O795  1  0.537800  0.473000  0.235000  1
  O  O796  1  0.462200  0.027000  0.235000  1
  O  O797  1  0.223000  0.212200  0.985000  1
  O  O798  1  0.777000  0.287800  0.985000  1
  O  O799  1  0.037800  0.973000  0.735000  1
  O  O800  1  0.962200  0.527000  0.735000  1
  O  O801  1  0.206500  0.412200  0.506400  1
  O  O802  1  0.793500  0.087800  0.506400  1
  O  O803  1  0.337800  0.456500  0.756400  1
  O  O804  1  0.662200  0.043500  0.756400  1
  O  O805  1  0.706500  0.912200  0.006400  1
  O  O806  1  0.293500  0.587800  0.006400  1
  O  O807  1  0.837800  0.956500  0.256400  1
  O  O808  1  0.162200  0.543500  0.256400  1
  O  O809  1  0.793500  0.587800  0.493600  1
  O  O810  1  0.206500  0.912200  0.493600  1
  O  O811  1  0.662200  0.543500  0.243600  1
  O  O812  1  0.337800  0.956500  0.243600  1
  O  O813  1  0.293500  0.087800  0.993600  1
  O  O814  1  0.706500  0.412200  0.993600  1
  O  O815  1  0.162200  0.043500  0.743600  1
  O  O816  1  0.837800  0.456500  0.743600  1
  O  O817  1  0.351900  0.413200  0.508900  1
  O  O818  1  0.648100  0.086800  0.508900  1
  O  O819  1  0.336800  0.601900  0.758900  1
  O  O820  1  0.663200  0.898100  0.758900  1
  O  O821  1  0.851900  0.913200  0.008900  1
  O  O822  1  0.148100  0.586800  0.008900  1
  O  O823  1  0.836800  0.101900  0.258900  1
  O  O824  1  0.163200  0.398100  0.258900  1
  O  O825  1  0.648100  0.586800  0.491100  1
  O  O826  1  0.351900  0.913200  0.491100  1
  O  O827  1  0.663200  0.398100  0.241100  1
  O  O828  1  0.336800  0.101900  0.241100  1
  O  O829  1  0.148100  0.086800  0.991100  1
  O  O830  1  0.851900  0.413200  0.991100  1
  O  O831  1  0.163200  0.898100  0.741100  1
  O  O832  1  0.836800  0.601900  0.741100  1
  O  O833  1  0.302400  0.451310  0.387220  1.0
  O  O834  1  0.697600  0.048690  0.387220  1.0
  O  O835  1  0.298690  0.552400  0.637220  1.0
  O  O836  1  0.701310  0.947600  0.637220  1.0
  O  O837  1  0.802400  0.951310  0.887220  1.0
  O  O838  1  0.197600  0.548690  0.887220  1.0
  O  O839  1  0.798690  0.052400  0.137220  1.0
  O  O840  1  0.201310  0.447600  0.137220  1.0
  O  O841  1  0.697600  0.548690  0.612780  1.0
  O  O842  1  0.302400  0.951310  0.612780  1.0
  O  O843  1  0.701310  0.447600  0.362780  1.0
  O  O844  1  0.298690  0.052400  0.362780  1.0
  O  O845  1  0.197600  0.048690  0.112780  1.0
  O  O846  1  0.802400  0.451310  0.112780  1.0
  O  O847  1  0.201310  0.947600  0.862780  1.0
  O  O848  1  0.798690  0.552400  0.862780  1.0
  O  O849  1  0.235400  0.179590  0.399870  1.0
  O  O850  1  0.764600  0.320410  0.399870  1.0
  O  O851  1  0.570410  0.485400  0.649870  1.0
  O  O852  1  0.429590  0.014600  0.649870  1.0
  O  O853  1  0.735400  0.679590  0.899870  1.0
  O  O854  1  0.264600  0.820410  0.899870  1.0
  O  O855  1  0.070410  0.985400  0.149870  1.0
  O  O856  1  0.929590  0.514600  0.149870  1.0
  O  O857  1  0.764600  0.820410  0.600130  1.0
  O  O858  1  0.235400  0.679590  0.600130  1.0
  O  O859  1  0.429590  0.514600  0.350130  1.0
  O  O860  1  0.570410  0.985400  0.350130  1.0
  O  O861  1  0.264600  0.320410  0.100130  1.0
  O  O862  1  0.735400  0.179590  0.100130  1.0
  O  O863  1  0.929590  0.014600  0.850130  1.0
  O  O864  1  0.070410  0.485400  0.850130  1.0
  O  O865  1  0.348500  0.436300  0.506800  1.0
  O  O866  1  0.651500  0.063700  0.506800  1.0
  O  O867  1  0.313700  0.598500  0.756800  1.0
  O  O868  1  0.686300  0.901500  0.756800  1.0
  O  O869  1  0.848500  0.936300  0.006800  1.0
  O  O870  1  0.151500  0.563700  0.006800  1.0
  O  O871  1  0.813700  0.098500  0.256800  1.0
  O  O872  1  0.186300  0.401500  0.256800  1.0
  O  O873  1  0.651500  0.563700  0.493200  1.0
  O  O874  1  0.348500  0.936300  0.493200  1.0
  O  O875  1  0.686300  0.401500  0.243200  1.0
  O  O876  1  0.313700  0.098500  0.243200  1.0
  O  O877  1  0.151500  0.063700  0.993200  1.0
  O  O878  1  0.848500  0.436300  0.993200  1.0
  O  O879  1  0.186300  0.901500  0.743200  1.0
  O  O880  1  0.813700  0.598500  0.743200  1.0
  O  O881  1  0.349500  0.290600  0.513510  1.0
  O  O882  1  0.650500  0.209400  0.513510  1.0
  O  O883  1  0.459400  0.599500  0.763510  1.0
  O  O884  1  0.540600  0.900500  0.763510  1.0
  O  O885  1  0.849500  0.790600  0.013510  1.0
  O  O886  1  0.150500  0.709400  0.013510  1.0
  O  O887  1  0.959400  0.099500  0.263510  1.0
  O  O888  1  0.040600  0.400500  0.263510  1.0
  O  O889  1  0.650500  0.709400  0.486490  1.0
  O  O890  1  0.349500  0.790600  0.486490  1.0
  O  O891  1  0.540600  0.400500  0.236490  1.0
  O  O892  1  0.459400  0.099500  0.236490  1.0
  O  O893  1  0.150500  0.209400  0.986490  1.0
  O  O894  1  0.849500  0.290600  0.986490  1.0
  O  O895  1  0.040600  0.900500  0.736490  1.0
  O  O896  1  0.959400  0.599500  0.736490  1.0
  O  O897  1  0.221400  0.359100  0.512220  1.0
  O  O898  1  0.778600  0.140900  0.512220  1.0
  O  O899  1  0.390900  0.471400  0.762220  1.0
  O  O900  1  0.609100  0.028600  0.762220  1.0
  O  O901  1  0.721400  0.859100  0.012220  1.0
  O  O902  1  0.278600  0.640900  0.012220  1.0
  O  O903  1  0.890900  0.971400  0.262220  1.0
  O  O904  1  0.109100  0.528600  0.262220  1.0
  O  O905  1  0.778600  0.640900  0.487780  1.0
  O  O906  1  0.221400  0.859100  0.487780  1.0
  O  O907  1  0.609100  0.528600  0.237780  1.0
  O  O908  1  0.390900  0.971400  0.237780  1.0
  O  O909  1  0.278600  0.140900  0.987780  1.0
  O  O910  1  0.721400  0.359100  0.987780  1.0
  O  O911  1  0.109100  0.028600  0.737780  1.0
  O  O912  1  0.890900  0.471400  0.737780  1.0
