# generated using pymatgen
data_Cu16H250C335S16N101O159
_symmetry_space_group_name_H-M   'P 1'
_cell_length_a   24.65940000
_cell_length_b   26.10860000
_cell_length_c   38.52940000
_cell_angle_alpha   71.71310000
_cell_angle_beta   78.27310000
_cell_angle_gamma   87.71690000
_symmetry_Int_Tables_number   1
_chemical_formula_structural   Cu16H250C335S16N101O159
_chemical_formula_sum   'Cu32 H500 C670 S32 N202 O318'
_cell_volume   23054.05311784
_cell_formula_units_Z   2
loop_
 _symmetry_equiv_pos_site_id
 _symmetry_equiv_pos_as_xyz
  1  'x, y, z'
loop_
 _atom_site_type_symbol
 _atom_site_label
 _atom_site_symmetry_multiplicity
 _atom_site_fract_x
 _atom_site_fract_y
 _atom_site_fract_z
 _atom_site_occupancy
  Cu  Cu1  1  0.282680  0.634400  0.559750  1
  Cu  Cu2  1  0.717320  0.365600  0.440250  1
  Cu  Cu3  1  0.395310  0.548100  0.761920  1
  Cu  Cu4  1  0.604690  0.451900  0.238080  1
  Cu  Cu5  1  0.709080  0.682380  0.649910  1
  Cu  Cu6  1  0.290920  0.317620  0.350090  1
  Cu  Cu7  1  0.590000  0.814380  0.446380  1
  Cu  Cu8  1  0.410000  0.185620  0.553620  1
  Cu  Cu9  1  0.279720  0.369210  0.734490  1
  Cu  Cu10  1  0.720280  0.630790  0.265510  1
  Cu  Cu11  1  0.204640  0.406940  0.953830  1
  Cu  Cu12  1  0.795360  0.593060  0.046170  1
  Cu  Cu13  1  0.484140  0.656850  0.852620  1
  Cu  Cu14  1  0.515860  0.343150  0.147380  1
  Cu  Cu15  1  0.483840  0.655090  0.631150  1
  Cu  Cu16  1  0.516160  0.344910  0.368850  1
  Cu  Cu17  1  0.310950  0.842590  0.331570  1
  Cu  Cu18  1  0.689050  0.157410  0.668430  1
  Cu  Cu19  1  0.149150  0.003250  0.156140  1
  Cu  Cu20  1  0.850850  0.996750  0.843860  1
  Cu  Cu21  1  0.840410  0.976180  0.286800  1
  Cu  Cu22  1  0.159590  0.023820  0.713200  1
  Cu  Cu23  1  0.982160  0.783380  0.467910  1
  Cu  Cu24  1  0.017840  0.216620  0.532090  1
  Cu  Cu25  1  0.305390  0.849830  0.111780  1
  Cu  Cu26  1  0.694610  0.150170  0.888220  1
  Cu  Cu27  1  0.227130  0.154540  0.938640  1
  Cu  Cu28  1  0.772870  0.845460  0.061360  1
  Cu  Cu29  1  0.026040  0.207150  0.134440  1
  Cu  Cu30  1  0.973960  0.792850  0.865560  1
  Cu  Cu31  1  0.081950  0.912700  0.289760  1
  Cu  Cu32  1  0.918050  0.087300  0.710240  1
  H  H33  1  0.180400  0.704900  0.515700  1
  H  H34  1  0.819600  0.295100  0.484300  1
  H  H35  1  0.151500  0.716800  0.459700  1
  H  H36  1  0.848500  0.283200  0.540300  1
  H  H37  1  0.199200  0.676100  0.417600  1
  H  H38  1  0.800800  0.323900  0.582400  1
  H  H39  1  0.276300  0.623400  0.432000  1
  H  H40  1  0.723700  0.376600  0.568000  1
  H  H41  1  0.338400  0.582300  0.478300  1
  H  H42  1  0.661600  0.417700  0.521700  1
  H  H43  1  0.455600  0.499400  0.542000  1
  H  H44  1  0.544400  0.500600  0.458000  1
  H  H45  1  0.523700  0.429000  0.632400  1
  H  H46  1  0.476300  0.571000  0.367600  1
  H  H47  1  0.395700  0.528700  0.639500  1
  H  H48  1  0.604300  0.471300  0.360500  1
  H  H49  1  0.478200  0.431700  0.750100  1
  H  H50  1  0.521800  0.568300  0.249900  1
  H  H51  1  0.498700  0.392100  0.815500  1
  H  H52  1  0.501300  0.607900  0.184500  1
  H  H53  1  0.488600  0.397600  0.876000  1
  H  H54  1  0.511400  0.602400  0.124000  1
  H  H55  1  0.445700  0.470900  0.890100  1
  H  H56  1  0.554300  0.529100  0.109900  1
  H  H57  1  0.407900  0.535800  0.845000  1
  H  H58  1  0.592100  0.464200  0.155000  1
  H  H59  1  0.390400  0.546700  0.523700  1
  H  H60  1  0.609600  0.453300  0.476300  1
  H  H61  1  0.428000  0.530800  0.685100  1
  H  H62  1  0.572000  0.469200  0.314900  1
  H  H63  1  0.291900  0.462500  0.799800  1
  H  H64  1  0.708100  0.537500  0.200200  1
  H  H65  1  0.198400  0.470700  0.824000  1
  H  H66  1  0.801600  0.529300  0.176000  1
  H  H67  1  0.163800  0.554600  0.821600  1
  H  H68  1  0.836200  0.445400  0.178400  1
  H  H69  1  0.221200  0.631300  0.792000  1
  H  H70  1  0.778800  0.368700  0.208000  1
  H  H71  1  0.316300  0.671600  0.761000  1
  H  H72  1  0.683700  0.328400  0.239000  1
  H  H73  1  0.421500  0.826400  0.711400  1
  H  H74  1  0.578500  0.173600  0.288600  1
  H  H75  1  0.581500  0.855700  0.660100  1
  H  H76  1  0.418500  0.144300  0.339900  1
  H  H77  1  0.522500  0.701400  0.707100  1
  H  H78  1  0.477500  0.298600  0.292900  1
  H  H79  1  0.753100  0.827700  0.627400  1
  H  H80  1  0.246900  0.172300  0.372600  1
  H  H81  1  0.856600  0.828500  0.599700  1
  H  H82  1  0.143400  0.171500  0.400300  1
  H  H83  1  0.935100  0.780500  0.584100  1
  H  H84  1  0.064900  0.219500  0.415900  1
  H  H85  1  0.926200  0.688800  0.594700  1
  H  H86  1  0.073800  0.311200  0.405300  1
  H  H87  1  0.839600  0.646100  0.619300  1
  H  H88  1  0.160400  0.353900  0.380700  1
  H  H89  1  0.445900  0.663500  0.715600  1
  H  H90  1  0.554100  0.336500  0.284400  1
  H  H91  1  0.709800  0.707400  0.725900  1
  H  H92  1  0.290200  0.292600  0.274100  1
  H  H93  1  0.717000  0.655800  0.786200  1
  H  H94  1  0.283000  0.344200  0.213800  1
  H  H95  1  0.725500  0.563400  0.800300  1
  H  H96  1  0.274500  0.436600  0.199700  1
  H  H97  1  0.733000  0.523700  0.752600  1
  H  H98  1  0.267000  0.476300  0.247400  1
  H  H99  1  0.724000  0.536100  0.684500  1
  H  H100  1  0.276000  0.463900  0.315500  1
  H  H101  1  0.731000  0.561700  0.563200  1
  H  H102  1  0.269000  0.438300  0.436800  1
  H  H103  1  0.678500  0.626000  0.465400  1
  H  H104  1  0.321500  0.374000  0.534600  1
  H  H105  1  0.661900  0.709500  0.539600  1
  H  H106  1  0.338100  0.290500  0.460400  1
  H  H107  1  0.597100  0.738000  0.380200  1
  H  H108  1  0.402900  0.262000  0.619800  1
  H  H109  1  0.547000  0.803900  0.331300  1
  H  H110  1  0.453000  0.196100  0.668700  1
  H  H111  1  0.500900  0.885000  0.313000  1
  H  H112  1  0.499100  0.115000  0.687000  1
  H  H113  1  0.491000  0.941800  0.349200  1
  H  H114  1  0.509000  0.058200  0.650800  1
  H  H115  1  0.523600  0.915100  0.405000  1
  H  H116  1  0.476400  0.084900  0.595000  1
  H  H117  1  0.720000  0.841100  0.389600  1
  H  H118  1  0.280000  0.158900  0.610400  1
  H  H119  1  0.800300  0.885000  0.389400  1
  H  H120  1  0.199700  0.115000  0.610600  1
  H  H121  1  0.797500  0.936900  0.428600  1
  H  H122  1  0.202500  0.063100  0.571400  1
  H  H123  1  0.713100  0.944900  0.467500  1
  H  H124  1  0.286900  0.055100  0.532500  1
  H  H125  1  0.608300  0.925700  0.487000  1
  H  H126  1  0.391700  0.074300  0.513000  1
  H  H127  1  0.428600  0.912800  0.521700  1
  H  H128  1  0.571400  0.087200  0.478300  1
  H  H129  1  0.285100  0.827200  0.575000  1
  H  H130  1  0.714900  0.172800  0.425000  1
  H  H131  1  0.409500  0.761800  0.518100  1
  H  H132  1  0.590500  0.238200  0.481900  1
  H  H133  1  0.175300  0.675800  0.626500  1
  H  H134  1  0.824700  0.324200  0.373500  1
  H  H135  1  0.116400  0.585200  0.657600  1
  H  H136  1  0.883600  0.414800  0.342400  1
  H  H137  1  0.104300  0.496000  0.658600  1
  H  H138  1  0.895700  0.504000  0.341400  1
  H  H139  1  0.162800  0.462200  0.616600  1
  H  H140  1  0.837200  0.537800  0.383400  1
  H  H141  1  0.237800  0.515400  0.575800  1
  H  H142  1  0.762200  0.484600  0.424200  1
  H  H143  1  0.242800  0.403900  0.653500  1
  H  H144  1  0.757200  0.596100  0.346500  1
  H  H145  1  0.287500  0.418200  0.591800  1
  H  H146  1  0.712500  0.581800  0.408200  1
  H  H147  1  0.378700  0.393600  0.579000  1
  H  H148  1  0.621300  0.606400  0.421000  1
  H  H149  1  0.425500  0.356600  0.628000  1
  H  H150  1  0.574500  0.643400  0.372000  1
  H  H151  1  0.422400  0.328600  0.699000  1
  H  H152  1  0.577600  0.671400  0.301000  1
  H  H153  1  0.433600  0.286500  0.820000  1
  H  H154  1  0.566400  0.713500  0.180000  1
  H  H155  1  0.396000  0.299500  0.924100  1
  H  H156  1  0.604000  0.700500  0.075900  1
  H  H157  1  0.301000  0.372200  0.849100  1
  H  H158  1  0.699000  0.627800  0.150900  1
  H  H159  1  0.306800  0.355100  0.016800  1
  H  H160  1  0.693200  0.644900  0.983200  1
  H  H161  1  0.258400  0.368400  0.078300  1
  H  H162  1  0.741600  0.631600  0.921700  1
  H  H163  1  0.180700  0.399600  0.111100  1
  H  H164  1  0.819300  0.600400  0.888900  1
  H  H165  1  0.110500  0.439500  0.081400  1
  H  H166  1  0.889500  0.560500  0.918600  1
  H  H167  1  0.116100  0.445400  0.018900  1
  H  H168  1  0.883900  0.554600  0.981100  1
  H  H169  1  0.180500  0.277800  0.989000  1
  H  H170  1  0.819500  0.722200  0.011000  1
  H  H171  1  0.106400  0.219600  0.997600  1
  H  H172  1  0.893600  0.780400  0.002400  1
  H  H173  1  0.024100  0.254300  0.981200  1
  H  H174  1  0.975900  0.745700  0.018800  1
  H  H175  1  0.018500  0.347700  0.953000  1
  H  H176  1  0.981500  0.652300  0.047000  1
  H  H177  1  0.069200  0.442000  0.927900  1
  H  H178  1  0.930800  0.558000  0.072100  1
  H  H179  1  0.147700  0.604100  0.891700  1
  H  H180  1  0.852300  0.395900  0.108300  1
  H  H181  1  0.271900  0.716700  0.846700  1
  H  H182  1  0.728100  0.283300  0.153300  1
  H  H183  1  0.306200  0.559900  0.891600  1
  H  H184  1  0.693800  0.440100  0.108400  1
  H  H185  1  0.427700  0.788900  0.800000  1
  H  H186  1  0.572300  0.211100  0.200000  1
  H  H187  1  0.514900  0.844200  0.759400  1
  H  H188  1  0.485100  0.155800  0.240600  1
  H  H189  1  0.612100  0.848500  0.742500  1
  H  H190  1  0.387900  0.151500  0.257500  1
  H  H191  1  0.662600  0.778700  0.772800  1
  H  H192  1  0.337400  0.221300  0.227200  1
  H  H193  1  0.616700  0.704400  0.819400  1
  H  H194  1  0.383300  0.295600  0.180600  1
  H  H195  1  0.353600  0.728900  0.832400  1
  H  H196  1  0.646400  0.271100  0.167600  1
  H  H197  1  0.422600  0.722700  0.903700  1
  H  H198  1  0.577400  0.277300  0.096300  1
  H  H199  1  0.423500  0.726100  0.963500  1
  H  H200  1  0.576500  0.273900  0.036500  1
  H  H201  1  0.481700  0.669500  0.997700  1
  H  H202  1  0.518300  0.330500  0.002300  1
  H  H203  1  0.537500  0.610400  0.972500  1
  H  H204  1  0.462500  0.389600  0.027500  1
  H  H205  1  0.566400  0.572500  0.916500  1
  H  H206  1  0.433600  0.427500  0.083500  1
  H  H207  1  0.598100  0.499200  0.817200  1
  H  H208  1  0.401900  0.500800  0.182800  1
  H  H209  1  0.599500  0.504800  0.711500  1
  H  H210  1  0.400500  0.495200  0.288500  1
  H  H211  1  0.520500  0.619300  0.751500  1
  H  H212  1  0.479500  0.380700  0.248500  1
  H  H213  1  0.590700  0.563800  0.599200  1
  H  H214  1  0.409300  0.436200  0.400800  1
  H  H215  1  0.574700  0.580100  0.531000  1
  H  H216  1  0.425300  0.419900  0.469000  1
  H  H217  1  0.524600  0.625400  0.485300  1
  H  H218  1  0.475400  0.374600  0.514700  1
  H  H219  1  0.446700  0.671600  0.500700  1
  H  H220  1  0.553300  0.328400  0.499300  1
  H  H221  1  0.426800  0.683700  0.559400  1
  H  H222  1  0.573200  0.316300  0.440600  1
  H  H223  1  0.607600  0.714800  0.595300  1
  H  H224  1  0.392400  0.285200  0.404700  1
  H  H225  1  0.642500  0.803500  0.571200  1
  H  H226  1  0.357500  0.196500  0.428800  1
  H  H227  1  0.583200  0.874100  0.568400  1
  H  H228  1  0.416800  0.125900  0.431600  1
  H  H229  1  0.487900  0.856800  0.591600  1
  H  H230  1  0.512100  0.143200  0.408400  1
  H  H231  1  0.408800  0.785800  0.621300  1
  H  H232  1  0.591200  0.214200  0.378700  1
  H  H233  1  0.265200  0.686700  0.678200  1
  H  H234  1  0.734800  0.313300  0.321800  1
  H  H235  1  0.165900  0.552400  0.727800  1
  H  H236  1  0.834100  0.447600  0.272200  1
  H  H237  1  0.330100  0.539900  0.686600  1
  H  H238  1  0.669900  0.460100  0.313400  1
  H  H239  1  0.127400  0.374300  0.762700  1
  H  H240  1  0.872600  0.625700  0.237300  1
  H  H241  1  0.098700  0.275100  0.790300  1
  H  H242  1  0.901300  0.724900  0.209700  1
  H  H243  1  0.126200  0.185200  0.802500  1
  H  H244  1  0.873800  0.814800  0.197500  1
  H  H245  1  0.218700  0.166900  0.788000  1
  H  H246  1  0.781300  0.833100  0.212000  1
  H  H247  1  0.283600  0.237400  0.759300  1
  H  H248  1  0.716400  0.762600  0.240700  1
  H  H249  1  0.386900  0.865900  0.390000  1
  H  H250  1  0.613100  0.134100  0.610000  1
  H  H251  1  0.436100  0.813600  0.433800  1
  H  H252  1  0.563900  0.186400  0.566200  1
  H  H253  1  0.441500  0.721700  0.443500  1
  H  H254  1  0.558500  0.278300  0.556500  1
  H  H255  1  0.388300  0.681100  0.415000  1
  H  H256  1  0.611700  0.318900  0.585000  1
  H  H257  1  0.327800  0.692500  0.366800  1
  H  H258  1  0.672200  0.307500  0.633200  1
  H  H259  1  0.193700  0.687000  0.313600  1
  H  H260  1  0.806300  0.313000  0.686400  1
  H  H261  1  0.098500  0.728500  0.236100  1
  H  H262  1  0.901500  0.271500  0.763900  1
  H  H263  1  0.203800  0.839100  0.241400  1
  H  H264  1  0.796200  0.160900  0.758600  1
  H  H265  1  0.082900  0.886300  0.145800  1
  H  H266  1  0.917100  0.113700  0.854200  1
  H  H267  1  0.036300  0.934500  0.090600  1
  H  H268  1  0.963700  0.065500  0.909400  1
  H  H269  1  0.018600  0.015100  0.046900  1
  H  H270  1  0.981400  0.984900  0.953100  1
  H  H271  1  0.056500  0.095200  0.045400  1
  H  H272  1  0.943500  0.904800  0.954600  1
  H  H273  1  0.108500  0.095800  0.089400  1
  H  H274  1  0.891500  0.904200  0.910600  1
  H  H275  1  0.147100  0.889300  0.213300  1
  H  H276  1  0.852900  0.110700  0.786700  1
  H  H277  1  0.248800  0.998700  0.088900  1
  H  H278  1  0.751200  0.001300  0.911100  1
  H  H279  1  0.333200  0.046000  0.062200  1
  H  H280  1  0.666800  0.954000  0.937800  1
  H  H281  1  0.358500  0.110300  0.086100  1
  H  H282  1  0.641500  0.889700  0.913900  1
  H  H283  1  0.298700  0.127500  0.136300  1
  H  H284  1  0.701300  0.872500  0.863700  1
  H  H285  1  0.213500  0.110200  0.181700  1
  H  H286  1  0.786500  0.889800  0.818300  1
  H  H287  1  0.104600  0.153100  0.282000  1
  H  H288  1  0.895400  0.846900  0.718000  1
  H  H289  1  0.948600  0.110400  0.336100  1
  H  H290  1  0.051400  0.889600  0.663900  1
  H  H291  1  0.015500  0.052800  0.252200  1
  H  H292  1  0.984500  0.947200  0.747800  1
  H  H293  1  0.779700  0.045300  0.358800  1
  H  H294  1  0.220300  0.954700  0.641200  1
  H  H295  1  0.677100  0.021600  0.373900  1
  H  H296  1  0.322900  0.978400  0.626100  1
  H  H297  1  0.604500  0.977600  0.363100  1
  H  H298  1  0.395500  0.022400  0.636900  1
  H  H299  1  0.624200  0.926300  0.322900  1
  H  H300  1  0.375800  0.073700  0.677100  1
  H  H301  1  0.714800  0.923500  0.291600  1
  H  H302  1  0.285200  0.076500  0.708400  1
  H  H303  1  0.095700  0.036400  0.227900  1
  H  H304  1  0.904300  0.963600  0.772100  1
  H  H305  1  0.829800  0.102000  0.243800  1
  H  H306  1  0.170200  0.898000  0.756200  1
  H  H307  1  0.814400  0.152300  0.185000  1
  H  H308  1  0.185600  0.847700  0.815000  1
  H  H309  1  0.801000  0.107600  0.144000  1
  H  H310  1  0.199000  0.892400  0.856000  1
  H  H311  1  0.807400  0.013600  0.161000  1
  H  H312  1  0.192600  0.986400  0.839000  1
  H  H313  1  0.824300  0.924100  0.211900  1
  H  H314  1  0.175700  0.075900  0.788100  1
  H  H315  1  0.865100  0.774200  0.293100  1
  H  H316  1  0.134900  0.225800  0.706900  1
  H  H317  1  0.934500  0.681700  0.378500  1
  H  H318  1  0.065500  0.318300  0.621500  1
  H  H319  1  0.906000  0.839300  0.367700  1
  H  H320  1  0.094000  0.160700  0.632300  1
  H  H321  1  0.001700  0.639000  0.483100  1
  H  H322  1  0.998300  0.361000  0.516900  1
  H  H323  1  0.043200  0.612600  0.543600  1
  H  H324  1  0.956800  0.387400  0.456400  1
  H  H325  1  0.073200  0.642000  0.588500  1
  H  H326  1  0.926800  0.358000  0.411500  1
  H  H327  1  0.065400  0.732200  0.584700  1
  H  H328  1  0.934600  0.267800  0.415300  1
  H  H329  1  0.033200  0.792500  0.534900  1
  H  H330  1  0.966800  0.207500  0.465100  1
  H  H331  1  0.862700  0.709300  0.513600  1
  H  H332  1  0.137300  0.290700  0.486400  1
  H  H333  1  0.771800  0.728400  0.535000  1
  H  H334  1  0.228200  0.271600  0.465000  1
  H  H335  1  0.748800  0.815000  0.535200  1
  H  H336  1  0.251200  0.185000  0.464800  1
  H  H337  1  0.817300  0.883900  0.508600  1
  H  H338  1  0.182700  0.116100  0.491400  1
  H  H339  1  0.921500  0.908000  0.485500  1
  H  H340  1  0.078500  0.092000  0.514500  1
  H  H341  1  0.090700  0.966300  0.459900  1
  H  H342  1  0.909300  0.033700  0.540100  1
  H  H343  1  0.245100  0.994400  0.394200  1
  H  H344  1  0.754900  0.005600  0.605800  1
  H  H345  1  0.157400  0.859800  0.407000  1
  H  H346  1  0.842600  0.140200  0.593000  1
  H  H347  1  0.382800  0.972800  0.298500  1
  H  H348  1  0.617200  0.027200  0.701500  1
  H  H349  1  0.453500  0.962800  0.243300  1
  H  H350  1  0.546500  0.037200  0.756700  1
  H  H351  1  0.493600  0.906200  0.209100  1
  H  H352  1  0.506400  0.093800  0.790900  1
  H  H353  1  0.455600  0.821300  0.221500  1
  H  H354  1  0.544400  0.178700  0.778500  1
  H  H355  1  0.382200  0.789700  0.272400  1
  H  H356  1  0.617800  0.210300  0.727600  1
  H  H357  1  0.375800  0.782500  0.178400  1
  H  H358  1  0.624200  0.217500  0.821600  1
  H  H359  1  0.359600  0.705900  0.231200  1
  H  H360  1  0.640400  0.294100  0.768800  1
  H  H361  1  0.277500  0.657400  0.246200  1
  H  H362  1  0.722500  0.342600  0.753800  1
  H  H363  1  0.215800  0.679200  0.204700  1
  H  H364  1  0.784200  0.320800  0.795300  1
  H  H365  1  0.187800  0.746600  0.147500  1
  H  H366  1  0.812200  0.253400  0.852500  1
  H  H367  1  0.112100  0.846900  0.061200  1
  H  H368  1  0.887900  0.153100  0.938800  1
  H  H369  1  0.080400  0.981500  0.980700  1
  H  H370  1  0.919600  0.018500  0.019300  1
  H  H371  1  0.217400  0.976800  0.023900  1
  H  H372  1  0.782600  0.023200  0.976100  1
  H  H373  1  0.080700  0.147000  0.922000  1
  H  H374  1  0.919300  0.853000  0.078000  1
  H  H375  1  0.064500  0.243200  0.883000  1
  H  H376  1  0.935500  0.756800  0.117000  1
  H  H377  1  0.097100  0.333000  0.854600  1
  H  H378  1  0.902900  0.667000  0.145400  1
  H  H379  1  0.186400  0.354700  0.855400  1
  H  H380  1  0.813600  0.645300  0.144600  1
  H  H381  1  0.240300  0.289600  0.888000  1
  H  H382  1  0.759700  0.710400  0.112000  1
  H  H383  1  0.099000  0.064900  0.962400  1
  H  H384  1  0.901000  0.935100  0.037600  1
  H  H385  1  0.214900  0.109100  0.873300  1
  H  H386  1  0.785100  0.890900  0.126700  1
  H  H387  1  0.275500  0.094300  0.822400  1
  H  H388  1  0.724500  0.905700  0.177600  1
  H  H389  1  0.368500  0.116800  0.812100  1
  H  H390  1  0.631500  0.883200  0.187900  1
  H  H391  1  0.400300  0.154200  0.852300  1
  H  H392  1  0.599700  0.845800  0.147700  1
  H  H393  1  0.378000  0.178400  0.914000  1
  H  H394  1  0.622000  0.821600  0.086000  1
  H  H395  1  0.339600  0.225700  0.016400  1
  H  H396  1  0.660400  0.774300  0.983600  1
  H  H397  1  0.248300  0.247500  0.110100  1
  H  H398  1  0.751700  0.752500  0.889900  1
  H  H399  1  0.175600  0.187000  0.046400  1
  H  H400  1  0.824400  0.813000  0.953600  1
  H  H401  1  0.103900  0.250900  0.195300  1
  H  H402  1  0.896100  0.749100  0.804700  1
  H  H403  1  0.026300  0.253500  0.250700  1
  H  H404  1  0.973700  0.746500  0.749300  1
  H  H405  1  0.933000  0.237100  0.279600  1
  H  H406  1  0.067000  0.762900  0.720400  1
  H  H407  1  0.872600  0.209600  0.249800  1
  H  H408  1  0.127400  0.790400  0.750200  1
  H  H409  1  0.906900  0.193600  0.193300  1
  H  H410  1  0.093100  0.806400  0.806700  1
  H  H411  1  0.048500  0.334600  0.112100  1
  H  H412  1  0.951500  0.665400  0.887900  1
  H  H413  1  0.018500  0.412700  0.072000  1
  H  H414  1  0.981500  0.587300  0.928000  1
  H  H415  1  0.963000  0.403600  0.032200  1
  H  H416  1  0.037000  0.596400  0.967800  1
  H  H417  1  0.935500  0.317700  0.034600  1
  H  H418  1  0.064500  0.682300  0.965400  1
  H  H419  1  0.935900  0.213600  0.067100  1
  H  H420  1  0.064100  0.786400  0.932900  1
  H  H421  1  0.931800  0.035200  0.119500  1
  H  H422  1  0.068200  0.964800  0.880500  1
  H  H423  1  0.954800  0.894400  0.197000  1
  H  H424  1  0.045200  0.105600  0.803000  1
  H  H425  1  0.014900  0.033400  0.199800  1
  H  H426  1  0.985100  0.966600  0.800200  1
  H  H427  1  0.007200  0.786700  0.299600  1
  H  H428  1  0.992800  0.213300  0.700400  1
  H  H429  1  0.049600  0.718100  0.352000  1
  H  H430  1  0.950400  0.281900  0.648000  1
  H  H431  1  0.114000  0.702900  0.390900  1
  H  H432  1  0.886000  0.297100  0.609100  1
  H  H433  1  0.169200  0.773800  0.388800  1
  H  H434  1  0.830800  0.226200  0.611200  1
  H  H435  1  0.162200  0.859200  0.346000  1
  H  H436  1  0.837800  0.140800  0.654000  1
  H  H437  1  0.953000  0.913300  0.341100  1
  H  H438  1  0.047000  0.086700  0.658900  1
  H  H439  1  0.909200  0.951100  0.386500  1
  H  H440  1  0.090800  0.048900  0.613500  1
  H  H441  1  0.961300  0.001700  0.408200  1
  H  H442  1  0.038700  0.998300  0.591800  1
  H  H443  1  0.055500  0.018300  0.381700  1
  H  H444  1  0.944500  0.981700  0.618300  1
  H  H445  1  0.136100  0.007000  0.333900  1
  H  H446  1  0.863900  0.993000  0.666100  1
  H  H447  1  0.283300  0.018800  0.247000  1
  H  H448  1  0.716700  0.981200  0.753000  1
  H  H449  1  0.387500  0.993400  0.160200  1
  H  H450  1  0.612500  0.006600  0.839800  1
  H  H451  1  0.238800  0.915100  0.199700  1
  H  H452  1  0.761200  0.084900  0.800300  1
  H  H453  1  0.447200  0.901300  0.074400  1
  H  H454  1  0.552800  0.098700  0.925600  1
  H  H455  1  0.478700  0.853500  0.024800  1
  H  H456  1  0.521300  0.146500  0.975200  1
  H  H457  1  0.455400  0.791400  0.997500  1
  H  H458  1  0.544600  0.208600  0.002500  1
  H  H459  1  0.368400  0.750800  0.016800  1
  H  H460  1  0.631600  0.249200  0.983200  1
  H  H461  1  0.304400  0.773400  0.063000  1
  H  H462  1  0.695600  0.226600  0.937000  1
  H  H463  1  0.297300  0.794000  0.773500  1
  H  H464  1  0.702700  0.206000  0.226500  1
  H  H465  1  0.309900  0.926300  0.788500  1
  H  H466  1  0.690100  0.073700  0.211500  1
  H  H467  1  0.362500  0.936900  0.754800  1
  H  H468  1  0.637500  0.063100  0.245200  1
  H  H469  1  0.364200  0.891400  0.793700  1
  H  H470  1  0.635800  0.108600  0.206300  1
  H  H471  1  0.294800  0.858300  0.718800  1
  H  H472  1  0.705200  0.141700  0.281200  1
  H  H473  1  0.336400  0.909000  0.707700  1
  H  H474  1  0.663600  0.091000  0.292300  1
  H  H475  1  0.272900  0.912900  0.726600  1
  H  H476  1  0.727100  0.087100  0.273400  1
  H  H477  1  0.283100  0.938400  0.473400  1
  H  H478  1  0.716900  0.061600  0.526600  1
  H  H479  1  0.216700  0.795700  0.488200  1
  H  H480  1  0.783300  0.204300  0.511800  1
  H  H481  1  0.282900  0.800100  0.477800  1
  H  H482  1  0.717100  0.199900  0.522200  1
  H  H483  1  0.247600  0.827500  0.446500  1
  H  H484  1  0.752400  0.172500  0.553500  1
  H  H485  1  0.176900  0.841700  0.520400  1
  H  H486  1  0.823100  0.158300  0.479600  1
  H  H487  1  0.179800  0.905700  0.501200  1
  H  H488  1  0.820200  0.094300  0.498800  1
  H  H489  1  0.215300  0.878300  0.532400  1
  H  H490  1  0.784700  0.121700  0.467600  1
  H  H491  1  0.215700  0.910900  0.501900  1
  H  H492  1  0.784300  0.089100  0.498100  1
  H  H493  1  0.304900  0.814800  0.452200  1
  H  H494  1  0.695100  0.185200  0.547800  1
  H  H495  1  0.239300  0.810800  0.456000  1
  H  H496  1  0.760700  0.189200  0.544000  1
  H  H497  1  0.266300  0.785700  0.491900  1
  H  H498  1  0.733700  0.214300  0.508100  1
  H  H499  1  0.338500  0.890100  0.444600  1
  H  H500  1  0.661500  0.109900  0.555400  1
  H  H501  1  0.323300  0.913500  0.479000  1
  H  H502  1  0.676700  0.086500  0.521000  1
  H  H503  1  0.296200  0.938500  0.443100  1
  H  H504  1  0.703800  0.061500  0.556900  1
  H  H505  1  0.772000  0.701200  0.364900  1
  H  H506  1  0.228000  0.298800  0.635100  1
  H  H507  1  0.817300  0.759300  0.429300  1
  H  H508  1  0.182700  0.240700  0.570700  1
  H  H509  1  0.791300  0.707000  0.462600  1
  H  H510  1  0.208700  0.293000  0.537400  1
  H  H511  1  0.751600  0.749600  0.440900  1
  H  H512  1  0.248400  0.250400  0.559100  1
  H  H513  1  0.809500  0.631200  0.403300  1
  H  H514  1  0.190500  0.368800  0.596700  1
  H  H515  1  0.800000  0.628300  0.446200  1
  H  H516  1  0.200000  0.371700  0.553800  1
  H  H517  1  0.855900  0.655200  0.418000  1
  H  H518  1  0.144100  0.344800  0.582000  1
  H  H519  1  0.823600  0.631400  0.444100  1
  H  H520  1  0.176400  0.368600  0.555900  1
  H  H521  1  0.770600  0.747300  0.467800  1
  H  H522  1  0.229400  0.252700  0.532200  1
  H  H523  1  0.770600  0.780800  0.425200  1
  H  H524  1  0.229400  0.219200  0.574800  1
  H  H525  1  0.827800  0.769700  0.439500  1
  H  H526  1  0.172200  0.230300  0.560500  1
  H  H527  1  0.800000  0.689200  0.384200  1
  H  H528  1  0.200000  0.310800  0.615800  1
  H  H529  1  0.763700  0.740400  0.387100  1
  H  H530  1  0.236300  0.259600  0.612900  1
  H  H531  1  0.739300  0.680700  0.409900  1
  H  H532  1  0.260700  0.319300  0.590100  1
  C  C533  1  0.199900  0.687900  0.498600  1
  C  C534  1  0.800100  0.312100  0.501400  1
  C  C535  1  0.182500  0.695300  0.465200  1
  C  C536  1  0.817500  0.304700  0.534800  1
  C  C537  1  0.210500  0.671400  0.440500  1
  C  C538  1  0.789500  0.328600  0.559500  1
  C  C539  1  0.255800  0.640100  0.449000  1
  C  C540  1  0.744200  0.359900  0.551000  1
  C  C541  1  0.270100  0.633800  0.482830  1
  C  C542  1  0.729900  0.366200  0.517170  1
  C  C543  1  0.316500  0.599800  0.494300  1
  C  C544  1  0.683500  0.400200  0.505700  1
  C  C545  1  0.375100  0.556900  0.573480  1
  C  C546  1  0.624900  0.443100  0.426520  1
  C  C547  1  0.419100  0.519600  0.587910  1
  C  C548  1  0.580900  0.480400  0.412090  1
  C  C549  1  0.456400  0.494000  0.567470  1
  C  C550  1  0.543600  0.506000  0.432530  1
  C  C551  1  0.495300  0.460200  0.584100  1
  C  C552  1  0.504700  0.539800  0.415900  1
  C  C553  1  0.497100  0.452100  0.621200  1
  C  C554  1  0.502900  0.547900  0.378800  1
  C  C555  1  0.459300  0.478300  0.642040  1
  C  C556  1  0.540700  0.521700  0.357960  1
  C  C557  1  0.421300  0.511100  0.625380  1
  C  C558  1  0.578700  0.488900  0.374620  1
  C  C559  1  0.462900  0.464600  0.682060  1
  C  C560  1  0.537100  0.535400  0.317940  1
  C  C561  1  0.459800  0.459800  0.758300  1
  C  C562  1  0.540200  0.540200  0.241700  1
  C  C563  1  0.456700  0.460300  0.796500  1
  C  C564  1  0.543300  0.539700  0.203500  1
  C  C565  1  0.479600  0.421100  0.822060  1
  C  C566  1  0.520400  0.578900  0.177940  1
  C  C567  1  0.474300  0.424900  0.857520  1
  C  C568  1  0.525700  0.575100  0.142480  1
  C  C569  1  0.448600  0.467500  0.866000  1
  C  C570  1  0.551400  0.532500  0.134000  1
  C  C571  1  0.426300  0.506200  0.838860  1
  C  C572  1  0.573700  0.493800  0.161140  1
  C  C573  1  0.277700  0.497300  0.798390  1
  C  C574  1  0.722300  0.502700  0.201610  1
  C  C575  1  0.221900  0.502000  0.812900  1
  C  C576  1  0.778100  0.498000  0.187100  1
  C  C577  1  0.201600  0.551100  0.811200  1
  C  C578  1  0.798400  0.448900  0.188800  1
  C  C579  1  0.235500  0.596400  0.794300  1
  C  C580  1  0.764500  0.403600  0.205700  1
  C  C581  1  0.290700  0.589800  0.781000  1
  C  C582  1  0.709300  0.410200  0.219000  1
  C  C583  1  0.328400  0.635900  0.763100  1
  C  C584  1  0.671600  0.364100  0.236900  1
  C  C585  1  0.416300  0.720000  0.734900  1
  C  C586  1  0.583700  0.280000  0.265100  1
  C  C587  1  0.463600  0.756900  0.713400  1
  C  C588  1  0.536400  0.243100  0.286600  1
  C  C589  1  0.456800  0.812800  0.703900  1
  C  C590  1  0.543200  0.187200  0.296100  1
  C  C591  1  0.498800  0.847300  0.684500  1
  C  C592  1  0.501200  0.152700  0.315500  1
  C  C593  1  0.551900  0.830400  0.673200  1
  C  C594  1  0.448100  0.169600  0.326800  1
  C  C595  1  0.560200  0.774300  0.682000  1
  C  C596  1  0.439800  0.225700  0.318000  1
  C  C597  1  0.516700  0.739000  0.701500  1
  C  C598  1  0.483300  0.261000  0.298500  1
  C  C599  1  0.614700  0.750600  0.670400  1
  C  C600  1  0.385300  0.249400  0.329600  1
  C  C601  1  0.752900  0.790100  0.630700  1
  C  C602  1  0.247100  0.209900  0.369300  1
  C  C603  1  0.803900  0.763200  0.619620  1
  C  C604  1  0.196100  0.236800  0.380380  1
  C  C605  1  0.854000  0.790700  0.604000  1
  C  C606  1  0.146000  0.209300  0.396000  1
  C  C607  1  0.900100  0.762600  0.594700  1
  C  C608  1  0.099900  0.237400  0.405300  1
  C  C609  1  0.894800  0.709000  0.600700  1
  C  C610  1  0.105200  0.291000  0.399300  1
  C  C611  1  0.843000  0.683500  0.615900  1
  C  C612  1  0.157000  0.316500  0.384100  1
  C  C613  1  0.713900  0.669500  0.731400  1
  C  C614  1  0.286100  0.330500  0.268600  1
  C  C615  1  0.718100  0.639000  0.767500  1
  C  C616  1  0.281900  0.361000  0.232500  1
  C  C617  1  0.723800  0.584900  0.775600  1
  C  C618  1  0.276200  0.415100  0.224400  1
  C  C619  1  0.727000  0.561200  0.747700  1
  C  C620  1  0.273000  0.438800  0.252300  1
  C  C621  1  0.721200  0.593700  0.712600  1
  C  C622  1  0.278800  0.406300  0.287400  1
  C  C623  1  0.720000  0.573300  0.682200  1
  C  C624  1  0.280000  0.426700  0.317800  1
  C  C625  1  0.701400  0.641300  0.593900  1
  C  C626  1  0.298600  0.358700  0.406100  1
  C  C627  1  0.695500  0.636500  0.557100  1
  C  C628  1  0.304500  0.363500  0.442900  1
  C  C629  1  0.714200  0.590200  0.547000  1
  C  C630  1  0.285800  0.409800  0.453000  1
  C  C631  1  0.707000  0.587800  0.512500  1
  C  C632  1  0.293000  0.412200  0.487500  1
  C  C633  1  0.683100  0.628800  0.488600  1
  C  C634  1  0.316900  0.371200  0.511400  1
  C  C635  1  0.665500  0.675000  0.498900  1
  C  C636  1  0.334500  0.325000  0.501100  1
  C  C637  1  0.672800  0.678000  0.532900  1
  C  C638  1  0.327200  0.322000  0.467100  1
  C  C639  1  0.637700  0.719500  0.474200  1
  C  C640  1  0.362300  0.280500  0.525800  1
  C  C641  1  0.589600  0.763700  0.393200  1
  C  C642  1  0.410400  0.236300  0.606800  1
  C  C643  1  0.561100  0.813400  0.379180  1
  C  C644  1  0.438900  0.186600  0.620820  1
  C  C645  1  0.541800  0.827200  0.346200  1
  C  C646  1  0.458200  0.172800  0.653800  1
  C  C647  1  0.514900  0.875300  0.335300  1
  C  C648  1  0.485100  0.124700  0.664700  1
  C  C649  1  0.508700  0.908300  0.356600  1
  C  C650  1  0.491300  0.091700  0.643400  1
  C  C651  1  0.528900  0.892300  0.389700  1
  C  C652  1  0.471100  0.107700  0.610300  1
  C  C653  1  0.718400  0.862500  0.405680  1
  C  C654  1  0.281600  0.137500  0.594320  1
  C  C655  1  0.766600  0.888500  0.405400  1
  C  C656  1  0.233400  0.111500  0.594600  1
  C  C657  1  0.764900  0.919000  0.428300  1
  C  C658  1  0.235100  0.081000  0.571700  1
  C  C659  1  0.715200  0.923700  0.451300  1
  C  C660  1  0.284800  0.076300  0.548700  1
  C  C661  1  0.668800  0.897100  0.450110  1
  C  C662  1  0.331200  0.102900  0.549890  1
  C  C663  1  0.614300  0.901100  0.473000  1
  C  C664  1  0.385700  0.098900  0.527000  1
  C  C665  1  0.486000  0.834900  0.496010  1
  C  C666  1  0.514000  0.165100  0.503990  1
  C  C667  1  0.428700  0.836800  0.518050  1
  C  C668  1  0.571300  0.163200  0.481950  1
  C  C669  1  0.406900  0.880600  0.528600  1
  C  C670  1  0.593100  0.119400  0.471400  1
  C  C671  1  0.353000  0.877200  0.549300  1
  C  C672  1  0.647000  0.122800  0.450700  1
  C  C673  1  0.321200  0.829700  0.559900  1
  C  C674  1  0.678800  0.170300  0.440100  1
  C  C675  1  0.342100  0.786200  0.548500  1
  C  C676  1  0.657900  0.213800  0.451500  1
  C  C677  1  0.395500  0.790800  0.526940  1
  C  C678  1  0.604500  0.209200  0.473060  1
  C  C679  1  0.311300  0.734600  0.558400  1
  C  C680  1  0.688700  0.265400  0.441600  1
  C  C681  1  0.198200  0.656100  0.612400  1
  C  C682  1  0.801800  0.343900  0.387600  1
  C  C683  1  0.185100  0.600500  0.615720  1
  C  C684  1  0.814900  0.399500  0.384280  1
  C  C685  1  0.141000  0.570500  0.641000  1
  C  C686  1  0.859000  0.429500  0.359000  1
  C  C687  1  0.133800  0.518100  0.641200  1
  C  C688  1  0.866200  0.481900  0.358800  1
  C  C689  1  0.168600  0.497800  0.616900  1
  C  C690  1  0.831400  0.502200  0.383100  1
  C  C691  1  0.212700  0.529900  0.592300  1
  C  C692  1  0.787300  0.470100  0.407700  1
  C  C693  1  0.280500  0.394600  0.648300  1
  C  C694  1  0.719500  0.605400  0.351700  1
  C  C695  1  0.306800  0.402800  0.611500  1
  C  C696  1  0.693200  0.597200  0.388500  1
  C  C697  1  0.360300  0.388600  0.604000  1
  C  C698  1  0.639700  0.611400  0.396000  1
  C  C699  1  0.388000  0.366800  0.632900  1
  C  C700  1  0.612000  0.633200  0.367100  1
  C  C701  1  0.360000  0.360300  0.669000  1
  C  C702  1  0.640000  0.639700  0.331000  1
  C  C703  1  0.385900  0.341900  0.701000  1
  C  C704  1  0.614100  0.658100  0.299000  1
  C  C705  1  0.346100  0.343700  0.792000  1
  C  C706  1  0.653900  0.656300  0.208000  1
  C  C707  1  0.362800  0.330300  0.828300  1
  C  C708  1  0.637200  0.669700  0.171700  1
  C  C709  1  0.410000  0.300100  0.837700  1
  C  C710  1  0.590000  0.699900  0.162300  1
  C  C711  1  0.421500  0.290700  0.873400  1
  C  C712  1  0.578500  0.709300  0.126600  1
  C  C713  1  0.388300  0.308000  0.899800  1
  C  C714  1  0.611700  0.692000  0.100200  1
  C  C715  1  0.342600  0.338700  0.890800  1
  C  C716  1  0.657400  0.661300  0.109200  1
  C  C717  1  0.331400  0.350000  0.855100  1
  C  C718  1  0.668600  0.650000  0.144900  1
  C  C719  1  0.301400  0.358700  0.917600  1
  C  C720  1  0.698600  0.641300  0.082400  1
  C  C721  1  0.274700  0.369200  0.007400  1
  C  C722  1  0.725300  0.630800  0.992600  1
  C  C723  1  0.229900  0.387800  0.029600  1
  C  C724  1  0.770100  0.612200  0.970400  1
  C  C725  1  0.228600  0.383800  0.066500  1
  C  C726  1  0.771400  0.616200  0.933500  1
  C  C727  1  0.183000  0.402800  0.085600  1
  C  C728  1  0.817000  0.597200  0.914400  1
  C  C729  1  0.141600  0.425800  0.068400  1
  C  C730  1  0.858400  0.574200  0.931600  1
  C  C731  1  0.145100  0.429000  0.031200  1
  C  C732  1  0.854900  0.571000  0.968800  1
  C  C733  1  0.147300  0.292300  0.981300  1
  C  C734  1  0.852700  0.707700  0.018700  1
  C  C735  1  0.103000  0.257400  0.986900  1
  C  C736  1  0.897000  0.742600  0.013100  1
  C  C737  1  0.055000  0.277600  0.976900  1
  C  C738  1  0.945000  0.722400  0.023100  1
  C  C739  1  0.051600  0.332700  0.960400  1
  C  C740  1  0.948400  0.667300  0.039600  1
  C  C741  1  0.097200  0.365400  0.954900  1
  C  C742  1  0.902800  0.634600  0.045100  1
  C  C743  1  0.099900  0.423200  0.936900  1
  C  C744  1  0.900100  0.576800  0.063100  1
  C  C745  1  0.205700  0.516100  0.914400  1
  C  C746  1  0.794300  0.483900  0.085600  1
  C  C747  1  0.224100  0.573500  0.895030  1
  C  C748  1  0.775900  0.426500  0.104970  1
  C  C749  1  0.186200  0.613000  0.886000  1
  C  C750  1  0.813800  0.387000  0.114000  1
  C  C751  1  0.204900  0.666900  0.868200  1
  C  C752  1  0.795100  0.333100  0.131800  1
  C  C753  1  0.259900  0.680300  0.859200  1
  C  C754  1  0.740100  0.319700  0.140800  1
  C  C755  1  0.298100  0.640900  0.868100  1
  C  C756  1  0.701900  0.359100  0.131900  1
  C  C757  1  0.279900  0.587300  0.885800  1
  C  C758  1  0.720100  0.412700  0.114200  1
  C  C759  1  0.359100  0.651000  0.859600  1
  C  C760  1  0.640900  0.349000  0.140400  1
  C  C761  1  0.451900  0.760600  0.808700  1
  C  C762  1  0.548100  0.239400  0.191300  1
  C  C763  1  0.511200  0.769200  0.797690  1
  C  C764  1  0.488800  0.230800  0.202310  1
  C  C765  1  0.536300  0.815300  0.770900  1
  C  C766  1  0.463700  0.184700  0.229100  1
  C  C767  1  0.593700  0.817900  0.761400  1
  C  C768  1  0.406300  0.182100  0.238600  1
  C  C769  1  0.623300  0.777100  0.779200  1
  C  C770  1  0.376700  0.222900  0.220800  1
  C  C771  1  0.595600  0.732800  0.806800  1
  C  C772  1  0.404400  0.267200  0.193200  1
  C  C773  1  0.446300  0.699500  0.918000  1
  C  C774  1  0.553700  0.300500  0.082000  1
  C  C775  1  0.446500  0.701900  0.953500  1
  C  C776  1  0.553500  0.298100  0.046500  1
  C  C777  1  0.480600  0.668800  0.973400  1
  C  C778  1  0.519400  0.331200  0.026600  1
  C  C779  1  0.513600  0.633800  0.958500  1
  C  C780  1  0.486400  0.366200  0.041500  1
  C  C781  1  0.511500  0.633300  0.923100  1
  C  C782  1  0.488500  0.366700  0.076900  1
  C  C783  1  0.541800  0.598000  0.904900  1
  C  C784  1  0.458200  0.402000  0.095100  1
  C  C785  1  0.538500  0.590000  0.818100  1
  C  C786  1  0.461500  0.410000  0.181900  1
  C  C787  1  0.557300  0.562900  0.789100  1
  C  C788  1  0.442700  0.437100  0.210900  1
  C  C789  1  0.587300  0.516200  0.794000  1
  C  C790  1  0.412700  0.483800  0.206000  1
  C  C791  1  0.601600  0.494500  0.765300  1
  C  C792  1  0.398400  0.505500  0.234700  1
  C  C793  1  0.588200  0.519600  0.731400  1
  C  C794  1  0.411800  0.480400  0.268600  1
  C  C795  1  0.558100  0.566500  0.725800  1
  C  C796  1  0.441900  0.433500  0.274200  1
  C  C797  1  0.542000  0.587800  0.754900  1
  C  C798  1  0.458000  0.412200  0.245100  1
  C  C799  1  0.540700  0.592600  0.689500  1
  C  C800  1  0.459300  0.407400  0.310500  1
  C  C801  1  0.560600  0.587400  0.601000  1
  C  C802  1  0.439400  0.412600  0.399000  1
  C  C803  1  0.531700  0.610500  0.570910  1
  C  C804  1  0.468300  0.389500  0.429090  1
  C  C805  1  0.545100  0.602500  0.536400  1
  C  C806  1  0.454900  0.397500  0.463600  1
  C  C807  1  0.514200  0.628100  0.509800  1
  C  C808  1  0.485800  0.371900  0.490200  1
  C  C809  1  0.469600  0.656600  0.518200  1
  C  C810  1  0.530400  0.343400  0.481800  1
  C  C811  1  0.458100  0.663600  0.553100  1
  C  C812  1  0.541900  0.336400  0.446900  1
  C  C813  1  0.582800  0.743800  0.594580  1
  C  C814  1  0.417200  0.256200  0.405420  1
  C  C815  1  0.603800  0.796700  0.580000  1
  C  C816  1  0.396200  0.203300  0.420000  1
  C  C817  1  0.569100  0.838000  0.578600  1
  C  C818  1  0.430900  0.162000  0.421400  1
  C  C819  1  0.512800  0.828000  0.592100  1
  C  C820  1  0.487200  0.172000  0.407900  1
  C  C821  1  0.493800  0.774900  0.606250  1
  C  C822  1  0.506200  0.225100  0.393750  1
  C  C823  1  0.436500  0.759500  0.621100  1
  C  C824  1  0.563500  0.240500  0.378900  1
  C  C825  1  0.364800  0.639500  0.661490  1
  C  C826  1  0.635200  0.360500  0.338510  1
  C  C827  1  0.307900  0.617600  0.679830  1
  C  C828  1  0.692100  0.382400  0.320170  1
  C  C829  1  0.261400  0.648500  0.686300  1
  C  C830  1  0.738600  0.351500  0.313700  1
  C  C831  1  0.209700  0.624100  0.704500  1
  C  C832  1  0.790300  0.375900  0.295500  1
  C  C833  1  0.201400  0.568700  0.715900  1
  C  C834  1  0.798600  0.431300  0.284100  1
  C  C835  1  0.248500  0.537600  0.709000  1
  C  C836  1  0.751500  0.462400  0.291000  1
  C  C837  1  0.299600  0.561900  0.691200  1
  C  C838  1  0.700400  0.438100  0.308800  1
  C  C839  1  0.247700  0.477700  0.720200  1
  C  C840  1  0.752300  0.522300  0.279800  1
  C  C841  1  0.164400  0.362800  0.758200  1
  C  C842  1  0.835600  0.637200  0.241800  1
  C  C843  1  0.176900  0.307000  0.767360  1
  C  C844  1  0.823100  0.693000  0.232640  1
  C  C845  1  0.136600  0.266700  0.784100  1
  C  C846  1  0.863400  0.733300  0.215900  1
  C  C847  1  0.152900  0.213900  0.791400  1
  C  C848  1  0.847100  0.786100  0.208600  1
  C  C849  1  0.207000  0.203200  0.782600  1
  C  C850  1  0.793000  0.796800  0.217400  1
  C  C851  1  0.245600  0.245400  0.765700  1
  C  C852  1  0.754400  0.754600  0.234300  1
  C  C853  1  0.387400  0.827900  0.394900  1
  C  C854  1  0.612600  0.172100  0.605100  1
  C  C855  1  0.417300  0.797000  0.420800  1
  C  C856  1  0.582700  0.203000  0.579200  1
  C  C857  1  0.419400  0.743100  0.427100  1
  C  C858  1  0.580600  0.256900  0.572900  1
  C  C859  1  0.389100  0.719200  0.409700  1
  C  C860  1  0.610900  0.280800  0.590300  1
  C  C861  1  0.360100  0.751800  0.384400  1
  C  C862  1  0.639900  0.248200  0.615600  1
  C  C863  1  0.328400  0.730000  0.363800  1
  C  C864  1  0.671600  0.270000  0.636200  1
  C  C865  1  0.244900  0.782300  0.298800  1
  C  C866  1  0.755100  0.217700  0.701200  1
  C  C867  1  0.204300  0.764800  0.281300  1
  C  C868  1  0.795700  0.235200  0.718700  1
  C  C869  1  0.182700  0.713500  0.293100  1
  C  C870  1  0.817300  0.286500  0.706900  1
  C  C871  1  0.144100  0.700300  0.275000  1
  C  C872  1  0.855900  0.299700  0.725000  1
  C  C873  1  0.126600  0.738000  0.246700  1
  C  C874  1  0.873400  0.262000  0.753300  1
  C  C875  1  0.148900  0.790700  0.232700  1
  C  C876  1  0.851100  0.209300  0.767300  1
  C  C877  1  0.187900  0.803700  0.250200  1
  C  C878  1  0.812100  0.196300  0.749800  1
  C  C879  1  0.130400  0.829100  0.200000  1
  C  C880  1  0.869600  0.170900  0.800000  1
  C  C881  1  0.095700  0.920900  0.144200  1
  C  C882  1  0.904300  0.079100  0.855800  1
  C  C883  1  0.083100  0.970100  0.115000  1
  C  C884  1  0.916900  0.029900  0.885000  1
  C  C885  1  0.051000  0.967900  0.090000  1
  C  C886  1  0.949000  0.032100  0.910000  1
  C  C887  1  0.041000  0.015400  0.064200  1
  C  C888  1  0.959000  0.984600  0.935800  1
  C  C889  1  0.062800  0.062400  0.063500  1
  C  C890  1  0.937200  0.937600  0.936500  1
  C  C891  1  0.094500  0.062400  0.089500  1
  C  C892  1  0.905500  0.937600  0.910500  1
  C  C893  1  0.258900  0.025300  0.098700  1
  C  C894  1  0.741100  0.974700  0.901300  1
  C  C895  1  0.309400  0.053300  0.082700  1
  C  C896  1  0.690600  0.946700  0.917300  1
  C  C897  1  0.324100  0.090900  0.096600  1
  C  C898  1  0.675900  0.909100  0.903400  1
  C  C899  1  0.289000  0.101100  0.126200  1
  C  C900  1  0.711000  0.898900  0.873800  1
  C  C901  1  0.239600  0.072600  0.141000  1
  C  C902  1  0.760400  0.927400  0.859000  1
  C  C903  1  0.204200  0.083600  0.171700  1
  C  C904  1  0.795800  0.916400  0.828300  1
  C  C905  1  0.116200  0.102300  0.230600  1
  C  C906  1  0.883800  0.897700  0.769400  1
  C  C907  1  0.068500  0.103600  0.260400  1
  C  C908  1  0.931500  0.896400  0.739600  1
  C  C909  1  0.071400  0.133600  0.284800  1
  C  C910  1  0.928600  0.866400  0.715200  1
  C  C911  1  0.027300  0.134900  0.312400  1
  C  C912  1  0.972700  0.865100  0.687600  1
  C  C913  1  0.979100  0.108200  0.317100  1
  C  C914  1  0.020900  0.891800  0.682900  1
  C  C915  1  0.974700  0.077700  0.294100  1
  C  C916  1  0.025300  0.922300  0.705900  1
  C  C917  1  0.018700  0.075000  0.267100  1
  C  C918  1  0.981300  0.925000  0.732900  1
  C  C919  1  0.923300  0.046400  0.296900  1
  C  C920  1  0.076700  0.953600  0.703100  1
  C  C921  1  0.783800  0.025700  0.341400  1
  C  C922  1  0.216200  0.974300  0.658600  1
  C  C923  1  0.737300  0.998500  0.337620  1
  C  C924  1  0.262700  0.001500  0.662380  1
  C  C925  1  0.684200  0.001500  0.356800  1
  C  C926  1  0.315800  0.998500  0.643200  1
  C  C927  1  0.641500  0.975100  0.350800  1
  C  C928  1  0.358500  0.024900  0.649200  1
  C  C929  1  0.653000  0.945500  0.327000  1
  C  C930  1  0.347000  0.054500  0.673000  1
  C  C931  1  0.707300  0.943600  0.308600  1
  C  C932  1  0.292700  0.056400  0.691400  1
  C  C933  1  0.825200  0.083700  0.226700  1
  C  C934  1  0.174800  0.916300  0.773300  1
  C  C935  1  0.815700  0.114000  0.191800  1
  C  C936  1  0.184300  0.886000  0.808200  1
  C  C937  1  0.808200  0.087800  0.167800  1
  C  C938  1  0.191800  0.912200  0.832200  1
  C  C939  1  0.811300  0.032300  0.177990  1
  C  C940  1  0.188700  0.967700  0.822010  1
  C  C941  1  0.820100  0.004400  0.213220  1
  C  C942  1  0.179900  0.995600  0.786780  1
  C  C943  1  0.828000  0.946600  0.226500  1
  C  C944  1  0.172000  0.053400  0.773500  1
  C  C945  1  0.864600  0.869100  0.307100  1
  C  C946  1  0.135400  0.130900  0.692900  1
  C  C947  1  0.883800  0.816100  0.326700  1
  C  C948  1  0.116200  0.183900  0.673300  1
  C  C949  1  0.880300  0.771000  0.314400  1
  C  C950  1  0.119700  0.229000  0.685600  1
  C  C951  1  0.899400  0.721500  0.334200  1
  C  C952  1  0.100600  0.278500  0.665800  1
  C  C953  1  0.921700  0.715700  0.365500  1
  C  C954  1  0.078300  0.284300  0.634500  1
  C  C955  1  0.925100  0.760900  0.377700  1
  C  C956  1  0.074900  0.239100  0.622300  1
  C  C957  1  0.905200  0.809400  0.358800  1
  C  C958  1  0.094800  0.190600  0.641200  1
  C  C959  1  0.949200  0.757400  0.410200  1
  C  C960  1  0.050800  0.242600  0.589800  1
  C  C961  1  0.001700  0.674600  0.484600  1
  C  C962  1  0.998300  0.325400  0.515400  1
  C  C963  1  0.020700  0.686500  0.514000  1
  C  C964  1  0.979300  0.313500  0.486000  1
  C  C965  1  0.041100  0.649500  0.542300  1
  C  C966  1  0.958900  0.350500  0.457700  1
  C  C967  1  0.058600  0.666800  0.568900  1
  C  C968  1  0.941400  0.333200  0.431100  1
  C  C969  1  0.054500  0.719600  0.566500  1
  C  C970  1  0.945500  0.280400  0.433500  1
  C  C971  1  0.034100  0.755200  0.537000  1
  C  C972  1  0.965900  0.244800  0.463000  1
  C  C973  1  0.853800  0.745300  0.513000  1
  C  C974  1  0.146200  0.254700  0.487000  1
  C  C975  1  0.799400  0.756400  0.525900  1
  C  C976  1  0.200600  0.243600  0.474100  1
  C  C977  1  0.785700  0.807200  0.525500  1
  C  C978  1  0.214300  0.192800  0.474500  1
  C  C979  1  0.826300  0.847500  0.510700  1
  C  C980  1  0.173700  0.152500  0.489300  1
  C  C981  1  0.880200  0.833800  0.499200  1
  C  C982  1  0.119800  0.166200  0.500800  1
  C  C983  1  0.926700  0.871700  0.485600  1
  C  C984  1  0.073300  0.128300  0.514400  1
  C  C985  1  0.065300  0.872800  0.447900  1
  C  C986  1  0.934700  0.127200  0.552100  1
  C  C987  1  0.115500  0.909100  0.434000  1
  C  C988  1  0.884500  0.090900  0.566000  1
  C  C989  1  0.119900  0.955900  0.443400  1
  C  C990  1  0.880100  0.044100  0.556600  1
  C  C991  1  0.168800  0.986900  0.427900  1
  C  C992  1  0.831200  0.013100  0.572100  1
  C  C993  1  0.212400  0.972300  0.404600  1
  C  C994  1  0.787600  0.027700  0.595400  1
  C  C995  1  0.207600  0.924400  0.396500  1
  C  C996  1  0.792400  0.075600  0.603500  1
  C  C997  1  0.159900  0.893000  0.411800  1
  C  C998  1  0.840100  0.107000  0.588200  1
  C  C999  1  0.251300  0.906700  0.370100  1
  C  C1000  1  0.748700  0.093300  0.629900  1
  C  C1001  1  0.368600  0.938000  0.301400  1
  C  C1002  1  0.631400  0.062000  0.698600  1
  C  C1003  1  0.395300  0.906700  0.278500  1
  C  C1004  1  0.604700  0.093300  0.721500  1
  C  C1005  1  0.439400  0.927100  0.249200  1
  C  C1006  1  0.560600  0.072900  0.750800  1
  C  C1007  1  0.462400  0.893800  0.228800  1
  C  C1008  1  0.537600  0.106200  0.771200  1
  C  C1009  1  0.440900  0.843500  0.236400  1
  C  C1010  1  0.559100  0.156500  0.763600  1
  C  C1011  1  0.397000  0.825200  0.266500  1
  C  C1012  1  0.603000  0.174800  0.733500  1
  C  C1013  1  0.342700  0.761600  0.184000  1
  C  C1014  1  0.657300  0.238400  0.816000  1
  C  C1015  1  0.333000  0.716200  0.215700  1
  C  C1016  1  0.667000  0.283800  0.784300  1
  C  C1017  1  0.285600  0.687100  0.224000  1
  C  C1018  1  0.714400  0.312900  0.776000  1
  C  C1019  1  0.248500  0.700500  0.199900  1
  C  C1020  1  0.751500  0.299500  0.800100  1
  C  C1021  1  0.260300  0.745700  0.168800  1
  C  C1022  1  0.739700  0.254300  0.831200  1
  C  C1023  1  0.221100  0.766000  0.144600  1
  C  C1024  1  0.778900  0.234000  0.855400  1
  C  C1025  1  0.210600  0.882000  0.070900  1
  C  C1026  1  0.789400  0.118000  0.929100  1
  C  C1027  1  0.170800  0.907700  0.046300  1
  C  C1028  1  0.829200  0.092300  0.953700  1
  C  C1029  1  0.122200  0.882700  0.045400  1
  C  C1030  1  0.877800  0.117300  0.954600  1
  C  C1031  1  0.088700  0.911200  0.020900  1
  C  C1032  1  0.911300  0.088800  0.979100  1
  C  C1033  1  0.103100  0.963000  0.997700  1
  C  C1034  1  0.896900  0.037000  0.002300  1
  C  C1035  1  0.150700  0.988100  0.999300  1
  C  C1036  1  0.849300  0.011900  0.000700  1
  C  C1037  1  0.184400  0.959900  0.023300  1
  C  C1038  1  0.815600  0.040100  0.976700  1
  C  C1039  1  0.169800  0.044200  0.976600  1
  C  C1040  1  0.830200  0.955800  0.023400  1
  C  C1041  1  0.116100  0.159900  0.922260  1
  C  C1042  1  0.883900  0.840100  0.077740  1
  C  C1043  1  0.134500  0.216400  0.902460  1
  C  C1044  1  0.865500  0.783600  0.097540  1
  C  C1045  1  0.100600  0.253500  0.884000  1
  C  C1046  1  0.899400  0.746500  0.116000  1
  C  C1047  1  0.120000  0.306200  0.866800  1
  C  C1048  1  0.880000  0.693800  0.133200  1
  C  C1049  1  0.172000  0.319000  0.867800  1
  C  C1050  1  0.828000  0.681000  0.132200  1
  C  C1051  1  0.204200  0.279600  0.886900  1
  C  C1052  1  0.795800  0.720400  0.113100  1
  C  C1053  1  0.253200  0.117800  0.869200  1
  C  C1054  1  0.746800  0.882200  0.130800  1
  C  C1055  1  0.289000  0.109200  0.838600  1
  C  C1056  1  0.711000  0.890800  0.161400  1
  C  C1057  1  0.343300  0.122400  0.832700  1
  C  C1058  1  0.656700  0.877600  0.167300  1
  C  C1059  1  0.362300  0.143900  0.856600  1
  C  C1060  1  0.637700  0.856100  0.143400  1
  C  C1061  1  0.325100  0.150300  0.887000  1
  C  C1062  1  0.674900  0.849700  0.113000  1
  C  C1063  1  0.340700  0.169300  0.914800  1
  C  C1064  1  0.659300  0.830700  0.085200  1
  C  C1065  1  0.259400  0.187100  0.992200  1
  C  C1066  1  0.740600  0.812900  0.007800  1
  C  C1067  1  0.257400  0.204500  0.025600  1
  C  C1068  1  0.742600  0.795500  0.974400  1
  C  C1069  1  0.304900  0.223500  0.033000  1
  C  C1070  1  0.695100  0.776500  0.967000  1
  C  C1071  1  0.301000  0.238900  0.064400  1
  C  C1072  1  0.699000  0.761100  0.935600  1
  C  C1073  1  0.250600  0.236200  0.088700  1
  C  C1074  1  0.749400  0.763800  0.911300  1
  C  C1075  1  0.202700  0.216800  0.081600  1
  C  C1076  1  0.797300  0.783200  0.918400  1
  C  C1077  1  0.207500  0.201000  0.050900  1
  C  C1078  1  0.792500  0.799000  0.949100  1
  C  C1079  1  0.147000  0.214800  0.105100  1
  C  C1080  1  0.853000  0.785200  0.894900  1
  C  C1081  1  0.076100  0.238600  0.185700  1
  C  C1082  1  0.923900  0.761400  0.814300  1
  C  C1083  1  0.019400  0.231600  0.205470  1
  C  C1084  1  0.980600  0.768400  0.794530  1
  C  C1085  1  0.001200  0.240900  0.239200  1
  C  C1086  1  0.998800  0.759100  0.760800  1
  C  C1087  1  0.946200  0.231800  0.256000  1
  C  C1088  1  0.053800  0.768200  0.744000  1
  C  C1089  1  0.910900  0.215200  0.238800  1
  C  C1090  1  0.089100  0.784800  0.761200  1
  C  C1091  1  0.931500  0.206600  0.204800  1
  C  C1092  1  0.068500  0.793400  0.795200  1
  C  C1093  1  0.024700  0.331200  0.096400  1
  C  C1094  1  0.975300  0.668800  0.903600  1
  C  C1095  1  0.007600  0.378000  0.072300  1
  C  C1096  1  0.992400  0.622000  0.927700  1
  C  C1097  1  0.974800  0.372500  0.049300  1
  C  C1098  1  0.025200  0.627500  0.950700  1
  C  C1099  1  0.958500  0.321800  0.050600  1
  C  C1100  1  0.041500  0.678200  0.949400  1
  C  C1101  1  0.976300  0.277000  0.075700  1
  C  C1102  1  0.023700  0.723000  0.924300  1
  C  C1103  1  0.958700  0.222400  0.081700  1
  C  C1104  1  0.041300  0.777600  0.918300  1
  C  C1105  1  0.985300  0.102700  0.144700  1
  C  C1106  1  0.014700  0.897300  0.855300  1
  C  C1107  1  0.974900  0.044300  0.157390  1
  C  C1108  1  0.025100  0.955700  0.842610  1
  C  C1109  1  0.946500  0.016300  0.140800  1
  C  C1110  1  0.053500  0.983700  0.859200  1
  C  C1111  1  0.939900  0.960800  0.155700  1
  C  C1112  1  0.060100  0.039200  0.844300  1
  C  C1113  1  0.960500  0.932400  0.186800  1
  C  C1114  1  0.039500  0.067600  0.813200  1
  C  C1115  1  0.989400  0.959800  0.203300  1
  C  C1116  1  0.010600  0.040200  0.796700  1
  C  C1117  1  0.995500  0.014600  0.188400  1
  C  C1118  1  0.004500  0.985400  0.811600  1
  C  C1119  1  0.015200  0.932800  0.236500  1
  C  C1120  1  0.984800  0.067200  0.763500  1
  C  C1121  1  0.032100  0.812300  0.301200  1
  C  C1122  1  0.967900  0.187700  0.698800  1
  C  C1123  1  0.069500  0.798100  0.326980  1
  C  C1124  1  0.930500  0.201900  0.673020  1
  C  C1125  1  0.072900  0.746700  0.351200  1
  C  C1126  1  0.927100  0.253300  0.648800  1
  C  C1127  1  0.110700  0.737900  0.374200  1
  C  C1128  1  0.889300  0.262100  0.625800  1
  C  C1129  1  0.143300  0.779400  0.372900  1
  C  C1130  1  0.856700  0.220600  0.627100  1
  C  C1131  1  0.138300  0.830500  0.347700  1
  C  C1132  1  0.861700  0.169500  0.652300  1
  C  C1133  1  0.974200  0.935300  0.349200  1
  C  C1134  1  0.025800  0.064700  0.650800  1
  C  C1135  1  0.947800  0.957200  0.376600  1
  C  C1136  1  0.052200  0.042800  0.623400  1
  C  C1137  1  0.978200  0.987300  0.389000  1
  C  C1138  1  0.021800  0.012700  0.611000  1
  C  C1139  1  0.033800  0.997000  0.373500  1
  C  C1140  1  0.966200  0.003000  0.626500  1
  C  C1141  1  0.057300  0.975200  0.345600  1
  C  C1142  1  0.942700  0.024800  0.654400  1
  C  C1143  1  0.112700  0.985400  0.327200  1
  C  C1144  1  0.887300  0.014600  0.672800  1
  C  C1145  1  0.196800  0.953700  0.253900  1
  C  C1146  1  0.803200  0.046300  0.746100  1
  C  C1147  1  0.251100  0.965400  0.228100  1
  C  C1148  1  0.748900  0.034600  0.771900  1
  C  C1149  1  0.291200  0.000900  0.228600  1
  C  C1150  1  0.708800  0.999100  0.771400  1
  C  C1151  1  0.340300  0.011700  0.204800  1
  C  C1152  1  0.659700  0.988300  0.795200  1
  C  C1153  1  0.353000  0.986000  0.177400  1
  C  C1154  1  0.647000  0.014000  0.822600  1
  C  C1155  1  0.315700  0.950100  0.175300  1
  C  C1156  1  0.684300  0.049900  0.824700  1
  C  C1157  1  0.264600  0.940100  0.201000  1
  C  C1158  1  0.735400  0.059900  0.799000  1
  C  C1159  1  0.324500  0.920300  0.148100  1
  C  C1160  1  0.675500  0.079700  0.851900  1
  C  C1161  1  0.412600  0.882800  0.079700  1
  C  C1162  1  0.587400  0.117200  0.920300  1
  C  C1163  1  0.404500  0.847700  0.060700  1
  C  C1164  1  0.595500  0.152300  0.939300  1
  C  C1165  1  0.443100  0.836400  0.032700  1
  C  C1166  1  0.556900  0.163600  0.967300  1
  C  C1167  1  0.429100  0.799800  0.016500  1
  C  C1168  1  0.570900  0.200200  0.983500  1
  C  C1169  1  0.378300  0.776100  0.027700  1
  C  C1170  1  0.621700  0.223900  0.972300  1
  C  C1171  1  0.340600  0.789300  0.055500  1
  C  C1172  1  0.659400  0.210700  0.944500  1
  C  C1173  1  0.311900  0.818300  0.783360  1
  C  C1174  1  0.688100  0.181700  0.216640  1
  C  C1175  1  0.340600  0.909300  0.776000  1
  C  C1176  1  0.659400  0.090700  0.224000  1
  C  C1177  1  0.304600  0.889100  0.726000  1
  C  C1178  1  0.695400  0.110900  0.274000  1
  C  C1179  1  0.286000  0.906700  0.466100  1
  C  C1180  1  0.714000  0.093300  0.533900  1
  C  C1181  1  0.248700  0.818900  0.473000  1
  C  C1182  1  0.751300  0.181100  0.527000  1
  C  C1183  1  0.201000  0.874000  0.511500  1
  C  C1184  1  0.799000  0.126000  0.488500  1
  C  C1185  1  0.217600  0.876900  0.497600  1
  C  C1186  1  0.782400  0.123100  0.502400  1
  C  C1187  1  0.268900  0.815300  0.468400  1
  C  C1188  1  0.731100  0.184700  0.531600  1
  C  C1189  1  0.309000  0.905300  0.459300  1
  C  C1190  1  0.691000  0.094700  0.540700  1
  C  C1191  1  0.769200  0.722100  0.381300  1
  C  C1192  1  0.230800  0.277900  0.618700  1
  C  C1193  1  0.787300  0.732000  0.438300  1
  C  C1194  1  0.212700  0.268000  0.561700  1
  C  C1195  1  0.815900  0.650000  0.420500  1
  C  C1196  1  0.184100  0.350000  0.579500  1
  C  C1197  1  0.821300  0.663000  0.451500  1
  C  C1198  1  0.178700  0.337000  0.548500  1
  C  C1199  1  0.790900  0.754800  0.442000  1
  C  C1200  1  0.209100  0.245200  0.558000  1
  C  C1201  1  0.772900  0.703700  0.400800  1
  C  C1202  1  0.227100  0.296300  0.599200  1
  S  S1203  1  0.538940  0.419920  0.561060  1
  S  S1204  1  0.461060  0.580080  0.438940  1
  S  S1205  1  0.486400  0.917790  0.672480  1
  S  S1206  1  0.513600  0.082210  0.327520  1
  S  S1207  1  0.728200  0.529300  0.500080  1
  S  S1208  1  0.271800  0.470700  0.499920  1
  S  S1209  1  0.322650  0.935060  0.559750  1
  S  S1210  1  0.677350  0.064940  0.440250  1
  S  S1211  1  0.480930  0.252480  0.883690  1
  S  S1212  1  0.519070  0.747520  0.116310  1
  S  S1213  1  0.158160  0.720130  0.855160  1
  S  S1214  1  0.841840  0.279870  0.144840  1
  S  S1215  1  0.636450  0.431990  0.770900  1
  S  S1216  1  0.363550  0.568010  0.229100  1
  S  S1217  1  0.150920  0.662600  0.714250  1
  S  S1218  1  0.849080  0.337400  0.285750  1
  S  S1219  1  0.116800  0.633300  0.291400  1
  S  S1220  1  0.883200  0.366700  0.708600  1
  S  S1221  1  0.033050  0.174540  0.341620  1
  S  S1222  1  0.966950  0.825460  0.658380  1
  S  S1223  1  0.893340  0.665720  0.317890  1
  S  S1224  1  0.106660  0.334280  0.682110  1
  S  S1225  1  0.175800  0.045000  0.441260  1
  S  S1226  1  0.824200  0.955000  0.558740  1
  S  S1227  1  0.025770  0.880240  0.020780  1
  S  S1228  1  0.974230  0.119760  0.979220  1
  S  S1229  1  0.360120  0.265010  0.074210  1
  S  S1230  1  0.639880  0.734990  0.925790  1
  S  S1231  1  0.906650  0.925220  0.132860  1
  S  S1232  1  0.093350  0.074780  0.867140  1
  S  S1233  1  0.386550  0.061800  0.204700  1
  S  S1234  1  0.613450  0.938200  0.795300  1
  N  N1235  1  0.243000  0.657900  0.507380  1
  N  N1236  1  0.757000  0.342100  0.492620  1
  N  N1237  1  0.430200  0.502900  0.804430  1
  N  N1238  1  0.569800  0.497100  0.195570  1
  N  N1239  1  0.326200  0.594500  0.526420  1
  N  N1240  1  0.673800  0.405500  0.473580  1
  N  N1241  1  0.368600  0.562600  0.538110  1
  N  N1242  1  0.631400  0.437400  0.461890  1
  N  N1243  1  0.441100  0.501400  0.699160  1
  N  N1244  1  0.558900  0.498600  0.300840  1
  N  N1245  1  0.437300  0.497600  0.736100  1
  N  N1246  1  0.562700  0.502400  0.263900  1
  N  N1247  1  0.311900  0.540400  0.782480  1
  N  N1248  1  0.688100  0.459600  0.217520  1
  N  N1249  1  0.798100  0.709500  0.625870  1
  N  N1250  1  0.201900  0.290500  0.374130  1
  N  N1251  1  0.379200  0.626600  0.750300  1
  N  N1252  1  0.620800  0.373400  0.249700  1
  N  N1253  1  0.417500  0.669900  0.731540  1
  N  N1254  1  0.582500  0.330100  0.268460  1
  N  N1255  1  0.659100  0.784900  0.656100  1
  N  N1256  1  0.340900  0.215100  0.343900  1
  N  N1257  1  0.707900  0.760900  0.645120  1
  N  N1258  1  0.292100  0.239100  0.354880  1
  N  N1259  1  0.715500  0.648000  0.704310  1
  N  N1260  1  0.284500  0.352000  0.295690  1
  N  N1261  1  0.555000  0.846600  0.400470  1
  N  N1262  1  0.445000  0.153400  0.599530  1
  N  N1263  1  0.713200  0.608400  0.651860  1
  N  N1264  1  0.286800  0.391600  0.348140  1
  N  N1265  1  0.711600  0.595600  0.620010  1
  N  N1266  1  0.288400  0.404400  0.379990  1
  N  N1267  1  0.629800  0.712800  0.442900  1
  N  N1268  1  0.370200  0.287200  0.557100  1
  N  N1269  1  0.604000  0.756900  0.424820  1
  N  N1270  1  0.396000  0.243100  0.575180  1
  N  N1271  1  0.670200  0.866200  0.427430  1
  N  N1272  1  0.329800  0.133800  0.572570  1
  N  N1273  1  0.220700  0.580600  0.591560  1
  N  N1274  1  0.779300  0.419400  0.408440  1
  N  N1275  1  0.575300  0.869900  0.473200  1
  N  N1276  1  0.424700  0.130100  0.526800  1
  N  N1277  1  0.523300  0.873100  0.494030  1
  N  N1278  1  0.476700  0.126900  0.505970  1
  N  N1279  1  0.262600  0.727700  0.583060  1
  N  N1280  1  0.737400  0.272300  0.416940  1
  N  N1281  1  0.242500  0.676400  0.589250  1
  N  N1282  1  0.757500  0.323600  0.410750  1
  N  N1283  1  0.306500  0.374000  0.676800  1
  N  N1284  1  0.693500  0.626000  0.323200  1
  N  N1285  1  0.187800  0.409800  0.012500  1
  N  N1286  1  0.812200  0.590200  0.987500  1
  N  N1287  1  0.357800  0.344200  0.732200  1
  N  N1288  1  0.642200  0.655800  0.267800  1
  N  N1289  1  0.379500  0.329900  0.764200  1
  N  N1290  1  0.620500  0.670100  0.235800  1
  N  N1291  1  0.312400  0.354600  0.951100  1
  N  N1292  1  0.687600  0.645400  0.048900  1
  N  N1293  1  0.270000  0.372200  0.974500  1
  N  N1294  1  0.730000  0.627800  0.025500  1
  N  N1295  1  0.144600  0.345300  0.965740  1
  N  N1296  1  0.855400  0.654700  0.034260  1
  N  N1297  1  0.540500  0.728700  0.816300  1
  N  N1298  1  0.459500  0.271300  0.183700  1
  N  N1299  1  0.144700  0.447600  0.933500  1
  N  N1300  1  0.855300  0.552400  0.066500  1
  N  N1301  1  0.154600  0.502500  0.914800  1
  N  N1302  1  0.845400  0.497500  0.085200  1
  N  N1303  1  0.377100  0.703300  0.839370  1
  N  N1304  1  0.622900  0.296700  0.160630  1
  N  N1305  1  0.432200  0.713500  0.830740  1
  N  N1306  1  0.567800  0.286500  0.169260  1
  N  N1307  1  0.477500  0.666300  0.903100  1
  N  N1308  1  0.522500  0.333700  0.096900  1
  N  N1309  1  0.489600  0.642900  0.578130  1
  N  N1310  1  0.510400  0.357100  0.421870  1
  N  N1311  1  0.534100  0.602400  0.872400  1
  N  N1312  1  0.465900  0.397600  0.127600  1
  N  N1313  1  0.558500  0.572400  0.850270  1
  N  N1314  1  0.441500  0.427600  0.149730  1
  N  N1315  1  0.565000  0.576600  0.661910  1
  N  N1316  1  0.435000  0.423400  0.338090  1
  N  N1317  1  0.542400  0.601200  0.630580  1
  N  N1318  1  0.457600  0.398800  0.369420  1
  N  N1319  1  0.528500  0.732800  0.607620  1
  N  N1320  1  0.471500  0.267200  0.392380  1
  N  N1321  1  0.231100  0.296600  0.758200  1
  N  N1322  1  0.768900  0.703400  0.241800  1
  N  N1323  1  0.424200  0.709100  0.633890  1
  N  N1324  1  0.575800  0.290900  0.366110  1
  N  N1325  1  0.369700  0.692900  0.648900  1
  N  N1326  1  0.630300  0.307100  0.351100  1
  N  N1327  1  0.198600  0.451400  0.734400  1
  N  N1328  1  0.801400  0.548600  0.265600  1
  N  N1329  1  0.205100  0.397000  0.743800  1
  N  N1330  1  0.794900  0.603000  0.256200  1
  N  N1331  1  0.359600  0.805800  0.376800  1
  N  N1332  1  0.640400  0.194200  0.623200  1
  N  N1333  1  0.106100  0.016900  0.114600  1
  N  N1334  1  0.893900  0.983100  0.885400  1
  N  N1335  1  0.301700  0.762800  0.341800  1
  N  N1336  1  0.698300  0.237200  0.658200  1
  N  N1337  1  0.268500  0.744200  0.322800  1
  N  N1338  1  0.731500  0.255800  0.677200  1
  N  N1339  1  0.135000  0.881100  0.195700  1
  N  N1340  1  0.865000  0.118900  0.804300  1
  N  N1341  1  0.122600  0.925900  0.165900  1
  N  N1342  1  0.877400  0.074100  0.834100  1
  N  N1343  1  0.224500  0.034700  0.127400  1
  N  N1344  1  0.775500  0.965300  0.872600  1
  N  N1345  1  0.749200  0.968800  0.313900  1
  N  N1346  1  0.250800  0.031200  0.686100  1
  N  N1347  1  0.157300  0.054800  0.185500  1
  N  N1348  1  0.842700  0.945200  0.814500  1
  N  N1349  1  0.120400  0.062700  0.216200  1
  N  N1350  1  0.879600  0.937300  0.783800  1
  N  N1351  1  0.876700  0.051500  0.320500  1
  N  N1352  1  0.123300  0.948500  0.679500  1
  N  N1353  1  0.831800  0.023000  0.320500  1
  N  N1354  1  0.168200  0.977000  0.679500  1
  N  N1355  1  0.828100  0.030300  0.237260  1
  N  N1356  1  0.171900  0.969700  0.762740  1
  N  N1357  1  0.016000  0.739300  0.511900  1
  N  N1358  1  0.984000  0.260700  0.488100  1
  N  N1359  1  0.840100  0.927900  0.258180  1
  N  N1360  1  0.159900  0.072100  0.741820  1
  N  N1361  1  0.850700  0.874700  0.274250  1
  N  N1362  1  0.149300  0.125300  0.725750  1
  N  N1363  1  0.964900  0.709800  0.430100  1
  N  N1364  1  0.035100  0.290200  0.569900  1
  N  N1365  1  0.984400  0.715000  0.460000  1
  N  N1366  1  0.015600  0.285000  0.540000  1
  N  N1367  1  0.894300  0.783000  0.499800  1
  N  N1368  1  0.105700  0.217000  0.500200  1
  N  N1369  1  0.375100  0.855800  0.287400  1
  N  N1370  1  0.624900  0.144200  0.712600  1
  N  N1371  1  0.973500  0.856800  0.474000  1
  N  N1372  1  0.026500  0.143200  0.526000  1
  N  N1373  1  0.018200  0.893400  0.462000  1
  N  N1374  1  0.981800  0.106600  0.538000  1
  N  N1375  1  0.293400  0.940800  0.348900  1
  N  N1376  1  0.706600  0.059200  0.651100  1
  N  N1377  1  0.326100  0.918200  0.325400  1
  N  N1378  1  0.673900  0.081800  0.674600  1
  N  N1379  1  0.306700  0.776500  0.161200  1
  N  N1380  1  0.693300  0.223500  0.838800  1
  N  N1381  1  0.186800  0.228500  0.903700  1
  N  N1382  1  0.813200  0.771500  0.096300  1
  N  N1383  1  0.233300  0.810900  0.119200  1
  N  N1384  1  0.766700  0.189100  0.880800  1
  N  N1385  1  0.196200  0.831600  0.096200  1
  N  N1386  1  0.803800  0.168400  0.903800  1
  N  N1387  1  0.132900  0.076400  0.960260  1
  N  N1388  1  0.867100  0.923600  0.039740  1
  N  N1389  1  0.150100  0.128700  0.939930  1
  N  N1390  1  0.849900  0.871300  0.060070  1
  N  N1391  1  0.270500  0.137800  0.892840  1
  N  N1392  1  0.729500  0.862200  0.107160  1
  N  N1393  1  0.984400  0.215800  0.187840  1
  N  N1394  1  0.015600  0.784200  0.812160  1
  N  N1395  1  0.300800  0.173200  0.940700  1
  N  N1396  1  0.699200  0.826800  0.059300  1
  N  N1397  1  0.308000  0.189000  0.970600  1
  N  N1398  1  0.692000  0.811000  0.029400  1
  N  N1399  1  0.142000  0.229700  0.135900  1
  N  N1400  1  0.858000  0.770300  0.864100  1
  N  N1401  1  0.088000  0.227800  0.155000  1
  N  N1402  1  0.912000  0.772200  0.845000  1
  N  N1403  1  0.009600  0.282200  0.098300  1
  N  N1404  1  0.990400  0.717800  0.901700  1
  N  N1405  1  0.101100  0.839800  0.326310  1
  N  N1406  1  0.898900  0.160200  0.673690  1
  N  N1407  1  0.975900  0.186400  0.108200  1
  N  N1408  1  0.024100  0.813600  0.891800  1
  N  N1409  1  0.960400  0.132600  0.117210  1
  N  N1410  1  0.039600  0.867400  0.882790  1
  N  N1411  1  0.004100  0.879700  0.252900  1
  N  N1412  1  0.995900  0.120300  0.747100  1
  N  N1413  1  0.034800  0.862200  0.280600  1
  N  N1414  1  0.965200  0.137800  0.719400  1
  N  N1415  1  0.027800  0.943700  0.333800  1
  N  N1416  1  0.972200  0.056300  0.666200  1
  N  N1417  1  0.353900  0.823600  0.071800  1
  N  N1418  1  0.646100  0.176400  0.928200  1
  N  N1419  1  0.132100  0.964000  0.299900  1
  N  N1420  1  0.867900  0.036000  0.700100  1
  N  N1421  1  0.185200  0.975200  0.280400  1
  N  N1422  1  0.814800  0.024800  0.719600  1
  N  N1423  1  0.373900  0.922400  0.126200  1
  N  N1424  1  0.626100  0.077600  0.873800  1
  N  N1425  1  0.373200  0.889800  0.104000  1
  N  N1426  1  0.626800  0.110200  0.896000  1
  N  N1427  1  0.318600  0.869700  0.762700  1
  N  N1428  1  0.681400  0.130300  0.237300  1
  N  N1429  1  0.247100  0.868500  0.482700  1
  N  N1430  1  0.752900  0.131500  0.517300  1
  N  N1431  1  0.263000  0.866400  0.476200  1
  N  N1432  1  0.737000  0.133600  0.523800  1
  N  N1433  1  0.789900  0.702300  0.411900  1
  N  N1434  1  0.210100  0.297700  0.588100  1
  N  N1435  1  0.796200  0.705100  0.432400  1
  N  N1436  1  0.203800  0.294900  0.567600  1
  O  O1437  1  0.344800  0.579500  0.593130  1
  O  O1438  1  0.655200  0.420500  0.406870  1
  O  O1439  1  0.506900  0.370000  0.568700  1
  O  O1440  1  0.493100  0.630000  0.431300  1
  O  O1441  1  0.587600  0.410900  0.577060  1
  O  O1442  1  0.412400  0.589100  0.422940  1
  O  O1443  1  0.549900  0.452200  0.521840  1
  O  O1444  1  0.450100  0.547800  0.478160  1
  O  O1445  1  0.483100  0.422300  0.697790  1
  O  O1446  1  0.516900  0.577700  0.302210  1
  O  O1447  1  0.377700  0.734400  0.755700  1
  O  O1448  1  0.622300  0.265600  0.244300  1
  O  O1449  1  0.535100  0.945600  0.653200  1
  O  O1450  1  0.464900  0.054400  0.346800  1
  O  O1451  1  0.460600  0.926100  0.707800  1
  O  O1452  1  0.539400  0.073900  0.292200  1
  O  O1453  1  0.442500  0.926300  0.651700  1
  O  O1454  1  0.557500  0.073700  0.348300  1
  O  O1455  1  0.618000  0.702300  0.673360  1
  O  O1456  1  0.382000  0.297700  0.326640  1
  O  O1457  1  0.695800  0.687300  0.598240  1
  O  O1458  1  0.304200  0.312700  0.401760  1
  O  O1459  1  0.782400  0.542200  0.477000  1
  O  O1460  1  0.217600  0.457800  0.523000  1
  O  O1461  1  0.693100  0.522600  0.476900  1
  O  O1462  1  0.306900  0.477400  0.523100  1
  O  O1463  1  0.728100  0.485700  0.533320  1
  O  O1464  1  0.271900  0.514300  0.466680  1
  O  O1465  1  0.623200  0.760060  0.485340  1
  O  O1466  1  0.376800  0.239940  0.514660  1
  O  O1467  1  0.498000  0.800200  0.480770  1
  O  O1468  1  0.502000  0.199800  0.519230  1
  O  O1469  1  0.290500  0.959100  0.532500  1
  O  O1470  1  0.709500  0.040900  0.467500  1
  O  O1471  1  0.367400  0.966900  0.561100  1
  O  O1472  1  0.632600  0.033100  0.438900  1
  O  O1473  1  0.288000  0.914000  0.597130  1
  O  O1474  1  0.712000  0.086000  0.402870  1
  O  O1475  1  0.332200  0.699740  0.542630  1
  O  O1476  1  0.667800  0.300260  0.457370  1
  O  O1477  1  0.300000  0.365200  0.788920  1
  O  O1478  1  0.700000  0.634800  0.211080  1
  O  O1479  1  0.471800  0.201200  0.881000  1
  O  O1480  1  0.528200  0.798800  0.119000  1
  O  O1481  1  0.478400  0.245400  0.923400  1
  O  O1482  1  0.521600  0.754600  0.076600  1
  O  O1483  1  0.528200  0.281800  0.861400  1
  O  O1484  1  0.471800  0.718200  0.138600  1
  O  O1485  1  0.257400  0.377500  0.909400  1
  O  O1486  1  0.742600  0.622500  0.090600  1
  O  O1487  1  0.240900  0.483400  0.929230  1
  O  O1488  1  0.759100  0.516600  0.070770  1
  O  O1489  1  0.155600  0.748700  0.882100  1
  O  O1490  1  0.844400  0.251300  0.117900  1
  O  O1491  1  0.106000  0.694400  0.858300  1
  O  O1492  1  0.894000  0.305600  0.141700  1
  O  O1493  1  0.183300  0.752600  0.817500  1
  O  O1494  1  0.816700  0.247400  0.182500  1
  O  O1495  1  0.391400  0.616600  0.870410  1
  O  O1496  1  0.608600  0.383400  0.129590  1
  O  O1497  1  0.501700  0.623500  0.811850  1
  O  O1498  1  0.498300  0.376500  0.188150  1
  O  O1499  1  0.597700  0.394700  0.767800  1
  O  O1500  1  0.402300  0.605300  0.232200  1
  O  O1501  1  0.655200  0.418900  0.805200  1
  O  O1502  1  0.344800  0.581100  0.194800  1
  O  O1503  1  0.683100  0.442700  0.739600  1
  O  O1504  1  0.316900  0.557300  0.260400  1
  O  O1505  1  0.502700  0.627600  0.687660  1
  O  O1506  1  0.497300  0.372400  0.312340  1
  O  O1507  1  0.403700  0.608000  0.659820  1
  O  O1508  1  0.596300  0.392000  0.340180  1
  O  O1509  1  0.113500  0.655500  0.691800  1
  O  O1510  1  0.886500  0.344500  0.308200  1
  O  O1511  1  0.169300  0.717400  0.702500  1
  O  O1512  1  0.830700  0.282600  0.297500  1
  O  O1513  1  0.129800  0.641400  0.753100  1
  O  O1514  1  0.870200  0.358600  0.246900  1
  O  O1515  1  0.291900  0.454500  0.716760  1
  O  O1516  1  0.708100  0.545500  0.283240  1
  O  O1517  1  0.253200  0.831700  0.292900  1
  O  O1518  1  0.746800  0.168300  0.707100  1
  O  O1519  1  0.096900  0.624300  0.261700  1
  O  O1520  1  0.903100  0.375700  0.738300  1
  O  O1521  1  0.072500  0.630800  0.322700  1
  O  O1522  1  0.927500  0.369200  0.677300  1
  O  O1523  1  0.159800  0.599200  0.302500  1
  O  O1524  1  0.840200  0.400800  0.697500  1
  O  O1525  1  0.115100  0.811500  0.177700  1
  O  O1526  1  0.884900  0.188500  0.822300  1
  O  O1527  1  0.146700  0.144000  0.216600  1
  O  O1528  1  0.853300  0.856000  0.783400  1
  O  O1529  1  0.032800  0.229400  0.319200  1
  O  O1530  1  0.967200  0.770600  0.680800  1
  O  O1531  1  0.082500  0.156600  0.354200  1
  O  O1532  1  0.917500  0.843400  0.645800  1
  O  O1533  1  0.986000  0.160300  0.371900  1
  O  O1534  1  0.014000  0.839700  0.628100  1
  O  O1535  1  0.925000  0.016900  0.277050  1
  O  O1536  1  0.075000  0.983100  0.722950  1
  O  O1537  1  0.865400  0.907600  0.321190  1
  O  O1538  1  0.134600  0.092400  0.678810  1
  O  O1539  1  0.836900  0.663400  0.315500  1
  O  O1540  1  0.163100  0.336600  0.684500  1
  O  O1541  1  0.910900  0.619600  0.344900  1
  O  O1542  1  0.089100  0.380400  0.655100  1
  O  O1543  1  0.929900  0.678600  0.281600  1
  O  O1544  1  0.070100  0.321400  0.718400  1
  O  O1545  1  0.953400  0.801200  0.418680  1
  O  O1546  1  0.046600  0.198800  0.581320  1
  O  O1547  1  0.067300  0.827000  0.443900  1
  O  O1548  1  0.932700  0.173000  0.556100  1
  O  O1549  1  0.208200  0.028300  0.469900  1
  O  O1550  1  0.791800  0.971700  0.530100  1
  O  O1551  1  0.120300  0.061300  0.453800  1
  O  O1552  1  0.879700  0.938700  0.546200  1
  O  O1553  1  0.205600  0.084500  0.408400  1
  O  O1554  1  0.794400  0.915500  0.591600  1
  O  O1555  1  0.246900  0.858800  0.368800  1
  O  O1556  1  0.753100  0.141200  0.631200  1
  O  O1557  1  0.254300  0.904900  0.069300  1
  O  O1558  1  0.745700  0.095100  0.930700  1
  O  O1559  1  0.985000  0.921700  0.019980  1
  O  O1560  1  0.015000  0.078300  0.980020  1
  O  O1561  1  0.015100  0.834300  0.053860  1
  O  O1562  1  0.984900  0.165700  0.946140  1
  O  O1563  1  0.036100  0.863900  0.987600  1
  O  O1564  1  0.963900  0.136100  0.012400  1
  O  O1565  1  0.217300  0.060500  0.973790  1
  O  O1566  1  0.782700  0.939500  0.026210  1
  O  O1567  1  0.213800  0.174000  0.985610  1
  O  O1568  1  0.786200  0.826000  0.014390  1
  O  O1569  1  0.349600  0.320500  0.070900  1
  O  O1570  1  0.650400  0.679500  0.929100  1
  O  O1571  1  0.405700  0.259900  0.045400  1
  O  O1572  1  0.594300  0.740100  0.954600  1
  O  O1573  1  0.365100  0.232300  0.110600  1
  O  O1574  1  0.634900  0.767700  0.889400  1
  O  O1575  1  0.106800  0.199600  0.095640  1
  O  O1576  1  0.893200  0.800400  0.904360  1
  O  O1577  1  0.019100  0.122000  0.158270  1
  O  O1578  1  0.980900  0.878000  0.841730  1
  O  O1579  1  0.850400  0.915800  0.153600  1
  O  O1580  1  0.149600  0.084200  0.846400  1
  O  O1581  1  0.935700  0.875000  0.136200  1
  O  O1582  1  0.064300  0.125000  0.863800  1
  O  O1583  1  0.911900  0.958000  0.095280  1
  O  O1584  1  0.088100  0.042000  0.904720  1
  O  O1585  1  0.047800  0.960600  0.245250  1
  O  O1586  1  0.952200  0.039400  0.754750  1
  O  O1587  1  0.162000  0.923300  0.248130  1
  O  O1588  1  0.838000  0.076700  0.751870  1
  O  O1589  1  0.389200  0.053000  0.243100  1
  O  O1590  1  0.610800  0.947000  0.756900  1
  O  O1591  1  0.363500  0.112900  0.188100  1
  O  O1592  1  0.636500  0.887100  0.811900  1
  O  O1593  1  0.439200  0.055900  0.182300  1
  O  O1594  1  0.560800  0.944100  0.817700  1
  O  O1595  1  0.283100  0.893400  0.146700  1
  O  O1596  1  0.716900  0.106600  0.853300  1
  O  O1597  1  0.323400  0.799900  0.814760  1
  O  O1598  1  0.676600  0.200100  0.185240  1
  O  O1599  1  0.326100  0.903700  0.441500  1
  O  O1600  1  0.673900  0.096300  0.558500  1
  O  O1601  1  0.522200  0.956100  0.525200  1
  O  O1602  1  0.477800  0.043900  0.474800  1
  O  O1603  1  0.886000  0.116300  0.075400  1
  O  O1604  1  0.114000  0.883700  0.924600  1
  O  O1605  1  0.066300  0.635400  0.821800  1
  O  O1606  1  0.933700  0.364600  0.178200  1
  O  O1607  1  0.072700  0.534000  0.873100  1
  O  O1608  1  0.927300  0.466000  0.126900  1
  O  O1609  1  0.986900  0.782000  0.230900  1
  O  O1610  1  0.013100  0.218000  0.769100  1
  O  O1611  1  0.104600  0.764000  0.115300  1
  O  O1612  1  0.895400  0.236000  0.884700  1
  O  O1613  1  0.696200  0.666800  0.855100  1
  O  O1614  1  0.303800  0.333200  0.144900  1
  O  O1615  1  0.813000  0.026400  0.089300  1
  O  O1616  1  0.187000  0.973600  0.910700  1
  O  O1617  1  0.218000  0.252700  0.172900  1
  O  O1618  1  0.782000  0.747300  0.827100  1
  O  O1619  1  0.005000  0.788100  0.156900  1
  O  O1620  1  0.995000  0.211900  0.843100  1
  O  O1621  1  0.983700  0.992300  0.469400  1
  O  O1622  1  0.016300  0.007700  0.530600  1
  O  O1623  1  0.461700  0.996800  0.577100  1
  O  O1624  1  0.538300  0.003200  0.422900  1
  O  O1625  1  0.408700  0.342000  0.976100  1
  O  O1626  1  0.591300  0.658000  0.023900  1
  O  O1627  1  0.621300  0.332500  0.869800  1
  O  O1628  1  0.378700  0.667500  0.130200  1
  O  O1629  1  0.083600  0.445200  0.844100  1
  O  O1630  1  0.916400  0.554800  0.155900  1
  O  O1631  1  0.363500  0.859700  0.642600  1
  O  O1632  1  0.636500  0.140300  0.357400  1
  O  O1633  1  0.736500  0.838400  0.784000  1
  O  O1634  1  0.263500  0.161600  0.216000  1
  O  O1635  1  0.628200  0.975100  0.530400  1
  O  O1636  1  0.371800  0.024900  0.469600  1
  O  O1637  1  0.638300  0.497400  0.876800  1
  O  O1638  1  0.361700  0.502600  0.123200  1
  O  O1639  1  0.024000  0.126400  0.443500  1
  O  O1640  1  0.976000  0.873600  0.556500  1
  O  O1641  1  0.687700  0.914600  0.557200  1
  O  O1642  1  0.312300  0.085400  0.442800  1
  O  O1643  1  0.025300  0.509200  0.072100  1
  O  O1644  1  0.974700  0.490800  0.927900  1
  O  O1645  1  0.177200  0.845100  0.512500  1
  O  O1646  1  0.822800  0.154900  0.487500  1
  O  O1647  1  0.746500  0.766300  0.372800  1
  O  O1648  1  0.253500  0.233700  0.627200  1
  O  O1649  1  0.841900  0.662300  0.478400  1
  O  O1650  1  0.158100  0.337700  0.521600  1
  O  O1651  1  0.669900  0.891200  0.638600  1
  O  O1652  1  0.330100  0.108800  0.361400  1
  O  O1653  1  0.234300  0.737300  0.750000  1
  O  O1654  1  0.765700  0.262700  0.250000  1
  O  O1655  1  0.320000  0.763100  0.682900  1
  O  O1656  1  0.680000  0.236900  0.317100  1
  O  O1657  1  0.167400  0.098700  0.342700  1
  O  O1658  1  0.832600  0.901300  0.657300  1
  O  O1659  1  0.457700  0.172900  0.128200  1
  O  O1660  1  0.542300  0.827100  0.871800  1
  O  O1661  1  0.991500  0.372100  0.876700  1
  O  O1662  1  0.008500  0.627900  0.123300  1
  O  O1663  1  0.736000  0.813200  0.301300  1
  O  O1664  1  0.264000  0.186800  0.698700  1
  O  O1665  1  0.866000  0.990600  0.457600  1
  O  O1666  1  0.134000  0.009400  0.542400  1
  O  O1667  1  0.823100  0.027200  0.432100  1
  O  O1668  1  0.176900  0.972800  0.567900  1
  O  O1669  1  0.053900  0.378800  0.163500  1
  O  O1670  1  0.946100  0.621200  0.836500  1
  O  O1671  1  0.212900  0.079900  0.279100  1
  O  O1672  1  0.787100  0.920100  0.720900  1
  O  O1673  1  0.583800  0.837700  0.014800  1
  O  O1674  1  0.416200  0.162300  0.985200  1
  O  O1675  1  0.256500  0.637000  0.356600  1
  O  O1676  1  0.743500  0.363000  0.643400  1
  O  O1677  1  0.662100  0.849100  0.262000  1
  O  O1678  1  0.337900  0.150900  0.738000  1
  O  O1679  1  0.849800  0.090300  0.381500  1
  O  O1680  1  0.150200  0.909700  0.618500  1
  O  O1681  1  0.641100  0.477400  0.596300  1
  O  O1682  1  0.358900  0.522600  0.403700  1
  O  O1683  1  0.719100  0.559800  0.878500  1
  O  O1684  1  0.280900  0.440200  0.121500  1
  O  O1685  1  0.669800  0.558200  0.872000  1
  O  O1686  1  0.330200  0.441800  0.128000  1
  O  O1687  1  0.053800  0.729300  0.067600  1
  O  O1688  1  0.946200  0.270700  0.932400  1
  O  O1689  1  0.013000  0.327900  0.821000  1
  O  O1690  1  0.987000  0.672100  0.179000  1
  O  O1691  1  0.095800  0.475200  0.765900  1
  O  O1692  1  0.904200  0.524800  0.234100  1
  O  O1693  1  0.022400  0.093700  0.441500  1
  O  O1694  1  0.977600  0.906300  0.558500  1
  O  O1695  1  0.696600  0.886200  0.564100  1
  O  O1696  1  0.303400  0.113800  0.435900  1
  O  O1697  1  0.994000  0.614100  0.253200  1
  O  O1698  1  0.006000  0.385900  0.746800  1
  O  O1699  1  0.501400  0.299300  0.647900  1
  O  O1700  1  0.498600  0.700700  0.352100  1
  O  O1701  1  0.492500  0.422600  0.946800  1
  O  O1702  1  0.507500  0.577400  0.053200  1
  O  O1703  1  0.189900  0.787000  0.625200  1
  O  O1704  1  0.810100  0.213000  0.374800  1
  O  O1705  1  0.558900  0.167500  0.140900  1
  O  O1706  1  0.441100  0.832500  0.859100  1
  O  O1707  1  0.995400  0.574900  0.363200  1
  O  O1708  1  0.004600  0.425100  0.636800  1
  O  O1709  1  0.029200  0.686100  0.658800  1
  O  O1710  1  0.970800  0.313900  0.341200  1
  O  O1711  1  0.473300  0.274700  0.755300  1
  O  O1712  1  0.526700  0.725300  0.244700  1
  O  O1713  1  0.636700  0.495900  0.653100  1
  O  O1714  1  0.363300  0.504100  0.346900  1
  O  O1715  1  0.605400  0.392200  0.918300  1
  O  O1716  1  0.394600  0.607800  0.081700  1
  O  O1717  1  0.522900  0.354000  0.934400  1
  O  O1718  1  0.477100  0.646000  0.065600  1
  O  O1719  1  0.758900  0.794600  0.715600  1
  O  O1720  1  0.241100  0.205400  0.284400  1
  O  O1721  1  0.152600  0.306200  0.222900  1
  O  O1722  1  0.847400  0.693800  0.777100  1
  O  O1723  1  0.564500  0.822900  0.258200  1
  O  O1724  1  0.435500  0.177100  0.741800  1
  O  O1725  1  0.044600  0.496200  0.997100  1
  O  O1726  1  0.955400  0.503800  0.002900  1
  O  O1727  1  0.544400  0.839600  0.952800  1
  O  O1728  1  0.455600  0.160400  0.047200  1
  O  O1729  1  0.011500  0.617300  0.412300  1
  O  O1730  1  0.988500  0.382700  0.587700  1
  O  O1731  1  0.321900  0.038000  0.779000  1
  O  O1732  1  0.678100  0.962000  0.221000  1
  O  O1733  1  0.153100  0.272300  0.291600  1
  O  O1734  1  0.846900  0.727700  0.708400  1
  O  O1735  1  0.047200  0.532600  0.030200  1
  O  O1736  1  0.952800  0.467400  0.969800  1
  O  O1737  1  0.080000  0.872800  0.535900  1
  O  O1738  1  0.920000  0.127200  0.464100  1
  O  O1739  1  0.692400  0.941000  0.684600  1
  O  O1740  1  0.307600  0.059000  0.315400  1
  O  O1741  1  0.680000  0.352200  0.965200  1
  O  O1742  1  0.320000  0.647800  0.034800  1
  O  O1743  1  0.845100  0.426800  0.010700  1
  O  O1744  1  0.154900  0.573200  0.989300  1
  O  O1745  1  0.703400  0.043400  0.131200  1
  O  O1746  1  0.296600  0.956600  0.868800  1
  O  O1747  1  0.001200  0.540300  0.614600  1
  O  O1748  1  0.998800  0.459700  0.385400  1
  O  O1749  1  0.427100  0.953300  0.428700  1
  O  O1750  1  0.572900  0.046700  0.571300  1
  O  O1751  1  0.502200  0.004300  0.266300  1
  O  O1752  1  0.497800  0.995700  0.733700  1
  O  O1753  1  0.633000  0.387000  0.686600  1
  O  O1754  1  0.367000  0.613000  0.313400  1
