
#######################################################################
#
#                 Cambridge Crystallographic Data Centre
#                                CCDC 
#
#######################################################################
#
# If this CIF has been generated from an entry in the Cambridge 
# Structural Database, then it will include bibliographic, chemical, 
# crystal, experimental, refinement or atomic coordinate data resulting 
# from the CCDC's data processing and validation procedures.
#
#######################################################################

data_CUPTIS
_chemical_formula_moiety         
'C80 H55 Cu4 N24 O20 S4 2-,C80 H54 Cu4 N24 O20 S4 3-,2(C80 H53 Cu4 N24 O20 S4 3-),1.75(C3 H7 N1 O1),34.5(H2 O1),11(Na1 1+)'
_chemical_name_systematic        
'undeca-sodium bis(\m-N^1^,N^3^-bis((pyridin-2-yl)methylidene)-5-sulfonatobenzene-1,3-dicarbohydrazonato)-bis(\m-N-((pyridin-2-yl)methylidene)-3-(2-((pyridin-2-yl)methylidene)hydrazinecarbonyl)-5-sulfonatobenzene-1-carbohydrazonato)-copper(i)-tri-copper(ii) (\m-3,5-bis(2-((pyridin-2-yl)methylidene)hydrazinecarbonyl)benzene-1-sulfonato)-bis(\m-N^1^,N^3^-bis((pyridin-2-yl)methylidene)-5-sulfonatobenzene-1,3-dicarbohydrazonato)-(\m-N-((pyridin-2-yl)methylidene)-3-(2-((pyridin-2-yl)methylidene)hydrazinecarbonyl)-5-sulfonatobenzene-1-carbohydrazonato)-copper(i)-tri-copper(ii) bis(tris(\m-N^1^,N^3^-bis((pyridin-2-yl)methylidene)-5-sulfonatobenzene-1,3-dicarbohydrazonato)-(\m-N-((pyridin-2-yl)methylidene)-3-(2-((pyridin-2-yl)methylidene)hydrazinecarbonyl)-5-sulfonatobenzene-1-carbohydrazonato)-tetra-copper(ii)) N,N-dimethylformamide solvate hydrate'
_symmetry_cell_setting           triclinic
_symmetry_space_group_name_H-M   'P -1'
_symmetry_Int_Tables_number      2
_space_group_name_Hall           '-P 1'
loop_
_symmetry_equiv_pos_site_id
_symmetry_equiv_pos_as_xyz
1 x,y,z
2 -x,-y,-z
_cell_length_a                   24.6594(6)
_cell_length_b                   26.1086(6)
_cell_length_c                   38.5294(8)
_cell_angle_alpha                71.7131(19)
_cell_angle_beta                 78.2731(18)
_cell_angle_gamma                87.7169(19)
_cell_volume                     23054.1
_cell_formula_units_Z            2
loop_
_atom_site_label
_atom_site_type_symbol
_atom_site_fract_x
_atom_site_fract_y
_atom_site_fract_z
Cu1 Cu 0.28268(4) 0.63440(4) 0.55975(3)
Cu2 Cu 0.39531(6) 0.54810(6) 0.76192(4)
Cu3 Cu 0.70908(5) 0.68238(5) 0.64991(3)
Cu4 Cu 0.59000(5) 0.81438(4) 0.44638(3)
N1 N 0.2430(2) 0.6579(2) 0.50738(15)
C1 C 0.1999(3) 0.6879(3) 0.4986(2)
H1 H 0.1804 0.7049 0.5157
C2 C 0.1825(3) 0.6953(4) 0.4652(2)
H2 H 0.1515 0.7168 0.4597
C3 C 0.2105(4) 0.6714(4) 0.4405(2)
H3 H 0.1992 0.6761 0.4176
C4 C 0.2558(3) 0.6401(3) 0.4490(2)
H4 H 0.2763 0.6234 0.4320
C5 C 0.2701(3) 0.6338(3) 0.48283(17)
C6 C 0.3165(3) 0.5998(3) 0.4943(2)
H5 H 0.3384 0.5823 0.4783
C7 C 0.3751(3) 0.5569(3) 0.57348(18)
C8 C 0.4191(2) 0.5196(2) 0.58791(17)
C9 C 0.4564(3) 0.4940(3) 0.56747(19)
H6 H 0.4556 0.4994 0.5420
C10 C 0.4953(3) 0.4602(3) 0.5841(2)
C11 C 0.4971(3) 0.4521(3) 0.6212(2)
H7 H 0.5237 0.4290 0.6324
C12 C 0.4593(3) 0.4783(3) 0.64204(19)
C13 C 0.4213(3) 0.5111(3) 0.62538(18)
H8 H 0.3957 0.5287 0.6395
C14 C 0.4629(3) 0.4646(3) 0.68206(19)
C15 C 0.4598(3) 0.4598(3) 0.7583(2)
H9 H 0.4782 0.4317 0.7501
C16 C 0.4567(2) 0.4603(2) 0.79650(16)
C17 C 0.4796(4) 0.4211(3) 0.82206(19)
H10 H 0.4987 0.3921 0.8155
C18 C 0.4743(4) 0.4249(3) 0.85752(19)
H11 H 0.4886 0.3976 0.8760
C19 C 0.4486(4) 0.4675(4) 0.8660(2)
H12 H 0.4457 0.4709 0.8901
C20 C 0.4263(4) 0.5062(3) 0.83886(19)
H13 H 0.4079 0.5358 0.8450
N2 N 0.4302(3) 0.5029(3) 0.80443(15)
N3 N 0.3262(2) 0.5945(2) 0.52642(15)
N4 N 0.3686(2) 0.5626(2) 0.53811(15)
H14 H 0.3904 0.5467 0.5237
N5 N 0.4411(3) 0.5014(2) 0.69916(15)
H15 H 0.4280 0.5308 0.6851
N6 N 0.4373(3) 0.4976(3) 0.73610(16)
O1 O 0.3448(2) 0.5795(2) 0.59313(13)
O2 O 0.5069(3) 0.3700(3) 0.5687(2)
O3 O 0.5876(3) 0.4109(4) 0.57706(19)
O4 O 0.5499(3) 0.4522(3) 0.52184(14)
O5 O 0.4831(3) 0.4223(3) 0.69779(16)
S1 S 0.53894(11) 0.41992(13) 0.56106(6)
N7 N 0.3119(3) 0.5404(3) 0.78248(18)
C21 C 0.2777(3) 0.4973(3) 0.79839(19)
H16 H 0.2919 0.4625 0.7998
C22 C 0.2219(3) 0.5020(4) 0.8129(2)
H17 H 0.1984 0.4707 0.8240
C23 C 0.2016(4) 0.5511(4) 0.8112(3)
H18 H 0.1638 0.5546 0.8216
C24 C 0.2355(3) 0.5964(4) 0.7943(3)
H19 H 0.2212 0.6313 0.7920
C25 C 0.2907(3) 0.5898(3) 0.7810(2)
C26 C 0.3284(4) 0.6359(4) 0.7631(2)
H20 H 0.3163 0.6716 0.7610
C27 C 0.4163(4) 0.7200(4) 0.7349(2)
C28 C 0.4636(4) 0.7569(4) 0.71340(17)
C29 C 0.4568(4) 0.8128(4) 0.7039(2)
H21 H 0.4215 0.8264 0.7114
C30 C 0.4988(4) 0.8473(3) 0.6845(3)
C31 C 0.5519(4) 0.8304(4) 0.6732(2)
H22 H 0.5815 0.8557 0.6601
C32 C 0.5602(3) 0.7743(3) 0.6820(2)
C33 C 0.5167(3) 0.7390(3) 0.7015(2)
H23 H 0.5225 0.7014 0.7071
C34 C 0.6147(3) 0.7506(3) 0.6704(2)
C35 C 0.7529(4) 0.7901(4) 0.6307(2)
H24 H 0.7531 0.8277 0.6274
C36 C 0.8039(3) 0.7632(3) 0.61962(16)
C37 C 0.8540(3) 0.7907(3) 0.6040(2)
H25 H 0.8566 0.8285 0.5997
C38 C 0.9001(3) 0.7626(3) 0.5947(3)
H26 H 0.9351 0.7805 0.5841
C39 C 0.8948(3) 0.7090(4) 0.6007(3)
H27 H 0.9262 0.6888 0.5947
C40 C 0.8430(3) 0.6835(3) 0.6159(3)
H28 H 0.8396 0.6461 0.6193
N8 N 0.7981(3) 0.7095(2) 0.62587(19)
N9 N 0.3792(3) 0.6266(3) 0.75030(17)
N10 N 0.4175(3) 0.6699(3) 0.73154(18)
H29 H 0.4459 0.6635 0.7156
N11 N 0.6591(3) 0.7849(3) 0.6561(2)
N12 N 0.7079(3) 0.7609(3) 0.64512(18)
O6 O 0.3777(3) 0.7344(3) 0.7557(2)
O7 O 0.5351(4) 0.9456(4) 0.6532(5)
O8 O 0.4606(6) 0.9261(5) 0.7078(3)
O9 O 0.4425(6) 0.9263(5) 0.6517(4)
O10 O 0.6180(2) 0.7023(2) 0.67336(16)
S2 S 0.4864(2) 0.91779(13) 0.67248(12)
N13 N 0.7155(3) 0.6480(3) 0.70431(18)
C41 C 0.7139(3) 0.6695(3) 0.7314(2)
H30 H 0.7098 0.7074 0.7259
C42 C 0.7181(4) 0.6390(4) 0.7675(2)
H31 H 0.7170 0.6558 0.7862
C43 C 0.7238(6) 0.5849(4) 0.7756(3)
H32 H 0.7255 0.5634 0.8003
C44 C 0.7270(5) 0.5612(3) 0.7477(2)
H33 H 0.7330 0.5237 0.7526
C45 C 0.7212(4) 0.5937(3) 0.7126(2)
C46 C 0.7200(4) 0.5733(4) 0.6822(3)
H34 H 0.7240 0.5361 0.6845
C47 C 0.7014(3) 0.6413(3) 0.5939(2)
C48 C 0.6955(2) 0.6365(3) 0.5571(2)
C49 C 0.7142(3) 0.5902(3) 0.5470(3)
H35 H 0.7310 0.5617 0.5632
C50 C 0.7070(4) 0.5878(3) 0.5125(2)
C51 C 0.6831(4) 0.6288(3) 0.4886(2)
H36 H 0.6785 0.6260 0.4654
C52 C 0.6655(3) 0.6750(3) 0.4989(2)
C53 C 0.6728(3) 0.6780(3) 0.5329(2)
H37 H 0.6619 0.7095 0.5396
C54 C 0.6377(3) 0.7195(3) 0.4742(2)
C55 C 0.5896(5) 0.7637(4) 0.3932(3)
H38 H 0.5971 0.7380 0.3802
C56 C 0.5611(3) 0.8134(3) 0.37918(18)
C57 C 0.5418(5) 0.8272(4) 0.3462(2)
H39 H 0.5470 0.8039 0.3313
C58 C 0.5149(5) 0.8753(3) 0.3353(2)
H40 H 0.5009 0.8850 0.3130
C59 C 0.5087(4) 0.9083(3) 0.3566(2)
H41 H 0.4910 0.9418 0.3492
C60 C 0.5289(4) 0.8923(3) 0.3897(2)
H42 H 0.5236 0.9151 0.4050
N14 N 0.5550(3) 0.8466(2) 0.40047(16)
N15 N 0.7132(3) 0.6084(3) 0.65186(19)
N16 N 0.7116(3) 0.5956(3) 0.62001(19)
N17 N 0.6298(3) 0.7128(3) 0.44290(18)
N18 N 0.6040(3) 0.7569(3) 0.42482(18)
O11 O 0.6958(2) 0.6873(2) 0.59824(16)
O12 O 0.7824(5) 0.5422(4) 0.4770(4)
O13 O 0.6931(6) 0.5226(4) 0.4769(3)
O14 O 0.7281(4) 0.4857(2) 0.53332(19)
O15 O 0.6232(2) 0.76006(19) 0.48534(14)
S3 S 0.7282(2) 0.52930(11) 0.50008(10)
N19 N 0.6702(3) 0.8662(2) 0.42743(16)
C61 C 0.7184(3) 0.8625(3) 0.40568(19)
H43 H 0.7200 0.8411 0.3896
C62 C 0.7666(3) 0.8885(3) 0.4054(2)
H44 H 0.8003 0.8850 0.3894
C63 C 0.7649(3) 0.9190(3) 0.4283(2)
H45 H 0.7975 0.9369 0.4286
C64 C 0.7152(3) 0.9237(3) 0.4513(2)
H46 H 0.7131 0.9449 0.4675
C65 C 0.6688(3) 0.8971(3) 0.45011(19)
C66 C 0.6143(4) 0.9011(3) 0.4730(2)
H47 H 0.6083 0.9257 0.4870
C67 C 0.4860(3) 0.8349(3) 0.49601(18)
C68 C 0.4287(3) 0.8368(3) 0.51805(15)
C69 C 0.4069(4) 0.8806(3) 0.5286(2)
H48 H 0.4286 0.9128 0.5217
C70 C 0.3530(4) 0.8772(3) 0.5493(2)
C71 C 0.3212(4) 0.8297(3) 0.5599(2)
H49 H 0.2851 0.8272 0.5750
C72 C 0.3421(3) 0.7862(3) 0.5485(2)
C73 C 0.3955(3) 0.7908(3) 0.52694(19)
H50 H 0.4095 0.7618 0.5181
C74 C 0.3113(3) 0.7346(3) 0.5584(2)
C75 C 0.1982(3) 0.6561(3) 0.6124(2)
H51 H 0.1753 0.6758 0.6265
C76 C 0.1851(2) 0.6005(2) 0.61572(15)
C77 C 0.1410(3) 0.5705(3) 0.6410(2)
H52 H 0.1164 0.5852 0.6576
C78 C 0.1338(3) 0.5181(3) 0.6412(3)
H53 H 0.1043 0.4960 0.6586
C79 C 0.1686(4) 0.4978(3) 0.6169(3)
H54 H 0.1628 0.4622 0.6166
C80 C 0.2127(3) 0.5299(3) 0.5923(2)
H55 H 0.2378 0.5154 0.5758
N20 N 0.2207(2) 0.5806(2) 0.59156(16)
N21 N 0.5753(2) 0.8699(2) 0.47320(16)
N22 N 0.5233(3) 0.8731(2) 0.49403(16)
N23 N 0.2626(3) 0.7277(3) 0.58306(18)
N24 N 0.2425(3) 0.6764(2) 0.58925(17)
O16 O 0.4980(2) 0.8002(2) 0.48077(15)
O17 O 0.2905(4) 0.9591(3) 0.5325(2)
O18 O 0.3674(3) 0.9669(3) 0.5611(2)
O19 O 0.2880(3) 0.9140(3) 0.59713(19)
O20 O 0.3322(2) 0.69974(19) 0.54263(14)
S4 S 0.32265(11) 0.93506(9) 0.55975(7)
Cu5 Cu 0.27972(8) 0.36921(6) 0.73449(4)
Cu6 Cu 0.20464(8) 0.40694(7) 0.95383(4)
Cu7 Cu 0.48414(6) 0.65685(6) 0.85262(4)
Cu8 Cu 0.48384(5) 0.65509(5) 0.63115(3)
N25 N 0.3065(3) 0.3740(3) 0.6768(2)
C81 C 0.2805(4) 0.3946(3) 0.6483(3)
H56 H 0.2428 0.4039 0.6535
C82 C 0.3068(4) 0.4028(4) 0.6115(3)
H57 H 0.2875 0.4182 0.5918
C83 C 0.3603(4) 0.3886(4) 0.6040(2)
H58 H 0.3787 0.3936 0.5790
C84 C 0.3880(4) 0.3668(4) 0.6329(2)
H59 H 0.4255 0.3566 0.6280
C85 C 0.3600(3) 0.3603(4) 0.6690(2)
C86 C 0.3859(5) 0.3419(4) 0.7010(3)
H60 H 0.4224 0.3286 0.6990
C87 C 0.3461(4) 0.3437(3) 0.7920(3)
C88 C 0.3628(3) 0.3303(3) 0.8283(3)
C89 C 0.4100(4) 0.3001(3) 0.8377(3)
H61 H 0.4336 0.2865 0.8200
C90 C 0.4215(3) 0.2907(4) 0.8734(3)
C91 C 0.3883(4) 0.3080(4) 0.8998(3)
H62 H 0.3960 0.2995 0.9241
C92 C 0.3426(4) 0.3387(3) 0.8908(3)
C93 C 0.3314(3) 0.3500(3) 0.8551(2)
H63 H 0.3010 0.3722 0.8491
C94 C 0.3014(4) 0.3587(4) 0.9176(3)
C95 C 0.2747(5) 0.3692(4) 1.0074(3)
H64 H 0.3068 0.3551 1.0168
C96 C 0.2299(4) 0.3878(3) 1.0296(2)
C97 C 0.2286(5) 0.3838(5) 1.0665(3)
H65 H 0.2584 0.3684 1.0783
C98 C 0.1830(6) 0.4028(7) 1.0856(3)
H66 H 0.1807 0.3996 1.1111
C99 C 0.1416(5) 0.4258(6) 1.0684(3)
H67 H 0.1105 0.4395 1.0814
C100 C 0.1451(5) 0.4290(5) 1.0312(3)
H68 H 0.1161 0.4454 1.0189
N26 N 0.1878(4) 0.4098(4) 1.0125(2)
N27 N 0.3578(4) 0.3442(3) 0.7322(2)
N28 N 0.3795(4) 0.3299(4) 0.7642(2)
N29 N 0.3124(4) 0.3546(4) 0.9511(2)
N30 N 0.2700(4) 0.3722(4) 0.9745(2)
O21 O 0.3000(3) 0.3652(3) 0.78892(18)
O22 O 0.4718(4) 0.2012(4) 0.8810(5)
O23 O 0.4784(5) 0.2454(7) 0.9234(3)
O24 O 0.5282(3) 0.2818(4) 0.8614(3)
O25 O 0.2574(3) 0.3775(3) 0.90940(17)
S5 S 0.48093(13) 0.25248(18) 0.88369(15)
N31 N 0.1446(3) 0.3453(3) 0.96574(19)
C101 C 0.1473(4) 0.2923(3) 0.9813(2)
H69 H 0.1805 0.2778 0.9890
C102 C 0.1030(4) 0.2574(3) 0.9869(3)
H70 H 0.1064 0.2196 0.9976
C103 C 0.0550(4) 0.2776(3) 0.9769(3)
H71 H 0.0241 0.2543 0.9812
C104 C 0.0516(4) 0.3327(3) 0.9604(3)
H72 H 0.0185 0.3477 0.9530
C105 C 0.0972(3) 0.3654(3) 0.9549(3)
C106 C 0.0999(5) 0.4232(5) 0.9369(3)
H73 H 0.0692 0.4420 0.9279
C107 C 0.2057(5) 0.5161(4) 0.9144(2)
C108 C 0.2241(4) 0.5735(3) 0.89503(16)
C109 C 0.1862(5) 0.6130(4) 0.8860(2)
H74 H 0.1477 0.6041 0.8917
C110 C 0.2049(4) 0.6669(3) 0.8682(3)
C111 C 0.2599(4) 0.6803(3) 0.8592(2)
H75 H 0.2719 0.7167 0.8467
C112 C 0.2981(4) 0.6409(3) 0.8681(2)
C113 C 0.2799(4) 0.5873(3) 0.8858(2)
H76 H 0.3062 0.5599 0.8916
C114 C 0.3591(4) 0.6510(3) 0.8596(2)
C115 C 0.4519(4) 0.7606(4) 0.8087(2)
H77 H 0.4277 0.7889 0.8000
C116 C 0.5112(3) 0.7692(3) 0.79769(19)
C117 C 0.5363(4) 0.8153(4) 0.7709(2)
H78 H 0.5149 0.8442 0.7594
C118 C 0.5937(4) 0.8179(5) 0.7614(3)
H79 H 0.6121 0.8485 0.7425
C119 C 0.6233(4) 0.7771(5) 0.7792(3)
H80 H 0.6626 0.7787 0.7728
C120 C 0.5956(3) 0.7328(4) 0.8068(3)
H81 H 0.6167 0.7044 0.8194
N32 N 0.5405(3) 0.7287(3) 0.8163(2)
N33 N 0.1447(4) 0.4476(3) 0.9335(2)
N34 N 0.1546(4) 0.5025(3) 0.9148(2)
N35 N 0.3771(3) 0.7033(3) 0.83937(19)
H82 H 0.3536 0.7289 0.8324
N36 N 0.4322(3) 0.7135(3) 0.83074(19)
O26 O 0.2409(3) 0.4834(3) 0.92923(19)
O27 O 0.1556(4) 0.7487(4) 0.8821(3)
O28 O 0.1060(3) 0.6944(3) 0.8583(3)
O29 O 0.1833(3) 0.7526(3) 0.8175(2)
O30 O 0.3914(3) 0.6166(2) 0.87041(17)
S6 S 0.15816(12) 0.72013(11) 0.85516(11)
N37 N 0.4775(3) 0.6663(3) 0.9031(2)
C121 C 0.4463(4) 0.6995(4) 0.9180(2)
H83 H 0.4226 0.7227 0.9037
C122 C 0.4465(5) 0.7019(5) 0.9535(3)
H84 H 0.4235 0.7261 0.9635
C123 C 0.4806(5) 0.6688(5) 0.9734(3)
H85 H 0.4817 0.6695 0.9977
C124 C 0.5136(5) 0.6338(5) 0.9585(2)
H86 H 0.5375 0.6104 0.9725
C125 C 0.5115(4) 0.6333(4) 0.9231(2)
C126 C 0.5418(5) 0.5980(5) 0.9049(3)
H87 H 0.5664 0.5725 0.9165
C127 C 0.5385(3) 0.5900(3) 0.8181(2)
C128 C 0.5573(3) 0.5629(3) 0.7891(2)
C129 C 0.5873(3) 0.5162(4) 0.7940(3)
H88 H 0.5981 0.4992 0.8172
C130 C 0.6016(4) 0.4945(3) 0.7653(3)
C131 C 0.5882(4) 0.5196(3) 0.7314(3)
H89 H 0.5995 0.5048 0.7115
C132 C 0.5581(3) 0.5665(3) 0.7258(2)
C133 C 0.5420(3) 0.5878(3) 0.7549(2)
H90 H 0.5205 0.6193 0.7515
C134 C 0.5407(3) 0.5926(3) 0.6895(2)
C135 C 0.5606(3) 0.5874(3) 0.6010(2)
H91 H 0.5907 0.5638 0.5992
C136 C 0.5317(3) 0.6105(2) 0.57091(18)
C137 C 0.5451(4) 0.6025(4) 0.5364(2)
H92 H 0.5747 0.5801 0.5310
C138 C 0.5142(5) 0.6281(5) 0.5098(2)
H93 H 0.5246 0.6254 0.4853
C139 C 0.4696(5) 0.6566(5) 0.5182(3)
H94 H 0.4467 0.6716 0.5007
C140 C 0.4581(4) 0.6636(4) 0.5531(2)
H95 H 0.4268 0.6837 0.5594
N38 N 0.4896(3) 0.6429(2) 0.57813(17)
N39 N 0.5341(3) 0.6024(3) 0.8724(2)
N40 N 0.5585(3) 0.5724(3) 0.85027(19)
N41 N 0.5650(3) 0.5766(3) 0.66191(19)
N42 N 0.5424(3) 0.6012(2) 0.63058(18)
O31 O 0.5017(3) 0.6235(2) 0.81185(16)
O32 O 0.5977(4) 0.3947(3) 0.7678(4)
O33 O 0.6552(5) 0.4189(4) 0.8052(2)
O34 O 0.6831(4) 0.4427(4) 0.7396(3)
O35 O 0.5027(2) 0.6276(2) 0.68766(15)
S7 S 0.63645(15) 0.43199(13) 0.77090(9)
N43 N 0.5285(2) 0.7328(2) 0.60762(15)
C141 C 0.5828(3) 0.7438(4) 0.59458(18)
H96 H 0.6076 0.7148 0.5953
C142 C 0.6038(4) 0.7967(4) 0.5800(2)
H97 H 0.6425 0.8035 0.5712
C143 C 0.5691(4) 0.8380(4) 0.5786(3)
H98 H 0.5832 0.8741 0.5684
C144 C 0.5128(4) 0.8280(3) 0.5921(2)
H99 H 0.4879 0.8568 0.5916
C145 C 0.4938(3) 0.7749(2) 0.60625(19)
C146 C 0.4365(3) 0.7595(3) 0.6211(2)
H100 H 0.4088 0.7858 0.6213
C147 C 0.3648(3) 0.6395(3) 0.66149(19)
C148 C 0.3079(3) 0.6176(3) 0.67983(15)
C149 C 0.2614(4) 0.6485(3) 0.6863(2)
H101 H 0.2652 0.6867 0.6782
C150 C 0.2097(3) 0.6241(3) 0.7045(2)
C151 C 0.2014(4) 0.5687(4) 0.7159(2)
H102 H 0.1659 0.5524 0.7278
C152 C 0.2485(3) 0.5376(3) 0.7090(2)
C153 C 0.2996(3) 0.5619(3) 0.6912(2)
H103 H 0.3301 0.5399 0.6866
C154 C 0.2477(4) 0.4777(3) 0.7202(2)
C155 C 0.1644(5) 0.3628(4) 0.7582(3)
H104 H 0.1274 0.3743 0.7627
C156 C 0.1769(3) 0.3070(3) 0.76736(18)
C157 C 0.1366(4) 0.2667(4) 0.7841(3)
H105 H 0.0987 0.2751 0.7903
C158 C 0.1529(5) 0.2139(4) 0.7914(3)
H106 H 0.1262 0.1852 0.8025
C159 C 0.2070(5) 0.2032(4) 0.7826(4)
H107 H 0.2187 0.1669 0.7880
C160 C 0.2456(4) 0.2454(3) 0.7657(4)
H108 H 0.2836 0.2374 0.7593
N44 N 0.2311(3) 0.2966(3) 0.7582(2)
N45 N 0.4242(2) 0.7091(3) 0.63389(17)
N46 N 0.3697(3) 0.6929(3) 0.64890(18)
N47 N 0.1986(4) 0.4514(3) 0.7344(2)
N48 N 0.2051(4) 0.3970(3) 0.7438(2)
O36 O 0.4037(2) 0.6080(2) 0.65982(13)
O37 O 0.1135(3) 0.6555(5) 0.6918(3)
O38 O 0.1693(4) 0.7174(3) 0.7025(4)
O39 O 0.1298(4) 0.6414(4) 0.75310(18)
O40 O 0.2919(3) 0.4545(2) 0.71676(19)
S8 S 0.15092(11) 0.66260(11) 0.71425(7)
Cu9 Cu 0.31095(7) 0.84259(10) 0.33157(5)
Cu10 Cu 0.14915(10) 1.00325(10) 0.15614(7)
Cu11 Cu -0.15959(5) 0.97618(5) 0.28680(3)
Cu12 Cu -0.01784(7) 0.78338(7) 0.46791(4)
N49 N 0.3596(3) 0.8058(4) 0.3768(2)
C161 C 0.3874(4) 0.8279(4) 0.3949(3)
H109 H 0.3869 0.8659 0.3900
C162 C 0.4173(5) 0.7970(5) 0.4208(3)
H110 H 0.4361 0.8136 0.4338
C163 C 0.4194(6) 0.7431(5) 0.4271(4)
H111 H 0.4415 0.7217 0.4435
C164 C 0.3891(6) 0.7192(5) 0.4097(4)
H112 H 0.3883 0.6811 0.4150
C165 C 0.3601(4) 0.7518(4) 0.3844(3)
C166 C 0.3284(5) 0.7300(7) 0.3638(3)
H113 H 0.3278 0.6925 0.3668
C167 C 0.2449(5) 0.7823(6) 0.2988(3)
C168 C 0.2043(4) 0.7648(5) 0.2813(3)
C169 C 0.1827(5) 0.7135(6) 0.2931(3)
H114 H 0.1937 0.6870 0.3136
C170 C 0.1441(5) 0.7003(4) 0.2750(4)
C171 C 0.1266(5) 0.7380(5) 0.2467(4)
H115 H 0.0985 0.7285 0.2361
C172 C 0.1489(4) 0.7907(5) 0.2327(3)
C173 C 0.1879(4) 0.8037(5) 0.2502(3)
H116 H 0.2038 0.8391 0.2414
C174 C 0.1304(4) 0.8291(4) 0.2000(3)
C175 C 0.0957(4) 0.9209(5) 0.1442(3)
H117 H 0.0829 0.8863 0.1458
C176 C 0.0831(3) 0.9701(3) 0.1150(2)
C177 C 0.0510(4) 0.9679(4) 0.0900(2)
H118 H 0.0363 0.9345 0.0906
C178 C 0.0410(4) 1.0154(4) 0.0642(2)
H119 H 0.0186 1.0151 0.0469
C179 C 0.0628(4) 1.0624(4) 0.0635(2)
H120 H 0.0565 1.0952 0.0454
C180 C 0.0945(5) 1.0624(3) 0.0895(3)
H121 H 0.1085 1.0958 0.0894
N50 N 0.1061(4) 1.0169(3) 0.1146(3)
N51 N 0.3017(4) 0.7628(4) 0.3418(3)
N52 N 0.2685(4) 0.7442(4) 0.3228(3)
N53 N 0.1350(3) 0.8811(4) 0.1957(2)
H122 H 0.1471 0.8893 0.2133
N54 N 0.1226(3) 0.9259(4) 0.1659(2)
O41 O 0.2532(4) 0.8317(4) 0.2929(2)
O42 O 0.0969(8) 0.6243(6) 0.2617(4)
O43 O 0.0725(7) 0.6308(7) 0.3227(5)
O44 O 0.1598(6) 0.5992(6) 0.3025(6)
O45 O 0.1151(4) 0.8115(3) 0.1777(2)
S9 S 0.1168(3) 0.6333(2) 0.2914(2)
N55 N 0.2245(3) 1.0347(4) 0.1274(3)
C181 C 0.2589(4) 1.0253(4) 0.0987(3)
H123 H 0.2488 0.9987 0.0889
C182 C 0.3094(4) 1.0533(5) 0.0827(3)
H124 H 0.3332 1.0460 0.0622
C183 C 0.3241(4) 1.0909(5) 0.0966(3)
H125 H 0.3585 1.1103 0.0861
C184 C 0.2890(4) 1.1011(4) 0.1262(3)
H126 H 0.2987 1.1275 0.1363
C185 C 0.2396(4) 1.0726(4) 0.1410(3)
C186 C 0.2042(5) 1.0836(5) 0.1717(4)
H127 H 0.2135 1.1102 0.1817
C187 C 0.1162(5) 1.1023(4) 0.2306(3)
C188 C 0.0685(4) 1.1036(3) 0.2604(3)
C189 C 0.0714(5) 1.1336(3) 0.2848(3)
H128 H 0.1046 1.1531 0.2820
C190 C 0.0273(5) 1.1349(4) 0.3124(3)
C191 C -0.0209(5) 1.1082(4) 0.3171(3)
H129 H -0.0514 1.1104 0.3361
C192 C -0.0253(4) 1.0777(3) 0.2941(3)
C193 C 0.0187(4) 1.0750(3) 0.2671(3)
H130 H 0.0155 1.0528 0.2522
C194 C -0.0767(4) 1.0464(4) 0.2969(3)
C195 C -0.2162(4) 1.0257(4) 0.3414(2)
H131 H -0.2203 1.0453 0.3588
C196 C -0.2627(3) 0.9985(2) 0.33762(15)
C197 C -0.3158(3) 1.0015(3) 0.3568(2)
H132 H -0.3229 1.0216 0.3739
C198 C -0.3585(3) 0.9751(4) 0.3508(2)
H133 H -0.3955 0.9776 0.3631
C199 C -0.3470(3) 0.9455(4) 0.3270(3)
H134 H -0.3758 0.9263 0.3229
C200 C -0.2927(3) 0.9436(4) 0.3086(3)
H135 H -0.2852 0.9235 0.2916
N56 N -0.2508(3) 0.9688(3) 0.31390(17)
N57 N 0.1573(4) 1.0548(4) 0.1855(3)
N58 N 0.1204(4) 1.0627(4) 0.2162(3)
H136 H 0.0957 1.0364 0.2279
N59 N -0.1233(4) 1.0515(4) 0.3205(2)
N60 N -0.1682(3) 1.0230(3) 0.3205(2)
O46 O 0.1467(4) 1.1440(4) 0.2166(3)
O47 O 0.0328(7) 1.2294(3) 0.3192(3)
O48 O 0.0825(5) 1.1566(6) 0.3542(4)
O49 O -0.0140(5) 1.1603(5) 0.3719(3)
O50 O -0.0750(3) 1.0169(3) 0.27705(19)
S10 S 0.03305(19) 1.17454(14) 0.34162(11)
N61 N -0.1719(3) 1.0303(2) 0.23726(16)
C201 C -0.1748(3) 1.0837(3) 0.2267(2)
H137 H -0.1702 1.1020 0.2438
C202 C -0.1843(4) 1.1140(3) 0.1918(2)
H138 H -0.1856 1.1523 0.1850
C203 C -0.1918(4) 1.0878(3) 0.1678(2)
H139 H -0.1990 1.1076 0.1440
C204 C -0.1887(4) 1.0323(3) 0.17799(19)
H140 H -0.1926 1.0136 0.1610
C205 C -0.1799(3) 1.0044(3) 0.21322(17)
C206 C -0.1720(4) 0.9466(4) 0.2265(2)
H141 H -0.1757 0.9241 0.2119
C207 C -0.1354(3) 0.8691(3) 0.3071(2)
C208 C -0.1162(2) 0.8161(3) 0.3267(2)
C209 C -0.1197(3) 0.7710(4) 0.3144(2)
H142 H -0.1349 0.7742 0.2931
C210 C -0.1006(4) 0.7215(3) 0.3342(3)
C211 C -0.0783(4) 0.7157(4) 0.3655(3)
H143 H -0.0655 0.6817 0.3785
C212 C -0.0749(4) 0.7609(3) 0.3777(2)
C213 C -0.0948(4) 0.8094(4) 0.3588(2)
H144 H -0.0940 0.8393 0.3677
C214 C -0.0508(4) 0.7574(4) 0.4102(3)
C215 C 0.0017(5) 0.6746(5) 0.4846(3)
H145 H 0.0017 0.6390 0.4831
C216 C 0.0207(3) 0.6865(4) 0.5140(2)
C217 C 0.0411(6) 0.6495(4) 0.5423(3)
H146 H 0.0432 0.6126 0.5436
C218 C 0.0586(6) 0.6668(6) 0.5689(3)
H147 H 0.0732 0.6420 0.5885
C219 C 0.0545(5) 0.7196(6) 0.5665(3)
H148 H 0.0654 0.7322 0.5847
C220 C 0.0341(5) 0.7552(5) 0.5370(3)
H149 H 0.0332 0.7925 0.5349
N62 N 0.0160(4) 0.7393(4) 0.5119(2)
N63 N -0.1599(3) 0.9279(3) 0.25818(18)
N64 N -0.1493(3) 0.8747(3) 0.27425(19)
N65 N -0.0351(4) 0.7098(4) 0.4301(3)
N66 N -0.0156(4) 0.7150(4) 0.4600(2)
O51 O -0.1346(2) 0.9076(2) 0.32119(16)
O52 O -0.1631(3) 0.6634(4) 0.3155(3)
O53 O -0.0891(5) 0.6196(3) 0.3449(3)
O54 O -0.0701(4) 0.6786(3) 0.2816(2)
O55 O -0.0466(3) 0.8012(3) 0.41868(18)
S11 S -0.10666(15) 0.66572(11) 0.31789(9)
N67 N -0.1057(3) 0.7830(4) 0.4998(2)
C221 C -0.1462(4) 0.7453(4) 0.5130(3)
H150 H -0.1373 0.7093 0.5136
C222 C -0.2006(4) 0.7564(5) 0.5259(3)
H151 H -0.2282 0.7284 0.5350
C223 C -0.2143(4) 0.8072(5) 0.5255(3)
H152 H -0.2512 0.8150 0.5352
C224 C -0.1737(4) 0.8475(4) 0.5107(3)
H153 H -0.1827 0.8839 0.5086
C225 C -0.1198(3) 0.8338(4) 0.4992(3)
C226 C -0.0733(5) 0.8717(5) 0.4856(3)
H154 H -0.0785 0.9080 0.4855
C227 C 0.0653(4) 0.8728(4) 0.4479(2)
C228 C 0.1155(4) 0.9091(3) 0.4340(2)
C229 C 0.1199(4) 0.9559(4) 0.4434(3)
H155 H 0.0907 0.9663 0.4599
C230 C 0.1688(4) 0.9869(3) 0.4279(3)
C231 C 0.2124(5) 0.9723(4) 0.4046(3)
H156 H 0.2451 0.9944 0.3942
C232 C 0.2076(4) 0.9244(4) 0.3965(3)
C233 C 0.1599(4) 0.8930(4) 0.4118(3)
H157 H 0.1574 0.8598 0.4070
C234 C 0.2513(4) 0.9067(5) 0.3701(3)
C235 C 0.3686(6) 0.9380(8) 0.3014(4)
H158 H 0.3828 0.9728 0.2985
C236 C 0.3953(5) 0.9067(6) 0.2785(3)
C237 C 0.4394(6) 0.9271(6) 0.2492(4)
H159 H 0.4535 0.9628 0.2433
C238 C 0.4624(7) 0.8938(8) 0.2288(5)
H160 H 0.4936 0.9062 0.2091
C239 C 0.4409(8) 0.8435(8) 0.2364(5)
H161 H 0.4556 0.8213 0.2215
C240 C 0.3970(7) 0.8252(6) 0.2665(5)
H162 H 0.3822 0.7897 0.2724
N68 N 0.3751(4) 0.8558(6) 0.2874(3)
N69 N -0.0265(3) 0.8568(3) 0.4740(2)
N70 N 0.0182(3) 0.8934(3) 0.4620(2)
N71 N 0.2934(4) 0.9408(5) 0.3489(3)
N72 N 0.3261(4) 0.9182(5) 0.3254(3)
O56 O 0.0673(3) 0.8270(3) 0.4439(2)
O57 O 0.2082(4) 1.0283(3) 0.4699(2)
O58 O 0.1203(3) 1.0613(4) 0.4538(3)
O59 O 0.2056(4) 1.0845(3) 0.4084(2)
O60 O 0.2469(3) 0.8588(3) 0.3688(2)
S12 S 0.17580(15) 1.04500(12) 0.44126(10)
Cu13 Cu 0.30539(6) 0.84983(6) 0.11178(4)
Cu14 Cu 0.22713(5) 1.15454(6) -0.06136(4)
Cu15 Cu 0.02604(7) 1.20715(6) 0.13444(4)
Cu16 Cu 0.08195(6) 0.91270(5) 0.28976(4)
N73 N 0.3067(3) 0.7765(3) 0.1612(2)
C241 C 0.3427(4) 0.7616(4) 0.1840(3)
H163 H 0.3758 0.7825 0.1784
C242 C 0.3330(5) 0.7162(4) 0.2157(3)
H164 H 0.3596 0.7059 0.2312
C243 C 0.2856(5) 0.6871(4) 0.2240(3)
H165 H 0.2775 0.6574 0.2462
C244 C 0.2485(4) 0.7005(4) 0.1999(3)
H166 H 0.2158 0.6792 0.2047
C245 C 0.2603(4) 0.7457(3) 0.1688(3)
C246 C 0.2211(5) 0.7660(4) 0.1446(3)
H167 H 0.1878 0.7466 0.1475
C247 C 0.2106(4) 0.8820(4) 0.0709(3)
C248 C 0.1708(3) 0.9077(3) 0.0463(2)
C249 C 0.1222(3) 0.8827(3) 0.0454(2)
H168 H 0.1121 0.8469 0.0612
C250 C 0.0887(3) 0.9112(3) 0.0209(2)
C251 C 0.1031(3) 0.9630(3) -0.0023(2)
H169 H 0.0804 0.9815 -0.0193
C252 C 0.1507(3) 0.9881(3) -0.0007(2)
C253 C 0.1844(3) 0.9599(3) 0.0233(2)
H170 H 0.2174 0.9768 0.0239
C254 C 0.1698(3) 1.0442(3) -0.0234(2)
C255 C 0.1161(3) 1.1599(3) -0.07774(19)
H171 H 0.0807 1.1470 -0.0780
C256 C 0.1345(2) 1.2164(3) -0.09754(16)
C257 C 0.1006(3) 1.2535(3) -0.1160(2)
H172 H 0.0645 1.2432 -0.1170
C258 C 0.1200(4) 1.3062(3) -0.1332(3)
H173 H 0.0971 1.3330 -0.1454
C259 C 0.1720(4) 1.3190(4) -0.1322(4)
H174 H 0.1864 1.3547 -0.1446
C260 C 0.2042(4) 1.2796(3) -0.1131(3)
H175 H 0.2403 1.2896 -0.1120
N74 N 0.1868(3) 1.2285(3) -0.0963(2)
N75 N 0.2333(3) 0.8109(3) 0.1192(2)
N76 N 0.1962(3) 0.8316(3) 0.0962(2)
N77 N 0.1329(2) 1.0764(3) -0.03974(17)
H176 H 0.0990 1.0649 -0.0376
N78 N 0.1501(3) 1.1287(3) -0.06007(18)
O61 O 0.2543(3) 0.9049(3) 0.0693(2)
O62 O -0.0150(2) 0.9217(2) 0.01998(17)
O63 O 0.0151(3) 0.8343(2) 0.05386(18)
O64 O 0.0361(3) 0.8639(4) -0.0124(2)
O65 O 0.2173(2) 1.0605(3) -0.02621(19)
S13 S 0.02577(9) 0.88024(9) 0.02078(6)
N79 N 0.2705(3) 1.1378(3) -0.10716(19)
C261 C 0.2532(3) 1.1178(4) -0.1308(2)
H177 H 0.2149 1.1091 -0.1267
C262 C 0.2890(4) 1.1092(5) -0.1614(3)
H178 H 0.2755 1.0943 -0.1776
C263 C 0.3433(4) 1.1224(7) -0.1673(3)
H179 H 0.3685 1.1168 -0.1879
C264 C 0.3623(4) 1.1439(6) -0.1434(3)
H180 H 0.4003 1.1542 -0.1477
C265 C 0.3251(3) 1.1503(5) -0.1130(3)
C266 C 0.3407(4) 1.1693(5) -0.0852(3)
H181 H 0.3780 1.1784 -0.0860
C267 C 0.2594(3) 1.1871(3) -0.0078(2)
C268 C 0.2574(3) 1.2045(2) 0.0256(2)
C269 C 0.3049(4) 1.2235(3) 0.0330(2)
H182 H 0.3396 1.2257 0.0164
C270 C 0.3010(3) 1.2389(4) 0.0644(2)
C271 C 0.2506(4) 1.2362(4) 0.0887(2)
H183 H 0.2483 1.2475 0.1101
C272 C 0.2027(4) 1.2168(4) 0.0816(2)
C273 C 0.2075(3) 1.2010(3) 0.0509(2)
H184 H 0.1756 1.1870 0.0464
C274 C 0.1470(4) 1.2148(4) 0.1051(3)
C275 C 0.0761(4) 1.2386(3) 0.1857(3)
H185 H 0.1039 1.2509 0.1953
C276 C 0.0194(3) 1.2316(2) 0.20547(18)
C277 C 0.0012(4) 1.2409(3) 0.2392(2)
H186 H 0.0263 1.2535 0.2507
C278 C -0.0538(4) 1.2318(4) 0.2560(2)
H187 H -0.0670 1.2371 0.2796
C279 C -0.0891(4) 1.2152(4) 0.2388(3)
H188 H -0.1274 1.2096 0.2498
C280 C -0.0685(3) 1.2066(4) 0.2048(2)
H189 H -0.0931 1.1936 0.1933
N80 N -0.0156(3) 1.2158(3) 0.18784(18)
N81 N 0.3008(3) 1.1732(3) -0.0593(2)
N82 N 0.3080(3) 1.1890(3) -0.0294(2)
N83 N 0.1420(4) 1.2297(4) 0.1359(2)
N84 N 0.0880(3) 1.2278(3) 0.1550(2)
O66 O 0.2138(2) 1.1740(2) -0.01439(16)
O67 O 0.3496(3) 1.3205(3) 0.0709(3)
O68 O 0.4057(3) 1.2599(4) 0.0454(2)
O69 O 0.3651(4) 1.2323(4) 0.1106(2)
O70 O 0.1068(3) 1.1996(3) 0.09564(19)
S14 S 0.36012(10) 1.26501(13) 0.07421(7)
N85 N 0.0096(3) 1.2822(3) 0.0983(2)
C281 C 0.0247(4) 1.3312(4) 0.0964(3)
H190 H 0.0485 1.3346 0.1121
C282 C 0.0076(5) 1.3780(4) 0.0723(4)
H191 H 0.0185 1.4127 0.0720
C283 C -0.0252(6) 1.3725(4) 0.0493(4)
H192 H -0.0370 1.4036 0.0322
C284 C -0.0415(6) 1.3218(3) 0.0506(3)
H193 H -0.0645 1.3177 0.0346
C285 C -0.0237(4) 1.2770(3) 0.0757(2)
C286 C -0.0413(4) 1.2224(4) 0.0817(3)
H194 H -0.0641 1.2136 0.0671
C287 C -0.0147(3) 1.1027(3) 0.1447(2)
C288 C -0.0251(2) 1.0443(3) 0.15739(18)
C289 C -0.0535(3) 1.0163(3) 0.1408(2)
H195 H -0.0682 1.0352 0.1195
C290 C -0.0601(3) 0.9608(3) 0.1557(2)
C291 C -0.0395(3) 0.9324(3) 0.1868(2)
H196 H -0.0452 0.8944 0.1970
C292 C -0.0106(3) 0.9598(3) 0.2033(2)
C293 C -0.0045(3) 1.0146(3) 0.1884(2)
H197 H 0.0149 1.0334 0.1998
C294 C 0.0152(3) 0.9328(3) 0.2365(2)
C295 C 0.0321(3) 0.8123(4) 0.3012(3)
H198 H 0.0072 0.7867 0.2996
C296 C 0.0695(2) 0.7981(2) 0.32698(17)
C297 C 0.0729(3) 0.7467(3) 0.3512(2)
H199 H 0.0496 0.7181 0.3520
C298 C 0.1107(4) 0.7379(3) 0.3742(3)
H200 H 0.1140 0.7029 0.3909
C299 C 0.1433(4) 0.7794(3) 0.3729(3)
H201 H 0.1692 0.7738 0.3888
C300 C 0.1383(3) 0.8305(3) 0.3477(2)
H202 H 0.1622 0.8592 0.3460
N86 N 0.1011(3) 0.8398(2) 0.32631(19)
N87 N -0.0241(3) 1.1864(3) 0.1082(2)
N88 N -0.0396(3) 1.1326(3) 0.11721(19)
N89 N 0.0041(3) 0.8797(3) 0.2529(2)
N90 N 0.0348(3) 0.8622(3) 0.2806(2)
O71 O 0.0191(3) 1.1220(2) 0.15827(16)
O72 O -0.1496(2) 0.9158(4) 0.1536(2)
O73 O -0.0643(3) 0.8750(3) 0.1362(2)
O74 O -0.0881(3) 0.9580(3) 0.09528(16)
O75 O 0.0478(2) 0.9606(2) 0.24525(17)
S15 S -0.09335(9) 0.92522(9) 0.13286(6)
N91 N 0.0278(3) 0.9437(2) 0.33380(18)
C301 C -0.0258(3) 0.9353(3) 0.3492(2)
H203 H -0.0470 0.9133 0.3411
C302 C -0.0522(4) 0.9572(4) 0.3766(3)
H204 H -0.0908 0.9511 0.3865
C303 C -0.0218(4) 0.9873(4) 0.3890(3)
H205 H -0.0387 1.0017 0.4082
C304 C 0.0338(4) 0.9970(4) 0.3735(2)
H206 H 0.0555 1.0183 0.3817
C305 C 0.0573(3) 0.9752(3) 0.3456(2)
C306 C 0.1127(4) 0.9854(4) 0.3272(3)
H207 H 0.1361 1.0070 0.3339
C307 C 0.1968(4) 0.9537(3) 0.2539(3)
C308 C 0.2511(4) 0.9654(3) 0.2281(3)
C309 C 0.2912(4) 1.0009(4) 0.2286(3)
H208 H 0.2833 1.0188 0.2470
C310 C 0.3403(4) 1.0117(4) 0.2048(3)
C311 C 0.3530(5) 0.9860(5) 0.1774(3)
H209 H 0.3875 0.9934 0.1602
C312 C 0.3157(4) 0.9501(4) 0.1753(3)
C313 C 0.2646(4) 0.9401(4) 0.2010(3)
H210 H 0.2388 0.9151 0.1997
C314 C 0.3245(4) 0.9203(4) 0.1481(3)
C315 C 0.4126(5) 0.8828(6) 0.0797(4)
H211 H 0.4472 0.9013 0.0744
C316 C 0.4045(3) 0.8477(4) 0.0607(2)
C317 C 0.4431(4) 0.8364(6) 0.0327(4)
H212 H 0.4787 0.8535 0.0248
C318 C 0.4291(5) 0.7998(7) 0.0165(4)
H213 H 0.4554 0.7914 -0.0025
C319 C 0.3783(6) 0.7761(7) 0.0277(5)
H214 H 0.3684 0.7508 0.0168
C320 C 0.3406(5) 0.7893(5) 0.0555(4)
H215 H 0.3044 0.7734 0.0630
N92 N 0.3539(3) 0.8236(4) 0.0718(2)
N93 N 0.1321(3) 0.9640(3) 0.2999(2)
N94 N 0.1852(3) 0.9752(3) 0.2804(2)
N95 N 0.3739(4) 0.9224(4) 0.1262(3)
N96 N 0.3732(4) 0.8898(4) 0.1040(3)
O76 O 0.1620(3) 0.9233(3) 0.24813(19)
O77 O 0.3892(4) 1.0530(4) 0.2431(2)
O78 O 0.3635(4) 1.1129(3) 0.1881(3)
O79 O 0.4392(3) 1.0559(5) 0.1823(3)
O80 O 0.2831(3) 0.8934(3) 0.1467(2)
S16 S 0.38655(16) 1.06180(15) 0.20470(11)
C321 C 0.3119(4) 0.8183(3) 0.78336(19)
H216 H 0.2973 0.7940 0.7735
C322 C 0.3406(8) 0.9093(3) 0.7760(4)
H217 H 0.3099 0.9263 0.7885
H218 H 0.3625 0.9369 0.7548
H219 H 0.3642 0.8914 0.7937
C323 C 0.3046(7) 0.8891(6) 0.7260(3)
H220 H 0.2948 0.8583 0.7188
H221 H 0.3364 0.9090 0.7077
H222 H 0.2729 0.9129 0.7266
N97 N 0.3186(4) 0.8697(3) 0.7627(2)
O81 O 0.3234(3) 0.7999(2) 0.81476(18)
C324 C 0.2860(8) 0.9067(6) 0.4661(5)
H223 H 0.2831 0.9384 0.4734
C325 C 0.2487(11) 0.8189(8) 0.4730(8)
H224 H 0.2167 0.7957 0.4882
H225 H 0.2829 0.8001 0.4778
H226 H 0.2476 0.8275 0.4465
C326 C 0.2010(9) 0.8740(11) 0.5115(7)
H227 H 0.1769 0.8417 0.5204
H228 H 0.1798 0.9057 0.5012
H229 H 0.2153 0.8783 0.5324
N98 N 0.2471(7) 0.8685(6) 0.4827(4)
O82 O 0.3261(8) 0.9037(9) 0.4415(6)
O86 O 0.5222(3) 0.9561(2) 0.52520(19)
O87 O -0.1140(3) 1.1163(3) 0.0754(2)
O88 O 0.0663(4) 0.6354(3) 0.8218(2)
O89 O 0.0727(4) 0.5340(3) 0.8731(3)
O90 O -0.0131(4) 0.7820(4) 0.2309(3)
O91 O 0.1046(3) 0.7640(3) 0.1153(3)
O92 O 0.6962(4) 0.6668(4) 0.8551(3)
O93 O -0.1870(4) 1.0264(4) 0.0893(2)
O94 O 0.2180(4) 1.2527(5) 0.1729(3)
O95 O 0.0050(4) 0.7881(5) 0.1569(4)
O96 O -0.0163(5) 0.9923(5) 0.4694(3)
O97 O 0.4617(5) 0.9968(5) 0.5771(3)
O98 O 0.4087(5) 0.3420(7) 0.9761(3)
O99 O 0.6213(5) 0.3325(5) 0.8698(4)
O100 O 0.0836(5) 0.4452(5) 0.8441(4)
O101 O 0.3635(8) 0.8597(6) 0.6426(4)
O102 O 0.7365(6) 0.8384(5) 0.7840(4)
O103 O 0.6282(6) 0.9751(5) 0.5304(3)
O120 O 0.6383(8) 0.4974(8) 0.8768(6)
O126 O 0.0240(10) 1.1264(11) 0.4435(7)
O128 O 0.6877(11) 0.9146(12) 0.5572(7)
O149 O 0.0253(13) 1.5092(13) 0.0721(9)
loop_
_geom_bond_atom_site_label_1
_geom_bond_atom_site_label_2
_geom_bond_site_symmetry_1
_geom_bond_site_symmetry_2
Cu1 N1 1_555 1_555
Cu2 N2 1_555 1_555
Cu3 N8 1_555 1_555
Cu4 N14 1_555 1_555
N1 C1 1_555 1_555
C1 H1 1_555 1_555
C2 C1 1_555 1_555
H2 C2 1_555 1_555
C3 C2 1_555 1_555
H3 C3 1_555 1_555
C4 C3 1_555 1_555
H4 C4 1_555 1_555
C5 N1 1_555 1_555
C6 C5 1_555 1_555
H5 C6 1_555 1_555
C7 C8 1_555 1_555
C8 C9 1_555 1_555
C9 H6 1_555 1_555
C10 C9 1_555 1_555
C11 C10 1_555 1_555
H7 C11 1_555 1_555
C12 C11 1_555 1_555
C13 C8 1_555 1_555
H8 C13 1_555 1_555
C14 C12 1_555 1_555
C15 H9 1_555 1_555
C16 C15 1_555 1_555
C17 C16 1_555 1_555
H10 C17 1_555 1_555
C18 C17 1_555 1_555
H11 C18 1_555 1_555
C19 C18 1_555 1_555
H12 C19 1_555 1_555
C20 C19 1_555 1_555
H13 C20 1_555 1_555
N2 C16 1_555 1_555
N3 Cu1 1_555 1_555
N4 C7 1_555 1_555
H14 N4 1_555 1_555
N5 C14 1_555 1_555
H15 N5 1_555 1_555
N6 Cu2 1_555 1_555
O1 Cu1 1_555 1_555
O2 S1 1_555 1_555
O3 S1 1_555 1_555
O4 S1 1_555 1_555
O5 C14 1_555 1_555
S1 C10 1_555 1_555
N7 Cu2 1_555 1_555
C21 N7 1_555 1_555
H16 C21 1_555 1_555
C22 C21 1_555 1_555
H17 C22 1_555 1_555
C23 C22 1_555 1_555
H18 C23 1_555 1_555
C24 C23 1_555 1_555
H19 C24 1_555 1_555
C25 N7 1_555 1_555
C26 C25 1_555 1_555
H20 C26 1_555 1_555
C27 C28 1_555 1_555
C28 C29 1_555 1_555
C29 H21 1_555 1_555
C30 C29 1_555 1_555
C31 C30 1_555 1_555
H22 C31 1_555 1_555
C32 C31 1_555 1_555
C33 C28 1_555 1_555
H23 C33 1_555 1_555
C34 C32 1_555 1_555
C35 H24 1_555 1_555
C36 C35 1_555 1_555
C37 C36 1_555 1_555
H25 C37 1_555 1_555
C38 C37 1_555 1_555
H26 C38 1_555 1_555
C39 C38 1_555 1_555
H27 C39 1_555 1_555
C40 C39 1_555 1_555
H28 C40 1_555 1_555
N8 C36 1_555 1_555
N9 Cu2 1_555 1_555
N10 C27 1_555 1_555
H29 N10 1_555 1_555
N11 C34 1_555 1_555
N12 Cu3 1_555 1_555
O6 C27 1_555 1_555
O7 S2 1_555 1_555
O8 S2 1_555 1_555
O9 S2 1_555 1_555
O10 Cu3 1_555 1_555
S2 C30 1_555 1_555
N13 Cu3 1_555 1_555
C41 N13 1_555 1_555
H30 C41 1_555 1_555
C42 C41 1_555 1_555
H31 C42 1_555 1_555
C43 C42 1_555 1_555
H32 C43 1_555 1_555
C44 C43 1_555 1_555
H33 C44 1_555 1_555
C45 N13 1_555 1_555
C46 C45 1_555 1_555
H34 C46 1_555 1_555
C47 C48 1_555 1_555
C48 C49 1_555 1_555
C49 H35 1_555 1_555
C50 C49 1_555 1_555
C51 C50 1_555 1_555
H36 C51 1_555 1_555
C52 C51 1_555 1_555
C53 C48 1_555 1_555
H37 C53 1_555 1_555
C54 C52 1_555 1_555
C55 H38 1_555 1_555
C56 C55 1_555 1_555
C57 C56 1_555 1_555
H39 C57 1_555 1_555
C58 C57 1_555 1_555
H40 C58 1_555 1_555
C59 C58 1_555 1_555
H41 C59 1_555 1_555
C60 C59 1_555 1_555
H42 C60 1_555 1_555
N14 C56 1_555 1_555
N15 Cu3 1_555 1_555
N16 C47 1_555 1_555
N17 C54 1_555 1_555
N18 Cu4 1_555 1_555
O11 Cu3 1_555 1_555
O12 S3 1_555 1_555
O13 S3 1_555 1_555
O14 S3 1_555 1_555
O15 Cu4 1_555 1_555
S3 C50 1_555 1_555
N19 Cu4 1_555 1_555
C61 N19 1_555 1_555
H43 C61 1_555 1_555
C62 C61 1_555 1_555
H44 C62 1_555 1_555
C63 C62 1_555 1_555
H45 C63 1_555 1_555
C64 C63 1_555 1_555
H46 C64 1_555 1_555
C65 N19 1_555 1_555
C66 C65 1_555 1_555
H47 C66 1_555 1_555
C67 C68 1_555 1_555
C68 C69 1_555 1_555
C69 H48 1_555 1_555
C70 C69 1_555 1_555
C71 C70 1_555 1_555
H49 C71 1_555 1_555
C72 C71 1_555 1_555
C73 C68 1_555 1_555
H50 C73 1_555 1_555
C74 C72 1_555 1_555
C75 H51 1_555 1_555
C76 C75 1_555 1_555
C77 C76 1_555 1_555
H52 C77 1_555 1_555
C78 C77 1_555 1_555
H53 C78 1_555 1_555
C79 C78 1_555 1_555
H54 C79 1_555 1_555
C80 C79 1_555 1_555
H55 C80 1_555 1_555
N20 Cu1 1_555 1_555
N21 Cu4 1_555 1_555
N22 C67 1_555 1_555
N23 C74 1_555 1_555
N24 Cu1 1_555 1_555
O16 Cu4 1_555 1_555
O17 S4 1_555 1_555
O18 S4 1_555 1_555
O19 S4 1_555 1_555
O20 Cu1 1_555 1_555
S4 C70 1_555 1_555
Cu5 N25 1_555 1_555
Cu6 N26 1_555 1_555
Cu7 N32 1_555 1_555
Cu8 N38 1_555 1_555
N25 C81 1_555 1_555
C81 H56 1_555 1_555
C82 C81 1_555 1_555
H57 C82 1_555 1_555
C83 C82 1_555 1_555
H58 C83 1_555 1_555
C84 C83 1_555 1_555
H59 C84 1_555 1_555
C85 N25 1_555 1_555
C86 C85 1_555 1_555
H60 C86 1_555 1_555
C87 C88 1_555 1_555
C88 C89 1_555 1_555
C89 H61 1_555 1_555
C90 C89 1_555 1_555
C91 C90 1_555 1_555
H62 C91 1_555 1_555
C92 C91 1_555 1_555
C93 C88 1_555 1_555
H63 C93 1_555 1_555
C94 C92 1_555 1_555
C95 H64 1_555 1_555
C96 C95 1_555 1_555
C97 C96 1_555 1_555
H65 C97 1_555 1_555
C98 C97 1_555 1_555
H66 C98 1_555 1_555
C99 C98 1_555 1_555
H67 C99 1_555 1_555
C100 C99 1_555 1_555
H68 C100 1_555 1_555
N26 C96 1_555 1_555
N27 Cu5 1_555 1_555
N28 C87 1_555 1_555
N29 C94 1_555 1_555
N30 Cu6 1_555 1_555
O21 Cu5 1_555 1_555
O22 S5 1_555 1_555
O23 S5 1_555 1_555
O24 S5 1_555 1_555
O25 Cu6 1_555 1_555
S5 C90 1_555 1_555
N31 Cu6 1_555 1_555
C101 N31 1_555 1_555
H69 C101 1_555 1_555
C102 C101 1_555 1_555
H70 C102 1_555 1_555
C103 C102 1_555 1_555
H71 C103 1_555 1_555
C104 C103 1_555 1_555
H72 C104 1_555 1_555
C105 N31 1_555 1_555
C106 C105 1_555 1_555
H73 C106 1_555 1_555
C107 C108 1_555 1_555
C108 C109 1_555 1_555
C109 H74 1_555 1_555
C110 C109 1_555 1_555
C111 C110 1_555 1_555
H75 C111 1_555 1_555
C112 C111 1_555 1_555
C113 C108 1_555 1_555
H76 C113 1_555 1_555
C114 C112 1_555 1_555
C115 H77 1_555 1_555
C116 C115 1_555 1_555
C117 C116 1_555 1_555
H78 C117 1_555 1_555
C118 C117 1_555 1_555
H79 C118 1_555 1_555
C119 C118 1_555 1_555
H80 C119 1_555 1_555
C120 C119 1_555 1_555
H81 C120 1_555 1_555
N32 C116 1_555 1_555
N33 Cu6 1_555 1_555
N34 C107 1_555 1_555
N35 C114 1_555 1_555
H82 N35 1_555 1_555
N36 Cu7 1_555 1_555
O26 Cu6 1_555 1_555
O27 S6 1_555 1_555
O28 S6 1_555 1_555
O29 S6 1_555 1_555
O30 Cu7 1_555 1_555
S6 C110 1_555 1_555
N37 Cu7 1_555 1_555
C121 N37 1_555 1_555
H83 C121 1_555 1_555
C122 C121 1_555 1_555
H84 C122 1_555 1_555
C123 C122 1_555 1_555
H85 C123 1_555 1_555
C124 C123 1_555 1_555
H86 C124 1_555 1_555
C125 N37 1_555 1_555
C126 C125 1_555 1_555
H87 C126 1_555 1_555
C127 C128 1_555 1_555
C128 C129 1_555 1_555
C129 H88 1_555 1_555
C130 C129 1_555 1_555
C131 C130 1_555 1_555
H89 C131 1_555 1_555
C132 C131 1_555 1_555
C133 C128 1_555 1_555
H90 C133 1_555 1_555
C134 C132 1_555 1_555
C135 H91 1_555 1_555
C136 C135 1_555 1_555
C137 C136 1_555 1_555
H92 C137 1_555 1_555
C138 C137 1_555 1_555
H93 C138 1_555 1_555
C139 C138 1_555 1_555
H94 C139 1_555 1_555
C140 C139 1_555 1_555
H95 C140 1_555 1_555
N38 C136 1_555 1_555
N39 Cu7 1_555 1_555
N40 C127 1_555 1_555
N41 C134 1_555 1_555
N42 Cu8 1_555 1_555
O31 Cu7 1_555 1_555
O32 S7 1_555 1_555
O33 S7 1_555 1_555
O34 S7 1_555 1_555
O35 Cu8 1_555 1_555
S7 C130 1_555 1_555
N43 Cu8 1_555 1_555
C141 N43 1_555 1_555
H96 C141 1_555 1_555
C142 C141 1_555 1_555
H97 C142 1_555 1_555
C143 C142 1_555 1_555
H98 C143 1_555 1_555
C144 C143 1_555 1_555
H99 C144 1_555 1_555
C145 N43 1_555 1_555
C146 C145 1_555 1_555
H100 C146 1_555 1_555
C147 C148 1_555 1_555
C148 C149 1_555 1_555
C149 H101 1_555 1_555
C150 C149 1_555 1_555
C151 C150 1_555 1_555
H102 C151 1_555 1_555
C152 C151 1_555 1_555
C153 C148 1_555 1_555
H103 C153 1_555 1_555
C154 C152 1_555 1_555
C155 H104 1_555 1_555
C156 C155 1_555 1_555
C157 C156 1_555 1_555
H105 C157 1_555 1_555
C158 C157 1_555 1_555
H106 C158 1_555 1_555
C159 C158 1_555 1_555
H107 C159 1_555 1_555
C160 C159 1_555 1_555
H108 C160 1_555 1_555
N44 Cu5 1_555 1_555
N45 Cu8 1_555 1_555
N46 C147 1_555 1_555
N47 C154 1_555 1_555
N48 Cu5 1_555 1_555
O36 Cu8 1_555 1_555
O37 S8 1_555 1_555
O38 S8 1_555 1_555
O39 S8 1_555 1_555
O40 Cu5 1_555 1_555
S8 C150 1_555 1_555
Cu9 N49 1_555 1_555
Cu10 N50 1_555 1_555
Cu11 N56 1_555 1_555
Cu12 N62 1_555 1_555
N49 C161 1_555 1_555
C161 H109 1_555 1_555
C162 C161 1_555 1_555
H110 C162 1_555 1_555
C163 C162 1_555 1_555
H111 C163 1_555 1_555
C164 C163 1_555 1_555
H112 C164 1_555 1_555
C165 N49 1_555 1_555
C166 C165 1_555 1_555
H113 C166 1_555 1_555
C167 C168 1_555 1_555
C168 C169 1_555 1_555
C169 H114 1_555 1_555
C170 C169 1_555 1_555
C171 C170 1_555 1_555
H115 C171 1_555 1_555
C172 C171 1_555 1_555
C173 C168 1_555 1_555
H116 C173 1_555 1_555
C174 C172 1_555 1_555
C175 H117 1_555 1_555
C176 C175 1_555 1_555
C177 C176 1_555 1_555
H118 C177 1_555 1_555
C178 C177 1_555 1_555
H119 C178 1_555 1_555
C179 C178 1_555 1_555
H120 C179 1_555 1_555
C180 C179 1_555 1_555
H121 C180 1_555 1_555
N50 C176 1_555 1_555
N51 Cu9 1_555 1_555
N52 C167 1_555 1_555
N53 C174 1_555 1_555
H122 N53 1_555 1_555
N54 Cu10 1_555 1_555
O41 Cu9 1_555 1_555
O42 S9 1_555 1_555
O43 S9 1_555 1_555
O44 S9 1_555 1_555
O45 C174 1_555 1_555
S9 C170 1_555 1_555
N55 Cu10 1_555 1_555
C181 N55 1_555 1_555
H123 C181 1_555 1_555
C182 C181 1_555 1_555
H124 C182 1_555 1_555
C183 C182 1_555 1_555
H125 C183 1_555 1_555
C184 C183 1_555 1_555
H126 C184 1_555 1_555
C185 N55 1_555 1_555
C186 C185 1_555 1_555
H127 C186 1_555 1_555
C187 C188 1_555 1_555
C188 C189 1_555 1_555
C189 H128 1_555 1_555
C190 C189 1_555 1_555
C191 C190 1_555 1_555
H129 C191 1_555 1_555
C192 C191 1_555 1_555
C193 C188 1_555 1_555
H130 C193 1_555 1_555
C194 C192 1_555 1_555
C195 H131 1_555 1_555
C196 C195 1_555 1_555
C197 C196 1_555 1_555
H132 C197 1_555 1_555
C198 C197 1_555 1_555
H133 C198 1_555 1_555
C199 C198 1_555 1_555
H134 C199 1_555 1_555
C200 C199 1_555 1_555
H135 C200 1_555 1_555
N56 C196 1_555 1_555
N57 Cu10 1_555 1_555
N58 C187 1_555 1_555
H136 N58 1_555 1_555
N59 C194 1_555 1_555
N60 Cu11 1_555 1_555
O46 C187 1_555 1_555
O47 S10 1_555 1_555
O48 S10 1_555 1_555
O49 S10 1_555 1_555
O50 Cu11 1_555 1_555
S10 C190 1_555 1_555
N61 Cu11 1_555 1_555
C201 N61 1_555 1_555
H137 C201 1_555 1_555
C202 C201 1_555 1_555
H138 C202 1_555 1_555
C203 C202 1_555 1_555
H139 C203 1_555 1_555
C204 C203 1_555 1_555
H140 C204 1_555 1_555
C205 N61 1_555 1_555
C206 C205 1_555 1_555
H141 C206 1_555 1_555
C207 C208 1_555 1_555
C208 C209 1_555 1_555
C209 H142 1_555 1_555
C210 C209 1_555 1_555
C211 C210 1_555 1_555
H143 C211 1_555 1_555
C212 C211 1_555 1_555
C213 C208 1_555 1_555
H144 C213 1_555 1_555
C214 C212 1_555 1_555
C215 H145 1_555 1_555
C216 C215 1_555 1_555
C217 C216 1_555 1_555
H146 C217 1_555 1_555
C218 C217 1_555 1_555
H147 C218 1_555 1_555
C219 C218 1_555 1_555
H148 C219 1_555 1_555
C220 C219 1_555 1_555
H149 C220 1_555 1_555
N62 C216 1_555 1_555
N63 Cu11 1_555 1_555
N64 C207 1_555 1_555
N65 C214 1_555 1_555
N66 Cu12 1_555 1_555
O51 Cu11 1_555 1_555
O52 S11 1_555 1_555
O53 S11 1_555 1_555
O54 S11 1_555 1_555
O55 Cu12 1_555 1_555
S11 C210 1_555 1_555
N67 Cu12 1_555 1_555
C221 N67 1_555 1_555
H150 C221 1_555 1_555
C222 C221 1_555 1_555
H151 C222 1_555 1_555
C223 C222 1_555 1_555
H152 C223 1_555 1_555
C224 C223 1_555 1_555
H153 C224 1_555 1_555
C225 N67 1_555 1_555
C226 C225 1_555 1_555
H154 C226 1_555 1_555
C227 C228 1_555 1_555
C228 C229 1_555 1_555
C229 H155 1_555 1_555
C230 C229 1_555 1_555
C231 C230 1_555 1_555
H156 C231 1_555 1_555
C232 C231 1_555 1_555
C233 C228 1_555 1_555
H157 C233 1_555 1_555
C234 C232 1_555 1_555
C235 H158 1_555 1_555
C236 C235 1_555 1_555
C237 C236 1_555 1_555
H159 C237 1_555 1_555
C238 C237 1_555 1_555
H160 C238 1_555 1_555
C239 C238 1_555 1_555
H161 C239 1_555 1_555
C240 C239 1_555 1_555
H162 C240 1_555 1_555
N68 Cu9 1_555 1_555
N69 Cu12 1_555 1_555
N70 C227 1_555 1_555
N71 C234 1_555 1_555
N72 Cu9 1_555 1_555
O56 Cu12 1_555 1_555
O57 S12 1_555 1_555
O58 S12 1_555 1_555
O59 S12 1_555 1_555
O60 Cu9 1_555 1_555
S12 C230 1_555 1_555
Cu13 N73 1_555 1_555
Cu14 N74 1_555 1_555
Cu15 N80 1_555 1_555
Cu16 N86 1_555 1_555
N73 C241 1_555 1_555
C241 H163 1_555 1_555
C242 C241 1_555 1_555
H164 C242 1_555 1_555
C243 C242 1_555 1_555
H165 C243 1_555 1_555
C244 C243 1_555 1_555
H166 C244 1_555 1_555
C245 N73 1_555 1_555
C246 C245 1_555 1_555
H167 C246 1_555 1_555
C247 C248 1_555 1_555
C248 C249 1_555 1_555
C249 H168 1_555 1_555
C250 C249 1_555 1_555
C251 C250 1_555 1_555
H169 C251 1_555 1_555
C252 C251 1_555 1_555
C253 C248 1_555 1_555
H170 C253 1_555 1_555
C254 C252 1_555 1_555
C255 H171 1_555 1_555
C256 C255 1_555 1_555
C257 C256 1_555 1_555
H172 C257 1_555 1_555
C258 C257 1_555 1_555
H173 C258 1_555 1_555
C259 C258 1_555 1_555
H174 C259 1_555 1_555
C260 C259 1_555 1_555
H175 C260 1_555 1_555
N74 C256 1_555 1_555
N75 Cu13 1_555 1_555
N76 C247 1_555 1_555
N77 C254 1_555 1_555
H176 N77 1_555 1_555
N78 Cu14 1_555 1_555
O61 Cu13 1_555 1_555
O62 S13 1_555 1_555
O63 S13 1_555 1_555
O64 S13 1_555 1_555
O65 Cu14 1_555 1_555
S13 C250 1_555 1_555
N79 Cu14 1_555 1_555
C261 N79 1_555 1_555
H177 C261 1_555 1_555
C262 C261 1_555 1_555
H178 C262 1_555 1_555
C263 C262 1_555 1_555
H179 C263 1_555 1_555
C264 C263 1_555 1_555
H180 C264 1_555 1_555
C265 N79 1_555 1_555
C266 C265 1_555 1_555
H181 C266 1_555 1_555
C267 C268 1_555 1_555
C268 C269 1_555 1_555
C269 H182 1_555 1_555
C270 C269 1_555 1_555
C271 C270 1_555 1_555
H183 C271 1_555 1_555
C272 C271 1_555 1_555
C273 C268 1_555 1_555
H184 C273 1_555 1_555
C274 C272 1_555 1_555
C275 H185 1_555 1_555
C276 C275 1_555 1_555
C277 C276 1_555 1_555
H186 C277 1_555 1_555
C278 C277 1_555 1_555
H187 C278 1_555 1_555
C279 C278 1_555 1_555
H188 C279 1_555 1_555
C280 C279 1_555 1_555
H189 C280 1_555 1_555
N80 C276 1_555 1_555
N81 Cu14 1_555 1_555
N82 C267 1_555 1_555
N83 C274 1_555 1_555
N84 Cu15 1_555 1_555
O66 Cu14 1_555 1_555
O67 S14 1_555 1_555
O68 S14 1_555 1_555
O69 S14 1_555 1_555
O70 Cu15 1_555 1_555
S14 C270 1_555 1_555
N85 Cu15 1_555 1_555
C281 N85 1_555 1_555
H190 C281 1_555 1_555
C282 C281 1_555 1_555
H191 C282 1_555 1_555
C283 C282 1_555 1_555
H192 C283 1_555 1_555
C284 C283 1_555 1_555
H193 C284 1_555 1_555
C285 N85 1_555 1_555
C286 C285 1_555 1_555
H194 C286 1_555 1_555
C287 C288 1_555 1_555
C288 C289 1_555 1_555
C289 H195 1_555 1_555
C290 C289 1_555 1_555
C291 C290 1_555 1_555
H196 C291 1_555 1_555
C292 C291 1_555 1_555
C293 C288 1_555 1_555
H197 C293 1_555 1_555
C294 C292 1_555 1_555
C295 H198 1_555 1_555
C296 C295 1_555 1_555
C297 C296 1_555 1_555
H199 C297 1_555 1_555
C298 C297 1_555 1_555
H200 C298 1_555 1_555
C299 C298 1_555 1_555
H201 C299 1_555 1_555
C300 C299 1_555 1_555
H202 C300 1_555 1_555
N86 C296 1_555 1_555
N87 Cu15 1_555 1_555
N88 C287 1_555 1_555
N89 C294 1_555 1_555
N90 Cu16 1_555 1_555
O71 Cu15 1_555 1_555
O72 S15 1_555 1_555
O73 S15 1_555 1_555
O74 S15 1_555 1_555
O75 Cu16 1_555 1_555
S15 C290 1_555 1_555
N91 Cu16 1_555 1_555
C301 N91 1_555 1_555
H203 C301 1_555 1_555
C302 C301 1_555 1_555
H204 C302 1_555 1_555
C303 C302 1_555 1_555
H205 C303 1_555 1_555
C304 C303 1_555 1_555
H206 C304 1_555 1_555
C305 N91 1_555 1_555
C306 C305 1_555 1_555
H207 C306 1_555 1_555
C307 C308 1_555 1_555
C308 C309 1_555 1_555
C309 H208 1_555 1_555
C310 C309 1_555 1_555
C311 C310 1_555 1_555
H209 C311 1_555 1_555
C312 C311 1_555 1_555
C313 C308 1_555 1_555
H210 C313 1_555 1_555
C314 C312 1_555 1_555
C315 H211 1_555 1_555
C316 C315 1_555 1_555
C317 C316 1_555 1_555
H212 C317 1_555 1_555
C318 C317 1_555 1_555
H213 C318 1_555 1_555
C319 C318 1_555 1_555
H214 C319 1_555 1_555
C320 C319 1_555 1_555
H215 C320 1_555 1_555
N92 Cu13 1_555 1_555
N93 Cu16 1_555 1_555
N94 C307 1_555 1_555
N95 C314 1_555 1_555
N96 Cu13 1_555 1_555
O76 Cu16 1_555 1_555
O77 S16 1_555 1_555
O78 S16 1_555 1_555
O79 S16 1_555 1_555
O80 Cu13 1_555 1_555
S16 C310 1_555 1_555
C321 H216 1_555 1_555
C322 H217 1_555 1_555
H218 C322 1_555 1_555
H219 C322 1_555 1_555
C323 H220 1_555 1_555
H221 C323 1_555 1_555
H222 C323 1_555 1_555
N97 C321 1_555 1_555
O81 C321 1_555 1_555
C324 H223 1_555 1_555
C325 H224 1_555 1_555
H225 C325 1_555 1_555
H226 C325 1_555 1_555
C326 H227 1_555 1_555
H228 C326 1_555 1_555
H229 C326 1_555 1_555
N98 C324 1_555 1_555
O82 C324 1_555 1_555
C4 C5 1_555 1_555
C6 N3 1_555 1_555
C7 O1 1_555 1_555
C12 C13 1_555 1_555
C15 N6 1_555 1_555
C20 N2 1_555 1_555
N3 N4 1_555 1_555
N5 N6 1_555 1_555
C24 C25 1_555 1_555
C26 N9 1_555 1_555
C32 C33 1_555 1_555
C34 O10 1_555 1_555
C35 N12 1_555 1_555
C40 N8 1_555 1_555
N9 N10 1_555 1_555
N11 N12 1_555 1_555
C44 C45 1_555 1_555
C46 N15 1_555 1_555
C47 O11 1_555 1_555
C52 C53 1_555 1_555
C54 O15 1_555 1_555
C55 N18 1_555 1_555
C60 N14 1_555 1_555
N15 N16 1_555 1_555
N17 N18 1_555 1_555
C64 C65 1_555 1_555
C66 N21 1_555 1_555
C67 O16 1_555 1_555
C72 C73 1_555 1_555
C74 O20 1_555 1_555
C75 N24 1_555 1_555
C76 N20 1_555 1_555
C80 N20 1_555 1_555
N21 N22 1_555 1_555
N23 N24 1_555 1_555
C84 C85 1_555 1_555
C86 N27 1_555 1_555
C87 O21 1_555 1_555
C92 C93 1_555 1_555
C94 O25 1_555 1_555
C95 N30 1_555 1_555
C100 N26 1_555 1_555
N27 N28 1_555 1_555
N29 N30 1_555 1_555
C104 C105 1_555 1_555
C106 N33 1_555 1_555
C107 O26 1_555 1_555
C112 C113 1_555 1_555
C114 O30 1_555 1_555
C115 N36 1_555 1_555
C120 N32 1_555 1_555
N33 N34 1_555 1_555
N35 N36 1_555 1_555
C124 C125 1_555 1_555
C126 N39 1_555 1_555
C127 O31 1_555 1_555
C132 C133 1_555 1_555
C134 O35 1_555 1_555
C135 N42 1_555 1_555
C140 N38 1_555 1_555
N39 N40 1_555 1_555
N41 N42 1_555 1_555
C144 C145 1_555 1_555
C146 N45 1_555 1_555
C147 O36 1_555 1_555
C152 C153 1_555 1_555
C154 O40 1_555 1_555
C155 N48 1_555 1_555
C156 N44 1_555 1_555
C160 N44 1_555 1_555
N45 N46 1_555 1_555
N47 N48 1_555 1_555
C164 C165 1_555 1_555
C166 N51 1_555 1_555
C167 O41 1_555 1_555
C172 C173 1_555 1_555
C175 N54 1_555 1_555
C180 N50 1_555 1_555
N51 N52 1_555 1_555
N53 N54 1_555 1_555
C184 C185 1_555 1_555
C186 N57 1_555 1_555
C192 C193 1_555 1_555
C194 O50 1_555 1_555
C195 N60 1_555 1_555
C200 N56 1_555 1_555
N57 N58 1_555 1_555
N59 N60 1_555 1_555
C204 C205 1_555 1_555
C206 N63 1_555 1_555
C207 O51 1_555 1_555
C212 C213 1_555 1_555
C214 O55 1_555 1_555
C215 N66 1_555 1_555
C220 N62 1_555 1_555
N63 N64 1_555 1_555
N65 N66 1_555 1_555
C224 C225 1_555 1_555
C226 N69 1_555 1_555
C227 O56 1_555 1_555
C232 C233 1_555 1_555
C234 O60 1_555 1_555
C235 N72 1_555 1_555
C236 N68 1_555 1_555
C240 N68 1_555 1_555
N69 N70 1_555 1_555
N71 N72 1_555 1_555
C244 C245 1_555 1_555
C246 N75 1_555 1_555
C247 O61 1_555 1_555
C252 C253 1_555 1_555
C254 O65 1_555 1_555
C255 N78 1_555 1_555
C260 N74 1_555 1_555
N75 N76 1_555 1_555
N77 N78 1_555 1_555
C264 C265 1_555 1_555
C266 N81 1_555 1_555
C267 O66 1_555 1_555
C272 C273 1_555 1_555
C274 O70 1_555 1_555
C275 N84 1_555 1_555
C280 N80 1_555 1_555
N81 N82 1_555 1_555
N83 N84 1_555 1_555
C284 C285 1_555 1_555
C286 N87 1_555 1_555
C287 O71 1_555 1_555
C292 C293 1_555 1_555
C294 O75 1_555 1_555
C295 N90 1_555 1_555
C300 N86 1_555 1_555
N87 N88 1_555 1_555
N89 N90 1_555 1_555
C304 C305 1_555 1_555
C306 N93 1_555 1_555
C307 O76 1_555 1_555
C312 C313 1_555 1_555
C314 O80 1_555 1_555
C315 N96 1_555 1_555
C316 N92 1_555 1_555
C320 N92 1_555 1_555
N93 N94 1_555 1_555
N95 N96 1_555 1_555
C322 N97 1_555 1_555
C323 N97 1_555 1_555
C325 N98 1_555 1_555
C326 N98 1_555 1_555

#END
