
#######################################################################
#
#                 Cambridge Crystallographic Data Centre
#                                CCDC 
#
#######################################################################
#
# If this CIF has been generated from an entry in the Cambridge 
# Structural Database, then it will include bibliographic, chemical, 
# crystal, experimental, refinement or atomic coordinate data resulting 
# from the CCDC's data processing and validation procedures.
#
#######################################################################

data_DABDER
_chemical_formula_moiety         'C40 H28 Ag2 N10 O6'
_chemical_name_systematic        
bis(\m~2~-4-((3-(pyridin-2-yl)-1H-pyrazol-1-yl)methyl)-1-naphthonitrile)-dinitrato-di-silver(i)
_symmetry_cell_setting           monoclinic
_symmetry_space_group_name_H-M   'P 21/c'
_symmetry_Int_Tables_number      14
_space_group_name_Hall           '-P 2ybc'
loop_
_symmetry_equiv_pos_site_id
_symmetry_equiv_pos_as_xyz
1 x,y,z
2 -x,1/2+y,1/2-z
3 -x,-y,-z
4 x,1/2-y,1/2+z
_cell_length_a                   7.5051(4)
_cell_length_b                   18.8729(9)
_cell_length_c                   12.8752(6)
_cell_angle_alpha                90
_cell_angle_beta                 96.361(3)
_cell_angle_gamma                90
_cell_volume                     1812.45
_exptl_crystal_colour            colorless
_exptl_crystal_description       plate
_cell_formula_units_Z            2
loop_
_atom_site_label
_atom_site_type_symbol
_atom_site_fract_x
_atom_site_fract_y
_atom_site_fract_z
Ag1 Ag 0.28910(2) 0.491034(9) 0.285610(14)
N1 N 0.2612(2) 0.46236(10) 0.46181(15)
C1 C 0.2448(3) 0.51751(12) 0.52651(17)
C2 C 0.1915(3) 0.50839(13) 0.62599(18)
H1 H 0.1803 0.5480 0.6704
C3 C 0.1551(3) 0.44059(13) 0.65879(19)
H2 H 0.1188 0.4330 0.7263
C4 C 0.1720(3) 0.38421(13) 0.59281(19)
H3 H 0.1470 0.3373 0.6137
C5 C 0.2263(3) 0.39729(12) 0.49550(19)
H4 H 0.2394 0.3582 0.4504
N2 N 0.3527(2) 0.66192(9) 0.37024(14)
N3 N 0.3294(2) 0.59238(9) 0.38730(14)
C6 C 0.2840(3) 0.58754(12) 0.48506(17)
C7 C 0.2800(3) 0.65518(12) 0.53054(18)
H5 H 0.2523 0.6666 0.5988
C8 C 0.3246(3) 0.70120(12) 0.45500(18)
H6 H 0.3341 0.7513 0.4610
C9 C 0.4173(3) 0.68525(12) 0.27265(17)
H7 H 0.5442 0.6709 0.2726
H8 H 0.4118 0.7376 0.2687
C10 C 0.3084(3) 0.65431(11) 0.17767(17)
C11 C 0.3867(3) 0.60573(12) 0.11769(18)
H9 H 0.5071 0.5916 0.1377
C12 C 0.2929(3) 0.57652(12) 0.02735(18)
H10 H 0.3499 0.5434 -0.0137
C13 C 0.1185(3) 0.59613(12) -0.00123(17)
C14 C 0.0291(3) 0.64559(12) 0.05887(17)
C15 C 0.1264(3) 0.67541(11) 0.14941(17)
C16 C 0.0224(3) 0.56590(13) -0.09355(18)
N4 N 0.0592(3) 0.45865(12) 0.16502(16)
C17 C -0.1520(3) 0.66616(13) 0.03112(19)
H11 H -0.2180 0.6466 -0.0294
C18 C -0.2317(3) 0.71388(13) 0.0911(2)
H12 H -0.3534 0.7267 0.0724
C19 C -0.1359(3) 0.74414(13) 0.17996(19)
H13 H -0.1929 0.7775 0.2205
C20 C 0.0392(3) 0.72583(12) 0.20851(18)
H14 H 0.1031 0.7470 0.2684
O1 O 0.6763(2) 0.35377(9) 0.18789(15)
O2 O 0.4229(3) 0.35655(10) 0.25205(18)
O3 O 0.5220(2) 0.45129(8) 0.18466(13)
N5 N 0.5396(2) 0.38642(10) 0.20719(15)
Ag1B Ag -0.28910(2) 0.508966(9) -0.285610(14)
N1B N -0.2612(2) 0.53764(10) -0.46181(15)
C1B C -0.2448(3) 0.48249(12) -0.52651(17)
C2B C -0.1915(3) 0.49161(13) -0.62599(18)
H1B H -0.1803 0.4520 -0.6704
C3B C -0.1551(3) 0.55941(13) -0.65879(19)
H2B H -0.1188 0.5670 -0.7263
C4B C -0.1720(3) 0.61579(13) -0.59281(19)
H3B H -0.1470 0.6627 -0.6137
C5B C -0.2263(3) 0.60271(12) -0.49550(19)
H4B H -0.2394 0.6418 -0.4504
N2B N -0.3527(2) 0.33808(9) -0.37024(14)
N3B N -0.3294(2) 0.40762(9) -0.38730(14)
C6B C -0.2840(3) 0.41246(12) -0.48506(17)
C7B C -0.2800(3) 0.34482(12) -0.53054(18)
H5B H -0.2523 0.3334 -0.5988
C8B C -0.3246(3) 0.29880(12) -0.45500(18)
H6B H -0.3341 0.2487 -0.4610
C9B C -0.4173(3) 0.31475(12) -0.27265(17)
H7B H -0.5442 0.3291 -0.2726
H8B H -0.4118 0.2624 -0.2687
C10B C -0.3084(3) 0.34569(11) -0.17767(17)
C11B C -0.3867(3) 0.39427(12) -0.11769(18)
H9B H -0.5071 0.4084 -0.1377
C12B C -0.2929(3) 0.42348(12) -0.02735(18)
H10B H -0.3499 0.4566 0.0137
C13B C -0.1185(3) 0.40387(12) 0.00123(17)
C14B C -0.0291(3) 0.35441(12) -0.05887(17)
C15B C -0.1264(3) 0.32459(11) -0.14941(17)
C16B C -0.0224(3) 0.43410(13) 0.09355(18)
N4B N -0.0592(3) 0.54135(12) -0.16502(16)
C17B C 0.1520(3) 0.33384(13) -0.03112(19)
H11B H 0.2180 0.3534 0.0294
C18B C 0.2317(3) 0.28612(13) -0.0911(2)
H12B H 0.3534 0.2733 -0.0724
C19B C 0.1359(3) 0.25586(13) -0.17996(19)
H13B H 0.1929 0.2225 -0.2205
C20B C -0.0392(3) 0.27417(12) -0.20851(18)
H14B H -0.1031 0.2530 -0.2684
O1B O -0.6763(2) 0.64623(9) -0.18789(15)
O2B O -0.4229(3) 0.64345(10) -0.25205(18)
O3B O -0.5220(2) 0.54871(8) -0.18466(13)
N5B N -0.5396(2) 0.61358(10) -0.20719(15)
loop_
_geom_bond_atom_site_label_1
_geom_bond_atom_site_label_2
_geom_bond_site_symmetry_1
_geom_bond_site_symmetry_2
Ag1 N1 1_555 1_555
N1 C1 1_555 1_555
C1 C2 1_555 1_555
C2 H1 1_555 1_555
C3 C2 1_555 1_555
H2 C3 1_555 1_555
C4 C3 1_555 1_555
H3 C4 1_555 1_555
C5 N1 1_555 1_555
H4 C5 1_555 1_555
N2 N3 1_555 1_555
N3 Ag1 1_555 1_555
C6 C1 1_555 1_555
C7 C6 1_555 1_555
H5 C7 1_555 1_555
C8 N2 1_555 1_555
H6 C8 1_555 1_555
C9 N2 1_555 1_555
H7 C9 1_555 1_555
H8 C9 1_555 1_555
C10 C9 1_555 1_555
C11 C10 1_555 1_555
H9 C11 1_555 1_555
C12 C11 1_555 1_555
H10 C12 1_555 1_555
C13 C12 1_555 1_555
C14 C13 1_555 1_555
C15 C10 1_555 1_555
C16 C13 1_555 1_555
N4 Ag1 1_555 1_555
C17 C14 1_555 1_555
H11 C17 1_555 1_555
C18 C17 1_555 1_555
H12 C18 1_555 1_555
C19 C18 1_555 1_555
H13 C19 1_555 1_555
C20 C15 1_555 1_555
H14 C20 1_555 1_555
O1 N5 1_555 1_555
O2 N5 1_555 1_555
O3 Ag1 1_555 1_555
N5 O3 1_555 1_555
Ag1B N1B 1_555 1_555
N1B C1B 1_555 1_555
C1B C2B 1_555 1_555
C2B H1B 1_555 1_555
C3B C2B 1_555 1_555
H2B C3B 1_555 1_555
C4B C3B 1_555 1_555
H3B C4B 1_555 1_555
C5B N1B 1_555 1_555
H4B C5B 1_555 1_555
N2B N3B 1_555 1_555
N3B Ag1B 1_555 1_555
C6B C1B 1_555 1_555
C7B C6B 1_555 1_555
H5B C7B 1_555 1_555
C8B N2B 1_555 1_555
H6B C8B 1_555 1_555
C9B N2B 1_555 1_555
H7B C9B 1_555 1_555
H8B C9B 1_555 1_555
C10B C9B 1_555 1_555
C11B C10B 1_555 1_555
H9B C11B 1_555 1_555
C12B C11B 1_555 1_555
H10B C12B 1_555 1_555
C13B C12B 1_555 1_555
C14B C13B 1_555 1_555
C15B C10B 1_555 1_555
C16B N4 1_555 1_555
N4B C16 1_555 1_555
C17B C14B 1_555 1_555
H11B C17B 1_555 1_555
C18B C17B 1_555 1_555
H12B C18B 1_555 1_555
C19B C18B 1_555 1_555
H13B C19B 1_555 1_555
C20B C15B 1_555 1_555
H14B C20B 1_555 1_555
O1B N5B 1_555 1_555
O2B N5B 1_555 1_555
O3B Ag1B 1_555 1_555
N5B O3B 1_555 1_555
C4 C5 1_555 1_555
N3 C6 1_555 1_555
C7 C8 1_555 1_555
C14 C15 1_555 1_555
C19 C20 1_555 1_555
Ag1B N4B 1_555 1_555
C4B C5B 1_555 1_555
N3B C6B 1_555 1_555
C7B C8B 1_555 1_555
C13B C16B 1_555 1_555
C14B C15B 1_555 1_555
C19B C20B 1_555 1_555

#END
