
#######################################################################
#
#                 Cambridge Crystallographic Data Centre
#                                CCDC 
#
#######################################################################
#
# If this CIF has been generated from an entry in the Cambridge 
# Structural Database, then it will include bibliographic, chemical, 
# crystal, experimental, refinement or atomic coordinate data resulting 
# from the CCDC's data processing and validation procedures.
#
#######################################################################

data_DABDIV
_chemical_formula_moiety         'C40 H28 Ag2 B2 F8 N8'
_chemical_name_systematic        
bis(\m~2~-4-((3-(pyridin-2-yl)-1H-pyrazol-1-yl)methyl)-1-naphthonitrile)-bis(tetrafluoroborato)-di-silver(i)
_symmetry_cell_setting           monoclinic
_symmetry_space_group_name_H-M   'P 21/c'
_symmetry_Int_Tables_number      14
_space_group_name_Hall           '-P 2ybc'
loop_
_symmetry_equiv_pos_site_id
_symmetry_equiv_pos_as_xyz
1 x,y,z
2 -x,1/2+y,1/2-z
3 -x,-y,-z
4 x,1/2-y,1/2+z
_cell_length_a                   7.55750(10)
_cell_length_b                   18.7864(3)
_cell_length_c                   13.2436(2)
_cell_angle_alpha                90
_cell_angle_beta                 91.8550(10)
_cell_angle_gamma                90
_cell_volume                     1879.32
_exptl_crystal_colour            colorless
_exptl_crystal_description       block
_cell_formula_units_Z            2
loop_
_atom_site_label
_atom_site_type_symbol
_atom_site_fract_x
_atom_site_fract_y
_atom_site_fract_z
Ag1 Ag 0.218344(18) 0.511100(7) 0.786195(9)
N1 N 0.2232(2) 0.53967(8) 0.95709(11)
C1 C 0.2402(2) 0.48450(9) 1.02116(12)
C2 C 0.2250(3) 0.49296(10) 1.12499(13)
H1 H 0.2357 0.4532 1.1691
C3 C 0.1939(3) 0.56034(11) 1.16277(14)
H2 H 0.1825 0.5673 1.2333
C4 C 0.1797(3) 0.61701(10) 1.09755(15)
H3 H 0.1598 0.6638 1.1221
C5 C 0.1949(3) 0.60443(10) 0.99539(15)
H4 H 0.1849 0.6436 0.9502
N2 N 0.33799(18) 0.34241(7) 0.85747(10)
N3 N 0.30938(18) 0.41174(7) 0.87663(10)
C6 C 0.2771(2) 0.41505(9) 0.97557(12)
C7 C 0.2866(3) 0.34724(9) 1.01930(13)
H5 H 0.2689 0.3351 1.0879
C8 C 0.3267(2) 0.30216(9) 0.94199(13)
H6 H 0.3434 0.2521 0.9467
C9 C 0.4027(2) 0.32041(9) 0.75943(12)
H7 H 0.4031 0.2678 0.7560
H8 H 0.5265 0.3369 0.7537
C10 C 0.2933(2) 0.34915(8) 0.67106(11)
C11 C 0.3673(2) 0.39785(9) 0.60802(13)
H9 H 0.4843 0.4143 0.6225
C12 C 0.2738(2) 0.42404(9) 0.52225(13)
H10 H 0.3276 0.4575 0.4791
C13 C 0.1043(2) 0.40091(9) 0.50147(12)
C14 C 0.0195(2) 0.35123(9) 0.56550(12)
C15 C 0.1169(2) 0.32448(8) 0.65107(11)
C16 C 0.0097(2) 0.42760(9) 0.41290(13)
N4 N 0.0666(2) 0.55052(9) 0.65605(11)
C17 C -0.1562(2) 0.32744(10) 0.54567(13)
H11 H -0.2220 0.3453 0.4888
C18 C -0.2312(2) 0.27888(10) 0.60801(14)
H12 H -0.3495 0.2636 0.5945
C19 C -0.1355(2) 0.25122(9) 0.69199(13)
H13 H -0.1889 0.2171 0.7343
C20 C 0.0343(2) 0.27332(9) 0.71287(12)
H14 H 0.0980 0.2541 0.7696
B1 B 0.5233(3) 0.62307(10) 0.70025(15)
F1 F 0.44553(18) 0.66495(7) 0.62536(10)
F2 F 0.51072(17) 0.55131(6) 0.67529(9)
F3 F 0.43842(15) 0.63419(7) 0.79024(9)
F4 F 0.70035(14) 0.64230(6) 0.71229(8)
Ag1B Ag -0.218344(18) 0.488900(7) 0.213805(9)
N1B N -0.2232(2) 0.46033(8) 0.04291(11)
C1B C -0.2402(2) 0.51550(9) -0.02116(12)
C2B C -0.2250(3) 0.50704(10) -0.12499(13)
H1B H -0.2357 0.5468 -0.1691
C3B C -0.1939(3) 0.43966(11) -0.16277(14)
H2B H -0.1825 0.4327 -0.2333
C4B C -0.1797(3) 0.38299(10) -0.09755(15)
H3B H -0.1598 0.3362 -0.1221
C5B C -0.1949(3) 0.39557(10) 0.00461(15)
H4B H -0.1849 0.3564 0.0498
N2B N -0.33799(18) 0.65759(7) 0.14253(10)
N3B N -0.30938(18) 0.58826(7) 0.12337(10)
C6B C -0.2771(2) 0.58495(9) 0.02443(12)
C7B C -0.2866(3) 0.65276(9) -0.01930(13)
H5B H -0.2689 0.6649 -0.0879
C8B C -0.3267(2) 0.69784(9) 0.05801(13)
H6B H -0.3434 0.7479 0.0533
C9B C -0.4027(2) 0.67959(9) 0.24057(12)
H7B H -0.4031 0.7322 0.2440
H8B H -0.5265 0.6631 0.2463
C10B C -0.2933(2) 0.65085(8) 0.32894(11)
C11B C -0.3673(2) 0.60215(9) 0.39198(13)
H9B H -0.4843 0.5857 0.3775
C12B C -0.2738(2) 0.57596(9) 0.47775(13)
H10B H -0.3276 0.5425 0.5209
C13B C -0.1043(2) 0.59909(9) 0.49853(12)
C14B C -0.0195(2) 0.64877(9) 0.43450(12)
C15B C -0.1169(2) 0.67552(8) 0.34893(11)
C16B C -0.0097(2) 0.57240(9) 0.58710(13)
N4B N -0.0666(2) 0.44948(9) 0.34395(11)
C17B C 0.1562(2) 0.67256(10) 0.45433(13)
H11B H 0.2220 0.6547 0.5112
C18B C 0.2312(2) 0.72112(10) 0.39199(14)
H12B H 0.3495 0.7364 0.4055
C19B C 0.1355(2) 0.74878(9) 0.30801(13)
H13B H 0.1889 0.7829 0.2657
C20B C -0.0343(2) 0.72668(9) 0.28713(12)
H14B H -0.0980 0.7459 0.2304
B1B B -0.5233(3) 0.37693(10) 0.29975(15)
F1B F -0.44553(18) 0.33505(7) 0.37464(10)
F2B F -0.51072(17) 0.44869(6) 0.32471(9)
F3B F -0.43842(15) 0.36581(7) 0.20976(9)
F4B F -0.70035(14) 0.35770(6) 0.28771(8)
loop_
_geom_bond_atom_site_label_1
_geom_bond_atom_site_label_2
_geom_bond_site_symmetry_1
_geom_bond_site_symmetry_2
Ag1 N1 1_555 1_555
N1 C1 1_555 1_555
C1 C2 1_555 1_555
C2 H1 1_555 1_555
C3 C2 1_555 1_555
H2 C3 1_555 1_555
C4 C3 1_555 1_555
H3 C4 1_555 1_555
C5 N1 1_555 1_555
H4 C5 1_555 1_555
N2 N3 1_555 1_555
N3 Ag1 1_555 1_555
C6 C1 1_555 1_555
C7 C6 1_555 1_555
H5 C7 1_555 1_555
C8 N2 1_555 1_555
H6 C8 1_555 1_555
C9 N2 1_555 1_555
H7 C9 1_555 1_555
H8 C9 1_555 1_555
C10 C9 1_555 1_555
C11 C10 1_555 1_555
H9 C11 1_555 1_555
C12 C11 1_555 1_555
H10 C12 1_555 1_555
C13 C12 1_555 1_555
C14 C13 1_555 1_555
C15 C10 1_555 1_555
C16 C13 1_555 1_555
N4 Ag1 1_555 1_555
C17 C14 1_555 1_555
H11 C17 1_555 1_555
C18 C17 1_555 1_555
H12 C18 1_555 1_555
C19 C18 1_555 1_555
H13 C19 1_555 1_555
C20 C15 1_555 1_555
H14 C20 1_555 1_555
B1 F1 1_555 1_555
F2 Ag1 1_555 1_555
F3 Ag1 1_555 1_555
F4 B1 1_555 1_555
Ag1B N1B 1_555 1_555
N1B C1B 1_555 1_555
C1B C2B 1_555 1_555
C2B H1B 1_555 1_555
C3B C2B 1_555 1_555
H2B C3B 1_555 1_555
C4B C3B 1_555 1_555
H3B C4B 1_555 1_555
C5B N1B 1_555 1_555
H4B C5B 1_555 1_555
N2B N3B 1_555 1_555
N3B Ag1B 1_555 1_555
C6B C1B 1_555 1_555
C7B C6B 1_555 1_555
H5B C7B 1_555 1_555
C8B N2B 1_555 1_555
H6B C8B 1_555 1_555
C9B N2B 1_555 1_555
H7B C9B 1_555 1_555
H8B C9B 1_555 1_555
C10B C9B 1_555 1_555
C11B C10B 1_555 1_555
H9B C11B 1_555 1_555
C12B C11B 1_555 1_555
H10B C12B 1_555 1_555
C13B C12B 1_555 1_555
C14B C13B 1_555 1_555
C15B C10B 1_555 1_555
C16B N4 1_555 1_555
N4B C16 1_555 1_555
C17B C14B 1_555 1_555
H11B C17B 1_555 1_555
C18B C17B 1_555 1_555
H12B C18B 1_555 1_555
C19B C18B 1_555 1_555
H13B C19B 1_555 1_555
C20B C15B 1_555 1_555
H14B C20B 1_555 1_555
B1B F1B 1_555 1_555
F2B Ag1B 1_555 1_555
F3B Ag1B 1_555 1_555
F4B B1B 1_555 1_555
C4 C5 1_555 1_555
N3 C6 1_555 1_555
C7 C8 1_555 1_555
C14 C15 1_555 1_555
C19 C20 1_555 1_555
B1 F2 1_555 1_555
B1 F3 1_555 1_555
Ag1B N4B 1_555 1_555
C4B C5B 1_555 1_555
N3B C6B 1_555 1_555
C7B C8B 1_555 1_555
C13B C16B 1_555 1_555
C14B C15B 1_555 1_555
C19B C20B 1_555 1_555
B1B F2B 1_555 1_555
B1B F3B 1_555 1_555

#END
