# generated using pymatgen
data_Cu8B11H222C266N74(O8F35)2
_symmetry_space_group_name_H-M   'P 1'
_cell_length_a   22.19630000
_cell_length_b   22.19630000
_cell_length_c   40.28900000
_cell_angle_alpha   90.00000000
_cell_angle_beta   90.00000000
_cell_angle_gamma   90.00000000
_symmetry_Int_Tables_number   1
_chemical_formula_structural   Cu8B11H222C266N74(O8F35)2
_chemical_formula_sum   'Cu16 B22 H444 C532 N148 O32 F140'
_cell_volume   19849.41263464
_cell_formula_units_Z   2
loop_
 _symmetry_equiv_pos_site_id
 _symmetry_equiv_pos_as_xyz
  1  'x, y, z'
loop_
 _atom_site_type_symbol
 _atom_site_label
 _atom_site_symmetry_multiplicity
 _atom_site_fract_x
 _atom_site_fract_y
 _atom_site_fract_z
 _atom_site_occupancy
  Cu  Cu1  1  0.687540  0.716950  0.114640  1.0
  Cu  Cu2  1  0.312460  0.283050  0.114640  1.0
  Cu  Cu3  1  0.716950  0.312460  0.885360  1.0
  Cu  Cu4  1  0.283050  0.687540  0.885360  1.0
  Cu  Cu5  1  0.738130  0.285270  0.142125  1.0
  Cu  Cu6  1  0.261870  0.714730  0.142125  1.0
  Cu  Cu7  1  0.285270  0.261870  0.857875  1.0
  Cu  Cu8  1  0.714730  0.738130  0.857875  1.0
  Cu  Cu9  1  0.768960  0.410320  0.383022  1.0
  Cu  Cu10  1  0.231040  0.589680  0.383022  1.0
  Cu  Cu11  1  0.410320  0.231040  0.616978  1.0
  Cu  Cu12  1  0.589680  0.768960  0.616978  1.0
  Cu  Cu13  1  0.588830  0.797180  0.357090  1.0
  Cu  Cu14  1  0.411170  0.202820  0.357090  1.0
  Cu  Cu15  1  0.797180  0.411170  0.642910  1.0
  Cu  Cu16  1  0.202820  0.588830  0.642910  1.0
  B  B17  1  0.772500  0.578800  0.248500  1
  B  B18  1  0.227500  0.421200  0.248500  1
  B  B19  1  0.578800  0.227500  0.751500  1
  B  B20  1  0.421200  0.772500  0.751500  1
  B  B21  1  0.569400  0.238100  0.248200  1
  B  B22  1  0.430600  0.761900  0.248200  1
  B  B23  1  0.238100  0.430600  0.751800  1
  B  B24  1  0.761900  0.569400  0.751800  1
  B  B25  1  0.673900  0.253200  0.485800  1
  B  B26  1  0.326100  0.746800  0.485800  1
  B  B27  1  0.253200  0.326100  0.514200  1
  B  B28  1  0.746800  0.673900  0.514200  1
  B  B29  1  0.525200  0.804600  0.014400  1
  B  B30  1  0.474800  0.195400  0.014400  1
  B  B31  1  0.804600  0.474800  0.985600  1
  B  B32  1  0.195400  0.525200  0.985600  1
  B  B33  1  0.500000  0.500000  0.500000  1
  B  B34  1  0.500000  0.500000  0.000000  1
  B  B35  1  0.500000  0.500000  0.252400  1
  B  B36  1  0.500000  0.500000  0.747600  1
  B  B37  1  0.500000  0.500000  0.245300  1
  B  B38  1  0.500000  0.500000  0.754700  1
  H  H39  1  0.915300  0.378500  0.998700  1
  H  H40  1  0.084700  0.621500  0.998700  1
  H  H41  1  0.378500  0.084700  0.001300  1
  H  H42  1  0.621500  0.915300  0.001300  1
  H  H43  1  0.942900  0.320400  0.016700  1
  H  H44  1  0.057100  0.679600  0.016700  1
  H  H45  1  0.320400  0.057100  0.983300  1
  H  H46  1  0.679600  0.942900  0.983300  1
  H  H47  1  0.972000  0.385400  0.023000  1
  H  H48  1  0.028000  0.614600  0.023000  1
  H  H49  1  0.385400  0.028000  0.977000  1
  H  H50  1  0.614600  0.972000  0.977000  1
  H  H51  1  0.634900  0.846700  0.101400  1.0
  H  H52  1  0.365100  0.153300  0.101400  1.0
  H  H53  1  0.846700  0.365100  0.898600  1.0
  H  H54  1  0.153300  0.634900  0.898600  1.0
  H  H55  1  0.559900  0.906100  0.125900  1.0
  H  H56  1  0.440100  0.093900  0.125900  1.0
  H  H57  1  0.906100  0.440100  0.874100  1.0
  H  H58  1  0.093900  0.559900  0.874100  1.0
  H  H59  1  0.504700  0.868900  0.170900  1.0
  H  H60  1  0.495300  0.131100  0.170900  1.0
  H  H61  1  0.868900  0.495300  0.829100  1.0
  H  H62  1  0.131100  0.504700  0.829100  1.0
  H  H63  1  0.524600  0.772300  0.191500  1.0
  H  H64  1  0.475400  0.227700  0.191500  1.0
  H  H65  1  0.772300  0.475400  0.808500  1.0
  H  H66  1  0.227700  0.524600  0.808500  1.0
  H  H67  1  0.551600  0.665400  0.209000  1.0
  H  H68  1  0.448400  0.334600  0.209000  1.0
  H  H69  1  0.665400  0.448400  0.791000  1.0
  H  H70  1  0.334600  0.551600  0.791000  1.0
  H  H71  1  0.616700  0.571400  0.209200  1.0
  H  H72  1  0.383300  0.428600  0.209200  1.0
  H  H73  1  0.571400  0.383300  0.790800  1.0
  H  H74  1  0.428600  0.616700  0.790800  1.0
  H  H75  1  0.720100  0.545500  0.180200  1.0
  H  H76  1  0.279900  0.454500  0.180200  1.0
  H  H77  1  0.545500  0.279900  0.819800  1.0
  H  H78  1  0.454500  0.720100  0.819800  1.0
  H  H79  1  0.746500  0.593100  0.154100  1.0
  H  H80  1  0.253500  0.406900  0.154100  1.0
  H  H81  1  0.593100  0.253500  0.845900  1.0
  H  H82  1  0.406900  0.746500  0.845900  1.0
  H  H83  1  0.674000  0.176600  0.173900  1.0
  H  H84  1  0.326000  0.823400  0.173900  1.0
  H  H85  1  0.176600  0.326000  0.826100  1.0
  H  H86  1  0.823400  0.674000  0.826100  1.0
  H  H87  1  0.605900  0.102900  0.156200  1.0
  H  H88  1  0.394100  0.897100  0.156200  1.0
  H  H89  1  0.102900  0.394100  0.843800  1.0
  H  H90  1  0.897100  0.605900  0.843800  1.0
  H  H91  1  0.561200  0.110400  0.103700  1.0
  H  H92  1  0.438800  0.889600  0.103700  1.0
  H  H93  1  0.110400  0.438800  0.896300  1.0
  H  H94  1  0.889600  0.561200  0.896300  1.0
  H  H95  1  0.584600  0.191700  0.069100  1.0
  H  H96  1  0.415400  0.808300  0.069100  1.0
  H  H97  1  0.191700  0.415400  0.930900  1.0
  H  H98  1  0.808300  0.584600  0.930900  1.0
  H  H99  1  0.618900  0.277600  0.033700  1.0
  H  H100  1  0.381100  0.722400  0.033700  1.0
  H  H101  1  0.277600  0.381100  0.966300  1.0
  H  H102  1  0.722400  0.618900  0.966300  1.0
  H  H103  1  0.677700  0.372900  0.021200  1.0
  H  H104  1  0.322300  0.627100  0.021200  1.0
  H  H105  1  0.372900  0.322300  0.978800  1.0
  H  H106  1  0.627100  0.677700  0.978800  1.0
  H  H107  1  0.763200  0.437300  0.057300  1.0
  H  H108  1  0.236800  0.562700  0.057300  1.0
  H  H109  1  0.437300  0.236800  0.942700  1.0
  H  H110  1  0.562700  0.763200  0.942700  1.0
  H  H111  1  0.780100  0.409600  0.092900  1.0
  H  H112  1  0.219900  0.590400  0.092900  1.0
  H  H113  1  0.409600  0.219900  0.907100  1.0
  H  H114  1  0.590400  0.780100  0.907100  1.0
  H  H115  1  0.599600  0.549800  0.118100  1.0
  H  H116  1  0.400400  0.450200  0.118100  1.0
  H  H117  1  0.549800  0.400400  0.881900  1.0
  H  H118  1  0.450200  0.599600  0.881900  1.0
  H  H119  1  0.618900  0.471400  0.073500  1.0
  H  H120  1  0.381100  0.528600  0.073500  1.0
  H  H121  1  0.471400  0.381100  0.926500  1.0
  H  H122  1  0.528600  0.618900  0.926500  1.0
  H  H123  1  0.817100  0.677000  0.124100  1.0
  H  H124  1  0.182900  0.323000  0.124100  1.0
  H  H125  1  0.677000  0.182900  0.875900  1.0
  H  H126  1  0.323000  0.817100  0.875900  1.0
  H  H127  1  0.882400  0.606200  0.100500  1.0
  H  H128  1  0.117600  0.393800  0.100500  1.0
  H  H129  1  0.606200  0.117600  0.899500  1.0
  H  H130  1  0.393800  0.882400  0.899500  1.0
  H  H131  1  0.848500  0.543400  0.057800  1.0
  H  H132  1  0.151500  0.456600  0.057800  1.0
  H  H133  1  0.543400  0.151500  0.942200  1.0
  H  H134  1  0.456600  0.848500  0.942200  1.0
  H  H135  1  0.749300  0.551300  0.038700  1.0
  H  H136  1  0.250700  0.448700  0.038700  1.0
  H  H137  1  0.551300  0.250700  0.961300  1.0
  H  H138  1  0.448700  0.749300  0.961300  1.0
  H  H139  1  0.646800  0.568700  0.019200  1.0
  H  H140  1  0.353200  0.431300  0.019200  1.0
  H  H141  1  0.568700  0.353200  0.980800  1.0
  H  H142  1  0.431300  0.646800  0.980800  1.0
  H  H143  1  0.540100  0.609300  0.022200  1.0
  H  H144  1  0.459900  0.390700  0.022200  1.0
  H  H145  1  0.609300  0.459900  0.977800  1.0
  H  H146  1  0.390700  0.540100  0.977800  1.0
  H  H147  1  0.492900  0.702000  0.059700  1.0
  H  H148  1  0.507100  0.298000  0.059700  1.0
  H  H149  1  0.702000  0.507100  0.940300  1.0
  H  H150  1  0.298000  0.492900  0.940300  1.0
  H  H151  1  0.537500  0.730000  0.086800  1.0
  H  H152  1  0.462500  0.270000  0.086800  1.0
  H  H153  1  0.730000  0.462500  0.913200  1.0
  H  H154  1  0.270000  0.537500  0.913200  1.0
  H  H155  1  0.872700  0.306600  0.121200  1.0
  H  H156  1  0.127300  0.693400  0.121200  1.0
  H  H157  1  0.306600  0.127300  0.878800  1.0
  H  H158  1  0.693400  0.872700  0.878800  1.0
  H  H159  1  0.947000  0.377300  0.134700  1.0
  H  H160  1  0.053000  0.622700  0.134700  1.0
  H  H161  1  0.377300  0.053000  0.865300  1.0
  H  H162  1  0.622700  0.947000  0.865300  1.0
  H  H163  1  0.925200  0.455500  0.171700  1.0
  H  H164  1  0.074800  0.544500  0.171700  1.0
  H  H165  1  0.455500  0.074800  0.828300  1.0
  H  H166  1  0.544500  0.925200  0.828300  1.0
  H  H167  1  0.829100  0.463100  0.195300  1.0
  H  H168  1  0.170900  0.536900  0.195300  1.0
  H  H169  1  0.463100  0.170900  0.804700  1.0
  H  H170  1  0.536900  0.829100  0.804700  1.0
  H  H171  1  0.723500  0.459200  0.219700  1.0
  H  H172  1  0.276500  0.540800  0.219700  1.0
  H  H173  1  0.459200  0.276500  0.780300  1.0
  H  H174  1  0.540800  0.723500  0.780300  1.0
  H  H175  1  0.615600  0.422300  0.223600  1.0
  H  H176  1  0.384400  0.577700  0.223600  1.0
  H  H177  1  0.422300  0.384400  0.776400  1.0
  H  H178  1  0.577700  0.615600  0.776400  1.0
  H  H179  1  0.559700  0.328600  0.198400  1.0
  H  H180  1  0.440300  0.671400  0.198400  1.0
  H  H181  1  0.328600  0.440300  0.801600  1.0
  H  H182  1  0.671400  0.559700  0.801600  1.0
  H  H183  1  0.597600  0.283800  0.175400  1.0
  H  H184  1  0.402400  0.716200  0.175400  1.0
  H  H185  1  0.283800  0.402400  0.824600  1.0
  H  H186  1  0.716200  0.597600  0.824600  1.0
  H  H187  1  0.497000  0.562200  0.096000  1.0
  H  H188  1  0.503000  0.437800  0.096000  1.0
  H  H189  1  0.562200  0.503000  0.904000  1.0
  H  H190  1  0.437800  0.497000  0.904000  1.0
  H  H191  1  0.438900  0.554800  0.150000  1.0
  H  H192  1  0.561100  0.445200  0.150000  1.0
  H  H193  1  0.554800  0.561100  0.850000  1.0
  H  H194  1  0.445200  0.438900  0.850000  1.0
  H  H195  1  0.665600  0.753000  0.042400  1.0
  H  H196  1  0.334400  0.247000  0.042400  1.0
  H  H197  1  0.753000  0.334400  0.957600  1.0
  H  H198  1  0.247000  0.665600  0.957600  1.0
  H  H199  1  0.708100  0.818100  0.003100  1.0
  H  H200  1  0.291900  0.181900  0.003100  1.0
  H  H201  1  0.818100  0.291900  0.996900  1.0
  H  H202  1  0.181900  0.708100  0.996900  1.0
  H  H203  1  0.787400  0.881900  0.018300  1.0
  H  H204  1  0.212600  0.118100  0.018300  1.0
  H  H205  1  0.881900  0.212600  0.981700  1.0
  H  H206  1  0.118100  0.787400  0.981700  1.0
  H  H207  1  0.824100  0.880700  0.072800  1.0
  H  H208  1  0.175900  0.119300  0.072800  1.0
  H  H209  1  0.880700  0.175900  0.927200  1.0
  H  H210  1  0.119300  0.824100  0.927200  1.0
  H  H211  1  0.852400  0.879800  0.129600  1.0
  H  H212  1  0.147600  0.120200  0.129600  1.0
  H  H213  1  0.879800  0.147600  0.870400  1.0
  H  H214  1  0.120200  0.852400  0.870400  1.0
  H  H215  1  0.856400  0.841600  0.188900  1.0
  H  H216  1  0.143600  0.158400  0.188900  1.0
  H  H217  1  0.841600  0.143600  0.811100  1.0
  H  H218  1  0.158400  0.856400  0.811100  1.0
  H  H219  1  0.806500  0.731700  0.213900  1.0
  H  H220  1  0.193500  0.268300  0.213900  1.0
  H  H221  1  0.731700  0.193500  0.786100  1.0
  H  H222  1  0.268300  0.806500  0.786100  1.0
  H  H223  1  0.743900  0.715300  0.196400  1.0
  H  H224  1  0.256100  0.284700  0.196400  1.0
  H  H225  1  0.715300  0.256100  0.803600  1.0
  H  H226  1  0.284700  0.743900  0.803600  1.0
  H  H227  1  0.620100  0.851000  0.427500  1.0
  H  H228  1  0.379900  0.149000  0.427500  1.0
  H  H229  1  0.851000  0.379900  0.572500  1.0
  H  H230  1  0.149000  0.620100  0.572500  1.0
  H  H231  1  0.610400  0.944500  0.453800  1.0
  H  H232  1  0.389600  0.055500  0.453800  1.0
  H  H233  1  0.944500  0.389600  0.546200  1.0
  H  H234  1  0.055500  0.610400  0.546200  1.0
  H  H235  1  0.584700  0.029900  0.422800  1.0
  H  H236  1  0.415300  0.970100  0.422800  1.0
  H  H237  1  0.029900  0.415300  0.577200  1.0
  H  H238  1  0.970100  0.584700  0.577200  1.0
  H  H239  1  0.568600  0.021700  0.365500  1.0
  H  H240  1  0.431400  0.978300  0.365500  1.0
  H  H241  1  0.021700  0.431400  0.634500  1.0
  H  H242  1  0.978300  0.568600  0.634500  1.0
  H  H243  1  0.562400  0.009900  0.306400  1.0
  H  H244  1  0.437600  0.990100  0.306400  1.0
  H  H245  1  0.009900  0.437600  0.693600  1.0
  H  H246  1  0.990100  0.562400  0.693600  1.0
  H  H247  1  0.559900  0.953400  0.251700  1.0
  H  H248  1  0.440100  0.046600  0.251700  1.0
  H  H249  1  0.953400  0.440100  0.748300  1.0
  H  H250  1  0.046600  0.559900  0.748300  1.0
  H  H251  1  0.572300  0.838400  0.235100  1.0
  H  H252  1  0.427700  0.161600  0.235100  1.0
  H  H253  1  0.838400  0.427700  0.764900  1.0
  H  H254  1  0.161600  0.572300  0.764900  1.0
  H  H255  1  0.575400  0.790000  0.264600  1.0
  H  H256  1  0.424600  0.210000  0.264600  1.0
  H  H257  1  0.790000  0.424600  0.735400  1.0
  H  H258  1  0.210000  0.575400  0.735400  1.0
  H  H259  1  0.797400  0.842400  0.255600  1.0
  H  H260  1  0.202600  0.157600  0.255600  1.0
  H  H261  1  0.842400  0.202600  0.744400  1.0
  H  H262  1  0.157600  0.797400  0.744400  1.0
  H  H263  1  0.704500  0.883900  0.284200  1.0
  H  H264  1  0.295500  0.116100  0.284200  1.0
  H  H265  1  0.883900  0.295500  0.715800  1.0
  H  H266  1  0.116100  0.704500  0.715800  1.0
  H  H267  1  0.783700  0.257800  0.070800  1.0
  H  H268  1  0.216300  0.742200  0.070800  1.0
  H  H269  1  0.257800  0.216300  0.929200  1.0
  H  H270  1  0.742200  0.783700  0.929200  1.0
  H  H271  1  0.839000  0.182500  0.043900  1.0
  H  H272  1  0.161000  0.817500  0.043900  1.0
  H  H273  1  0.182500  0.161000  0.956100  1.0
  H  H274  1  0.817500  0.839000  0.956100  1.0
  H  H275  1  0.880000  0.102800  0.074400  1.0
  H  H276  1  0.120000  0.897200  0.074400  1.0
  H  H277  1  0.102800  0.120000  0.925600  1.0
  H  H278  1  0.897200  0.880000  0.925600  1.0
  H  H279  1  0.865700  0.098400  0.131900  1.0
  H  H280  1  0.134300  0.901600  0.131900  1.0
  H  H281  1  0.098400  0.134300  0.868100  1.0
  H  H282  1  0.901600  0.865700  0.868100  1.0
  H  H283  1  0.843900  0.096600  0.190200  1.0
  H  H284  1  0.156100  0.903400  0.190200  1.0
  H  H285  1  0.096600  0.156100  0.809800  1.0
  H  H286  1  0.903400  0.843900  0.809800  1.0
  H  H287  1  0.810900  0.139200  0.245700  1.0
  H  H288  1  0.189100  0.860800  0.245700  1.0
  H  H289  1  0.139200  0.189100  0.754300  1.0
  H  H290  1  0.860800  0.810900  0.754300  1.0
  H  H291  1  0.745700  0.239900  0.262500  1.0
  H  H292  1  0.254300  0.760100  0.262500  1.0
  H  H293  1  0.239900  0.254300  0.737500  1.0
  H  H294  1  0.760100  0.745700  0.737500  1.0
  H  H295  1  0.723400  0.280900  0.232000  1.0
  H  H296  1  0.276600  0.719100  0.232000  1.0
  H  H297  1  0.280900  0.276600  0.768000  1.0
  H  H298  1  0.719100  0.723400  0.768000  1.0
  H  H299  1  0.770400  0.361100  0.454900  1.0
  H  H300  1  0.229600  0.638900  0.454900  1.0
  H  H301  1  0.361100  0.229600  0.545100  1.0
  H  H302  1  0.638900  0.770400  0.545100  1.0
  H  H303  1  0.843700  0.332200  0.493500  1.0
  H  H304  1  0.156300  0.667800  0.493500  1.0
  H  H305  1  0.332200  0.156300  0.506500  1.0
  H  H306  1  0.667800  0.843700  0.506500  1.0
  H  H307  1  0.945500  0.331300  0.478400  1.0
  H  H308  1  0.054500  0.668700  0.478400  1.0
  H  H309  1  0.331300  0.054500  0.521600  1.0
  H  H310  1  0.668700  0.945500  0.521600  1.0
  H  H311  1  0.974000  0.359100  0.424600  1.0
  H  H312  1  0.026000  0.640900  0.424600  1.0
  H  H313  1  0.359100  0.026000  0.575400  1.0
  H  H314  1  0.640900  0.974000  0.575400  1.0
  H  H315  1  0.998800  0.404800  0.372600  1.0
  H  H316  1  0.001200  0.595200  0.372600  1.0
  H  H317  1  0.404800  0.001200  0.627400  1.0
  H  H318  1  0.595200  0.998800  0.627400  1.0
  H  H319  1  0.978800  0.438800  0.313500  1.0
  H  H320  1  0.021200  0.561200  0.313500  1.0
  H  H321  1  0.438800  0.021200  0.686500  1.0
  H  H322  1  0.561200  0.978800  0.686500  1.0
  H  H323  1  0.871600  0.467000  0.281600  1.0
  H  H324  1  0.128400  0.533000  0.281600  1.0
  H  H325  1  0.467000  0.128400  0.718400  1.0
  H  H326  1  0.533000  0.871600  0.718400  1.0
  H  H327  1  0.811700  0.443400  0.299300  1.0
  H  H328  1  0.188300  0.556600  0.299300  1.0
  H  H329  1  0.443400  0.188300  0.700700  1.0
  H  H330  1  0.556600  0.811700  0.700700  1.0
  H  H331  1  0.884000  0.282200  0.215700  1.0
  H  H332  1  0.116000  0.717800  0.215700  1.0
  H  H333  1  0.282200  0.116000  0.784300  1.0
  H  H334  1  0.717800  0.884000  0.784300  1.0
  H  H335  1  0.932200  0.373400  0.242900  1.0
  H  H336  1  0.067800  0.626600  0.242900  1.0
  H  H337  1  0.373400  0.067800  0.757100  1.0
  H  H338  1  0.626600  0.932200  0.757100  1.0
  H  H339  1  0.789500  0.274100  0.400700  1.0
  H  H340  1  0.210500  0.725900  0.400700  1.0
  H  H341  1  0.274100  0.210500  0.599300  1.0
  H  H342  1  0.725900  0.789500  0.599300  1.0
  H  H343  1  0.766600  0.182200  0.375200  1.0
  H  H344  1  0.233400  0.817800  0.375200  1.0
  H  H345  1  0.182200  0.233400  0.624800  1.0
  H  H346  1  0.817800  0.766600  0.624800  1.0
  H  H347  1  0.708400  0.180400  0.326800  1.0
  H  H348  1  0.291600  0.819600  0.326800  1.0
  H  H349  1  0.180400  0.291600  0.673200  1.0
  H  H350  1  0.819600  0.708400  0.673200  1.0
  H  H351  1  0.673200  0.270600  0.303800  1.0
  H  H352  1  0.326800  0.729400  0.303800  1.0
  H  H353  1  0.270600  0.326800  0.696200  1.0
  H  H354  1  0.729400  0.673200  0.696200  1.0
  H  H355  1  0.637400  0.375500  0.285100  1.0
  H  H356  1  0.362600  0.624500  0.285100  1.0
  H  H357  1  0.375500  0.362600  0.714900  1.0
  H  H358  1  0.624500  0.637400  0.714900  1.0
  H  H359  1  0.639800  0.489800  0.283800  1.0
  H  H360  1  0.360200  0.510200  0.283800  1.0
  H  H361  1  0.489800  0.360200  0.716200  1.0
  H  H362  1  0.510200  0.639800  0.716200  1.0
  H  H363  1  0.709200  0.571900  0.316300  1.0
  H  H364  1  0.290800  0.428100  0.316300  1.0
  H  H365  1  0.571900  0.290800  0.683700  1.0
  H  H366  1  0.428100  0.709200  0.683700  1.0
  H  H367  1  0.759200  0.543600  0.340500  1.0
  H  H368  1  0.240800  0.456400  0.340500  1.0
  H  H369  1  0.543600  0.240800  0.659500  1.0
  H  H370  1  0.456400  0.759200  0.659500  1.0
  H  H371  1  0.471100  0.845800  0.327000  1.0
  H  H372  1  0.528900  0.154200  0.327000  1.0
  H  H373  1  0.845800  0.528900  0.673000  1.0
  H  H374  1  0.154200  0.471100  0.673000  1.0
  H  H375  1  0.376900  0.874200  0.347800  1.0
  H  H376  1  0.623100  0.125800  0.347800  1.0
  H  H377  1  0.874200  0.623100  0.652200  1.0
  H  H378  1  0.125800  0.376900  0.652200  1.0
  H  H379  1  0.351000  0.851400  0.402700  1.0
  H  H380  1  0.649000  0.148600  0.402700  1.0
  H  H381  1  0.851400  0.649000  0.597300  1.0
  H  H382  1  0.148600  0.351000  0.597300  1.0
  H  H383  1  0.419200  0.800000  0.436800  1.0
  H  H384  1  0.580800  0.200000  0.436800  1.0
  H  H385  1  0.800000  0.580800  0.563200  1.0
  H  H386  1  0.200000  0.419200  0.563200  1.0
  H  H387  1  0.499200  0.749400  0.470600  1.0
  H  H388  1  0.500800  0.250600  0.470600  1.0
  H  H389  1  0.749400  0.500800  0.529400  1.0
  H  H390  1  0.250600  0.499200  0.529400  1.0
  H  H391  1  0.602300  0.703300  0.480400  1.0
  H  H392  1  0.397700  0.296700  0.480400  1.0
  H  H393  1  0.703300  0.397700  0.519600  1.0
  H  H394  1  0.296700  0.602300  0.519600  1.0
  H  H395  1  0.697400  0.683300  0.440000  1.0
  H  H396  1  0.302600  0.316700  0.440000  1.0
  H  H397  1  0.683300  0.302600  0.560000  1.0
  H  H398  1  0.316700  0.697400  0.560000  1.0
  H  H399  1  0.695500  0.717500  0.405000  1.0
  H  H400  1  0.304500  0.282500  0.405000  1.0
  H  H401  1  0.717500  0.304500  0.595000  1.0
  H  H402  1  0.282500  0.695500  0.595000  1.0
  H  H403  1  0.612000  0.504300  0.379800  1.0
  H  H404  1  0.388000  0.495700  0.379800  1.0
  H  H405  1  0.504300  0.388000  0.620200  1.0
  H  H406  1  0.495700  0.612000  0.620200  1.0
  H  H407  1  0.588100  0.582500  0.423800  1.0
  H  H408  1  0.411900  0.417500  0.423800  1.0
  H  H409  1  0.582500  0.411900  0.576200  1.0
  H  H410  1  0.417500  0.588100  0.576200  1.0
  H  H411  1  0.856200  0.515700  0.368500  1.0
  H  H412  1  0.143800  0.484300  0.368500  1.0
  H  H413  1  0.515700  0.143800  0.631500  1.0
  H  H414  1  0.484300  0.856200  0.631500  1.0
  H  H415  1  0.880600  0.607300  0.393900  1.0
  H  H416  1  0.119400  0.392700  0.393900  1.0
  H  H417  1  0.607300  0.119400  0.606100  1.0
  H  H418  1  0.392700  0.880600  0.606100  1.0
  H  H419  1  0.827300  0.639400  0.440800  1.0
  H  H420  1  0.172700  0.360600  0.440800  1.0
  H  H421  1  0.639400  0.172700  0.559200  1.0
  H  H422  1  0.360600  0.827300  0.559200  1.0
  H  H423  1  0.749500  0.579900  0.462300  1.0
  H  H424  1  0.250500  0.420100  0.462300  1.0
  H  H425  1  0.579900  0.250500  0.537700  1.0
  H  H426  1  0.420100  0.749500  0.537700  1.0
  H  H427  1  0.667300  0.515600  0.481100  1.0
  H  H428  1  0.332700  0.484400  0.481100  1.0
  H  H429  1  0.515600  0.332700  0.518900  1.0
  H  H430  1  0.484400  0.667300  0.518900  1.0
  H  H431  1  0.594500  0.427700  0.478100  1.0
  H  H432  1  0.405500  0.572300  0.478100  1.0
  H  H433  1  0.427700  0.405500  0.521900  1.0
  H  H434  1  0.572300  0.594500  0.521900  1.0
  H  H435  1  0.594900  0.325900  0.439900  1.0
  H  H436  1  0.405100  0.674100  0.439900  1.0
  H  H437  1  0.325900  0.405100  0.560100  1.0
  H  H438  1  0.674100  0.594900  0.560100  1.0
  H  H439  1  0.647500  0.321500  0.412800  1.0
  H  H440  1  0.352500  0.678500  0.412800  1.0
  H  H441  1  0.321500  0.352500  0.587200  1.0
  H  H442  1  0.678500  0.647500  0.587200  1.0
  H  H443  1  0.712100  0.856400  0.375500  1.0
  H  H444  1  0.287900  0.143600  0.375500  1.0
  H  H445  1  0.856400  0.287900  0.624500  1.0
  H  H446  1  0.143600  0.712100  0.624500  1.0
  H  H447  1  0.812200  0.840300  0.359500  1.0
  H  H448  1  0.187800  0.159700  0.359500  1.0
  H  H449  1  0.840300  0.187800  0.640500  1.0
  H  H450  1  0.159700  0.812200  0.640500  1.0
  H  H451  1  0.835800  0.762600  0.322500  1.0
  H  H452  1  0.164200  0.237400  0.322500  1.0
  H  H453  1  0.762600  0.164200  0.677500  1.0
  H  H454  1  0.237400  0.835800  0.677500  1.0
  H  H455  1  0.759300  0.700900  0.301400  1.0
  H  H456  1  0.240700  0.299100  0.301400  1.0
  H  H457  1  0.700900  0.240700  0.698600  1.0
  H  H458  1  0.299100  0.759300  0.698600  1.0
  H  H459  1  0.670400  0.647300  0.277200  1.0
  H  H460  1  0.329600  0.352700  0.277200  1.0
  H  H461  1  0.647300  0.329600  0.722800  1.0
  H  H462  1  0.352700  0.670400  0.722800  1.0
  H  H463  1  0.559500  0.621600  0.271600  1.0
  H  H464  1  0.440500  0.378400  0.271600  1.0
  H  H465  1  0.621600  0.440500  0.728400  1.0
  H  H466  1  0.378400  0.559500  0.728400  1.0
  H  H467  1  0.460800  0.665200  0.298200  1.0
  H  H468  1  0.539200  0.334800  0.298200  1.0
  H  H469  1  0.665200  0.539200  0.701800  1.0
  H  H470  1  0.334800  0.460800  0.701800  1.0
  H  H471  1  0.467300  0.725900  0.319400  1.0
  H  H472  1  0.532700  0.274100  0.319400  1.0
  H  H473  1  0.725900  0.532700  0.680600  1.0
  H  H474  1  0.274100  0.467300  0.680600  1.0
  H  H475  1  0.529800  0.446800  0.406700  1.0
  H  H476  1  0.470200  0.553200  0.406700  1.0
  H  H477  1  0.446800  0.470200  0.593300  1.0
  H  H478  1  0.553200  0.529800  0.593300  1.0
  H  H479  1  0.477100  0.430400  0.351600  1.0
  H  H480  1  0.522900  0.569600  0.351600  1.0
  H  H481  1  0.430400  0.522900  0.648400  1.0
  H  H482  1  0.569600  0.477100  0.648400  1.0
  C  C483  1  0.934300  0.363500  0.019100  1
  C  C484  1  0.065700  0.636500  0.019100  1
  C  C485  1  0.363500  0.065700  0.980900  1
  C  C486  1  0.636500  0.934300  0.980900  1
  C  C487  1  0.612500  0.831610  0.119740  1.0
  C  C488  1  0.387500  0.168390  0.119740  1.0
  C  C489  1  0.831610  0.387500  0.880260  1.0
  C  C490  1  0.168390  0.612500  0.880260  1.0
  C  C491  1  0.568000  0.866860  0.134250  1.0
  C  C492  1  0.432000  0.133140  0.134250  1.0
  C  C493  1  0.866860  0.432000  0.865750  1.0
  C  C494  1  0.133140  0.568000  0.865750  1.0
  C  C495  1  0.535200  0.844800  0.161010  1.0
  C  C496  1  0.464800  0.155200  0.161010  1.0
  C  C497  1  0.844800  0.464800  0.838990  1.0
  C  C498  1  0.155200  0.535200  0.838990  1.0
  C  C499  1  0.546970  0.787400  0.173260  1.0
  C  C500  1  0.453030  0.212600  0.173260  1.0
  C  C501  1  0.787400  0.453030  0.826740  1.0
  C  C502  1  0.212600  0.546970  0.826740  1.0
  C  C503  1  0.591510  0.752160  0.158740  1.0
  C  C504  1  0.408490  0.247840  0.158740  1.0
  C  C505  1  0.752160  0.408490  0.841260  1.0
  C  C506  1  0.247840  0.591510  0.841260  1.0
  C  C507  1  0.607000  0.696780  0.169680  1.0
  C  C508  1  0.393000  0.303220  0.169680  1.0
  C  C509  1  0.696780  0.393000  0.830320  1.0
  C  C510  1  0.303220  0.607000  0.830320  1.0
  C  C511  1  0.584920  0.657700  0.194790  1.0
  C  C512  1  0.415080  0.342300  0.194790  1.0
  C  C513  1  0.657700  0.415080  0.805210  1.0
  C  C514  1  0.342300  0.584920  0.805210  1.0
  C  C515  1  0.621300  0.605100  0.194920  1.0
  C  C516  1  0.378700  0.394900  0.194920  1.0
  C  C517  1  0.605100  0.378700  0.805080  1.0
  C  C518  1  0.394900  0.621300  0.805080  1.0
  C  C519  1  0.709700  0.571100  0.160920  1.0
  C  C520  1  0.290300  0.428900  0.160920  1.0
  C  C521  1  0.571100  0.290300  0.839080  1.0
  C  C522  1  0.428900  0.709700  0.839080  1.0
  C  C523  1  0.655820  0.179700  0.152650  1.0
  C  C524  1  0.344180  0.820300  0.152650  1.0
  C  C525  1  0.179700  0.344180  0.847350  1.0
  C  C526  1  0.820300  0.655820  0.847350  1.0
  C  C527  1  0.615400  0.135870  0.142090  1.0
  C  C528  1  0.384600  0.864130  0.142090  1.0
  C  C529  1  0.135870  0.384600  0.857910  1.0
  C  C530  1  0.864130  0.615400  0.857910  1.0
  C  C531  1  0.588850  0.140340  0.110940  1.0
  C  C532  1  0.411150  0.859660  0.110940  1.0
  C  C533  1  0.140340  0.411150  0.889060  1.0
  C  C534  1  0.859660  0.588850  0.889060  1.0
  C  C535  1  0.602710  0.188600  0.090350  1.0
  C  C536  1  0.397290  0.811400  0.090350  1.0
  C  C537  1  0.188600  0.397290  0.909650  1.0
  C  C538  1  0.811400  0.602710  0.909650  1.0
  C  C539  1  0.643120  0.232480  0.100910  1.0
  C  C540  1  0.356880  0.767520  0.100910  1.0
  C  C541  1  0.232480  0.356880  0.899090  1.0
  C  C542  1  0.767520  0.643120  0.899090  1.0
  C  C543  1  0.658300  0.280460  0.081700  1.0
  C  C544  1  0.341700  0.719540  0.081700  1.0
  C  C545  1  0.280460  0.341700  0.918300  1.0
  C  C546  1  0.719540  0.658300  0.918300  1.0
  C  C547  1  0.645100  0.298000  0.048580  1.0
  C  C548  1  0.354900  0.702000  0.048580  1.0
  C  C549  1  0.298000  0.354900  0.951420  1.0
  C  C550  1  0.702000  0.645100  0.951420  1.0
  C  C551  1  0.678000  0.351300  0.041580  1.0
  C  C552  1  0.322000  0.648700  0.041580  1.0
  C  C553  1  0.351300  0.322000  0.958420  1.0
  C  C554  1  0.648700  0.678000  0.958420  1.0
  C  C555  1  0.746300  0.420000  0.077900  1.0
  C  C556  1  0.253700  0.580000  0.077900  1.0
  C  C557  1  0.420000  0.253700  0.922100  1.0
  C  C558  1  0.580000  0.746300  0.922100  1.0
  C  C559  1  0.689300  0.533930  0.134100  1.0
  C  C560  1  0.310700  0.466070  0.134100  1.0
  C  C561  1  0.533930  0.310700  0.865900  1.0
  C  C562  1  0.466070  0.689300  0.865900  1.0
  C  C563  1  0.636080  0.528100  0.114820  1.0
  C  C564  1  0.363920  0.471900  0.114820  1.0
  C  C565  1  0.528100  0.363920  0.885180  1.0
  C  C566  1  0.471900  0.636080  0.885180  1.0
  C  C567  1  0.646900  0.484300  0.089860  1.0
  C  C568  1  0.353100  0.515700  0.089860  1.0
  C  C569  1  0.484300  0.353100  0.910140  1.0
  C  C570  1  0.515700  0.646900  0.910140  1.0
  C  C571  1  0.706800  0.462960  0.093710  1.0
  C  C572  1  0.293200  0.537040  0.093710  1.0
  C  C573  1  0.462960  0.293200  0.906290  1.0
  C  C574  1  0.537040  0.706800  0.906290  1.0
  C  C575  1  0.803310  0.651500  0.106790  1.0
  C  C576  1  0.196690  0.348500  0.106790  1.0
  C  C577  1  0.651500  0.196690  0.893210  1.0
  C  C578  1  0.348500  0.803310  0.893210  1.0
  C  C579  1  0.842130  0.609400  0.092750  1.0
  C  C580  1  0.157870  0.390600  0.092750  1.0
  C  C581  1  0.609400  0.157870  0.907250  1.0
  C  C582  1  0.390600  0.842130  0.907250  1.0
  C  C583  1  0.822000  0.572100  0.067370  1.0
  C  C584  1  0.178000  0.427900  0.067370  1.0
  C  C585  1  0.572100  0.178000  0.932630  1.0
  C  C586  1  0.427900  0.822000  0.932630  1.0
  C  C587  1  0.763000  0.576800  0.056030  1.0
  C  C588  1  0.237000  0.423200  0.056030  1.0
  C  C589  1  0.576800  0.237000  0.943970  1.0
  C  C590  1  0.423200  0.763000  0.943970  1.0
  C  C591  1  0.724210  0.618800  0.070070  1.0
  C  C592  1  0.275790  0.381200  0.070070  1.0
  C  C593  1  0.618800  0.275790  0.929930  1.0
  C  C594  1  0.381200  0.724210  0.929930  1.0
  C  C595  1  0.666667  0.626000  0.059930  1.0
  C  C596  1  0.333333  0.374000  0.059930  1.0
  C  C597  1  0.626000  0.333333  0.940070  1.0
  C  C598  1  0.374000  0.666667  0.940070  1.0
  C  C599  1  0.632300  0.597700  0.034570  1.0
  C  C600  1  0.367700  0.402300  0.034570  1.0
  C  C601  1  0.597700  0.367700  0.965430  1.0
  C  C602  1  0.402300  0.632300  0.965430  1.0
  C  C603  1  0.572600  0.620500  0.036230  1.0
  C  C604  1  0.427400  0.379500  0.036230  1.0
  C  C605  1  0.620500  0.427400  0.963770  1.0
  C  C606  1  0.379500  0.572600  0.963770  1.0
  C  C607  1  0.522900  0.691800  0.077000  1.0
  C  C608  1  0.477100  0.308200  0.077000  1.0
  C  C609  1  0.691800  0.477100  0.923000  1.0
  C  C610  1  0.308200  0.522900  0.923000  1.0
  C  C611  1  0.863870  0.338360  0.136260  1.0
  C  C612  1  0.136130  0.661640  0.136260  1.0
  C  C613  1  0.338360  0.136130  0.863740  1.0
  C  C614  1  0.661640  0.863870  0.863740  1.0
  C  C615  1  0.907990  0.380400  0.144270  1.0
  C  C616  1  0.092010  0.619600  0.144270  1.0
  C  C617  1  0.380400  0.092010  0.855730  1.0
  C  C618  1  0.619600  0.907990  0.855730  1.0
  C  C619  1  0.895100  0.426800  0.166270  1.0
  C  C620  1  0.104900  0.573200  0.166270  1.0
  C  C621  1  0.426800  0.104900  0.833730  1.0
  C  C622  1  0.573200  0.895100  0.833730  1.0
  C  C623  1  0.838000  0.431290  0.180270  1.0
  C  C624  1  0.162000  0.568710  0.180270  1.0
  C  C625  1  0.431290  0.162000  0.819730  1.0
  C  C626  1  0.568710  0.838000  0.819730  1.0
  C  C627  1  0.793860  0.389300  0.172260  1.0
  C  C628  1  0.206140  0.610700  0.172260  1.0
  C  C629  1  0.389300  0.206140  0.827740  1.0
  C  C630  1  0.610700  0.793860  0.827740  1.0
  C  C631  1  0.737490  0.389400  0.184560  1.0
  C  C632  1  0.262510  0.610600  0.184560  1.0
  C  C633  1  0.389400  0.262510  0.815440  1.0
  C  C634  1  0.610600  0.737490  0.815440  1.0
  C  C635  1  0.706700  0.426390  0.207770  1.0
  C  C636  1  0.293300  0.573610  0.207770  1.0
  C  C637  1  0.426390  0.293300  0.792230  1.0
  C  C638  1  0.573610  0.706700  0.792230  1.0
  C  C639  1  0.646300  0.405800  0.209940  1.0
  C  C640  1  0.353700  0.594200  0.209940  1.0
  C  C641  1  0.405800  0.353700  0.790060  1.0
  C  C642  1  0.594200  0.646300  0.790060  1.0
  C  C643  1  0.588000  0.326800  0.179430  1.0
  C  C644  1  0.412000  0.673200  0.179430  1.0
  C  C645  1  0.326800  0.412000  0.820570  1.0
  C  C646  1  0.673200  0.588000  0.820570  1.0
  C  C647  1  0.493900  0.657000  0.102330  1.0
  C  C648  1  0.506100  0.343000  0.102330  1.0
  C  C649  1  0.657000  0.506100  0.897670  1.0
  C  C650  1  0.343000  0.493900  0.897670  1.0
  C  C651  1  0.484100  0.595090  0.109240  1.0
  C  C652  1  0.515900  0.404910  0.109240  1.0
  C  C653  1  0.595090  0.515900  0.890760  1.0
  C  C654  1  0.404910  0.484100  0.890760  1.0
  C  C655  1  0.451500  0.590950  0.139500  1.0
  C  C656  1  0.548500  0.409050  0.139500  1.0
  C  C657  1  0.590950  0.548500  0.860500  1.0
  C  C658  1  0.409050  0.451500  0.860500  1.0
  C  C659  1  0.558800  0.349600  0.151290  1.0
  C  C660  1  0.441200  0.650400  0.151290  1.0
  C  C661  1  0.349600  0.441200  0.848710  1.0
  C  C662  1  0.650400  0.558800  0.848710  1.0
  C  C663  1  0.697800  0.778900  0.048550  1.0
  C  C664  1  0.302200  0.221100  0.048550  1.0
  C  C665  1  0.778900  0.302200  0.951450  1.0
  C  C666  1  0.221100  0.697800  0.951450  1.0
  C  C667  1  0.723000  0.817600  0.025240  1.0
  C  C668  1  0.277000  0.182400  0.025240  1.0
  C  C669  1  0.817600  0.277000  0.974760  1.0
  C  C670  1  0.182400  0.723000  0.974760  1.0
  C  C671  1  0.770100  0.855500  0.034260  1.0
  C  C672  1  0.229900  0.144500  0.034260  1.0
  C  C673  1  0.855500  0.229900  0.965740  1.0
  C  C674  1  0.144500  0.770100  0.965740  1.0
  C  C675  1  0.791900  0.854800  0.066600  1.0
  C  C676  1  0.208100  0.145200  0.066600  1.0
  C  C677  1  0.854800  0.208100  0.933400  1.0
  C  C678  1  0.145200  0.791900  0.933400  1.0
  C  C679  1  0.766600  0.816200  0.089920  1.0
  C  C680  1  0.233400  0.183800  0.089920  1.0
  C  C681  1  0.816200  0.233400  0.910080  1.0
  C  C682  1  0.183800  0.766600  0.910080  1.0
  C  C683  1  0.784500  0.814200  0.121350  1.0
  C  C684  1  0.215500  0.185800  0.121350  1.0
  C  C685  1  0.814200  0.215500  0.878650  1.0
  C  C686  1  0.185800  0.784500  0.878650  1.0
  C  C687  1  0.828600  0.848300  0.138660  1.0
  C  C688  1  0.171400  0.151700  0.138660  1.0
  C  C689  1  0.848300  0.171400  0.861340  1.0
  C  C690  1  0.151700  0.828600  0.861340  1.0
  C  C691  1  0.830900  0.826900  0.171860  1.0
  C  C692  1  0.169100  0.173100  0.171860  1.0
  C  C693  1  0.826900  0.169100  0.828140  1.0
  C  C694  1  0.173100  0.830900  0.828140  1.0
  C  C695  1  0.770500  0.749000  0.202900  1.0
  C  C696  1  0.229500  0.251000  0.202900  1.0
  C  C697  1  0.749000  0.229500  0.797100  1.0
  C  C698  1  0.251000  0.770500  0.797100  1.0
  C  C699  1  0.609600  0.885600  0.414950  1.0
  C  C700  1  0.390400  0.114400  0.414950  1.0
  C  C701  1  0.885600  0.390400  0.585050  1.0
  C  C702  1  0.114400  0.609600  0.585050  1.0
  C  C703  1  0.603900  0.941200  0.430530  1.0
  C  C704  1  0.396100  0.058800  0.430530  1.0
  C  C705  1  0.941200  0.396100  0.569470  1.0
  C  C706  1  0.058800  0.603900  0.569470  1.0
  C  C707  1  0.588600  0.991900  0.412100  1.0
  C  C708  1  0.411400  0.008100  0.412100  1.0
  C  C709  1  0.991900  0.411400  0.587900  1.0
  C  C710  1  0.008100  0.588600  0.587900  1.0
  C  C711  1  0.579100  0.987000  0.378100  1.0
  C  C712  1  0.420900  0.013000  0.378100  1.0
  C  C713  1  0.987000  0.420900  0.621900  1.0
  C  C714  1  0.013000  0.579100  0.621900  1.0
  C  C715  1  0.584800  0.931500  0.362550  1.0
  C  C716  1  0.415200  0.068500  0.362550  1.0
  C  C717  1  0.931500  0.415200  0.637450  1.0
  C  C718  1  0.068500  0.584800  0.637450  1.0
  C  C719  1  0.579300  0.925400  0.329240  1.0
  C  C720  1  0.420700  0.074600  0.329240  1.0
  C  C721  1  0.925400  0.420700  0.670760  1.0
  C  C722  1  0.074600  0.579300  0.670760  1.0
  C  C723  1  0.568000  0.967800  0.303600  1.0
  C  C724  1  0.432000  0.032200  0.303600  1.0
  C  C725  1  0.967800  0.432000  0.696400  1.0
  C  C726  1  0.032200  0.568000  0.696400  1.0
  C  C727  1  0.566600  0.936200  0.272950  1.0
  C  C728  1  0.433400  0.063800  0.272950  1.0
  C  C729  1  0.936200  0.433400  0.727050  1.0
  C  C730  1  0.063800  0.566600  0.727050  1.0
  C  C731  1  0.591200  0.829200  0.256800  1.0
  C  C732  1  0.408800  0.170800  0.256800  1.0
  C  C733  1  0.829200  0.408800  0.743200  1.0
  C  C734  1  0.170800  0.591200  0.743200  1.0
  C  C735  1  0.737800  0.788300  0.227220  1.0
  C  C736  1  0.262200  0.211700  0.227220  1.0
  C  C737  1  0.788300  0.262200  0.772780  1.0
  C  C738  1  0.211700  0.737800  0.772780  1.0
  C  C739  1  0.756900  0.831200  0.251130  1.0
  C  C740  1  0.243100  0.168800  0.251130  1.0
  C  C741  1  0.831200  0.243100  0.748870  1.0
  C  C742  1  0.168800  0.756900  0.748870  1.0
  C  C743  1  0.704900  0.854500  0.267150  1.0
  C  C744  1  0.295100  0.145500  0.267150  1.0
  C  C745  1  0.854500  0.295100  0.732850  1.0
  C  C746  1  0.145500  0.704900  0.732850  1.0
  C  C747  1  0.653600  0.825900  0.253160  1.0
  C  C748  1  0.346400  0.174100  0.253160  1.0
  C  C749  1  0.825900  0.346400  0.746840  1.0
  C  C750  1  0.174100  0.653600  0.746840  1.0
  C  C751  1  0.800400  0.225400  0.083190  1.0
  C  C752  1  0.199600  0.774600  0.083190  1.0
  C  C753  1  0.225400  0.199600  0.916810  1.0
  C  C754  1  0.774600  0.800400  0.916810  1.0
  C  C755  1  0.833200  0.180700  0.067200  1.0
  C  C756  1  0.166800  0.819300  0.067200  1.0
  C  C757  1  0.180700  0.166800  0.932800  1.0
  C  C758  1  0.819300  0.833200  0.932800  1.0
  C  C759  1  0.857600  0.133400  0.085360  1.0
  C  C760  1  0.142400  0.866600  0.085360  1.0
  C  C761  1  0.133400  0.142400  0.914640  1.0
  C  C762  1  0.866600  0.857600  0.914640  1.0
  C  C763  1  0.849100  0.130700  0.119510  1.0
  C  C764  1  0.150900  0.869300  0.119510  1.0
  C  C765  1  0.130700  0.150900  0.880490  1.0
  C  C766  1  0.869300  0.849100  0.880490  1.0
  C  C767  1  0.816200  0.175500  0.135500  1.0
  C  C768  1  0.183800  0.824500  0.135500  1.0
  C  C769  1  0.175500  0.183800  0.864500  1.0
  C  C770  1  0.824500  0.816200  0.864500  1.0
  C  C771  1  0.807000  0.175600  0.168550  1.0
  C  C772  1  0.193000  0.824400  0.168550  1.0
  C  C773  1  0.175600  0.193000  0.831450  1.0
  C  C774  1  0.824400  0.807000  0.831450  1.0
  C  C775  1  0.823800  0.133900  0.193620  1.0
  C  C776  1  0.176200  0.866100  0.193620  1.0
  C  C777  1  0.133900  0.176200  0.806380  1.0
  C  C778  1  0.866100  0.823800  0.806380  1.0
  C  C779  1  0.805300  0.157700  0.224710  1.0
  C  C780  1  0.194700  0.842300  0.224710  1.0
  C  C781  1  0.157700  0.194700  0.775290  1.0
  C  C782  1  0.842300  0.805300  0.775290  1.0
  C  C783  1  0.758200  0.258500  0.241220  1.0
  C  C784  1  0.241800  0.741500  0.241220  1.0
  C  C785  1  0.258500  0.241800  0.758780  1.0
  C  C786  1  0.741500  0.758200  0.758780  1.0
  C  C787  1  0.811800  0.360700  0.448750  1.0
  C  C788  1  0.188200  0.639300  0.448750  1.0
  C  C789  1  0.360700  0.188200  0.551250  1.0
  C  C790  1  0.639300  0.811800  0.551250  1.0
  C  C791  1  0.855300  0.343500  0.471680  1.0
  C  C792  1  0.144700  0.656500  0.471680  1.0
  C  C793  1  0.343500  0.144700  0.528320  1.0
  C  C794  1  0.656500  0.855300  0.528320  1.0
  C  C795  1  0.915700  0.343000  0.462680  1.0
  C  C796  1  0.084300  0.657000  0.462680  1.0
  C  C797  1  0.343000  0.084300  0.537320  1.0
  C  C798  1  0.657000  0.915700  0.537320  1.0
  C  C799  1  0.932700  0.359500  0.430740  1.0
  C  C800  1  0.067300  0.640500  0.430740  1.0
  C  C801  1  0.359500  0.067300  0.569260  1.0
  C  C802  1  0.640500  0.932700  0.569260  1.0
  C  C803  1  0.889100  0.376600  0.407800  1.0
  C  C804  1  0.110900  0.623400  0.407800  1.0
  C  C805  1  0.376600  0.110900  0.592200  1.0
  C  C806  1  0.623400  0.889100  0.592200  1.0
  C  C807  1  0.904400  0.391700  0.376800  1.0
  C  C808  1  0.095600  0.608300  0.376800  1.0
  C  C809  1  0.391700  0.095600  0.623200  1.0
  C  C810  1  0.608300  0.904400  0.623200  1.0
  C  C811  1  0.960520  0.407000  0.362100  1.0
  C  C812  1  0.039480  0.593000  0.362100  1.0
  C  C813  1  0.407000  0.039480  0.637900  1.0
  C  C814  1  0.593000  0.960520  0.637900  1.0
  C  C815  1  0.949300  0.426000  0.329030  1.0
  C  C816  1  0.050700  0.574000  0.329030  1.0
  C  C817  1  0.426000  0.050700  0.670970  1.0
  C  C818  1  0.574000  0.949300  0.670970  1.0
  C  C819  1  0.853500  0.432300  0.293500  1.0
  C  C820  1  0.146500  0.567700  0.293500  1.0
  C  C821  1  0.432300  0.146500  0.706500  1.0
  C  C822  1  0.567700  0.853500  0.706500  1.0
  C  C823  1  0.808280  0.298750  0.246570  1.0
  C  C824  1  0.191720  0.701250  0.246570  1.0
  C  C825  1  0.298750  0.191720  0.753430  1.0
  C  C826  1  0.701250  0.808280  0.753430  1.0
  C  C827  1  0.866300  0.306700  0.232420  1.0
  C  C828  1  0.133700  0.693300  0.232420  1.0
  C  C829  1  0.306700  0.133700  0.767580  1.0
  C  C830  1  0.693300  0.866300  0.767580  1.0
  C  C831  1  0.893310  0.357800  0.247620  1.0
  C  C832  1  0.106690  0.642200  0.247620  1.0
  C  C833  1  0.357800  0.106690  0.752380  1.0
  C  C834  1  0.642200  0.893310  0.752380  1.0
  C  C835  1  0.851940  0.381320  0.271160  1.0
  C  C836  1  0.148060  0.618680  0.271160  1.0
  C  C837  1  0.381320  0.148060  0.728840  1.0
  C  C838  1  0.618680  0.851940  0.728840  1.0
  C  C839  1  0.765900  0.273400  0.381010  1.0
  C  C840  1  0.234100  0.726600  0.381010  1.0
  C  C841  1  0.273400  0.234100  0.618990  1.0
  C  C842  1  0.726600  0.765900  0.618990  1.0
  C  C843  1  0.752300  0.218780  0.365890  1.0
  C  C844  1  0.247700  0.781220  0.365890  1.0
  C  C845  1  0.218780  0.247700  0.634110  1.0
  C  C846  1  0.781220  0.752300  0.634110  1.0
  C  C847  1  0.717700  0.217720  0.337120  1.0
  C  C848  1  0.282300  0.782280  0.337120  1.0
  C  C849  1  0.217720  0.282300  0.662880  1.0
  C  C850  1  0.782280  0.717700  0.662880  1.0
  C  C851  1  0.696800  0.271300  0.323460  1.0
  C  C852  1  0.303200  0.728700  0.323460  1.0
  C  C853  1  0.271300  0.303200  0.676540  1.0
  C  C854  1  0.728700  0.696800  0.676540  1.0
  C  C855  1  0.710400  0.325910  0.338580  1.0
  C  C856  1  0.289600  0.674090  0.338580  1.0
  C  C857  1  0.325910  0.289600  0.661420  1.0
  C  C858  1  0.674090  0.710400  0.661420  1.0
  C  C859  1  0.694700  0.381370  0.327150  1.0
  C  C860  1  0.305300  0.618630  0.327150  1.0
  C  C861  1  0.381370  0.305300  0.672850  1.0
  C  C862  1  0.618630  0.694700  0.672850  1.0
  C  C863  1  0.658700  0.400800  0.300080  1.0
  C  C864  1  0.341300  0.599200  0.300080  1.0
  C  C865  1  0.400800  0.341300  0.699920  1.0
  C  C866  1  0.599200  0.658700  0.699920  1.0
  C  C867  1  0.660000  0.464800  0.299320  1.0
  C  C868  1  0.340000  0.535200  0.299320  1.0
  C  C869  1  0.464800  0.340000  0.700680  1.0
  C  C870  1  0.535200  0.660000  0.700680  1.0
  C  C871  1  0.715700  0.543800  0.335060  1.0
  C  C872  1  0.284300  0.456200  0.335060  1.0
  C  C873  1  0.543800  0.284300  0.664940  1.0
  C  C874  1  0.456200  0.715700  0.664940  1.0
  C  C875  1  0.460600  0.836500  0.349300  1.0
  C  C876  1  0.539400  0.163500  0.349300  1.0
  C  C877  1  0.836500  0.539400  0.650700  1.0
  C  C878  1  0.163500  0.460600  0.650700  1.0
  C  C879  1  0.404640  0.853400  0.361660  1.0
  C  C880  1  0.595360  0.146600  0.361660  1.0
  C  C881  1  0.853400  0.595360  0.638340  1.0
  C  C882  1  0.146600  0.404640  0.638340  1.0
  C  C883  1  0.389230  0.839800  0.394260  1.0
  C  C884  1  0.610770  0.160200  0.394260  1.0
  C  C885  1  0.839800  0.610770  0.605740  1.0
  C  C886  1  0.160200  0.389230  0.605740  1.0
  C  C887  1  0.429800  0.809300  0.414480  1.0
  C  C888  1  0.570200  0.190700  0.414480  1.0
  C  C889  1  0.809300  0.570200  0.585520  1.0
  C  C890  1  0.190700  0.429800  0.585520  1.0
  C  C891  1  0.485730  0.792400  0.402120  1.0
  C  C892  1  0.514270  0.207600  0.402120  1.0
  C  C893  1  0.792400  0.514270  0.597880  1.0
  C  C894  1  0.207600  0.485730  0.597880  1.0
  C  C895  1  0.526230  0.761200  0.420480  1.0
  C  C896  1  0.473770  0.238800  0.420480  1.0
  C  C897  1  0.761200  0.473770  0.579520  1.0
  C  C898  1  0.238800  0.526230  0.579520  1.0
  C  C899  1  0.530000  0.744300  0.454420  1.0
  C  C900  1  0.470000  0.255700  0.454420  1.0
  C  C901  1  0.744300  0.470000  0.545580  1.0
  C  C902  1  0.255700  0.530000  0.545580  1.0
  C  C903  1  0.587600  0.718500  0.459930  1.0
  C  C904  1  0.412400  0.281500  0.459930  1.0
  C  C905  1  0.718500  0.412400  0.540070  1.0
  C  C906  1  0.281500  0.587600  0.540070  1.0
  C  C907  1  0.672400  0.691000  0.420100  1.0
  C  C908  1  0.327600  0.309000  0.420100  1.0
  C  C909  1  0.691000  0.327600  0.579900  1.0
  C  C910  1  0.309000  0.672400  0.579900  1.0
  C  C911  1  0.681300  0.563400  0.363650  1.0
  C  C912  1  0.318700  0.436600  0.363650  1.0
  C  C913  1  0.563400  0.318700  0.636350  1.0
  C  C914  1  0.436600  0.681300  0.636350  1.0
  C  C915  1  0.632300  0.541600  0.382900  1.0
  C  C916  1  0.367700  0.458400  0.382900  1.0
  C  C917  1  0.541600  0.367700  0.617100  1.0
  C  C918  1  0.458400  0.632300  0.617100  1.0
  C  C919  1  0.618900  0.585400  0.407510  1.0
  C  C920  1  0.381100  0.414600  0.407510  1.0
  C  C921  1  0.585400  0.381100  0.592490  1.0
  C  C922  1  0.414600  0.618900  0.592490  1.0
  C  C923  1  0.659600  0.634200  0.403480  1.0
  C  C924  1  0.340400  0.365800  0.403480  1.0
  C  C925  1  0.634200  0.340400  0.596520  1.0
  C  C926  1  0.365800  0.659600  0.596520  1.0
  C  C927  1  0.834500  0.528700  0.387560  1.0
  C  C928  1  0.165500  0.471300  0.387560  1.0
  C  C929  1  0.528700  0.165500  0.612440  1.0
  C  C930  1  0.471300  0.834500  0.612440  1.0
  C  C931  1  0.849000  0.583100  0.402640  1.0
  C  C932  1  0.151000  0.416900  0.402640  1.0
  C  C933  1  0.583100  0.151000  0.597360  1.0
  C  C934  1  0.416900  0.849000  0.597360  1.0
  C  C935  1  0.817400  0.602200  0.430480  1.0
  C  C936  1  0.182600  0.397800  0.430480  1.0
  C  C937  1  0.602200  0.182600  0.569520  1.0
  C  C938  1  0.397800  0.817400  0.569520  1.0
  C  C939  1  0.771100  0.566900  0.443250  1.0
  C  C940  1  0.228900  0.433100  0.443250  1.0
  C  C941  1  0.566900  0.228900  0.556750  1.0
  C  C942  1  0.433100  0.771100  0.556750  1.0
  C  C943  1  0.756620  0.512400  0.428180  1.0
  C  C944  1  0.243380  0.487600  0.428180  1.0
  C  C945  1  0.512400  0.243380  0.571820  1.0
  C  C946  1  0.487600  0.756620  0.571820  1.0
  C  C947  1  0.710300  0.477600  0.438960  1.0
  C  C948  1  0.289700  0.522400  0.438960  1.0
  C  C949  1  0.477600  0.289700  0.561040  1.0
  C  C950  1  0.522400  0.710300  0.561040  1.0
  C  C951  1  0.668100  0.483900  0.465220  1.0
  C  C952  1  0.331900  0.516100  0.465220  1.0
  C  C953  1  0.483900  0.331900  0.534780  1.0
  C  C954  1  0.516100  0.668100  0.534780  1.0
  C  C955  1  0.627400  0.434800  0.463560  1.0
  C  C956  1  0.372600  0.565200  0.463560  1.0
  C  C957  1  0.434800  0.372600  0.536440  1.0
  C  C958  1  0.565200  0.627400  0.536440  1.0
  C  C959  1  0.616500  0.348500  0.422300  1.0
  C  C960  1  0.383500  0.651500  0.422300  1.0
  C  C961  1  0.348500  0.383500  0.577700  1.0
  C  C962  1  0.651500  0.616500  0.577700  1.0
  C  C963  1  0.721700  0.824800  0.360440  1.0
  C  C964  1  0.278300  0.175200  0.360440  1.0
  C  C965  1  0.824800  0.278300  0.639560  1.0
  C  C966  1  0.175200  0.721700  0.639560  1.0
  C  C967  1  0.781170  0.815300  0.350970  1.0
  C  C968  1  0.218830  0.184700  0.350970  1.0
  C  C969  1  0.815300  0.218830  0.649030  1.0
  C  C970  1  0.184700  0.781170  0.649030  1.0
  C  C971  1  0.795190  0.769100  0.328980  1.0
  C  C972  1  0.204810  0.230900  0.328980  1.0
  C  C973  1  0.769100  0.204810  0.671020  1.0
  C  C974  1  0.230900  0.795190  0.671020  1.0
  C  C975  1  0.749800  0.732500  0.316460  1.0
  C  C976  1  0.250200  0.267500  0.316460  1.0
  C  C977  1  0.732500  0.250200  0.683540  1.0
  C  C978  1  0.267500  0.749800  0.683540  1.0
  C  C979  1  0.690300  0.742040  0.325930  1.0
  C  C980  1  0.309700  0.257960  0.325930  1.0
  C  C981  1  0.742040  0.309700  0.674070  1.0
  C  C982  1  0.257960  0.690300  0.674070  1.0
  C  C983  1  0.644170  0.709900  0.314260  1.0
  C  C984  1  0.355830  0.290100  0.314260  1.0
  C  C985  1  0.709900  0.355830  0.685740  1.0
  C  C986  1  0.290100  0.644170  0.685740  1.0
  C  C987  1  0.638400  0.664800  0.289480  1.0
  C  C988  1  0.361600  0.335200  0.289480  1.0
  C  C989  1  0.664800  0.361600  0.710520  1.0
  C  C990  1  0.335200  0.638400  0.710520  1.0
  C  C991  1  0.576300  0.650380  0.286340  1.0
  C  C992  1  0.423700  0.349620  0.286340  1.0
  C  C993  1  0.650380  0.423700  0.713660  1.0
  C  C994  1  0.349620  0.576300  0.713660  1.0
  C  C995  1  0.482900  0.684400  0.316760  1.0
  C  C996  1  0.517100  0.315600  0.316760  1.0
  C  C997  1  0.684400  0.517100  0.683240  1.0
  C  C998  1  0.315600  0.482900  0.683240  1.0
  C  C999  1  0.575600  0.364600  0.397460  1.0
  C  C1000  1  0.424400  0.635400  0.397460  1.0
  C  C1001  1  0.364600  0.424400  0.602540  1.0
  C  C1002  1  0.635400  0.575600  0.602540  1.0
  C  C1003  1  0.535700  0.413600  0.392160  1.0
  C  C1004  1  0.464300  0.586400  0.392160  1.0
  C  C1005  1  0.413600  0.464300  0.607840  1.0
  C  C1006  1  0.586400  0.535700  0.607840  1.0
  C  C1007  1  0.506200  0.404500  0.361300  1.0
  C  C1008  1  0.493800  0.595500  0.361300  1.0
  C  C1009  1  0.404500  0.493800  0.638700  1.0
  C  C1010  1  0.595500  0.506200  0.638700  1.0
  C  C1011  1  0.472100  0.650300  0.347520  1.0
  C  C1012  1  0.527900  0.349700  0.347520  1.0
  C  C1013  1  0.650300  0.527900  0.652480  1.0
  C  C1014  1  0.349700  0.472100  0.652480  1.0
  N  N1015  1  0.892200  0.373000  0.048080  1
  N  N1016  1  0.107800  0.627000  0.048080  1
  N  N1017  1  0.373000  0.107800  0.951920  1
  N  N1018  1  0.627000  0.892200  0.951920  1
  N  N1019  1  0.624290  0.774260  0.131980  1.0
  N  N1020  1  0.375710  0.225740  0.131980  1.0
  N  N1021  1  0.774260  0.375710  0.868020  1.0
  N  N1022  1  0.225740  0.624290  0.868020  1.0
  N  N1023  1  0.665890  0.611660  0.169900  1.0
  N  N1024  1  0.334110  0.388340  0.169900  1.0
  N  N1025  1  0.611660  0.334110  0.830100  1.0
  N  N1026  1  0.388340  0.665890  0.830100  1.0
  N  N1027  1  0.657040  0.668340  0.154300  1.0
  N  N1028  1  0.342960  0.331660  0.154300  1.0
  N  N1029  1  0.668340  0.342960  0.845700  1.0
  N  N1030  1  0.331660  0.657040  0.845700  1.0
  N  N1031  1  0.669680  0.228010  0.132060  1.0
  N  N1032  1  0.330320  0.771990  0.132060  1.0
  N  N1033  1  0.228010  0.330320  0.867940  1.0
  N  N1034  1  0.771990  0.669680  0.867940  1.0
  N  N1035  1  0.711500  0.366810  0.070360  1.0
  N  N1036  1  0.288500  0.633190  0.070360  1.0
  N  N1037  1  0.366810  0.288500  0.929640  1.0
  N  N1038  1  0.633190  0.711500  0.929640  1.0
  N  N1039  1  0.699350  0.323010  0.095160  1.0
  N  N1040  1  0.300650  0.676990  0.095160  1.0
  N  N1041  1  0.323010  0.300650  0.904840  1.0
  N  N1042  1  0.676990  0.699350  0.904840  1.0
  N  N1043  1  0.744350  0.656130  0.095460  1.0
  N  N1044  1  0.255650  0.343870  0.095460  1.0
  N  N1045  1  0.656130  0.255650  0.904540  1.0
  N  N1046  1  0.343870  0.744350  0.904540  1.0
  N  N1047  1  0.569980  0.662800  0.062610  1.0
  N  N1048  1  0.430020  0.337200  0.062610  1.0
  N  N1049  1  0.662800  0.430020  0.937390  1.0
  N  N1050  1  0.337200  0.569980  0.937390  1.0
  N  N1051  1  0.628100  0.666220  0.077270  1.0
  N  N1052  1  0.371900  0.333780  0.077270  1.0
  N  N1053  1  0.666220  0.371900  0.922730  1.0
  N  N1054  1  0.333780  0.628100  0.922730  1.0
  N  N1055  1  0.806800  0.342830  0.150260  1.0
  N  N1056  1  0.193200  0.657170  0.150260  1.0
  N  N1057  1  0.342830  0.193200  0.849740  1.0
  N  N1058  1  0.657170  0.806800  0.849740  1.0
  N  N1059  1  0.639710  0.356000  0.188080  1.0
  N  N1060  1  0.360290  0.644000  0.188080  1.0
  N  N1061  1  0.356000  0.360290  0.811920  1.0
  N  N1062  1  0.644000  0.639710  0.811920  1.0
  N  N1063  1  0.696100  0.345880  0.172400  1.0
  N  N1064  1  0.303900  0.654120  0.172400  1.0
  N  N1065  1  0.345880  0.303900  0.827600  1.0
  N  N1066  1  0.654120  0.696100  0.827600  1.0
  N  N1067  1  0.719600  0.778200  0.080890  1.0
  N  N1068  1  0.280400  0.221800  0.080890  1.0
  N  N1069  1  0.778200  0.280400  0.919110  1.0
  N  N1070  1  0.221800  0.719600  0.919110  1.0
  N  N1071  1  0.788100  0.779600  0.175060  1.0
  N  N1072  1  0.211900  0.220400  0.175060  1.0
  N  N1073  1  0.779600  0.211900  0.824940  1.0
  N  N1074  1  0.220400  0.788100  0.824940  1.0
  N  N1075  1  0.759500  0.771800  0.143840  1.0
  N  N1076  1  0.240500  0.228200  0.143840  1.0
  N  N1077  1  0.771800  0.240500  0.856160  1.0
  N  N1078  1  0.228200  0.759500  0.856160  1.0
  N  N1079  1  0.600100  0.880740  0.380960  1.0
  N  N1080  1  0.399900  0.119260  0.380960  1.0
  N  N1081  1  0.880740  0.399900  0.619040  1.0
  N  N1082  1  0.119260  0.600100  0.619040  1.0
  N  N1083  1  0.577000  0.874200  0.279680  1.0
  N  N1084  1  0.423000  0.125800  0.279680  1.0
  N  N1085  1  0.874200  0.423000  0.720320  1.0
  N  N1086  1  0.125800  0.577000  0.720320  1.0
  N  N1087  1  0.584900  0.867600  0.314470  1.0
  N  N1088  1  0.415100  0.132400  0.314470  1.0
  N  N1089  1  0.867600  0.415100  0.685530  1.0
  N  N1090  1  0.132400  0.584900  0.685530  1.0
  N  N1091  1  0.791880  0.222830  0.117340  1.0
  N  N1092  1  0.208120  0.777170  0.117340  1.0
  N  N1093  1  0.222830  0.208120  0.882660  1.0
  N  N1094  1  0.777170  0.791880  0.882660  1.0
  N  N1095  1  0.777100  0.214100  0.218860  1.0
  N  N1096  1  0.222900  0.785900  0.218860  1.0
  N  N1097  1  0.214100  0.222900  0.781140  1.0
  N  N1098  1  0.785900  0.777100  0.781140  1.0
  N  N1099  1  0.778100  0.225190  0.184150  1.0
  N  N1100  1  0.221900  0.774810  0.184150  1.0
  N  N1101  1  0.225190  0.221900  0.815850  1.0
  N  N1102  1  0.774810  0.778100  0.815850  1.0
  N  N1103  1  0.828700  0.377200  0.416800  1.0
  N  N1104  1  0.171300  0.622800  0.416800  1.0
  N  N1105  1  0.377200  0.171300  0.583200  1.0
  N  N1106  1  0.622800  0.828700  0.583200  1.0
  N  N1107  1  0.886300  0.422600  0.323280  1.0
  N  N1108  1  0.113700  0.577400  0.323280  1.0
  N  N1109  1  0.422600  0.113700  0.676720  1.0
  N  N1110  1  0.577400  0.886300  0.676720  1.0
  N  N1111  1  0.858540  0.401400  0.352810  1.0
  N  N1112  1  0.141460  0.598600  0.352810  1.0
  N  N1113  1  0.401400  0.141460  0.647190  1.0
  N  N1114  1  0.598600  0.858540  0.647190  1.0
  N  N1115  1  0.744900  0.326970  0.367360  1.0
  N  N1116  1  0.255100  0.673030  0.367360  1.0
  N  N1117  1  0.326970  0.255100  0.632640  1.0
  N  N1118  1  0.673030  0.744900  0.632640  1.0
  N  N1119  1  0.696900  0.484830  0.325920  1.0
  N  N1120  1  0.303100  0.515170  0.325920  1.0
  N  N1121  1  0.484830  0.303100  0.674080  1.0
  N  N1122  1  0.515170  0.696900  0.674080  1.0
  N  N1123  1  0.718360  0.433270  0.343110  1.0
  N  N1124  1  0.281640  0.566730  0.343110  1.0
  N  N1125  1  0.433270  0.281640  0.656890  1.0
  N  N1126  1  0.566730  0.718360  0.656890  1.0
  N  N1127  1  0.501150  0.805980  0.369520  1.0
  N  N1128  1  0.498850  0.194020  0.369520  1.0
  N  N1129  1  0.805980  0.498850  0.630480  1.0
  N  N1130  1  0.194020  0.501150  0.630480  1.0
  N  N1131  1  0.619560  0.719400  0.429390  1.0
  N  N1132  1  0.380440  0.280600  0.429390  1.0
  N  N1133  1  0.719400  0.380440  0.570610  1.0
  N  N1134  1  0.280600  0.619560  0.570610  1.0
  N  N1135  1  0.581600  0.745800  0.405010  1.0
  N  N1136  1  0.418400  0.254200  0.405010  1.0
  N  N1137  1  0.745800  0.418400  0.594990  1.0
  N  N1138  1  0.254200  0.581600  0.594990  1.0
  N  N1139  1  0.788300  0.493360  0.400330  1.0
  N  N1140  1  0.211700  0.506640  0.400330  1.0
  N  N1141  1  0.493360  0.211700  0.599670  1.0
  N  N1142  1  0.506640  0.788300  0.599670  1.0
  N  N1143  1  0.644400  0.397990  0.436280  1.0
  N  N1144  1  0.355600  0.602010  0.436280  1.0
  N  N1145  1  0.397990  0.355600  0.563720  1.0
  N  N1146  1  0.602010  0.644400  0.563720  1.0
  N  N1147  1  0.695640  0.424460  0.421070  1.0
  N  N1148  1  0.304360  0.575540  0.421070  1.0
  N  N1149  1  0.424460  0.304360  0.578930  1.0
  N  N1150  1  0.575540  0.695640  0.578930  1.0
  N  N1151  1  0.676280  0.788200  0.347920  1.0
  N  N1152  1  0.323720  0.211800  0.347920  1.0
  N  N1153  1  0.788200  0.323720  0.652080  1.0
  N  N1154  1  0.211800  0.676280  0.652080  1.0
  N  N1155  1  0.543730  0.686600  0.309170  1.0
  N  N1156  1  0.456270  0.313400  0.309170  1.0
  N  N1157  1  0.686600  0.456270  0.690830  1.0
  N  N1158  1  0.313400  0.543730  0.690830  1.0
  N  N1159  1  0.585670  0.723390  0.326430  1.0
  N  N1160  1  0.414330  0.276610  0.326430  1.0
  N  N1161  1  0.723390  0.414330  0.673570  1.0
  N  N1162  1  0.276610  0.585670  0.673570  1.0
  O  O1163  1  0.851300  0.337200  0.049080  1
  O  O1164  1  0.148700  0.662800  0.049080  1
  O  O1165  1  0.337200  0.148700  0.950920  1
  O  O1166  1  0.662800  0.851300  0.950920  1
  O  O1167  1  0.899400  0.414100  0.067570  1
  O  O1168  1  0.100600  0.585900  0.067570  1
  O  O1169  1  0.414100  0.100600  0.932430  1
  O  O1170  1  0.585900  0.899400  0.932430  1
  O  O1171  1  0.733030  0.493650  0.121050  1.0
  O  O1172  1  0.266970  0.506350  0.121050  1.0
  O  O1173  1  0.493650  0.266970  0.878950  1.0
  O  O1174  1  0.506350  0.733030  0.878950  1.0
  O  O1175  1  0.467430  0.691200  0.128310  1.0
  O  O1176  1  0.532570  0.308800  0.128310  1.0
  O  O1177  1  0.691200  0.532570  0.871690  1.0
  O  O1178  1  0.308800  0.467430  0.871690  1.0
  O  O1179  1  0.673900  0.785000  0.228480  1.0
  O  O1180  1  0.326100  0.215000  0.228480  1.0
  O  O1181  1  0.785000  0.326100  0.771520  1.0
  O  O1182  1  0.215000  0.673900  0.771520  1.0
  O  O1183  1  0.799380  0.344860  0.270510  1.0
  O  O1184  1  0.200620  0.655140  0.270510  1.0
  O  O1185  1  0.344860  0.200620  0.729490  1.0
  O  O1186  1  0.655140  0.799380  0.729490  1.0
  O  O1187  1  0.698100  0.620600  0.376370  1.0
  O  O1188  1  0.301900  0.379400  0.376370  1.0
  O  O1189  1  0.620600  0.301900  0.623630  1.0
  O  O1190  1  0.379400  0.698100  0.623630  1.0
  O  O1191  1  0.570780  0.325080  0.369860  1.0
  O  O1192  1  0.429220  0.674920  0.369860  1.0
  O  O1193  1  0.325080  0.429220  0.630140  1.0
  O  O1194  1  0.674920  0.570780  0.630140  1.0
  F  F1195  1  0.714900  0.558700  0.247290  1
  F  F1196  1  0.285100  0.441300  0.247290  1
  F  F1197  1  0.558700  0.285100  0.752710  1
  F  F1198  1  0.441300  0.714900  0.752710  1
  F  F1199  1  0.803500  0.576800  0.215600  1
  F  F1200  1  0.196500  0.423200  0.215600  1
  F  F1201  1  0.576800  0.196500  0.784400  1
  F  F1202  1  0.423200  0.803500  0.784400  1
  F  F1203  1  0.778300  0.639100  0.257200  1
  F  F1204  1  0.221700  0.360900  0.257200  1
  F  F1205  1  0.639100  0.221700  0.742800  1
  F  F1206  1  0.360900  0.778300  0.742800  1
  F  F1207  1  0.808000  0.543500  0.269900  1
  F  F1208  1  0.192000  0.456500  0.269900  1
  F  F1209  1  0.543500  0.192000  0.730100  1
  F  F1210  1  0.456500  0.808000  0.730100  1
  F  F1211  1  0.580800  0.204000  0.220120  1
  F  F1212  1  0.419200  0.796000  0.220120  1
  F  F1213  1  0.204000  0.419200  0.779880  1
  F  F1214  1  0.796000  0.580800  0.779880  1
  F  F1215  1  0.614900  0.277300  0.254110  1
  F  F1216  1  0.385100  0.722700  0.254110  1
  F  F1217  1  0.277300  0.385100  0.745890  1
  F  F1218  1  0.722700  0.614900  0.745890  1
  F  F1219  1  0.561400  0.199900  0.275820  1
  F  F1220  1  0.438600  0.800100  0.275820  1
  F  F1221  1  0.199900  0.438600  0.724180  1
  F  F1222  1  0.800100  0.561400  0.724180  1
  F  F1223  1  0.516800  0.269900  0.243780  1
  F  F1224  1  0.483200  0.730100  0.243780  1
  F  F1225  1  0.269900  0.483200  0.756220  1
  F  F1226  1  0.730100  0.516800  0.756220  1
  F  F1227  1  0.696900  0.219400  0.511310  1
  F  F1228  1  0.303100  0.780600  0.511310  1
  F  F1229  1  0.219400  0.303100  0.488690  1
  F  F1230  1  0.780600  0.696900  0.488690  1
  F  F1231  1  0.701800  0.309700  0.490400  1
  F  F1232  1  0.298200  0.690300  0.490400  1
  F  F1233  1  0.309700  0.298200  0.509600  1
  F  F1234  1  0.690300  0.701800  0.509600  1
  F  F1235  1  0.691900  0.233100  0.454730  1
  F  F1236  1  0.308100  0.766900  0.454730  1
  F  F1237  1  0.233100  0.308100  0.545270  1
  F  F1238  1  0.766900  0.691900  0.545270  1
  F  F1239  1  0.613200  0.262000  0.485800  1
  F  F1240  1  0.386800  0.738000  0.485800  1
  F  F1241  1  0.262000  0.386800  0.514200  1
  F  F1242  1  0.738000  0.613200  0.514200  1
  F  F1243  1  0.539400  0.741500  0.002200  1
  F  F1244  1  0.460600  0.258500  0.002200  1
  F  F1245  1  0.741500  0.460600  0.997800  1
  F  F1246  1  0.258500  0.539400  0.997800  1
  F  F1247  1  0.464700  0.802200  0.020600  1
  F  F1248  1  0.535300  0.197800  0.020600  1
  F  F1249  1  0.802200  0.535300  0.979400  1
  F  F1250  1  0.197800  0.464700  0.979400  1
  F  F1251  1  0.559100  0.811300  0.041100  1
  F  F1252  1  0.440900  0.188700  0.041100  1
  F  F1253  1  0.811300  0.440900  0.958900  1
  F  F1254  1  0.188700  0.559100  0.958900  1
  F  F1255  1  0.535700  0.838000  0.987400  1
  F  F1256  1  0.464300  0.162000  0.987400  1
  F  F1257  1  0.838000  0.464300  0.012600  1
  F  F1258  1  0.162000  0.535700  0.012600  1
  F  F1259  1  0.500000  0.500000  0.286700  1
  F  F1260  1  0.500000  0.500000  0.713300  1
  F  F1261  1  0.535400  0.453300  0.240600  1
  F  F1262  1  0.464600  0.546700  0.240600  1
  F  F1263  1  0.453300  0.464600  0.759400  1
  F  F1264  1  0.546700  0.535400  0.759400  1
  F  F1265  1  0.478400  0.445800  0.240400  1
  F  F1266  1  0.521600  0.554200  0.240400  1
  F  F1267  1  0.445800  0.521600  0.759600  1
  F  F1268  1  0.554200  0.478400  0.759600  1
  F  F1269  1  0.442310  0.490600  0.240500  1
  F  F1270  1  0.557690  0.509400  0.240500  1
  F  F1271  1  0.490600  0.557690  0.759500  1
  F  F1272  1  0.509400  0.442310  0.759500  1
  F  F1273  1  0.500000  0.500000  0.211100  1
  F  F1274  1  0.500000  0.500000  0.788900  1
  F  F1275  1  0.554200  0.479300  0.257500  1
  F  F1276  1  0.445800  0.520700  0.257500  1
  F  F1277  1  0.479300  0.445800  0.742500  1
  F  F1278  1  0.520700  0.554200  0.742500  1
  F  F1279  1  0.509600  0.442600  0.257400  1
  F  F1280  1  0.490400  0.557400  0.257400  1
  F  F1281  1  0.442600  0.490400  0.742600  1
  F  F1282  1  0.557400  0.509600  0.742600  1
  F  F1283  1  0.455400  0.462800  0.257500  1
  F  F1284  1  0.544600  0.537200  0.257500  1
  F  F1285  1  0.462800  0.544600  0.742500  1
  F  F1286  1  0.537200  0.455400  0.742500  1
  F  F1287  1  0.770500  0.639600  0.242500  1
  F  F1288  1  0.229500  0.360400  0.242500  1
  F  F1289  1  0.639600  0.229500  0.757500  1
  F  F1290  1  0.360400  0.770500  0.757500  1
  F  F1291  1  0.806900  0.546200  0.229400  1
  F  F1292  1  0.193100  0.453800  0.229400  1
  F  F1293  1  0.546200  0.193100  0.770600  1
  F  F1294  1  0.453800  0.806900  0.770600  1
  F  F1295  1  0.792500  0.576100  0.282000  1
  F  F1296  1  0.207500  0.423900  0.282000  1
  F  F1297  1  0.576100  0.207500  0.718000  1
  F  F1298  1  0.423900  0.792500  0.718000  1
  F  F1299  1  0.649900  0.306200  0.497400  1
  F  F1300  1  0.350100  0.693800  0.497400  1
  F  F1301  1  0.306200  0.350100  0.502600  1
  F  F1302  1  0.693800  0.649900  0.502600  1
  F  F1303  1  0.620100  0.218800  0.477800  1
  F  F1304  1  0.379900  0.781200  0.477800  1
  F  F1305  1  0.218800  0.379900  0.522200  1
  F  F1306  1  0.781200  0.620100  0.522200  1
  F  F1307  1  0.706100  0.258100  0.458800  1
  F  F1308  1  0.293900  0.741900  0.458800  1
  F  F1309  1  0.258100  0.293900  0.541200  1
  F  F1310  1  0.741900  0.706100  0.541200  1
  F  F1311  1  0.469600  0.777400  0.018800  1
  F  F1312  1  0.530400  0.222600  0.018800  1
  F  F1313  1  0.777400  0.530400  0.981200  1
  F  F1314  1  0.222600  0.469600  0.981200  1
  F  F1315  1  0.538300  0.832500  0.047000  1
  F  F1316  1  0.461700  0.167500  0.047000  1
  F  F1317  1  0.832500  0.461700  0.953000  1
  F  F1318  1  0.167500  0.538300  0.953000  1
  F  F1319  1  0.567500  0.765800  0.007900  1
  F  F1320  1  0.432500  0.234200  0.007900  1
  F  F1321  1  0.765800  0.432500  0.992100  1
  F  F1322  1  0.234200  0.567500  0.992100  1
  F  F1323  1  0.521800  0.855400  0.993800  1
  F  F1324  1  0.478200  0.144600  0.993800  1
  F  F1325  1  0.855400  0.478200  0.006200  1
  F  F1326  1  0.144600  0.521800  0.006200  1
  F  F1327  1  0.549020  0.484460  0.519460  1.0
  F  F1328  1  0.450980  0.515540  0.519460  1.0
  F  F1329  1  0.484460  0.450980  0.480540  1.0
  F  F1330  1  0.515540  0.549020  0.480540  1.0
  F  F1331  1  0.539100  0.466000  0.020020  1.0
  F  F1332  1  0.460900  0.534000  0.020020  1.0
  F  F1333  1  0.466000  0.460900  0.979980  1.0
  F  F1334  1  0.534000  0.539100  0.979980  1.0
