
#######################################################################
#
#                 Cambridge Crystallographic Data Centre
#                                CCDC 
#
#######################################################################
#
# If this CIF has been generated from an entry in the Cambridge 
# Structural Database, then it will include bibliographic, chemical, 
# crystal, experimental, refinement or atomic coordinate data resulting 
# from the CCDC's data processing and validation procedures.
#
#######################################################################

data_DAHFUP
_chemical_formula_moiety         
'C264 H216 Cu8 N72 O12 16+,16(B1 F4 1-),2(C1 H3 N1 O2)'
_chemical_name_systematic        
'dodecakis(\m~2~-2,5-bis(3-(2-Pyridyl)pyrazolylmethyl)furan)-octa-copper(ii) hexadecakis(tetrafluoroborate) nitromethane solvate'
_symmetry_cell_setting           tetragonal
_symmetry_space_group_name_H-M   'P -4'
_symmetry_Int_Tables_number      81
_space_group_name_Hall           'P -4'
loop_
_symmetry_equiv_pos_site_id
_symmetry_equiv_pos_as_xyz
1 x,y,z
2 -x,-y,z
3 y,-x,-z
4 -y,x,-z
_cell_length_a                   22.1963(4)
_cell_length_b                   22.1963(4)
_cell_length_c                   40.2890(11)
_cell_angle_alpha                90
_cell_angle_beta                 90
_cell_angle_gamma                90
_cell_volume                     19849.4
_exptl_crystal_colour            green
_exptl_crystal_description       block
_cell_formula_units_Z            2
loop_
_atom_site_label
_atom_site_type_symbol
_atom_site_fract_x
_atom_site_fract_y
_atom_site_fract_z
Cu1 Cu 0.68754(4) 0.71695(4) 0.11464(2)
Cu2 Cu 0.73813(3) 0.28527(3) 0.142125(19)
Cu3 Cu 0.76896(3) 0.41032(4) 0.383022(19)
Cu4 Cu 0.58883(4) 0.79718(4) 0.35709(2)
N1 N 0.62429(17) 0.77426(18) 0.13198(10)
C1 C 0.6125(2) 0.83161(19) 0.11974(10)
H1 H 0.6349 0.8467 0.1014
C2 C 0.5680(2) 0.86686(16) 0.13425(13)
H2 H 0.5599 0.9061 0.1259
C3 C 0.5352(2) 0.8448(2) 0.16101(12)
H3 H 0.5047 0.8689 0.1709
C4 C 0.54697(18) 0.7874(2) 0.17326(10)
H4 H 0.5246 0.7723 0.1915
C5 C 0.59151(19) 0.75216(16) 0.15874(10)
N2 N 0.66589(19) 0.61166(17) 0.16990(11)
N3 N 0.65704(19) 0.66834(19) 0.15430(9)
C6 C 0.6070(2) 0.69678(18) 0.16968(11)
C7 C 0.58492(19) 0.6577(2) 0.19479(11)
H5 H 0.5516 0.6654 0.2090
C8 C 0.6213(2) 0.6051(2) 0.19492(11)
H6 H 0.6167 0.5714 0.2092
C9 C 0.7097(4) 0.5711(4) 0.16092(17)
H7 H 0.7201 0.5455 0.1802
H8 H 0.7465 0.5931 0.1541
N4 N 0.66968(17) 0.22801(15) 0.13206(9)
C10 C 0.65582(18) 0.17970(18) 0.15265(8)
H9 H 0.6740 0.1766 0.1739
C11 C 0.6154(2) 0.13587(16) 0.14209(11)
H10 H 0.6059 0.1029 0.1562
C12 C 0.58885(18) 0.14034(18) 0.11094(12)
H11 H 0.5612 0.1104 0.1037
C13 C 0.60271(19) 0.1886(2) 0.09035(9)
H12 H 0.5846 0.1917 0.0691
C14 C 0.64312(19) 0.23248(17) 0.10091(9)
N5 N 0.7115(2) 0.36681(17) 0.07036(10)
N6 N 0.69935(19) 0.32301(19) 0.09516(8)
C15 C 0.6583(2) 0.28046(18) 0.08170(11)
C16 C 0.6451(2) 0.2980(2) 0.04858(10)
H13 H 0.6189 0.2776 0.0337
C17 C 0.6780(2) 0.3513(2) 0.04158(8)
H14 H 0.6777 0.3729 0.0212
C18 C 0.7463(4) 0.4200(3) 0.07790(18)
H15 H 0.7632 0.4373 0.0573
H16 H 0.7801 0.4096 0.0929
C19 C 0.6893(2) 0.53393(18) 0.13410(10)
C20 C 0.63608(17) 0.5281(2) 0.11482(13)
H17 H 0.5996 0.5498 0.1181
C21 C 0.6469(2) 0.4843(2) 0.08986(12)
H18 H 0.6189 0.4714 0.0735
C22 C 0.7068(2) 0.46296(19) 0.09371(10)
O1 O 0.73303(16) 0.49365(18) 0.12105(10)
N7 N 0.74435(17) 0.65613(17) 0.09546(10)
C23 C 0.80331(18) 0.6515(2) 0.10679(10)
H19 H 0.8171 0.6770 0.1241
C24 C 0.84213(15) 0.6094(2) 0.09275(13)
H20 H 0.8824 0.6062 0.1005
C25 C 0.8220(2) 0.5721(2) 0.06737(12)
H21 H 0.8485 0.5434 0.0578
C26 C 0.7630(2) 0.5768(2) 0.05603(10)
H22 H 0.7493 0.5513 0.0387
C27 C 0.72421(15) 0.6188(2) 0.07007(10)
N8 N 0.56998(17) 0.6628(2) 0.06261(12)
N9 N 0.6281(2) 0.66622(19) 0.07727(10)
C28 C 0.66661(16) 0.6260(2) 0.05993(12)
C29 C 0.6323(2) 0.5977(2) 0.03457(11)
H23 H 0.6468 0.5687 0.0192
C30 C 0.5726(2) 0.6205(3) 0.03623(12)
H24 H 0.5401 0.6093 0.0222
C31 C 0.5229(3) 0.6918(4) 0.0770(2)
H25 H 0.4929 0.7020 0.0597
H26 H 0.5375 0.7300 0.0868
N10 N 0.80680(16) 0.34283(16) 0.15026(10)
C32 C 0.86387(18) 0.33836(19) 0.13626(10)
H27 H 0.8727 0.3066 0.1212
C33 C 0.90799(15) 0.3804(2) 0.14427(13)
H28 H 0.9470 0.3773 0.1347
C34 C 0.8951(2) 0.4268(2) 0.16627(14)
H29 H 0.9252 0.4555 0.1717
C35 C 0.8380(2) 0.43129(17) 0.18027(11)
H30 H 0.8291 0.4631 0.1953
C36 C 0.79386(17) 0.38930(19) 0.17226(10)
N11 N 0.63971(16) 0.3560(2) 0.18808(11)
N12 N 0.69610(19) 0.34588(17) 0.17240(9)
C37 C 0.73749(17) 0.3894(2) 0.18456(12)
C38 C 0.7067(3) 0.42639(19) 0.20777(11)
H31 H 0.7235 0.4592 0.2197
C39 C 0.6463(2) 0.4058(2) 0.20994(11)
H32 H 0.6156 0.4223 0.2236
C40 C 0.5880(3) 0.3268(4) 0.17943(19)
H33 H 0.5597 0.3286 0.1984
H34 H 0.5976 0.2838 0.1754
C41 C 0.4939(2) 0.6570(2) 0.10233(10)
C42 C 0.4841(3) 0.59509(19) 0.10924(14)
H35 H 0.4970 0.5622 0.0960
C43 C 0.4515(3) 0.59095(16) 0.13950(14)
H36 H 0.4389 0.5548 0.1500
C44 C 0.5588(2) 0.3496(2) 0.15129(9)
O2 O 0.46743(18) 0.69120(15) 0.12831(10)
N13 N 0.7196(2) 0.7782(2) 0.08089(10)
C45 C 0.6978(2) 0.7789(2) 0.04855(12)
H37 H 0.6656 0.7530 0.0424
C46 C 0.7230(3) 0.8176(3) 0.02524(10)
H38 H 0.7081 0.8181 0.0031
C47 C 0.7701(3) 0.8555(2) 0.03426(13)
H39 H 0.7874 0.8819 0.0183
C48 C 0.7919(2) 0.8548(2) 0.06660(14)
H40 H 0.8241 0.8807 0.0728
C49 C 0.7666(2) 0.8162(2) 0.08992(10)
N14 N 0.7881(2) 0.7796(3) 0.17506(11)
N15 N 0.7595(2) 0.7718(2) 0.14384(12)
C50 C 0.7845(3) 0.8142(3) 0.12135(11)
C51 C 0.8286(3) 0.8483(3) 0.13866(16)
H41 H 0.8524 0.8798 0.1296
C52 C 0.8309(3) 0.8269(3) 0.17186(14)
H42 H 0.8564 0.8416 0.1889
C53 C 0.7705(4) 0.7490(4) 0.2029(2)
H43 H 0.8065 0.7317 0.2139
H44 H 0.7439 0.7153 0.1964
N16 N 0.6001(2) 0.88074(19) 0.38096(13)
C54 C 0.6096(3) 0.8856(2) 0.41495(12)
H45 H 0.6201 0.8510 0.4275
C55 C 0.6039(3) 0.9412(3) 0.43053(13)
H46 H 0.6104 0.9445 0.4538
C56 C 0.5886(4) 0.9919(2) 0.4121(2)
H47 H 0.5847 1.0299 0.4228
C57 C 0.5791(3) 0.9870(2) 0.3781(2)
H48 H 0.5686 1.0217 0.3655
C58 C 0.5848(3) 0.9315(3) 0.36255(13)
N17 N 0.5770(3) 0.8742(3) 0.27968(12)
N18 N 0.5849(3) 0.8676(2) 0.31447(13)
C59 C 0.5793(3) 0.9254(3) 0.32924(16)
C60 C 0.5680(4) 0.9678(2) 0.3036(2)
H49 H 0.5624 1.0099 0.3064
C61 C 0.5666(4) 0.9362(3) 0.27295(17)
H50 H 0.5599 0.9534 0.2517
C62 C 0.5912(4) 0.8292(5) 0.2568(2)
H51 H 0.5723 0.8384 0.2351
H52 H 0.5754 0.7900 0.2646
C63 C 0.7378(2) 0.7883(3) 0.22722(12)
C64 C 0.7569(2) 0.8312(3) 0.25113(14)
H53 H 0.7974 0.8424 0.2556
C65 C 0.7049(3) 0.8545(3) 0.26715(12)
H54 H 0.7045 0.8839 0.2842
C66 C 0.6536(2) 0.8259(3) 0.25316(13)
O3 O 0.6739(2) 0.7850(2) 0.22848(11)
N19 N 0.79188(19) 0.22283(19) 0.11734(11)
C67 C 0.8004(2) 0.2254(2) 0.08319(11)
H55 H 0.7837 0.2578 0.0708
C68 C 0.8332(3) 0.1807(3) 0.06720(10)
H56 H 0.8390 0.1825 0.0439
C69 C 0.8576(3) 0.1334(3) 0.08536(16)
H57 H 0.8800 0.1028 0.0744
C70 C 0.8491(3) 0.1307(2) 0.11951(15)
H58 H 0.8657 0.0984 0.1319
C71 C 0.8162(2) 0.1755(2) 0.13550(10)
N20 N 0.7771(2) 0.2141(2) 0.21886(9)
N21 N 0.7781(2) 0.22519(17) 0.18415(10)
C72 C 0.8070(3) 0.1756(2) 0.16855(10)
C73 C 0.8238(4) 0.1339(2) 0.19362(15)
H59 H 0.8439 0.0966 0.1902
C74 C 0.8053(3) 0.1577(2) 0.22471(11)
H60 H 0.8109 0.1392 0.2457
C75 C 0.7582(3) 0.2585(4) 0.24122(18)
H61 H 0.7457 0.2399 0.2625
H62 H 0.7234 0.2809 0.2320
N22 N 0.8287(2) 0.3772(2) 0.41680(10)
C76 C 0.8118(2) 0.3607(3) 0.44875(12)
H63 H 0.7704 0.3611 0.4549
C77 C 0.8553(3) 0.3435(4) 0.47168(11)
H64 H 0.8437 0.3322 0.4935
C78 C 0.9157(3) 0.3430(4) 0.46268(16)
H65 H 0.9455 0.3313 0.4784
C79 C 0.9327(2) 0.3595(4) 0.43074(18)
H66 H 0.9740 0.3591 0.4246
C80 C 0.8891(2) 0.3766(3) 0.40780(12)
N23 N 0.8863(2) 0.4226(3) 0.32328(10)
N24 N 0.85854(15) 0.4014(2) 0.35281(12)
C81 C 0.9044(2) 0.3917(3) 0.37680(11)
C82 C 0.96052(17) 0.4070(4) 0.36210(16)
H67 H 0.9988 0.4048 0.3726
C83 C 0.9493(2) 0.4260(4) 0.32903(15)
H68 H 0.9788 0.4388 0.3135
C84 C 0.8535(3) 0.4323(3) 0.2935(2)
H69 H 0.8716 0.4670 0.2816
H70 H 0.8117 0.4434 0.2993
C85 C 0.80828(18) 0.29875(18) 0.24657(11)
C86 C 0.8663(2) 0.3067(2) 0.23242(12)
H71 H 0.8840 0.2822 0.2157
C87 C 0.89331(16) 0.3578(3) 0.24762(14)
H72 H 0.9322 0.3734 0.2429
C88 C 0.85194(19) 0.38132(19) 0.27116(12)
O4 O 0.79938(14) 0.34486(18) 0.27051(9)
N25 N 0.7449(2) 0.32697(16) 0.36736(10)
C89 C 0.7659(2) 0.2734(2) 0.38101(11)
H73 H 0.7895 0.2741 0.4007
C90 C 0.7523(3) 0.21878(17) 0.36589(15)
H74 H 0.7666 0.1822 0.3752
C91 C 0.7177(3) 0.21772(19) 0.33712(15)
H75 H 0.7084 0.1804 0.3268
C92 C 0.6968(2) 0.2713(3) 0.32346(11)
H76 H 0.6732 0.2706 0.3038
C93 C 0.7104(2) 0.32591(19) 0.33858(11)
N26 N 0.6969(2) 0.48483(17) 0.32592(10)
N27 N 0.71836(18) 0.43327(19) 0.34311(8)
C94 C 0.6947(2) 0.38137(17) 0.32715(12)
C95 C 0.6587(2) 0.4008(3) 0.30008(11)
H77 H 0.6374 0.3755 0.2851
C96 C 0.6600(2) 0.4648(3) 0.29932(10)
H78 H 0.6398 0.4898 0.2838
C97 C 0.7157(4) 0.5438(3) 0.33506(18)
H79 H 0.7092 0.5719 0.3163
H80 H 0.7592 0.5436 0.3405
N28 N 0.50115(15) 0.80598(18) 0.36952(10)
C98 C 0.4606(2) 0.8365(2) 0.34930(9)
H81 H 0.4711 0.8458 0.3270
C99 C 0.40464(19) 0.8534(2) 0.36166(12)
H82 H 0.3769 0.8742 0.3478
C100 C 0.38923(16) 0.8398(2) 0.39426(13)
H83 H 0.3510 0.8514 0.4027
C101 C 0.4298(2) 0.8093(2) 0.41448(10)
H84 H 0.4192 0.8000 0.4368
C102 C 0.48573(18) 0.79240(19) 0.40212(10)
N29 N 0.61956(18) 0.7194(2) 0.42939(11)
N30 N 0.5816(2) 0.7458(2) 0.40501(8)
C103 C 0.52623(17) 0.7612(2) 0.42048(11)
C104 C 0.5300(2) 0.7443(3) 0.45442(11)
H85 H 0.4992 0.7494 0.4706
C105 C 0.5876(3) 0.7185(3) 0.45993(9)
H86 H 0.6023 0.7033 0.4804
C106 C 0.6724(4) 0.6910(4) 0.4201(2)
H87 H 0.6974 0.6833 0.4400
H88 H 0.6955 0.7175 0.4050
C107 C 0.6813(3) 0.5634(2) 0.36365(11)
C108 C 0.6323(3) 0.5416(2) 0.38290(16)
H89 H 0.6120 0.5043 0.3798
C109 C 0.6189(2) 0.5854(3) 0.40751(14)
H90 H 0.5881 0.5825 0.4238
C110 C 0.6596(3) 0.6342(2) 0.40348(11)
O5 O 0.6981(2) 0.62060(19) 0.37637(10)
N31 N 0.7883(2) 0.49336(18) 0.40033(11)
C111 C 0.8345(2) 0.5287(2) 0.38756(12)
H91 H 0.8562 0.5157 0.3685
C112 C 0.8490(2) 0.5831(2) 0.40264(16)
H92 H 0.8806 0.6073 0.3939
C113 C 0.8174(3) 0.6022(2) 0.43048(15)
H93 H 0.8273 0.6394 0.4408
C114 C 0.7711(2) 0.5669(2) 0.44325(10)
H94 H 0.7495 0.5799 0.4623
C115 C 0.75662(19) 0.5124(2) 0.42818(11)
N32 N 0.6444(2) 0.39799(18) 0.43628(12)
N33 N 0.69564(19) 0.42446(19) 0.42107(9)
C116 C 0.7103(2) 0.4776(2) 0.43896(12)
C117 C 0.6681(3) 0.4839(2) 0.46522(11)
H95 H 0.6673 0.5156 0.4811
C118 C 0.6274(2) 0.4348(2) 0.46356(12)
H96 H 0.5945 0.4277 0.4781
C119 C 0.6165(4) 0.3485(4) 0.4223(2)
H97 H 0.5949 0.3259 0.4399
H98 H 0.6475 0.3215 0.4128
N34 N 0.67628(15) 0.7882(2) 0.34792(10)
C120 C 0.7217(2) 0.8248(2) 0.36044(12)
H99 H 0.7121 0.8564 0.3755
C121 C 0.78117(18) 0.8153(2) 0.35097(15)
H100 H 0.8122 0.8403 0.3595
C122 C 0.79519(16) 0.7691(3) 0.32898(15)
H101 H 0.8358 0.7626 0.3225
C123 C 0.7498(2) 0.7325(2) 0.31646(12)
H102 H 0.7593 0.7009 0.3014
C124 C 0.69030(19) 0.74204(19) 0.32593(11)
N35 N 0.54373(15) 0.6866(2) 0.30917(11)
N36 N 0.58567(18) 0.72339(18) 0.32643(9)
C125 C 0.64417(15) 0.7099(2) 0.31426(11)
C126 C 0.6384(2) 0.6648(2) 0.28948(11)
H103 H 0.6704 0.6473 0.2772
C127 C 0.5763(2) 0.65038(19) 0.28634(11)
H104 H 0.5595 0.6216 0.2716
C128 C 0.4829(3) 0.6844(3) 0.31676(19)
H105 H 0.4608 0.6652 0.2982
H106 H 0.4673 0.7259 0.3194
C129 C 0.5756(2) 0.3646(2) 0.39746(11)
C130 C 0.5357(3) 0.4136(2) 0.39216(17)
H107 H 0.5298 0.4468 0.4067
C131 C 0.5062(3) 0.4045(2) 0.36130(18)
H108 H 0.4771 0.4304 0.3516
C132 C 0.4721(2) 0.6503(2) 0.34752(11)
O6 O 0.57078(19) 0.32508(16) 0.36986(11)
Cu1A Cu 0.31246(4) 0.28305(4) 0.11464(2)
Cu2A Cu 0.26187(3) 0.71473(3) 0.142125(19)
Cu3A Cu 0.23104(3) 0.58968(4) 0.383022(19)
Cu4A Cu 0.41117(4) 0.20282(4) 0.35709(2)
N1A N 0.37571(17) 0.22574(18) 0.13198(10)
C1A C 0.3875(2) 0.16839(19) 0.11974(10)
H1A H 0.3651 0.1533 0.1014
C2A C 0.4320(2) 0.13314(16) 0.13425(13)
H2A H 0.4401 0.0939 0.1259
C3A C 0.4648(2) 0.1552(2) 0.16101(12)
H3A H 0.4953 0.1311 0.1709
C4A C 0.45303(18) 0.2126(2) 0.17326(10)
H4A H 0.4754 0.2277 0.1915
C5A C 0.40849(19) 0.24784(16) 0.15874(10)
N2A N 0.33411(19) 0.38834(17) 0.16990(11)
N3A N 0.34296(19) 0.33166(19) 0.15430(9)
C6A C 0.3930(2) 0.30322(18) 0.16968(11)
C7A C 0.41508(19) 0.3423(2) 0.19479(11)
H5A H 0.4484 0.3346 0.2090
C8A C 0.3787(2) 0.3949(2) 0.19492(11)
H6A H 0.3833 0.4286 0.2092
C9A C 0.2903(4) 0.4289(4) 0.16092(17)
H7A H 0.2799 0.4545 0.1802
H8A H 0.2535 0.4069 0.1541
N4A N 0.33032(17) 0.77199(15) 0.13206(9)
C10A C 0.34418(18) 0.82030(18) 0.15265(8)
H9A H 0.3260 0.8234 0.1739
C11A C 0.3846(2) 0.86413(16) 0.14209(11)
H10A H 0.3941 0.8971 0.1562
C12A C 0.41115(18) 0.85966(18) 0.11094(12)
H11A H 0.4388 0.8896 0.1037
C13A C 0.39729(19) 0.8114(2) 0.09035(9)
H12A H 0.4154 0.8083 0.0691
C14A C 0.35688(19) 0.76752(17) 0.10091(9)
N5A N 0.2885(2) 0.63319(17) 0.07036(10)
N6A N 0.30065(19) 0.67699(19) 0.09516(8)
C15A C 0.3417(2) 0.71954(18) 0.08170(11)
C16A C 0.3549(2) 0.7020(2) 0.04858(10)
H13A H 0.3811 0.7224 0.0337
C17A C 0.3220(2) 0.6487(2) 0.04158(8)
H14A H 0.3223 0.6271 0.0212
C18A C 0.2537(4) 0.5800(3) 0.07790(18)
H15A H 0.2368 0.5627 0.0573
H16A H 0.2199 0.5904 0.0929
C19A C 0.3107(2) 0.46607(18) 0.13410(10)
C20A C 0.36392(17) 0.4719(2) 0.11482(13)
H17A H 0.4004 0.4502 0.1181
C21A C 0.3531(2) 0.5157(2) 0.08986(12)
H18A H 0.3811 0.5286 0.0735
C22A C 0.2932(2) 0.53704(19) 0.09371(10)
O1A O 0.26697(16) 0.50635(18) 0.12105(10)
N7A N 0.25565(17) 0.34387(17) 0.09546(10)
C23A C 0.19669(18) 0.3485(2) 0.10679(10)
H19A H 0.1829 0.3230 0.1241
C24A C 0.15787(15) 0.3906(2) 0.09275(13)
H20A H 0.1176 0.3938 0.1005
C25A C 0.1780(2) 0.4279(2) 0.06737(12)
H21A H 0.1515 0.4566 0.0578
C26A C 0.2370(2) 0.4232(2) 0.05603(10)
H22A H 0.2507 0.4487 0.0387
C27A C 0.27579(15) 0.3812(2) 0.07007(10)
N8A N 0.43002(17) 0.3372(2) 0.06261(12)
N9A N 0.3719(2) 0.33378(19) 0.07727(10)
C28A C 0.33339(16) 0.3740(2) 0.05993(12)
C29A C 0.3677(2) 0.4023(2) 0.03457(11)
H23A H 0.3532 0.4313 0.0192
C30A C 0.4274(2) 0.3795(3) 0.03623(12)
H24A H 0.4599 0.3907 0.0222
C31A C 0.4771(3) 0.3082(4) 0.0770(2)
H25A H 0.5071 0.2980 0.0597
H26A H 0.4625 0.2700 0.0868
N10A N 0.19320(16) 0.65717(16) 0.15026(10)
C32A C 0.13613(18) 0.66164(19) 0.13626(10)
H27A H 0.1273 0.6934 0.1212
C33A C 0.09201(15) 0.6196(2) 0.14427(13)
H28A H 0.0530 0.6227 0.1347
C34A C 0.1049(2) 0.5732(2) 0.16627(14)
H29A H 0.0748 0.5445 0.1717
C35A C 0.1620(2) 0.56871(17) 0.18027(11)
H30A H 0.1709 0.5369 0.1953
C36A C 0.20614(17) 0.61070(19) 0.17226(10)
N11A N 0.36029(16) 0.6440(2) 0.18808(11)
N12A N 0.30390(19) 0.65412(17) 0.17240(9)
C37A C 0.26251(17) 0.6106(2) 0.18456(12)
C38A C 0.2933(3) 0.57361(19) 0.20777(11)
H31A H 0.2765 0.5408 0.2197
C39A C 0.3537(2) 0.5942(2) 0.20994(11)
H32A H 0.3844 0.5777 0.2236
C40A C 0.4120(3) 0.6732(4) 0.17943(19)
H33A H 0.4403 0.6714 0.1984
H34A H 0.4024 0.7162 0.1754
C41A C 0.5061(2) 0.3430(2) 0.10233(10)
C42A C 0.5159(3) 0.40491(19) 0.10924(14)
H35A H 0.5030 0.4378 0.0960
C43A C 0.5485(3) 0.40905(16) 0.13950(14)
H36A H 0.5611 0.4452 0.1500
C44A C 0.4412(2) 0.6504(2) 0.15129(9)
O2A O 0.53257(18) 0.30880(15) 0.12831(10)
N13A N 0.2804(2) 0.2218(2) 0.08089(10)
C45A C 0.3022(2) 0.2211(2) 0.04855(12)
H37A H 0.3344 0.2470 0.0424
C46A C 0.2770(3) 0.1824(3) 0.02524(10)
H38A H 0.2919 0.1819 0.0031
C47A C 0.2299(3) 0.1445(2) 0.03426(13)
H39A H 0.2126 0.1181 0.0183
C48A C 0.2081(2) 0.1452(2) 0.06660(14)
H40A H 0.1759 0.1193 0.0728
C49A C 0.2334(2) 0.1838(2) 0.08992(10)
N14A N 0.2119(2) 0.2204(3) 0.17506(11)
N15A N 0.2405(2) 0.2282(2) 0.14384(12)
C50A C 0.2155(3) 0.1858(3) 0.12135(11)
C51A C 0.1714(3) 0.1517(3) 0.13866(16)
H41A H 0.1476 0.1202 0.1296
C52A C 0.1691(3) 0.1731(3) 0.17186(14)
H42A H 0.1436 0.1584 0.1889
C53A C 0.2295(4) 0.2510(4) 0.2029(2)
H43A H 0.1935 0.2683 0.2139
H44A H 0.2561 0.2847 0.1964
N16A N 0.3999(2) 0.11926(19) 0.38096(13)
C54A C 0.3904(3) 0.1144(2) 0.41495(12)
H45A H 0.3799 0.1490 0.4275
C55A C 0.3961(3) 0.0588(3) 0.43053(13)
H46A H 0.3896 0.0555 0.4538
C56A C 0.4114(4) 0.0081(2) 0.4121(2)
H47A H 0.4153 -0.0299 0.4228
C57A C 0.4209(3) 0.0130(2) 0.3781(2)
H48A H 0.4314 -0.0217 0.3655
C58A C 0.4152(3) 0.0685(3) 0.36255(13)
N17A N 0.4230(3) 0.1258(3) 0.27968(12)
N18A N 0.4151(3) 0.1324(2) 0.31447(13)
C59A C 0.4207(3) 0.0746(3) 0.32924(16)
C60A C 0.4320(4) 0.0322(2) 0.3036(2)
H49A H 0.4376 -0.0099 0.3064
C61A C 0.4334(4) 0.0638(3) 0.27295(17)
H50A H 0.4401 0.0466 0.2517
C62A C 0.4088(4) 0.1708(5) 0.2568(2)
H51A H 0.4277 0.1616 0.2351
H52A H 0.4246 0.2100 0.2646
C63A C 0.2622(2) 0.2117(3) 0.22722(12)
C64A C 0.2431(2) 0.1688(3) 0.25113(14)
H53A H 0.2026 0.1576 0.2556
C65A C 0.2951(3) 0.1455(3) 0.26715(12)
H54A H 0.2955 0.1161 0.2842
C66A C 0.3464(2) 0.1741(3) 0.25316(13)
O3A O 0.3261(2) 0.2150(2) 0.22848(11)
N19A N 0.20812(19) 0.77717(19) 0.11734(11)
C67A C 0.1996(2) 0.7746(2) 0.08319(11)
H55A H 0.2163 0.7422 0.0708
C68A C 0.1668(3) 0.8193(3) 0.06720(10)
H56A H 0.1610 0.8175 0.0439
C69A C 0.1424(3) 0.8666(3) 0.08536(16)
H57A H 0.1200 0.8972 0.0744
C70A C 0.1509(3) 0.8693(2) 0.11951(15)
H58A H 0.1343 0.9016 0.1319
C71A C 0.1838(2) 0.8245(2) 0.13550(10)
N20A N 0.2229(2) 0.7859(2) 0.21886(9)
N21A N 0.2219(2) 0.77481(17) 0.18415(10)
C72A C 0.1930(3) 0.8244(2) 0.16855(10)
C73A C 0.1762(4) 0.8661(2) 0.19362(15)
H59A H 0.1561 0.9034 0.1902
C74A C 0.1947(3) 0.8423(2) 0.22471(11)
H60A H 0.1891 0.8608 0.2457
C75A C 0.2418(3) 0.7415(4) 0.24122(18)
H61A H 0.2543 0.7601 0.2625
H62A H 0.2766 0.7191 0.2320
N22A N 0.1713(2) 0.6228(2) 0.41680(10)
C76A C 0.1882(2) 0.6393(3) 0.44875(12)
H63A H 0.2296 0.6389 0.4549
C77A C 0.1447(3) 0.6565(4) 0.47168(11)
H64A H 0.1563 0.6678 0.4935
C78A C 0.0843(3) 0.6570(4) 0.46268(16)
H65A H 0.0545 0.6687 0.4784
C79A C 0.0673(2) 0.6405(4) 0.43074(18)
H66A H 0.0260 0.6409 0.4246
C80A C 0.1109(2) 0.6234(3) 0.40780(12)
N23A N 0.1137(2) 0.5774(3) 0.32328(10)
N24A N 0.14146(15) 0.5986(2) 0.35281(12)
C81A C 0.0956(2) 0.6083(3) 0.37680(11)
C82A C 0.03948(17) 0.5930(4) 0.36210(16)
H67A H 0.0012 0.5952 0.3726
C83A C 0.0507(2) 0.5740(4) 0.32903(15)
H68A H 0.0212 0.5612 0.3135
C84A C 0.1465(3) 0.5677(3) 0.2935(2)
H69A H 0.1284 0.5330 0.2816
H70A H 0.1883 0.5566 0.2993
C85A C 0.19172(18) 0.70125(18) 0.24657(11)
C86A C 0.1337(2) 0.6933(2) 0.23242(12)
H71A H 0.1160 0.7178 0.2157
C87A C 0.10669(16) 0.6422(3) 0.24762(14)
H72A H 0.0678 0.6266 0.2429
C88A C 0.14806(19) 0.61868(19) 0.27116(12)
O4A O 0.20062(14) 0.65514(18) 0.27051(9)
N25A N 0.2551(2) 0.67303(16) 0.36736(10)
C89A C 0.2341(2) 0.7266(2) 0.38101(11)
H73A H 0.2105 0.7259 0.4007
C90A C 0.2477(3) 0.78122(17) 0.36589(15)
H74A H 0.2334 0.8178 0.3752
C91A C 0.2823(3) 0.78228(19) 0.33712(15)
H75A H 0.2916 0.8196 0.3268
C92A C 0.3032(2) 0.7287(3) 0.32346(11)
H76A H 0.3268 0.7294 0.3038
C93A C 0.2896(2) 0.67409(19) 0.33858(11)
N26A N 0.3031(2) 0.51517(17) 0.32592(10)
N27A N 0.28164(18) 0.56673(19) 0.34311(8)
C94A C 0.3053(2) 0.61863(17) 0.32715(12)
C95A C 0.3413(2) 0.5992(3) 0.30008(11)
H77A H 0.3626 0.6245 0.2851
C96A C 0.3400(2) 0.5352(3) 0.29932(10)
H78A H 0.3602 0.5102 0.2838
C97A C 0.2843(4) 0.4562(3) 0.33506(18)
H79A H 0.2908 0.4281 0.3163
H80A H 0.2408 0.4564 0.3405
N28A N 0.49885(15) 0.19402(18) 0.36952(10)
C98A C 0.5394(2) 0.1635(2) 0.34930(9)
H81A H 0.5289 0.1542 0.3270
C99A C 0.59536(19) 0.1466(2) 0.36166(12)
H82A H 0.6231 0.1258 0.3478
C100A C 0.61077(16) 0.1602(2) 0.39426(13)
H83A H 0.6490 0.1486 0.4027
C101A C 0.5702(2) 0.1907(2) 0.41448(10)
H84A H 0.5808 0.2000 0.4368
C102A C 0.51427(18) 0.20760(19) 0.40212(10)
N29A N 0.38044(18) 0.2806(2) 0.42939(11)
N30A N 0.4184(2) 0.2542(2) 0.40501(8)
C103A C 0.47377(17) 0.2388(2) 0.42048(11)
C104A C 0.4700(2) 0.2557(3) 0.45442(11)
H85A H 0.5008 0.2506 0.4706
C105A C 0.4124(3) 0.2815(3) 0.45993(9)
H86A H 0.3977 0.2967 0.4804
C106A C 0.3276(4) 0.3090(4) 0.4201(2)
H87A H 0.3026 0.3167 0.4400
H88A H 0.3045 0.2825 0.4050
C107A C 0.3187(3) 0.4366(2) 0.36365(11)
C108A C 0.3677(3) 0.4584(2) 0.38290(16)
H89A H 0.3880 0.4957 0.3798
C109A C 0.3811(2) 0.4146(3) 0.40751(14)
H90A H 0.4119 0.4175 0.4238
C110A C 0.3404(3) 0.3658(2) 0.40348(11)
O5A O 0.3019(2) 0.37940(19) 0.37637(10)
N31A N 0.2117(2) 0.50664(18) 0.40033(11)
C111A C 0.1655(2) 0.4713(2) 0.38756(12)
H91A H 0.1438 0.4843 0.3685
C112A C 0.1510(2) 0.4169(2) 0.40264(16)
H92A H 0.1194 0.3927 0.3939
C113A C 0.1826(3) 0.3978(2) 0.43048(15)
H93A H 0.1727 0.3606 0.4408
C114A C 0.2289(2) 0.4331(2) 0.44325(10)
H94A H 0.2505 0.4201 0.4623
C115A C 0.24338(19) 0.4876(2) 0.42818(11)
N32A N 0.3556(2) 0.60201(18) 0.43628(12)
N33A N 0.30436(19) 0.57554(19) 0.42107(9)
C116A C 0.2897(2) 0.5224(2) 0.43896(12)
C117A C 0.3319(3) 0.5161(2) 0.46522(11)
H95A H 0.3327 0.4844 0.4811
C118A C 0.3726(2) 0.5652(2) 0.46356(12)
H96A H 0.4055 0.5723 0.4781
C119A C 0.3835(4) 0.6515(4) 0.4223(2)
H97A H 0.4051 0.6741 0.4399
H98A H 0.3525 0.6785 0.4128
N34A N 0.32372(15) 0.2118(2) 0.34792(10)
C120A C 0.2783(2) 0.1752(2) 0.36044(12)
H99A H 0.2879 0.1436 0.3755
C121A C 0.21883(18) 0.1847(2) 0.35097(15)
H100A H 0.1878 0.1597 0.3595
C122A C 0.20481(16) 0.2309(3) 0.32898(15)
H101A H 0.1642 0.2374 0.3225
C123A C 0.2502(2) 0.2675(2) 0.31646(12)
H102A H 0.2407 0.2991 0.3014
C124A C 0.30970(19) 0.25796(19) 0.32593(11)
N35A N 0.45627(15) 0.3134(2) 0.30917(11)
N36A N 0.41433(18) 0.27661(18) 0.32643(9)
C125A C 0.35583(15) 0.2901(2) 0.31426(11)
C126A C 0.3616(2) 0.3352(2) 0.28948(11)
H103A H 0.3296 0.3527 0.2772
C127A C 0.4237(2) 0.34962(19) 0.28634(11)
H104A H 0.4405 0.3784 0.2716
C128A C 0.5171(3) 0.3156(3) 0.31676(19)
H105A H 0.5392 0.3348 0.2982
H106A H 0.5327 0.2741 0.3194
C129A C 0.4244(2) 0.6354(2) 0.39746(11)
C130A C 0.4643(3) 0.5864(2) 0.39216(17)
H107A H 0.4702 0.5532 0.4067
C131A C 0.4938(3) 0.5955(2) 0.36130(18)
H108A H 0.5229 0.5696 0.3516
C132A C 0.5279(2) 0.3497(2) 0.34752(11)
O6A O 0.42922(19) 0.67492(16) 0.36986(11)
B2 B 0.7725(4) 0.5788(5) 0.2485(3)
F5 F 0.7149(2) 0.5587(2) 0.24729(14)
F6 F 0.8035(4) 0.5768(5) 0.2156(2)
F7 F 0.7783(5) 0.6391(4) 0.2572(3)
F8 F 0.8080(5) 0.5435(5) 0.2699(3)
B3 B 0.5694(4) 0.2381(4) 0.2482(2)
F9 F 0.5808(2) 0.2040(2) 0.22012(12)
F10 F 0.6149(2) 0.2773(2) 0.25411(12)
F11 F 0.5614(2) 0.1999(2) 0.27582(13)
F12 F 0.5168(2) 0.2699(2) 0.24378(12)
B4 B 0.6739(5) 0.2532(5) 0.4858(3)
F13 F 0.6969(3) 0.2194(3) 0.51131(16)
F14 F 0.7018(4) 0.3097(3) 0.4904(2)
F15 F 0.6919(4) 0.2331(4) 0.45473(19)
F16 F 0.6132(3) 0.2620(4) 0.4858(2)
B5 B 0.5252(4) 0.8046(4) 0.0144(2)
F17 F 0.5394(5) 0.7415(4) 0.0022(2)
F18 F 0.4647(3) 0.8022(5) 0.0206(2)
F19 F 0.5591(5) 0.8113(5) 0.0411(2)
F20 F 0.5357(4) 0.8380(4) -0.0126(2)
B6 B 0.5000 0.5000 0.5000
F21 F 0.54902(19) 0.48446(19) 0.51946(11)
F21A F 0.45098(19) 0.51554(19) 0.51946(11)
F21B F 0.48446(19) 0.45098(19) 0.48054(11)
F21C F 0.51554(19) 0.54902(19) 0.48054(11)
B7 B 0.5000 0.5000 0.0000
F22 F 0.5391(2) 0.4660(2) 0.02002(12)
F22A F 0.4609(2) 0.5340(2) 0.02002(12)
F22B F 0.4660(2) 0.4609(2) -0.02002(12)
F22C F 0.5340(2) 0.5391(2) -0.02002(12)
C133 C 0.9343(5) 0.3635(5) 0.0191(3)
H109 H 0.9153 0.3785 -0.0013
H110 H 0.9429 0.3204 0.0167
H111 H 0.9720 0.3854 0.0230
N37 N 0.8922(3) 0.3730(3) 0.04808(17)
O7 O 0.8513(3) 0.3372(3) 0.04908(15)
O8 O 0.8994(3) 0.4141(3) 0.06757(16)
B1? B 0.5000 0.5000 0.2524(2)
F1? F 0.5000 0.5000 0.2867(2)
F2? F 0.5354(6) 0.4533(5) 0.2406(2)
F3? F 0.4784(7) 0.4458(3) 0.2404(2)
F4? F 0.44231(19) 0.4906(8) 0.2405(2)
B8? B 0.5000 0.5000 0.2453(5)
F23? F 0.5000 0.5000 0.2111(5)
F24? F 0.5542(6) 0.4793(14) 0.2575(5)
F25? F 0.5096(15) 0.4426(3) 0.2574(5)
F26? F 0.4554(10) 0.4628(12) 0.2575(5)
F27? F 0.7705(5) 0.6396(4) 0.2425(3)
F28? F 0.8069(5) 0.5462(5) 0.2294(3)
F29? F 0.7925(5) 0.5761(6) 0.2820(3)
F30? F 0.6499(8) 0.3062(6) 0.4974(4)
F31? F 0.6201(7) 0.2188(8) 0.4778(4)
F32? F 0.7061(8) 0.2581(9) 0.4588(4)
F33? F 0.4696(4) 0.7774(5) 0.0188(2)
F34? F 0.5383(5) 0.8325(5) 0.0470(2)
F35? F 0.5675(5) 0.7658(5) 0.0079(3)
F36? F 0.5218(5) 0.8554(5) -0.0062(3)
loop_
_geom_bond_atom_site_label_1
_geom_bond_atom_site_label_2
_geom_bond_site_symmetry_1
_geom_bond_site_symmetry_2
Cu1 N1 1_555 1_555
Cu2 N4 1_555 1_555
Cu3 N22 1_555 1_555
Cu4 N16 1_555 1_555
N1 C1 1_555 1_555
C1 H1 1_555 1_555
C2 C1 1_555 1_555
H2 C2 1_555 1_555
C3 C2 1_555 1_555
H3 C3 1_555 1_555
C4 C3 1_555 1_555
H4 C4 1_555 1_555
C5 N1 1_555 1_555
N2 N3 1_555 1_555
N3 Cu1 1_555 1_555
C6 C5 1_555 1_555
C7 C6 1_555 1_555
H5 C7 1_555 1_555
C8 N2 1_555 1_555
H6 C8 1_555 1_555
C9 N2 1_555 1_555
H7 C9 1_555 1_555
H8 C9 1_555 1_555
N4 C10 1_555 1_555
C10 H9 1_555 1_555
C11 C10 1_555 1_555
H10 C11 1_555 1_555
C12 C11 1_555 1_555
H11 C12 1_555 1_555
C13 C12 1_555 1_555
H12 C13 1_555 1_555
C14 N4 1_555 1_555
N5 N6 1_555 1_555
N6 Cu2 1_555 1_555
C15 C14 1_555 1_555
C16 C15 1_555 1_555
H13 C16 1_555 1_555
C17 N5 1_555 1_555
H14 C17 1_555 1_555
C18 N5 1_555 1_555
H15 C18 1_555 1_555
H16 C18 1_555 1_555
C19 C9 1_555 1_555
C20 C19 1_555 1_555
H17 C20 1_555 1_555
C21 C20 1_555 1_555
H18 C21 1_555 1_555
C22 C18 1_555 1_555
O1 C19 1_555 1_555
N7 Cu1 1_555 1_555
C23 N7 1_555 1_555
H19 C23 1_555 1_555
C24 C23 1_555 1_555
H20 C24 1_555 1_555
C25 C24 1_555 1_555
H21 C25 1_555 1_555
C26 C25 1_555 1_555
H22 C26 1_555 1_555
C27 N7 1_555 1_555
N8 N9 1_555 1_555
N9 Cu1 1_555 1_555
C28 C27 1_555 1_555
C29 C28 1_555 1_555
H23 C29 1_555 1_555
C30 N8 1_555 1_555
H24 C30 1_555 1_555
C31 N8 1_555 1_555
H25 C31 1_555 1_555
H26 C31 1_555 1_555
N10 Cu2 1_555 1_555
C32 N10 1_555 1_555
H27 C32 1_555 1_555
C33 C32 1_555 1_555
H28 C33 1_555 1_555
C34 C33 1_555 1_555
H29 C34 1_555 1_555
C35 C34 1_555 1_555
H30 C35 1_555 1_555
C36 N10 1_555 1_555
N11 N12 1_555 1_555
N12 Cu2 1_555 1_555
C37 C36 1_555 1_555
C38 C37 1_555 1_555
H31 C38 1_555 1_555
C39 N11 1_555 1_555
H32 C39 1_555 1_555
C40 N11 1_555 1_555
H33 C40 1_555 1_555
H34 C40 1_555 1_555
C41 C31 1_555 1_555
C42 C41 1_555 1_555
H35 C42 1_555 1_555
C43 C42 1_555 1_555
H36 C43 1_555 1_555
C44 C40 1_555 1_555
O2 C41 1_555 1_555
N13 Cu1 1_555 1_555
C45 N13 1_555 1_555
H37 C45 1_555 1_555
C46 C45 1_555 1_555
H38 C46 1_555 1_555
C47 C46 1_555 1_555
H39 C47 1_555 1_555
C48 C47 1_555 1_555
H40 C48 1_555 1_555
C49 N13 1_555 1_555
N14 N15 1_555 1_555
N15 Cu1 1_555 1_555
C50 C49 1_555 1_555
C51 C50 1_555 1_555
H41 C51 1_555 1_555
C52 N14 1_555 1_555
H42 C52 1_555 1_555
C53 N14 1_555 1_555
H43 C53 1_555 1_555
H44 C53 1_555 1_555
N16 C54 1_555 1_555
C54 H45 1_555 1_555
C55 C54 1_555 1_555
H46 C55 1_555 1_555
C56 C55 1_555 1_555
H47 C56 1_555 1_555
C57 C56 1_555 1_555
H48 C57 1_555 1_555
C58 N16 1_555 1_555
N17 N18 1_555 1_555
N18 Cu4 1_555 1_555
C59 C58 1_555 1_555
C60 C59 1_555 1_555
H49 C60 1_555 1_555
C61 N17 1_555 1_555
H50 C61 1_555 1_555
C62 N17 1_555 1_555
H51 C62 1_555 1_555
H52 C62 1_555 1_555
C63 C53 1_555 1_555
C64 C63 1_555 1_555
H53 C64 1_555 1_555
C65 C64 1_555 1_555
H54 C65 1_555 1_555
C66 C62 1_555 1_555
O3 C63 1_555 1_555
N19 Cu2 1_555 1_555
C67 N19 1_555 1_555
H55 C67 1_555 1_555
C68 C67 1_555 1_555
H56 C68 1_555 1_555
C69 C68 1_555 1_555
H57 C69 1_555 1_555
C70 C69 1_555 1_555
H58 C70 1_555 1_555
C71 N19 1_555 1_555
N20 N21 1_555 1_555
N21 Cu2 1_555 1_555
C72 C71 1_555 1_555
C73 C72 1_555 1_555
H59 C73 1_555 1_555
C74 N20 1_555 1_555
H60 C74 1_555 1_555
C75 N20 1_555 1_555
H61 C75 1_555 1_555
H62 C75 1_555 1_555
N22 C76 1_555 1_555
C76 H63 1_555 1_555
C77 C76 1_555 1_555
H64 C77 1_555 1_555
C78 C77 1_555 1_555
H65 C78 1_555 1_555
C79 C78 1_555 1_555
H66 C79 1_555 1_555
C80 N22 1_555 1_555
N23 N24 1_555 1_555
N24 Cu3 1_555 1_555
C81 C80 1_555 1_555
C82 C81 1_555 1_555
H67 C82 1_555 1_555
C83 N23 1_555 1_555
H68 C83 1_555 1_555
C84 N23 1_555 1_555
H69 C84 1_555 1_555
H70 C84 1_555 1_555
C85 C75 1_555 1_555
C86 C85 1_555 1_555
H71 C86 1_555 1_555
C87 C86 1_555 1_555
H72 C87 1_555 1_555
C88 C84 1_555 1_555
O4 C85 1_555 1_555
N25 Cu3 1_555 1_555
C89 N25 1_555 1_555
H73 C89 1_555 1_555
C90 C89 1_555 1_555
H74 C90 1_555 1_555
C91 C90 1_555 1_555
H75 C91 1_555 1_555
C92 C91 1_555 1_555
H76 C92 1_555 1_555
C93 N25 1_555 1_555
N26 N27 1_555 1_555
N27 Cu3 1_555 1_555
C94 C93 1_555 1_555
C95 C94 1_555 1_555
H77 C95 1_555 1_555
C96 N26 1_555 1_555
H78 C96 1_555 1_555
C97 N26 1_555 1_555
H79 C97 1_555 1_555
H80 C97 1_555 1_555
N28 Cu4 1_555 1_555
C98 N28 1_555 1_555
H81 C98 1_555 1_555
C99 C98 1_555 1_555
H82 C99 1_555 1_555
C100 C99 1_555 1_555
H83 C100 1_555 1_555
C101 C100 1_555 1_555
H84 C101 1_555 1_555
C102 N28 1_555 1_555
N29 N30 1_555 1_555
N30 Cu4 1_555 1_555
C103 C102 1_555 1_555
C104 C103 1_555 1_555
H85 C104 1_555 1_555
C105 N29 1_555 1_555
H86 C105 1_555 1_555
C106 N29 1_555 1_555
H87 C106 1_555 1_555
H88 C106 1_555 1_555
C107 C97 1_555 1_555
C108 C107 1_555 1_555
H89 C108 1_555 1_555
C109 C108 1_555 1_555
H90 C109 1_555 1_555
C110 C106 1_555 1_555
O5 C107 1_555 1_555
N31 Cu3 1_555 1_555
C111 N31 1_555 1_555
H91 C111 1_555 1_555
C112 C111 1_555 1_555
H92 C112 1_555 1_555
C113 C112 1_555 1_555
H93 C113 1_555 1_555
C114 C113 1_555 1_555
H94 C114 1_555 1_555
C115 N31 1_555 1_555
N32 N33 1_555 1_555
N33 Cu3 1_555 1_555
C116 C115 1_555 1_555
C117 C116 1_555 1_555
H95 C117 1_555 1_555
C118 N32 1_555 1_555
H96 C118 1_555 1_555
C119 N32 1_555 1_555
H97 C119 1_555 1_555
H98 C119 1_555 1_555
N34 Cu4 1_555 1_555
C120 N34 1_555 1_555
H99 C120 1_555 1_555
C121 C120 1_555 1_555
H100 C121 1_555 1_555
C122 C121 1_555 1_555
H101 C122 1_555 1_555
C123 C122 1_555 1_555
H102 C123 1_555 1_555
C124 N34 1_555 1_555
N35 N36 1_555 1_555
N36 Cu4 1_555 1_555
C125 C124 1_555 1_555
C126 C125 1_555 1_555
H103 C126 1_555 1_555
C127 N35 1_555 1_555
H104 C127 1_555 1_555
C128 N35 1_555 1_555
H105 C128 1_555 1_555
H106 C128 1_555 1_555
C129 C119 1_555 1_555
C130 C129 1_555 1_555
H107 C130 1_555 1_555
C131 C130 1_555 1_555
H108 C131 1_555 1_555
C132 C128 1_555 1_555
O6 C129 1_555 1_555
B2 F5 1_555 1_555
F6 B2 1_555 1_555
F7 B2 1_555 1_555
F8 B2 1_555 1_555
B3 F9 1_555 1_555
F10 B3 1_555 1_555
F11 B3 1_555 1_555
F12 B3 1_555 1_555
B4 F13 1_555 1_555
F14 B4 1_555 1_555
F15 B4 1_555 1_555
F16 B4 1_555 1_555
B5 F17 1_555 1_555
F18 B5 1_555 1_555
F19 B5 1_555 1_555
F20 B5 1_555 1_555
B6 F21 1_555 1_555
B7 F22 1_555 1_555
C133 H109 1_555 1_555
H110 C133 1_555 1_555
H111 C133 1_555 1_555
N37 C133 1_555 1_555
O7 N37 1_555 1_555
O8 N37 1_555 1_555
Cu1A N1A 1_555 1_555
Cu2A N4A 1_555 1_555
Cu3A N22A 1_555 1_555
Cu4A N16A 1_555 1_555
N1A C1A 1_555 1_555
C1A H1A 1_555 1_555
C2A C1A 1_555 1_555
H2A C2A 1_555 1_555
C3A C2A 1_555 1_555
H3A C3A 1_555 1_555
C4A C3A 1_555 1_555
H4A C4A 1_555 1_555
C5A N1A 1_555 1_555
N2A N3A 1_555 1_555
N3A Cu1A 1_555 1_555
C6A C5A 1_555 1_555
C7A C6A 1_555 1_555
H5A C7A 1_555 1_555
C8A N2A 1_555 1_555
H6A C8A 1_555 1_555
C9A N2A 1_555 1_555
H7A C9A 1_555 1_555
H8A C9A 1_555 1_555
N4A C10A 1_555 1_555
C10A H9A 1_555 1_555
C11A C10A 1_555 1_555
H10A C11A 1_555 1_555
C12A C11A 1_555 1_555
H11A C12A 1_555 1_555
C13A C12A 1_555 1_555
H12A C13A 1_555 1_555
C14A N4A 1_555 1_555
N5A N6A 1_555 1_555
N6A Cu2A 1_555 1_555
C15A C14A 1_555 1_555
C16A C15A 1_555 1_555
H13A C16A 1_555 1_555
C17A N5A 1_555 1_555
H14A C17A 1_555 1_555
C18A N5A 1_555 1_555
H15A C18A 1_555 1_555
H16A C18A 1_555 1_555
C19A C9A 1_555 1_555
C20A C19A 1_555 1_555
H17A C20A 1_555 1_555
C21A C20A 1_555 1_555
H18A C21A 1_555 1_555
C22A C18A 1_555 1_555
O1A C19A 1_555 1_555
N7A Cu1A 1_555 1_555
C23A N7A 1_555 1_555
H19A C23A 1_555 1_555
C24A C23A 1_555 1_555
H20A C24A 1_555 1_555
C25A C24A 1_555 1_555
H21A C25A 1_555 1_555
C26A C25A 1_555 1_555
H22A C26A 1_555 1_555
C27A N7A 1_555 1_555
N8A N9A 1_555 1_555
N9A Cu1A 1_555 1_555
C28A C27A 1_555 1_555
C29A C28A 1_555 1_555
H23A C29A 1_555 1_555
C30A N8A 1_555 1_555
H24A C30A 1_555 1_555
C31A N8A 1_555 1_555
H25A C31A 1_555 1_555
H26A C31A 1_555 1_555
N10A Cu2A 1_555 1_555
C32A N10A 1_555 1_555
H27A C32A 1_555 1_555
C33A C32A 1_555 1_555
H28A C33A 1_555 1_555
C34A C33A 1_555 1_555
H29A C34A 1_555 1_555
C35A C34A 1_555 1_555
H30A C35A 1_555 1_555
C36A N10A 1_555 1_555
N11A N12A 1_555 1_555
N12A Cu2A 1_555 1_555
C37A C36A 1_555 1_555
C38A C37A 1_555 1_555
H31A C38A 1_555 1_555
C39A N11A 1_555 1_555
H32A C39A 1_555 1_555
C40A N11A 1_555 1_555
H33A C40A 1_555 1_555
H34A C40A 1_555 1_555
C41A C31A 1_555 1_555
C42A C41A 1_555 1_555
H35A C42A 1_555 1_555
C43A C44 1_555 1_555
H36A C43A 1_555 1_555
C44A C43 1_555 1_555
O2A C44 1_555 1_555
N13A Cu1A 1_555 1_555
C45A N13A 1_555 1_555
H37A C45A 1_555 1_555
C46A C45A 1_555 1_555
H38A C46A 1_555 1_555
C47A C46A 1_555 1_555
H39A C47A 1_555 1_555
C48A C47A 1_555 1_555
H40A C48A 1_555 1_555
C49A N13A 1_555 1_555
N14A N15A 1_555 1_555
N15A Cu1A 1_555 1_555
C50A C49A 1_555 1_555
C51A C50A 1_555 1_555
H41A C51A 1_555 1_555
C52A N14A 1_555 1_555
H42A C52A 1_555 1_555
C53A N14A 1_555 1_555
H43A C53A 1_555 1_555
H44A C53A 1_555 1_555
N16A C54A 1_555 1_555
C54A H45A 1_555 1_555
C55A C54A 1_555 1_555
H46A C55A 1_555 1_555
C56A C55A 1_555 1_555
H47A C56A 1_555 1_555
C57A C56A 1_555 1_555
H48A C57A 1_555 1_555
C58A N16A 1_555 1_555
N17A N18A 1_555 1_555
N18A Cu4A 1_555 1_555
C59A C58A 1_555 1_555
C60A C59A 1_555 1_555
H49A C60A 1_555 1_555
C61A N17A 1_555 1_555
H50A C61A 1_555 1_555
C62A N17A 1_555 1_555
H51A C62A 1_555 1_555
H52A C62A 1_555 1_555
C63A C53A 1_555 1_555
C64A C63A 1_555 1_555
H53A C64A 1_555 1_555
C65A C64A 1_555 1_555
H54A C65A 1_555 1_555
C66A C62A 1_555 1_555
O3A C63A 1_555 1_555
N19A Cu2A 1_555 1_555
C67A N19A 1_555 1_555
H55A C67A 1_555 1_555
C68A C67A 1_555 1_555
H56A C68A 1_555 1_555
C69A C68A 1_555 1_555
H57A C69A 1_555 1_555
C70A C69A 1_555 1_555
H58A C70A 1_555 1_555
C71A N19A 1_555 1_555
N20A N21A 1_555 1_555
N21A Cu2A 1_555 1_555
C72A C71A 1_555 1_555
C73A C72A 1_555 1_555
H59A C73A 1_555 1_555
C74A N20A 1_555 1_555
H60A C74A 1_555 1_555
C75A N20A 1_555 1_555
H61A C75A 1_555 1_555
H62A C75A 1_555 1_555
N22A C76A 1_555 1_555
C76A H63A 1_555 1_555
C77A C76A 1_555 1_555
H64A C77A 1_555 1_555
C78A C77A 1_555 1_555
H65A C78A 1_555 1_555
C79A C78A 1_555 1_555
H66A C79A 1_555 1_555
C80A N22A 1_555 1_555
N23A N24A 1_555 1_555
N24A Cu3A 1_555 1_555
C81A C80A 1_555 1_555
C82A C81A 1_555 1_555
H67A C82A 1_555 1_555
C83A N23A 1_555 1_555
H68A C83A 1_555 1_555
C84A N23A 1_555 1_555
H69A C84A 1_555 1_555
H70A C84A 1_555 1_555
C85A C75A 1_555 1_555
C86A C85A 1_555 1_555
H71A C86A 1_555 1_555
C87A C86A 1_555 1_555
H72A C87A 1_555 1_555
C88A C84A 1_555 1_555
O4A C85A 1_555 1_555
N25A Cu3A 1_555 1_555
C89A N25A 1_555 1_555
H73A C89A 1_555 1_555
C90A C89A 1_555 1_555
H74A C90A 1_555 1_555
C91A C90A 1_555 1_555
H75A C91A 1_555 1_555
C92A C91A 1_555 1_555
H76A C92A 1_555 1_555
C93A N25A 1_555 1_555
N26A N27A 1_555 1_555
N27A Cu3A 1_555 1_555
C94A C93A 1_555 1_555
C95A C94A 1_555 1_555
H77A C95A 1_555 1_555
C96A N26A 1_555 1_555
H78A C96A 1_555 1_555
C97A N26A 1_555 1_555
H79A C97A 1_555 1_555
H80A C97A 1_555 1_555
N28A Cu4A 1_555 1_555
C98A N28A 1_555 1_555
H81A C98A 1_555 1_555
C99A C98A 1_555 1_555
H82A C99A 1_555 1_555
C100A C99A 1_555 1_555
H83A C100A 1_555 1_555
C101A C100A 1_555 1_555
H84A C101A 1_555 1_555
C102A N28A 1_555 1_555
N29A N30A 1_555 1_555
N30A Cu4A 1_555 1_555
C103A C102A 1_555 1_555
C104A C103A 1_555 1_555
H85A C104A 1_555 1_555
C105A N29A 1_555 1_555
H86A C105A 1_555 1_555
C106A N29A 1_555 1_555
H87A C106A 1_555 1_555
H88A C106A 1_555 1_555
C107A C97A 1_555 1_555
C108A C107A 1_555 1_555
H89A C108A 1_555 1_555
C109A C108A 1_555 1_555
H90A C109A 1_555 1_555
C110A C106A 1_555 1_555
O5A C107A 1_555 1_555
N31A Cu3A 1_555 1_555
C111A N31A 1_555 1_555
H91A C111A 1_555 1_555
C112A C111A 1_555 1_555
H92A C112A 1_555 1_555
C113A C112A 1_555 1_555
H93A C113A 1_555 1_555
C114A C113A 1_555 1_555
H94A C114A 1_555 1_555
C115A N31A 1_555 1_555
N32A N33A 1_555 1_555
N33A Cu3A 1_555 1_555
C116A C115A 1_555 1_555
C117A C116A 1_555 1_555
H95A C117A 1_555 1_555
C118A N32A 1_555 1_555
H96A C118A 1_555 1_555
C119A N32A 1_555 1_555
H97A C119A 1_555 1_555
H98A C119A 1_555 1_555
N34A Cu4A 1_555 1_555
C120A N34A 1_555 1_555
H99A C120A 1_555 1_555
C121A C120A 1_555 1_555
H100A C121A 1_555 1_555
C122A C121A 1_555 1_555
H101A C122A 1_555 1_555
C123A C122A 1_555 1_555
H102A C123A 1_555 1_555
C124A N34A 1_555 1_555
N35A N36A 1_555 1_555
N36A Cu4A 1_555 1_555
C125A C124A 1_555 1_555
C126A C125A 1_555 1_555
H103A C126A 1_555 1_555
C127A N35A 1_555 1_555
H104A C127A 1_555 1_555
C128A N35A 1_555 1_555
H105A C128A 1_555 1_555
H106A C128A 1_555 1_555
C129A C119A 1_555 1_555
C130A C129A 1_555 1_555
H107A C130A 1_555 1_555
C131A C132 1_555 1_555
H108A C131A 1_555 1_555
C132A C131 1_555 1_555
O6A C132 1_555 1_555
F21A B6 1_555 1_555
F21B B6 1_555 1_555
F21C B6 1_555 1_555
F22A B7 1_555 1_555
F22B B7 1_555 1_555
F22C B7 1_555 1_555
C4 C5 1_555 1_555
N3 C6 1_555 1_555
C7 C8 1_555 1_555
C13 C14 1_555 1_555
N6 C15 1_555 1_555
C16 C17 1_555 1_555
C21 C22 1_555 1_555
C22 O1 1_555 1_555
C26 C27 1_555 1_555
N9 C28 1_555 1_555
C29 C30 1_555 1_555
C35 C36 1_555 1_555
N12 C37 1_555 1_555
C38 C39 1_555 1_555
O2 C44A 1_555 1_555
C48 C49 1_555 1_555
N15 C50 1_555 1_555
C51 C52 1_555 1_555
C57 C58 1_555 1_555
N18 C59 1_555 1_555
C60 C61 1_555 1_555
C65 C66 1_555 1_555
C66 O3 1_555 1_555
C70 C71 1_555 1_555
N21 C72 1_555 1_555
C73 C74 1_555 1_555
C79 C80 1_555 1_555
N24 C81 1_555 1_555
C82 C83 1_555 1_555
C87 C88 1_555 1_555
C88 O4 1_555 1_555
C92 C93 1_555 1_555
N27 C94 1_555 1_555
C95 C96 1_555 1_555
C101 C102 1_555 1_555
N30 C103 1_555 1_555
C104 C105 1_555 1_555
C109 C110 1_555 1_555
C110 O5 1_555 1_555
C114 C115 1_555 1_555
N33 C116 1_555 1_555
C117 C118 1_555 1_555
C123 C124 1_555 1_555
N36 C125 1_555 1_555
C126 C127 1_555 1_555
O6 C132A 1_555 1_555
C4A C5A 1_555 1_555
N3A C6A 1_555 1_555
C7A C8A 1_555 1_555
C13A C14A 1_555 1_555
N6A C15A 1_555 1_555
C16A C17A 1_555 1_555
C21A C22A 1_555 1_555
C22A O1A 1_555 1_555
C26A C27A 1_555 1_555
N9A C28A 1_555 1_555
C29A C30A 1_555 1_555
C35A C36A 1_555 1_555
N12A C37A 1_555 1_555
C38A C39A 1_555 1_555
C40A C44A 1_555 1_555
C41A O2A 1_555 1_555
C42A C43A 1_555 1_555
C48A C49A 1_555 1_555
N15A C50A 1_555 1_555
C51A C52A 1_555 1_555
C57A C58A 1_555 1_555
N18A C59A 1_555 1_555
C60A C61A 1_555 1_555
C65A C66A 1_555 1_555
C66A O3A 1_555 1_555
C70A C71A 1_555 1_555
N21A C72A 1_555 1_555
C73A C74A 1_555 1_555
C79A C80A 1_555 1_555
N24A C81A 1_555 1_555
C82A C83A 1_555 1_555
C87A C88A 1_555 1_555
C88A O4A 1_555 1_555
C92A C93A 1_555 1_555
N27A C94A 1_555 1_555
C95A C96A 1_555 1_555
C101A C102A 1_555 1_555
N30A C103A 1_555 1_555
C104A C105A 1_555 1_555
C109A C110A 1_555 1_555
C110A O5A 1_555 1_555
C114A C115A 1_555 1_555
N33A C116A 1_555 1_555
C117A C118A 1_555 1_555
C123A C124A 1_555 1_555
N36A C125A 1_555 1_555
C126A C127A 1_555 1_555
C128A C132A 1_555 1_555
C129A O6A 1_555 1_555
C130A C131A 1_555 1_555

#END
