# generated using pymatgen
data_Cu4B3H108C132S6(N3F)12
_symmetry_space_group_name_H-M   'P 1'
_cell_length_a   18.52100000
_cell_length_b   28.60874958
_cell_length_c   36.15998218
_cell_angle_alpha   82.30828211
_cell_angle_beta   75.16134201
_cell_angle_gamma   71.11348877
_symmetry_Int_Tables_number   1
_chemical_formula_structural   Cu4B3H108C132S6(N3F)12
_chemical_formula_sum   'Cu16 B12 H432 C528 S24 N144 F48'
_cell_volume   17496.51937477
_cell_formula_units_Z   4
loop_
 _symmetry_equiv_pos_site_id
 _symmetry_equiv_pos_as_xyz
  1  'x, y, z'
loop_
 _atom_site_type_symbol
 _atom_site_label
 _atom_site_symmetry_multiplicity
 _atom_site_fract_x
 _atom_site_fract_y
 _atom_site_fract_z
 _atom_site_occupancy
  B  B1  1  0.818500  0.207300  0.282900  1
  B  B2  1  0.308700  0.292700  0.217100  1
  B  B3  1  0.181500  0.792700  0.717100  1
  B  B4  1  0.691300  0.707300  0.782900  1
  B  B5  1  0.277700  0.004700  0.482500  1
  B  B6  1  0.764900  0.495300  0.017500  1
  B  B7  1  0.722300  0.995300  0.517500  1
  B  B8  1  0.235100  0.504700  0.982500  1
  B  B9  1  0.634000  0.350500  0.346300  1
  B  B10  1  0.330800  0.149500  0.153700  1
  B  B11  1  0.366000  0.649500  0.653700  1
  B  B12  1  0.669200  0.850500  0.846300  1
  C  C13  1  0.595420  0.957280  0.327280  1
  C  C14  1  0.879980  0.542720  0.172720  1
  C  C15  1  0.404580  0.042720  0.672720  1
  C  C16  1  0.120020  0.457280  0.827280  1
  C  C17  1  0.608400  0.908500  0.319700  1
  C  C18  1  0.836600  0.591500  0.180300  1
  C  C19  1  0.391600  0.091500  0.680300  1
  C  C20  1  0.163400  0.408500  0.819700  1
  C  C21  1  0.666540  0.887320  0.288600  1
  C  C22  1  0.842460  0.612680  0.211400  1
  C  C23  1  0.333460  0.112680  0.711400  1
  C  C24  1  0.157540  0.387320  0.788600  1
  C  C25  1  0.711680  0.914990  0.265050  1
  C  C26  1  0.891720  0.585010  0.234950  1
  C  C27  1  0.288320  0.085010  0.734950  1
  C  C28  1  0.108280  0.414990  0.765050  1
  C  C29  1  0.698700  0.963760  0.272640  1
  C  C30  1  0.935100  0.536240  0.227360  1
  C  C31  1  0.301300  0.036240  0.727360  1
  C  C32  1  0.064900  0.463760  0.772640  1
  C  C33  1  0.739100  0.992900  0.249500  1
  C  C34  1  0.981500  0.507100  0.250500  1
  C  C35  1  0.260900  0.007100  0.750500  1
  C  C36  1  0.018500  0.492900  0.749500  1
  C  C37  1  0.802530  0.984740  0.216800  1
  C  C38  1  0.004070  0.515260  0.283200  1
  C  C39  1  0.197470  0.015260  0.783200  1
  C  C40  1  0.995930  0.484740  0.716800  1
  C  C41  1  0.816640  0.030740  0.203780  1
  C  C42  1  0.051160  0.469260  0.296220  1
  C  C43  1  0.183360  0.969260  0.796220  1
  C  C44  1  0.948840  0.530740  0.703780  1
  C  C45  1  0.740700  0.119100  0.224100  1
  C  C46  1  0.083900  0.380900  0.275900  1
  C  C47  1  0.259300  0.880900  0.775900  1
  C  C48  1  0.916100  0.619100  0.724100  1
  C  C49  1  0.648900  0.386790  0.058210  1
  C  C50  1  0.093900  0.113210  0.441790  1
  C  C51  1  0.351100  0.613210  0.941790  1
  C  C52  1  0.906100  0.886790  0.558210  1
  C  C53  1  0.683790  0.382190  0.019430  1
  C  C54  1  0.085410  0.117810  0.480570  1
  C  C55  1  0.316210  0.617810  0.980570  1
  C  C56  1  0.914590  0.882190  0.519430  1
  C  C57  1  0.679740  0.344360  0.000360  1
  C  C58  1  0.024460  0.155640  0.499640  1
  C  C59  1  0.320260  0.655640  0.999640  1
  C  C60  1  0.975540  0.844360  0.500360  1
  C  C61  1  0.640690  0.311150  0.020070  1
  C  C62  1  0.971910  0.188850  0.479930  1
  C  C63  1  0.359310  0.688850  0.979930  1
  C  C64  1  0.028090  0.811150  0.520070  1
  C  C65  1  0.605790  0.315760  0.058860  1
  C  C66  1  0.980410  0.184240  0.441140  1
  C  C67  1  0.394210  0.684240  0.941140  1
  C  C68  1  0.019590  0.815760  0.558860  1
  C  C69  1  0.566630  0.284880  0.078260  1
  C  C70  1  0.929770  0.215120  0.421740  1
  C  C71  1  0.433370  0.715120  0.921740  1
  C  C72  1  0.070230  0.784880  0.578260  1
  C  C73  1  0.540740  0.248890  0.066430  1
  C  C74  1  0.856060  0.251110  0.433570  1
  C  C75  1  0.459260  0.751110  0.933570  1
  C  C76  1  0.143940  0.748890  0.566430  1
  C  C77  1  0.503937  0.225690  0.099770  1
  C  C78  1  0.829397  0.274310  0.400230  1
  C  C79  1  0.496063  0.774310  0.900230  1
  C  C80  1  0.170603  0.725690  0.599770  1
  C  C81  1  0.490100  0.230300  0.170500  1
  C  C82  1  0.890900  0.269700  0.329500  1
  C  C83  1  0.509900  0.769700  0.829500  1
  C  C84  1  0.109100  0.730300  0.670500  1
  C  C85  1  0.671500  0.138100  0.206300  1
  C  C86  1  0.015900  0.361900  0.293700  1
  C  C87  1  0.328500  0.861900  0.793700  1
  C  C88  1  0.984100  0.638100  0.706300  1
  C  C89  1  0.639700  0.111800  0.189000  1
  C  C90  1  0.940500  0.388200  0.311000  1
  C  C91  1  0.360300  0.888200  0.811000  1
  C  C92  1  0.059500  0.611800  0.689000  1
  C  C93  1  0.572200  0.141100  0.176300  1
  C  C94  1  0.889600  0.358900  0.323700  1
  C  C95  1  0.427800  0.858900  0.823700  1
  C  C96  1  0.110400  0.641100  0.676300  1
  C  C97  1  0.554500  0.190000  0.181800  1
  C  C98  1  0.926300  0.310000  0.318200  1
  C  C99  1  0.445500  0.810000  0.818200  1
  C  C100  1  0.073700  0.690000  0.681800  1
  C  C101  1  0.411880  0.377500  0.099540  1
  C  C102  1  0.888920  0.122500  0.400460  1
  C  C103  1  0.588120  0.622500  0.900460  1
  C  C104  1  0.111080  0.877500  0.599540  1
  C  C105  1  0.363600  0.401580  0.074620  1
  C  C106  1  0.839800  0.098420  0.425380  1
  C  C107  1  0.636400  0.598420  0.925380  1
  C  C108  1  0.160200  0.901580  0.574620  1
  C  C109  1  0.357620  0.450440  0.061920  1
  C  C110  1  0.869980  0.049560  0.438080  1
  C  C111  1  0.642380  0.549560  0.938080  1
  C  C112  1  0.130020  0.950440  0.561920  1
  C  C113  1  0.399910  0.475250  0.074130  1
  C  C114  1  0.949290  0.024750  0.425870  1
  C  C115  1  0.600090  0.524750  0.925870  1
  C  C116  1  0.050710  0.975250  0.574130  1
  C  C117  1  0.448190  0.451170  0.099050  1
  C  C118  1  0.998410  0.048830  0.400950  1
  C  C119  1  0.551810  0.548830  0.900950  1
  C  C120  1  0.001590  0.951170  0.599050  1
  C  C121  1  0.493660  0.472180  0.110300  1
  C  C122  1  0.076140  0.027820  0.389700  1
  C  C123  1  0.506340  0.527820  0.889700  1
  C  C124  1  0.923860  0.972180  0.610300  1
  C  C125  1  0.500150  0.520900  0.102800  1
  C  C126  1  0.123850  0.979100  0.397200  1
  C  C127  1  0.499850  0.479100  0.897200  1
  C  C128  1  0.876150  0.020900  0.602800  1
  C  C129  1  0.561030  0.523140  0.119000  1
  C  C130  1  0.203170  0.976860  0.381000  1
  C  C131  1  0.438970  0.476860  0.881000  1
  C  C132  1  0.796830  0.023140  0.619000  1
  C  C133  1  0.653400  0.458800  0.154200  1
  C  C134  1  0.266400  0.041200  0.345800  1
  C  C135  1  0.346600  0.541200  0.845800  1
  C  C136  1  0.733600  0.958800  0.654200  1
  C  C137  1  0.190930  0.620340  0.330000  1
  C  C138  1  0.141270  0.879660  0.170000  1
  C  C139  1  0.809070  0.379660  0.670000  1
  C  C140  1  0.858730  0.120340  0.830000  1
  C  C141  1  0.122950  0.606200  0.340700  1
  C  C142  1  0.069850  0.893800  0.159300  1
  C  C143  1  0.877050  0.393800  0.659300  1
  C  C144  1  0.930150  0.106200  0.840700  1
  C  C145  1  0.127850  0.556500  0.348000  1
  C  C146  1  0.032350  0.943500  0.152000  1
  C  C147  1  0.872150  0.443500  0.652000  1
  C  C148  1  0.967650  0.056500  0.848000  1
  C  C149  1  0.200630  0.520840  0.344700  1
  C  C150  1  0.066170  0.979160  0.155300  1
  C  C151  1  0.799370  0.479160  0.655300  1
  C  C152  1  0.933830  0.020840  0.844700  1
  C  C153  1  0.268610  0.534980  0.334000  1
  C  C154  1  0.137590  0.965020  0.166000  1
  C  C155  1  0.731390  0.465020  0.666000  1
  C  C156  1  0.862410  0.034980  0.834000  1
  C  C157  1  0.339010  0.502880  0.327500  1
  C  C158  1  0.169390  0.997120  0.172500  1
  C  C159  1  0.660990  0.497120  0.672500  1
  C  C160  1  0.830610  0.002880  0.827500  1
  C  C161  1  0.369560  0.450580  0.331900  1
  C  C162  1  0.152040  0.049420  0.168100  1
  C  C163  1  0.630440  0.549420  0.668100  1
  C  C164  1  0.847960  0.950580  0.831900  1
  C  C165  1  0.452560  0.437980  0.323900  1
  C  C166  1  0.214440  0.062020  0.176100  1
  C  C167  1  0.547440  0.562020  0.676100  1
  C  C168  1  0.785560  0.937980  0.823900  1
  C  C169  1  0.546800  0.486000  0.306000  1
  C  C170  1  0.338800  0.014000  0.194000  1
  C  C171  1  0.453200  0.514000  0.694000  1
  C  C172  1  0.661200  0.986000  0.806000  1
  C  C173  1  0.633500  0.476900  0.194700  1
  C  C174  1  0.305100  0.023100  0.305300  1
  C  C175  1  0.366500  0.523100  0.805300  1
  C  C176  1  0.694900  0.976900  0.694700  1
  C  C177  1  0.658400  0.510700  0.206500  1
  C  C178  1  0.375600  0.989300  0.293500  1
  C  C179  1  0.341600  0.489300  0.793500  1
  C  C180  1  0.624400  0.010700  0.706500  1
  C  C181  1  0.630300  0.518200  0.246200  1
  C  C182  1  0.394700  0.981800  0.253800  1
  C  C183  1  0.369700  0.481800  0.753800  1
  C  C184  1  0.605300  0.018200  0.746200  1
  C  C185  1  0.579300  0.491600  0.263600  1
  C  C186  1  0.334500  0.008400  0.236400  1
  C  C187  1  0.420700  0.508400  0.736400  1
  C  C188  1  0.665500  0.991600  0.763600  1
  C  C189  1  0.717670  0.307300  0.135760  1
  C  C190  1  0.160730  0.192700  0.364240  1
  C  C191  1  0.282330  0.692700  0.864240  1
  C  C192  1  0.839270  0.807300  0.635760  1
  C  C193  1  0.777650  0.282070  0.154230  1
  C  C194  1  0.213950  0.217930  0.345770  1
  C  C195  1  0.222350  0.717930  0.845770  1
  C  C196  1  0.786050  0.782070  0.654230  1
  C  C197  1  0.761970  0.277050  0.194010  1
  C  C198  1  0.233030  0.222950  0.305990  1
  C  C199  1  0.238030  0.722950  0.805990  1
  C  C200  1  0.766970  0.777050  0.694010  1
  C  C201  1  0.686320  0.297230  0.215330  1
  C  C202  1  0.198880  0.202770  0.284670  1
  C  C203  1  0.313680  0.702770  0.784670  1
  C  C204  1  0.801120  0.797230  0.715330  1
  C  C205  1  0.626350  0.322440  0.196860  1
  C  C206  1  0.145650  0.177560  0.303140  1
  C  C207  1  0.373650  0.677560  0.803140  1
  C  C208  1  0.854350  0.822440  0.696860  1
  C  C209  1  0.551290  0.339670  0.214550  1
  C  C210  1  0.105510  0.160330  0.285450  1
  C  C211  1  0.448710  0.660330  0.785450  1
  C  C212  1  0.894490  0.839670  0.714550  1
  C  C213  1  0.509560  0.342830  0.253450  1
  C  C214  1  0.105840  0.157170  0.246550  1
  C  C215  1  0.490440  0.657170  0.746550  1
  C  C216  1  0.894160  0.842830  0.753450  1
  C  C217  1  0.429540  0.368510  0.254210  1
  C  C218  1  0.052260  0.131490  0.245790  1
  C  C219  1  0.570460  0.631490  0.745790  1
  C  C220  1  0.947740  0.868510  0.754210  1
  C  C221  1  0.351300  0.407200  0.204800  1
  C  C222  1  0.963300  0.092800  0.295200  1
  C  C223  1  0.648700  0.592800  0.795200  1
  C  C224  1  0.036700  0.907200  0.704800  1
  C  C225  1  0.514350  0.615320  0.325580  1
  C  C226  1  0.455250  0.884680  0.174420  1
  C  C227  1  0.485650  0.384680  0.674420  1
  C  C228  1  0.544750  0.115320  0.825580  1
  C  C229  1  0.580880  0.630760  0.313080  1
  C  C230  1  0.524720  0.869240  0.186920  1
  C  C231  1  0.419120  0.369240  0.686920  1
  C  C232  1  0.475280  0.130760  0.813080  1
  C  C233  1  0.606800  0.642100  0.274300  1
  C  C234  1  0.523200  0.857900  0.225700  1
  C  C235  1  0.393200  0.357900  0.725700  1
  C  C236  1  0.476800  0.142100  0.774300  1
  C  C237  1  0.566210  0.637880  0.248100  1
  C  C238  1  0.452190  0.862120  0.251900  1
  C  C239  1  0.433790  0.362120  0.751900  1
  C  C240  1  0.547810  0.137880  0.748100  1
  C  C241  1  0.499680  0.622430  0.260610  1
  C  C242  1  0.382720  0.877570  0.239390  1
  C  C243  1  0.500320  0.377570  0.739390  1
  C  C244  1  0.617280  0.122430  0.760610  1
  C  C245  1  0.459990  0.617620  0.236000  1
  C  C246  1  0.313610  0.882380  0.264000  1
  C  C247  1  0.540010  0.382380  0.764000  1
  C  C248  1  0.686390  0.117620  0.736000  1
  C  C249  1  0.478100  0.616110  0.195490  1
  C  C250  1  0.289700  0.883890  0.304510  1
  C  C251  1  0.521900  0.383890  0.804510  1
  C  C252  1  0.710300  0.116110  0.695490  1
  C  C253  1  0.413470  0.609620  0.184840  1
  C  C254  1  0.207930  0.890380  0.315160  1
  C  C255  1  0.586530  0.390380  0.815160  1
  C  C256  1  0.792070  0.109620  0.684840  1
  C  C257  1  0.282000  0.600900  0.222500  1
  C  C258  1  0.105400  0.899100  0.277500  1
  C  C259  1  0.718000  0.399100  0.777500  1
  C  C260  1  0.894600  0.100900  0.722500  1
  C  C261  1  0.317700  0.458600  0.217200  1
  C  C262  1  0.993500  0.041400  0.282800  1
  C  C263  1  0.682300  0.541400  0.782800  1
  C  C264  1  0.006500  0.958600  0.717200  1
  C  C265  1  0.249800  0.475600  0.243600  1
  C  C266  1  0.969000  0.024400  0.256400  1
  C  C267  1  0.750200  0.524400  0.756400  1
  C  C268  1  0.031000  0.975600  0.743600  1
  C  C269  1  0.231700  0.526200  0.248200  1
  C  C270  1  0.006100  0.973800  0.251800  1
  C  C271  1  0.768300  0.473800  0.751800  1
  C  C272  1  0.993900  0.026200  0.748200  1
  C  C273  1  0.284300  0.547900  0.226700  1
  C  C274  1  0.058900  0.952100  0.273300  1
  C  C275  1  0.715700  0.452100  0.773300  1
  C  C276  1  0.941100  0.047900  0.726700  1
  C  C277  1  0.293740  0.706820  0.303300  1
  C  C278  1  0.303860  0.793180  0.196700  1
  C  C279  1  0.706260  0.293180  0.696700  1
  C  C280  1  0.696140  0.206820  0.803300  1
  C  C281  1  0.256000  0.755100  0.314100  1
  C  C282  1  0.325200  0.744900  0.185900  1
  C  C283  1  0.744000  0.244900  0.685900  1
  C  C284  1  0.674800  0.255100  0.814100  1
  C  C285  1  0.241660  0.766180  0.352100  1
  C  C286  1  0.359940  0.733820  0.147900  1
  C  C287  1  0.758340  0.233820  0.647900  1
  C  C288  1  0.640060  0.266180  0.852100  1
  C  C289  1  0.265190  0.728920  0.379300  1
  C  C290  1  0.373410  0.771080  0.120700  1
  C  C291  1  0.734810  0.271080  0.620700  1
  C  C292  1  0.626590  0.228920  0.879300  1
  C  C293  1  0.303100  0.680500  0.368500  1
  C  C294  1  0.352100  0.819500  0.131500  1
  C  C295  1  0.696900  0.319500  0.631500  1
  C  C296  1  0.647900  0.180500  0.868500  1
  C  C297  1  0.322100  0.644600  0.395800  1
  C  C298  1  0.362500  0.855400  0.104200  1
  C  C299  1  0.677900  0.355400  0.604200  1
  C  C300  1  0.637500  0.144600  0.895800  1
  C  C301  1  0.313600  0.644400  0.436000  1
  C  C302  1  0.394000  0.855600  0.064000  1
  C  C303  1  0.686400  0.355600  0.564000  1
  C  C304  1  0.606000  0.144400  0.936000  1
  C  C305  1  0.349600  0.595300  0.449300  1
  C  C306  1  0.394200  0.904700  0.050700  1
  C  C307  1  0.650400  0.404700  0.550700  1
  C  C308  1  0.605800  0.095300  0.949300  1
  C  C309  1  0.416900  0.513400  0.415000  1
  C  C310  1  0.345300  0.986600  0.085000  1
  C  C311  1  0.583100  0.486600  0.585000  1
  C  C312  1  0.654700  0.013400  0.915000  1
  C  C313  1  0.373000  0.226300  0.594300  1
  C  C314  1  0.193600  0.273700  0.905700  1
  C  C315  1  0.627000  0.773700  0.405700  1
  C  C316  1  0.806400  0.726300  0.094300  1
  C  C317  1  0.354100  0.231900  0.633500  1
  C  C318  1  0.219500  0.268100  0.866500  1
  C  C319  1  0.645900  0.768100  0.366500  1
  C  C320  1  0.780500  0.731900  0.133500  1
  C  C321  1  0.300000  0.275000  0.648800  1
  C  C322  1  0.223800  0.225000  0.851200  1
  C  C323  1  0.700000  0.725000  0.351200  1
  C  C324  1  0.776200  0.775000  0.148800  1
  C  C325  1  0.264610  0.312680  0.624700  1
  C  C326  1  0.201990  0.187320  0.875300  1
  C  C327  1  0.735390  0.687320  0.375300  1
  C  C328  1  0.798010  0.812680  0.124700  1
  C  C329  1  0.283400  0.307200  0.585400  1
  C  C330  1  0.176000  0.192800  0.914600  1
  C  C331  1  0.716600  0.692800  0.414600  1
  C  C332  1  0.824000  0.807200  0.085400  1
  C  C333  1  0.252400  0.344400  0.560600  1
  C  C334  1  0.157400  0.155600  0.939400  1
  C  C335  1  0.747600  0.655600  0.439400  1
  C  C336  1  0.842600  0.844400  0.060600  1
  C  C337  1  0.193870  0.390760  0.567700  1
  C  C338  1  0.152330  0.109240  0.932300  1
  C  C339  1  0.806130  0.609240  0.432300  1
  C  C340  1  0.847670  0.890760  0.067700  1
  C  C341  1  0.180800  0.414400  0.531800  1
  C  C342  1  0.127000  0.085600  0.968200  1
  C  C343  1  0.819200  0.585600  0.468200  1
  C  C344  1  0.873000  0.914400  0.031800  1
  C  C345  1  0.241600  0.390900  0.463500  1
  C  C346  1  0.096000  0.109100  0.036500  1
  C  C347  1  0.758400  0.609100  0.536500  1
  C  C348  1  0.904000  0.890900  0.963500  1
  C  C349  1  0.349800  0.495100  0.428300  1
  C  C350  1  0.273200  0.004900  0.071700  1
  C  C351  1  0.650200  0.504900  0.571700  1
  C  C352  1  0.726800  0.995100  0.928300  1
  C  C353  1  0.271300  0.515000  0.429000  1
  C  C354  1  0.215300  0.985000  0.071000  1
  C  C355  1  0.728700  0.485000  0.571000  1
  C  C356  1  0.784700  0.015000  0.929000  1
  C  C357  1  0.225300  0.481200  0.440800  1
  C  C358  1  0.147300  0.018800  0.059200  1
  C  C359  1  0.774700  0.518800  0.559200  1
  C  C360  1  0.852700  0.981200  0.940800  1
  C  C361  1  0.273100  0.435600  0.446400  1
  C  C362  1  0.155100  0.064400  0.053600  1
  C  C363  1  0.726900  0.564400  0.553600  1
  C  C364  1  0.844900  0.935600  0.946400  1
  C  C365  1  0.206960  0.249780  0.524100  1
  C  C366  1  0.980840  0.250220  0.975900  1
  C  C367  1  0.793040  0.750220  0.475900  1
  C  C368  1  0.019160  0.749780  0.024100  1
  C  C369  1  0.152820  0.223460  0.535300  1
  C  C370  1  0.911580  0.276540  0.964700  1
  C  C371  1  0.847180  0.776540  0.464700  1
  C  C372  1  0.088420  0.723460  0.035300  1
  C  C373  1  0.178440  0.172320  0.541400  1
  C  C374  1  0.892160  0.327680  0.958600  1
  C  C375  1  0.821560  0.827680  0.458600  1
  C  C376  1  0.107840  0.672320  0.041400  1
  C  C377  1  0.258100  0.147500  0.536300  1
  C  C378  1  0.941900  0.352500  0.963700  1
  C  C379  1  0.741900  0.852500  0.463700  1
  C  C380  1  0.058100  0.647500  0.036300  1
  C  C381  1  0.312140  0.173820  0.525100  1
  C  C382  1  0.011060  0.326180  0.974900  1
  C  C383  1  0.687860  0.826180  0.474900  1
  C  C384  1  0.988940  0.673820  0.025100  1
  C  C385  1  0.388520  0.152260  0.524300  1
  C  C386  1  0.065080  0.347740  0.975700  1
  C  C387  1  0.611480  0.847740  0.475700  1
  C  C388  1  0.934920  0.652260  0.024300  1
  C  C389  1  0.430550  0.102800  0.533700  1
  C  C390  1  0.067050  0.397200  0.966300  1
  C  C391  1  0.569450  0.897200  0.466300  1
  C  C392  1  0.932950  0.602800  0.033700  1
  C  C393  1  0.510480  0.099940  0.528100  1
  C  C394  1  0.138520  0.400060  0.971900  1
  C  C395  1  0.489520  0.900060  0.471900  1
  C  C396  1  0.861480  0.599940  0.028100  1
  C  C397  1  0.584200  0.163200  0.508400  1
  C  C398  1  0.255800  0.336800  0.991600  1
  C  C399  1  0.415800  0.836800  0.491600  1
  C  C400  1  0.744200  0.663200  0.008400  1
  C  C401  1  0.505520  0.062280  0.269280  1
  C  C402  1  0.837080  0.437720  0.230720  1
  C  C403  1  0.494480  0.937720  0.730720  1
  C  C404  1  0.162920  0.562280  0.769280  1
  C  C405  1  0.444790  0.087670  0.251350  1
  C  C406  1  0.783810  0.412330  0.248650  1
  C  C407  1  0.555210  0.912330  0.748650  1
  C  C408  1  0.216190  0.587670  0.751350  1
  C  C409  1  0.415470  0.138950  0.251710  1
  C  C410  1  0.806130  0.361050  0.248290  1
  C  C411  1  0.584530  0.861050  0.748290  1
  C  C412  1  0.193870  0.638950  0.751710  1
  C  C413  1  0.446890  0.164820  0.270000  1
  C  C414  1  0.881710  0.335180  0.230000  1
  C  C415  1  0.553110  0.835180  0.730000  1
  C  C416  1  0.118290  0.664820  0.770000  1
  C  C417  1  0.507630  0.139410  0.287930  1
  C  C418  1  0.934970  0.360590  0.212070  1
  C  C419  1  0.492370  0.860590  0.712070  1
  C  C420  1  0.065030  0.639410  0.787930  1
  C  C421  1  0.544550  0.161200  0.304700  1
  C  C422  1  0.010450  0.338800  0.195300  1
  C  C423  1  0.455450  0.838800  0.695300  1
  C  C424  1  0.989550  0.661200  0.804700  1
  C  C425  1  0.535820  0.211360  0.309400  1
  C  C426  1  0.056580  0.288640  0.190600  1
  C  C427  1  0.464180  0.788640  0.690600  1
  C  C428  1  0.943420  0.711360  0.809400  1
  C  C429  1  0.591720  0.212060  0.329700  1
  C  C430  1  0.133480  0.287940  0.170300  1
  C  C431  1  0.408280  0.787940  0.670300  1
  C  C432  1  0.866520  0.712060  0.829700  1
  C  C433  1  0.693400  0.145300  0.357900  1
  C  C434  1  0.196600  0.354700  0.142100  1
  C  C435  1  0.306600  0.854700  0.642100  1
  C  C436  1  0.803400  0.645300  0.857900  1
  C  C437  1  0.615900  0.171700  0.466700  1
  C  C438  1  0.254300  0.328300  0.033300  1
  C  C439  1  0.384100  0.828300  0.533300  1
  C  C440  1  0.745700  0.671700  0.966700  1
  C  C441  1  0.653100  0.204500  0.450900  1
  C  C442  1  0.308500  0.295500  0.049100  1
  C  C443  1  0.346900  0.795500  0.549100  1
  C  C444  1  0.691500  0.704500  0.950900  1
  C  C445  1  0.680900  0.200900  0.411100  1
  C  C446  1  0.292900  0.299100  0.088900  1
  C  C447  1  0.319100  0.799100  0.588900  1
  C  C448  1  0.707100  0.700900  0.911100  1
  C  C449  1  0.665500  0.164200  0.396600  1
  C  C450  1  0.226300  0.335800  0.103400  1
  C  C451  1  0.334500  0.835800  0.603400  1
  C  C452  1  0.773700  0.664200  0.896600  1
  C  C453  1  0.491800  0.295680  0.534720  1
  C  C454  1  0.322200  0.204320  0.965280  1
  C  C455  1  0.508200  0.704320  0.465280  1
  C  C456  1  0.677800  0.795680  0.034720  1
  C  C457  1  0.553070  0.316240  0.525620  1
  C  C458  1  0.394930  0.183760  0.974380  1
  C  C459  1  0.446930  0.683760  0.474380  1
  C  C460  1  0.605070  0.816240  0.025620  1
  C  C461  1  0.580720  0.331060  0.487900  1
  C  C462  1  0.399680  0.168940  0.012100  1
  C  C463  1  0.419280  0.668940  0.512100  1
  C  C464  1  0.600320  0.831060  0.987900  1
  C  C465  1  0.546890  0.325390  0.459230  1
  C  C466  1  0.331510  0.174610  0.040770  1
  C  C467  1  0.453110  0.674610  0.540770  1
  C  C468  1  0.668490  0.825390  0.959230  1
  C  C469  1  0.485610  0.304840  0.468340  1
  C  C470  1  0.258790  0.195160  0.031660  1
  C  C471  1  0.514390  0.695160  0.531660  1
  C  C472  1  0.741210  0.804840  0.968340  1
  C  C473  1  0.452240  0.297220  0.441700  1
  C  C474  1  0.191160  0.202780  0.058300  1
  C  C475  1  0.547760  0.702780  0.558300  1
  C  C476  1  0.808840  0.797220  0.941700  1
  C  C477  1  0.462150  0.306710  0.401390  1
  C  C478  1  0.170250  0.193290  0.098610  1
  C  C479  1  0.537850  0.693290  0.598610  1
  C  C480  1  0.829750  0.806710  0.901390  1
  C  C481  1  0.404200  0.292990  0.390010  1
  C  C482  1  0.087200  0.207010  0.109990  1
  C  C483  1  0.595800  0.707010  0.609990  1
  C  C484  1  0.912800  0.792990  0.890010  1
  C  C485  1  0.292100  0.260400  0.426400  1
  C  C486  1  0.978900  0.239600  0.073600  1
  C  C487  1  0.707900  0.739600  0.573600  1
  C  C488  1  0.021100  0.760400  0.926400  1
  C  C489  1  0.792460  0.014990  0.326090  1
  C  C490  1  0.133540  0.485010  0.173910  1
  C  C491  1  0.207540  0.985010  0.673910  1
  C  C492  1  0.866460  0.514990  0.826090  1
  C  C493  1  0.849430  0.990270  0.346470  1
  C  C494  1  0.186170  0.509730  0.153530  1
  C  C495  1  0.150570  0.009730  0.653530  1
  C  C496  1  0.813830  0.490270  0.846470  1
  C  C497  1  0.827580  0.977240  0.385200  1
  C  C498  1  0.190020  0.522760  0.114800  1
  C  C499  1  0.172420  0.022760  0.614800  1
  C  C500  1  0.809980  0.477240  0.885200  1
  C  C501  1  0.748660  0.988930  0.403550  1
  C  C502  1  0.141140  0.511070  0.096450  1
  C  C503  1  0.251340  0.011070  0.596450  1
  C  C504  1  0.858860  0.488930  0.903550  1
  C  C505  1  0.691700  0.013630  0.383170  1
  C  C506  1  0.088500  0.486370  0.116830  1
  C  C507  1  0.308300  0.986370  0.616830  1
  C  C508  1  0.911500  0.513630  0.883170  1
  C  C509  1  0.613730  0.026340  0.402000  1
  C  C510  1  0.042070  0.473660  0.098000  1
  C  C511  1  0.386270  0.973660  0.598000  1
  C  C512  1  0.957930  0.526340  0.902000  1
  C  C513  1  0.571800  0.024340  0.440660  1
  C  C514  1  0.036800  0.475660  0.059340  1
  C  C515  1  0.428200  0.975660  0.559340  1
  C  C516  1  0.963200  0.524340  0.940660  1
  C  C517  1  0.490480  0.040870  0.441170  1
  C  C518  1  0.972520  0.459130  0.058830  1
  C  C519  1  0.509520  0.959130  0.558830  1
  C  C520  1  0.027480  0.540870  0.941170  1
  C  C521  1  0.416000  0.071700  0.387300  1
  C  C522  1  0.875000  0.428300  0.112700  1
  C  C523  1  0.584000  0.928300  0.612700  1
  C  C524  1  0.125000  0.571700  0.887300  1
  C  C525  1  0.312100  0.204900  0.422500  1
  C  C526  1  0.939500  0.295100  0.077500  1
  C  C527  1  0.687900  0.795100  0.577500  1
  C  C528  1  0.060500  0.704900  0.922500  1
  C  C529  1  0.263400  0.177700  0.439300  1
  C  C530  1  0.880400  0.322300  0.060700  1
  C  C531  1  0.736600  0.822300  0.560700  1
  C  C532  1  0.119600  0.677700  0.939300  1
  C  C533  1  0.294800  0.129200  0.428000  1
  C  C534  1  0.852000  0.370800  0.072000  1
  C  C535  1  0.705200  0.870800  0.572000  1
  C  C536  1  0.148000  0.629200  0.928000  1
  C  C537  1  0.368100  0.117600  0.403600  1
  C  C538  1  0.889300  0.382400  0.096400  1
  C  C539  1  0.631900  0.882400  0.596400  1
  C  C540  1  0.110700  0.617600  0.903600  1
  Cu  Cu541  1  0.626550  0.056840  0.314940  1
  Cu  Cu542  1  0.998330  0.443160  0.185060  1
  Cu  Cu543  1  0.373450  0.943160  0.685060  1
  Cu  Cu544  1  0.001670  0.556840  0.814940  1
  Cu  Cu545  1  0.547660  0.363240  0.134440  1
  Cu  Cu546  1  0.045340  0.136760  0.365560  1
  Cu  Cu547  1  0.452340  0.636760  0.865560  1
  Cu  Cu548  1  0.954660  0.863240  0.634440  1
  Cu  Cu549  1  0.368300  0.597830  0.316530  1
  Cu  Cu550  1  0.282660  0.902170  0.183470  1
  Cu  Cu551  1  0.631700  0.402170  0.683470  1
  Cu  Cu552  1  0.717340  0.097830  0.816530  1
  Cu  Cu553  1  0.366170  0.261460  0.512780  1
  Cu  Cu554  1  0.140410  0.238540  0.987220  1
  Cu  Cu555  1  0.633830  0.738540  0.487220  1
  Cu  Cu556  1  0.859590  0.761460  0.012780  1
  F  F557  1  0.835150  0.189300  0.318400  1
  F  F558  1  0.342850  0.310700  0.181600  1
  F  F559  1  0.164850  0.810700  0.681600  1
  F  F560  1  0.657150  0.689300  0.818400  1
  F  F561  1  0.803100  0.171830  0.267370  1
  F  F562  1  0.242300  0.328170  0.232630  1
  F  F563  1  0.196900  0.828170  0.732630  1
  F  F564  1  0.757700  0.671830  0.767370  1
  F  F565  1  0.756920  0.250240  0.287520  1
  F  F566  1  0.294680  0.249760  0.212480  1
  F  F567  1  0.243080  0.749760  0.712480  1
  F  F568  1  0.705320  0.750240  0.787520  1
  F  F569  1  0.881610  0.219750  0.258830  1
  F  F570  1  0.360190  0.280250  0.241170  1
  F  F571  1  0.118390  0.780250  0.741170  1
  F  F572  1  0.639810  0.719750  0.758830  1
  F  F573  1  0.284080  0.952840  0.491000  1
  F  F574  1  0.727920  0.547160  0.009000  1
  F  F575  1  0.715920  0.047160  0.509000  1
  F  F576  1  0.272080  0.452840  0.991000  1
  F  F577  1  0.350950  0.009600  0.484500  1
  F  F578  1  0.845050  0.490400  0.015500  1
  F  F579  1  0.649050  0.990400  0.515500  1
  F  F580  1  0.154950  0.509600  0.984500  1
  F  F581  1  0.220430  0.031240  0.510900  1
  F  F582  1  0.762570  0.468760  0.989100  1
  F  F583  1  0.779570  0.968760  0.489100  1
  F  F584  1  0.237430  0.531240  0.010900  1
  F  F585  1  0.265240  0.019130  0.446190  1
  F  F586  1  0.730560  0.480870  0.053810  1
  F  F587  1  0.734760  0.980870  0.553810  1
  F  F588  1  0.269440  0.519130  0.946190  1
  F  F589  1  0.686050  0.373500  0.324800  1
  F  F590  1  0.384350  0.126500  0.175200  1
  F  F591  1  0.313950  0.626500  0.675200  1
  F  F592  1  0.615650  0.873500  0.824800  1
  F  F593  1  0.673420  0.308560  0.366400  1
  F  F594  1  0.348380  0.191440  0.133600  1
  F  F595  1  0.326580  0.691440  0.633600  1
  F  F596  1  0.651620  0.808560  0.866400  1
  F  F597  1  0.600130  0.332740  0.323400  1
  F  F598  1  0.256270  0.167260  0.176600  1
  F  F599  1  0.399870  0.667260  0.676600  1
  F  F600  1  0.743730  0.832740  0.823400  1
  F  F601  1  0.577970  0.382560  0.372100  1
  F  F602  1  0.332630  0.117440  0.127900  1
  F  F603  1  0.422030  0.617440  0.627900  1
  F  F604  1  0.667370  0.882560  0.872100  1
  H  H605  1  0.555700  0.971700  0.348500  1
  H  H606  1  0.875900  0.528300  0.151500  1
  H  H607  1  0.444300  0.028300  0.651500  1
  H  H608  1  0.124100  0.471700  0.848500  1
  H  H609  1  0.577500  0.889600  0.335800  1
  H  H610  1  0.802900  0.610400  0.164200  1
  H  H611  1  0.422500  0.110400  0.664200  1
  H  H612  1  0.197100  0.389600  0.835800  1
  H  H613  1  0.675400  0.854000  0.283400  1
  H  H614  1  0.812800  0.646000  0.216600  1
  H  H615  1  0.324600  0.146000  0.716600  1
  H  H616  1  0.187200  0.354000  0.783400  1
  H  H617  1  0.751400  0.900600  0.243800  1
  H  H618  1  0.895800  0.599400  0.256200  1
  H  H619  1  0.248600  0.099400  0.756200  1
  H  H620  1  0.104200  0.400600  0.743800  1
  H  H621  1  0.830500  0.954000  0.205600  1
  H  H622  1  0.990100  0.546000  0.294400  1
  H  H623  1  0.169500  0.046000  0.794400  1
  H  H624  1  0.009900  0.454000  0.705600  1
  H  H625  1  0.855900  0.036000  0.182400  1
  H  H626  1  0.074300  0.464000  0.317600  1
  H  H627  1  0.144100  0.964000  0.817600  1
  H  H628  1  0.925700  0.536000  0.682400  1
  H  H629  1  0.785100  0.129500  0.207700  1
  H  H630  1  0.122300  0.370500  0.292300  1
  H  H631  1  0.214900  0.870500  0.792300  1
  H  H632  1  0.877700  0.629500  0.707700  1
  H  H633  1  0.727600  0.133200  0.249400  1
  H  H634  1  0.110200  0.366800  0.250600  1
  H  H635  1  0.272400  0.866800  0.750600  1
  H  H636  1  0.889800  0.633200  0.749400  1
  H  H637  1  0.651800  0.412600  0.071200  1
  H  H638  1  0.135600  0.087400  0.428800  1
  H  H639  1  0.348200  0.587400  0.928800  1
  H  H640  1  0.864400  0.912600  0.571200  1
  H  H641  1  0.710500  0.404800  0.006000  1
  H  H642  1  0.121300  0.095200  0.494000  1
  H  H643  1  0.289500  0.595200  0.994000  1
  H  H644  1  0.878700  0.904800  0.506000  1
  H  H645  1  0.703600  0.341200  0.973800  1
  H  H646  1  0.018600  0.158800  0.526200  1
  H  H647  1  0.296400  0.658800  0.026200  1
  H  H648  1  0.981400  0.841200  0.473800  1
  H  H649  1  0.637900  0.285400  0.007000  1
  H  H650  1  0.930300  0.214600  0.493000  1
  H  H651  1  0.362100  0.714600  0.993000  1
  H  H652  1  0.069700  0.785400  0.507000  1
  H  H653  1  0.546900  0.241700  0.040700  1
  H  H654  1  0.829300  0.258300  0.459300  1
  H  H655  1  0.453100  0.758300  0.959300  1
  H  H656  1  0.170700  0.741700  0.540700  1
  H  H657  1  0.481200  0.200100  0.100300  1
  H  H658  1  0.781600  0.299900  0.399700  1
  H  H659  1  0.518800  0.799900  0.899700  1
  H  H660  1  0.218400  0.700100  0.600300  1
  H  H661  1  0.443500  0.218700  0.175100  1
  H  H662  1  0.837300  0.281300  0.324900  1
  H  H663  1  0.556500  0.781300  0.824900  1
  H  H664  1  0.162700  0.718700  0.675100  1
  H  H665  1  0.476600  0.258200  0.187000  1
  H  H666  1  0.921800  0.241800  0.313000  1
  H  H667  1  0.523400  0.741800  0.813000  1
  H  H668  1  0.078200  0.758200  0.687000  1
  H  H669  1  0.661200  0.077200  0.186000  1
  H  H670  1  0.924400  0.422800  0.314000  1
  H  H671  1  0.338800  0.922800  0.814000  1
  H  H672  1  0.075600  0.577200  0.686000  1
  H  H673  1  0.542200  0.128200  0.165000  1
  H  H674  1  0.835400  0.371800  0.335000  1
  H  H675  1  0.457800  0.871800  0.835000  1
  H  H676  1  0.164600  0.628200  0.665000  1
  H  H677  1  0.415900  0.344200  0.108200  1
  H  H678  1  0.868300  0.155800  0.391800  1
  H  H679  1  0.584100  0.655800  0.891800  1
  H  H680  1  0.131700  0.844200  0.608200  1
  H  H681  1  0.334800  0.384500  0.066300  1
  H  H682  1  0.785600  0.115500  0.433700  1
  H  H683  1  0.665200  0.615500  0.933700  1
  H  H684  1  0.214400  0.884500  0.566300  1
  H  H685  1  0.324700  0.466900  0.044900  1
  H  H686  1  0.836500  0.033100  0.455100  1
  H  H687  1  0.675300  0.533100  0.955100  1
  H  H688  1  0.163500  0.966900  0.544900  1
  H  H689  1  0.395900  0.508600  0.065400  1
  H  H690  1  0.969900  0.991400  0.434600  1
  H  H691  1  0.604100  0.491400  0.934600  1
  H  H692  1  0.030100  0.008600  0.565400  1
  H  H693  1  0.469200  0.547300  0.089300  1
  H  H694  1  0.105800  0.952700  0.410700  1
  H  H695  1  0.530800  0.452700  0.910700  1
  H  H696  1  0.894200  0.047300  0.589300  1
  H  H697  1  0.578000  0.551300  0.118300  1
  H  H698  1  0.247600  0.948700  0.381700  1
  H  H699  1  0.422000  0.448700  0.881700  1
  H  H700  1  0.752400  0.051300  0.618300  1
  H  H701  1  0.698200  0.469300  0.138500  1
  H  H702  1  0.306000  0.030700  0.361500  1
  H  H703  1  0.301800  0.530700  0.861500  1
  H  H704  1  0.694000  0.969300  0.638500  1
  H  H705  1  0.670100  0.422100  0.155700  1
  H  H706  1  0.247900  0.077900  0.344300  1
  H  H707  1  0.329900  0.577900  0.844300  1
  H  H708  1  0.752100  0.922100  0.655700  1
  H  H709  1  0.187500  0.654400  0.325000  1
  H  H710  1  0.166900  0.845600  0.175000  1
  H  H711  1  0.812500  0.345600  0.675000  1
  H  H712  1  0.833100  0.154400  0.825000  1
  H  H713  1  0.073200  0.630700  0.342900  1
  H  H714  1  0.046800  0.869300  0.157100  1
  H  H715  1  0.926800  0.369300  0.657100  1
  H  H716  1  0.953200  0.130700  0.842900  1
  H  H717  1  0.081400  0.546900  0.355300  1
  H  H718  1  0.983600  0.953100  0.144700  1
  H  H719  1  0.918600  0.453100  0.644700  1
  H  H720  1  0.016400  0.046900  0.855300  1
  H  H721  1  0.204000  0.486900  0.349700  1
  H  H722  1  0.040600  0.013100  0.150300  1
  H  H723  1  0.796000  0.513100  0.650300  1
  H  H724  1  0.959400  0.986900  0.849700  1
  H  H725  1  0.339800  0.428000  0.339000  1
  H  H726  1  0.106800  0.072000  0.161000  1
  H  H727  1  0.660200  0.572000  0.661000  1
  H  H728  1  0.893200  0.928000  0.839000  1
  H  H729  1  0.488000  0.405600  0.324600  1
  H  H730  1  0.218200  0.094400  0.175400  1
  H  H731  1  0.512000  0.594400  0.675400  1
  H  H732  1  0.781800  0.905600  0.824600  1
  H  H733  1  0.581500  0.455900  0.316700  1
  H  H734  1  0.354100  0.044100  0.183300  1
  H  H735  1  0.418500  0.544100  0.683300  1
  H  H736  1  0.645900  0.955900  0.816700  1
  H  H737  1  0.546800  0.514800  0.318400  1
  H  H738  1  0.380000  0.985200  0.181600  1
  H  H739  1  0.453200  0.485200  0.681600  1
  H  H740  1  0.620000  0.014800  0.818400  1
  H  H741  1  0.691400  0.527800  0.189800  1
  H  H742  1  0.409000  0.972200  0.310200  1
  H  H743  1  0.308600  0.472200  0.810200  1
  H  H744  1  0.591000  0.027800  0.689800  1
  H  H745  1  0.645000  0.539100  0.259300  1
  H  H746  1  0.443400  0.960900  0.240700  1
  H  H747  1  0.355000  0.460900  0.740700  1
  H  H748  1  0.556600  0.039100  0.759300  1
  H  H749  1  0.728300  0.310800  0.108600  1
  H  H750  1  0.147700  0.189200  0.391400  1
  H  H751  1  0.271700  0.689200  0.891400  1
  H  H752  1  0.852300  0.810800  0.608600  1
  H  H753  1  0.829300  0.268300  0.139700  1
  H  H754  1  0.237300  0.231700  0.360300  1
  H  H755  1  0.170700  0.731700  0.860300  1
  H  H756  1  0.762700  0.768300  0.639700  1
  H  H757  1  0.803000  0.259800  0.206600  1
  H  H758  1  0.269400  0.240200  0.293400  1
  H  H759  1  0.197000  0.740200  0.793400  1
  H  H760  1  0.730600  0.759800  0.706600  1
  H  H761  1  0.675600  0.293900  0.242500  1
  H  H762  1  0.212000  0.206100  0.257500  1
  H  H763  1  0.324400  0.706100  0.757500  1
  H  H764  1  0.788000  0.793900  0.742500  1
  H  H765  1  0.531400  0.330000  0.275200  1
  H  H766  1  0.136600  0.170000  0.224800  1
  H  H767  1  0.468600  0.670000  0.724800  1
  H  H768  1  0.863400  0.830000  0.775200  1
  H  H769  1  0.388400  0.375900  0.276500  1
  H  H770  1  0.040800  0.124100  0.223500  1
  H  H771  1  0.611600  0.624100  0.723500  1
  H  H772  1  0.959200  0.875900  0.776500  1
  H  H773  1  0.312500  0.389200  0.215800  1
  H  H774  1  0.917500  0.110800  0.284200  1
  H  H775  1  0.687500  0.610800  0.784200  1
  H  H776  1  0.082500  0.889200  0.715800  1
  H  H777  1  0.360500  0.408000  0.176600  1
  H  H778  1  0.945100  0.092000  0.323400  1
  H  H779  1  0.639500  0.592000  0.823400  1
  H  H780  1  0.054900  0.908000  0.676600  1
  H  H781  1  0.496600  0.607500  0.352100  1
  H  H782  1  0.456200  0.892500  0.147900  1
  H  H783  1  0.503400  0.392500  0.647900  1
  H  H784  1  0.543800  0.107500  0.852100  1
  H  H785  1  0.608600  0.633600  0.331000  1
  H  H786  1  0.573200  0.866400  0.169000  1
  H  H787  1  0.391400  0.366400  0.669000  1
  H  H788  1  0.426800  0.133600  0.831000  1
  H  H789  1  0.652300  0.652600  0.265800  1
  H  H790  1  0.570700  0.847400  0.234200  1
  H  H791  1  0.347700  0.347400  0.734200  1
  H  H792  1  0.429300  0.152600  0.765800  1
  H  H793  1  0.584000  0.645600  0.221600  1
  H  H794  1  0.451200  0.854400  0.278400  1
  H  H795  1  0.416000  0.354400  0.778400  1
  H  H796  1  0.548800  0.145600  0.721600  1
  H  H797  1  0.525200  0.618900  0.178500  1
  H  H798  1  0.322600  0.881100  0.321500  1
  H  H799  1  0.474800  0.381100  0.821500  1
  H  H800  1  0.677400  0.118900  0.678500  1
  H  H801  1  0.409700  0.607300  0.159500  1
  H  H802  1  0.176500  0.892700  0.340500  1
  H  H803  1  0.590300  0.392700  0.840500  1
  H  H804  1  0.823500  0.107300  0.659500  1
  H  H805  1  0.261400  0.616700  0.199700  1
  H  H806  1  0.077800  0.883300  0.300300  1
  H  H807  1  0.738600  0.383300  0.800300  1
  H  H808  1  0.922200  0.116700  0.699700  1
  H  H809  1  0.245400  0.618000  0.245200  1
  H  H810  1  0.108600  0.882000  0.254800  1
  H  H811  1  0.754600  0.382000  0.754800  1
  H  H812  1  0.891400  0.118000  0.745200  1
  H  H813  1  0.218400  0.455700  0.257300  1
  H  H814  1  0.931400  0.044300  0.242700  1
  H  H815  1  0.781600  0.544300  0.742700  1
  H  H816  1  0.068600  0.955700  0.757300  1
  H  H817  1  0.185500  0.544100  0.265300  1
  H  H818  1  0.994900  0.955900  0.234700  1
  H  H819  1  0.814500  0.455900  0.734700  1
  H  H820  1  0.005100  0.044100  0.765300  1
  H  H821  1  0.303500  0.699200  0.277400  1
  H  H822  1  0.280100  0.800800  0.222600  1
  H  H823  1  0.696500  0.300800  0.722600  1
  H  H824  1  0.719900  0.199200  0.777400  1
  H  H825  1  0.239800  0.780700  0.295500  1
  H  H826  1  0.316000  0.719300  0.204500  1
  H  H827  1  0.760200  0.219300  0.704500  1
  H  H828  1  0.684000  0.280700  0.795500  1
  H  H829  1  0.215900  0.799200  0.359400  1
  H  H830  1  0.374500  0.700800  0.140600  1
  H  H831  1  0.784100  0.200800  0.640600  1
  H  H832  1  0.625500  0.299200  0.859400  1
  H  H833  1  0.255500  0.736600  0.405200  1
  H  H834  1  0.397300  0.763400  0.094800  1
  H  H835  1  0.744500  0.263400  0.594800  1
  H  H836  1  0.602700  0.236600  0.905200  1
  H  H837  1  0.288200  0.672300  0.451300  1
  H  H838  1  0.411800  0.827700  0.048700  1
  H  H839  1  0.711800  0.327700  0.548700  1
  H  H840  1  0.588200  0.172300  0.951300  1
  H  H841  1  0.352500  0.584600  0.475000  1
  H  H842  1  0.412100  0.915400  0.025000  1
  H  H843  1  0.647500  0.415400  0.525000  1
  H  H844  1  0.587900  0.084600  0.975000  1
  H  H845  1  0.454400  0.500700  0.431900  1
  H  H846  1  0.387000  0.999300  0.068100  1
  H  H847  1  0.545600  0.499300  0.568100  1
  H  H848  1  0.613000  0.000700  0.931900  1
  H  H849  1  0.444400  0.504400  0.388400  1
  H  H850  1  0.337200  0.995600  0.111600  1
  H  H851  1  0.555600  0.495600  0.611600  1
  H  H852  1  0.662800  0.004400  0.888400  1
  H  H853  1  0.410000  0.196700  0.583900  1
  H  H854  1  0.190600  0.303300  0.916100  1
  H  H855  1  0.590000  0.803300  0.416100  1
  H  H856  1  0.809400  0.696700  0.083900  1
  H  H857  1  0.378400  0.206000  0.650000  1
  H  H858  1  0.234400  0.294000  0.850000  1
  H  H859  1  0.621600  0.794000  0.350000  1
  H  H860  1  0.765600  0.706000  0.150000  1
  H  H861  1  0.287100  0.278800  0.675600  1
  H  H862  1  0.241500  0.221200  0.824400  1
  H  H863  1  0.712900  0.721200  0.324400  1
  H  H864  1  0.758500  0.778800  0.175600  1
  H  H865  1  0.227600  0.342100  0.635100  1
  H  H866  1  0.204800  0.157900  0.864900  1
  H  H867  1  0.772400  0.657900  0.364900  1
  H  H868  1  0.795200  0.842100  0.135100  1
  H  H869  1  0.168000  0.403700  0.592100  1
  H  H870  1  0.163800  0.096300  0.907900  1
  H  H871  1  0.832000  0.596300  0.407900  1
  H  H872  1  0.836200  0.903700  0.092100  1
  H  H873  1  0.144600  0.445900  0.528100  1
  H  H874  1  0.118600  0.054100  0.971900  1
  H  H875  1  0.855400  0.554100  0.471900  1
  H  H876  1  0.881400  0.945900  0.028100  1
  H  H877  1  0.190700  0.396700  0.456700  1
  H  H878  1  0.044100  0.103300  0.043300  1
  H  H879  1  0.809300  0.603300  0.543300  1
  H  H880  1  0.955900  0.896700  0.956700  1
  H  H881  1  0.278600  0.360800  0.451200  1
  H  H882  1  0.090600  0.139200  0.048800  1
  H  H883  1  0.721400  0.639200  0.548800  1
  H  H884  1  0.909400  0.860800  0.951200  1
  H  H885  1  0.248800  0.548900  0.422100  1
  H  H886  1  0.219800  0.951100  0.077900  1
  H  H887  1  0.751200  0.451100  0.577900  1
  H  H888  1  0.780200  0.048900  0.922100  1
  H  H889  1  0.170000  0.489900  0.444100  1
  H  H890  1  0.104000  0.010100  0.055900  1
  H  H891  1  0.830000  0.510100  0.555900  1
  H  H892  1  0.896000  0.989900  0.944100  1
  H  H893  1  0.189400  0.284600  0.520000  1
  H  H894  1  0.994000  0.215400  0.980000  1
  H  H895  1  0.810600  0.715400  0.480000  1
  H  H896  1  0.006000  0.784600  0.020000  1
  H  H897  1  0.098400  0.240400  0.538800  1
  H  H898  1  0.877600  0.259600  0.961200  1
  H  H899  1  0.901600  0.759600  0.461200  1
  H  H900  1  0.122400  0.740400  0.038800  1
  H  H901  1  0.141500  0.154300  0.549100  1
  H  H902  1  0.844900  0.345700  0.950900  1
  H  H903  1  0.858500  0.845700  0.450900  1
  H  H904  1  0.155100  0.654300  0.049100  1
  H  H905  1  0.275600  0.112500  0.540500  1
  H  H906  1  0.928600  0.387500  0.959500  1
  H  H907  1  0.724400  0.887500  0.459500  1
  H  H908  1  0.071400  0.612500  0.040500  1
  H  H909  1  0.408900  0.076200  0.542200  1
  H  H910  1  0.027300  0.423800  0.957800  1
  H  H911  1  0.591100  0.923800  0.457800  1
  H  H912  1  0.972700  0.576200  0.042200  1
  H  H913  1  0.551800  0.071200  0.532200  1
  H  H914  1  0.155200  0.428800  0.967800  1
  H  H915  1  0.448200  0.928800  0.467800  1
  H  H916  1  0.844800  0.571200  0.032200  1
  H  H917  1  0.625000  0.137900  0.519500  1
  H  H918  1  0.282400  0.362100  0.980500  1
  H  H919  1  0.375000  0.862100  0.480500  1
  H  H920  1  0.717600  0.637900  0.019500  1
  H  H921  1  0.570600  0.194400  0.521400  1
  H  H922  1  0.286400  0.305600  0.978600  1
  H  H923  1  0.429400  0.805600  0.478600  1
  H  H924  1  0.713600  0.694400  0.021400  1
  H  H925  1  0.525500  0.027200  0.269000  1
  H  H926  1  0.821700  0.472800  0.231000  1
  H  H927  1  0.474500  0.972800  0.731000  1
  H  H928  1  0.178300  0.527200  0.769000  1
  H  H929  1  0.423300  0.070000  0.238800  1
  H  H930  1  0.732100  0.430000  0.261200  1
  H  H931  1  0.576700  0.930000  0.761200  1
  H  H932  1  0.267900  0.570000  0.738800  1
  H  H933  1  0.373900  0.156300  0.239500  1
  H  H934  1  0.769700  0.343700  0.260500  1
  H  H935  1  0.626100  0.843700  0.760500  1
  H  H936  1  0.230300  0.656300  0.739500  1
  H  H937  1  0.426900  0.200000  0.270200  1
  H  H938  1  0.897100  0.300000  0.229800  1
  H  H939  1  0.573100  0.800000  0.729800  1
  H  H940  1  0.102900  0.700000  0.770200  1
  H  H941  1  0.499100  0.239400  0.300600  1
  H  H942  1  0.039100  0.260600  0.199400  1
  H  H943  1  0.500900  0.760600  0.699400  1
  H  H944  1  0.960900  0.739400  0.800600  1
  H  H945  1  0.598900  0.240800  0.336800  1
  H  H946  1  0.176500  0.259200  0.163200  1
  H  H947  1  0.401100  0.759200  0.663200  1
  H  H948  1  0.823500  0.740800  0.836800  1
  H  H949  1  0.739300  0.156100  0.343900  1
  H  H950  1  0.239300  0.343900  0.156100  1
  H  H951  1  0.260700  0.843900  0.656100  1
  H  H952  1  0.760700  0.656100  0.843900  1
  H  H953  1  0.710300  0.108700  0.359900  1
  H  H954  1  0.178900  0.391300  0.140100  1
  H  H955  1  0.289700  0.891300  0.640100  1
  H  H956  1  0.821100  0.608700  0.859900  1
  H  H957  1  0.660100  0.227900  0.464900  1
  H  H958  1  0.352900  0.272100  0.035100  1
  H  H959  1  0.339900  0.772100  0.535100  1
  H  H960  1  0.647100  0.727900  0.964900  1
  H  H961  1  0.708300  0.222000  0.395600  1
  H  H962  1  0.325900  0.278000  0.104400  1
  H  H963  1  0.291700  0.778000  0.604400  1
  H  H964  1  0.674100  0.722000  0.895600  1
  H  H965  1  0.473000  0.285500  0.560500  1
  H  H966  1  0.319000  0.214500  0.939500  1
  H  H967  1  0.527000  0.714500  0.439500  1
  H  H968  1  0.681000  0.785500  0.060500  1
  H  H969  1  0.576100  0.320200  0.545200  1
  H  H970  1  0.441500  0.179800  0.954800  1
  H  H971  1  0.423900  0.679800  0.454800  1
  H  H972  1  0.558500  0.820200  0.045200  1
  H  H973  1  0.622600  0.345100  0.481700  1
  H  H974  1  0.449400  0.154900  0.018300  1
  H  H975  1  0.377400  0.654900  0.518300  1
  H  H976  1  0.550600  0.845100  0.981700  1
  H  H977  1  0.565800  0.335600  0.433400  1
  H  H978  1  0.334800  0.164400  0.066600  1
  H  H979  1  0.434200  0.664400  0.566600  1
  H  H980  1  0.665200  0.835600  0.933400  1
  H  H981  1  0.500700  0.319800  0.385000  1
  H  H982  1  0.205500  0.180200  0.115000  1
  H  H983  1  0.499300  0.680200  0.615000  1
  H  H984  1  0.794500  0.819800  0.885000  1
  H  H985  1  0.397200  0.295400  0.364600  1
  H  H986  1  0.057200  0.204600  0.135400  1
  H  H987  1  0.602800  0.704600  0.635400  1
  H  H988  1  0.942800  0.795400  0.864600  1
  H  H989  1  0.264400  0.278800  0.406200  1
  H  H990  1  0.949400  0.221200  0.093800  1
  H  H991  1  0.735600  0.721200  0.593800  1
  H  H992  1  0.050600  0.778800  0.906200  1
  H  H993  1  0.256000  0.269400  0.451600  1
  H  H994  1  0.977000  0.230600  0.048400  1
  H  H995  1  0.744000  0.730600  0.548400  1
  H  H996  1  0.023000  0.769400  0.951600  1
  H  H997  1  0.807400  0.024000  0.299600  1
  H  H998  1  0.131000  0.476000  0.200400  1
  H  H999  1  0.192600  0.976000  0.700400  1
  H  H1000  1  0.869000  0.524000  0.799600  1
  H  H1001  1  0.903400  0.982300  0.333900  1
  H  H1002  1  0.219600  0.517700  0.166100  1
  H  H1003  1  0.096600  0.017700  0.666100  1
  H  H1004  1  0.780400  0.482300  0.833900  1
  H  H1005  1  0.866500  0.960300  0.399100  1
  H  H1006  1  0.225900  0.539700  0.100900  1
  H  H1007  1  0.133500  0.039700  0.600900  1
  H  H1008  1  0.774100  0.460300  0.899100  1
  H  H1009  1  0.733800  0.980000  0.430000  1
  H  H1010  1  0.143800  0.520000  0.070000  1
  H  H1011  1  0.266200  0.020000  0.570000  1
  H  H1012  1  0.856200  0.480000  0.930000  1
  H  H1013  1  0.594100  0.013800  0.462400  1
  H  H1014  1  0.070300  0.486200  0.037600  1
  H  H1015  1  0.405900  0.986200  0.537600  1
  H  H1016  1  0.929700  0.513800  0.962400  1
  H  H1017  1  0.449000  0.043300  0.463300  1
  H  H1018  1  0.955600  0.456700  0.036700  1
  H  H1019  1  0.551000  0.956700  0.536700  1
  H  H1020  1  0.044400  0.543300  0.963300  1
  H  H1021  1  0.385800  0.047800  0.392800  1
  H  H1022  1  0.826400  0.452200  0.107200  1
  H  H1023  1  0.614200  0.952200  0.607200  1
  H  H1024  1  0.173600  0.547800  0.892800  1
  H  H1025  1  0.432200  0.076900  0.359100  1
  H  H1026  1  0.868200  0.423100  0.140900  1
  H  H1027  1  0.567800  0.923100  0.640900  1
  H  H1028  1  0.131800  0.576900  0.859100  1
  H  H1029  1  0.214400  0.190000  0.456600  1
  H  H1030  1  0.861000  0.310000  0.043400  1
  H  H1031  1  0.785600  0.810000  0.543400  1
  H  H1032  1  0.139000  0.690000  0.956600  1
  H  H1033  1  0.267300  0.105500  0.436500  1
  H  H1034  1  0.809300  0.394500  0.063500  1
  H  H1035  1  0.732700  0.894500  0.563500  1
  H  H1036  1  0.190700  0.605500  0.936500  1
  N  N1037  1  0.640560  0.984880  0.303800  1
  N  N1038  1  0.929240  0.515120  0.196200  1
  N  N1039  1  0.359440  0.015120  0.696200  1
  N  N1040  1  0.070760  0.484880  0.803800  1
  N  N1041  1  0.762020  0.067360  0.228400  1
  N  N1042  1  0.057780  0.432640  0.271600  1
  N  N1043  1  0.237980  0.932640  0.771600  1
  N  N1044  1  0.942220  0.567360  0.728400  1
  N  N1045  1  0.713990  0.043970  0.256650  1
  N  N1046  1  0.014610  0.456030  0.243350  1
  N  N1047  1  0.286010  0.956030  0.743350  1
  N  N1048  1  0.985390  0.543970  0.756650  1
  N  N1049  1  0.609940  0.353590  0.077930  1
  N  N1050  1  0.041460  0.146410  0.422070  1
  N  N1051  1  0.390060  0.646410  0.922070  1
  N  N1052  1  0.958540  0.853590  0.577930  1
  N  N1053  1  0.507110  0.247370  0.132210  1
  N  N1054  1  0.886690  0.252630  0.367790  1
  N  N1055  1  0.492890  0.752630  0.867790  1
  N  N1056  1  0.113310  0.747370  0.632210  1
  N  N1057  1  0.545870  0.283940  0.118920  1
  N  N1058  1  0.948730  0.216060  0.381080  1
  N  N1059  1  0.454130  0.716060  0.881080  1
  N  N1060  1  0.051270  0.783940  0.618920  1
  N  N1061  1  0.454170  0.402300  0.111760  1
  N  N1062  1  0.968230  0.097700  0.388240  1
  N  N1063  1  0.545830  0.597700  0.888240  1
  N  N1064  1  0.031770  0.902300  0.611760  1
  N  N1065  1  0.592230  0.475830  0.136510  1
  N  N1066  1  0.204570  0.024170  0.363490  1
  N  N1067  1  0.407770  0.524170  0.863490  1
  N  N1068  1  0.795430  0.975830  0.636510  1
  N  N1069  1  0.550570  0.444360  0.131100  1
  N  N1070  1  0.126030  0.055640  0.368900  1
  N  N1071  1  0.449430  0.555640  0.868900  1
  N  N1072  1  0.873970  0.944360  0.631100  1
  N  N1073  1  0.263710  0.584680  0.326700  1
  N  N1074  1  0.175090  0.915320  0.173300  1
  N  N1075  1  0.736290  0.415320  0.673300  1
  N  N1076  1  0.824910  0.084680  0.826700  1
  N  N1077  1  0.473280  0.482440  0.314600  1
  N  N1078  1  0.270320  0.017560  0.185400  1
  N  N1079  1  0.526720  0.517560  0.685400  1
  N  N1080  1  0.729680  0.982440  0.814600  1
  N  N1081  1  0.403110  0.522580  0.316800  1
  N  N1082  1  0.242490  0.977420  0.183200  1
  N  N1083  1  0.596890  0.477420  0.683200  1
  N  N1084  1  0.757510  0.022580  0.816800  1
  N  N1085  1  0.642030  0.327460  0.157080  1
  N  N1086  1  0.126570  0.172540  0.342920  1
  N  N1087  1  0.357970  0.672540  0.842920  1
  N  N1088  1  0.873430  0.827460  0.657080  1
  N  N1089  1  0.421910  0.381210  0.215770  1
  N  N1090  1  0.018890  0.118790  0.284230  1
  N  N1091  1  0.578090  0.618790  0.784230  1
  N  N1092  1  0.981110  0.881210  0.715770  1
  N  N1093  1  0.497080  0.363380  0.191260  1
  N  N1094  1  0.051720  0.136620  0.308740  1
  N  N1095  1  0.502920  0.636620  0.808740  1
  N  N1096  1  0.948280  0.863380  0.691260  1
  N  N1097  1  0.473750  0.611150  0.299350  1
  N  N1098  1  0.384250  0.888850  0.200650  1
  N  N1099  1  0.526250  0.388850  0.700650  1
  N  N1100  1  0.615750  0.111150  0.799350  1
  N  N1101  1  0.355460  0.607120  0.218760  1
  N  N1102  1  0.181340  0.892880  0.281240  1
  N  N1103  1  0.644540  0.392880  0.781240  1
  N  N1104  1  0.818660  0.107120  0.718760  1
  N  N1105  1  0.384180  0.612050  0.250390  1
  N  N1106  1  0.246620  0.887950  0.249610  1
  N  N1107  1  0.615820  0.387950  0.749610  1
  N  N1108  1  0.753380  0.112050  0.750390  1
  N  N1109  1  0.317270  0.669560  0.330500  1
  N  N1110  1  0.317330  0.830440  0.169500  1
  N  N1111  1  0.682730  0.330440  0.669500  1
  N  N1112  1  0.682670  0.169560  0.830500  1
  N  N1113  1  0.380320  0.565260  0.417300  1
  N  N1114  1  0.362880  0.934740  0.082700  1
  N  N1115  1  0.619680  0.434740  0.582700  1
  N  N1116  1  0.637120  0.065260  0.917300  1
  N  N1117  1  0.363350  0.595600  0.384300  1
  N  N1118  1  0.343250  0.904400  0.115700  1
  N  N1119  1  0.636650  0.404400  0.615700  1
  N  N1120  1  0.656750  0.095600  0.884300  1
  N  N1121  1  0.337600  0.263960  0.570240  1
  N  N1122  1  0.171800  0.236040  0.929760  1
  N  N1123  1  0.662400  0.736040  0.429760  1
  N  N1124  1  0.828200  0.763960  0.070240  1
  N  N1125  1  0.231200  0.382600  0.502600  1
  N  N1126  1  0.116400  0.117400  0.997400  1
  N  N1127  1  0.768800  0.617400  0.497400  1
  N  N1128  1  0.883600  0.882600  0.002600  1
  N  N1129  1  0.275400  0.339400  0.520400  1
  N  N1130  1  0.135200  0.160600  0.979600  1
  N  N1131  1  0.724600  0.660600  0.479600  1
  N  N1132  1  0.864800  0.839400  0.020400  1
  N  N1133  1  0.286520  0.224960  0.519000  1
  N  N1134  1  0.030480  0.275040  0.981000  1
  N  N1135  1  0.713480  0.775040  0.481000  1
  N  N1136  1  0.969520  0.724960  0.019000  1
  N  N1137  1  0.517950  0.147700  0.515200  1
  N  N1138  1  0.180850  0.352300  0.984800  1
  N  N1139  1  0.482050  0.852300  0.484800  1
  N  N1140  1  0.819150  0.647700  0.015200  1
  N  N1141  1  0.442560  0.179980  0.512900  1
  N  N1142  1  0.135440  0.320020  0.987100  1
  N  N1143  1  0.557440  0.820020  0.487100  1
  N  N1144  1  0.864560  0.679980  0.012900  1
  N  N1145  1  0.536940  0.088150  0.287570  1
  N  N1146  1  0.912660  0.411850  0.212430  1
  N  N1147  1  0.463060  0.911850  0.712430  1
  N  N1148  1  0.087340  0.588150  0.787570  1
  N  N1149  1  0.634970  0.162310  0.337550  1
  N  N1150  1  0.134830  0.337690  0.162450  1
  N  N1151  1  0.365030  0.837690  0.662450  1
  N  N1152  1  0.865170  0.662310  0.837550  1
  N  N1153  1  0.605810  0.130880  0.322100  1
  N  N1154  1  0.058790  0.369120  0.177900  1
  N  N1155  1  0.394190  0.869120  0.677900  1
  N  N1156  1  0.941210  0.630880  0.822100  1
  N  N1157  1  0.458070  0.289960  0.506100  1
  N  N1158  1  0.254130  0.210040  0.993900  1
  N  N1159  1  0.541930  0.710040  0.493900  1
  N  N1160  1  0.745870  0.789960  0.006100  1
  N  N1161  1  0.358550  0.275100  0.423200  1
  N  N1162  1  0.056850  0.224900  0.076800  1
  N  N1163  1  0.641450  0.724900  0.576800  1
  N  N1164  1  0.943150  0.775100  0.923200  1
  N  N1165  1  0.388270  0.277710  0.455150  1
  N  N1166  1  0.121130  0.222290  0.044850  1
  N  N1167  1  0.611730  0.722290  0.544850  1
  N  N1168  1  0.878870  0.777710  0.955150  1
  N  N1169  1  0.713650  0.026660  0.344440  1
  N  N1170  1  0.084750  0.473340  0.155560  1
  N  N1171  1  0.286350  0.973340  0.655560  1
  N  N1172  1  0.915250  0.526660  0.844440  1
  N  N1173  1  0.482230  0.053140  0.402800  1
  N  N1174  1  0.938170  0.446860  0.097200  1
  N  N1175  1  0.517770  0.946860  0.597200  1
  N  N1176  1  0.061830  0.553140  0.902800  1
  N  N1177  1  0.558430  0.044190  0.378550  1
  N  N1178  1  0.981170  0.455810  0.121450  1
  N  N1179  1  0.441570  0.955810  0.621450  1
  N  N1180  1  0.018830  0.544190  0.878550  1
  S  S1181  1  0.620910  0.200030  0.202970  1
  S  S1182  1  0.023910  0.299970  0.297030  1
  S  S1183  1  0.379090  0.799970  0.797030  1
  S  S1184  1  0.976090  0.700030  0.702970  1
  S  S1185  1  0.571090  0.455160  0.231400  1
  S  S1186  1  0.257650  0.044840  0.268600  1
  S  S1187  1  0.428910  0.544840  0.768600  1
  S  S1188  1  0.742350  0.955160  0.731400  1
  S  S1189  1  0.361630  0.504260  0.199480  1
  S  S1190  1  0.065370  0.995740  0.300520  1
  S  S1191  1  0.638370  0.495740  0.800520  1
  S  S1192  1  0.934630  0.004260  0.699480  1
  S  S1193  1  0.367660  0.432310  0.439570  1
  S  S1194  1  0.239540  0.067690  0.060430  1
  S  S1195  1  0.632340  0.567690  0.560430  1
  S  S1196  1  0.760460  0.932310  0.939570  1
  S  S1197  1  0.615540  0.133750  0.433830  1
  S  S1198  1  0.183120  0.366250  0.066170  1
  S  S1199  1  0.384460  0.866250  0.566170  1
  S  S1200  1  0.816880  0.633750  0.933830  1
  S  S1201  1  0.395770  0.171410  0.393730  1
  S  S1202  1  0.960910  0.328590  0.106270  1
  S  S1203  1  0.604230  0.828590  0.606270  1
  S  S1204  1  0.039090  0.671410  0.893730  1
