
#######################################################################
#
#                 Cambridge Crystallographic Data Centre
#                                CCDC 
#
#######################################################################
#
# If this CIF has been generated from an entry in the Cambridge 
# Structural Database, then it will include bibliographic, chemical, 
# crystal, experimental, refinement or atomic coordinate data resulting 
# from the CCDC's data processing and validation procedures.
#
#######################################################################

data_DAHGUQ
_chemical_formula_moiety         'C132 H108 Cu4 N36 S6 8+,8(B1 F4 1-)'
_chemical_name_systematic        
'hexakis(\m~2~-2,5-bis(3-(2-Pyridyl)pyrazolylmethyl)thiophene)-tetra-copper(ii) octakis(tetrafluoroborate)'
_symmetry_cell_setting           monoclinic
_symmetry_space_group_name_H-M   'C 2/c'
_symmetry_Int_Tables_number      15
_space_group_name_Hall           '-C 2yn'
loop_
_symmetry_equiv_pos_site_id
_symmetry_equiv_pos_as_xyz
1 x,y,z
2 -x,y,1/2-z
3 1/2+x,1/2+y,z
4 1/2-x,1/2+y,1/2-z
5 -x,-y,-z
6 x,-y,1/2+z
7 1/2-x,1/2-y,-z
8 1/2+x,1/2-y,1/2+z
_cell_length_a                   54.137(9)
_cell_length_b                   18.521(3)
_cell_length_c                   43.001(12)
_cell_angle_alpha                90
_cell_angle_beta                 125.747(2)
_cell_angle_gamma                90
_cell_volume                     34993
_exptl_crystal_colour            green
_exptl_crystal_description       needle
_cell_formula_units_Z            8
loop_
_atom_site_label
_atom_site_type_symbol
_atom_site_fract_x
_atom_site_fract_y
_atom_site_fract_z
Cu1 Cu 0.18589(3) 0.18756(6) 0.31494(4)
Cu2 Cu 0.24884(3) 0.20350(6) 0.13444(3)
Cu3 Cu 0.45718(3) 0.17452(8) 0.31653(4)
Cu4 Cu 0.38712(4) 0.24671(8) 0.51278(4)
N1 N 0.14434(13) 0.2151(3) 0.3038(2)
C1 C 0.14228(13) 0.2623(3) 0.32728(18)
H1 H 0.1601 0.2842 0.3485
C2 C 0.11410(16) 0.2775(3) 0.3197(2)
H2 H 0.1127 0.3098 0.3358
C3 C 0.08796(13) 0.2455(4) 0.2886(2)
H3 H 0.0687 0.2559 0.2834
C4 C 0.09002(13) 0.1983(4) 0.26505(18)
H4 H 0.0722 0.1764 0.2438
C5 C 0.11820(16) 0.1831(3) 0.27264(19)
N2 N 0.14788(14) 0.0901(3) 0.2284(2)
N3 N 0.15031(13) 0.1357(3) 0.25665(17)
C6 C 0.12120(16) 0.1397(4) 0.2495(2)
C7 C 0.10077(12) 0.0967(4) 0.2168(2)
H5 H 0.0798 0.0897 0.2056
C8 C 0.11726(16) 0.0661(3) 0.20378(17)
H6 H 0.1092 0.0349 0.1824
C9 C 0.1716(3) 0.0877(5) 0.2241(3)
H7 H 0.1686 0.0463 0.2077
H8 H 0.1913 0.0811 0.2494
N4 N 0.21576(13) 0.1743(3) 0.07793(13)
C10 C 0.22250(12) 0.1286(3) 0.05821(17)
H9 H 0.2419 0.1063 0.0712
C11 C 0.20081(16) 0.1154(3) 0.01943(17)
H10 H 0.2054 0.0841 0.0060
C12 C 0.17236(14) 0.1479(4) 0.00036(13)
H11 H 0.1575 0.1389 -0.0262
C13 C 0.16561(12) 0.1937(3) 0.02007(18)
H12 H 0.1462 0.2159 0.0070
C14 C 0.18731(15) 0.2069(3) 0.05886(18)
N5 N 0.18979(14) 0.3031(3) 0.13221(14)
N6 N 0.20143(13) 0.2527(3) 0.11892(17)
C15 C 0.18157(16) 0.2518(3) 0.07826(17)
C16 C 0.15766(14) 0.3016(4) 0.06643(14)
H13 H 0.1412 0.3119 0.0407
C17 C 0.16273(14) 0.3333(3) 0.09977(19)
H14 H 0.1502 0.3686 0.1003
C18 C 0.2004(3) 0.3095(5) 0.1705(3)
H15 H 0.1969 0.3596 0.1751
H16 H 0.2226 0.3008 0.1870
C19 C 0.1722(2) 0.1563(5) 0.2063(3)
C20 C 0.1504(2) 0.2099(5) 0.1890(3)
H17 H 0.1316 0.2072 0.1860
C21 C 0.1587(2) 0.2691(5) 0.1763(3)
H18 H 0.1466 0.3112 0.1650
C22 C 0.1859(2) 0.2596(5) 0.1818(3)
S1 S 0.20150(6) 0.17759(14) 0.20297(8)
N7 N 0.25703(15) 0.2888(3) 0.11176(17)
C23 C 0.23852(14) 0.3496(3) 0.09954(19)
H19 H 0.2262 0.3579 0.1082
C24 C 0.23810(15) 0.3983(3) 0.07462(19)
H20 H 0.2254 0.4398 0.0663
C25 C 0.25618(16) 0.3862(3) 0.06192(18)
H21 H 0.2559 0.4194 0.0449
C26 C 0.27469(15) 0.3254(3) 0.07413(19)
H22 H 0.2870 0.3171 0.0654
C27 C 0.27511(14) 0.2767(3) 0.09905(19)
N8 N 0.30617(15) 0.1016(3) 0.13651(18)
N9 N 0.28773(14) 0.1617(3) 0.13110(19)
C28 C 0.29124(16) 0.2151(3) 0.1103(2)
C29 C 0.31185(17) 0.1880(3) 0.1028(2)
H23 H 0.3183 0.2125 0.0893
C30 C 0.32107(15) 0.1179(3) 0.1190(2)
H24 H 0.3348 0.0872 0.1183
C31 C 0.3065(2) 0.0401(5) 0.1542(3)
H25 H 0.3039 -0.0021 0.1385
H26 H 0.2889 0.0410 0.1557
N10 N 0.45569(16) 0.2806(3) 0.3267(2)
C32 C 0.47517(14) 0.3339(4) 0.3300(2)
H27 H 0.4897 0.3228 0.3250
C33 C 0.47345(15) 0.4036(3) 0.3407(2)
H28 H 0.4868 0.4400 0.3429
C34 C 0.45225(17) 0.4199(3) 0.3480(2)
H29 H 0.4511 0.4675 0.3553
C35 C 0.43277(15) 0.3666(4) 0.3447(2)
H30 H 0.4183 0.3777 0.3497
C36 C 0.43449(15) 0.2969(3) 0.3340(2)
N11 N 0.39852(16) 0.1282(3) 0.3146(2)
N12 N 0.41969(14) 0.1772(4) 0.3168(2)
C37 C 0.41519(17) 0.2458(3) 0.3275(2)
C38 C 0.39124(17) 0.2392(3) 0.3319(2)
H31 H 0.3835 0.2767 0.3390
C39 C 0.38094(14) 0.1665(4) 0.3239(2)
H32 H 0.3651 0.1469 0.3246
C40 C 0.3960(3) 0.0572(5) 0.3060(3)
H33 H 0.3863 0.0322 0.3167
H34 H 0.4166 0.0366 0.3184
C41 C 0.3358(2) 0.0307(5) 0.1947(3)
C42 C 0.3586(2) -0.0170(5) 0.2065(3)
H35 H 0.3588 -0.0502 0.1898
C43 C 0.3822(2) -0.0125(5) 0.2462(3)
H36 H 0.3992 -0.0442 0.2593
C44 C 0.3776(2) 0.0431(5) 0.2636(3)
S2 S 0.34328(7) 0.08563(14) 0.23140(9)
N13 N 0.24227(14) 0.1157(3) 0.15708(16)
C45 C 0.22153(13) 0.0608(3) 0.13576(12)
H37 H 0.2097 0.0620 0.1086
C46 C 0.21815(13) 0.0042(3) 0.15423(16)
H38 H 0.2040 -0.0333 0.1397
C47 C 0.23553(14) 0.0025(3) 0.19401(17)
H39 H 0.2332 -0.0362 0.2066
C48 C 0.25628(13) 0.0574(3) 0.21533(12)
H40 H 0.2682 0.0562 0.2425
C49 C 0.25965(13) 0.1140(3) 0.19686(16)
N14 N 0.29849(14) 0.2796(3) 0.21577(17)
N15 N 0.27732(13) 0.2256(3) 0.19126(12)
C50 C 0.27711(15) 0.1716(3) 0.21455(18)
C51 C 0.29814(15) 0.1923(3) 0.25345(15)
H41 H 0.3026 0.1660 0.2752
C52 C 0.31136(13) 0.2591(3) 0.25421(14)
H42 H 0.3262 0.2854 0.2765
C53 C 0.3060(2) 0.3427(5) 0.2048(3)
H43 H 0.3025 0.3850 0.2158
H44 H 0.2923 0.3472 0.1766
N16 N 0.45525(15) 0.0710(3) 0.29935(19)
C54 C 0.47045(14) 0.0152(4) 0.32558(14)
H45 H 0.4798 0.0236 0.3521
C55 C 0.47192(15) -0.0528(3) 0.31308(18)
H46 H 0.4823 -0.0909 0.3310
C56 C 0.45820(16) -0.0650(3) 0.2743(2)
H47 H 0.4592 -0.1115 0.2658
C57 C 0.44299(15) -0.0092(4) 0.24810(14)
H48 H 0.4336 -0.0176 0.2216
C58 C 0.44152(14) 0.0588(3) 0.26061(17)
N17 N 0.41294(15) 0.2316(3) 0.21876(19)
N18 N 0.43122(13) 0.1846(4) 0.25039(14)
C59 C 0.42681(16) 0.1132(3) 0.23600(19)
C60 C 0.40580(16) 0.1161(3) 0.19549(19)
H49 H 0.3987 0.0761 0.1785
C61 C 0.39723(14) 0.1893(4) 0.18484(14)
H50 H 0.3834 0.2069 0.1595
C62 C 0.4117(2) 0.3063(6) 0.2225(3)
H51 H 0.4082 0.3304 0.1997
H52 H 0.4316 0.3230 0.2452
C63 C 0.3379(2) 0.3444(5) 0.2172(3)
C64 C 0.3596(2) 0.3906(5) 0.2436(3)
H53 H 0.3565 0.4251 0.2573
C65 C 0.3872(2) 0.3811(5) 0.2482(3)
H54 H 0.4047 0.4098 0.2653
C66 C 0.3873(2) 0.3284(5) 0.2267(3)
S3 S 0.35187(7) 0.28650(14) 0.19948(8)
N19 N 0.50003(16) 0.1827(5) 0.3305(3)
C67 C 0.50506(19) 0.2012(5) 0.3033(2)
H55 H 0.4883 0.2082 0.2774
C68 C 0.5346(2) 0.2094(5) 0.3141(3)
H56 H 0.5381 0.2221 0.2955
C69 C 0.55914(16) 0.1992(5) 0.3521(3)
H57 H 0.5793 0.2048 0.3594
C70 C 0.55411(19) 0.1807(5) 0.3793(2)
H58 H 0.5709 0.1736 0.4052
C71 C 0.5245(2) 0.1724(5) 0.3685(2)
N20 N 0.49128(19) 0.1284(5) 0.4173(3)
N21 N 0.48995(19) 0.1467(5) 0.3843(2)
C72 C 0.5202(2) 0.1577(6) 0.3958(3)
C73 C 0.54020(16) 0.1462(6) 0.4360(3)
H59 H 0.5618 0.1500 0.4513
C74 C 0.5223(2) 0.1281(5) 0.4493(2)
H60 H 0.5298 0.1177 0.4750
C75 C 0.4642(3) 0.1189(8) 0.4150(4)
H61 H 0.4663 0.0793 0.4319
H62 H 0.4464 0.1092 0.3884
N22 N 0.4171(2) 0.2453(5) 0.57024(19)
C76 C 0.41030(17) 0.2167(5) 0.5943(3)
H63 H 0.3903 0.1997 0.5839
C77 C 0.4327(2) 0.2132(5) 0.6335(3)
H64 H 0.4280 0.1936 0.6500
C78 C 0.4619(2) 0.2381(5) 0.6488(2)
H65 H 0.4772 0.2357 0.6756
C79 C 0.46869(17) 0.2667(5) 0.6247(3)
H66 H 0.4886 0.2838 0.6351
C80 C 0.4463(2) 0.2703(5) 0.5854(3)
N23 N 0.4426(2) 0.3262(5) 0.5026(2)
N24 N 0.42990(17) 0.2947(5) 0.5204(3)
C81 C 0.4525(3) 0.2951(6) 0.5606(3)
C82 C 0.47923(19) 0.3269(6) 0.5677(2)
H67 H 0.4979 0.3341 0.5921
C83 C 0.4731(2) 0.3461(5) 0.5318(3)
H68 H 0.4870 0.3684 0.5281
C84 C 0.4272(3) 0.3312(8) 0.4635(4)
H69 H 0.4267 0.3826 0.4567
H70 H 0.4060 0.3154 0.4512
C85 C 0.4617(3) 0.1885(7) 0.4283(4)
C86 C 0.4720(3) 0.2567(7) 0.4290(4)
H71 H 0.4855 0.2657 0.4221
C87 C 0.4610(3) 0.3137(7) 0.4408(4)
H72 H 0.4670 0.3630 0.4441
C88 C 0.4410(3) 0.2859(6) 0.4464(4)
S4 S 0.43594(10) 0.1964(2) 0.43957(12)
N25 N 0.37198(17) 0.3415(3) 0.5190(2)
C89 C 0.38694(15) 0.4061(4) 0.5241(2)
H73 H 0.4023 0.4083 0.5200
C90 C 0.37938(17) 0.4678(3) 0.5353(2)
H74 H 0.3896 0.5120 0.5388
C91 C 0.35686(17) 0.4647(3) 0.5414(2)
H75 H 0.3517 0.5068 0.5491
C92 C 0.34190(15) 0.4000(4) 0.5363(2)
H76 H 0.3265 0.3979 0.5405
C93 C 0.34946(17) 0.3384(3) 0.5251(2)
N26 N 0.33145(17) 0.1506(3) 0.5152(2)
N27 N 0.34644(16) 0.2110(4) 0.5129(2)
C94 C 0.33828(19) 0.2732(3) 0.5243(2)
C95 C 0.31825(19) 0.2512(4) 0.5337(2)
H77 H 0.3092 0.2819 0.5422
C96 C 0.31402(17) 0.1755(4) 0.5281(2)
H78 H 0.3017 0.1465 0.5322
C97 C 0.3358(3) 0.0800(6) 0.5084(3)
H79 H 0.3287 0.0463 0.5195
H80 H 0.3579 0.0715 0.5214
N28 N 0.18786(15) 0.2752(3) 0.28757(18)
C98 C 0.16578(13) 0.3287(3) 0.26928(19)
H81 H 0.1481 0.3264 0.2690
C99 C 0.16951(14) 0.3857(3) 0.25135(19)
H82 H 0.1544 0.4223 0.2388
C100 C 0.19533(16) 0.3892(3) 0.25171(19)
H83 H 0.1979 0.4282 0.2395
C101 C 0.21741(13) 0.3357(4) 0.2700(2)
H84 H 0.2351 0.3380 0.2702
C102 C 0.21367(14) 0.2787(3) 0.28793(19)
N29 N 0.24993(16) 0.1151(3) 0.33755(18)
N30 N 0.22649(13) 0.1677(3) 0.3221(2)
C103 C 0.23295(16) 0.2225(3) 0.3047(2)
C104 C 0.26038(16) 0.2038(3) 0.3094(2)
H85 H 0.2700 0.2309 0.3006
C105 C 0.27088(13) 0.1374(4) 0.3297(2)
H86 H 0.2888 0.1123 0.3368
C106 C 0.2516(3) 0.0550(6) 0.3579(3)
H87 H 0.2500 0.0107 0.3439
H88 H 0.2343 0.0554 0.3599
C107 C 0.3192(2) 0.0649(6) 0.4667(3)
C108 C 0.3277(2) 0.0192(6) 0.4509(3)
H89 H 0.3464 -0.0065 0.4649
C109 C 0.3060(2) 0.0131(6) 0.4111(3)
H90 H 0.3088 -0.0171 0.3956
C110 C 0.2804(3) 0.0541(6) 0.3966(3)
S5 S 0.28379(8) 0.10067(16) 0.43383(9)
N31 N 0.39803(17) 0.1439(3) 0.5061(2)
C111 C 0.41520(17) 0.0930(4) 0.53472(15)
H91 H 0.4230 0.1040 0.5605
C112 C 0.42093(17) 0.0260(3) 0.52562(18)
H92 H 0.4327 -0.0088 0.5452
C113 C 0.40948(18) 0.0098(3) 0.4879(2)
H93 H 0.4134 -0.0360 0.4817
C114 C 0.39231(18) 0.0608(4) 0.45923(16)
H94 H 0.3845 0.0497 0.4334
C115 C 0.38659(17) 0.1278(3) 0.46834(18)
N32 N 0.34915(17) 0.2923(3) 0.4232(2)
N33 N 0.36643(16) 0.2453(4) 0.45515(15)
C116 C 0.36946(18) 0.1783(3) 0.4417(2)
C117 C 0.35405(19) 0.1838(3) 0.40139(19)
H95 H 0.3524 0.1469 0.3850
C118 C 0.34150(17) 0.2543(4) 0.39001(15)
H96 H 0.3300 0.2728 0.3646
C119 C 0.3434(3) 0.3645(6) 0.4264(3)
H97 H 0.3425 0.3931 0.4062
H98 H 0.3605 0.3835 0.4516
N34 N 0.18555(16) 0.1008(3) 0.34444(18)
C120 C 0.17054(15) 0.0370(3) 0.32609(14)
H99 H 0.1618 0.0308 0.2996
C121 C 0.16837(16) -0.0178(3) 0.34647(19)
H100 H 0.1581 -0.0615 0.3339
C122 C 0.18122(17) -0.0088(3) 0.38520(19)
H101 H 0.1797 -0.0462 0.3991
C123 C 0.19624(16) 0.0551(4) 0.40355(14)
H102 H 0.2050 0.0612 0.4300
C124 C 0.19840(16) 0.1099(3) 0.38317(19)
N35 N 0.22797(17) 0.2898(3) 0.4028(2)
N36 N 0.21137(16) 0.2302(4) 0.37855(15)
C125 C 0.21417(19) 0.1721(3) 0.4020(2)
C126 C 0.23250(19) 0.1957(4) 0.44066(18)
H103 H 0.2381 0.1678 0.4624
C127 C 0.24102(17) 0.2685(4) 0.44117(17)
H104 H 0.2533 0.2977 0.4633
C128 C 0.2295(3) 0.3545(6) 0.3873(3)
H105 H 0.2203 0.3939 0.3928
H106 H 0.2180 0.3498 0.3591
C129 C 0.3137(2) 0.3742(5) 0.4225(3)
C130 C 0.3085(3) 0.4281(5) 0.4393(3)
H107 H 0.3233 0.4623 0.4566
C131 C 0.2786(3) 0.4266(5) 0.4280(3)
H108 H 0.2710 0.4617 0.4365
C132 C 0.2606(3) 0.3713(6) 0.4036(3)
S6 S 0.28257(8) 0.32166(15) 0.39373(9)
B1 B 0.2451(3) 0.9364(7) 0.2829(4)
F1 F 0.25385(15) 0.9110(4) 0.31840(18)
F2 F 0.21960(15) 0.9773(4) 0.26737(19)
F3 F 0.26888(15) 0.9742(4) 0.28752(19)
F4 F 0.23929(15) 0.8791(4) 0.25883(19)
B2 B 0.2436(3) 0.4787(8) 0.4825(4)
F5 F 0.22192(16) 0.4940(4) 0.4910(2)
F6 F 0.24705(16) 0.4020(4) 0.4845(2)
F7 F 0.27107(16) 0.5085(4) 0.5109(2)
F8 F 0.23266(16) 0.5021(4) 0.44619(19)
B3 B 0.3484(3) 0.0176(8) 0.3463(4)
F9 F 0.34915(18) -0.0352(4) 0.3248(2)
F10 F 0.33748(18) -0.0109(4) 0.3664(2)
F11 F 0.32807(18) 0.0718(4) 0.3234(2)
F12 F 0.37733(17) 0.0447(4) 0.3721(2)
loop_
_geom_bond_atom_site_label_1
_geom_bond_atom_site_label_2
_geom_bond_site_symmetry_1
_geom_bond_site_symmetry_2
Cu1 N1 1_555 1_555
Cu2 N4 1_555 1_555
Cu3 N10 1_555 1_555
Cu4 N22 1_555 1_555
N1 C1 1_555 1_555
C1 H1 1_555 1_555
C2 C1 1_555 1_555
H2 C2 1_555 1_555
C3 C2 1_555 1_555
H3 C3 1_555 1_555
C4 C3 1_555 1_555
H4 C4 1_555 1_555
C5 N1 1_555 1_555
N2 N3 1_555 1_555
N3 Cu1 1_555 1_555
C6 C5 1_555 1_555
C7 C6 1_555 1_555
H5 C7 1_555 1_555
C8 N2 1_555 1_555
H6 C8 1_555 1_555
C9 N2 1_555 1_555
H7 C9 1_555 1_555
H8 C9 1_555 1_555
N4 C10 1_555 1_555
C10 H9 1_555 1_555
C11 C10 1_555 1_555
H10 C11 1_555 1_555
C12 C11 1_555 1_555
H11 C12 1_555 1_555
C13 C12 1_555 1_555
H12 C13 1_555 1_555
C14 N4 1_555 1_555
N5 N6 1_555 1_555
N6 Cu2 1_555 1_555
C15 C14 1_555 1_555
C16 C15 1_555 1_555
H13 C16 1_555 1_555
C17 N5 1_555 1_555
H14 C17 1_555 1_555
C18 N5 1_555 1_555
H15 C18 1_555 1_555
H16 C18 1_555 1_555
C19 C9 1_555 1_555
C20 C19 1_555 1_555
H17 C20 1_555 1_555
C21 C20 1_555 1_555
H18 C21 1_555 1_555
C22 C18 1_555 1_555
S1 C19 1_555 1_555
N7 Cu2 1_555 1_555
C23 N7 1_555 1_555
H19 C23 1_555 1_555
C24 C23 1_555 1_555
H20 C24 1_555 1_555
C25 C24 1_555 1_555
H21 C25 1_555 1_555
C26 C25 1_555 1_555
H22 C26 1_555 1_555
C27 N7 1_555 1_555
N8 N9 1_555 1_555
N9 Cu2 1_555 1_555
C28 C27 1_555 1_555
C29 C28 1_555 1_555
H23 C29 1_555 1_555
C30 N8 1_555 1_555
H24 C30 1_555 1_555
C31 N8 1_555 1_555
H25 C31 1_555 1_555
H26 C31 1_555 1_555
N10 C32 1_555 1_555
C32 H27 1_555 1_555
C33 C32 1_555 1_555
H28 C33 1_555 1_555
C34 C33 1_555 1_555
H29 C34 1_555 1_555
C35 C34 1_555 1_555
H30 C35 1_555 1_555
C36 N10 1_555 1_555
N11 N12 1_555 1_555
N12 Cu3 1_555 1_555
C37 C36 1_555 1_555
C38 C37 1_555 1_555
H31 C38 1_555 1_555
C39 N11 1_555 1_555
H32 C39 1_555 1_555
C40 N11 1_555 1_555
H33 C40 1_555 1_555
H34 C40 1_555 1_555
C41 C31 1_555 1_555
C42 C41 1_555 1_555
H35 C42 1_555 1_555
C43 C42 1_555 1_555
H36 C43 1_555 1_555
C44 C40 1_555 1_555
S2 C41 1_555 1_555
N13 Cu2 1_555 1_555
C45 N13 1_555 1_555
H37 C45 1_555 1_555
C46 C45 1_555 1_555
H38 C46 1_555 1_555
C47 C46 1_555 1_555
H39 C47 1_555 1_555
C48 C47 1_555 1_555
H40 C48 1_555 1_555
C49 N13 1_555 1_555
N14 N15 1_555 1_555
N15 Cu2 1_555 1_555
C50 C49 1_555 1_555
C51 C50 1_555 1_555
H41 C51 1_555 1_555
C52 N14 1_555 1_555
H42 C52 1_555 1_555
C53 N14 1_555 1_555
H43 C53 1_555 1_555
H44 C53 1_555 1_555
N16 Cu3 1_555 1_555
C54 N16 1_555 1_555
H45 C54 1_555 1_555
C55 C54 1_555 1_555
H46 C55 1_555 1_555
C56 C55 1_555 1_555
H47 C56 1_555 1_555
C57 C56 1_555 1_555
H48 C57 1_555 1_555
C58 N16 1_555 1_555
N17 N18 1_555 1_555
N18 Cu3 1_555 1_555
C59 C58 1_555 1_555
C60 C59 1_555 1_555
H49 C60 1_555 1_555
C61 N17 1_555 1_555
H50 C61 1_555 1_555
C62 N17 1_555 1_555
H51 C62 1_555 1_555
H52 C62 1_555 1_555
C63 C53 1_555 1_555
C64 C63 1_555 1_555
H53 C64 1_555 1_555
C65 C64 1_555 1_555
H54 C65 1_555 1_555
C66 C62 1_555 1_555
S3 C63 1_555 1_555
N19 Cu3 1_555 1_555
C67 N19 1_555 1_555
H55 C67 1_555 1_555
C68 C67 1_555 1_555
H56 C68 1_555 1_555
C69 C68 1_555 1_555
H57 C69 1_555 1_555
C70 C69 1_555 1_555
H58 C70 1_555 1_555
C71 N19 1_555 1_555
N20 N21 1_555 1_555
N21 Cu3 1_555 1_555
C72 C71 1_555 1_555
C73 C72 1_555 1_555
H59 C73 1_555 1_555
C74 N20 1_555 1_555
H60 C74 1_555 1_555
C75 N20 1_555 1_555
H61 C75 1_555 1_555
H62 C75 1_555 1_555
N22 C76 1_555 1_555
C76 H63 1_555 1_555
C77 C76 1_555 1_555
H64 C77 1_555 1_555
C78 C77 1_555 1_555
H65 C78 1_555 1_555
C79 C78 1_555 1_555
H66 C79 1_555 1_555
C80 N22 1_555 1_555
N23 N24 1_555 1_555
N24 Cu4 1_555 1_555
C81 C80 1_555 1_555
C82 C81 1_555 1_555
H67 C82 1_555 1_555
C83 N23 1_555 1_555
H68 C83 1_555 1_555
C84 N23 1_555 1_555
H69 C84 1_555 1_555
H70 C84 1_555 1_555
C85 C75 1_555 1_555
C86 C85 1_555 1_555
H71 C86 1_555 1_555
C87 C86 1_555 1_555
H72 C87 1_555 1_555
C88 C84 1_555 1_555
S4 C85 1_555 1_555
N25 Cu4 1_555 1_555
C89 N25 1_555 1_555
H73 C89 1_555 1_555
C90 C89 1_555 1_555
H74 C90 1_555 1_555
C91 C90 1_555 1_555
H75 C91 1_555 1_555
C92 C91 1_555 1_555
H76 C92 1_555 1_555
C93 N25 1_555 1_555
N26 N27 1_555 1_555
N27 Cu4 1_555 1_555
C94 C93 1_555 1_555
C95 C94 1_555 1_555
H77 C95 1_555 1_555
C96 N26 1_555 1_555
H78 C96 1_555 1_555
C97 N26 1_555 1_555
H79 C97 1_555 1_555
H80 C97 1_555 1_555
N28 Cu1 1_555 1_555
C98 N28 1_555 1_555
H81 C98 1_555 1_555
C99 C98 1_555 1_555
H82 C99 1_555 1_555
C100 C99 1_555 1_555
H83 C100 1_555 1_555
C101 C100 1_555 1_555
H84 C101 1_555 1_555
C102 N28 1_555 1_555
N29 N30 1_555 1_555
N30 Cu1 1_555 1_555
C103 C102 1_555 1_555
C104 C103 1_555 1_555
H85 C104 1_555 1_555
C105 N29 1_555 1_555
H86 C105 1_555 1_555
C106 N29 1_555 1_555
H87 C106 1_555 1_555
H88 C106 1_555 1_555
C107 C97 1_555 1_555
C108 C107 1_555 1_555
H89 C108 1_555 1_555
C109 C108 1_555 1_555
H90 C109 1_555 1_555
C110 C106 1_555 1_555
S5 C107 1_555 1_555
N31 Cu4 1_555 1_555
C111 N31 1_555 1_555
H91 C111 1_555 1_555
C112 C111 1_555 1_555
H92 C112 1_555 1_555
C113 C112 1_555 1_555
H93 C113 1_555 1_555
C114 C113 1_555 1_555
H94 C114 1_555 1_555
C115 N31 1_555 1_555
N32 N33 1_555 1_555
N33 Cu4 1_555 1_555
C116 C115 1_555 1_555
C117 C116 1_555 1_555
H95 C117 1_555 1_555
C118 N32 1_555 1_555
H96 C118 1_555 1_555
C119 N32 1_555 1_555
H97 C119 1_555 1_555
H98 C119 1_555 1_555
N34 Cu1 1_555 1_555
C120 N34 1_555 1_555
H99 C120 1_555 1_555
C121 C120 1_555 1_555
H100 C121 1_555 1_555
C122 C121 1_555 1_555
H101 C122 1_555 1_555
C123 C122 1_555 1_555
H102 C123 1_555 1_555
C124 N34 1_555 1_555
N35 N36 1_555 1_555
N36 Cu1 1_555 1_555
C125 C124 1_555 1_555
C126 C125 1_555 1_555
H103 C126 1_555 1_555
C127 N35 1_555 1_555
H104 C127 1_555 1_555
C128 N35 1_555 1_555
H105 C128 1_555 1_555
H106 C128 1_555 1_555
C129 C119 1_555 1_555
C130 C129 1_555 1_555
H107 C130 1_555 1_555
C131 C130 1_555 1_555
H108 C131 1_555 1_555
C132 C128 1_555 1_555
S6 C129 1_555 1_555
B1 F1 1_555 1_555
F2 B1 1_555 1_555
F3 B1 1_555 1_555
F4 B1 1_555 1_555
B2 F5 1_555 1_555
F6 B2 1_555 1_555
F7 B2 1_555 1_555
F8 B2 1_555 1_555
B3 F9 1_555 1_555
F10 B3 1_555 1_555
F11 B3 1_555 1_555
F12 B3 1_555 1_555
C4 C5 1_555 1_555
N3 C6 1_555 1_555
C7 C8 1_555 1_555
C13 C14 1_555 1_555
N6 C15 1_555 1_555
C16 C17 1_555 1_555
C21 C22 1_555 1_555
C22 S1 1_555 1_555
C26 C27 1_555 1_555
N9 C28 1_555 1_555
C29 C30 1_555 1_555
C35 C36 1_555 1_555
N12 C37 1_555 1_555
C38 C39 1_555 1_555
C43 C44 1_555 1_555
C44 S2 1_555 1_555
C48 C49 1_555 1_555
N15 C50 1_555 1_555
C51 C52 1_555 1_555
C57 C58 1_555 1_555
N18 C59 1_555 1_555
C60 C61 1_555 1_555
C65 C66 1_555 1_555
C66 S3 1_555 1_555
C70 C71 1_555 1_555
N21 C72 1_555 1_555
C73 C74 1_555 1_555
C79 C80 1_555 1_555
N24 C81 1_555 1_555
C82 C83 1_555 1_555
C87 C88 1_555 1_555
C88 S4 1_555 1_555
C92 C93 1_555 1_555
N27 C94 1_555 1_555
C95 C96 1_555 1_555
C101 C102 1_555 1_555
N30 C103 1_555 1_555
C104 C105 1_555 1_555
C109 C110 1_555 1_555
C110 S5 1_555 1_555
C114 C115 1_555 1_555
N33 C116 1_555 1_555
C117 C118 1_555 1_555
C123 C124 1_555 1_555
N36 C125 1_555 1_555
C126 C127 1_555 1_555
C131 C132 1_555 1_555
C132 S6 1_555 1_555

#END
