
#######################################################################
#
#                 Cambridge Crystallographic Data Centre
#                                CCDC 
#
#######################################################################
#
# If this CIF has been generated from an entry in the Cambridge 
# Structural Database, then it will include bibliographic, chemical, 
# crystal, experimental, refinement or atomic coordinate data resulting 
# from the CCDC's data processing and validation procedures.
#
#######################################################################

data_DAHGOK
_chemical_formula_moiety         
'C132 H108 N36 Ni4 S6 8+,8(B1 F4 1-),4(C2 H3 N1)'
_chemical_name_systematic        
'hexakis(\m~2~-2,5-bis(3-(2-Pyridyl)pyrazolylmethyl)thiophene)-tetra-nickel(ii) octakis(tetrafluoroborate) acetonitrile solvate'
_symmetry_cell_setting           orthorhombic
_symmetry_space_group_name_H-M   'P m n 21'
_symmetry_Int_Tables_number      31
_space_group_name_Hall           'P 2ac -2'
loop_
_symmetry_equiv_pos_site_id
_symmetry_equiv_pos_as_xyz
1 x,y,z
2 1/2-x,-y,1/2+z
3 -x,y,z
4 1/2+x,-y,1/2+z
_cell_length_a                   43.1698(8)
_cell_length_b                   18.8181(4)
_cell_length_c                   20.4261(4)
_cell_angle_alpha                90
_cell_angle_beta                 90
_cell_angle_gamma                90
_cell_volume                     16593.6
_exptl_crystal_colour            purple
_exptl_crystal_description       plate
_cell_formula_units_Z            4
loop_
_atom_site_label
_atom_site_type_symbol
_atom_site_fract_x
_atom_site_fract_y
_atom_site_fract_z
C1 C 0.5000 0.5299(14) 1.0177(10)
C136 C 0.5000 0.5201(13) 0.9471(10)
N38 N 0.5000 0.5074(11) 0.8919(10)
Ni1 Ni 0.37418(3) 0.97999(12) 0.51214(6)
Ni2 Ni 0.13618(2) 0.95163(5) 0.50140(5)
Ni3 Ni 0.12842(3) 0.51940(6) 0.30435(5)
Ni4 Ni 0.37689(4) 0.52679(10) 0.31526(6)
N1 N 0.4022(2) 1.0420(5) 0.5732(4)
C2 C 0.4299(2) 1.0204(4) 0.6016(5)
H1 H 0.4385 0.9754 0.5909
C3 C 0.44509(18) 1.0647(5) 0.6456(5)
H2 H 0.4640 1.0500 0.6650
C4 C 0.4326(2) 1.1306(5) 0.6612(5)
H3 H 0.4429 1.1609 0.6913
C5 C 0.4048(2) 1.1522(4) 0.6328(5)
H4 H 0.3963 1.1972 0.6434
C6 C 0.38968(18) 1.1079(5) 0.5888(5)
N2 N 0.3224(2) 1.1082(6) 0.5009(6)
N3 N 0.3468(3) 1.0718(6) 0.5262(5)
C7 C 0.3603(4) 1.1296(8) 0.5601(7)
C8 C 0.3460(4) 1.1877(10) 0.5547(9)
H5 H 0.3521 1.2315 0.5740
C9 C 0.3219(4) 1.1780(9) 0.5188(8)
H6 H 0.3068 1.2125 0.5071
C10 C 0.2976(3) 1.0686(6) 0.4702(6)
H7 H 0.3061 1.0318 0.4407
H8 H 0.2843 1.1008 0.4441
N4 N 0.10896(12) 1.0422(2) 0.5113(3)
C11 C 0.08221(13) 1.0572(3) 0.4760(3)
H9 H 0.0757 1.0262 0.4420
C12 C 0.06501(13) 1.1177(4) 0.4905(3)
H10 H 0.0467 1.1279 0.4664
C13 C 0.07456(16) 1.1631(3) 0.5402(4)
H11 H 0.0628 1.2044 0.5501
C14 C 0.10131(16) 1.1480(3) 0.5755(3)
H12 H 0.1078 1.1791 0.6095
C15 C 0.11851(12) 1.0876(3) 0.5610(3)
N5 N 0.18382(19) 0.9972(4) 0.6174(4)
N6 N 0.15935(17) 1.0073(4) 0.5748(3)
C16 C 0.1454(2) 1.0652(5) 0.5955(5)
C17 C 0.1602(2) 1.0975(5) 0.6477(4)
H13 H 0.1549 1.1407 0.6689
C18 C 0.1840(2) 1.0527(4) 0.6614(4)
H14 H 0.1985 1.0587 0.6959
C19 C 0.2079(2) 0.9438(5) 0.6085(5)
H15 H 0.2113 0.9185 0.6504
H16 H 0.2009 0.9086 0.5757
C20 C 0.2786(3) 1.0337(6) 0.5257(5)
C21 C 0.2844(3) 1.0309(6) 0.5937(5)
H17 H 0.3028 1.0482 0.6137
C22 C 0.2607(3) 1.0008(6) 0.6268(6)
H18 H 0.2603 0.9974 0.6732
C23 C 0.2365(2) 0.9748(5) 0.5874(5)
S1 S 0.24441(6) 0.99491(16) 0.50635(12)
N7 N 0.10771(12) 0.9004(3) 0.5696(2)
C24 C 0.11242(13) 0.8997(3) 0.6369(3)
H19 H 0.1293 0.9251 0.6554
C25 C 0.09238(17) 0.8620(4) 0.6773(2)
H20 H 0.0956 0.8616 0.7233
C26 C 0.06763(16) 0.8249(4) 0.6504(3)
H21 H 0.0539 0.7992 0.6779
C27 C 0.06291(13) 0.8256(4) 0.5830(3)
H22 H 0.0460 0.8002 0.5646
C28 C 0.08295(14) 0.8633(3) 0.5427(2)
N8 N 0.09294(18) 0.9025(4) 0.3773(4)
N9 N 0.10284(16) 0.9018(4) 0.4405(3)
C29 C 0.0810(2) 0.8710(6) 0.4752(5)
C30 C 0.0567(2) 0.8440(5) 0.4322(5)
H23 H 0.0386 0.8181 0.4440
C31 C 0.0659(3) 0.8651(6) 0.3698(5)
H24 H 0.0555 0.8554 0.3298
C32 C 0.1120(2) 0.9277(5) 0.3242(5)
H25 H 0.1243 0.9685 0.3404
H26 H 0.0982 0.9457 0.2892
N10 N 0.15092(12) 0.4788(3) 0.3858(2)
C33 C 0.14283(12) 0.4155(3) 0.4164(3)
H27 H 0.1242 0.3918 0.4046
C34 C 0.16198(16) 0.3869(3) 0.4644(3)
H28 H 0.1564 0.3436 0.4853
C35 C 0.18921(14) 0.4216(3) 0.4817(3)
H29 H 0.2023 0.4020 0.5144
C36 C 0.19730(12) 0.4848(3) 0.4510(3)
H30 H 0.2159 0.5085 0.4628
C37 C 0.17816(13) 0.5134(3) 0.4030(3)
N11 N 0.17857(18) 0.6528(4) 0.2911(4)
N12 N 0.16452(15) 0.5963(3) 0.3183(3)
C38 C 0.1847(2) 0.5754(5) 0.3670(4)
C39 C 0.2105(2) 0.6199(5) 0.3671(5)
H31 H 0.2277 0.6177 0.3961
C40 C 0.2062(3) 0.6682(6) 0.3163(6)
H32 H 0.2200 0.7045 0.3026
C41 C 0.1659(2) 0.6900(5) 0.2347(5)
H33 H 0.1476 0.6638 0.2183
H34 H 0.1816 0.6908 0.1993
C42 C 0.1339(2) 0.8750(5) 0.2944(4)
C43 C 0.1592(2) 0.8832(6) 0.2548(5)
H35 H 0.1671 0.9290 0.2443
C44 C 0.1720(2) 0.8258(5) 0.2322(5)
H36 H 0.1901 0.8257 0.2055
C45 C 0.1567(2) 0.7649(5) 0.2512(5)
S2 S 0.12541(5) 0.78514(12) 0.30184(11)
N13 N 0.16540(10) 0.9986(2) 0.4307(2)
C46 C 0.16663(13) 1.0703(2) 0.4149(3)
H37 H 0.1523 1.1026 0.4340
C47 C 0.18884(16) 1.0950(2) 0.3712(3)
H38 H 0.1897 1.1441 0.3604
C48 C 0.20982(14) 1.0479(3) 0.3433(3)
H39 H 0.2250 1.0647 0.3134
C49 C 0.20859(12) 0.9761(3) 0.3591(3)
H40 H 0.2229 0.9439 0.3400
C50 C 0.18638(12) 0.9514(2) 0.4028(3)
N14 N 0.17410(14) 0.8014(3) 0.4990(3)
N15 N 0.16806(15) 0.8696(3) 0.4825(3)
C51 C 0.1862(2) 0.8828(5) 0.4318(4)
C52 C 0.2029(2) 0.8220(5) 0.4108(5)
H41 H 0.2161 0.8167 0.3738
C53 C 0.1951(2) 0.7721(6) 0.4582(5)
H42 H 0.2032 0.7253 0.4614
C54 C 0.16169(19) 0.7678(4) 0.5598(4)
H43 H 0.1786 0.7632 0.5924
H44 H 0.1454 0.7986 0.5788
N16 N 0.10847(12) 0.5666(3) 0.2223(2)
C55 C 0.11927(12) 0.5611(3) 0.1584(2)
H45 H 0.1353 0.5283 0.1481
C56 C 0.10664(15) 0.6035(4) 0.10949(19)
H46 H 0.1140 0.5997 0.0658
C57 C 0.08322(15) 0.6515(3) 0.1245(2)
H47 H 0.0746 0.6805 0.0911
C58 C 0.07242(12) 0.6570(3) 0.1884(3)
H48 H 0.0564 0.6898 0.1987
C59 C 0.08505(12) 0.6146(3) 0.23730(19)
N17 N 0.07869(15) 0.5899(3) 0.4072(3)
N18 N 0.09378(16) 0.5807(4) 0.3489(3)
C60 C 0.07673(19) 0.6198(4) 0.3040(4)
C61 C 0.0520(2) 0.6553(5) 0.3334(4)
H49 H 0.0372 0.6859 0.3137
C62 C 0.0545(2) 0.6340(5) 0.4008(5)
H50 H 0.0412 0.6488 0.4352
C63 C 0.0900(2) 0.5611(5) 0.4678(5)
H51 H 0.0723 0.5578 0.4986
H52 H 0.0973 0.5121 0.4594
C64 C 0.14864(19) 0.6972(4) 0.5461(4)
C65 C 0.1582(2) 0.6331(5) 0.5621(5)
H53 H 0.1760 0.6250 0.5884
C66 C 0.14005(19) 0.5777(5) 0.5369(4)
H54 H 0.1449 0.5292 0.5446
C67 C 0.1140(2) 0.5984(4) 0.4993(4)
S3 S 0.11540(5) 0.69206(11) 0.49466(10)
N19 N 0.09695(14) 0.4337(3) 0.2960(3)
C68 C 0.06804(16) 0.4305(3) 0.3258(4)
H55 H 0.0609 0.4692 0.3517
C69 C 0.04950(14) 0.3708(4) 0.3178(4)
H56 H 0.0297 0.3686 0.3382
C70 C 0.05987(17) 0.3142(3) 0.2799(4)
H57 H 0.0472 0.2734 0.2744
C71 C 0.08878(18) 0.3174(3) 0.2501(4)
H58 H 0.0959 0.2787 0.2243
C72 C 0.10732(13) 0.3771(4) 0.2582(3)
N20 N 0.1791(2) 0.4431(5) 0.2069(4)
N21 N 0.15230(18) 0.4483(4) 0.2430(4)
C73 C 0.1364(2) 0.3874(5) 0.2288(5)
C74 C 0.1516(3) 0.3469(6) 0.1794(6)
H59 H 0.1447 0.3046 0.1587
C75 C 0.1779(3) 0.3825(6) 0.1690(5)
H60 H 0.1937 0.3680 0.1394
C76 C 0.2040(3) 0.4868(6) 0.2164(6)
H61 H 0.1965 0.5342 0.2300
H62 H 0.2152 0.4925 0.1744
N22 N 0.40072(18) 0.4664(4) 0.2458(4)
C77 C 0.4271(2) 0.4910(4) 0.2140(5)
H63 H 0.4352 0.5365 0.2243
C78 C 0.44144(19) 0.4491(5) 0.1669(5)
H64 H 0.4594 0.4659 0.1451
C79 C 0.4295(2) 0.3825(5) 0.1517(5)
H65 H 0.4393 0.3539 0.1195
C80 C 0.4031(2) 0.3579(4) 0.1836(5)
H66 H 0.3950 0.3124 0.1732
C81 C 0.38875(18) 0.3999(4) 0.2306(4)
N23 N 0.3251(3) 0.3954(6) 0.3355(6)
N24 N 0.3470(2) 0.4281(5) 0.3038(5)
C82 C 0.3608(4) 0.3812(9) 0.2661(8)
C83 C 0.3477(4) 0.3169(10) 0.2713(9)
H67 H 0.3539 0.2751 0.2487
C84 C 0.3240(5) 0.3223(10) 0.3143(10)
H68 H 0.3099 0.2862 0.3275
C85 C 0.3018(3) 0.4319(7) 0.3707(6)
H69 H 0.3083 0.4821 0.3755
H70 H 0.3005 0.4112 0.4151
C86 C 0.2273(2) 0.4584(6) 0.2696(5)
C87 C 0.2194(3) 0.4052(6) 0.3125(6)
H71 H 0.2001 0.3811 0.3137
C88 C 0.2450(3) 0.3921(7) 0.3550(6)
H72 H 0.2439 0.3591 0.3901
C89 C 0.2712(3) 0.4306(6) 0.3416(5)
S4 S 0.26302(8) 0.48989(18) 0.27570(17)
N25 N 0.4014(2) 0.4743(4) 0.3869(4)
C90 C 0.3973(2) 0.4051(5) 0.4092(6)
H73 H 0.3800 0.3781 0.3950
C91 C 0.4186(3) 0.3754(4) 0.4522(6)
H74 H 0.4159 0.3281 0.4675
C92 C 0.4440(3) 0.4148(6) 0.4730(6)
H75 H 0.4586 0.3945 0.5024
C93 C 0.4481(2) 0.4840(6) 0.4507(6)
H76 H 0.4655 0.5110 0.4649
C94 C 0.4268(2) 0.5137(4) 0.4077(5)
N26 N 0.4195(3) 0.6645(7) 0.3198(7)
N27 N 0.4107(3) 0.6023(7) 0.3319(7)
C95 C 0.4297(4) 0.5799(8) 0.3839(7)
C96 C 0.4463(5) 0.6321(10) 0.3932(10)
H77 H 0.4615 0.6306 0.4268
C97 C 0.4433(5) 0.6967(11) 0.3532(10)
H78 H 0.4534 0.7415 0.3512
C98 C 0.4081(3) 0.7047(7) 0.2602(7)
H79 H 0.3918 0.6761 0.2388
H80 H 0.4255 0.7090 0.2289
N28 N 0.35325(16) 0.9266(4) 0.5951(3)
C99 C 0.36207(14) 0.9341(4) 0.6602(3)
H81 H 0.3783 0.9659 0.6716
C100 C 0.34716(17) 0.8951(4) 0.7086(2)
H82 H 0.3532 0.9002 0.7531
C101 C 0.32342(17) 0.8486(4) 0.6920(3)
H83 H 0.3132 0.8219 0.7251
C102 C 0.31460(15) 0.8411(4) 0.6269(3)
H84 H 0.2984 0.8093 0.6155
C103 C 0.32951(17) 0.8801(4) 0.5785(2)
N29 N 0.3271(2) 0.9061(5) 0.4074(4)
N30 N 0.3395(2) 0.9172(5) 0.4675(4)
C104 C 0.3226(3) 0.8796(6) 0.5108(6)
C105 C 0.2996(2) 0.8409(5) 0.4768(5)
H85 H 0.2848 0.8094 0.4955
C106 C 0.3027(2) 0.8572(5) 0.4130(5)
H86 H 0.2906 0.8389 0.3781
C107 C 0.3410(3) 0.9343(7) 0.3467(6)
H87 H 0.3245 0.9423 0.3138
H88 H 0.3510 0.9805 0.3560
C108 C 0.3944(3) 0.7839(8) 0.2741(7)
C109 C 0.4066(3) 0.8418(6) 0.2601(6)
H89 H 0.4257 0.8446 0.2374
C110 C 0.3897(4) 0.9050(10) 0.2805(9)
H90 H 0.3952 0.9523 0.2691
C111 C 0.3636(2) 0.8860(5) 0.3204(5)
S5 S 0.36256(8) 0.79490(18) 0.32362(17)
N31 N 0.35180(15) 0.5800(4) 0.2458(3)
C112 C 0.35899(17) 0.5844(4) 0.1796(3)
H91 H 0.3761 0.5585 0.1625
C113 C 0.3412(2) 0.6267(5) 0.1384(3)
H92 H 0.3461 0.6297 0.0931
C114 C 0.3162(2) 0.6646(5) 0.1634(4)
H93 H 0.3041 0.6935 0.1352
C115 C 0.30902(16) 0.6602(4) 0.2296(4)
H94 H 0.2919 0.6861 0.2467
C116 C 0.32682(17) 0.6179(4) 0.2708(3)
N32 N 0.3364(2) 0.5856(6) 0.4389(5)
N33 N 0.3456(2) 0.5841(5) 0.3735(5)
C117 C 0.3240(3) 0.6222(6) 0.3407(5)
C118 C 0.3023(3) 0.6457(6) 0.3822(6)
H95 H 0.2847 0.6730 0.3700
C119 C 0.3088(4) 0.6258(8) 0.4413(8)
H96 H 0.2971 0.6363 0.4795
C120 C 0.3537(3) 0.5606(7) 0.4933(7)
H97 H 0.3660 0.5184 0.4805
H98 H 0.3395 0.5468 0.5292
N34 N 0.3960(2) 1.0328(5) 0.4310(5)
C121 C 0.3896(2) 1.0993(5) 0.4047(6)
H99 H 0.3721 1.1254 0.4195
C122 C 0.4087(3) 1.1277(5) 0.3566(6)
H100 H 0.4043 1.1732 0.3386
C123 C 0.4343(3) 1.0897(7) 0.3348(6)
H101 H 0.4474 1.1091 0.3019
C124 C 0.4408(3) 1.0232(7) 0.3611(7)
H102 H 0.4583 0.9972 0.3462
C125 C 0.4216(3) 0.9948(5) 0.4092(6)
N35 N 0.4198(3) 0.8464(6) 0.5137(6)
N36 N 0.4091(3) 0.9032(6) 0.4928(6)
C126 C 0.4272(4) 0.9333(9) 0.4392(8)
C127 C 0.4464(6) 0.8828(13) 0.4364(13)
H103 H 0.4599 0.8803 0.3999
C128 C 0.4483(5) 0.8361(11) 0.4797(11)
H104 H 0.4643 0.8026 0.4877
C129 C 0.4080(4) 0.7972(8) 0.5735(9)
H105 H 0.4248 0.7951 0.6065
H106 H 0.3902 0.8212 0.5943
C130 C 0.3762(3) 0.6233(6) 0.5171(6)
C131 C 0.4018(4) 0.6097(9) 0.5523(8)
H107 H 0.4092 0.5629 0.5604
C132 C 0.4150(5) 0.6639(11) 0.5733(10)
H108 H 0.4340 0.6620 0.5967
C133 C 0.3995(3) 0.7295(7) 0.5595(6)
S6 S 0.36723(7) 0.70766(16) 0.51194(16)
B1 B 0.0000 0.6838(10) 0.5484(8)
F1 F 0.0000 0.7346(6) 0.4989(5)
F2 F 0.0000 0.7171(6) 0.6090(5)
F3 F 0.0270(2) 0.6471(5) 0.5422(4)
F3B F -0.0270(2) 0.6471(5) 0.5422(4)
B2 B 0.2387(3) 0.1752(7) 0.7510(6)
F4 F 0.2520(2) 0.2128(4) 0.6989(4)
F5 F 0.24352(15) 0.2156(4) 0.8042(3)
F6 F 0.25146(18) 0.1110(4) 0.7521(4)
F7 F 0.20707(16) 0.1719(4) 0.7410(4)
B3 B 0.0744(3) 0.1046(7) 0.2850(6)
F8 F 0.07976(18) 0.1469(4) 0.2307(3)
F9 F 0.05318(17) 0.1379(4) 0.3256(4)
F10 F 0.06292(18) 0.0389(4) 0.2642(4)
F11 F 0.10184(15) 0.0931(3) 0.3187(3)
B4 B 0.3231(3) 0.1094(8) 0.2763(7)
F12 F 0.3207(2) 0.1630(5) 0.2278(4)
F13 F 0.3265(2) 0.1396(4) 0.3353(4)
F14 F 0.34824(18) 0.0700(4) 0.2617(4)
F15 F 0.2964(2) 0.0703(4) 0.2736(4)
B5 B 0.2506(5) 0.3171(8) 0.0720(8)
F16 F 0.2597(3) 0.3597(5) 0.1237(5)
F17 F 0.2603(2) 0.3487(4) 0.0130(4)
F18 F 0.2643(3) 0.2491(5) 0.0787(5)
F19 F 0.2207(2) 0.3036(4) 0.0720(4)
C134 C 0.1146(3) 0.2372(8) 0.4025(7)
H109 H 0.1207 0.2044 0.4375
H110 H 0.0971 0.2170 0.3781
H111 H 0.1084 0.2828 0.4217
C135 C 0.1411(3) 0.2485(7) 0.3576(6)
N37 N 0.1620(3) 0.2613(6) 0.3255(6)
C137 C 0.2327(4) 0.1997(12) 0.5349(12)
H115 H 0.2433 0.2436 0.5221
H116 H 0.2400 0.1604 0.5073
H117 H 0.2373 0.1891 0.5809
C138 C 0.1994(3) 0.2085(6) 0.5265(6)
N39 N 0.1749(3) 0.2193(7) 0.5133(6)
C139 C 0.2543(5) 0.2021(10) 0.3766(9)
H118 H 0.2620 0.1532 0.3757
H119 H 0.2342 0.2033 0.3991
H120 H 0.2690 0.2325 0.3999
C140 C 0.2505(5) 0.2280(12) 0.3093(9)
N40 N 0.2532(5) 0.2386(10) 0.2514(9)
loop_
_geom_bond_atom_site_label_1
_geom_bond_atom_site_label_2
_geom_bond_site_symmetry_1
_geom_bond_site_symmetry_2
C1 C136 1_555 1_555
Ni1 N1 1_555 1_555
Ni2 N4 1_555 1_555
Ni3 N10 1_555 1_555
Ni4 N22 1_555 1_555
N1 C2 1_555 1_555
C2 H1 1_555 1_555
C3 C2 1_555 1_555
H2 C3 1_555 1_555
C4 C3 1_555 1_555
H3 C4 1_555 1_555
C5 C4 1_555 1_555
H4 C5 1_555 1_555
C6 N1 1_555 1_555
N2 N3 1_555 1_555
N3 Ni1 1_555 1_555
C7 C6 1_555 1_555
C8 C7 1_555 1_555
H5 C8 1_555 1_555
C9 N2 1_555 1_555
H6 C9 1_555 1_555
C10 N2 1_555 1_555
H7 C10 1_555 1_555
H8 C10 1_555 1_555
N4 C11 1_555 1_555
C11 H9 1_555 1_555
C12 C11 1_555 1_555
H10 C12 1_555 1_555
C13 C12 1_555 1_555
H11 C13 1_555 1_555
C14 C13 1_555 1_555
H12 C14 1_555 1_555
C15 N4 1_555 1_555
N5 N6 1_555 1_555
N6 Ni2 1_555 1_555
C16 C15 1_555 1_555
C17 C16 1_555 1_555
H13 C17 1_555 1_555
C18 N5 1_555 1_555
H14 C18 1_555 1_555
C19 N5 1_555 1_555
H15 C19 1_555 1_555
H16 C19 1_555 1_555
C20 C10 1_555 1_555
C21 C20 1_555 1_555
H17 C21 1_555 1_555
C22 C21 1_555 1_555
H18 C22 1_555 1_555
C23 C19 1_555 1_555
S1 C20 1_555 1_555
N7 Ni2 1_555 1_555
C24 N7 1_555 1_555
H19 C24 1_555 1_555
C25 C24 1_555 1_555
H20 C25 1_555 1_555
C26 C25 1_555 1_555
H21 C26 1_555 1_555
C27 C26 1_555 1_555
H22 C27 1_555 1_555
C28 N7 1_555 1_555
N8 N9 1_555 1_555
N9 Ni2 1_555 1_555
C29 C28 1_555 1_555
C30 C29 1_555 1_555
H23 C30 1_555 1_555
C31 N8 1_555 1_555
H24 C31 1_555 1_555
C32 N8 1_555 1_555
H25 C32 1_555 1_555
H26 C32 1_555 1_555
N10 C33 1_555 1_555
C33 H27 1_555 1_555
C34 C33 1_555 1_555
H28 C34 1_555 1_555
C35 C34 1_555 1_555
H29 C35 1_555 1_555
C36 C35 1_555 1_555
H30 C36 1_555 1_555
C37 N10 1_555 1_555
N11 N12 1_555 1_555
N12 Ni3 1_555 1_555
C38 C37 1_555 1_555
C39 C38 1_555 1_555
H31 C39 1_555 1_555
C40 N11 1_555 1_555
H32 C40 1_555 1_555
C41 N11 1_555 1_555
H33 C41 1_555 1_555
H34 C41 1_555 1_555
C42 C32 1_555 1_555
C43 C42 1_555 1_555
H35 C43 1_555 1_555
C44 C43 1_555 1_555
H36 C44 1_555 1_555
C45 C41 1_555 1_555
S2 C42 1_555 1_555
N13 Ni2 1_555 1_555
C46 N13 1_555 1_555
H37 C46 1_555 1_555
C47 C46 1_555 1_555
H38 C47 1_555 1_555
C48 C47 1_555 1_555
H39 C48 1_555 1_555
C49 C48 1_555 1_555
H40 C49 1_555 1_555
C50 N13 1_555 1_555
N14 N15 1_555 1_555
N15 Ni2 1_555 1_555
C51 C50 1_555 1_555
C52 C51 1_555 1_555
H41 C52 1_555 1_555
C53 N14 1_555 1_555
H42 C53 1_555 1_555
C54 N14 1_555 1_555
H43 C54 1_555 1_555
H44 C54 1_555 1_555
N16 Ni3 1_555 1_555
C55 N16 1_555 1_555
H45 C55 1_555 1_555
C56 C55 1_555 1_555
H46 C56 1_555 1_555
C57 C56 1_555 1_555
H47 C57 1_555 1_555
C58 C57 1_555 1_555
H48 C58 1_555 1_555
C59 N16 1_555 1_555
N17 N18 1_555 1_555
N18 Ni3 1_555 1_555
C60 C59 1_555 1_555
C61 C60 1_555 1_555
H49 C61 1_555 1_555
C62 N17 1_555 1_555
H50 C62 1_555 1_555
C63 N17 1_555 1_555
H51 C63 1_555 1_555
H52 C63 1_555 1_555
C64 C54 1_555 1_555
C65 C64 1_555 1_555
H53 C65 1_555 1_555
C66 C65 1_555 1_555
H54 C66 1_555 1_555
C67 C63 1_555 1_555
S3 C64 1_555 1_555
N19 Ni3 1_555 1_555
C68 N19 1_555 1_555
H55 C68 1_555 1_555
C69 C68 1_555 1_555
H56 C69 1_555 1_555
C70 C69 1_555 1_555
H57 C70 1_555 1_555
C71 C70 1_555 1_555
H58 C71 1_555 1_555
C72 N19 1_555 1_555
N20 N21 1_555 1_555
N21 Ni3 1_555 1_555
C73 C72 1_555 1_555
C74 C73 1_555 1_555
H59 C74 1_555 1_555
C75 N20 1_555 1_555
H60 C75 1_555 1_555
C76 N20 1_555 1_555
H61 C76 1_555 1_555
H62 C76 1_555 1_555
N22 C77 1_555 1_555
C77 H63 1_555 1_555
C78 C77 1_555 1_555
H64 C78 1_555 1_555
C79 C78 1_555 1_555
H65 C79 1_555 1_555
C80 C79 1_555 1_555
H66 C80 1_555 1_555
C81 N22 1_555 1_555
N23 N24 1_555 1_555
N24 Ni4 1_555 1_555
C82 C81 1_555 1_555
C83 C82 1_555 1_555
H67 C83 1_555 1_555
C84 N23 1_555 1_555
H68 C84 1_555 1_555
C85 N23 1_555 1_555
H69 C85 1_555 1_555
H70 C85 1_555 1_555
C86 C76 1_555 1_555
C87 C86 1_555 1_555
H71 C87 1_555 1_555
C88 C87 1_555 1_555
H72 C88 1_555 1_555
C89 C85 1_555 1_555
S4 C86 1_555 1_555
N25 Ni4 1_555 1_555
C90 N25 1_555 1_555
H73 C90 1_555 1_555
C91 C90 1_555 1_555
H74 C91 1_555 1_555
C92 C91 1_555 1_555
H75 C92 1_555 1_555
C93 C92 1_555 1_555
H76 C93 1_555 1_555
C94 N25 1_555 1_555
N26 N27 1_555 1_555
N27 Ni4 1_555 1_555
C95 C94 1_555 1_555
C96 C95 1_555 1_555
H77 C96 1_555 1_555
C97 N26 1_555 1_555
H78 C97 1_555 1_555
C98 N26 1_555 1_555
H79 C98 1_555 1_555
H80 C98 1_555 1_555
N28 Ni1 1_555 1_555
C99 N28 1_555 1_555
H81 C99 1_555 1_555
C100 C99 1_555 1_555
H82 C100 1_555 1_555
C101 C100 1_555 1_555
H83 C101 1_555 1_555
C102 C101 1_555 1_555
H84 C102 1_555 1_555
C103 N28 1_555 1_555
N29 N30 1_555 1_555
N30 Ni1 1_555 1_555
C104 C103 1_555 1_555
C105 C104 1_555 1_555
H85 C105 1_555 1_555
C106 N29 1_555 1_555
H86 C106 1_555 1_555
C107 N29 1_555 1_555
H87 C107 1_555 1_555
H88 C107 1_555 1_555
C108 C98 1_555 1_555
C109 C108 1_555 1_555
H89 C109 1_555 1_555
C110 C109 1_555 1_555
H90 C110 1_555 1_555
C111 C107 1_555 1_555
S5 C108 1_555 1_555
N31 Ni4 1_555 1_555
C112 N31 1_555 1_555
H91 C112 1_555 1_555
C113 C112 1_555 1_555
H92 C113 1_555 1_555
C114 C113 1_555 1_555
H93 C114 1_555 1_555
C115 C114 1_555 1_555
H94 C115 1_555 1_555
C116 N31 1_555 1_555
N32 N33 1_555 1_555
N33 Ni4 1_555 1_555
C117 C116 1_555 1_555
C118 C117 1_555 1_555
H95 C118 1_555 1_555
C119 N32 1_555 1_555
H96 C119 1_555 1_555
C120 N32 1_555 1_555
H97 C120 1_555 1_555
H98 C120 1_555 1_555
N34 Ni1 1_555 1_555
C121 N34 1_555 1_555
H99 C121 1_555 1_555
C122 C121 1_555 1_555
H100 C122 1_555 1_555
C123 C122 1_555 1_555
H101 C123 1_555 1_555
C124 C123 1_555 1_555
H102 C124 1_555 1_555
C125 N34 1_555 1_555
N35 N36 1_555 1_555
N36 Ni1 1_555 1_555
C126 C125 1_555 1_555
C127 C126 1_555 1_555
H103 C127 1_555 1_555
C128 N35 1_555 1_555
H104 C128 1_555 1_555
C129 N35 1_555 1_555
H105 C129 1_555 1_555
H106 C129 1_555 1_555
C130 C120 1_555 1_555
C131 C130 1_555 1_555
H107 C131 1_555 1_555
C132 C131 1_555 1_555
H108 C132 1_555 1_555
C133 C129 1_555 1_555
S6 C130 1_555 1_555
B1 F1 1_555 1_555
F2 B1 1_555 1_555
F3 B1 1_555 1_555
B2 F4 1_555 1_555
F5 B2 1_555 1_555
F6 B2 1_555 1_555
F7 B2 1_555 1_555
B3 F8 1_555 1_555
F9 B3 1_555 1_555
F10 B3 1_555 1_555
F11 B3 1_555 1_555
B4 F12 1_555 1_555
F13 B4 1_555 1_555
F14 B4 1_555 1_555
F15 B4 1_555 1_555
B5 F16 1_555 1_555
F17 B5 1_555 1_555
F18 B5 1_555 1_555
F19 B5 1_555 1_555
C134 H109 1_555 1_555
H110 C134 1_555 1_555
H111 C134 1_555 1_555
C135 C134 1_555 1_555
N37 C135 1_555 1_555
C136 N38 1_555 1_555
C137 H115 1_555 1_555
H116 C137 1_555 1_555
H117 C137 1_555 1_555
C138 C137 1_555 1_555
N39 C138 1_555 1_555
C139 H118 1_555 1_555
H119 C139 1_555 1_555
H120 C139 1_555 1_555
C140 C139 1_555 1_555
N40 C140 1_555 1_555
F3B B1 1_555 1_555
C5 C6 1_555 1_555
N3 C7 1_555 1_555
C8 C9 1_555 1_555
C14 C15 1_555 1_555
N6 C16 1_555 1_555
C17 C18 1_555 1_555
C22 C23 1_555 1_555
C23 S1 1_555 1_555
C27 C28 1_555 1_555
N9 C29 1_555 1_555
C30 C31 1_555 1_555
C36 C37 1_555 1_555
N12 C38 1_555 1_555
C39 C40 1_555 1_555
C44 C45 1_555 1_555
C45 S2 1_555 1_555
C49 C50 1_555 1_555
N15 C51 1_555 1_555
C52 C53 1_555 1_555
C58 C59 1_555 1_555
N18 C60 1_555 1_555
C61 C62 1_555 1_555
C66 C67 1_555 1_555
C67 S3 1_555 1_555
C71 C72 1_555 1_555
N21 C73 1_555 1_555
C74 C75 1_555 1_555
C80 C81 1_555 1_555
N24 C82 1_555 1_555
C83 C84 1_555 1_555
C88 C89 1_555 1_555
C89 S4 1_555 1_555
C93 C94 1_555 1_555
N27 C95 1_555 1_555
C96 C97 1_555 1_555
C102 C103 1_555 1_555
N30 C104 1_555 1_555
C105 C106 1_555 1_555
C110 C111 1_555 1_555
C111 S5 1_555 1_555
C115 C116 1_555 1_555
N33 C117 1_555 1_555
C118 C119 1_555 1_555
C124 C125 1_555 1_555
N36 C126 1_555 1_555
C127 C128 1_555 1_555
C132 C133 1_555 1_555
C133 S6 1_555 1_555

#END
