# generated using pymatgen
data_Zn8H232C271N77Cl13O75
_symmetry_space_group_name_H-M   'P 1'
_cell_length_a   25.72600000
_cell_length_b   42.92700000
_cell_length_c   66.26500000
_cell_angle_alpha   90.00000000
_cell_angle_beta   94.90900000
_cell_angle_gamma   90.00000000
_symmetry_Int_Tables_number   1
_chemical_formula_structural   Zn8H232C271N77Cl13O75
_chemical_formula_sum   'Zn32 H928 C1084 N308 Cl52 O300'
_cell_volume   72910.65957040
_cell_formula_units_Z   4
loop_
 _symmetry_equiv_pos_site_id
 _symmetry_equiv_pos_as_xyz
  1  'x, y, z'
loop_
 _atom_site_type_symbol
 _atom_site_label
 _atom_site_symmetry_multiplicity
 _atom_site_fract_x
 _atom_site_fract_y
 _atom_site_fract_z
 _atom_site_occupancy
  Zn  Zn1  1  0.902970  0.132340  0.396430  1
  Zn  Zn2  1  0.097030  0.632340  0.103570  1
  Zn  Zn3  1  0.097030  0.867660  0.603570  1
  Zn  Zn4  1  0.902970  0.367660  0.896430  1
  Zn  Zn5  1  0.838250  0.349650  0.423490  1
  Zn  Zn6  1  0.161750  0.849650  0.076510  1
  Zn  Zn7  1  0.161750  0.650350  0.576510  1
  Zn  Zn8  1  0.838250  0.150350  0.923490  1
  Zn  Zn9  1  0.076630  0.291170  0.552740  1
  Zn  Zn10  1  0.923370  0.791170  0.947260  1
  Zn  Zn11  1  0.923370  0.708830  0.447260  1
  Zn  Zn12  1  0.076630  0.208830  0.052740  1
  Zn  Zn13  1  0.222810  0.109860  0.504200  1
  Zn  Zn14  1  0.777190  0.609860  0.995800  1
  Zn  Zn15  1  0.777190  0.890140  0.495800  1
  Zn  Zn16  1  0.222810  0.390140  0.004200  1
  Zn  Zn17  1  0.178420  0.196060  0.319740  1
  Zn  Zn18  1  0.821580  0.696060  0.180260  1
  Zn  Zn19  1  0.821580  0.803940  0.680260  1
  Zn  Zn20  1  0.178420  0.303940  0.819740  1
  Zn  Zn21  1  0.110560  0.405790  0.343080  1
  Zn  Zn22  1  0.889440  0.905790  0.156920  1
  Zn  Zn23  1  0.889440  0.594210  0.656920  1
  Zn  Zn24  1  0.110560  0.094210  0.843080  1
  Zn  Zn25  1  0.286260  0.422940  0.488640  1
  Zn  Zn26  1  0.713740  0.922940  0.011360  1
  Zn  Zn27  1  0.713740  0.577060  0.511360  1
  Zn  Zn28  1  0.286260  0.077060  0.988640  1
  Zn  Zn29  1  0.456090  0.248340  0.431140  1
  Zn  Zn30  1  0.543910  0.748340  0.068860  1
  Zn  Zn31  1  0.543910  0.751660  0.568860  1
  Zn  Zn32  1  0.456090  0.251660  0.931140  1
  H  H33  1  0.951200  0.086500  0.363700  1
  H  H34  1  0.048800  0.586500  0.136300  1
  H  H35  1  0.048800  0.913500  0.636300  1
  H  H36  1  0.951200  0.413500  0.863700  1
  H  H37  1  0.034200  0.068200  0.357700  1
  H  H38  1  0.965800  0.568200  0.142300  1
  H  H39  1  0.965800  0.931800  0.642300  1
  H  H40  1  0.034200  0.431800  0.857700  1
  H  H41  1  0.107900  0.086500  0.377300  1
  H  H42  1  0.892100  0.586500  0.122700  1
  H  H43  1  0.892100  0.913500  0.622700  1
  H  H44  1  0.107900  0.413500  0.877300  1
  H  H45  1  0.098700  0.123100  0.402900  1
  H  H46  1  0.901300  0.623100  0.097100  1
  H  H47  1  0.901300  0.876900  0.597100  1
  H  H48  1  0.098700  0.376900  0.902900  1
  H  H49  1  0.080000  0.159100  0.431500  1
  H  H50  1  0.920000  0.659100  0.068500  1
  H  H51  1  0.920000  0.840900  0.568500  1
  H  H52  1  0.080000  0.340900  0.931500  1
  H  H53  1  0.024600  0.194100  0.451900  1
  H  H54  1  0.975400  0.694100  0.048100  1
  H  H55  1  0.975400  0.805900  0.548100  1
  H  H56  1  0.024600  0.305900  0.951900  1
  H  H57  1  0.920100  0.204700  0.450500  1
  H  H58  1  0.079900  0.704700  0.049500  1
  H  H59  1  0.079900  0.795300  0.549500  1
  H  H60  1  0.920100  0.295300  0.950500  1
  H  H61  1  0.884300  0.187300  0.432900  1
  H  H62  1  0.115700  0.687300  0.067100  1
  H  H63  1  0.115700  0.812700  0.567100  1
  H  H64  1  0.884300  0.312700  0.932900  1
  H  H65  1  0.861200  0.423500  0.427700  1
  H  H66  1  0.138800  0.923500  0.072300  1
  H  H67  1  0.138800  0.576500  0.572300  1
  H  H68  1  0.861200  0.076500  0.927700  1
  H  H69  1  0.870100  0.465600  0.405800  1
  H  H70  1  0.129900  0.965600  0.094200  1
  H  H71  1  0.129900  0.534400  0.594200  1
  H  H72  1  0.870100  0.034400  0.905800  1
  H  H73  1  0.869000  0.457100  0.370900  1
  H  H74  1  0.131000  0.957100  0.129100  1
  H  H75  1  0.131000  0.542900  0.629100  1
  H  H76  1  0.869000  0.042900  0.870900  1
  H  H77  1  0.859100  0.406500  0.357900  1
  H  H78  1  0.140900  0.906500  0.142100  1
  H  H79  1  0.140900  0.593500  0.642100  1
  H  H80  1  0.859100  0.093500  0.857900  1
  H  H81  1  0.859600  0.348400  0.347100  1
  H  H82  1  0.140400  0.848400  0.152900  1
  H  H83  1  0.140400  0.651600  0.652900  1
  H  H84  1  0.859600  0.151600  0.847100  1
  H  H85  1  0.845400  0.290800  0.353100  1
  H  H86  1  0.154600  0.790800  0.146900  1
  H  H87  1  0.154600  0.709200  0.646900  1
  H  H88  1  0.845400  0.209200  0.853100  1
  H  H89  1  0.812700  0.260000  0.382400  1
  H  H90  1  0.187300  0.760000  0.117600  1
  H  H91  1  0.187300  0.740000  0.617600  1
  H  H92  1  0.812700  0.240000  0.882400  1
  H  H93  1  0.802700  0.277600  0.402900  1
  H  H94  1  0.197300  0.777600  0.097100  1
  H  H95  1  0.197300  0.722400  0.597100  1
  H  H96  1  0.802700  0.222400  0.902900  1
  H  H97  1  0.991900  0.245600  0.420000  1
  H  H98  1  0.008100  0.745600  0.080000  1
  H  H99  1  0.008100  0.754400  0.580000  1
  H  H100  1  0.991900  0.254400  0.920000  1
  H  H101  1  0.943800  0.284500  0.396300  1
  H  H102  1  0.056200  0.784500  0.103700  1
  H  H103  1  0.056200  0.715500  0.603700  1
  H  H104  1  0.943800  0.215500  0.896300  1
  H  H105  1  0.738400  0.338300  0.393000  1
  H  H106  1  0.261600  0.838300  0.107000  1
  H  H107  1  0.261600  0.661700  0.607000  1
  H  H108  1  0.738400  0.161700  0.893000  1
  H  H109  1  0.648900  0.349000  0.391200  1
  H  H110  1  0.351100  0.849000  0.108800  1
  H  H111  1  0.351100  0.651000  0.608800  1
  H  H112  1  0.648900  0.151000  0.891200  1
  H  H113  1  0.613900  0.376200  0.417500  1
  H  H114  1  0.386100  0.876200  0.082500  1
  H  H115  1  0.386100  0.623800  0.582500  1
  H  H116  1  0.613900  0.123800  0.917500  1
  H  H117  1  0.668400  0.392800  0.445500  1
  H  H118  1  0.331600  0.892800  0.054500  1
  H  H119  1  0.331600  0.607200  0.554500  1
  H  H120  1  0.668400  0.107200  0.945500  1
  H  H121  1  0.730800  0.403300  0.476100  1
  H  H122  1  0.269200  0.903300  0.023900  1
  H  H123  1  0.269200  0.596700  0.523900  1
  H  H124  1  0.730800  0.096700  0.976100  1
  H  H125  1  0.819500  0.403300  0.496100  1
  H  H126  1  0.180500  0.903300  0.003900  1
  H  H127  1  0.180500  0.596700  0.503900  1
  H  H128  1  0.819500  0.096700  0.996100  1
  H  H129  1  0.918600  0.402400  0.475000  1
  H  H130  1  0.081400  0.902400  0.025000  1
  H  H131  1  0.081400  0.597600  0.525000  1
  H  H132  1  0.918600  0.097600  0.975000  1
  H  H133  1  0.919400  0.368900  0.464400  1
  H  H134  1  0.080600  0.868900  0.035600  1
  H  H135  1  0.080600  0.631100  0.535600  1
  H  H136  1  0.919400  0.131100  0.964400  1
  H  H137  1  0.142100  0.302800  0.595500  1
  H  H138  1  0.857900  0.802800  0.904500  1
  H  H139  1  0.857900  0.697200  0.404500  1
  H  H140  1  0.142100  0.197200  0.095500  1
  H  H141  1  0.126100  0.304400  0.629800  1
  H  H142  1  0.873900  0.804400  0.870200  1
  H  H143  1  0.873900  0.695600  0.370200  1
  H  H144  1  0.126100  0.195600  0.129800  1
  H  H145  1  0.040700  0.300300  0.639100  1
  H  H146  1  0.959300  0.800300  0.860900  1
  H  H147  1  0.959300  0.699700  0.360900  1
  H  H148  1  0.040700  0.199700  0.139100  1
  H  H149  1  0.971200  0.294700  0.614100  1
  H  H150  1  0.028800  0.794700  0.885900  1
  H  H151  1  0.028800  0.705300  0.385900  1
  H  H152  1  0.971200  0.205300  0.114100  1
  H  H153  1  0.904300  0.285900  0.586500  1
  H  H154  1  0.095700  0.785900  0.913500  1
  H  H155  1  0.095700  0.714100  0.413500  1
  H  H156  1  0.904300  0.214100  0.086500  1
  H  H157  1  0.866300  0.282200  0.549900  1
  H  H158  1  0.133700  0.782200  0.950100  1
  H  H159  1  0.133700  0.717800  0.450100  1
  H  H160  1  0.866300  0.217800  0.049900  1
  H  H161  1  0.912500  0.280500  0.514500  1
  H  H162  1  0.087500  0.780500  0.985500  1
  H  H163  1  0.087500  0.719500  0.485500  1
  H  H164  1  0.912500  0.219500  0.014500  1
  H  H165  1  0.974300  0.286000  0.516100  1
  H  H166  1  0.025700  0.786000  0.983900  1
  H  H167  1  0.025700  0.714000  0.483900  1
  H  H168  1  0.974300  0.214000  0.016100  1
  H  H169  1  0.916500  0.399500  0.518800  1
  H  H170  1  0.083500  0.899500  0.981200  1
  H  H171  1  0.083500  0.600500  0.481200  1
  H  H172  1  0.916500  0.100500  0.018800  1
  H  H173  1  0.936600  0.354000  0.542600  1
  H  H174  1  0.063400  0.854000  0.957400  1
  H  H175  1  0.063400  0.646000  0.457400  1
  H  H176  1  0.936600  0.146000  0.042600  1
  H  H177  1  0.073500  0.358800  0.574800  1
  H  H178  1  0.926500  0.858800  0.925200  1
  H  H179  1  0.926500  0.641200  0.425200  1
  H  H180  1  0.073500  0.141200  0.074800  1
  H  H181  1  0.050200  0.409400  0.564500  1
  H  H182  1  0.949800  0.909400  0.935500  1
  H  H183  1  0.949800  0.590600  0.435500  1
  H  H184  1  0.050200  0.090600  0.064500  1
  H  H185  1  0.036800  0.421300  0.530000  1
  H  H186  1  0.963200  0.921300  0.970000  1
  H  H187  1  0.963200  0.578700  0.470000  1
  H  H188  1  0.036800  0.078700  0.030000  1
  H  H189  1  0.046600  0.382600  0.505700  1
  H  H190  1  0.953400  0.882600  0.994300  1
  H  H191  1  0.953400  0.617400  0.494300  1
  H  H192  1  0.046600  0.117400  0.005700  1
  H  H193  1  0.065300  0.337900  0.481700  1
  H  H194  1  0.934700  0.837900  0.018300  1
  H  H195  1  0.934700  0.662100  0.518300  1
  H  H196  1  0.065300  0.162100  0.981700  1
  H  H197  1  0.077900  0.281200  0.472500  1
  H  H198  1  0.922100  0.781200  0.027500  1
  H  H199  1  0.922100  0.718800  0.527500  1
  H  H200  1  0.077900  0.218800  0.972500  1
  H  H201  1  0.081400  0.229700  0.493700  1
  H  H202  1  0.918600  0.729700  0.006300  1
  H  H203  1  0.918600  0.770300  0.506300  1
  H  H204  1  0.081400  0.270300  0.993700  1
  H  H205  1  0.071000  0.232300  0.517100  1
  H  H206  1  0.929000  0.732300  0.982900  1
  H  H207  1  0.929000  0.767700  0.482900  1
  H  H208  1  0.071000  0.267700  0.017100  1
  H  H209  1  0.272700  0.061500  0.473700  1
  H  H210  1  0.727300  0.561500  0.026300  1
  H  H211  1  0.727300  0.938500  0.526300  1
  H  H212  1  0.272700  0.438500  0.973700  1
  H  H213  1  0.356400  0.049000  0.464900  1
  H  H214  1  0.643600  0.549000  0.035100  1
  H  H215  1  0.643600  0.951000  0.535100  1
  H  H216  1  0.356400  0.451000  0.964900  1
  H  H217  1  0.429100  0.075300  0.480200  1
  H  H218  1  0.570900  0.575300  0.019800  1
  H  H219  1  0.570900  0.924700  0.519800  1
  H  H220  1  0.429100  0.424700  0.980200  1
  H  H221  1  0.418200  0.114000  0.504300  1
  H  H222  1  0.581800  0.614000  0.995700  1
  H  H223  1  0.581800  0.886000  0.495700  1
  H  H224  1  0.418200  0.386000  0.004300  1
  H  H225  1  0.399100  0.156400  0.529700  1
  H  H226  1  0.600900  0.656400  0.970300  1
  H  H227  1  0.600900  0.843600  0.470300  1
  H  H228  1  0.399100  0.343600  0.029700  1
  H  H229  1  0.340800  0.190900  0.549100  1
  H  H230  1  0.659200  0.690900  0.950900  1
  H  H231  1  0.659200  0.809100  0.450900  1
  H  H232  1  0.340800  0.309100  0.049100  1
  H  H233  1  0.202500  0.164000  0.541100  1
  H  H234  1  0.797500  0.664000  0.958900  1
  H  H235  1  0.797500  0.836000  0.458900  1
  H  H236  1  0.202500  0.336000  0.041100  1
  H  H237  1  0.237200  0.187900  0.555100  1
  H  H238  1  0.762800  0.687900  0.944900  1
  H  H239  1  0.762800  0.812100  0.444900  1
  H  H240  1  0.237200  0.312100  0.055100  1
  H  H241  1  0.198700  0.268800  0.502800  1
  H  H242  1  0.801300  0.768800  0.997200  1
  H  H243  1  0.801300  0.731200  0.497200  1
  H  H244  1  0.198700  0.231200  0.002800  1
  H  H245  1  0.271100  0.236200  0.520600  1
  H  H246  1  0.728900  0.736200  0.979400  1
  H  H247  1  0.728900  0.763800  0.479400  1
  H  H248  1  0.271100  0.263800  0.020600  1
  H  H249  1  0.273900  0.102100  0.550000  1
  H  H250  1  0.726100  0.602100  0.950000  1
  H  H251  1  0.726100  0.897900  0.450000  1
  H  H252  1  0.273900  0.397900  0.050000  1
  H  H253  1  0.280100  0.063100  0.574800  1
  H  H254  1  0.719900  0.563100  0.925200  1
  H  H255  1  0.719900  0.936900  0.425200  1
  H  H256  1  0.280100  0.436900  0.074800  1
  H  H257  1  0.238200  0.015300  0.568500  1
  H  H258  1  0.761800  0.515300  0.931500  1
  H  H259  1  0.761800  0.984700  0.431500  1
  H  H260  1  0.238200  0.484700  0.068500  1
  H  H261  1  0.190100  0.006400  0.537500  1
  H  H262  1  0.809900  0.506400  0.962500  1
  H  H263  1  0.809900  0.993600  0.462500  1
  H  H264  1  0.190100  0.493600  0.037500  1
  H  H265  1  0.137300  0.001700  0.503600  1
  H  H266  1  0.862700  0.501700  0.996400  1
  H  H267  1  0.862700  0.998300  0.496400  1
  H  H268  1  0.137300  0.498300  0.003600  1
  H  H269  1  0.105000  0.018700  0.468100  1
  H  H270  1  0.895000  0.518700  0.031900  1
  H  H271  1  0.895000  0.981300  0.531900  1
  H  H272  1  0.105000  0.481300  0.968100  1
  H  H273  1  0.149700  0.101900  0.459800  1
  H  H274  1  0.850300  0.601900  0.040200  1
  H  H275  1  0.850300  0.898100  0.540200  1
  H  H276  1  0.149700  0.398100  0.959800  1
  H  H277  1  0.170800  0.073600  0.447000  1
  H  H278  1  0.829200  0.573600  0.053000  1
  H  H279  1  0.829200  0.926400  0.553000  1
  H  H280  1  0.170800  0.426400  0.947000  1
  H  H281  1  0.846500  0.123700  0.351500  1
  H  H282  1  0.153500  0.623700  0.148500  1
  H  H283  1  0.153500  0.876300  0.648500  1
  H  H284  1  0.846500  0.376300  0.851500  1
  H  H285  1  0.795300  0.085700  0.334000  1
  H  H286  1  0.204700  0.585700  0.166000  1
  H  H287  1  0.204700  0.914300  0.666000  1
  H  H288  1  0.795300  0.414300  0.834000  1
  H  H289  1  0.775200  0.039400  0.350300  1
  H  H290  1  0.224800  0.539400  0.149700  1
  H  H291  1  0.224800  0.960600  0.649700  1
  H  H292  1  0.775200  0.460600  0.850300  1
  H  H293  1  0.806300  0.031100  0.384000  1
  H  H294  1  0.193700  0.531100  0.116000  1
  H  H295  1  0.193700  0.968900  0.616000  1
  H  H296  1  0.806300  0.468900  0.884000  1
  H  H297  1  0.833700  0.029600  0.421700  1
  H  H298  1  0.166300  0.529600  0.078300  1
  H  H299  1  0.166300  0.970400  0.578300  1
  H  H300  1  0.833700  0.470400  0.921700  1
  H  H301  1  0.891200  0.043200  0.453500  1
  H  H302  1  0.108800  0.543200  0.046500  1
  H  H303  1  0.108800  0.956800  0.546500  1
  H  H304  1  0.891200  0.456800  0.953500  1
  H  H305  1  0.953600  0.095100  0.463800  1
  H  H306  1  0.046400  0.595100  0.036200  1
  H  H307  1  0.046400  0.904900  0.536200  1
  H  H308  1  0.953600  0.404900  0.963800  1
  H  H309  1  0.957100  0.120500  0.445900  1
  H  H310  1  0.042900  0.620500  0.054100  1
  H  H311  1  0.042900  0.879500  0.554100  1
  H  H312  1  0.957100  0.379500  0.945900  1
  H  H313  1  0.093900  0.045600  0.420500  1
  H  H314  1  0.906100  0.545600  0.079500  1
  H  H315  1  0.906100  0.954400  0.579500  1
  H  H316  1  0.093900  0.454400  0.920500  1
  H  H317  1  0.995400  0.051300  0.416500  1
  H  H318  1  0.004600  0.551300  0.083500  1
  H  H319  1  0.004600  0.948700  0.583500  1
  H  H320  1  0.995400  0.448700  0.916500  1
  H  H321  1  0.821900  0.126200  0.431800  1
  H  H322  1  0.178100  0.626200  0.068200  1
  H  H323  1  0.178100  0.873800  0.568200  1
  H  H324  1  0.821900  0.373800  0.931800  1
  H  H325  1  0.744400  0.150500  0.439300  1
  H  H326  1  0.255600  0.650500  0.060700  1
  H  H327  1  0.255600  0.849500  0.560700  1
  H  H328  1  0.744400  0.349500  0.939300  1
  H  H329  1  0.709400  0.191000  0.418800  1
  H  H330  1  0.290600  0.691000  0.081200  1
  H  H331  1  0.290600  0.809000  0.581200  1
  H  H332  1  0.709400  0.309000  0.918800  1
  H  H333  1  0.751700  0.207200  0.390700  1
  H  H334  1  0.248300  0.707200  0.109300  1
  H  H335  1  0.248300  0.792800  0.609300  1
  H  H336  1  0.751700  0.292800  0.890700  1
  H  H337  1  0.800400  0.219700  0.359500  1
  H  H338  1  0.199600  0.719700  0.140500  1
  H  H339  1  0.199600  0.780300  0.640500  1
  H  H340  1  0.800400  0.280300  0.859500  1
  H  H341  1  0.874600  0.215200  0.336800  1
  H  H342  1  0.125400  0.715200  0.163200  1
  H  H343  1  0.125400  0.784800  0.663200  1
  H  H344  1  0.874600  0.284800  0.836800  1
  H  H345  1  0.951700  0.178600  0.335100  1
  H  H346  1  0.048300  0.678600  0.164900  1
  H  H347  1  0.048300  0.821400  0.664900  1
  H  H348  1  0.951700  0.321400  0.835100  1
  H  H349  1  0.952600  0.147800  0.348800  1
  H  H350  1  0.047400  0.647800  0.151200  1
  H  H351  1  0.047400  0.852200  0.651200  1
  H  H352  1  0.952600  0.352200  0.848800  1
  H  H353  1  0.221200  0.248200  0.290300  1
  H  H354  1  0.778800  0.748200  0.209700  1
  H  H355  1  0.778800  0.751800  0.709700  1
  H  H356  1  0.221200  0.251800  0.790300  1
  H  H357  1  0.269500  0.294300  0.294300  1
  H  H358  1  0.730500  0.794300  0.205700  1
  H  H359  1  0.730500  0.705700  0.705700  1
  H  H360  1  0.269500  0.205700  0.794300  1
  H  H361  1  0.294600  0.313200  0.326900  1
  H  H362  1  0.705400  0.813200  0.173100  1
  H  H363  1  0.705400  0.686800  0.673100  1
  H  H364  1  0.294600  0.186800  0.826900  1
  H  H365  1  0.271400  0.285900  0.355300  1
  H  H366  1  0.728600  0.785900  0.144700  1
  H  H367  1  0.728600  0.714100  0.644700  1
  H  H368  1  0.271400  0.214100  0.855300  1
  H  H369  1  0.236900  0.256400  0.384300  1
  H  H370  1  0.763100  0.756400  0.115700  1
  H  H371  1  0.763100  0.743600  0.615700  1
  H  H372  1  0.236900  0.243600  0.884300  1
  H  H373  1  0.186800  0.213700  0.400700  1
  H  H374  1  0.813200  0.713700  0.099300  1
  H  H375  1  0.813200  0.786300  0.599300  1
  H  H376  1  0.186800  0.286300  0.900700  1
  H  H377  1  0.141700  0.160200  0.385900  1
  H  H378  1  0.858300  0.660200  0.114100  1
  H  H379  1  0.858300  0.839800  0.614100  1
  H  H380  1  0.141700  0.339800  0.885900  1
  H  H381  1  0.134700  0.156600  0.361600  1
  H  H382  1  0.865300  0.656600  0.138400  1
  H  H383  1  0.865300  0.843400  0.638400  1
  H  H384  1  0.134700  0.343400  0.861600  1
  H  H385  1  0.976800  0.219700  0.381400  1
  H  H386  1  0.023200  0.719700  0.118600  1
  H  H387  1  0.023200  0.780300  0.618600  1
  H  H388  1  0.976800  0.280300  0.881400  1
  H  H389  1  0.073100  0.221400  0.393400  1
  H  H390  1  0.926900  0.721400  0.106600  1
  H  H391  1  0.926900  0.778600  0.606600  1
  H  H392  1  0.073100  0.278600  0.893400  1
  H  H393  1  0.747900  0.302500  0.437700  1
  H  H394  1  0.252100  0.802500  0.062300  1
  H  H395  1  0.252100  0.697500  0.562300  1
  H  H396  1  0.747900  0.197500  0.937700  1
  H  H397  1  0.746100  0.258500  0.458500  1
  H  H398  1  0.253900  0.758500  0.041500  1
  H  H399  1  0.253900  0.741500  0.541500  1
  H  H400  1  0.746100  0.241500  0.958500  1
  H  H401  1  0.824200  0.237200  0.473200  1
  H  H402  1  0.175800  0.737200  0.026800  1
  H  H403  1  0.175800  0.762800  0.526800  1
  H  H404  1  0.824200  0.262800  0.973200  1
  H  H405  1  0.904000  0.260100  0.467100  1
  H  H406  1  0.096000  0.760100  0.032900  1
  H  H407  1  0.096000  0.739900  0.532900  1
  H  H408  1  0.904000  0.239900  0.967100  1
  H  H409  1  0.983200  0.284900  0.459800  1
  H  H410  1  0.016800  0.784900  0.040200  1
  H  H411  1  0.016800  0.715100  0.540200  1
  H  H412  1  0.983200  0.215100  0.959800  1
  H  H413  1  0.039500  0.325500  0.444400  1
  H  H414  1  0.960500  0.825500  0.055600  1
  H  H415  1  0.960500  0.674500  0.555600  1
  H  H416  1  0.039500  0.174500  0.944400  1
  H  H417  1  0.951900  0.383900  0.415300  1
  H  H418  1  0.048100  0.883900  0.084700  1
  H  H419  1  0.048100  0.616100  0.584700  1
  H  H420  1  0.951900  0.116100  0.915300  1
  H  H421  1  0.012700  0.380100  0.422200  1
  H  H422  1  0.987300  0.880100  0.077800  1
  H  H423  1  0.987300  0.619900  0.577800  1
  H  H424  1  0.012700  0.119900  0.922200  1
  H  H425  1  0.230400  0.400200  0.327900  1
  H  H426  1  0.769600  0.900200  0.172100  1
  H  H427  1  0.769600  0.599800  0.672100  1
  H  H428  1  0.230400  0.099800  0.827900  1
  H  H429  1  0.268700  0.376300  0.301100  1
  H  H430  1  0.731300  0.876300  0.198900  1
  H  H431  1  0.731300  0.623700  0.698900  1
  H  H432  1  0.268700  0.123700  0.801100  1
  H  H433  1  0.218500  0.344500  0.278400  1
  H  H434  1  0.781500  0.844500  0.221600  1
  H  H435  1  0.781500  0.655500  0.721600  1
  H  H436  1  0.218500  0.155500  0.778400  1
  H  H437  1  0.130000  0.336600  0.282400  1
  H  H438  1  0.870000  0.836600  0.217600  1
  H  H439  1  0.870000  0.663400  0.717600  1
  H  H440  1  0.130000  0.163400  0.782400  1
  H  H441  1  0.036000  0.329300  0.289300  1
  H  H442  1  0.964000  0.829300  0.210700  1
  H  H443  1  0.964000  0.670700  0.710700  1
  H  H444  1  0.036000  0.170700  0.789300  1
  H  H445  1  0.956100  0.337700  0.308600  1
  H  H446  1  0.043900  0.837700  0.191400  1
  H  H447  1  0.043900  0.662300  0.691400  1
  H  H448  1  0.956100  0.162300  0.808600  1
  H  H449  1  0.935200  0.370900  0.340200  1
  H  H450  1  0.064800  0.870900  0.159800  1
  H  H451  1  0.064800  0.629100  0.659800  1
  H  H452  1  0.935200  0.129100  0.840200  1
  H  H453  1  0.975200  0.398500  0.346400  1
  H  H454  1  0.024800  0.898500  0.153600  1
  H  H455  1  0.024800  0.601500  0.653600  1
  H  H456  1  0.975200  0.101500  0.846400  1
  H  H457  1  0.026300  0.312600  0.398900  1
  H  H458  1  0.973700  0.812600  0.101100  1
  H  H459  1  0.973700  0.687400  0.601100  1
  H  H460  1  0.026300  0.187400  0.898900  1
  H  H461  1  0.024300  0.316500  0.360700  1
  H  H462  1  0.975700  0.816500  0.139300  1
  H  H463  1  0.975700  0.683500  0.639300  1
  H  H464  1  0.024300  0.183500  0.860700  1
  H  H465  1  0.001500  0.229200  0.551400  1
  H  H466  1  0.998500  0.729200  0.948600  1
  H  H467  1  0.998500  0.770800  0.448600  1
  H  H468  1  0.001500  0.270800  0.051400  1
  H  H469  1  0.011400  0.177300  0.561800  1
  H  H470  1  0.988600  0.677300  0.938200  1
  H  H471  1  0.988600  0.822700  0.438200  1
  H  H472  1  0.011400  0.322700  0.061800  1
  H  H473  1  0.093000  0.159200  0.575300  1
  H  H474  1  0.907000  0.659200  0.924700  1
  H  H475  1  0.907000  0.840800  0.424700  1
  H  H476  1  0.093000  0.340800  0.075300  1
  H  H477  1  0.164600  0.193000  0.578300  1
  H  H478  1  0.835400  0.693000  0.921700  1
  H  H479  1  0.835400  0.807000  0.421700  1
  H  H480  1  0.164600  0.307000  0.078300  1
  H  H481  1  0.238600  0.231300  0.579700  1
  H  H482  1  0.761400  0.731300  0.920300  1
  H  H483  1  0.761400  0.768700  0.420300  1
  H  H484  1  0.238600  0.268700  0.079700  1
  H  H485  1  0.280000  0.283000  0.571700  1
  H  H486  1  0.720000  0.783000  0.928300  1
  H  H487  1  0.720000  0.717000  0.428300  1
  H  H488  1  0.280000  0.217000  0.071700  1
  H  H489  1  0.235800  0.338000  0.560600  1
  H  H490  1  0.764200  0.838000  0.939400  1
  H  H491  1  0.764200  0.662000  0.439400  1
  H  H492  1  0.235800  0.162000  0.060600  1
  H  H493  1  0.175700  0.337400  0.552300  1
  H  H494  1  0.824300  0.837400  0.947700  1
  H  H495  1  0.824300  0.662600  0.447700  1
  H  H496  1  0.175700  0.162600  0.052300  1
  H  H497  1  0.393000  0.453800  0.476300  1
  H  H498  1  0.607000  0.953800  0.023700  1
  H  H499  1  0.607000  0.546200  0.523700  1
  H  H500  1  0.393000  0.046200  0.976300  1
  H  H501  1  0.444800  0.452600  0.449000  1
  H  H502  1  0.555200  0.952600  0.051000  1
  H  H503  1  0.555200  0.547400  0.551000  1
  H  H504  1  0.444800  0.047400  0.949000  1
  H  H505  1  0.421100  0.420700  0.421000  1
  H  H506  1  0.578900  0.920700  0.079000  1
  H  H507  1  0.578900  0.579300  0.579000  1
  H  H508  1  0.421100  0.079300  0.921000  1
  H  H509  1  0.345700  0.390100  0.420400  1
  H  H510  1  0.654300  0.890100  0.079600  1
  H  H511  1  0.654300  0.609900  0.579600  1
  H  H512  1  0.345700  0.109900  0.920400  1
  H  H513  1  0.262200  0.358700  0.424000  1
  H  H514  1  0.737800  0.858700  0.076000  1
  H  H515  1  0.737800  0.641300  0.576000  1
  H  H516  1  0.262200  0.141300  0.924000  1
  H  H517  1  0.186300  0.337700  0.441900  1
  H  H518  1  0.813700  0.837700  0.058100  1
  H  H519  1  0.813700  0.662300  0.558100  1
  H  H520  1  0.186300  0.162300  0.941900  1
  H  H521  1  0.149700  0.350100  0.476700  1
  H  H522  1  0.850300  0.850100  0.023300  1
  H  H523  1  0.850300  0.649900  0.523300  1
  H  H524  1  0.149700  0.149900  0.976700  1
  H  H525  1  0.170200  0.381700  0.487600  1
  H  H526  1  0.829800  0.881700  0.012400  1
  H  H527  1  0.829800  0.618300  0.512400  1
  H  H528  1  0.170200  0.118300  0.987600  1
  H  H529  1  0.291800  0.301900  0.525000  1
  H  H530  1  0.708200  0.801900  0.975000  1
  H  H531  1  0.708200  0.698100  0.475000  1
  H  H532  1  0.291800  0.198100  0.025000  1
  H  H533  1  0.275100  0.319600  0.488500  1
  H  H534  1  0.724900  0.819600  0.011500  1
  H  H535  1  0.724900  0.680400  0.511500  1
  H  H536  1  0.275100  0.180400  0.988500  1
  H  H537  1  0.140700  0.101700  0.537400  1
  H  H538  1  0.859300  0.601700  0.962600  1
  H  H539  1  0.859300  0.898300  0.462600  1
  H  H540  1  0.140700  0.398300  0.037400  1
  H  H541  1  0.053100  0.114800  0.539800  1
  H  H542  1  0.946900  0.614800  0.960200  1
  H  H543  1  0.946900  0.885200  0.460200  1
  H  H544  1  0.053100  0.385200  0.039800  1
  H  H545  1  0.010400  0.148100  0.515800  1
  H  H546  1  0.989600  0.648100  0.984200  1
  H  H547  1  0.989600  0.851900  0.484200  1
  H  H548  1  0.010400  0.351900  0.015800  1
  H  H549  1  0.055200  0.168300  0.489400  1
  H  H550  1  0.944800  0.668300  0.010600  1
  H  H551  1  0.944800  0.831700  0.510600  1
  H  H552  1  0.055200  0.331700  0.989400  1
  H  H553  1  0.118700  0.197200  0.467000  1
  H  H554  1  0.881300  0.697200  0.033000  1
  H  H555  1  0.881300  0.802800  0.533000  1
  H  H556  1  0.118700  0.302800  0.967000  1
  H  H557  1  0.198600  0.199800  0.447100  1
  H  H558  1  0.801400  0.699800  0.052900  1
  H  H559  1  0.801400  0.800200  0.552900  1
  H  H560  1  0.198600  0.300200  0.947100  1
  H  H561  1  0.275000  0.158600  0.443200  1
  H  H562  1  0.725000  0.658600  0.056800  1
  H  H563  1  0.725000  0.841400  0.556800  1
  H  H564  1  0.275000  0.341400  0.943200  1
  H  H565  1  0.281800  0.131000  0.459600  1
  H  H566  1  0.718200  0.631000  0.040400  1
  H  H567  1  0.718200  0.869000  0.540400  1
  H  H568  1  0.281800  0.369000  0.959600  1
  H  H569  1  0.457900  0.318700  0.415600  1
  H  H570  1  0.542100  0.818700  0.084400  1
  H  H571  1  0.542100  0.681300  0.584400  1
  H  H572  1  0.457900  0.181300  0.915600  1
  H  H573  1  0.484300  0.366900  0.429300  1
  H  H574  1  0.515700  0.866900  0.070700  1
  H  H575  1  0.515700  0.633100  0.570700  1
  H  H576  1  0.484300  0.133100  0.929300  1
  H  H577  1  0.511400  0.371000  0.463800  1
  H  H578  1  0.488600  0.871000  0.036200  1
  H  H579  1  0.488600  0.629000  0.536200  1
  H  H580  1  0.511400  0.129000  0.963800  1
  H  H581  1  0.512100  0.326900  0.484600  1
  H  H582  1  0.487900  0.826900  0.015400  1
  H  H583  1  0.487900  0.673100  0.515400  1
  H  H584  1  0.512100  0.173100  0.984600  1
  H  H585  1  0.521200  0.276800  0.503500  1
  H  H586  1  0.478800  0.776800  0.996500  1
  H  H587  1  0.478800  0.723200  0.496500  1
  H  H588  1  0.521200  0.223200  0.003500  1
  H  H589  1  0.509100  0.218800  0.508600  1
  H  H590  1  0.490900  0.718800  0.991400  1
  H  H591  1  0.490900  0.781200  0.491400  1
  H  H592  1  0.509100  0.281200  0.008600  1
  H  H593  1  0.471800  0.171500  0.483500  1
  H  H594  1  0.528200  0.671500  0.016500  1
  H  H595  1  0.528200  0.828500  0.516500  1
  H  H596  1  0.471800  0.328500  0.983500  1
  H  H597  1  0.458000  0.180600  0.460100  1
  H  H598  1  0.542000  0.680600  0.039900  1
  H  H599  1  0.542000  0.819400  0.539900  1
  H  H600  1  0.458000  0.319400  0.960100  1
  H  H601  1  0.283300  0.202300  0.491400  1
  H  H602  1  0.716700  0.702300  0.008600  1
  H  H603  1  0.716700  0.797700  0.508600  1
  H  H604  1  0.283300  0.297700  0.991400  1
  H  H605  1  0.375800  0.221400  0.500000  1
  H  H606  1  0.624200  0.721400  0.000000  1
  H  H607  1  0.624200  0.778600  0.500000  1
  H  H608  1  0.375800  0.278600  0.000000  1
  H  H609  1  0.198800  0.122700  0.328800  1
  H  H610  1  0.801200  0.622700  0.171200  1
  H  H611  1  0.801200  0.877300  0.671200  1
  H  H612  1  0.198800  0.377300  0.828800  1
  H  H613  1  0.148300  0.077300  0.327800  1
  H  H614  1  0.851700  0.577300  0.172200  1
  H  H615  1  0.851700  0.922700  0.672200  1
  H  H616  1  0.148300  0.422700  0.827800  1
  H  H617  1  0.058400  0.080000  0.318900  1
  H  H618  1  0.941600  0.580000  0.181100  1
  H  H619  1  0.941600  0.920000  0.681100  1
  H  H620  1  0.058400  0.420000  0.818900  1
  H  H621  1  0.019000  0.128100  0.311000  1
  H  H622  1  0.981000  0.628100  0.189000  1
  H  H623  1  0.981000  0.871900  0.689000  1
  H  H624  1  0.019000  0.371900  0.811000  1
  H  H625  1  0.983200  0.182200  0.303000  1
  H  H626  1  0.016800  0.682200  0.197000  1
  H  H627  1  0.016800  0.817800  0.697000  1
  H  H628  1  0.983200  0.317800  0.803000  1
  H  H629  1  0.990000  0.241000  0.299700  1
  H  H630  1  0.010000  0.741000  0.200300  1
  H  H631  1  0.010000  0.759000  0.700300  1
  H  H632  1  0.990000  0.259000  0.799700  1
  H  H633  1  0.061500  0.279800  0.304500  1
  H  H634  1  0.938500  0.779800  0.195500  1
  H  H635  1  0.938500  0.720200  0.695500  1
  H  H636  1  0.061500  0.220200  0.804500  1
  H  H637  1  0.119500  0.267400  0.302400  1
  H  H638  1  0.880500  0.767400  0.197600  1
  H  H639  1  0.880500  0.732600  0.697600  1
  H  H640  1  0.119500  0.232600  0.802400  1
  H  H641  1  0.019200  0.457400  0.350100  1
  H  H642  1  0.980800  0.957400  0.149900  1
  H  H643  1  0.980800  0.542600  0.649900  1
  H  H644  1  0.019200  0.042600  0.850100  1
  H  H645  1  0.985300  0.480700  0.378100  1
  H  H646  1  0.014700  0.980700  0.121900  1
  H  H647  1  0.014700  0.519300  0.621900  1
  H  H648  1  0.985300  0.019300  0.878100  1
  H  H649  1  0.011200  0.463000  0.410900  1
  H  H650  1  0.988800  0.963000  0.089100  1
  H  H651  1  0.988800  0.537000  0.589100  1
  H  H652  1  0.011200  0.037000  0.910900  1
  H  H653  1  0.070900  0.422000  0.415600  1
  H  H654  1  0.929100  0.922000  0.084400  1
  H  H655  1  0.929100  0.578000  0.584400  1
  H  H656  1  0.070900  0.078000  0.915600  1
  H  H657  1  0.123000  0.374000  0.417500  1
  H  H658  1  0.877000  0.874000  0.082500  1
  H  H659  1  0.877000  0.626000  0.582500  1
  H  H660  1  0.123000  0.126000  0.917500  1
  H  H661  1  0.179200  0.331300  0.404300  1
  H  H662  1  0.820800  0.831300  0.095700  1
  H  H663  1  0.820800  0.668700  0.595700  1
  H  H664  1  0.179200  0.168700  0.904300  1
  H  H665  1  0.216700  0.322700  0.366600  1
  H  H666  1  0.783300  0.822700  0.133400  1
  H  H667  1  0.783300  0.677300  0.633400  1
  H  H668  1  0.216700  0.177300  0.866600  1
  H  H669  1  0.190000  0.344000  0.348600  1
  H  H670  1  0.810000  0.844000  0.151400  1
  H  H671  1  0.810000  0.656000  0.651400  1
  H  H672  1  0.190000  0.156000  0.848600  1
  H  H673  1  0.066600  0.248000  0.353000  1
  H  H674  1  0.933400  0.748000  0.147000  1
  H  H675  1  0.933400  0.752000  0.647000  1
  H  H676  1  0.066600  0.252000  0.853000  1
  H  H677  1  0.112000  0.283500  0.379600  1
  H  H678  1  0.888000  0.783500  0.120400  1
  H  H679  1  0.888000  0.716500  0.620400  1
  H  H680  1  0.112000  0.216500  0.879600  1
  H  H681  1  0.019000  0.423800  0.307600  1
  H  H682  1  0.981000  0.923800  0.192400  1
  H  H683  1  0.981000  0.576200  0.692400  1
  H  H684  1  0.019000  0.076200  0.807600  1
  H  H685  1  0.008100  0.460900  0.281700  1
  H  H686  1  0.991900  0.960900  0.218300  1
  H  H687  1  0.991900  0.539100  0.718300  1
  H  H688  1  0.008100  0.039100  0.781700  1
  H  H689  1  0.069300  0.500800  0.279700  1
  H  H690  1  0.930700  0.000800  0.220300  1
  H  H691  1  0.930700  0.499200  0.720300  1
  H  H692  1  0.069300  0.999200  0.779700  1
  H  H693  1  0.141400  0.503800  0.303700  1
  H  H694  1  0.858600  0.003800  0.196300  1
  H  H695  1  0.858600  0.496200  0.696300  1
  H  H696  1  0.141400  0.996200  0.803700  1
  H  H697  1  0.209200  0.507500  0.332300  1
  H  H698  1  0.790800  0.007500  0.167700  1
  H  H699  1  0.790800  0.492500  0.667700  1
  H  H700  1  0.209200  0.992500  0.832300  1
  H  H701  1  0.266400  0.486200  0.362200  1
  H  H702  1  0.733600  0.986200  0.137800  1
  H  H703  1  0.733600  0.513800  0.637800  1
  H  H704  1  0.266400  0.013800  0.862200  1
  H  H705  1  0.213100  0.408400  0.377400  1
  H  H706  1  0.786900  0.908400  0.122600  1
  H  H707  1  0.786900  0.591600  0.622600  1
  H  H708  1  0.213100  0.091600  0.877400  1
  H  H709  1  0.270600  0.417900  0.372400  1
  H  H710  1  0.729400  0.917900  0.127600  1
  H  H711  1  0.729400  0.582100  0.627600  1
  H  H712  1  0.270600  0.082100  0.872400  1
  H  H713  1  0.381400  0.441500  0.522700  1
  H  H714  1  0.618600  0.941500  0.977300  1
  H  H715  1  0.618600  0.558500  0.477300  1
  H  H716  1  0.381400  0.058500  0.022700  1
  H  H717  1  0.405600  0.485600  0.542000  1
  H  H718  1  0.594400  0.985600  0.958000  1
  H  H719  1  0.594400  0.514400  0.458000  1
  H  H720  1  0.405600  0.014400  0.042000  1
  H  H721  1  0.361300  0.532700  0.535800  1
  H  H722  1  0.638700  0.032700  0.964200  1
  H  H723  1  0.638700  0.467300  0.464200  1
  H  H724  1  0.361300  0.967300  0.035800  1
  H  H725  1  0.292900  0.535700  0.510200  1
  H  H726  1  0.707100  0.035700  0.989800  1
  H  H727  1  0.707100  0.464300  0.489800  1
  H  H728  1  0.292900  0.964300  0.010200  1
  H  H729  1  0.226300  0.536900  0.481400  1
  H  H730  1  0.773700  0.036900  0.018600  1
  H  H731  1  0.773700  0.463100  0.518600  1
  H  H732  1  0.226300  0.963100  0.981400  1
  H  H733  1  0.165300  0.513400  0.453400  1
  H  H734  1  0.834700  0.013400  0.046600  1
  H  H735  1  0.834700  0.486600  0.546600  1
  H  H736  1  0.165300  0.986600  0.953400  1
  H  H737  1  0.185000  0.427200  0.447700  1
  H  H738  1  0.815000  0.927200  0.052300  1
  H  H739  1  0.815000  0.572800  0.552300  1
  H  H740  1  0.185000  0.072800  0.947700  1
  H  H741  1  0.150400  0.454900  0.437200  1
  H  H742  1  0.849600  0.954900  0.062800  1
  H  H743  1  0.849600  0.545100  0.562800  1
  H  H744  1  0.150400  0.045100  0.937200  1
  H  H745  1  0.318700  0.463600  0.399800  1
  H  H746  1  0.681300  0.963600  0.100200  1
  H  H747  1  0.681300  0.536400  0.600200  1
  H  H748  1  0.318700  0.036400  0.899800  1
  H  H749  1  0.293900  0.478200  0.434800  1
  H  H750  1  0.706100  0.978200  0.065200  1
  H  H751  1  0.706100  0.521800  0.565200  1
  H  H752  1  0.293900  0.021800  0.934800  1
  H  H753  1  0.171400  0.445400  0.501200  1
  H  H754  1  0.828600  0.945400  0.998800  1
  H  H755  1  0.828600  0.554600  0.498800  1
  H  H756  1  0.171400  0.054600  0.001200  1
  H  H757  1  0.128500  0.447600  0.530900  1
  H  H758  1  0.871500  0.947600  0.969100  1
  H  H759  1  0.871500  0.552400  0.469100  1
  H  H760  1  0.128500  0.052400  0.030900  1
  H  H761  1  0.166200  0.424500  0.560600  1
  H  H762  1  0.833800  0.924500  0.939400  1
  H  H763  1  0.833800  0.575500  0.439400  1
  H  H764  1  0.166200  0.075500  0.060600  1
  H  H765  1  0.246900  0.399300  0.560600  1
  H  H766  1  0.753100  0.899300  0.939400  1
  H  H767  1  0.753100  0.600700  0.439400  1
  H  H768  1  0.246900  0.100700  0.060600  1
  H  H769  1  0.332000  0.374600  0.557500  1
  H  H770  1  0.668000  0.874600  0.942500  1
  H  H771  1  0.668000  0.625400  0.442500  1
  H  H772  1  0.332000  0.125400  0.057500  1
  H  H773  1  0.407900  0.353100  0.539800  1
  H  H774  1  0.592100  0.853100  0.960200  1
  H  H775  1  0.592100  0.646900  0.460200  1
  H  H776  1  0.407900  0.146900  0.039800  1
  H  H777  1  0.390700  0.379200  0.484200  1
  H  H778  1  0.609300  0.879200  0.015800  1
  H  H779  1  0.609300  0.620800  0.515800  1
  H  H780  1  0.390700  0.120800  0.984200  1
  H  H781  1  0.436200  0.363300  0.498600  1
  H  H782  1  0.563800  0.863300  0.001400  1
  H  H783  1  0.563800  0.636700  0.501400  1
  H  H784  1  0.436200  0.136700  0.998600  1
  H  H785  1  0.511400  0.183800  0.420700  1
  H  H786  1  0.488600  0.683800  0.079300  1
  H  H787  1  0.488600  0.816200  0.579300  1
  H  H788  1  0.511400  0.316200  0.920700  1
  H  H789  1  0.483200  0.133400  0.411900  1
  H  H790  1  0.516800  0.633400  0.088100  1
  H  H791  1  0.516800  0.866600  0.588100  1
  H  H792  1  0.483200  0.366600  0.911900  1
  H  H793  1  0.394000  0.121900  0.408500  1
  H  H794  1  0.606000  0.621900  0.091500  1
  H  H795  1  0.606000  0.878100  0.591500  1
  H  H796  1  0.394000  0.378100  0.908500  1
  H  H797  1  0.332900  0.160800  0.413800  1
  H  H798  1  0.667100  0.660800  0.086200  1
  H  H799  1  0.667100  0.839200  0.586200  1
  H  H800  1  0.332900  0.339200  0.913800  1
  H  H801  1  0.274500  0.203400  0.420400  1
  H  H802  1  0.725500  0.703400  0.079600  1
  H  H803  1  0.725500  0.796600  0.579600  1
  H  H804  1  0.274500  0.296600  0.920400  1
  H  H805  1  0.249400  0.257800  0.431100  1
  H  H806  1  0.750600  0.757800  0.068900  1
  H  H807  1  0.750600  0.742200  0.568900  1
  H  H808  1  0.249400  0.242200  0.931100  1
  H  H809  1  0.302500  0.310600  0.436300  1
  H  H810  1  0.697500  0.810600  0.063700  1
  H  H811  1  0.697500  0.689400  0.563700  1
  H  H812  1  0.302500  0.189400  0.936300  1
  H  H813  1  0.362000  0.309500  0.430800  1
  H  H814  1  0.638000  0.809500  0.069200  1
  H  H815  1  0.638000  0.690500  0.569200  1
  H  H816  1  0.362000  0.190500  0.930800  1
  H  H817  1  0.388500  0.296400  0.508600  1
  H  H818  1  0.611500  0.796400  0.991400  1
  H  H819  1  0.611500  0.703600  0.491400  1
  H  H820  1  0.388500  0.203600  0.008600  1
  H  H821  1  0.357900  0.261800  0.478900  1
  H  H822  1  0.642100  0.761800  0.021100  1
  H  H823  1  0.642100  0.738200  0.521100  1
  H  H824  1  0.357900  0.238200  0.978900  1
  H  H825  1  0.126900  0.213800  0.274000  1
  H  H826  1  0.873100  0.713800  0.226000  1
  H  H827  1  0.873100  0.786200  0.726000  1
  H  H828  1  0.126900  0.286200  0.774000  1
  H  H829  1  0.141700  0.200600  0.240700  1
  H  H830  1  0.858300  0.700600  0.259300  1
  H  H831  1  0.858300  0.799400  0.759300  1
  H  H832  1  0.141700  0.299400  0.740700  1
  H  H833  1  0.212200  0.168600  0.234500  1
  H  H834  1  0.787800  0.668600  0.265500  1
  H  H835  1  0.787800  0.831400  0.765500  1
  H  H836  1  0.212200  0.331400  0.734500  1
  H  H837  1  0.267800  0.149700  0.261500  1
  H  H838  1  0.732200  0.649700  0.238500  1
  H  H839  1  0.732200  0.850300  0.738500  1
  H  H840  1  0.267800  0.350300  0.761500  1
  H  H841  1  0.315800  0.126100  0.291700  1
  H  H842  1  0.684200  0.626100  0.208300  1
  H  H843  1  0.684200  0.873900  0.708300  1
  H  H844  1  0.315800  0.373900  0.791700  1
  H  H845  1  0.346000  0.122300  0.329000  1
  H  H846  1  0.654000  0.622300  0.171000  1
  H  H847  1  0.654000  0.877700  0.671000  1
  H  H848  1  0.346000  0.377700  0.829000  1
  H  H849  1  0.263700  0.176200  0.358400  1
  H  H850  1  0.736300  0.676200  0.141600  1
  H  H851  1  0.736300  0.823800  0.641600  1
  H  H852  1  0.263700  0.323800  0.858400  1
  H  H853  1  0.295300  0.144500  0.362900  1
  H  H854  1  0.704700  0.644500  0.137100  1
  H  H855  1  0.704700  0.855500  0.637100  1
  H  H856  1  0.295300  0.355500  0.862900  1
  H  H857  1  0.564200  0.230300  0.456100  1
  H  H858  1  0.435800  0.730300  0.043900  1
  H  H859  1  0.435800  0.769700  0.543900  1
  H  H860  1  0.564200  0.269700  0.956100  1
  H  H861  1  0.653200  0.238900  0.453500  1
  H  H862  1  0.346800  0.738900  0.046500  1
  H  H863  1  0.346800  0.761100  0.546500  1
  H  H864  1  0.653200  0.261100  0.953500  1
  H  H865  1  0.681500  0.260600  0.424000  1
  H  H866  1  0.318500  0.760600  0.076000  1
  H  H867  1  0.318500  0.739400  0.576000  1
  H  H868  1  0.681500  0.239400  0.924000  1
  H  H869  1  0.620800  0.273700  0.397000  1
  H  H870  1  0.379200  0.773700  0.103000  1
  H  H871  1  0.379200  0.726300  0.603000  1
  H  H872  1  0.620800  0.226300  0.897000  1
  H  H873  1  0.552200  0.282200  0.369300  1
  H  H874  1  0.447800  0.782200  0.130700  1
  H  H875  1  0.447800  0.717800  0.630700  1
  H  H876  1  0.552200  0.217800  0.869300  1
  H  H877  1  0.459400  0.287000  0.353300  1
  H  H878  1  0.540600  0.787000  0.146700  1
  H  H879  1  0.540600  0.713000  0.646700  1
  H  H880  1  0.459400  0.213000  0.853300  1
  H  H881  1  0.361200  0.273700  0.367100  1
  H  H882  1  0.638800  0.773700  0.132900  1
  H  H883  1  0.638800  0.726300  0.632900  1
  H  H884  1  0.361200  0.226300  0.867100  1
  H  H885  1  0.362300  0.262300  0.390400  1
  H  H886  1  0.637700  0.762300  0.109600  1
  H  H887  1  0.637700  0.737700  0.609600  1
  H  H888  1  0.362300  0.237700  0.890400  1
  H  H889  1  0.410600  0.156100  0.361100  1
  H  H890  1  0.589400  0.656100  0.138900  1
  H  H891  1  0.589400  0.843900  0.638900  1
  H  H892  1  0.410600  0.343900  0.861100  1
  H  H893  1  0.457200  0.206500  0.371500  1
  H  H894  1  0.542800  0.706500  0.128500  1
  H  H895  1  0.542800  0.793500  0.628500  1
  H  H896  1  0.457200  0.293500  0.871500  1
  H  H897  1  0.166500  0.349600  0.134000  1
  H  H898  1  0.833500  0.849600  0.366000  1
  H  H899  1  0.833500  0.650400  0.866000  1
  H  H900  1  0.166500  0.150400  0.634000  1
  H  H901  1  0.104200  0.351700  0.133100  1
  H  H902  1  0.895800  0.851700  0.366900  1
  H  H903  1  0.895800  0.648300  0.866900  1
  H  H904  1  0.104200  0.148300  0.633100  1
  H  H905  1  0.131700  0.335400  0.115100  1
  H  H906  1  0.868300  0.835400  0.384900  1
  H  H907  1  0.868300  0.664600  0.884900  1
  H  H908  1  0.131700  0.164600  0.615100  1
  H  H909  1  0.207100  0.660900  0.490600  1
  H  H910  1  0.792900  0.160900  0.009400  1
  H  H911  1  0.792900  0.339100  0.509400  1
  H  H912  1  0.207100  0.839100  0.990600  1
  H  H913  1  0.171600  0.679600  0.505200  1
  H  H914  1  0.828400  0.179600  0.994800  1
  H  H915  1  0.828400  0.320400  0.494800  1
  H  H916  1  0.171600  0.820400  0.005200  1
  H  H917  1  0.231300  0.672100  0.512500  1
  H  H918  1  0.768700  0.172100  0.987500  1
  H  H919  1  0.768700  0.327900  0.487500  1
  H  H920  1  0.231300  0.827900  0.012500  1
  H  H921  1  0.827400  0.144500  0.507100  1
  H  H922  1  0.172600  0.644500  0.992900  1
  H  H923  1  0.172600  0.855500  0.492900  1
  H  H924  1  0.827400  0.355500  0.007100  1
  H  H925  1  0.889300  0.149100  0.508200  1
  H  H926  1  0.110700  0.649100  0.991800  1
  H  H927  1  0.110700  0.850900  0.491800  1
  H  H928  1  0.889300  0.350900  0.008200  1
  H  H929  1  0.864000  0.116400  0.501100  1
  H  H930  1  0.136000  0.616400  0.998900  1
  H  H931  1  0.136000  0.883600  0.498900  1
  H  H932  1  0.864000  0.383600  0.001100  1
  H  H933  1  0.029400  0.823200  0.369800  1
  H  H934  1  0.970600  0.323200  0.130200  1
  H  H935  1  0.970600  0.176800  0.630200  1
  H  H936  1  0.029400  0.676800  0.869800  1
  H  H937  1  0.043700  0.835200  0.392500  1
  H  H938  1  0.956300  0.335200  0.107500  1
  H  H939  1  0.956300  0.164800  0.607500  1
  H  H940  1  0.043700  0.664800  0.892500  1
  H  H941  1  0.985400  0.838700  0.382200  1
  H  H942  1  0.014600  0.338700  0.117800  1
  H  H943  1  0.014600  0.161300  0.617800  1
  H  H944  1  0.985400  0.661300  0.882200  1
  H  H945  1  0.351000  0.582800  0.457600  1
  H  H946  1  0.649000  0.082800  0.042400  1
  H  H947  1  0.649000  0.417200  0.542400  1
  H  H948  1  0.351000  0.917200  0.957600  1
  H  H949  1  0.404200  0.565500  0.465200  1
  H  H950  1  0.595800  0.065500  0.034800  1
  H  H951  1  0.595800  0.434500  0.534800  1
  H  H952  1  0.404200  0.934500  0.965200  1
  H  H953  1  0.352700  0.559800  0.476600  1
  H  H954  1  0.647300  0.059800  0.023400  1
  H  H955  1  0.647300  0.440200  0.523400  1
  H  H956  1  0.352700  0.940200  0.976600  1
  H  H957  1  0.196100  0.723000  0.260900  1
  H  H958  1  0.803900  0.223000  0.239100  1
  H  H959  1  0.803900  0.277000  0.739100  1
  H  H960  1  0.196100  0.777000  0.760900  1
  C  C961  1  0.981200  0.094000  0.371690  1
  C  C962  1  0.018800  0.594000  0.128310  1
  C  C963  1  0.018800  0.906000  0.628310  1
  C  C964  1  0.981200  0.406000  0.871690  1
  C  C965  1  0.030400  0.083080  0.368090  1
  C  C966  1  0.969600  0.583080  0.131910  1
  C  C967  1  0.969600  0.916920  0.631910  1
  C  C968  1  0.030400  0.416920  0.868090  1
  C  C969  1  0.074200  0.094000  0.379710  1
  C  C970  1  0.925800  0.594000  0.120290  1
  C  C971  1  0.925800  0.906000  0.620290  1
  C  C972  1  0.074200  0.406000  0.879710  1
  C  C973  1  0.068800  0.115700  0.394920  1
  C  C974  1  0.931200  0.615700  0.105080  1
  C  C975  1  0.931200  0.884300  0.605080  1
  C  C976  1  0.068800  0.384300  0.894920  1
  C  C977  1  0.019500  0.126590  0.398510  1
  C  C978  1  0.980500  0.626590  0.101490  1
  C  C979  1  0.980500  0.873410  0.601490  1
  C  C980  1  0.019500  0.373410  0.898510  1
  C  C981  1  0.010100  0.148100  0.413530  1
  C  C982  1  0.989900  0.648100  0.086470  1
  C  C983  1  0.989900  0.851900  0.586470  1
  C  C984  1  0.010100  0.351900  0.913530  1
  C  C985  1  0.043400  0.162200  0.429110  1
  C  C986  1  0.956600  0.662200  0.070890  1
  C  C987  1  0.956600  0.837800  0.570890  1
  C  C988  1  0.043400  0.337800  0.929110  1
  C  C989  1  0.012400  0.181800  0.440520  1
  C  C990  1  0.987600  0.681800  0.059480  1
  C  C991  1  0.987600  0.818200  0.559480  1
  C  C992  1  0.012400  0.318200  0.940520  1
  C  C993  1  0.917400  0.198800  0.436000  1
  C  C994  1  0.082600  0.698800  0.064000  1
  C  C995  1  0.082600  0.801200  0.564000  1
  C  C996  1  0.917400  0.301200  0.936000  1
  C  C997  1  0.860800  0.420100  0.413570  1
  C  C998  1  0.139200  0.920100  0.086430  1
  C  C999  1  0.139200  0.579900  0.586430  1
  C  C1000  1  0.860800  0.079900  0.913570  1
  C  C1001  1  0.866100  0.445050  0.400550  1
  C  C1002  1  0.133900  0.945050  0.099450  1
  C  C1003  1  0.133900  0.554950  0.599450  1
  C  C1004  1  0.866100  0.054950  0.900550  1
  C  C1005  1  0.865400  0.440010  0.379810  1
  C  C1006  1  0.134600  0.940010  0.120190  1
  C  C1007  1  0.134600  0.559990  0.620190  1
  C  C1008  1  0.865400  0.059990  0.879810  1
  C  C1009  1  0.859500  0.410000  0.372090  1
  C  C1010  1  0.140500  0.910000  0.127910  1
  C  C1011  1  0.140500  0.590000  0.627910  1
  C  C1012  1  0.859500  0.090000  0.872090  1
  C  C1013  1  0.854300  0.385010  0.385110  1
  C  C1014  1  0.145700  0.885010  0.114890  1
  C  C1015  1  0.145700  0.614990  0.614890  1
  C  C1016  1  0.854300  0.114990  0.885110  1
  C  C1017  1  0.849000  0.354870  0.378250  1
  C  C1018  1  0.151000  0.854870  0.121750  1
  C  C1019  1  0.151000  0.645130  0.621750  1
  C  C1020  1  0.849000  0.145130  0.878250  1
  C  C1021  1  0.852800  0.339100  0.359610  1
  C  C1022  1  0.147200  0.839100  0.140390  1
  C  C1023  1  0.147200  0.660900  0.640390  1
  C  C1024  1  0.852800  0.160900  0.859610  1
  C  C1025  1  0.844900  0.306800  0.362950  1
  C  C1026  1  0.155100  0.806800  0.137050  1
  C  C1027  1  0.155100  0.693200  0.637050  1
  C  C1028  1  0.844900  0.193200  0.862950  1
  C  C1029  1  0.828200  0.274600  0.392700  1
  C  C1030  1  0.171800  0.774600  0.107300  1
  C  C1031  1  0.171800  0.725400  0.607300  1
  C  C1032  1  0.828200  0.225400  0.892700  1
  C  C1033  1  0.917800  0.225760  0.423820  1
  C  C1034  1  0.082200  0.725760  0.076180  1
  C  C1035  1  0.082200  0.774240  0.576180  1
  C  C1036  1  0.917800  0.274240  0.923820  1
  C  C1037  1  0.955300  0.246300  0.416560  1
  C  C1038  1  0.044700  0.746300  0.083440  1
  C  C1039  1  0.044700  0.753700  0.583440  1
  C  C1040  1  0.955300  0.253700  0.916560  1
  C  C1041  1  0.928400  0.268060  0.403320  1
  C  C1042  1  0.071600  0.768060  0.096680  1
  C  C1043  1  0.071600  0.731940  0.596680  1
  C  C1044  1  0.928400  0.231940  0.903320  1
  C  C1045  1  0.874300  0.260970  0.402400  1
  C  C1046  1  0.125700  0.760970  0.097600  1
  C  C1047  1  0.125700  0.739030  0.597600  1
  C  C1048  1  0.874300  0.239030  0.902400  1
  C  C1049  1  0.724200  0.349390  0.403640  1
  C  C1050  1  0.275800  0.849390  0.096360  1
  C  C1051  1  0.275800  0.650610  0.596360  1
  C  C1052  1  0.724200  0.150610  0.903640  1
  C  C1053  1  0.671000  0.355700  0.402600  1
  C  C1054  1  0.329000  0.855700  0.097400  1
  C  C1055  1  0.329000  0.644300  0.597400  1
  C  C1056  1  0.671000  0.144300  0.902600  1
  C  C1057  1  0.650200  0.371900  0.418200  1
  C  C1058  1  0.349800  0.871900  0.081800  1
  C  C1059  1  0.349800  0.628100  0.581800  1
  C  C1060  1  0.650200  0.128100  0.918200  1
  C  C1061  1  0.682600  0.381700  0.434850  1
  C  C1062  1  0.317400  0.881700  0.065150  1
  C  C1063  1  0.317400  0.618300  0.565150  1
  C  C1064  1  0.682600  0.118300  0.934850  1
  C  C1065  1  0.735700  0.375400  0.435890  1
  C  C1066  1  0.264300  0.875400  0.064110  1
  C  C1067  1  0.264300  0.624600  0.564110  1
  C  C1068  1  0.735700  0.124600  0.935890  1
  C  C1069  1  0.768500  0.383000  0.452060  1
  C  C1070  1  0.231500  0.883000  0.047940  1
  C  C1071  1  0.231500  0.617000  0.547940  1
  C  C1072  1  0.768500  0.117000  0.952060  1
  C  C1073  1  0.762500  0.395900  0.471430  1
  C  C1074  1  0.237500  0.895900  0.028570  1
  C  C1075  1  0.237500  0.604100  0.528570  1
  C  C1076  1  0.762500  0.104100  0.971430  1
  C  C1077  1  0.812100  0.395900  0.482610  1
  C  C1078  1  0.187900  0.895900  0.017390  1
  C  C1079  1  0.187900  0.604100  0.517390  1
  C  C1080  1  0.812100  0.104100  0.982610  1
  C  C1081  1  0.903400  0.381200  0.474900  1
  C  C1082  1  0.096600  0.881200  0.025100  1
  C  C1083  1  0.096600  0.618800  0.525100  1
  C  C1084  1  0.903400  0.118800  0.974900  1
  C  C1085  1  0.107400  0.301130  0.599310  1
  C  C1086  1  0.892600  0.801130  0.900690  1
  C  C1087  1  0.892600  0.698870  0.400690  1
  C  C1088  1  0.107400  0.198870  0.099310  1
  C  C1089  1  0.097900  0.302080  0.619640  1
  C  C1090  1  0.902100  0.802080  0.880360  1
  C  C1091  1  0.902100  0.697920  0.380360  1
  C  C1092  1  0.097900  0.197920  0.119640  1
  C  C1093  1  0.047200  0.299690  0.625170  1
  C  C1094  1  0.952800  0.799690  0.874830  1
  C  C1095  1  0.952800  0.700310  0.374830  1
  C  C1096  1  0.047200  0.200310  0.125170  1
  C  C1097  1  0.005900  0.296350  0.610370  1
  C  C1098  1  0.994100  0.796350  0.889630  1
  C  C1099  1  0.994100  0.703650  0.389630  1
  C  C1100  1  0.005900  0.203650  0.110370  1
  C  C1101  1  0.015400  0.295400  0.590040  1
  C  C1102  1  0.984600  0.795400  0.909960  1
  C  C1103  1  0.984600  0.704600  0.409960  1
  C  C1104  1  0.015400  0.204600  0.090040  1
  C  C1105  1  0.978000  0.291700  0.574820  1
  C  C1106  1  0.022000  0.791700  0.925180  1
  C  C1107  1  0.022000  0.708300  0.425180  1
  C  C1108  1  0.978000  0.208300  0.074820  1
  C  C1109  1  0.923300  0.287300  0.574820  1
  C  C1110  1  0.076700  0.787300  0.925180  1
  C  C1111  1  0.076700  0.712700  0.425180  1
  C  C1112  1  0.923300  0.212700  0.074820  1
  C  C1113  1  0.902100  0.285200  0.554370  1
  C  C1114  1  0.097900  0.785200  0.945630  1
  C  C1115  1  0.097900  0.714800  0.445630  1
  C  C1116  1  0.902100  0.214800  0.054370  1
  C  C1117  1  0.941300  0.293000  0.521200  1
  C  C1118  1  0.058700  0.793000  0.978800  1
  C  C1119  1  0.058700  0.707000  0.478800  1
  C  C1120  1  0.941300  0.207000  0.021200  1
  C  C1121  1  0.914900  0.366610  0.494790  1
  C  C1122  1  0.085100  0.866610  0.005210  1
  C  C1123  1  0.085100  0.633390  0.505210  1
  C  C1124  1  0.914900  0.133390  0.994790  1
  C  C1125  1  0.920000  0.378320  0.514900  1
  C  C1126  1  0.080000  0.878320  0.985100  1
  C  C1127  1  0.080000  0.621680  0.485100  1
  C  C1128  1  0.920000  0.121680  0.014900  1
  C  C1129  1  0.931200  0.352800  0.528240  1
  C  C1130  1  0.068800  0.852800  0.971760  1
  C  C1131  1  0.068800  0.647200  0.471760  1
  C  C1132  1  0.931200  0.147200  0.028240  1
  C  C1133  1  0.933100  0.325390  0.516360  1
  C  C1134  1  0.066900  0.825390  0.983640  1
  C  C1135  1  0.066900  0.674610  0.483640  1
  C  C1136  1  0.933100  0.174610  0.016360  1
  C  C1137  1  0.068000  0.363600  0.560760  1
  C  C1138  1  0.932000  0.863600  0.939240  1
  C  C1139  1  0.932000  0.636400  0.439240  1
  C  C1140  1  0.068000  0.136400  0.060760  1
  C  C1141  1  0.054200  0.393690  0.554650  1
  C  C1142  1  0.945800  0.893690  0.945350  1
  C  C1143  1  0.945800  0.606310  0.445350  1
  C  C1144  1  0.054200  0.106310  0.054650  1
  C  C1145  1  0.046200  0.400760  0.534150  1
  C  C1146  1  0.953800  0.900760  0.965850  1
  C  C1147  1  0.953800  0.599240  0.465850  1
  C  C1148  1  0.046200  0.099240  0.034150  1
  C  C1149  1  0.052100  0.377800  0.519750  1
  C  C1150  1  0.947900  0.877800  0.980250  1
  C  C1151  1  0.947900  0.622200  0.480250  1
  C  C1152  1  0.052100  0.122200  0.019750  1
  C  C1153  1  0.065900  0.347680  0.525860  1
  C  C1154  1  0.934100  0.847680  0.974140  1
  C  C1155  1  0.934100  0.652320  0.474140  1
  C  C1156  1  0.065900  0.152320  0.025860  1
  C  C1157  1  0.069700  0.323100  0.512310  1
  C  C1158  1  0.930300  0.823100  0.987690  1
  C  C1159  1  0.930300  0.676900  0.487690  1
  C  C1160  1  0.069700  0.176900  0.012310  1
  C  C1161  1  0.069400  0.321030  0.490910  1
  C  C1162  1  0.930600  0.821030  0.009090  1
  C  C1163  1  0.930600  0.678970  0.509090  1
  C  C1164  1  0.069400  0.178970  0.990910  1
  C  C1165  1  0.076500  0.289300  0.485790  1
  C  C1166  1  0.923500  0.789300  0.014210  1
  C  C1167  1  0.923500  0.710700  0.514210  1
  C  C1168  1  0.076500  0.210700  0.985790  1
  C  C1169  1  0.092000  0.240700  0.506500  1
  C  C1170  1  0.908000  0.740700  0.993500  1
  C  C1171  1  0.908000  0.759300  0.493500  1
  C  C1172  1  0.092000  0.259300  0.006500  1
  C  C1173  1  0.302300  0.072200  0.479930  1
  C  C1174  1  0.697700  0.572200  0.020070  1
  C  C1175  1  0.697700  0.927800  0.520070  1
  C  C1176  1  0.302300  0.427800  0.979930  1
  C  C1177  1  0.352000  0.064800  0.474710  1
  C  C1178  1  0.648000  0.564800  0.025290  1
  C  C1179  1  0.648000  0.935200  0.525290  1
  C  C1180  1  0.352000  0.435200  0.974710  1
  C  C1181  1  0.395200  0.080300  0.483800  1
  C  C1182  1  0.604800  0.580300  0.016200  1
  C  C1183  1  0.604800  0.919700  0.516200  1
  C  C1184  1  0.395200  0.419700  0.983800  1
  C  C1185  1  0.388700  0.103400  0.498130  1
  C  C1186  1  0.611300  0.603400  0.001870  1
  C  C1187  1  0.611300  0.896600  0.501870  1
  C  C1188  1  0.388700  0.396600  0.998130  1
  C  C1189  1  0.339000  0.110800  0.503350  1
  C  C1190  1  0.661000  0.610800  0.996650  1
  C  C1191  1  0.661000  0.889200  0.496650  1
  C  C1192  1  0.339000  0.389200  0.003350  1
  C  C1193  1  0.329600  0.134900  0.516780  1
  C  C1194  1  0.670400  0.634900  0.983220  1
  C  C1195  1  0.670400  0.865100  0.483220  1
  C  C1196  1  0.329600  0.365100  0.016780  1
  C  C1197  1  0.362000  0.155600  0.528930  1
  C  C1198  1  0.638000  0.655600  0.971070  1
  C  C1199  1  0.638000  0.844400  0.471070  1
  C  C1200  1  0.362000  0.344400  0.028930  1
  C  C1201  1  0.329400  0.175000  0.539790  1
  C  C1202  1  0.670600  0.675000  0.960210  1
  C  C1203  1  0.670600  0.825000  0.460210  1
  C  C1204  1  0.329400  0.325000  0.039790  1
  C  C1205  1  0.230000  0.180100  0.541000  1
  C  C1206  1  0.770000  0.680100  0.959000  1
  C  C1207  1  0.770000  0.819900  0.459000  1
  C  C1208  1  0.230000  0.319900  0.041000  1
  C  C1209  1  0.146200  0.234600  0.512140  1
  C  C1210  1  0.853800  0.734600  0.987860  1
  C  C1211  1  0.853800  0.765400  0.487860  1
  C  C1212  1  0.146200  0.265400  0.012140  1
  C  C1213  1  0.194400  0.249810  0.509820  1
  C  C1214  1  0.805600  0.749810  0.990180  1
  C  C1215  1  0.805600  0.750190  0.490180  1
  C  C1216  1  0.194400  0.250190  0.009820  1
  C  C1217  1  0.234900  0.231600  0.519770  1
  C  C1218  1  0.765100  0.731600  0.980230  1
  C  C1219  1  0.765100  0.768400  0.480230  1
  C  C1220  1  0.234900  0.268400  0.019770  1
  C  C1221  1  0.211700  0.205100  0.528240  1
  C  C1222  1  0.788300  0.705100  0.971760  1
  C  C1223  1  0.788300  0.794900  0.471760  1
  C  C1224  1  0.211700  0.294900  0.028240  1
  C  C1225  1  0.256900  0.082670  0.547480  1
  C  C1226  1  0.743100  0.582670  0.952520  1
  C  C1227  1  0.743100  0.917330  0.452520  1
  C  C1228  1  0.256900  0.417330  0.047480  1
  C  C1229  1  0.260600  0.059500  0.562190  1
  C  C1230  1  0.739400  0.559500  0.937810  1
  C  C1231  1  0.739400  0.940500  0.437810  1
  C  C1232  1  0.260600  0.440500  0.062190  1
  C  C1233  1  0.235700  0.031090  0.558460  1
  C  C1234  1  0.764300  0.531090  0.941540  1
  C  C1235  1  0.764300  0.968910  0.441540  1
  C  C1236  1  0.235700  0.468910  0.058460  1
  C  C1237  1  0.207100  0.025830  0.540010  1
  C  C1238  1  0.792900  0.525830  0.959990  1
  C  C1239  1  0.792900  0.974170  0.459990  1
  C  C1240  1  0.207100  0.474170  0.040010  1
  C  C1241  1  0.203500  0.049000  0.525290  1
  C  C1242  1  0.796500  0.549000  0.974710  1
  C  C1243  1  0.796500  0.951000  0.474710  1
  C  C1244  1  0.203500  0.451000  0.025290  1
  C  C1245  1  0.177300  0.045000  0.506300  1
  C  C1246  1  0.822700  0.545000  0.993700  1
  C  C1247  1  0.822700  0.955000  0.493700  1
  C  C1248  1  0.177300  0.455000  0.006300  1
  C  C1249  1  0.145300  0.020870  0.497390  1
  C  C1250  1  0.854700  0.520870  0.002610  1
  C  C1251  1  0.854700  0.979130  0.502610  1
  C  C1252  1  0.145300  0.479130  0.997390  1
  C  C1253  1  0.127200  0.030400  0.477500  1
  C  C1254  1  0.872800  0.530400  0.022500  1
  C  C1255  1  0.872800  0.969600  0.522500  1
  C  C1256  1  0.127200  0.469600  0.977500  1
  C  C1257  1  0.143900  0.079800  0.456000  1
  C  C1258  1  0.856100  0.579800  0.044000  1
  C  C1259  1  0.856100  0.920200  0.544000  1
  C  C1260  1  0.143900  0.420200  0.956000  1
  C  C1261  1  0.838300  0.104900  0.358120  1
  C  C1262  1  0.161700  0.604900  0.141880  1
  C  C1263  1  0.161700  0.895100  0.641880  1
  C  C1264  1  0.838300  0.395100  0.858120  1
  C  C1265  1  0.807900  0.082400  0.347720  1
  C  C1266  1  0.192100  0.582400  0.152280  1
  C  C1267  1  0.192100  0.917600  0.652280  1
  C  C1268  1  0.807900  0.417600  0.847720  1
  C  C1269  1  0.796000  0.054800  0.357380  1
  C  C1270  1  0.204000  0.554800  0.142620  1
  C  C1271  1  0.204000  0.945200  0.642620  1
  C  C1272  1  0.796000  0.445200  0.857380  1
  C  C1273  1  0.814400  0.049900  0.377450  1
  C  C1274  1  0.185600  0.549900  0.122550  1
  C  C1275  1  0.185600  0.950100  0.622550  1
  C  C1276  1  0.814400  0.450100  0.877450  1
  C  C1277  1  0.844900  0.072400  0.387860  1
  C  C1278  1  0.155100  0.572400  0.112140  1
  C  C1279  1  0.155100  0.927600  0.612140  1
  C  C1280  1  0.844900  0.427600  0.887860  1
  C  C1281  1  0.862900  0.070500  0.408720  1
  C  C1282  1  0.137100  0.570500  0.091280  1
  C  C1283  1  0.137100  0.929500  0.591280  1
  C  C1284  1  0.862900  0.429500  0.908720  1
  C  C1285  1  0.856000  0.047200  0.423430  1
  C  C1286  1  0.144000  0.547200  0.076570  1
  C  C1287  1  0.144000  0.952800  0.576570  1
  C  C1288  1  0.856000  0.452800  0.923430  1
  C  C1289  1  0.888200  0.054800  0.441220  1
  C  C1290  1  0.111800  0.554800  0.058780  1
  C  C1291  1  0.111800  0.945200  0.558780  1
  C  C1292  1  0.888200  0.445200  0.941220  1
  C  C1293  1  0.956300  0.098000  0.449100  1
  C  C1294  1  0.043700  0.598000  0.050900  1
  C  C1295  1  0.043700  0.902000  0.550900  1
  C  C1296  1  0.956300  0.402000  0.949100  1
  C  C1297  1  0.092900  0.076100  0.445700  1
  C  C1298  1  0.907100  0.576100  0.054300  1
  C  C1299  1  0.907100  0.923900  0.554300  1
  C  C1300  1  0.092900  0.423900  0.945700  1
  C  C1301  1  0.073600  0.057800  0.428850  1
  C  C1302  1  0.926400  0.557800  0.071150  1
  C  C1303  1  0.926400  0.942200  0.571150  1
  C  C1304  1  0.073600  0.442200  0.928850  1
  C  C1305  1  0.018400  0.061000  0.426610  1
  C  C1306  1  0.981600  0.561000  0.073390  1
  C  C1307  1  0.981600  0.939000  0.573390  1
  C  C1308  1  0.018400  0.439000  0.926610  1
  C  C1309  1  0.003700  0.081300  0.442080  1
  C  C1310  1  0.996300  0.581300  0.057920  1
  C  C1311  1  0.996300  0.918700  0.557920  1
  C  C1312  1  0.003700  0.418700  0.942080  1
  C  C1313  1  0.807600  0.142670  0.423470  1
  C  C1314  1  0.192400  0.642670  0.076530  1
  C  C1315  1  0.192400  0.857330  0.576530  1
  C  C1316  1  0.807600  0.357330  0.923470  1
  C  C1317  1  0.761600  0.157100  0.427950  1
  C  C1318  1  0.238400  0.657100  0.072050  1
  C  C1319  1  0.238400  0.842900  0.572050  1
  C  C1320  1  0.761600  0.342900  0.927950  1
  C  C1321  1  0.740800  0.181200  0.415750  1
  C  C1322  1  0.259200  0.681200  0.084250  1
  C  C1323  1  0.259200  0.818800  0.584250  1
  C  C1324  1  0.740800  0.318800  0.915750  1
  C  C1325  1  0.766000  0.190770  0.399080  1
  C  C1326  1  0.234000  0.690770  0.100920  1
  C  C1327  1  0.234000  0.809230  0.600920  1
  C  C1328  1  0.766000  0.309230  0.899080  1
  C  C1329  1  0.812000  0.176300  0.394610  1
  C  C1330  1  0.188000  0.676300  0.105390  1
  C  C1331  1  0.188000  0.823700  0.605390  1
  C  C1332  1  0.812000  0.323700  0.894610  1
  C  C1333  1  0.838700  0.184400  0.377590  1
  C  C1334  1  0.161300  0.684400  0.122410  1
  C  C1335  1  0.161300  0.815600  0.622410  1
  C  C1336  1  0.838700  0.315600  0.877590  1
  C  C1337  1  0.829400  0.205980  0.361440  1
  C  C1338  1  0.170600  0.705980  0.138560  1
  C  C1339  1  0.170600  0.794020  0.638560  1
  C  C1340  1  0.829400  0.294020  0.861440  1
  C  C1341  1  0.870900  0.203430  0.348740  1
  C  C1342  1  0.129100  0.703430  0.151260  1
  C  C1343  1  0.129100  0.796570  0.651260  1
  C  C1344  1  0.870900  0.296570  0.848740  1
  C  C1345  1  0.951100  0.170800  0.349200  1
  C  C1346  1  0.048900  0.670800  0.150800  1
  C  C1347  1  0.048900  0.829200  0.650800  1
  C  C1348  1  0.951100  0.329200  0.849200  1
  C  C1349  1  0.231400  0.255850  0.303490  1
  C  C1350  1  0.768600  0.755850  0.196510  1
  C  C1351  1  0.768600  0.744150  0.696510  1
  C  C1352  1  0.231400  0.244150  0.803490  1
  C  C1353  1  0.260100  0.283250  0.305890  1
  C  C1354  1  0.739900  0.783250  0.194110  1
  C  C1355  1  0.739900  0.716750  0.694110  1
  C  C1356  1  0.260100  0.216750  0.805890  1
  C  C1357  1  0.275000  0.294430  0.325210  1
  C  C1358  1  0.725000  0.794430  0.174790  1
  C  C1359  1  0.725000  0.705570  0.674790  1
  C  C1360  1  0.275000  0.205570  0.825210  1
  C  C1361  1  0.261200  0.278200  0.342120  1
  C  C1362  1  0.738800  0.778200  0.157880  1
  C  C1363  1  0.738800  0.721800  0.657880  1
  C  C1364  1  0.261200  0.221800  0.842120  1
  C  C1365  1  0.232600  0.250830  0.339710  1
  C  C1366  1  0.767400  0.750830  0.160290  1
  C  C1367  1  0.767400  0.749170  0.660290  1
  C  C1368  1  0.232600  0.249170  0.839710  1
  C  C1369  1  0.213700  0.234600  0.356190  1
  C  C1370  1  0.786300  0.734600  0.143810  1
  C  C1371  1  0.786300  0.765400  0.643810  1
  C  C1372  1  0.213700  0.265400  0.856190  1
  C  C1373  1  0.218300  0.239810  0.377430  1
  C  C1374  1  0.781700  0.739810  0.122570  1
  C  C1375  1  0.781700  0.760190  0.622570  1
  C  C1376  1  0.218300  0.260190  0.877430  1
  C  C1377  1  0.190300  0.215900  0.386630  1
  C  C1378  1  0.809700  0.715900  0.113370  1
  C  C1379  1  0.809700  0.784100  0.613370  1
  C  C1380  1  0.190300  0.284100  0.886630  1
  C  C1381  1  0.133100  0.171500  0.373000  1
  C  C1382  1  0.866900  0.671500  0.127000  1
  C  C1383  1  0.866900  0.828500  0.627000  1
  C  C1384  1  0.133100  0.328500  0.873000  1
  C  C1385  1  0.995900  0.183100  0.361800  1
  C  C1386  1  0.004100  0.683100  0.138200  1
  C  C1387  1  0.004100  0.816900  0.638200  1
  C  C1388  1  0.995900  0.316900  0.861800  1
  C  C1389  1  0.003300  0.206800  0.376740  1
  C  C1390  1  0.996700  0.706800  0.123260  1
  C  C1391  1  0.996700  0.793200  0.623260  1
  C  C1392  1  0.003300  0.293200  0.876740  1
  C  C1393  1  0.057200  0.207760  0.383470  1
  C  C1394  1  0.942800  0.707760  0.116530  1
  C  C1395  1  0.942800  0.792240  0.616530  1
  C  C1396  1  0.057200  0.292240  0.883470  1
  C  C1397  1  0.083100  0.184700  0.372680  1
  C  C1398  1  0.916900  0.684700  0.127320  1
  C  C1399  1  0.916900  0.815300  0.627320  1
  C  C1400  1  0.083100  0.315300  0.872680  1
  C  C1401  1  0.779600  0.293900  0.443700  1
  C  C1402  1  0.220400  0.793900  0.056300  1
  C  C1403  1  0.220400  0.706100  0.556300  1
  C  C1404  1  0.779600  0.206100  0.943700  1
  C  C1405  1  0.778500  0.267730  0.456020  1
  C  C1406  1  0.221500  0.767730  0.043980  1
  C  C1407  1  0.221500  0.732270  0.543980  1
  C  C1408  1  0.778500  0.232270  0.956020  1
  C  C1409  1  0.824900  0.255120  0.464740  1
  C  C1410  1  0.175100  0.755120  0.035260  1
  C  C1411  1  0.175100  0.744880  0.535260  1
  C  C1412  1  0.824900  0.244880  0.964740  1
  C  C1413  1  0.872300  0.268680  0.461160  1
  C  C1414  1  0.127700  0.768680  0.038840  1
  C  C1415  1  0.127700  0.731320  0.538840  1
  C  C1416  1  0.872300  0.231320  0.961160  1
  C  C1417  1  0.873300  0.294840  0.448840  1
  C  C1418  1  0.126700  0.794840  0.051160  1
  C  C1419  1  0.126700  0.705160  0.551160  1
  C  C1420  1  0.873300  0.205160  0.948840  1
  C  C1421  1  0.918000  0.308600  0.445290  1
  C  C1422  1  0.082000  0.808600  0.054710  1
  C  C1423  1  0.082000  0.691400  0.554710  1
  C  C1424  1  0.918000  0.191400  0.945290  1
  C  C1425  1  0.970900  0.301730  0.451430  1
  C  C1426  1  0.029100  0.801730  0.048570  1
  C  C1427  1  0.029100  0.698270  0.548570  1
  C  C1428  1  0.970900  0.198270  0.951430  1
  C  C1429  1  0.002500  0.324400  0.442780  1
  C  C1430  1  0.997500  0.824400  0.057220  1
  C  C1431  1  0.997500  0.675600  0.557220  1
  C  C1432  1  0.002500  0.175600  0.942780  1
  C  C1433  1  0.981000  0.368700  0.416800  1
  C  C1434  1  0.019000  0.868700  0.083200  1
  C  C1435  1  0.019000  0.631300  0.583200  1
  C  C1436  1  0.981000  0.131300  0.916800  1
  C  C1437  1  0.210000  0.387280  0.318690  1
  C  C1438  1  0.790000  0.887280  0.181310  1
  C  C1439  1  0.790000  0.612720  0.681310  1
  C  C1440  1  0.210000  0.112720  0.818690  1
  C  C1441  1  0.232700  0.373100  0.302770  1
  C  C1442  1  0.767300  0.873100  0.197230  1
  C  C1443  1  0.767300  0.626900  0.697230  1
  C  C1444  1  0.232700  0.126900  0.802770  1
  C  C1445  1  0.202900  0.354200  0.289240  1
  C  C1446  1  0.797100  0.854200  0.210760  1
  C  C1447  1  0.797100  0.645800  0.710760  1
  C  C1448  1  0.202900  0.145800  0.789240  1
  C  C1449  1  0.150400  0.349480  0.291630  1
  C  C1450  1  0.849600  0.849480  0.208370  1
  C  C1451  1  0.849600  0.650520  0.708370  1
  C  C1452  1  0.150400  0.150520  0.791630  1
  C  C1453  1  0.127600  0.363700  0.307550  1
  C  C1454  1  0.872400  0.863700  0.192450  1
  C  C1455  1  0.872400  0.636300  0.692450  1
  C  C1456  1  0.127600  0.136300  0.807550  1
  C  C1457  1  0.076300  0.358900  0.311000  1
  C  C1458  1  0.923700  0.858900  0.189000  1
  C  C1459  1  0.923700  0.641100  0.689000  1
  C  C1460  1  0.076300  0.141100  0.811000  1
  C  C1461  1  0.034400  0.341700  0.301080  1
  C  C1462  1  0.965600  0.841700  0.198920  1
  C  C1463  1  0.965600  0.658300  0.698920  1
  C  C1464  1  0.034400  0.158300  0.801080  1
  C  C1465  1  0.989700  0.346400  0.311870  1
  C  C1466  1  0.010300  0.846400  0.188130  1
  C  C1467  1  0.010300  0.653600  0.688130  1
  C  C1468  1  0.989700  0.153600  0.811870  1
  C  C1469  1  0.972200  0.375700  0.344400  1
  C  C1470  1  0.027800  0.875700  0.155600  1
  C  C1471  1  0.027800  0.624300  0.655600  1
  C  C1472  1  0.972200  0.124300  0.844400  1
  C  C1473  1  0.988900  0.356800  0.398020  1
  C  C1474  1  0.011100  0.856800  0.101980  1
  C  C1475  1  0.011100  0.643200  0.601980  1
  C  C1476  1  0.988900  0.143200  0.898020  1
  C  C1477  1  0.012300  0.329420  0.390830  1
  C  C1478  1  0.987700  0.829420  0.109170  1
  C  C1479  1  0.987700  0.670580  0.609170  1
  C  C1480  1  0.012300  0.170580  0.890830  1
  C  C1481  1  0.011200  0.331560  0.369420  1
  C  C1482  1  0.988800  0.831560  0.130580  1
  C  C1483  1  0.988800  0.668440  0.630580  1
  C  C1484  1  0.011200  0.168440  0.869420  1
  C  C1485  1  0.987100  0.360200  0.363370  1
  C  C1486  1  0.012900  0.860200  0.136630  1
  C  C1487  1  0.012900  0.639800  0.636630  1
  C  C1488  1  0.987100  0.139800  0.863370  1
  C  C1489  1  0.034600  0.221830  0.556900  1
  C  C1490  1  0.965400  0.721830  0.943100  1
  C  C1491  1  0.965400  0.778170  0.443100  1
  C  C1492  1  0.034600  0.278170  0.056900  1
  C  C1493  1  0.040500  0.190990  0.563070  1
  C  C1494  1  0.959500  0.690990  0.936930  1
  C  C1495  1  0.959500  0.809010  0.436930  1
  C  C1496  1  0.040500  0.309010  0.063070  1
  C  C1497  1  0.088900  0.180240  0.571050  1
  C  C1498  1  0.911100  0.680240  0.928950  1
  C  C1499  1  0.911100  0.819760  0.428950  1
  C  C1500  1  0.088900  0.319760  0.071050  1
  C  C1501  1  0.131500  0.200320  0.572860  1
  C  C1502  1  0.868500  0.700320  0.927140  1
  C  C1503  1  0.868500  0.799680  0.427140  1
  C  C1504  1  0.131500  0.299680  0.072860  1
  C  C1505  1  0.125600  0.231160  0.566690  1
  C  C1506  1  0.874400  0.731160  0.933310  1
  C  C1507  1  0.874400  0.768840  0.433310  1
  C  C1508  1  0.125600  0.268840  0.066690  1
  C  C1509  1  0.167000  0.250510  0.567190  1
  C  C1510  1  0.833000  0.750510  0.932810  1
  C  C1511  1  0.833000  0.749490  0.432810  1
  C  C1512  1  0.167000  0.249490  0.067190  1
  C  C1513  1  0.221100  0.248730  0.573550  1
  C  C1514  1  0.778900  0.748730  0.926450  1
  C  C1515  1  0.778900  0.751270  0.426450  1
  C  C1516  1  0.221100  0.251270  0.073550  1
  C  C1517  1  0.244200  0.277670  0.569080  1
  C  C1518  1  0.755800  0.777670  0.930920  1
  C  C1519  1  0.755800  0.722330  0.430920  1
  C  C1520  1  0.244200  0.222330  0.069080  1
  C  C1521  1  0.209400  0.326400  0.551830  1
  C  C1522  1  0.790600  0.826400  0.948170  1
  C  C1523  1  0.790600  0.673600  0.448170  1
  C  C1524  1  0.209400  0.173600  0.051830  1
  C  C1525  1  0.383400  0.440900  0.464970  1
  C  C1526  1  0.616600  0.940900  0.035030  1
  C  C1527  1  0.616600  0.559100  0.535030  1
  C  C1528  1  0.383400  0.059100  0.964970  1
  C  C1529  1  0.414200  0.440150  0.448720  1
  C  C1530  1  0.585800  0.940150  0.051280  1
  C  C1531  1  0.585800  0.559850  0.551280  1
  C  C1532  1  0.414200  0.059850  0.948720  1
  C  C1533  1  0.400100  0.421200  0.432120  1
  C  C1534  1  0.599900  0.921200  0.067880  1
  C  C1535  1  0.599900  0.578800  0.567880  1
  C  C1536  1  0.400100  0.078800  0.932120  1
  C  C1537  1  0.355300  0.403060  0.431770  1
  C  C1538  1  0.644700  0.903060  0.068230  1
  C  C1539  1  0.644700  0.596940  0.568230  1
  C  C1540  1  0.355300  0.096940  0.931770  1
  C  C1541  1  0.324600  0.403820  0.448020  1
  C  C1542  1  0.675400  0.903820  0.051980  1
  C  C1543  1  0.675400  0.596180  0.551980  1
  C  C1544  1  0.324600  0.096180  0.948020  1
  C  C1545  1  0.280800  0.386300  0.450140  1
  C  C1546  1  0.719200  0.886300  0.049860  1
  C  C1547  1  0.719200  0.613700  0.549860  1
  C  C1548  1  0.280800  0.113700  0.950140  1
  C  C1549  1  0.253500  0.364400  0.437090  1
  C  C1550  1  0.746500  0.864400  0.062910  1
  C  C1551  1  0.746500  0.635600  0.562910  1
  C  C1552  1  0.253500  0.135600  0.937090  1
  C  C1553  1  0.211000  0.352670  0.447130  1
  C  C1554  1  0.789000  0.852670  0.052870  1
  C  C1555  1  0.789000  0.647330  0.552870  1
  C  C1556  1  0.211000  0.147330  0.947130  1
  C  C1557  1  0.181400  0.361600  0.482000  1
  C  C1558  1  0.818600  0.861600  0.018000  1
  C  C1559  1  0.818600  0.638400  0.518000  1
  C  C1560  1  0.181400  0.138400  0.982000  1
  C  C1561  1  0.224400  0.327600  0.530860  1
  C  C1562  1  0.775600  0.827600  0.969140  1
  C  C1563  1  0.775600  0.672400  0.469140  1
  C  C1564  1  0.224400  0.172400  0.030860  1
  C  C1565  1  0.263900  0.314810  0.519700  1
  C  C1566  1  0.736100  0.814810  0.980300  1
  C  C1567  1  0.736100  0.685190  0.480300  1
  C  C1568  1  0.263900  0.185190  0.019700  1
  C  C1569  1  0.254600  0.324800  0.499270  1
  C  C1570  1  0.745400  0.824800  0.000730  1
  C  C1571  1  0.745400  0.675200  0.500730  1
  C  C1572  1  0.254600  0.175200  0.999270  1
  C  C1573  1  0.209200  0.343730  0.497820  1
  C  C1574  1  0.790800  0.843730  0.002180  1
  C  C1575  1  0.790800  0.656270  0.502180  1
  C  C1576  1  0.209200  0.156270  0.997820  1
  C  C1577  1  0.123400  0.115260  0.527660  1
  C  C1578  1  0.876600  0.615260  0.972340  1
  C  C1579  1  0.876600  0.884740  0.472340  1
  C  C1580  1  0.123400  0.384740  0.027660  1
  C  C1581  1  0.071300  0.123000  0.529070  1
  C  C1582  1  0.928700  0.623000  0.970930  1
  C  C1583  1  0.928700  0.877000  0.470930  1
  C  C1584  1  0.071300  0.377000  0.029070  1
  C  C1585  1  0.045900  0.142800  0.514830  1
  C  C1586  1  0.954100  0.642800  0.985170  1
  C  C1587  1  0.954100  0.857200  0.485170  1
  C  C1588  1  0.045900  0.357200  0.014830  1
  C  C1589  1  0.072600  0.154790  0.499180  1
  C  C1590  1  0.927400  0.654790  0.000820  1
  C  C1591  1  0.927400  0.845210  0.500820  1
  C  C1592  1  0.072600  0.345210  0.999180  1
  C  C1593  1  0.124600  0.147000  0.497770  1
  C  C1594  1  0.875400  0.647000  0.002230  1
  C  C1595  1  0.875400  0.853000  0.502230  1
  C  C1596  1  0.124600  0.353000  0.997770  1
  C  C1597  1  0.154700  0.158400  0.482400  1
  C  C1598  1  0.845300  0.658400  0.017600  1
  C  C1599  1  0.845300  0.841600  0.517600  1
  C  C1600  1  0.154700  0.341600  0.982400  1
  C  C1601  1  0.148000  0.183700  0.468570  1
  C  C1602  1  0.852000  0.683700  0.031430  1
  C  C1603  1  0.852000  0.816300  0.531430  1
  C  C1604  1  0.148000  0.316300  0.968570  1
  C  C1605  1  0.192700  0.185110  0.457440  1
  C  C1606  1  0.807300  0.685110  0.042560  1
  C  C1607  1  0.807300  0.814890  0.542560  1
  C  C1608  1  0.192700  0.314890  0.957440  1
  C  C1609  1  0.274600  0.153500  0.457800  1
  C  C1610  1  0.725400  0.653500  0.042200  1
  C  C1611  1  0.725400  0.846500  0.542200  1
  C  C1612  1  0.274600  0.346500  0.957800  1
  C  C1613  1  0.468900  0.320340  0.429570  1
  C  C1614  1  0.531100  0.820340  0.070430  1
  C  C1615  1  0.531100  0.679660  0.570430  1
  C  C1616  1  0.468900  0.179660  0.929570  1
  C  C1617  1  0.484600  0.349000  0.437740  1
  C  C1618  1  0.515400  0.849000  0.062260  1
  C  C1619  1  0.515400  0.651000  0.562260  1
  C  C1620  1  0.484600  0.151000  0.937740  1
  C  C1621  1  0.500700  0.351450  0.458240  1
  C  C1622  1  0.499300  0.851450  0.041760  1
  C  C1623  1  0.499300  0.648550  0.541760  1
  C  C1624  1  0.500700  0.148550  0.958240  1
  C  C1625  1  0.501100  0.325200  0.470570  1
  C  C1626  1  0.498900  0.825200  0.029430  1
  C  C1627  1  0.498900  0.674800  0.529430  1
  C  C1628  1  0.501100  0.174800  0.970570  1
  C  C1629  1  0.485400  0.296580  0.462400  1
  C  C1630  1  0.514600  0.796580  0.037600  1
  C  C1631  1  0.514600  0.703420  0.537600  1
  C  C1632  1  0.485400  0.203420  0.962400  1
  C  C1633  1  0.486900  0.270020  0.473510  1
  C  C1634  1  0.513100  0.770020  0.026490  1
  C  C1635  1  0.513100  0.729980  0.526490  1
  C  C1636  1  0.486900  0.229980  0.973510  1
  C  C1637  1  0.506300  0.262570  0.493650  1
  C  C1638  1  0.493700  0.762570  0.006350  1
  C  C1639  1  0.493700  0.737430  0.506350  1
  C  C1640  1  0.506300  0.237430  0.993650  1
  C  C1641  1  0.499500  0.230080  0.496500  1
  C  C1642  1  0.500500  0.730080  0.003500  1
  C  C1643  1  0.500500  0.769920  0.503500  1
  C  C1644  1  0.499500  0.269920  0.996500  1
  C  C1645  1  0.454100  0.187000  0.474300  1
  C  C1646  1  0.545900  0.687000  0.025700  1
  C  C1647  1  0.545900  0.813000  0.525700  1
  C  C1648  1  0.454100  0.313000  0.974300  1
  C  C1649  1  0.314500  0.172250  0.470100  1
  C  C1650  1  0.685500  0.672250  0.029900  1
  C  C1651  1  0.685500  0.827750  0.529900  1
  C  C1652  1  0.314500  0.327750  0.970100  1
  C  C1653  1  0.313400  0.195300  0.485440  1
  C  C1654  1  0.686600  0.695300  0.014560  1
  C  C1655  1  0.686600  0.804700  0.514560  1
  C  C1656  1  0.313400  0.304700  0.985440  1
  C  C1657  1  0.365200  0.205940  0.490260  1
  C  C1658  1  0.634800  0.705940  0.009740  1
  C  C1659  1  0.634800  0.794060  0.509740  1
  C  C1660  1  0.365200  0.294060  0.990260  1
  C  C1661  1  0.398400  0.189500  0.477890  1
  C  C1662  1  0.601600  0.689500  0.022110  1
  C  C1663  1  0.601600  0.810500  0.522110  1
  C  C1664  1  0.398400  0.310500  0.977890  1
  C  C1665  1  0.162300  0.123800  0.325200  1
  C  C1666  1  0.837700  0.623800  0.174800  1
  C  C1667  1  0.837700  0.876200  0.674800  1
  C  C1668  1  0.162300  0.376200  0.825200  1
  C  C1669  1  0.132300  0.096850  0.324620  1
  C  C1670  1  0.867700  0.596850  0.175380  1
  C  C1671  1  0.867700  0.903150  0.675380  1
  C  C1672  1  0.132300  0.403150  0.824620  1
  C  C1673  1  0.078900  0.098450  0.319340  1
  C  C1674  1  0.921100  0.598450  0.180660  1
  C  C1675  1  0.921100  0.901550  0.680660  1
  C  C1676  1  0.078900  0.401550  0.819340  1
  C  C1677  1  0.055500  0.127000  0.314630  1
  C  C1678  1  0.944500  0.627000  0.185370  1
  C  C1679  1  0.944500  0.873000  0.685370  1
  C  C1680  1  0.055500  0.373000  0.814630  1
  C  C1681  1  0.085500  0.153990  0.315210  1
  C  C1682  1  0.914500  0.653990  0.184790  1
  C  C1683  1  0.914500  0.846010  0.684790  1
  C  C1684  1  0.085500  0.346010  0.815210  1
  C  C1685  1  0.064500  0.182560  0.311820  1
  C  C1686  1  0.935500  0.682560  0.188180  1
  C  C1687  1  0.935500  0.817440  0.688180  1
  C  C1688  1  0.064500  0.317440  0.811820  1
  C  C1689  1  0.014100  0.194300  0.305530  1
  C  C1690  1  0.985900  0.694300  0.194470  1
  C  C1691  1  0.985900  0.805700  0.694470  1
  C  C1692  1  0.014100  0.305700  0.805530  1
  C  C1693  1  0.017900  0.227140  0.303700  1
  C  C1694  1  0.982100  0.727140  0.196300  1
  C  C1695  1  0.982100  0.772860  0.696300  1
  C  C1696  1  0.017900  0.272860  0.803700  1
  C  C1697  1  0.088800  0.265400  0.310400  1
  C  C1698  1  0.911200  0.765400  0.189600  1
  C  C1699  1  0.911200  0.734600  0.689600  1
  C  C1700  1  0.088800  0.234600  0.810400  1
  C  C1701  1  0.029700  0.450200  0.363430  1
  C  C1702  1  0.970300  0.950200  0.136570  1
  C  C1703  1  0.970300  0.549800  0.636570  1
  C  C1704  1  0.029700  0.049800  0.863430  1
  C  C1705  1  0.009600  0.464080  0.380050  1
  C  C1706  1  0.990400  0.964080  0.119950  1
  C  C1707  1  0.990400  0.535920  0.619950  1
  C  C1708  1  0.009600  0.035920  0.880050  1
  C  C1709  1  0.024900  0.453600  0.399490  1
  C  C1710  1  0.975100  0.953600  0.100510  1
  C  C1711  1  0.975100  0.546400  0.600510  1
  C  C1712  1  0.024900  0.046400  0.899490  1
  C  C1713  1  0.060400  0.429200  0.402320  1
  C  C1714  1  0.939600  0.929200  0.097680  1
  C  C1715  1  0.939600  0.570800  0.597680  1
  C  C1716  1  0.060400  0.070800  0.902320  1
  C  C1717  1  0.080600  0.415390  0.385700  1
  C  C1718  1  0.919400  0.915390  0.114300  1
  C  C1719  1  0.919400  0.584610  0.614300  1
  C  C1720  1  0.080600  0.084610  0.885700  1
  C  C1721  1  0.110400  0.389530  0.387100  1
  C  C1722  1  0.889600  0.889530  0.112900  1
  C  C1723  1  0.889600  0.610470  0.612900  1
  C  C1724  1  0.110400  0.110470  0.887100  1
  C  C1725  1  0.129800  0.370900  0.403800  1
  C  C1726  1  0.870200  0.870900  0.096200  1
  C  C1727  1  0.870200  0.629100  0.596200  1
  C  C1728  1  0.129800  0.129100  0.903800  1
  C  C1729  1  0.161300  0.347040  0.396380  1
  C  C1730  1  0.838700  0.847040  0.103620  1
  C  C1731  1  0.838700  0.652960  0.603620  1
  C  C1732  1  0.161300  0.152960  0.896380  1
  C  C1733  1  0.183300  0.331700  0.360700  1
  C  C1734  1  0.816700  0.831700  0.139300  1
  C  C1735  1  0.816700  0.668300  0.639300  1
  C  C1736  1  0.183300  0.168300  0.860700  1
  C  C1737  1  0.103600  0.274450  0.331280  1
  C  C1738  1  0.896400  0.774450  0.168720  1
  C  C1739  1  0.896400  0.725550  0.668720  1
  C  C1740  1  0.103600  0.225550  0.831280  1
  C  C1741  1  0.089200  0.264800  0.350530  1
  C  C1742  1  0.910800  0.764800  0.149470  1
  C  C1743  1  0.910800  0.735200  0.649470  1
  C  C1744  1  0.089200  0.235200  0.850530  1
  C  C1745  1  0.114600  0.284700  0.365410  1
  C  C1746  1  0.885400  0.784700  0.134590  1
  C  C1747  1  0.885400  0.715300  0.634590  1
  C  C1748  1  0.114600  0.215300  0.865410  1
  C  C1749  1  0.144700  0.306610  0.355340  1
  C  C1750  1  0.855300  0.806610  0.144660  1
  C  C1751  1  0.855300  0.693390  0.644660  1
  C  C1752  1  0.144700  0.193390  0.855340  1
  C  C1753  1  0.043800  0.440050  0.306820  1
  C  C1754  1  0.956200  0.940050  0.193180  1
  C  C1755  1  0.956200  0.559950  0.693180  1
  C  C1756  1  0.043800  0.059950  0.806820  1
  C  C1757  1  0.037300  0.462100  0.291430  1
  C  C1758  1  0.962700  0.962100  0.208570  1
  C  C1759  1  0.962700  0.537900  0.708570  1
  C  C1760  1  0.037300  0.037900  0.791430  1
  C  C1761  1  0.073700  0.485800  0.290270  1
  C  C1762  1  0.926300  0.985800  0.209730  1
  C  C1763  1  0.926300  0.514200  0.709730  1
  C  C1764  1  0.073700  0.014200  0.790270  1
  C  C1765  1  0.116500  0.487500  0.304500  1
  C  C1766  1  0.883500  0.987500  0.195500  1
  C  C1767  1  0.883500  0.512500  0.695500  1
  C  C1768  1  0.116500  0.012500  0.804500  1
  C  C1769  1  0.123000  0.465500  0.319900  1
  C  C1770  1  0.877000  0.965500  0.180100  1
  C  C1771  1  0.877000  0.534500  0.680100  1
  C  C1772  1  0.123000  0.034500  0.819900  1
  C  C1773  1  0.163900  0.466400  0.333970  1
  C  C1774  1  0.836100  0.966400  0.166030  1
  C  C1775  1  0.836100  0.533600  0.666030  1
  C  C1776  1  0.163900  0.033600  0.833970  1
  C  C1777  1  0.204400  0.488270  0.338980  1
  C  C1778  1  0.795600  0.988270  0.161020  1
  C  C1779  1  0.795600  0.511730  0.661020  1
  C  C1780  1  0.204400  0.011730  0.838980  1
  C  C1781  1  0.236400  0.476300  0.355720  1
  C  C1782  1  0.763600  0.976300  0.144280  1
  C  C1783  1  0.763600  0.523700  0.644280  1
  C  C1784  1  0.236400  0.023700  0.855720  1
  C  C1785  1  0.237300  0.426200  0.376500  1
  C  C1786  1  0.762700  0.926200  0.123500  1
  C  C1787  1  0.762700  0.573800  0.623500  1
  C  C1788  1  0.237300  0.073800  0.876500  1
  C  C1789  1  0.363400  0.460590  0.520160  1
  C  C1790  1  0.636600  0.960590  0.979840  1
  C  C1791  1  0.636600  0.539410  0.479840  1
  C  C1792  1  0.363400  0.039410  0.020160  1
  C  C1793  1  0.377800  0.486800  0.531650  1
  C  C1794  1  0.622200  0.986800  0.968350  1
  C  C1795  1  0.622200  0.513200  0.468350  1
  C  C1796  1  0.377800  0.013200  0.031650  1
  C  C1797  1  0.351500  0.514770  0.527950  1
  C  C1798  1  0.648500  0.014770  0.972050  1
  C  C1799  1  0.648500  0.485230  0.472050  1
  C  C1800  1  0.351500  0.985230  0.027950  1
  C  C1801  1  0.310900  0.516560  0.512770  1
  C  C1802  1  0.689100  0.016560  0.987230  1
  C  C1803  1  0.689100  0.483440  0.487230  1
  C  C1804  1  0.310900  0.983440  0.012770  1
  C  C1805  1  0.296500  0.490400  0.501280  1
  C  C1806  1  0.703500  0.990400  0.998720  1
  C  C1807  1  0.703500  0.509600  0.498720  1
  C  C1808  1  0.296500  0.009600  0.001280  1
  C  C1809  1  0.258900  0.491700  0.485560  1
  C  C1810  1  0.741100  0.991700  0.014440  1
  C  C1811  1  0.741100  0.508300  0.514440  1
  C  C1812  1  0.258900  0.008300  0.985560  1
  C  C1813  1  0.225800  0.515760  0.477200  1
  C  C1814  1  0.774200  0.015760  0.022800  1
  C  C1815  1  0.774200  0.484240  0.522800  1
  C  C1816  1  0.225800  0.984240  0.977200  1
  C  C1817  1  0.191600  0.502600  0.461530  1
  C  C1818  1  0.808400  0.002600  0.038470  1
  C  C1819  1  0.808400  0.497400  0.538470  1
  C  C1820  1  0.191600  0.997400  0.961530  1
  C  C1821  1  0.185800  0.449100  0.443000  1
  C  C1822  1  0.814200  0.949100  0.057000  1
  C  C1823  1  0.814200  0.550900  0.557000  1
  C  C1824  1  0.185800  0.050900  0.943000  1
  C  C1825  1  0.246500  0.439500  0.395990  1
  C  C1826  1  0.753500  0.939500  0.104010  1
  C  C1827  1  0.753500  0.560500  0.604010  1
  C  C1828  1  0.246500  0.060500  0.895990  1
  C  C1829  1  0.287500  0.457800  0.405540  1
  C  C1830  1  0.712500  0.957800  0.094460  1
  C  C1831  1  0.712500  0.542200  0.594460  1
  C  C1832  1  0.287500  0.042200  0.905540  1
  C  C1833  1  0.273600  0.466000  0.425130  1
  C  C1834  1  0.726400  0.966000  0.074870  1
  C  C1835  1  0.726400  0.534000  0.574870  1
  C  C1836  1  0.273600  0.034000  0.925130  1
  C  C1837  1  0.224000  0.452700  0.427690  1
  C  C1838  1  0.776000  0.952700  0.072310  1
  C  C1839  1  0.776000  0.547300  0.572310  1
  C  C1840  1  0.224000  0.047300  0.927690  1
  C  C1841  1  0.186700  0.436030  0.513230  1
  C  C1842  1  0.813300  0.936030  0.986770  1
  C  C1843  1  0.813300  0.563970  0.486770  1
  C  C1844  1  0.186700  0.063970  0.013230  1
  C  C1845  1  0.161300  0.437330  0.530880  1
  C  C1846  1  0.838700  0.937330  0.969120  1
  C  C1847  1  0.838700  0.562670  0.469120  1
  C  C1848  1  0.161300  0.062670  0.030880  1
  C  C1849  1  0.183700  0.423600  0.548550  1
  C  C1850  1  0.816300  0.923600  0.951450  1
  C  C1851  1  0.816300  0.576400  0.451450  1
  C  C1852  1  0.183700  0.076400  0.048550  1
  C  C1853  1  0.231600  0.408660  0.548570  1
  C  C1854  1  0.768400  0.908660  0.951430  1
  C  C1855  1  0.768400  0.591340  0.451430  1
  C  C1856  1  0.231600  0.091340  0.048570  1
  C  C1857  1  0.257100  0.407360  0.530920  1
  C  C1858  1  0.742900  0.907360  0.969080  1
  C  C1859  1  0.742900  0.592640  0.469080  1
  C  C1860  1  0.257100  0.092640  0.030920  1
  C  C1861  1  0.303000  0.392400  0.528820  1
  C  C1862  1  0.697000  0.892400  0.971180  1
  C  C1863  1  0.697000  0.607600  0.471180  1
  C  C1864  1  0.303000  0.107600  0.028820  1
  C  C1865  1  0.336900  0.376700  0.543500  1
  C  C1866  1  0.663100  0.876700  0.956500  1
  C  C1867  1  0.663100  0.623300  0.456500  1
  C  C1868  1  0.336900  0.123300  0.043500  1
  C  C1869  1  0.379400  0.364680  0.533610  1
  C  C1870  1  0.620600  0.864680  0.966390  1
  C  C1871  1  0.620600  0.635320  0.466390  1
  C  C1872  1  0.379400  0.135320  0.033610  1
  C  C1873  1  0.398100  0.363600  0.495100  1
  C  C1874  1  0.601900  0.863600  0.004900  1
  C  C1875  1  0.601900  0.636400  0.504900  1
  C  C1876  1  0.398100  0.136400  0.995100  1
  C  C1877  1  0.475100  0.179100  0.419320  1
  C  C1878  1  0.524900  0.679100  0.080680  1
  C  C1879  1  0.524900  0.820900  0.580680  1
  C  C1880  1  0.475100  0.320900  0.919320  1
  C  C1881  1  0.458400  0.149200  0.414090  1
  C  C1882  1  0.541600  0.649200  0.085910  1
  C  C1883  1  0.541600  0.850800  0.585910  1
  C  C1884  1  0.458400  0.350800  0.914090  1
  C  C1885  1  0.405400  0.142360  0.412040  1
  C  C1886  1  0.594600  0.642360  0.087960  1
  C  C1887  1  0.594600  0.857640  0.587960  1
  C  C1888  1  0.405400  0.357640  0.912040  1
  C  C1889  1  0.369100  0.165500  0.415230  1
  C  C1890  1  0.630900  0.665500  0.084770  1
  C  C1891  1  0.630900  0.834500  0.584770  1
  C  C1892  1  0.369100  0.334500  0.915230  1
  C  C1893  1  0.385900  0.195410  0.420470  1
  C  C1894  1  0.614100  0.695410  0.079530  1
  C  C1895  1  0.614100  0.804590  0.579530  1
  C  C1896  1  0.385900  0.304590  0.920470  1
  C  C1897  1  0.353200  0.218640  0.424460  1
  C  C1898  1  0.646800  0.718640  0.075540  1
  C  C1899  1  0.646800  0.781360  0.575540  1
  C  C1900  1  0.353200  0.281360  0.924460  1
  C  C1901  1  0.297900  0.219960  0.424050  1
  C  C1902  1  0.702100  0.719960  0.075950  1
  C  C1903  1  0.702100  0.780040  0.575950  1
  C  C1904  1  0.297900  0.280040  0.924050  1
  C  C1905  1  0.283900  0.250400  0.430000  1
  C  C1906  1  0.716100  0.750400  0.070000  1
  C  C1907  1  0.716100  0.749600  0.570000  1
  C  C1908  1  0.283900  0.249600  0.930000  1
  C  C1909  1  0.336200  0.299800  0.439100  1
  C  C1910  1  0.663800  0.799800  0.060900  1
  C  C1911  1  0.663800  0.700200  0.560900  1
  C  C1912  1  0.336200  0.200200  0.939100  1
  C  C1913  1  0.381900  0.334240  0.487920  1
  C  C1914  1  0.618100  0.834240  0.012080  1
  C  C1915  1  0.618100  0.665760  0.512080  1
  C  C1916  1  0.381900  0.165760  0.987920  1
  C  C1917  1  0.379900  0.303100  0.495070  1
  C  C1918  1  0.620100  0.803100  0.004930  1
  C  C1919  1  0.620100  0.696900  0.504930  1
  C  C1920  1  0.379900  0.196900  0.995070  1
  C  C1921  1  0.362800  0.283760  0.478440  1
  C  C1922  1  0.637200  0.783760  0.021560  1
  C  C1923  1  0.637200  0.716240  0.521560  1
  C  C1924  1  0.362800  0.216240  0.978440  1
  C  C1925  1  0.354200  0.302920  0.461000  1
  C  C1926  1  0.645800  0.802920  0.039000  1
  C  C1927  1  0.645800  0.697080  0.539000  1
  C  C1928  1  0.354200  0.197080  0.961000  1
  C  C1929  1  0.155500  0.200790  0.271450  1
  C  C1930  1  0.844500  0.700790  0.228550  1
  C  C1931  1  0.844500  0.799210  0.728550  1
  C  C1932  1  0.155500  0.299210  0.771450  1
  C  C1933  1  0.164300  0.193000  0.251680  1
  C  C1934  1  0.835700  0.693000  0.248320  1
  C  C1935  1  0.835700  0.807000  0.748320  1
  C  C1936  1  0.164300  0.307000  0.751680  1
  C  C1937  1  0.206100  0.173900  0.247970  1
  C  C1938  1  0.793900  0.673900  0.252030  1
  C  C1939  1  0.793900  0.826100  0.752030  1
  C  C1940  1  0.206100  0.326100  0.747970  1
  C  C1941  1  0.239200  0.162720  0.264030  1
  C  C1942  1  0.760800  0.662720  0.235970  1
  C  C1943  1  0.760800  0.837280  0.735970  1
  C  C1944  1  0.239200  0.337280  0.764030  1
  C  C1945  1  0.230300  0.170540  0.283810  1
  C  C1946  1  0.769700  0.670540  0.216190  1
  C  C1947  1  0.769700  0.829460  0.716190  1
  C  C1948  1  0.230300  0.329460  0.783810  1
  C  C1949  1  0.261600  0.160000  0.299960  1
  C  C1950  1  0.738400  0.660000  0.200040  1
  C  C1951  1  0.738400  0.840000  0.700040  1
  C  C1952  1  0.261600  0.340000  0.799960  1
  C  C1953  1  0.302300  0.137600  0.302260  1
  C  C1954  1  0.697700  0.637600  0.197740  1
  C  C1955  1  0.697700  0.862400  0.697740  1
  C  C1956  1  0.302300  0.362400  0.802260  1
  C  C1957  1  0.319200  0.135510  0.323180  1
  C  C1958  1  0.680800  0.635510  0.176820  1
  C  C1959  1  0.680800  0.864490  0.676820  1
  C  C1960  1  0.319200  0.364490  0.823180  1
  C  C1961  1  0.294700  0.164200  0.355100  1
  C  C1962  1  0.705300  0.664200  0.144900  1
  C  C1963  1  0.705300  0.835800  0.644900  1
  C  C1964  1  0.294700  0.335800  0.855100  1
  C  C1965  1  0.575700  0.239110  0.444080  1
  C  C1966  1  0.424300  0.739110  0.055920  1
  C  C1967  1  0.424300  0.760890  0.555920  1
  C  C1968  1  0.575700  0.260890  0.944080  1
  C  C1969  1  0.628600  0.244190  0.442560  1
  C  C1970  1  0.371400  0.744190  0.057440  1
  C  C1971  1  0.371400  0.755810  0.557440  1
  C  C1972  1  0.628600  0.255810  0.942560  1
  C  C1973  1  0.645400  0.257100  0.425010  1
  C  C1974  1  0.354600  0.757100  0.074990  1
  C  C1975  1  0.354600  0.742900  0.574990  1
  C  C1976  1  0.645400  0.242900  0.925010  1
  C  C1977  1  0.609300  0.264900  0.408990  1
  C  C1978  1  0.390700  0.764900  0.091010  1
  C  C1979  1  0.390700  0.735100  0.591010  1
  C  C1980  1  0.609300  0.235100  0.908990  1
  C  C1981  1  0.556400  0.259830  0.410520  1
  C  C1982  1  0.443600  0.759830  0.089480  1
  C  C1983  1  0.443600  0.740170  0.589480  1
  C  C1984  1  0.556400  0.240170  0.910520  1
  C  C1985  1  0.519500  0.264600  0.395360  1
  C  C1986  1  0.480500  0.764600  0.104640  1
  C  C1987  1  0.480500  0.735400  0.604640  1
  C  C1988  1  0.519500  0.235400  0.895360  1
  C  C1989  1  0.521500  0.276800  0.375520  1
  C  C1990  1  0.478500  0.776800  0.124480  1
  C  C1991  1  0.478500  0.723200  0.624480  1
  C  C1992  1  0.521500  0.223200  0.875520  1
  C  C1993  1  0.469500  0.279500  0.366570  1
  C  C1994  1  0.530500  0.779500  0.133430  1
  C  C1995  1  0.530500  0.720500  0.633430  1
  C  C1996  1  0.469500  0.220500  0.866570  1
  C  C1997  1  0.379800  0.260500  0.377700  1
  C  C1998  1  0.620200  0.760500  0.122300  1
  C  C1999  1  0.620200  0.739500  0.622300  1
  C  C2000  1  0.379800  0.239500  0.877700  1
  C  C2001  1  0.340000  0.181600  0.361460  1
  C  C2002  1  0.660000  0.681600  0.138540  1
  C  C2003  1  0.660000  0.818400  0.638540  1
  C  C2004  1  0.340000  0.318400  0.861460  1
  C  C2005  1  0.394500  0.175590  0.363360  1
  C  C2006  1  0.605500  0.675590  0.136640  1
  C  C2007  1  0.605500  0.824410  0.636640  1
  C  C2008  1  0.394500  0.324410  0.863360  1
  C  C2009  1  0.420500  0.203800  0.369170  1
  C  C2010  1  0.579500  0.703800  0.130830  1
  C  C2011  1  0.579500  0.796200  0.630830  1
  C  C2012  1  0.420500  0.296200  0.869170  1
  C  C2013  1  0.382200  0.227180  0.370850  1
  C  C2014  1  0.617800  0.727180  0.129150  1
  C  C2015  1  0.617800  0.772820  0.629150  1
  C  C2016  1  0.382200  0.272820  0.870850  1
  C  C2017  1  0.133800  0.338900  0.129700  1
  C  C2018  1  0.866200  0.838900  0.370300  1
  C  C2019  1  0.866200  0.661100  0.870300  1
  C  C2020  1  0.133800  0.161100  0.629700  1
  C  C2021  1  0.206900  0.677500  0.500800  1
  C  C2022  1  0.793100  0.177500  0.999200  1
  C  C2023  1  0.793100  0.322500  0.499200  1
  C  C2024  1  0.206900  0.822500  0.000800  1
  C  C2025  1  0.859300  0.139100  0.500700  1
  C  C2026  1  0.140700  0.639100  0.999300  1
  C  C2027  1  0.140700  0.860900  0.499300  1
  C  C2028  1  0.859300  0.360900  0.000700  1
  C  C2029  1  0.016600  0.825500  0.383200  1
  C  C2030  1  0.983400  0.325500  0.116800  1
  C  C2031  1  0.983400  0.174500  0.616800  1
  C  C2032  1  0.016600  0.674500  0.883200  1
  C  C2033  1  0.366100  0.563500  0.463400  1
  C  C2034  1  0.633900  0.063500  0.036600  1
  C  C2035  1  0.633900  0.436500  0.536600  1
  C  C2036  1  0.366100  0.936500  0.963400  1
  C  C2037  1  0.222100  0.709500  0.256520  1
  C  C2038  1  0.777900  0.209500  0.243480  1
  C  C2039  1  0.777900  0.290500  0.743480  1
  C  C2040  1  0.222100  0.790500  0.756520  1
  C  C2041  1  0.213900  0.684900  0.242290  1
  C  C2042  1  0.786100  0.184900  0.257710  1
  C  C2043  1  0.786100  0.315100  0.757710  1
  C  C2044  1  0.213900  0.815100  0.742290  1
  N  N2045  1  0.975700  0.115700  0.386900  1
  N  N2046  1  0.024300  0.615700  0.113100  1
  N  N2047  1  0.024300  0.884300  0.613100  1
  N  N2048  1  0.975700  0.384300  0.886900  1
  N  N2049  1  0.960000  0.179740  0.431990  1
  N  N2050  1  0.040000  0.679740  0.068010  1
  N  N2051  1  0.040000  0.820260  0.568010  1
  N  N2052  1  0.960000  0.320260  0.931990  1
  N  N2053  1  0.958500  0.158900  0.415310  1
  N  N2054  1  0.041500  0.658900  0.084690  1
  N  N2055  1  0.041500  0.841100  0.584690  1
  N  N2056  1  0.958500  0.341100  0.915310  1
  N  N2057  1  0.854900  0.390060  0.405850  1
  N  N2058  1  0.145100  0.890060  0.094150  1
  N  N2059  1  0.145100  0.609940  0.594150  1
  N  N2060  1  0.854900  0.109940  0.905850  1
  N  N2061  1  0.836100  0.302670  0.383650  1
  N  N2062  1  0.163900  0.802670  0.116350  1
  N  N2063  1  0.163900  0.697330  0.616350  1
  N  N2064  1  0.836100  0.197330  0.883650  1
  N  N2065  1  0.838600  0.332400  0.393100  1
  N  N2066  1  0.161400  0.832400  0.106900  1
  N  N2067  1  0.161400  0.667600  0.606900  1
  N  N2068  1  0.838600  0.167600  0.893100  1
  N  N2069  1  0.756500  0.359200  0.420280  1
  N  N2070  1  0.243500  0.859200  0.079720  1
  N  N2071  1  0.243500  0.640800  0.579720  1
  N  N2072  1  0.756500  0.140800  0.920280  1
  N  N2073  1  0.848800  0.383000  0.470150  1
  N  N2074  1  0.151200  0.883000  0.029850  1
  N  N2075  1  0.151200  0.617000  0.529850  1
  N  N2076  1  0.848800  0.117000  0.970150  1
  N  N2077  1  0.821900  0.374970  0.451260  1
  N  N2078  1  0.178100  0.874970  0.048740  1
  N  N2079  1  0.178100  0.625030  0.548740  1
  N  N2080  1  0.821900  0.125030  0.951260  1
  N  N2081  1  0.066100  0.297790  0.584510  1
  N  N2082  1  0.933900  0.797790  0.915490  1
  N  N2083  1  0.933900  0.702210  0.415490  1
  N  N2084  1  0.066100  0.202210  0.084510  1
  N  N2085  1  0.943600  0.288330  0.541730  1
  N  N2086  1  0.056400  0.788330  0.958270  1
  N  N2087  1  0.056400  0.711670  0.458270  1
  N  N2088  1  0.943600  0.211670  0.041730  1
  N  N2089  1  0.990600  0.292370  0.554370  1
  N  N2090  1  0.009400  0.792370  0.945630  1
  N  N2091  1  0.009400  0.707630  0.445630  1
  N  N2092  1  0.990600  0.207630  0.054370  1
  N  N2093  1  0.073900  0.340610  0.546360  1
  N  N2094  1  0.926100  0.840610  0.953640  1
  N  N2095  1  0.926100  0.659390  0.453640  1
  N  N2096  1  0.073900  0.159390  0.046360  1
  N  N2097  1  0.081100  0.271730  0.504020  1
  N  N2098  1  0.918900  0.771730  0.995980  1
  N  N2099  1  0.918900  0.728270  0.495980  1
  N  N2100  1  0.081100  0.228270  0.004020  1
  N  N2101  1  0.076900  0.292600  0.520410  1
  N  N2102  1  0.923100  0.792600  0.979590  1
  N  N2103  1  0.923100  0.707400  0.479590  1
  N  N2104  1  0.076900  0.207400  0.020410  1
  N  N2105  1  0.295800  0.095200  0.494260  1
  N  N2106  1  0.704200  0.595200  0.005740  1
  N  N2107  1  0.704200  0.904800  0.505740  1
  N  N2108  1  0.295800  0.404800  0.994260  1
  N  N2109  1  0.276800  0.166300  0.534370  1
  N  N2110  1  0.723200  0.666300  0.965630  1
  N  N2111  1  0.723200  0.833700  0.465630  1
  N  N2112  1  0.276800  0.333700  0.034370  1
  N  N2113  1  0.276900  0.141500  0.520150  1
  N  N2114  1  0.723100  0.641500  0.979850  1
  N  N2115  1  0.723100  0.858500  0.479850  1
  N  N2116  1  0.276900  0.358500  0.020150  1
  N  N2117  1  0.228300  0.077400  0.529030  1
  N  N2118  1  0.771700  0.577400  0.970970  1
  N  N2119  1  0.771700  0.922600  0.470970  1
  N  N2120  1  0.228300  0.422600  0.029030  1
  N  N2121  1  0.148000  0.060400  0.474110  1
  N  N2122  1  0.852000  0.560400  0.025890  1
  N  N2123  1  0.852000  0.939600  0.525890  1
  N  N2124  1  0.148000  0.439600  0.974110  1
  N  N2125  1  0.179000  0.069410  0.491910  1
  N  N2126  1  0.821000  0.569410  0.008090  1
  N  N2127  1  0.821000  0.930590  0.508090  1
  N  N2128  1  0.179000  0.430590  0.991910  1
  N  N2129  1  0.856800  0.099900  0.378200  1
  N  N2130  1  0.143200  0.599900  0.121800  1
  N  N2131  1  0.143200  0.900100  0.621800  1
  N  N2132  1  0.856800  0.400100  0.878200  1
  N  N2133  1  0.915000  0.082800  0.437520  1
  N  N2134  1  0.085000  0.582800  0.062480  1
  N  N2135  1  0.085000  0.917200  0.562480  1
  N  N2136  1  0.915000  0.417200  0.937520  1
  N  N2137  1  0.899500  0.092600  0.417430  1
  N  N2138  1  0.100500  0.592600  0.082570  1
  N  N2139  1  0.100500  0.907400  0.582570  1
  N  N2140  1  0.899500  0.407400  0.917430  1
  N  N2141  1  0.832800  0.152290  0.406810  1
  N  N2142  1  0.167200  0.652290  0.093190  1
  N  N2143  1  0.167200  0.847710  0.593190  1
  N  N2144  1  0.832800  0.347710  0.906810  1
  N  N2145  1  0.905900  0.180300  0.357050  1
  N  N2146  1  0.094100  0.680300  0.142950  1
  N  N2147  1  0.094100  0.819700  0.642950  1
  N  N2148  1  0.905900  0.319700  0.857050  1
  N  N2149  1  0.886000  0.168540  0.374880  1
  N  N2150  1  0.114000  0.668540  0.125120  1
  N  N2151  1  0.114000  0.831460  0.625120  1
  N  N2152  1  0.886000  0.331460  0.874880  1
  N  N2153  1  0.217700  0.239640  0.320390  1
  N  N2154  1  0.782300  0.739640  0.179610  1
  N  N2155  1  0.782300  0.760360  0.679610  1
  N  N2156  1  0.217700  0.260360  0.820390  1
  N  N2157  1  0.168300  0.195960  0.371080  1
  N  N2158  1  0.831700  0.695960  0.128920  1
  N  N2159  1  0.831700  0.804040  0.628920  1
  N  N2160  1  0.168300  0.304040  0.871080  1
  N  N2161  1  0.182800  0.207500  0.352270  1
  N  N2162  1  0.817200  0.707500  0.147730  1
  N  N2163  1  0.817200  0.792500  0.647730  1
  N  N2164  1  0.182800  0.292500  0.852270  1
  N  N2165  1  0.827000  0.307460  0.440120  1
  N  N2166  1  0.173000  0.807460  0.059880  1
  N  N2167  1  0.173000  0.692540  0.559880  1
  N  N2168  1  0.827000  0.192540  0.940120  1
  N  N2169  1  0.969000  0.345350  0.431290  1
  N  N2170  1  0.031000  0.845350  0.068710  1
  N  N2171  1  0.031000  0.654650  0.568710  1
  N  N2172  1  0.969000  0.154650  0.931290  1
  N  N2173  1  0.916700  0.335560  0.432840  1
  N  N2174  1  0.083300  0.835560  0.067160  1
  N  N2175  1  0.083300  0.664440  0.567160  1
  N  N2176  1  0.916700  0.164440  0.932840  1
  N  N2177  1  0.157400  0.382560  0.321080  1
  N  N2178  1  0.842600  0.882560  0.178920  1
  N  N2179  1  0.842600  0.617440  0.678920  1
  N  N2180  1  0.157400  0.117440  0.821080  1
  N  N2181  1  0.004000  0.366500  0.328460  1
  N  N2182  1  0.996000  0.866500  0.171540  1
  N  N2183  1  0.996000  0.633500  0.671540  1
  N  N2184  1  0.004000  0.133500  0.828460  1
  N  N2185  1  0.057500  0.374190  0.327930  1
  N  N2186  1  0.942500  0.874190  0.172070  1
  N  N2187  1  0.942500  0.625810  0.672070  1
  N  N2188  1  0.057500  0.125810  0.827930  1
  N  N2189  1  0.077100  0.241910  0.558710  1
  N  N2190  1  0.922900  0.741910  0.941290  1
  N  N2191  1  0.922900  0.758090  0.441290  1
  N  N2192  1  0.077100  0.258090  0.058710  1
  N  N2193  1  0.204500  0.297330  0.559960  1
  N  N2194  1  0.795500  0.797330  0.940040  1
  N  N2195  1  0.795500  0.702670  0.440040  1
  N  N2196  1  0.204500  0.202670  0.059960  1
  N  N2197  1  0.156800  0.280540  0.558790  1
  N  N2198  1  0.843200  0.780540  0.941210  1
  N  N2199  1  0.843200  0.719460  0.441210  1
  N  N2200  1  0.156800  0.219460  0.058790  1
  N  N2201  1  0.338600  0.422700  0.464620  1
  N  N2202  1  0.661400  0.922700  0.035380  1
  N  N2203  1  0.661400  0.577300  0.535380  1
  N  N2204  1  0.338600  0.077300  0.964620  1
  N  N2205  1  0.212000  0.367280  0.466380  1
  N  N2206  1  0.788000  0.867280  0.033620  1
  N  N2207  1  0.788000  0.632720  0.533620  1
  N  N2208  1  0.212000  0.132720  0.966380  1
  N  N2209  1  0.255100  0.388050  0.468250  1
  N  N2210  1  0.744900  0.888050  0.031750  1
  N  N2211  1  0.744900  0.611950  0.531750  1
  N  N2212  1  0.255100  0.111950  0.968250  1
  N  N2213  1  0.150000  0.127270  0.512020  1
  N  N2214  1  0.850000  0.627270  0.987980  1
  N  N2215  1  0.850000  0.872730  0.487980  1
  N  N2216  1  0.150000  0.372730  0.012020  1
  N  N2217  1  0.227100  0.160800  0.464390  1
  N  N2218  1  0.772900  0.660800  0.035610  1
  N  N2219  1  0.772900  0.839200  0.535610  1
  N  N2220  1  0.227100  0.339200  0.964390  1
  N  N2221  1  0.203600  0.144270  0.479820  1
  N  N2222  1  0.796400  0.644270  0.020180  1
  N  N2223  1  0.796400  0.855730  0.520180  1
  N  N2224  1  0.203600  0.355730  0.979820  1
  N  N2225  1  0.469300  0.294130  0.441900  1
  N  N2226  1  0.530700  0.794130  0.058100  1
  N  N2227  1  0.530700  0.705870  0.558100  1
  N  N2228  1  0.469300  0.205870  0.941900  1
  N  N2229  1  0.476000  0.217460  0.478120  1
  N  N2230  1  0.524000  0.717460  0.021880  1
  N  N2231  1  0.524000  0.782540  0.521880  1
  N  N2232  1  0.476000  0.282540  0.978120  1
  N  N2233  1  0.468200  0.242140  0.463920  1
  N  N2234  1  0.531800  0.742140  0.036080  1
  N  N2235  1  0.531800  0.757860  0.536080  1
  N  N2236  1  0.468200  0.257860  0.963920  1
  N  N2237  1  0.138900  0.152400  0.320500  1
  N  N2238  1  0.861100  0.652400  0.179500  1
  N  N2239  1  0.861100  0.847600  0.679500  1
  N  N2240  1  0.138900  0.347600  0.820500  1
  N  N2241  1  0.070700  0.235730  0.308860  1
  N  N2242  1  0.929300  0.735730  0.191140  1
  N  N2243  1  0.929300  0.764270  0.691140  1
  N  N2244  1  0.070700  0.264270  0.808860  1
  N  N2245  1  0.099500  0.208200  0.313880  1
  N  N2246  1  0.900500  0.708200  0.186120  1
  N  N2247  1  0.900500  0.791800  0.686120  1
  N  N2248  1  0.099500  0.291800  0.813880  1
  N  N2249  1  0.065200  0.425900  0.366250  1
  N  N2250  1  0.934800  0.925900  0.133750  1
  N  N2251  1  0.934800  0.574100  0.633750  1
  N  N2252  1  0.065200  0.074100  0.866250  1
  N  N2253  1  0.161300  0.350850  0.375100  1
  N  N2254  1  0.838700  0.850850  0.124900  1
  N  N2255  1  0.838700  0.649150  0.624900  1
  N  N2256  1  0.161300  0.149150  0.875100  1
  N  N2257  1  0.129900  0.377100  0.369360  1
  N  N2258  1  0.870100  0.877100  0.130640  1
  N  N2259  1  0.870100  0.622900  0.630640  1
  N  N2260  1  0.129900  0.122900  0.869360  1
  N  N2261  1  0.086700  0.441800  0.321060  1
  N  N2262  1  0.913300  0.941800  0.178940  1
  N  N2263  1  0.913300  0.558200  0.678940  1
  N  N2264  1  0.086700  0.058200  0.821060  1
  N  N2265  1  0.215800  0.447100  0.361060  1
  N  N2266  1  0.784200  0.947100  0.138940  1
  N  N2267  1  0.784200  0.552900  0.638940  1
  N  N2268  1  0.215800  0.052900  0.861060  1
  N  N2269  1  0.171000  0.440950  0.347610  1
  N  N2270  1  0.829000  0.940950  0.152390  1
  N  N2271  1  0.829000  0.559050  0.652390  1
  N  N2272  1  0.171000  0.059050  0.847610  1
  N  N2273  1  0.322800  0.462390  0.504970  1
  N  N2274  1  0.677200  0.962390  0.995030  1
  N  N2275  1  0.677200  0.537610  0.495030  1
  N  N2276  1  0.322800  0.037610  0.004970  1
  N  N2277  1  0.203600  0.470400  0.460200  1
  N  N2278  1  0.796400  0.970400  0.039800  1
  N  N2279  1  0.796400  0.529600  0.539800  1
  N  N2280  1  0.203600  0.029600  0.960200  1
  N  N2281  1  0.245200  0.463690  0.475060  1
  N  N2282  1  0.754800  0.963690  0.024940  1
  N  N2283  1  0.754800  0.536310  0.524940  1
  N  N2284  1  0.245200  0.036310  0.975060  1
  N  N2285  1  0.234600  0.421040  0.513250  1
  N  N2286  1  0.765400  0.921040  0.986750  1
  N  N2287  1  0.765400  0.578960  0.486750  1
  N  N2288  1  0.234600  0.078960  0.013250  1
  N  N2289  1  0.371800  0.372940  0.512810  1
  N  N2290  1  0.628200  0.872940  0.987190  1
  N  N2291  1  0.628200  0.627060  0.487190  1
  N  N2292  1  0.371800  0.127060  0.012810  1
  N  N2293  1  0.324600  0.390100  0.509860  1
  N  N2294  1  0.675400  0.890100  0.990140  1
  N  N2295  1  0.675400  0.609900  0.490140  1
  N  N2296  1  0.324600  0.109900  0.009860  1
  N  N2297  1  0.438900  0.202240  0.422510  1
  N  N2298  1  0.561100  0.702240  0.077490  1
  N  N2299  1  0.561100  0.797760  0.577490  1
  N  N2300  1  0.438900  0.297760  0.922510  1
  N  N2301  1  0.330500  0.267880  0.434080  1
  N  N2302  1  0.669500  0.767880  0.065920  1
  N  N2303  1  0.669500  0.732120  0.565920  1
  N  N2304  1  0.330500  0.232120  0.934080  1
  N  N2305  1  0.373300  0.248300  0.430660  1
  N  N2306  1  0.626700  0.748300  0.069340  1
  N  N2307  1  0.626700  0.751700  0.569340  1
  N  N2308  1  0.373300  0.251700  0.930660  1
  N  N2309  1  0.188500  0.189570  0.287520  1
  N  N2310  1  0.811500  0.689570  0.212480  1
  N  N2311  1  0.811500  0.810430  0.712480  1
  N  N2312  1  0.188500  0.310430  0.787520  1
  N  N2313  1  0.288900  0.156620  0.333810  1
  N  N2314  1  0.711100  0.656620  0.166190  1
  N  N2315  1  0.711100  0.843380  0.666190  1
  N  N2316  1  0.288900  0.343380  0.833810  1
  N  N2317  1  0.253300  0.171780  0.319460  1
  N  N2318  1  0.746700  0.671780  0.180540  1
  N  N2319  1  0.746700  0.828220  0.680540  1
  N  N2320  1  0.253300  0.328220  0.819460  1
  N  N2321  1  0.539600  0.246920  0.428060  1
  N  N2322  1  0.460400  0.746920  0.071940  1
  N  N2323  1  0.460400  0.753080  0.571940  1
  N  N2324  1  0.539600  0.253080  0.928060  1
  N  N2325  1  0.435400  0.268900  0.380890  1
  N  N2326  1  0.564600  0.768900  0.119110  1
  N  N2327  1  0.564600  0.731100  0.619110  1
  N  N2328  1  0.435400  0.231100  0.880890  1
  N  N2329  1  0.466300  0.259770  0.398680  1
  N  N2330  1  0.533700  0.759770  0.101320  1
  N  N2331  1  0.533700  0.740230  0.601320  1
  N  N2332  1  0.466300  0.240230  0.898680  1
  N  N2333  1  0.132400  0.310400  0.139600  1
  N  N2334  1  0.867600  0.810400  0.360400  1
  N  N2335  1  0.867600  0.689600  0.860400  1
  N  N2336  1  0.132400  0.189600  0.639600  1
  N  N2337  1  0.223300  0.707900  0.491740  1
  N  N2338  1  0.776700  0.207900  0.008260  1
  N  N2339  1  0.776700  0.292100  0.508260  1
  N  N2340  1  0.223300  0.792100  0.991740  1
  N  N2341  1  0.854300  0.151500  0.476500  1
  N  N2342  1  0.145700  0.651500  0.023500  1
  N  N2343  1  0.145700  0.848500  0.523500  1
  N  N2344  1  0.854300  0.348500  0.976500  1
  N  N2345  1  0.004400  0.796500  0.390600  1
  N  N2346  1  0.995600  0.296500  0.109400  1
  N  N2347  1  0.995600  0.203500  0.609400  1
  N  N2348  1  0.004400  0.703500  0.890600  1
  N  N2349  1  0.351900  0.537500  0.450000  1
  N  N2350  1  0.648100  0.037500  0.050000  1
  N  N2351  1  0.648100  0.462500  0.550000  1
  N  N2352  1  0.351900  0.962500  0.950000  1
  Cl  Cl2353  1  0.320170  0.335090  0.386300  1
  Cl  Cl2354  1  0.679830  0.835090  0.113700  1
  Cl  Cl2355  1  0.679830  0.664910  0.613700  1
  Cl  Cl2356  1  0.320170  0.164910  0.886300  1
  Cl  Cl2357  1  0.065570  0.410170  0.462040  1
  Cl  Cl2358  1  0.934430  0.910170  0.037960  1
  Cl  Cl2359  1  0.934430  0.589830  0.537960  1
  Cl  Cl2360  1  0.065570  0.089830  0.962040  1
  Cl  Cl2361  1  0.176360  0.713790  0.377090  1
  Cl  Cl2362  1  0.823640  0.213790  0.122910  1
  Cl  Cl2363  1  0.823640  0.286210  0.622910  1
  Cl  Cl2364  1  0.176360  0.786210  0.877090  1
  Cl  Cl2365  1  0.460440  0.335820  0.233730  1
  Cl  Cl2366  1  0.539560  0.835820  0.266270  1
  Cl  Cl2367  1  0.539560  0.664180  0.766270  1
  Cl  Cl2368  1  0.460440  0.164180  0.733730  1
  Cl  Cl2369  1  0.082590  0.277400  0.254030  1
  Cl  Cl2370  1  0.917410  0.777400  0.245970  1
  Cl  Cl2371  1  0.917410  0.722600  0.745970  1
  Cl  Cl2372  1  0.082590  0.222600  0.754030  1
  Cl  Cl2373  1  0.238300  0.363900  0.602850  1
  Cl  Cl2374  1  0.761700  0.863900  0.897150  1
  Cl  Cl2375  1  0.761700  0.636100  0.397150  1
  Cl  Cl2376  1  0.238300  0.136100  0.102850  1
  Cl  Cl2377  1  0.239940  0.141470  0.591860  1
  Cl  Cl2378  1  0.760060  0.641470  0.908140  1
  Cl  Cl2379  1  0.760060  0.858530  0.408140  1
  Cl  Cl2380  1  0.239940  0.358530  0.091860  1
  Cl  Cl2381  1  0.386300  0.251210  0.561340  1
  Cl  Cl2382  1  0.613700  0.751210  0.938660  1
  Cl  Cl2383  1  0.613700  0.748790  0.438660  1
  Cl  Cl2384  1  0.386300  0.248790  0.061340  1
  Cl  Cl2385  1  0.442340  0.627340  0.287810  1
  Cl  Cl2386  1  0.557660  0.127340  0.212190  1
  Cl  Cl2387  1  0.557660  0.372660  0.712190  1
  Cl  Cl2388  1  0.442340  0.872660  0.787810  1
  Cl  Cl2389  1  0.220700  0.122890  0.409880  1
  Cl  Cl2390  1  0.779300  0.622890  0.090120  1
  Cl  Cl2391  1  0.779300  0.877110  0.590120  1
  Cl  Cl2392  1  0.220700  0.377110  0.909880  1
  Cl  Cl2393  1  0.134900  0.034030  0.284690  1
  Cl  Cl2394  1  0.865100  0.534030  0.215310  1
  Cl  Cl2395  1  0.865100  0.965970  0.715310  1
  Cl  Cl2396  1  0.134900  0.465970  0.784690  1
  Cl  Cl2397  1  0.537020  0.138560  0.516380  1
  Cl  Cl2398  1  0.462980  0.638560  0.983620  1
  Cl  Cl2399  1  0.462980  0.861440  0.483620  1
  Cl  Cl2400  1  0.537020  0.361440  0.016380  1
  Cl  Cl2401  1  0.613680  0.160510  0.440990  1
  Cl  Cl2402  1  0.386320  0.660510  0.059010  1
  Cl  Cl2403  1  0.386320  0.839490  0.559010  1
  Cl  Cl2404  1  0.613680  0.339490  0.940990  1
  O  O2405  1  0.867800  0.234830  0.415070  1
  O  O2406  1  0.132200  0.734830  0.084930  1
  O  O2407  1  0.132200  0.765170  0.584930  1
  O  O2408  1  0.867800  0.265170  0.915070  1
  O  O2409  1  0.923000  0.333900  0.495690  1
  O  O2410  1  0.077000  0.833900  0.004310  1
  O  O2411  1  0.077000  0.666100  0.504310  1
  O  O2412  1  0.923000  0.166100  0.995690  1
  O  O2413  1  0.156900  0.207000  0.523520  1
  O  O2414  1  0.843100  0.707000  0.976480  1
  O  O2415  1  0.843100  0.793000  0.476480  1
  O  O2416  1  0.156900  0.293000  0.023520  1
  O  O2417  1  0.049800  0.090580  0.453890  1
  O  O2418  1  0.950200  0.590580  0.046110  1
  O  O2419  1  0.950200  0.909420  0.546110  1
  O  O2420  1  0.049800  0.409420  0.953890  1
  O  O2421  1  0.045200  0.169470  0.359290  1
  O  O2422  1  0.954800  0.669470  0.140710  1
  O  O2423  1  0.954800  0.830530  0.640710  1
  O  O2424  1  0.045200  0.330530  0.859290  1
  O  O2425  1  0.973300  0.375800  0.381050  1
  O  O2426  1  0.026700  0.875800  0.118950  1
  O  O2427  1  0.026700  0.624200  0.618950  1
  O  O2428  1  0.973300  0.124200  0.881050  1
  O  O2429  1  0.190500  0.345500  0.517340  1
  O  O2430  1  0.809500  0.845500  0.982660  1
  O  O2431  1  0.809500  0.654500  0.482660  1
  O  O2432  1  0.190500  0.154500  0.017340  1
  O  O2433  1  0.367100  0.168700  0.465430  1
  O  O2434  1  0.632900  0.668700  0.034570  1
  O  O2435  1  0.632900  0.831300  0.534570  1
  O  O2436  1  0.367100  0.331300  0.965430  1
  O  O2437  1  0.137800  0.300290  0.334250  1
  O  O2438  1  0.862200  0.800290  0.165750  1
  O  O2439  1  0.862200  0.699710  0.665750  1
  O  O2440  1  0.137800  0.199710  0.834250  1
  O  O2441  1  0.207300  0.436330  0.409680  1
  O  O2442  1  0.792700  0.936330  0.090320  1
  O  O2443  1  0.792700  0.563670  0.590320  1
  O  O2444  1  0.207300  0.063670  0.909680  1
  O  O2445  1  0.366000  0.334120  0.466860  1
  O  O2446  1  0.634000  0.834120  0.033140  1
  O  O2447  1  0.634000  0.665880  0.533140  1
  O  O2448  1  0.366000  0.165880  0.966860  1
  O  O2449  1  0.332400  0.213480  0.366090  1
  O  O2450  1  0.667600  0.713480  0.133910  1
  O  O2451  1  0.667600  0.786520  0.633910  1
  O  O2452  1  0.332400  0.286520  0.866090  1
  O  O2453  1  0.327500  0.330400  0.365230  1
  O  O2454  1  0.672500  0.830400  0.134770  1
  O  O2455  1  0.672500  0.669600  0.634770  1
  O  O2456  1  0.327500  0.169600  0.865230  1
  O  O2457  1  0.369900  0.334600  0.397890  1
  O  O2458  1  0.630100  0.834600  0.102110  1
  O  O2459  1  0.630100  0.665400  0.602110  1
  O  O2460  1  0.369900  0.165400  0.897890  1
  O  O2461  1  0.288900  0.309400  0.393340  1
  O  O2462  1  0.711100  0.809400  0.106660  1
  O  O2463  1  0.711100  0.690600  0.606660  1
  O  O2464  1  0.288900  0.190600  0.893340  1
  O  O2465  1  0.294300  0.363600  0.389160  1
  O  O2466  1  0.705700  0.863600  0.110840  1
  O  O2467  1  0.705700  0.636400  0.610840  1
  O  O2468  1  0.294300  0.136400  0.889160  1
  O  O2469  1  0.093700  0.389100  0.450090  1
  O  O2470  1  0.906300  0.889100  0.049910  1
  O  O2471  1  0.906300  0.610900  0.549910  1
  O  O2472  1  0.093700  0.110900  0.950090  1
  O  O2473  1  0.022000  0.393500  0.468440  1
  O  O2474  1  0.978000  0.893500  0.031560  1
  O  O2475  1  0.978000  0.606500  0.531560  1
  O  O2476  1  0.022000  0.106500  0.968440  1
  O  O2477  1  0.097900  0.420900  0.479300  1
  O  O2478  1  0.902100  0.920900  0.020700  1
  O  O2479  1  0.902100  0.579100  0.520700  1
  O  O2480  1  0.097900  0.079100  0.979300  1
  O  O2481  1  0.048300  0.436300  0.449750  1
  O  O2482  1  0.951700  0.936300  0.050250  1
  O  O2483  1  0.951700  0.563700  0.550250  1
  O  O2484  1  0.048300  0.063700  0.949750  1
  O  O2485  1  0.121200  0.719700  0.377320  1
  O  O2486  1  0.878800  0.219700  0.122680  1
  O  O2487  1  0.878800  0.280300  0.622680  1
  O  O2488  1  0.121200  0.780300  0.877320  1
  O  O2489  1  0.184800  0.685430  0.367180  1
  O  O2490  1  0.815200  0.185430  0.132820  1
  O  O2491  1  0.815200  0.314570  0.632820  1
  O  O2492  1  0.184800  0.814570  0.867180  1
  O  O2493  1  0.199000  0.712300  0.397550  1
  O  O2494  1  0.801000  0.212300  0.102450  1
  O  O2495  1  0.801000  0.287700  0.602450  1
  O  O2496  1  0.199000  0.787700  0.897550  1
  O  O2497  1  0.198900  0.738700  0.366630  1
  O  O2498  1  0.801100  0.238700  0.133370  1
  O  O2499  1  0.801100  0.261300  0.633370  1
  O  O2500  1  0.198900  0.761300  0.866630  1
  O  O2501  1  0.446700  0.330900  0.254480  1
  O  O2502  1  0.553300  0.830900  0.245520  1
  O  O2503  1  0.553300  0.669100  0.745520  1
  O  O2504  1  0.446700  0.169100  0.754480  1
  O  O2505  1  0.412600  0.335240  0.220730  1
  O  O2506  1  0.587400  0.835240  0.279270  1
  O  O2507  1  0.587400  0.664760  0.779270  1
  O  O2508  1  0.412600  0.164760  0.720730  1
  O  O2509  1  0.486200  0.365040  0.232600  1
  O  O2510  1  0.513800  0.865040  0.267400  1
  O  O2511  1  0.513800  0.634960  0.767400  1
  O  O2512  1  0.486200  0.134960  0.732600  1
  O  O2513  1  0.493300  0.310940  0.227950  1
  O  O2514  1  0.506700  0.810940  0.272050  1
  O  O2515  1  0.506700  0.689060  0.772050  1
  O  O2516  1  0.493300  0.189060  0.727950  1
  O  O2517  1  0.046500  0.266500  0.267240  1
  O  O2518  1  0.953500  0.766500  0.232760  1
  O  O2519  1  0.953500  0.733500  0.732760  1
  O  O2520  1  0.046500  0.233500  0.767240  1
  O  O2521  1  0.079200  0.257900  0.236700  1
  O  O2522  1  0.920800  0.757900  0.263300  1
  O  O2523  1  0.920800  0.742100  0.763300  1
  O  O2524  1  0.079200  0.242100  0.736700  1
  O  O2525  1  0.134500  0.275900  0.263410  1
  O  O2526  1  0.865500  0.775900  0.236590  1
  O  O2527  1  0.865500  0.724100  0.736590  1
  O  O2528  1  0.134500  0.224100  0.763410  1
  O  O2529  1  0.072700  0.308300  0.248300  1
  O  O2530  1  0.927300  0.808300  0.251700  1
  O  O2531  1  0.927300  0.691700  0.751700  1
  O  O2532  1  0.072700  0.191700  0.748300  1
  O  O2533  1  0.220900  0.333500  0.607280  1
  O  O2534  1  0.779100  0.833500  0.892720  1
  O  O2535  1  0.779100  0.666500  0.392720  1
  O  O2536  1  0.220900  0.166500  0.107280  1
  O  O2537  1  0.281500  0.361300  0.590360  1
  O  O2538  1  0.718500  0.861300  0.909640  1
  O  O2539  1  0.718500  0.638700  0.409640  1
  O  O2540  1  0.281500  0.138700  0.090360  1
  O  O2541  1  0.197400  0.380700  0.591850  1
  O  O2542  1  0.802600  0.880700  0.908150  1
  O  O2543  1  0.802600  0.619300  0.408150  1
  O  O2544  1  0.197400  0.119300  0.091850  1
  O  O2545  1  0.255800  0.380100  0.621140  1
  O  O2546  1  0.744200  0.880100  0.878860  1
  O  O2547  1  0.744200  0.619900  0.378860  1
  O  O2548  1  0.255800  0.119900  0.121140  1
  O  O2549  1  0.193700  0.135320  0.579030  1
  O  O2550  1  0.806300  0.635320  0.920970  1
  O  O2551  1  0.806300  0.864680  0.420970  1
  O  O2552  1  0.193700  0.364680  0.079030  1
  O  O2553  1  0.284600  0.129500  0.582580  1
  O  O2554  1  0.715400  0.629500  0.917420  1
  O  O2555  1  0.715400  0.870500  0.417420  1
  O  O2556  1  0.284600  0.370500  0.082580  1
  O  O2557  1  0.236900  0.126800  0.611370  1
  O  O2558  1  0.763100  0.626800  0.888630  1
  O  O2559  1  0.763100  0.873200  0.388630  1
  O  O2560  1  0.236900  0.373200  0.111370  1
  O  O2561  1  0.246400  0.174500  0.594610  1
  O  O2562  1  0.753600  0.674500  0.905390  1
  O  O2563  1  0.753600  0.825500  0.405390  1
  O  O2564  1  0.246400  0.325500  0.094610  1
  O  O2565  1  0.403500  0.237500  0.544300  1
  O  O2566  1  0.596500  0.737500  0.955700  1
  O  O2567  1  0.596500  0.762500  0.455700  1
  O  O2568  1  0.403500  0.262500  0.044300  1
  O  O2569  1  0.348500  0.231500  0.569700  1
  O  O2570  1  0.651500  0.731500  0.930300  1
  O  O2571  1  0.651500  0.768500  0.430300  1
  O  O2572  1  0.348500  0.268500  0.069700  1
  O  O2573  1  0.429200  0.253400  0.577360  1
  O  O2574  1  0.570800  0.753400  0.922640  1
  O  O2575  1  0.570800  0.746600  0.422640  1
  O  O2576  1  0.429200  0.246600  0.077360  1
  O  O2577  1  0.366000  0.281100  0.557700  1
  O  O2578  1  0.634000  0.781100  0.942300  1
  O  O2579  1  0.634000  0.718900  0.442300  1
  O  O2580  1  0.366000  0.218900  0.057700  1
  O  O2581  1  0.474900  0.607100  0.300300  1
  O  O2582  1  0.525100  0.107100  0.199700  1
  O  O2583  1  0.525100  0.392900  0.699700  1
  O  O2584  1  0.474900  0.892900  0.800300  1
  O  O2585  1  0.403300  0.641100  0.299800  1
  O  O2586  1  0.596700  0.141100  0.200200  1
  O  O2587  1  0.596700  0.358900  0.700200  1
  O  O2588  1  0.403300  0.858900  0.799800  1
  O  O2589  1  0.471800  0.652600  0.280300  1
  O  O2590  1  0.528200  0.152600  0.219700  1
  O  O2591  1  0.528200  0.347400  0.719700  1
  O  O2592  1  0.471800  0.847400  0.780300  1
  O  O2593  1  0.416500  0.610600  0.270900  1
  O  O2594  1  0.583500  0.110600  0.229100  1
  O  O2595  1  0.583500  0.389400  0.729100  1
  O  O2596  1  0.416500  0.889400  0.770900  1
  O  O2597  1  0.199000  0.109000  0.391790  1
  O  O2598  1  0.801000  0.609000  0.108210  1
  O  O2599  1  0.801000  0.891000  0.608210  1
  O  O2600  1  0.199000  0.391000  0.891790  1
  O  O2601  1  0.239000  0.152900  0.406130  1
  O  O2602  1  0.761000  0.652900  0.093870  1
  O  O2603  1  0.761000  0.847100  0.593870  1
  O  O2604  1  0.239000  0.347100  0.906130  1
  O  O2605  1  0.177600  0.128000  0.422900  1
  O  O2606  1  0.822400  0.628000  0.077100  1
  O  O2607  1  0.822400  0.872000  0.577100  1
  O  O2608  1  0.177600  0.372000  0.922900  1
  O  O2609  1  0.257100  0.104200  0.420900  1
  O  O2610  1  0.742900  0.604200  0.079100  1
  O  O2611  1  0.742900  0.895800  0.579100  1
  O  O2612  1  0.257100  0.395800  0.920900  1
  O  O2613  1  0.130700  0.017700  0.264930  1
  O  O2614  1  0.869300  0.517700  0.235070  1
  O  O2615  1  0.869300  0.982300  0.735070  1
  O  O2616  1  0.130700  0.482300  0.764930  1
  O  O2617  1  0.169200  0.061200  0.283000  1
  O  O2618  1  0.830800  0.561200  0.217000  1
  O  O2619  1  0.830800  0.938800  0.717000  1
  O  O2620  1  0.169200  0.438800  0.783000  1
  O  O2621  1  0.082800  0.044400  0.289000  1
  O  O2622  1  0.917200  0.544400  0.211000  1
  O  O2623  1  0.917200  0.955600  0.711000  1
  O  O2624  1  0.082800  0.455600  0.789000  1
  O  O2625  1  0.156900  0.012600  0.300210  1
  O  O2626  1  0.843100  0.512600  0.199790  1
  O  O2627  1  0.843100  0.987400  0.699790  1
  O  O2628  1  0.156900  0.487400  0.800210  1
  O  O2629  1  0.555000  0.168000  0.510400  1
  O  O2630  1  0.445000  0.668000  0.989600  1
  O  O2631  1  0.445000  0.832000  0.489600  1
  O  O2632  1  0.555000  0.332000  0.010400  1
  O  O2633  1  0.578100  0.123900  0.528580  1
  O  O2634  1  0.421900  0.623900  0.971420  1
  O  O2635  1  0.421900  0.876100  0.471420  1
  O  O2636  1  0.578100  0.376100  0.028580  1
  O  O2637  1  0.492500  0.143500  0.528350  1
  O  O2638  1  0.507500  0.643500  0.971650  1
  O  O2639  1  0.507500  0.856500  0.471650  1
  O  O2640  1  0.492500  0.356500  0.028350  1
  O  O2641  1  0.520500  0.120400  0.499330  1
  O  O2642  1  0.479500  0.620400  0.000670  1
  O  O2643  1  0.479500  0.879600  0.500670  1
  O  O2644  1  0.520500  0.379600  0.999330  1
  O  O2645  1  0.604600  0.176000  0.421380  1
  O  O2646  1  0.395400  0.676000  0.078620  1
  O  O2647  1  0.395400  0.824000  0.578620  1
  O  O2648  1  0.604600  0.324000  0.921380  1
  O  O2649  1  0.569100  0.166900  0.452930  1
  O  O2650  1  0.430900  0.666900  0.047070  1
  O  O2651  1  0.430900  0.833100  0.547070  1
  O  O2652  1  0.569100  0.333100  0.952930  1
  O  O2653  1  0.620900  0.128200  0.438520  1
  O  O2654  1  0.379100  0.628200  0.061480  1
  O  O2655  1  0.379100  0.871800  0.561480  1
  O  O2656  1  0.620900  0.371800  0.938520  1
  O  O2657  1  0.659300  0.174800  0.452180  1
  O  O2658  1  0.340700  0.674800  0.047820  1
  O  O2659  1  0.340700  0.825200  0.547820  1
  O  O2660  1  0.659300  0.325200  0.952180  1
  O  O2661  1  0.100000  0.314500  0.153700  1
  O  O2662  1  0.900000  0.814500  0.346300  1
  O  O2663  1  0.900000  0.685500  0.846300  1
  O  O2664  1  0.100000  0.185500  0.653700  1
  O  O2665  1  0.152000  0.286400  0.136420  1
  O  O2666  1  0.848000  0.786400  0.363580  1
  O  O2667  1  0.848000  0.713600  0.863580  1
  O  O2668  1  0.152000  0.213600  0.636420  1
  O  O2669  1  0.267800  0.715700  0.493830  1
  O  O2670  1  0.732200  0.215700  0.006170  1
  O  O2671  1  0.732200  0.284300  0.506170  1
  O  O2672  1  0.267800  0.784300  0.993830  1
  O  O2673  1  0.187800  0.724000  0.483440  1
  O  O2674  1  0.812200  0.224000  0.016560  1
  O  O2675  1  0.812200  0.276000  0.516560  1
  O  O2676  1  0.187800  0.776000  0.983440  1
  O  O2677  1  0.881000  0.134500  0.465300  1
  O  O2678  1  0.119000  0.634500  0.034700  1
  O  O2679  1  0.119000  0.865500  0.534700  1
  O  O2680  1  0.881000  0.365500  0.965300  1
  O  O2681  1  0.830300  0.174100  0.471420  1
  O  O2682  1  0.169700  0.674100  0.028580  1
  O  O2683  1  0.169700  0.825900  0.528580  1
  O  O2684  1  0.830300  0.325900  0.971420  1
  O  O2685  1  0.958000  0.786100  0.387990  1
  O  O2686  1  0.042000  0.286100  0.112010  1
  O  O2687  1  0.042000  0.213900  0.612010  1
  O  O2688  1  0.958000  0.713900  0.887990  1
  O  O2689  1  0.038200  0.780100  0.398730  1
  O  O2690  1  0.961800  0.280100  0.101270  1
  O  O2691  1  0.961800  0.219900  0.601270  1
  O  O2692  1  0.038200  0.719900  0.898730  1
  O  O2693  1  0.346200  0.512000  0.457500  1
  O  O2694  1  0.653800  0.012000  0.042500  1
  O  O2695  1  0.653800  0.488000  0.542500  1
  O  O2696  1  0.346200  0.988000  0.957500  1
  O  O2697  1  0.347800  0.543100  0.431700  1
  O  O2698  1  0.652200  0.043100  0.068300  1
  O  O2699  1  0.652200  0.456900  0.568300  1
  O  O2700  1  0.347800  0.956900  0.931700  1
  O  O2701  1  0.262700  0.670450  0.240090  1
  O  O2702  1  0.737300  0.170450  0.259910  1
  O  O2703  1  0.737300  0.329550  0.759910  1
  O  O2704  1  0.262700  0.829550  0.740090  1
