# generated using pymatgen
data_Co4B8H126C138S6N42O12F35
_symmetry_space_group_name_H-M   'P 1'
_cell_length_a   18.29410000
_cell_length_b   25.78130000
_cell_length_c   39.88110000
_cell_angle_alpha   90.62100000
_cell_angle_beta   90.00000000
_cell_angle_gamma   90.00000000
_symmetry_Int_Tables_number   1
_chemical_formula_structural   Co4B8H126C138S6N42O12F35
_chemical_formula_sum   'Co16 B32 H504 C552 S24 N168 O48 F140'
_cell_volume   18808.64373415
_cell_formula_units_Z   4
loop_
 _symmetry_equiv_pos_site_id
 _symmetry_equiv_pos_as_xyz
  1  'x, y, z'
loop_
 _atom_site_type_symbol
 _atom_site_label
 _atom_site_symmetry_multiplicity
 _atom_site_fract_x
 _atom_site_fract_y
 _atom_site_fract_z
 _atom_site_occupancy
  Co  Co1  1  0.829400  0.223440  0.725560  1.0
  Co  Co2  1  0.829400  0.776560  0.774440  1.0
  Co  Co3  1  0.329400  0.723440  0.725560  1.0
  Co  Co4  1  0.329400  0.276560  0.774440  1.0
  Co  Co5  1  0.170600  0.776560  0.274440  1.0
  Co  Co6  1  0.170600  0.223440  0.225560  1.0
  Co  Co7  1  0.670600  0.276560  0.274440  1.0
  Co  Co8  1  0.670600  0.723440  0.225560  1.0
  Co  Co9  1  0.812070  0.436140  0.917710  1.0
  Co  Co10  1  0.812070  0.563860  0.582290  1.0
  Co  Co11  1  0.312070  0.936140  0.917710  1.0
  Co  Co12  1  0.312070  0.063860  0.582290  1.0
  Co  Co13  1  0.187930  0.563860  0.082290  1.0
  Co  Co14  1  0.187930  0.436140  0.417710  1.0
  Co  Co15  1  0.687930  0.063860  0.082290  1.0
  Co  Co16  1  0.687930  0.936140  0.417710  1.0
  B  B17  1  0.647200  0.500000  0.750000  1
  B  B18  1  0.147200  0.000000  0.750000  1
  B  B19  1  0.352800  0.500000  0.250000  1
  B  B20  1  0.852800  0.000000  0.250000  1
  B  B21  1  0.096900  0.681400  0.895300  1
  B  B22  1  0.096900  0.318600  0.604700  1
  B  B23  1  0.596900  0.181400  0.895300  1
  B  B24  1  0.596900  0.818600  0.604700  1
  B  B25  1  0.903100  0.318600  0.104700  1
  B  B26  1  0.903100  0.681400  0.395300  1
  B  B27  1  0.403100  0.818600  0.104700  1
  B  B28  1  0.403100  0.181400  0.395300  1
  B  B29  1  0.049000  0.500000  0.750000  1
  B  B30  1  0.549000  0.000000  0.750000  1
  B  B31  1  0.951000  0.500000  0.250000  1
  B  B32  1  0.451000  0.000000  0.250000  1
  B  B33  1  0.533700  0.688000  0.909100  1
  B  B34  1  0.533700  0.312000  0.590900  1
  B  B35  1  0.033700  0.188000  0.909100  1
  B  B36  1  0.033700  0.812000  0.590900  1
  B  B37  1  0.466300  0.312000  0.090900  1
  B  B38  1  0.466300  0.688000  0.409100  1
  B  B39  1  0.966300  0.812000  0.090900  1
  B  B40  1  0.966300  0.188000  0.409100  1
  B  B41  1  0.505600  0.662600  0.898200  1
  B  B42  1  0.505600  0.337400  0.601800  1
  B  B43  1  0.005600  0.162600  0.898200  1
  B  B44  1  0.005600  0.837400  0.601800  1
  B  B45  1  0.494400  0.337400  0.101800  1
  B  B46  1  0.494400  0.662600  0.398200  1
  B  B47  1  0.994400  0.837400  0.101800  1
  B  B48  1  0.994400  0.162600  0.398200  1
  H  H49  1  0.134800  0.589500  0.851000  1
  H  H50  1  0.134800  0.410500  0.649000  1
  H  H51  1  0.634800  0.089500  0.851000  1
  H  H52  1  0.634800  0.910500  0.649000  1
  H  H53  1  0.865200  0.410500  0.149000  1
  H  H54  1  0.865200  0.589500  0.351000  1
  H  H55  1  0.365200  0.910500  0.149000  1
  H  H56  1  0.365200  0.089500  0.351000  1
  H  H57  1  0.189100  0.597900  0.820100  1
  H  H58  1  0.189100  0.402100  0.679900  1
  H  H59  1  0.689100  0.097900  0.820100  1
  H  H60  1  0.689100  0.902100  0.679900  1
  H  H61  1  0.810900  0.402100  0.179900  1
  H  H62  1  0.810900  0.597900  0.320100  1
  H  H63  1  0.310900  0.902100  0.179900  1
  H  H64  1  0.310900  0.097900  0.320100  1
  H  H65  1  0.137400  0.547900  0.821000  1
  H  H66  1  0.137400  0.452100  0.679000  1
  H  H67  1  0.637400  0.047900  0.821000  1
  H  H68  1  0.637400  0.952100  0.679000  1
  H  H69  1  0.862600  0.452100  0.179000  1
  H  H70  1  0.862600  0.547900  0.321000  1
  H  H71  1  0.362600  0.952100  0.179000  1
  H  H72  1  0.362600  0.047900  0.321000  1
  H  H73  1  0.804200  0.882000  0.595000  1
  H  H74  1  0.804200  0.118000  0.905000  1
  H  H75  1  0.304200  0.382000  0.595000  1
  H  H76  1  0.304200  0.618000  0.905000  1
  H  H77  1  0.195800  0.118000  0.405000  1
  H  H78  1  0.195800  0.882000  0.095000  1
  H  H79  1  0.695800  0.618000  0.405000  1
  H  H80  1  0.695800  0.382000  0.095000  1
  H  H81  1  0.878300  0.911600  0.604500  1
  H  H82  1  0.878300  0.088400  0.895500  1
  H  H83  1  0.378300  0.411600  0.604500  1
  H  H84  1  0.378300  0.588400  0.895500  1
  H  H85  1  0.121700  0.088400  0.395500  1
  H  H86  1  0.121700  0.911600  0.104500  1
  H  H87  1  0.621700  0.588400  0.395500  1
  H  H88  1  0.621700  0.411600  0.104500  1
  H  H89  1  0.826800  0.933400  0.575400  1
  H  H90  1  0.826800  0.066600  0.924600  1
  H  H91  1  0.326800  0.433400  0.575400  1
  H  H92  1  0.326800  0.566600  0.924600  1
  H  H93  1  0.173200  0.066600  0.424600  1
  H  H94  1  0.173200  0.933400  0.075400  1
  H  H95  1  0.673200  0.566600  0.424600  1
  H  H96  1  0.673200  0.433400  0.075400  1
  H  H97  1  0.938300  0.588400  0.933600  1
  H  H98  1  0.938300  0.411600  0.566400  1
  H  H99  1  0.438300  0.088400  0.933600  1
  H  H100  1  0.438300  0.911600  0.566400  1
  H  H101  1  0.061700  0.411600  0.066400  1
  H  H102  1  0.061700  0.588400  0.433600  1
  H  H103  1  0.561700  0.911600  0.066400  1
  H  H104  1  0.561700  0.088400  0.433600  1
  H  H105  1  0.971700  0.644200  0.942900  1
  H  H106  1  0.971700  0.355800  0.557100  1
  H  H107  1  0.471700  0.144200  0.942900  1
  H  H108  1  0.471700  0.855800  0.557100  1
  H  H109  1  0.028300  0.355800  0.057100  1
  H  H110  1  0.028300  0.644200  0.442900  1
  H  H111  1  0.528300  0.855800  0.057100  1
  H  H112  1  0.528300  0.144200  0.442900  1
  H  H113  1  0.886000  0.633700  0.947300  1
  H  H114  1  0.886000  0.366300  0.552700  1
  H  H115  1  0.386000  0.133700  0.947300  1
  H  H116  1  0.386000  0.866300  0.552700  1
  H  H117  1  0.114000  0.366300  0.052700  1
  H  H118  1  0.114000  0.633700  0.447300  1
  H  H119  1  0.614000  0.866300  0.052700  1
  H  H120  1  0.614000  0.133700  0.447300  1
  H  H121  1  0.677300  0.202600  0.688200  1.0
  H  H122  1  0.677300  0.797400  0.811800  1.0
  H  H123  1  0.177300  0.702600  0.688200  1.0
  H  H124  1  0.177300  0.297400  0.811800  1.0
  H  H125  1  0.322700  0.797400  0.311800  1.0
  H  H126  1  0.322700  0.202600  0.188200  1.0
  H  H127  1  0.822700  0.297400  0.311800  1.0
  H  H128  1  0.822700  0.702600  0.188200  1.0
  H  H129  1  0.588600  0.249100  0.661100  1.0
  H  H130  1  0.588600  0.750900  0.838900  1.0
  H  H131  1  0.088600  0.749100  0.661100  1.0
  H  H132  1  0.088600  0.250900  0.838900  1.0
  H  H133  1  0.411400  0.750900  0.338900  1.0
  H  H134  1  0.411400  0.249100  0.161100  1.0
  H  H135  1  0.911400  0.250900  0.338900  1.0
  H  H136  1  0.911400  0.749100  0.161100  1.0
  H  H137  1  0.593600  0.339800  0.661200  1.0
  H  H138  1  0.593600  0.660200  0.838800  1.0
  H  H139  1  0.093600  0.839800  0.661200  1.0
  H  H140  1  0.093600  0.160200  0.838800  1.0
  H  H141  1  0.406400  0.660200  0.338800  1.0
  H  H142  1  0.406400  0.339800  0.161200  1.0
  H  H143  1  0.906400  0.160200  0.338800  1.0
  H  H144  1  0.906400  0.839800  0.161200  1.0
  H  H145  1  0.690200  0.381100  0.690400  1.0
  H  H146  1  0.690200  0.618900  0.809600  1.0
  H  H147  1  0.190200  0.881100  0.690400  1.0
  H  H148  1  0.190200  0.118900  0.809600  1.0
  H  H149  1  0.309800  0.618900  0.309600  1.0
  H  H150  1  0.309800  0.381100  0.190400  1.0
  H  H151  1  0.809800  0.118900  0.309600  1.0
  H  H152  1  0.809800  0.881100  0.190400  1.0
  H  H153  1  0.797900  0.417400  0.721700  1.0
  H  H154  1  0.797900  0.582600  0.778300  1.0
  H  H155  1  0.297900  0.917400  0.721700  1.0
  H  H156  1  0.297900  0.082600  0.778300  1.0
  H  H157  1  0.202100  0.582600  0.278300  1.0
  H  H158  1  0.202100  0.417400  0.221700  1.0
  H  H159  1  0.702100  0.082600  0.278300  1.0
  H  H160  1  0.702100  0.917400  0.221700  1.0
  H  H161  1  0.920700  0.413300  0.748400  1.0
  H  H162  1  0.920700  0.586700  0.751600  1.0
  H  H163  1  0.420700  0.913300  0.748400  1.0
  H  H164  1  0.420700  0.086700  0.751600  1.0
  H  H165  1  0.079300  0.586700  0.251600  1.0
  H  H166  1  0.079300  0.413300  0.248400  1.0
  H  H167  1  0.579300  0.086700  0.251600  1.0
  H  H168  1  0.579300  0.913300  0.248400  1.0
  H  H169  1  0.016100  0.320600  0.747900  1.0
  H  H170  1  0.016100  0.679400  0.752100  1.0
  H  H171  1  0.516100  0.820600  0.747900  1.0
  H  H172  1  0.516100  0.179400  0.752100  1.0
  H  H173  1  0.983900  0.679400  0.252100  1.0
  H  H174  1  0.983900  0.320600  0.247900  1.0
  H  H175  1  0.483900  0.179400  0.252100  1.0
  H  H176  1  0.483900  0.820600  0.247900  1.0
  H  H177  1  0.968500  0.272500  0.760600  1.0
  H  H178  1  0.968500  0.727500  0.739400  1.0
  H  H179  1  0.468500  0.772500  0.760600  1.0
  H  H180  1  0.468500  0.227500  0.739400  1.0
  H  H181  1  0.031500  0.727500  0.239400  1.0
  H  H182  1  0.031500  0.272500  0.260600  1.0
  H  H183  1  0.531500  0.227500  0.239400  1.0
  H  H184  1  0.531500  0.772500  0.260600  1.0
  H  H185  1  0.644000  0.466400  0.930300  1.0
  H  H186  1  0.644000  0.533600  0.569700  1.0
  H  H187  1  0.144000  0.966400  0.930300  1.0
  H  H188  1  0.144000  0.033600  0.569700  1.0
  H  H189  1  0.356000  0.533600  0.069700  1.0
  H  H190  1  0.356000  0.466400  0.430300  1.0
  H  H191  1  0.856000  0.033600  0.069700  1.0
  H  H192  1  0.856000  0.966400  0.430300  1.0
  H  H193  1  0.534600  0.425500  0.941900  1.0
  H  H194  1  0.534600  0.574500  0.558100  1.0
  H  H195  1  0.034600  0.925500  0.941900  1.0
  H  H196  1  0.034600  0.074500  0.558100  1.0
  H  H197  1  0.465400  0.574500  0.058100  1.0
  H  H198  1  0.465400  0.425500  0.441900  1.0
  H  H199  1  0.965400  0.074500  0.058100  1.0
  H  H200  1  0.965400  0.925500  0.441900  1.0
  H  H201  1  0.531300  0.333200  0.936500  1.0
  H  H202  1  0.531300  0.666800  0.563500  1.0
  H  H203  1  0.031300  0.833200  0.936500  1.0
  H  H204  1  0.031300  0.166800  0.563500  1.0
  H  H205  1  0.468700  0.666800  0.063500  1.0
  H  H206  1  0.468700  0.333200  0.436500  1.0
  H  H207  1  0.968700  0.166800  0.063500  1.0
  H  H208  1  0.968700  0.833200  0.436500  1.0
  H  H209  1  0.636200  0.287400  0.926400  1.0
  H  H210  1  0.636200  0.712600  0.573600  1.0
  H  H211  1  0.136200  0.787400  0.926400  1.0
  H  H212  1  0.136200  0.212600  0.573600  1.0
  H  H213  1  0.363800  0.712600  0.073600  1.0
  H  H214  1  0.363800  0.287400  0.426400  1.0
  H  H215  1  0.863800  0.212600  0.073600  1.0
  H  H216  1  0.863800  0.787400  0.426400  1.0
  H  H217  1  0.756000  0.243200  0.911600  1.0
  H  H218  1  0.756000  0.756800  0.588400  1.0
  H  H219  1  0.256000  0.743200  0.911600  1.0
  H  H220  1  0.256000  0.256800  0.588400  1.0
  H  H221  1  0.244000  0.756800  0.088400  1.0
  H  H222  1  0.244000  0.243200  0.411600  1.0
  H  H223  1  0.744000  0.256800  0.088400  1.0
  H  H224  1  0.744000  0.743200  0.411600  1.0
  H  H225  1  0.887200  0.239400  0.899400  1.0
  H  H226  1  0.887200  0.760600  0.600600  1.0
  H  H227  1  0.387200  0.739400  0.899400  1.0
  H  H228  1  0.387200  0.260600  0.600600  1.0
  H  H229  1  0.112800  0.760600  0.100600  1.0
  H  H230  1  0.112800  0.239400  0.399400  1.0
  H  H231  1  0.612800  0.260600  0.100600  1.0
  H  H232  1  0.612800  0.739400  0.399400  1.0
  H  H233  1  0.993900  0.308000  0.905300  1.0
  H  H234  1  0.993900  0.692000  0.594700  1.0
  H  H235  1  0.493900  0.808000  0.905300  1.0
  H  H236  1  0.493900  0.192000  0.594700  1.0
  H  H237  1  0.006100  0.692000  0.094700  1.0
  H  H238  1  0.006100  0.308000  0.405300  1.0
  H  H239  1  0.506100  0.192000  0.094700  1.0
  H  H240  1  0.506100  0.808000  0.405300  1.0
  H  H241  1  0.970400  0.367800  0.907500  1.0
  H  H242  1  0.970400  0.632200  0.592500  1.0
  H  H243  1  0.470400  0.867800  0.907500  1.0
  H  H244  1  0.470400  0.132200  0.592500  1.0
  H  H245  1  0.029600  0.632200  0.092500  1.0
  H  H246  1  0.029600  0.367800  0.407500  1.0
  H  H247  1  0.529600  0.132200  0.092500  1.0
  H  H248  1  0.529600  0.867800  0.407500  1.0
  H  H249  1  0.067100  0.381800  0.795800  1.0
  H  H250  1  0.067100  0.618200  0.704200  1.0
  H  H251  1  0.567100  0.881800  0.795800  1.0
  H  H252  1  0.567100  0.118200  0.704200  1.0
  H  H253  1  0.932900  0.618200  0.204200  1.0
  H  H254  1  0.932900  0.381800  0.295800  1.0
  H  H255  1  0.432900  0.118200  0.204200  1.0
  H  H256  1  0.432900  0.881800  0.295800  1.0
  H  H257  1  0.060400  0.393000  0.856100  1.0
  H  H258  1  0.060400  0.607000  0.643900  1.0
  H  H259  1  0.560400  0.893000  0.856100  1.0
  H  H260  1  0.560400  0.107000  0.643900  1.0
  H  H261  1  0.939600  0.607000  0.143900  1.0
  H  H262  1  0.939600  0.393000  0.356100  1.0
  H  H263  1  0.439600  0.107000  0.143900  1.0
  H  H264  1  0.439600  0.893000  0.356100  1.0
  H  H265  1  0.988900  0.179900  0.705800  1.0
  H  H266  1  0.988900  0.820100  0.794200  1.0
  H  H267  1  0.488900  0.679900  0.705800  1.0
  H  H268  1  0.488900  0.320100  0.794200  1.0
  H  H269  1  0.011100  0.820100  0.294200  1.0
  H  H270  1  0.011100  0.179900  0.205800  1.0
  H  H271  1  0.511100  0.320100  0.294200  1.0
  H  H272  1  0.511100  0.679900  0.205800  1.0
  H  H273  1  0.074300  0.123800  0.726900  1.0
  H  H274  1  0.074300  0.876200  0.773100  1.0
  H  H275  1  0.574300  0.623800  0.726900  1.0
  H  H276  1  0.574300  0.376200  0.773100  1.0
  H  H277  1  0.925700  0.876200  0.273100  1.0
  H  H278  1  0.925700  0.123800  0.226900  1.0
  H  H279  1  0.425700  0.376200  0.273100  1.0
  H  H280  1  0.425700  0.623800  0.226900  1.0
  H  H281  1  0.061300  0.093600  0.782000  1.0
  H  H282  1  0.061300  0.906400  0.718000  1.0
  H  H283  1  0.561300  0.593600  0.782000  1.0
  H  H284  1  0.561300  0.406400  0.718000  1.0
  H  H285  1  0.938700  0.906400  0.218000  1.0
  H  H286  1  0.938700  0.093600  0.282000  1.0
  H  H287  1  0.438700  0.406400  0.218000  1.0
  H  H288  1  0.438700  0.593600  0.282000  1.0
  H  H289  1  0.960800  0.121400  0.814800  1.0
  H  H290  1  0.960800  0.878600  0.685200  1.0
  H  H291  1  0.460800  0.621400  0.814800  1.0
  H  H292  1  0.460800  0.378600  0.685200  1.0
  H  H293  1  0.039200  0.878600  0.185200  1.0
  H  H294  1  0.039200  0.121400  0.314800  1.0
  H  H295  1  0.539200  0.378600  0.185200  1.0
  H  H296  1  0.539200  0.621400  0.314800  1.0
  H  H297  1  0.851700  0.159000  0.845700  1.0
  H  H298  1  0.851700  0.841000  0.654300  1.0
  H  H299  1  0.351700  0.659000  0.845700  1.0
  H  H300  1  0.351700  0.341000  0.654300  1.0
  H  H301  1  0.148300  0.841000  0.154300  1.0
  H  H302  1  0.148300  0.159000  0.345700  1.0
  H  H303  1  0.648300  0.341000  0.154300  1.0
  H  H304  1  0.648300  0.659000  0.345700  1.0
  H  H305  1  0.731900  0.206000  0.848400  1.0
  H  H306  1  0.731900  0.794000  0.651600  1.0
  H  H307  1  0.231900  0.706000  0.848400  1.0
  H  H308  1  0.231900  0.294000  0.651600  1.0
  H  H309  1  0.268100  0.794000  0.151600  1.0
  H  H310  1  0.268100  0.206000  0.348400  1.0
  H  H311  1  0.768100  0.294000  0.151600  1.0
  H  H312  1  0.768100  0.706000  0.348400  1.0
  H  H313  1  0.640400  0.231700  0.791200  1.0
  H  H314  1  0.640400  0.768300  0.708800  1.0
  H  H315  1  0.140400  0.731700  0.791200  1.0
  H  H316  1  0.140400  0.268300  0.708800  1.0
  H  H317  1  0.359600  0.768300  0.208800  1.0
  H  H318  1  0.359600  0.231700  0.291200  1.0
  H  H319  1  0.859600  0.268300  0.208800  1.0
  H  H320  1  0.859600  0.731700  0.291200  1.0
  H  H321  1  0.690000  0.262900  0.765200  1.0
  H  H322  1  0.690000  0.737100  0.734800  1.0
  H  H323  1  0.190000  0.762900  0.765200  1.0
  H  H324  1  0.190000  0.237100  0.734800  1.0
  H  H325  1  0.310000  0.737100  0.234800  1.0
  H  H326  1  0.310000  0.262900  0.265200  1.0
  H  H327  1  0.810000  0.237100  0.234800  1.0
  H  H328  1  0.810000  0.762900  0.265200  1.0
  H  H329  1  0.959100  0.457500  0.959600  1.0
  H  H330  1  0.959100  0.542500  0.540400  1.0
  H  H331  1  0.459100  0.957500  0.959600  1.0
  H  H332  1  0.459100  0.042500  0.540400  1.0
  H  H333  1  0.040900  0.542500  0.040400  1.0
  H  H334  1  0.040900  0.457500  0.459600  1.0
  H  H335  1  0.540900  0.042500  0.040400  1.0
  H  H336  1  0.540900  0.957500  0.459600  1.0
  H  H337  1  0.076500  0.486200  0.949000  1.0
  H  H338  1  0.076500  0.513800  0.551000  1.0
  H  H339  1  0.576500  0.986200  0.949000  1.0
  H  H340  1  0.576500  0.013800  0.551000  1.0
  H  H341  1  0.923500  0.513800  0.051000  1.0
  H  H342  1  0.923500  0.486200  0.449000  1.0
  H  H343  1  0.423500  0.013800  0.051000  1.0
  H  H344  1  0.423500  0.986200  0.449000  1.0
  H  H345  1  0.107500  0.514700  0.896100  1.0
  H  H346  1  0.107500  0.485300  0.603900  1.0
  H  H347  1  0.607500  0.014700  0.896100  1.0
  H  H348  1  0.607500  0.985300  0.603900  1.0
  H  H349  1  0.892500  0.485300  0.103900  1.0
  H  H350  1  0.892500  0.514700  0.396100  1.0
  H  H351  1  0.392500  0.985300  0.103900  1.0
  H  H352  1  0.392500  0.014700  0.396100  1.0
  H  H353  1  0.024000  0.508300  0.851700  1.0
  H  H354  1  0.024000  0.491700  0.648300  1.0
  H  H355  1  0.524000  0.008300  0.851700  1.0
  H  H356  1  0.524000  0.991700  0.648300  1.0
  H  H357  1  0.976000  0.491700  0.148300  1.0
  H  H358  1  0.976000  0.508300  0.351700  1.0
  H  H359  1  0.476000  0.991700  0.148300  1.0
  H  H360  1  0.476000  0.008300  0.351700  1.0
  H  H361  1  0.923800  0.491600  0.808000  1.0
  H  H362  1  0.923800  0.508400  0.692000  1.0
  H  H363  1  0.423800  0.991600  0.808000  1.0
  H  H364  1  0.423800  0.008400  0.692000  1.0
  H  H365  1  0.076200  0.508400  0.192000  1.0
  H  H366  1  0.076200  0.491600  0.308000  1.0
  H  H367  1  0.576200  0.008400  0.192000  1.0
  H  H368  1  0.576200  0.991600  0.308000  1.0
  H  H369  1  0.797400  0.479200  0.788500  1.0
  H  H370  1  0.797400  0.520800  0.711500  1.0
  H  H371  1  0.297400  0.979200  0.788500  1.0
  H  H372  1  0.297400  0.020800  0.711500  1.0
  H  H373  1  0.202600  0.520800  0.211500  1.0
  H  H374  1  0.202600  0.479200  0.288500  1.0
  H  H375  1  0.702600  0.020800  0.211500  1.0
  H  H376  1  0.702600  0.979200  0.288500  1.0
  H  H377  1  0.672400  0.468300  0.821400  1.0
  H  H378  1  0.672400  0.531700  0.678600  1.0
  H  H379  1  0.172400  0.968300  0.821400  1.0
  H  H380  1  0.172400  0.031700  0.678600  1.0
  H  H381  1  0.327600  0.531700  0.178600  1.0
  H  H382  1  0.327600  0.468300  0.321400  1.0
  H  H383  1  0.827600  0.031700  0.178600  1.0
  H  H384  1  0.827600  0.968300  0.321400  1.0
  H  H385  1  0.676500  0.458000  0.860800  1.0
  H  H386  1  0.676500  0.542000  0.639200  1.0
  H  H387  1  0.176500  0.958000  0.860800  1.0
  H  H388  1  0.176500  0.042000  0.639200  1.0
  H  H389  1  0.323500  0.542000  0.139200  1.0
  H  H390  1  0.323500  0.458000  0.360800  1.0
  H  H391  1  0.823500  0.042000  0.139200  1.0
  H  H392  1  0.823500  0.958000  0.360800  1.0
  H  H393  1  0.585900  0.287700  0.838400  1.0
  H  H394  1  0.585900  0.712300  0.661600  1.0
  H  H395  1  0.085900  0.787700  0.838400  1.0
  H  H396  1  0.085900  0.212300  0.661600  1.0
  H  H397  1  0.414100  0.712300  0.161600  1.0
  H  H398  1  0.414100  0.287700  0.338400  1.0
  H  H399  1  0.914100  0.212300  0.161600  1.0
  H  H400  1  0.914100  0.787700  0.338400  1.0
  H  H401  1  0.592200  0.376200  0.862200  1.0
  H  H402  1  0.592200  0.623800  0.637800  1.0
  H  H403  1  0.092200  0.876200  0.862200  1.0
  H  H404  1  0.092200  0.123800  0.637800  1.0
  H  H405  1  0.407800  0.623800  0.137800  1.0
  H  H406  1  0.407800  0.376200  0.362200  1.0
  H  H407  1  0.907800  0.123800  0.137800  1.0
  H  H408  1  0.907800  0.876200  0.362200  1.0
  H  H409  1  0.728200  0.129200  0.749700  1.0
  H  H410  1  0.728200  0.870800  0.750300  1.0
  H  H411  1  0.228200  0.629200  0.749700  1.0
  H  H412  1  0.228200  0.370800  0.750300  1.0
  H  H413  1  0.271800  0.870800  0.250300  1.0
  H  H414  1  0.271800  0.129200  0.249700  1.0
  H  H415  1  0.771800  0.370800  0.250300  1.0
  H  H416  1  0.771800  0.629200  0.249700  1.0
  H  H417  1  0.691700  0.048000  0.728500  1.0
  H  H418  1  0.691700  0.952000  0.771500  1.0
  H  H419  1  0.191700  0.548000  0.728500  1.0
  H  H420  1  0.191700  0.452000  0.771500  1.0
  H  H421  1  0.308300  0.952000  0.271500  1.0
  H  H422  1  0.308300  0.048000  0.228500  1.0
  H  H423  1  0.808300  0.452000  0.271500  1.0
  H  H424  1  0.808300  0.548000  0.228500  1.0
  H  H425  1  0.734200  0.018700  0.678400  1.0
  H  H426  1  0.734200  0.981300  0.821600  1.0
  H  H427  1  0.234200  0.518700  0.678400  1.0
  H  H428  1  0.234200  0.481300  0.821600  1.0
  H  H429  1  0.265800  0.981300  0.321600  1.0
  H  H430  1  0.265800  0.018700  0.178400  1.0
  H  H431  1  0.765800  0.481300  0.321600  1.0
  H  H432  1  0.765800  0.518700  0.178400  1.0
  H  H433  1  0.816000  0.071000  0.646000  1.0
  H  H434  1  0.816000  0.929000  0.854000  1.0
  H  H435  1  0.316000  0.571000  0.646000  1.0
  H  H436  1  0.316000  0.429000  0.854000  1.0
  H  H437  1  0.184000  0.929000  0.354000  1.0
  H  H438  1  0.184000  0.071000  0.146000  1.0
  H  H439  1  0.684000  0.429000  0.354000  1.0
  H  H440  1  0.684000  0.571000  0.146000  1.0
  H  H441  1  0.907100  0.128400  0.619500  1.0
  H  H442  1  0.907100  0.871600  0.880500  1.0
  H  H443  1  0.407100  0.628400  0.619500  1.0
  H  H444  1  0.407100  0.371600  0.880500  1.0
  H  H445  1  0.092900  0.871600  0.380500  1.0
  H  H446  1  0.092900  0.128400  0.119500  1.0
  H  H447  1  0.592900  0.371600  0.380500  1.0
  H  H448  1  0.592900  0.628400  0.119500  1.0
  H  H449  1  0.968100  0.216200  0.609500  1.0
  H  H450  1  0.968100  0.783800  0.890500  1.0
  H  H451  1  0.468100  0.716200  0.609500  1.0
  H  H452  1  0.468100  0.283800  0.890500  1.0
  H  H453  1  0.031900  0.783800  0.390500  1.0
  H  H454  1  0.031900  0.216200  0.109500  1.0
  H  H455  1  0.531900  0.283800  0.390500  1.0
  H  H456  1  0.531900  0.716200  0.109500  1.0
  H  H457  1  0.971000  0.304800  0.644100  1.0
  H  H458  1  0.971000  0.695200  0.855900  1.0
  H  H459  1  0.471000  0.804800  0.644100  1.0
  H  H460  1  0.471000  0.195200  0.855900  1.0
  H  H461  1  0.029000  0.695200  0.355900  1.0
  H  H462  1  0.029000  0.304800  0.144100  1.0
  H  H463  1  0.529000  0.195200  0.355900  1.0
  H  H464  1  0.529000  0.804800  0.144100  1.0
  H  H465  1  0.926900  0.306600  0.678900  1.0
  H  H466  1  0.926900  0.693400  0.821100  1.0
  H  H467  1  0.426900  0.806600  0.678900  1.0
  H  H468  1  0.426900  0.193400  0.821100  1.0
  H  H469  1  0.073100  0.693400  0.321100  1.0
  H  H470  1  0.073100  0.306600  0.178900  1.0
  H  H471  1  0.573100  0.193400  0.321100  1.0
  H  H472  1  0.573100  0.806600  0.178900  1.0
  H  H473  1  0.865500  0.352700  0.971900  1.0
  H  H474  1  0.865500  0.647300  0.528100  1.0
  H  H475  1  0.365500  0.852700  0.971900  1.0
  H  H476  1  0.365500  0.147300  0.528100  1.0
  H  H477  1  0.134500  0.647300  0.028100  1.0
  H  H478  1  0.134500  0.352700  0.471900  1.0
  H  H479  1  0.634500  0.147300  0.028100  1.0
  H  H480  1  0.634500  0.852700  0.471900  1.0
  H  H481  1  0.877000  0.347000  0.029100  1.0
  H  H482  1  0.877000  0.653000  0.470900  1.0
  H  H483  1  0.377000  0.847000  0.029100  1.0
  H  H484  1  0.377000  0.153000  0.470900  1.0
  H  H485  1  0.123000  0.653000  0.970900  1.0
  H  H486  1  0.123000  0.347000  0.529100  1.0
  H  H487  1  0.623000  0.153000  0.970900  1.0
  H  H488  1  0.623000  0.847000  0.529100  1.0
  H  H489  1  0.827700  0.411100  0.063100  1.0
  H  H490  1  0.827700  0.588900  0.436900  1.0
  H  H491  1  0.327700  0.911100  0.063100  1.0
  H  H492  1  0.327700  0.088900  0.436900  1.0
  H  H493  1  0.172300  0.588900  0.936900  1.0
  H  H494  1  0.172300  0.411100  0.563100  1.0
  H  H495  1  0.672300  0.088900  0.936900  1.0
  H  H496  1  0.672300  0.911100  0.563100  1.0
  H  H497  1  0.783700  0.486100  0.038700  1.0
  H  H498  1  0.783700  0.513900  0.461300  1.0
  H  H499  1  0.283700  0.986100  0.038700  1.0
  H  H500  1  0.283700  0.013900  0.461300  1.0
  H  H501  1  0.216300  0.513900  0.961300  1.0
  H  H502  1  0.216300  0.486100  0.538700  1.0
  H  H503  1  0.716300  0.013900  0.961300  1.0
  H  H504  1  0.716300  0.986100  0.538700  1.0
  H  H505  1  0.739100  0.562800  0.008100  1.0
  H  H506  1  0.739100  0.437200  0.491900  1.0
  H  H507  1  0.239100  0.062800  0.008100  1.0
  H  H508  1  0.239100  0.937200  0.491900  1.0
  H  H509  1  0.260900  0.437200  0.991900  1.0
  H  H510  1  0.260900  0.562800  0.508100  1.0
  H  H511  1  0.760900  0.937200  0.991900  1.0
  H  H512  1  0.760900  0.062800  0.508100  1.0
  H  H513  1  0.690000  0.612800  0.955900  1.0
  H  H514  1  0.690000  0.387200  0.544100  1.0
  H  H515  1  0.190000  0.112800  0.955900  1.0
  H  H516  1  0.190000  0.887200  0.544100  1.0
  H  H517  1  0.310000  0.387200  0.044100  1.0
  H  H518  1  0.310000  0.612800  0.455900  1.0
  H  H519  1  0.810000  0.887200  0.044100  1.0
  H  H520  1  0.810000  0.112800  0.455900  1.0
  H  H521  1  0.677500  0.575900  0.892600  1.0
  H  H522  1  0.677500  0.424100  0.607400  1.0
  H  H523  1  0.177500  0.075900  0.892600  1.0
  H  H524  1  0.177500  0.924100  0.607400  1.0
  H  H525  1  0.322500  0.424100  0.107400  1.0
  H  H526  1  0.322500  0.575900  0.392600  1.0
  H  H527  1  0.822500  0.924100  0.107400  1.0
  H  H528  1  0.822500  0.075900  0.392600  1.0
  H  H529  1  0.744100  0.540100  0.880400  1.0
  H  H530  1  0.744100  0.459900  0.619600  1.0
  H  H531  1  0.244100  0.040100  0.880400  1.0
  H  H532  1  0.244100  0.959900  0.619600  1.0
  H  H533  1  0.255900  0.459900  0.119600  1.0
  H  H534  1  0.255900  0.540100  0.380400  1.0
  H  H535  1  0.755900  0.959900  0.119600  1.0
  H  H536  1  0.755900  0.040100  0.380400  1.0
  H  H537  1  0.801600  0.261300  0.619100  1.0
  H  H538  1  0.801600  0.738700  0.880900  1.0
  H  H539  1  0.301600  0.761300  0.619100  1.0
  H  H540  1  0.301600  0.238700  0.880900  1.0
  H  H541  1  0.198400  0.738700  0.380900  1.0
  H  H542  1  0.198400  0.261300  0.119100  1.0
  H  H543  1  0.698400  0.238700  0.380900  1.0
  H  H544  1  0.698400  0.761300  0.119100  1.0
  H  H545  1  0.711800  0.323600  0.597100  1.0
  H  H546  1  0.711800  0.676400  0.902900  1.0
  H  H547  1  0.211800  0.823600  0.597100  1.0
  H  H548  1  0.211800  0.176400  0.902900  1.0
  H  H549  1  0.288200  0.676400  0.402900  1.0
  H  H550  1  0.288200  0.323600  0.097100  1.0
  H  H551  1  0.788200  0.176400  0.402900  1.0
  H  H552  1  0.788200  0.823600  0.097100  1.0
  C  C553  1  0.141000  0.584900  0.826800  1
  C  C554  1  0.141000  0.415100  0.673200  1
  C  C555  1  0.641000  0.084900  0.826800  1
  C  C556  1  0.641000  0.915100  0.673200  1
  C  C557  1  0.859000  0.415100  0.173200  1
  C  C558  1  0.859000  0.584900  0.326800  1
  C  C559  1  0.359000  0.915100  0.173200  1
  C  C560  1  0.359000  0.084900  0.326800  1
  C  C561  1  0.827600  0.916000  0.597100  1
  C  C562  1  0.827600  0.084000  0.902900  1
  C  C563  1  0.327600  0.416000  0.597100  1
  C  C564  1  0.327600  0.584000  0.902900  1
  C  C565  1  0.172400  0.084000  0.402900  1
  C  C566  1  0.172400  0.916000  0.097100  1
  C  C567  1  0.672400  0.584000  0.402900  1
  C  C568  1  0.672400  0.416000  0.097100  1
  C  C569  1  0.934800  0.618300  0.948900  1
  C  C570  1  0.934800  0.381700  0.551100  1
  C  C571  1  0.434800  0.118300  0.948900  1
  C  C572  1  0.434800  0.881700  0.551100  1
  C  C573  1  0.065200  0.381700  0.051100  1
  C  C574  1  0.065200  0.618300  0.448900  1
  C  C575  1  0.565200  0.881700  0.051100  1
  C  C576  1  0.565200  0.118300  0.448900  1
  C  C577  1  0.680100  0.239400  0.688600  1.0
  C  C578  1  0.680100  0.760600  0.811400  1.0
  C  C579  1  0.180100  0.739400  0.688600  1.0
  C  C580  1  0.180100  0.260600  0.811400  1.0
  C  C581  1  0.319900  0.760600  0.311400  1.0
  C  C582  1  0.319900  0.239400  0.188600  1.0
  C  C583  1  0.819900  0.260600  0.311400  1.0
  C  C584  1  0.819900  0.739400  0.188600  1.0
  C  C585  1  0.627100  0.266800  0.672400  1.0
  C  C586  1  0.627100  0.733200  0.827600  1.0
  C  C587  1  0.127100  0.766800  0.672400  1.0
  C  C588  1  0.127100  0.233200  0.827600  1.0
  C  C589  1  0.372900  0.733200  0.327600  1.0
  C  C590  1  0.372900  0.266800  0.172400  1.0
  C  C591  1  0.872900  0.233200  0.327600  1.0
  C  C592  1  0.872900  0.766800  0.172400  1.0
  C  C593  1  0.629800  0.320000  0.672500  1.0
  C  C594  1  0.629800  0.680000  0.827500  1.0
  C  C595  1  0.129800  0.820000  0.672500  1.0
  C  C596  1  0.129800  0.180000  0.827500  1.0
  C  C597  1  0.370200  0.680000  0.327500  1.0
  C  C598  1  0.370200  0.320000  0.172500  1.0
  C  C599  1  0.870200  0.180000  0.327500  1.0
  C  C600  1  0.870200  0.820000  0.172500  1.0
  C  C601  1  0.687200  0.344300  0.689500  1.0
  C  C602  1  0.687200  0.655700  0.810500  1.0
  C  C603  1  0.187200  0.844300  0.689500  1.0
  C  C604  1  0.187200  0.155700  0.810500  1.0
  C  C605  1  0.312800  0.655700  0.310500  1.0
  C  C606  1  0.312800  0.344300  0.189500  1.0
  C  C607  1  0.812800  0.155700  0.310500  1.0
  C  C608  1  0.812800  0.844300  0.189500  1.0
  C  C609  1  0.738500  0.315000  0.704700  1.0
  C  C610  1  0.738500  0.685000  0.795300  1.0
  C  C611  1  0.238500  0.815000  0.704700  1.0
  C  C612  1  0.238500  0.185000  0.795300  1.0
  C  C613  1  0.261500  0.685000  0.295300  1.0
  C  C614  1  0.261500  0.315000  0.204700  1.0
  C  C615  1  0.761500  0.185000  0.295300  1.0
  C  C616  1  0.761500  0.815000  0.204700  1.0
  C  C617  1  0.802400  0.337400  0.721500  1.0
  C  C618  1  0.802400  0.662600  0.778500  1.0
  C  C619  1  0.302400  0.837400  0.721500  1.0
  C  C620  1  0.302400  0.162600  0.778500  1.0
  C  C621  1  0.197600  0.662600  0.278500  1.0
  C  C622  1  0.197600  0.337400  0.221500  1.0
  C  C623  1  0.697600  0.162600  0.278500  1.0
  C  C624  1  0.697600  0.837400  0.221500  1.0
  C  C625  1  0.824200  0.386800  0.727100  1.0
  C  C626  1  0.824200  0.613200  0.772900  1.0
  C  C627  1  0.324200  0.886800  0.727100  1.0
  C  C628  1  0.324200  0.113200  0.772900  1.0
  C  C629  1  0.175800  0.613200  0.272900  1.0
  C  C630  1  0.175800  0.386800  0.227100  1.0
  C  C631  1  0.675800  0.113200  0.272900  1.0
  C  C632  1  0.675800  0.886800  0.227100  1.0
  C  C633  1  0.890900  0.384500  0.742200  1.0
  C  C634  1  0.890900  0.615500  0.757800  1.0
  C  C635  1  0.390900  0.884500  0.742200  1.0
  C  C636  1  0.390900  0.115500  0.757800  1.0
  C  C637  1  0.109100  0.615500  0.257800  1.0
  C  C638  1  0.109100  0.384500  0.242200  1.0
  C  C639  1  0.609100  0.115500  0.257800  1.0
  C  C640  1  0.609100  0.884500  0.242200  1.0
  C  C641  1  0.973000  0.310800  0.761400  1.0
  C  C642  1  0.973000  0.689200  0.738600  1.0
  C  C643  1  0.473000  0.810800  0.761400  1.0
  C  C644  1  0.473000  0.189200  0.738600  1.0
  C  C645  1  0.027000  0.689200  0.238600  1.0
  C  C646  1  0.027000  0.310800  0.261400  1.0
  C  C647  1  0.527000  0.189200  0.238600  1.0
  C  C648  1  0.527000  0.810800  0.261400  1.0
  C  C649  1  0.642300  0.429600  0.929300  1.0
  C  C650  1  0.642300  0.570400  0.570700  1.0
  C  C651  1  0.142300  0.929600  0.929300  1.0
  C  C652  1  0.142300  0.070400  0.570700  1.0
  C  C653  1  0.357700  0.570400  0.070700  1.0
  C  C654  1  0.357700  0.429600  0.429300  1.0
  C  C655  1  0.857700  0.070400  0.070700  1.0
  C  C656  1  0.857700  0.929600  0.429300  1.0
  C  C657  1  0.577000  0.406100  0.935900  1.0
  C  C658  1  0.577000  0.593900  0.564100  1.0
  C  C659  1  0.077000  0.906100  0.935900  1.0
  C  C660  1  0.077000  0.093900  0.564100  1.0
  C  C661  1  0.423000  0.593900  0.064100  1.0
  C  C662  1  0.423000  0.406100  0.435900  1.0
  C  C663  1  0.923000  0.093900  0.064100  1.0
  C  C664  1  0.923000  0.906100  0.435900  1.0
  C  C665  1  0.576100  0.351200  0.933400  1.0
  C  C666  1  0.576100  0.648800  0.566600  1.0
  C  C667  1  0.076100  0.851200  0.933400  1.0
  C  C668  1  0.076100  0.148800  0.566600  1.0
  C  C669  1  0.423900  0.648800  0.066600  1.0
  C  C670  1  0.423900  0.351200  0.433400  1.0
  C  C671  1  0.923900  0.148800  0.066600  1.0
  C  C672  1  0.923900  0.851200  0.433400  1.0
  C  C673  1  0.637000  0.324300  0.926700  1.0
  C  C674  1  0.637000  0.675700  0.573300  1.0
  C  C675  1  0.137000  0.824300  0.926700  1.0
  C  C676  1  0.137000  0.175700  0.573300  1.0
  C  C677  1  0.363000  0.675700  0.073300  1.0
  C  C678  1  0.363000  0.324300  0.426700  1.0
  C  C679  1  0.863000  0.175700  0.073300  1.0
  C  C680  1  0.863000  0.824300  0.426700  1.0
  C  C681  1  0.702600  0.351300  0.920100  1.0
  C  C682  1  0.702600  0.648700  0.579900  1.0
  C  C683  1  0.202600  0.851300  0.920100  1.0
  C  C684  1  0.202600  0.148700  0.579900  1.0
  C  C685  1  0.297400  0.648700  0.079900  1.0
  C  C686  1  0.297400  0.351300  0.420100  1.0
  C  C687  1  0.797400  0.148700  0.079900  1.0
  C  C688  1  0.797400  0.851300  0.420100  1.0
  C  C689  1  0.770800  0.326100  0.912200  1.0
  C  C690  1  0.770800  0.673900  0.587800  1.0
  C  C691  1  0.270800  0.826100  0.912200  1.0
  C  C692  1  0.270800  0.173900  0.587800  1.0
  C  C693  1  0.229200  0.673900  0.087800  1.0
  C  C694  1  0.229200  0.326100  0.412200  1.0
  C  C695  1  0.729200  0.173900  0.087800  1.0
  C  C696  1  0.729200  0.826100  0.412200  1.0
  C  C697  1  0.788500  0.271800  0.909400  1.0
  C  C698  1  0.788500  0.728200  0.590600  1.0
  C  C699  1  0.288500  0.771800  0.909400  1.0
  C  C700  1  0.288500  0.228200  0.590600  1.0
  C  C701  1  0.211500  0.728200  0.090600  1.0
  C  C702  1  0.211500  0.271800  0.409400  1.0
  C  C703  1  0.711500  0.228200  0.090600  1.0
  C  C704  1  0.711500  0.771800  0.409400  1.0
  C  C705  1  0.859500  0.270100  0.903100  1.0
  C  C706  1  0.859500  0.729900  0.596900  1.0
  C  C707  1  0.359500  0.770100  0.903100  1.0
  C  C708  1  0.359500  0.229900  0.596900  1.0
  C  C709  1  0.140500  0.729900  0.096900  1.0
  C  C710  1  0.140500  0.270100  0.403100  1.0
  C  C711  1  0.640500  0.229900  0.096900  1.0
  C  C712  1  0.640500  0.770100  0.403100  1.0
  C  C713  1  0.960200  0.334300  0.896000  1.0
  C  C714  1  0.960200  0.665700  0.604000  1.0
  C  C715  1  0.460200  0.834300  0.896000  1.0
  C  C716  1  0.460200  0.165700  0.604000  1.0
  C  C717  1  0.039800  0.665700  0.104000  1.0
  C  C718  1  0.039800  0.334300  0.396000  1.0
  C  C719  1  0.539800  0.165700  0.104000  1.0
  C  C720  1  0.539800  0.834300  0.396000  1.0
  C  C721  1  0.983900  0.328100  0.796600  1.0
  C  C722  1  0.983900  0.671900  0.703400  1.0
  C  C723  1  0.483900  0.828100  0.796600  1.0
  C  C724  1  0.483900  0.171900  0.703400  1.0
  C  C725  1  0.016100  0.671900  0.203400  1.0
  C  C726  1  0.016100  0.328100  0.296600  1.0
  C  C727  1  0.516100  0.171900  0.203400  1.0
  C  C728  1  0.516100  0.828100  0.296600  1.0
  C  C729  1  0.033300  0.363600  0.809400  1.0
  C  C730  1  0.033300  0.636400  0.690600  1.0
  C  C731  1  0.533300  0.863600  0.809400  1.0
  C  C732  1  0.533300  0.136400  0.690600  1.0
  C  C733  1  0.966700  0.636400  0.190600  1.0
  C  C734  1  0.966700  0.363600  0.309400  1.0
  C  C735  1  0.466700  0.136400  0.190600  1.0
  C  C736  1  0.466700  0.863600  0.309400  1.0
  C  C737  1  0.029500  0.370300  0.843700  1.0
  C  C738  1  0.029500  0.629700  0.656300  1.0
  C  C739  1  0.529500  0.870300  0.843700  1.0
  C  C740  1  0.529500  0.129700  0.656300  1.0
  C  C741  1  0.970500  0.629700  0.156300  1.0
  C  C742  1  0.970500  0.370300  0.343700  1.0
  C  C743  1  0.470500  0.129700  0.156300  1.0
  C  C744  1  0.470500  0.870300  0.343700  1.0
  C  C745  1  0.975200  0.340100  0.858100  1.0
  C  C746  1  0.975200  0.659900  0.641900  1.0
  C  C747  1  0.475200  0.840100  0.858100  1.0
  C  C748  1  0.475200  0.159900  0.641900  1.0
  C  C749  1  0.024800  0.659900  0.141900  1.0
  C  C750  1  0.024800  0.340100  0.358100  1.0
  C  C751  1  0.524800  0.159900  0.141900  1.0
  C  C752  1  0.524800  0.840100  0.358100  1.0
  C  C753  1  0.982800  0.167600  0.728000  1.0
  C  C754  1  0.982800  0.832400  0.772000  1.0
  C  C755  1  0.482800  0.667600  0.728000  1.0
  C  C756  1  0.482800  0.332400  0.772000  1.0
  C  C757  1  0.017200  0.832400  0.272000  1.0
  C  C758  1  0.017200  0.167600  0.228000  1.0
  C  C759  1  0.517200  0.332400  0.272000  1.0
  C  C760  1  0.517200  0.667600  0.228000  1.0
  C  C761  1  0.034000  0.134500  0.740300  1.0
  C  C762  1  0.034000  0.865500  0.759700  1.0
  C  C763  1  0.534000  0.634500  0.740300  1.0
  C  C764  1  0.534000  0.365500  0.759700  1.0
  C  C765  1  0.966000  0.865500  0.259700  1.0
  C  C766  1  0.966000  0.134500  0.240300  1.0
  C  C767  1  0.466000  0.365500  0.259700  1.0
  C  C768  1  0.466000  0.634500  0.240300  1.0
  C  C769  1  0.026200  0.116800  0.773000  1.0
  C  C770  1  0.026200  0.883200  0.727000  1.0
  C  C771  1  0.526200  0.616800  0.773000  1.0
  C  C772  1  0.526200  0.383200  0.727000  1.0
  C  C773  1  0.973800  0.883200  0.227000  1.0
  C  C774  1  0.973800  0.116800  0.273000  1.0
  C  C775  1  0.473800  0.383200  0.227000  1.0
  C  C776  1  0.473800  0.616800  0.273000  1.0
  C  C777  1  0.967300  0.132700  0.792400  1.0
  C  C778  1  0.967300  0.867300  0.707600  1.0
  C  C779  1  0.467300  0.632700  0.792400  1.0
  C  C780  1  0.467300  0.367300  0.707600  1.0
  C  C781  1  0.032700  0.867300  0.207600  1.0
  C  C782  1  0.032700  0.132700  0.292400  1.0
  C  C783  1  0.532700  0.367300  0.207600  1.0
  C  C784  1  0.532700  0.632700  0.292400  1.0
  C  C785  1  0.917000  0.167200  0.776700  1.0
  C  C786  1  0.917000  0.832800  0.723300  1.0
  C  C787  1  0.417000  0.667200  0.776700  1.0
  C  C788  1  0.417000  0.332800  0.723300  1.0
  C  C789  1  0.083000  0.832800  0.223300  1.0
  C  C790  1  0.083000  0.167200  0.276700  1.0
  C  C791  1  0.583000  0.332800  0.223300  1.0
  C  C792  1  0.583000  0.667200  0.276700  1.0
  C  C793  1  0.852300  0.184200  0.794600  1.0
  C  C794  1  0.852300  0.815800  0.705400  1.0
  C  C795  1  0.352300  0.684200  0.794600  1.0
  C  C796  1  0.352300  0.315800  0.705400  1.0
  C  C797  1  0.147700  0.815800  0.205400  1.0
  C  C798  1  0.147700  0.184200  0.294600  1.0
  C  C799  1  0.647700  0.315800  0.205400  1.0
  C  C800  1  0.647700  0.684200  0.294600  1.0
  C  C801  1  0.828100  0.177300  0.828200  1.0
  C  C802  1  0.828100  0.822700  0.671800  1.0
  C  C803  1  0.328100  0.677300  0.828200  1.0
  C  C804  1  0.328100  0.322700  0.671800  1.0
  C  C805  1  0.171900  0.822700  0.171800  1.0
  C  C806  1  0.171900  0.177300  0.328200  1.0
  C  C807  1  0.671900  0.322700  0.171800  1.0
  C  C808  1  0.671900  0.677300  0.328200  1.0
  C  C809  1  0.762800  0.203300  0.829300  1.0
  C  C810  1  0.762800  0.796700  0.670700  1.0
  C  C811  1  0.262800  0.703300  0.829300  1.0
  C  C812  1  0.262800  0.296700  0.670700  1.0
  C  C813  1  0.237200  0.796700  0.170700  1.0
  C  C814  1  0.237200  0.203300  0.329300  1.0
  C  C815  1  0.737200  0.296700  0.170700  1.0
  C  C816  1  0.737200  0.703300  0.329300  1.0
  C  C817  1  0.684500  0.253800  0.789100  1.0
  C  C818  1  0.684500  0.746200  0.710900  1.0
  C  C819  1  0.184500  0.753800  0.789100  1.0
  C  C820  1  0.184500  0.246200  0.710900  1.0
  C  C821  1  0.315500  0.746200  0.210900  1.0
  C  C822  1  0.315500  0.253800  0.289100  1.0
  C  C823  1  0.815500  0.246200  0.210900  1.0
  C  C824  1  0.815500  0.753800  0.289100  1.0
  C  C825  1  0.972200  0.467200  0.937500  1.0
  C  C826  1  0.972200  0.532800  0.562500  1.0
  C  C827  1  0.472200  0.967200  0.937500  1.0
  C  C828  1  0.472200  0.032800  0.562500  1.0
  C  C829  1  0.027800  0.532800  0.062500  1.0
  C  C830  1  0.027800  0.467200  0.437500  1.0
  C  C831  1  0.527800  0.032800  0.062500  1.0
  C  C832  1  0.527800  0.967200  0.437500  1.0
  C  C833  1  0.041500  0.485000  0.931400  1.0
  C  C834  1  0.041500  0.515000  0.568600  1.0
  C  C835  1  0.541500  0.985000  0.931400  1.0
  C  C836  1  0.541500  0.015000  0.568600  1.0
  C  C837  1  0.958500  0.515000  0.068600  1.0
  C  C838  1  0.958500  0.485000  0.431400  1.0
  C  C839  1  0.458500  0.015000  0.068600  1.0
  C  C840  1  0.458500  0.985000  0.431400  1.0
  C  C841  1  0.060000  0.501100  0.899900  1.0
  C  C842  1  0.060000  0.498900  0.600100  1.0
  C  C843  1  0.560000  0.001100  0.899900  1.0
  C  C844  1  0.560000  0.998900  0.600100  1.0
  C  C845  1  0.940000  0.498900  0.100100  1.0
  C  C846  1  0.940000  0.501100  0.399900  1.0
  C  C847  1  0.440000  0.998900  0.100100  1.0
  C  C848  1  0.440000  0.001100  0.399900  1.0
  C  C849  1  0.010800  0.497900  0.873700  1.0
  C  C850  1  0.010800  0.502100  0.626300  1.0
  C  C851  1  0.510800  0.997900  0.873700  1.0
  C  C852  1  0.510800  0.002100  0.626300  1.0
  C  C853  1  0.989200  0.502100  0.126300  1.0
  C  C854  1  0.989200  0.497900  0.373700  1.0
  C  C855  1  0.489200  0.002100  0.126300  1.0
  C  C856  1  0.489200  0.997900  0.373700  1.0
  C  C857  1  0.939700  0.478700  0.880800  1.0
  C  C858  1  0.939700  0.521300  0.619200  1.0
  C  C859  1  0.439700  0.978700  0.880800  1.0
  C  C860  1  0.439700  0.021300  0.619200  1.0
  C  C861  1  0.060300  0.521300  0.119200  1.0
  C  C862  1  0.060300  0.478700  0.380800  1.0
  C  C863  1  0.560300  0.021300  0.119200  1.0
  C  C864  1  0.560300  0.978700  0.380800  1.0
  C  C865  1  0.884200  0.474100  0.856400  1.0
  C  C866  1  0.884200  0.525900  0.643600  1.0
  C  C867  1  0.384200  0.974100  0.856400  1.0
  C  C868  1  0.384200  0.025900  0.643600  1.0
  C  C869  1  0.115800  0.525900  0.143600  1.0
  C  C870  1  0.115800  0.474100  0.356400  1.0
  C  C871  1  0.615800  0.025900  0.143600  1.0
  C  C872  1  0.615800  0.974100  0.356400  1.0
  C  C873  1  0.883100  0.482300  0.821400  1.0
  C  C874  1  0.883100  0.517700  0.678600  1.0
  C  C875  1  0.383100  0.982300  0.821400  1.0
  C  C876  1  0.383100  0.017700  0.678600  1.0
  C  C877  1  0.116900  0.517700  0.178600  1.0
  C  C878  1  0.116900  0.482300  0.321400  1.0
  C  C879  1  0.616900  0.017700  0.178600  1.0
  C  C880  1  0.616900  0.982300  0.321400  1.0
  C  C881  1  0.815000  0.474900  0.810700  1.0
  C  C882  1  0.815000  0.525100  0.689300  1.0
  C  C883  1  0.315000  0.974900  0.810700  1.0
  C  C884  1  0.315000  0.025100  0.689300  1.0
  C  C885  1  0.185000  0.525100  0.189300  1.0
  C  C886  1  0.185000  0.474900  0.310700  1.0
  C  C887  1  0.685000  0.025100  0.189300  1.0
  C  C888  1  0.685000  0.974900  0.310700  1.0
  C  C889  1  0.697200  0.447600  0.838800  1.0
  C  C890  1  0.697200  0.552400  0.661200  1.0
  C  C891  1  0.197200  0.947600  0.838800  1.0
  C  C892  1  0.197200  0.052400  0.661200  1.0
  C  C893  1  0.302800  0.552400  0.161200  1.0
  C  C894  1  0.302800  0.447600  0.338800  1.0
  C  C895  1  0.802800  0.052400  0.161200  1.0
  C  C896  1  0.802800  0.947600  0.338800  1.0
  C  C897  1  0.673900  0.302600  0.809500  1.0
  C  C898  1  0.673900  0.697400  0.690500  1.0
  C  C899  1  0.173900  0.802600  0.809500  1.0
  C  C900  1  0.173900  0.197400  0.690500  1.0
  C  C901  1  0.326100  0.697400  0.190500  1.0
  C  C902  1  0.326100  0.302600  0.309500  1.0
  C  C903  1  0.826100  0.197400  0.190500  1.0
  C  C904  1  0.826100  0.802600  0.309500  1.0
  C  C905  1  0.621800  0.312400  0.832100  1.0
  C  C906  1  0.621800  0.687600  0.667900  1.0
  C  C907  1  0.121800  0.812400  0.832100  1.0
  C  C908  1  0.121800  0.187600  0.667900  1.0
  C  C909  1  0.378200  0.687600  0.167900  1.0
  C  C910  1  0.378200  0.312400  0.332100  1.0
  C  C911  1  0.878200  0.187600  0.167900  1.0
  C  C912  1  0.878200  0.812400  0.332100  1.0
  C  C913  1  0.625100  0.362900  0.845800  1.0
  C  C914  1  0.625100  0.637100  0.654200  1.0
  C  C915  1  0.125100  0.862900  0.845800  1.0
  C  C916  1  0.125100  0.137100  0.654200  1.0
  C  C917  1  0.374900  0.637100  0.154200  1.0
  C  C918  1  0.374900  0.362900  0.345800  1.0
  C  C919  1  0.874900  0.137100  0.154200  1.0
  C  C920  1  0.874900  0.862900  0.345800  1.0
  C  C921  1  0.681600  0.390500  0.832500  1.0
  C  C922  1  0.681600  0.609500  0.667500  1.0
  C  C923  1  0.181600  0.890500  0.832500  1.0
  C  C924  1  0.181600  0.109500  0.667500  1.0
  C  C925  1  0.318400  0.609500  0.167500  1.0
  C  C926  1  0.318400  0.390500  0.332500  1.0
  C  C927  1  0.818400  0.109500  0.167500  1.0
  C  C928  1  0.818400  0.890500  0.332500  1.0
  C  C929  1  0.745800  0.117500  0.728500  1.0
  C  C930  1  0.745800  0.882500  0.771500  1.0
  C  C931  1  0.245800  0.617500  0.728500  1.0
  C  C932  1  0.245800  0.382500  0.771500  1.0
  C  C933  1  0.254200  0.882500  0.271500  1.0
  C  C934  1  0.254200  0.117500  0.228500  1.0
  C  C935  1  0.754200  0.382500  0.271500  1.0
  C  C936  1  0.754200  0.617500  0.228500  1.0
  C  C937  1  0.724300  0.068800  0.715900  1.0
  C  C938  1  0.724300  0.931200  0.784100  1.0
  C  C939  1  0.224300  0.568800  0.715900  1.0
  C  C940  1  0.224300  0.431200  0.784100  1.0
  C  C941  1  0.275700  0.931200  0.284100  1.0
  C  C942  1  0.275700  0.068800  0.215900  1.0
  C  C943  1  0.775700  0.431200  0.284100  1.0
  C  C944  1  0.775700  0.568800  0.215900  1.0
  C  C945  1  0.749100  0.051800  0.686600  1.0
  C  C946  1  0.749100  0.948200  0.813400  1.0
  C  C947  1  0.249100  0.551800  0.686600  1.0
  C  C948  1  0.249100  0.448200  0.813400  1.0
  C  C949  1  0.250900  0.948200  0.313400  1.0
  C  C950  1  0.250900  0.051800  0.186600  1.0
  C  C951  1  0.750900  0.448200  0.313400  1.0
  C  C952  1  0.750900  0.551800  0.186600  1.0
  C  C953  1  0.797800  0.082500  0.667200  1.0
  C  C954  1  0.797800  0.917500  0.832800  1.0
  C  C955  1  0.297800  0.582500  0.667200  1.0
  C  C956  1  0.297800  0.417500  0.832800  1.0
  C  C957  1  0.202200  0.917500  0.332800  1.0
  C  C958  1  0.202200  0.082500  0.167200  1.0
  C  C959  1  0.702200  0.417500  0.332800  1.0
  C  C960  1  0.702200  0.582500  0.167200  1.0
  C  C961  1  0.816600  0.130000  0.681100  1.0
  C  C962  1  0.816600  0.870000  0.818900  1.0
  C  C963  1  0.316600  0.630000  0.681100  1.0
  C  C964  1  0.316600  0.370000  0.818900  1.0
  C  C965  1  0.183400  0.870000  0.318900  1.0
  C  C966  1  0.183400  0.130000  0.181100  1.0
  C  C967  1  0.683400  0.370000  0.318900  1.0
  C  C968  1  0.683400  0.630000  0.181100  1.0
  C  C969  1  0.864800  0.165600  0.663500  1.0
  C  C970  1  0.864800  0.834400  0.836500  1.0
  C  C971  1  0.364800  0.665600  0.663500  1.0
  C  C972  1  0.364800  0.334400  0.836500  1.0
  C  C973  1  0.135200  0.834400  0.336500  1.0
  C  C974  1  0.135200  0.165600  0.163500  1.0
  C  C975  1  0.635200  0.334400  0.336500  1.0
  C  C976  1  0.635200  0.665600  0.163500  1.0
  C  C977  1  0.903900  0.158800  0.633100  1.0
  C  C978  1  0.903900  0.841200  0.866900  1.0
  C  C979  1  0.403900  0.658800  0.633100  1.0
  C  C980  1  0.403900  0.341200  0.866900  1.0
  C  C981  1  0.096100  0.841200  0.366900  1.0
  C  C982  1  0.096100  0.158800  0.133100  1.0
  C  C983  1  0.596100  0.341200  0.366900  1.0
  C  C984  1  0.596100  0.658800  0.133100  1.0
  C  C985  1  0.937100  0.207300  0.627700  1.0
  C  C986  1  0.937100  0.792700  0.872300  1.0
  C  C987  1  0.437100  0.707300  0.627700  1.0
  C  C988  1  0.437100  0.292700  0.872300  1.0
  C  C989  1  0.062900  0.792700  0.372300  1.0
  C  C990  1  0.062900  0.207300  0.127700  1.0
  C  C991  1  0.562900  0.292700  0.372300  1.0
  C  C992  1  0.562900  0.707300  0.127700  1.0
  C  C993  1  0.924700  0.294800  0.655200  1.0
  C  C994  1  0.924700  0.705200  0.844800  1.0
  C  C995  1  0.424700  0.794800  0.655200  1.0
  C  C996  1  0.424700  0.205200  0.844800  1.0
  C  C997  1  0.075300  0.705200  0.344800  1.0
  C  C998  1  0.075300  0.294800  0.155200  1.0
  C  C999  1  0.575300  0.205200  0.344800  1.0
  C  C1000  1  0.575300  0.794800  0.155200  1.0
  C  C1001  1  0.849900  0.381100  0.985500  1.0
  C  C1002  1  0.849900  0.618900  0.514500  1.0
  C  C1003  1  0.349900  0.881100  0.985500  1.0
  C  C1004  1  0.349900  0.118900  0.514500  1.0
  C  C1005  1  0.150100  0.618900  0.014500  1.0
  C  C1006  1  0.150100  0.381100  0.485500  1.0
  C  C1007  1  0.650100  0.118900  0.014500  1.0
  C  C1008  1  0.650100  0.881100  0.485500  1.0
  C  C1009  1  0.854800  0.376700  0.019500  1.0
  C  C1010  1  0.854800  0.623300  0.480500  1.0
  C  C1011  1  0.354800  0.876700  0.019500  1.0
  C  C1012  1  0.354800  0.123300  0.480500  1.0
  C  C1013  1  0.145200  0.623300  0.980500  1.0
  C  C1014  1  0.145200  0.376700  0.519500  1.0
  C  C1015  1  0.645200  0.123300  0.980500  1.0
  C  C1016  1  0.645200  0.876700  0.519500  1.0
  C  C1017  1  0.828000  0.414700  0.039400  1.0
  C  C1018  1  0.828000  0.585300  0.460600  1.0
  C  C1019  1  0.328000  0.914700  0.039400  1.0
  C  C1020  1  0.328000  0.085300  0.460600  1.0
  C  C1021  1  0.172000  0.585300  0.960600  1.0
  C  C1022  1  0.172000  0.414700  0.539400  1.0
  C  C1023  1  0.672000  0.085300  0.960600  1.0
  C  C1024  1  0.672000  0.914700  0.539400  1.0
  C  C1025  1  0.801400  0.458400  0.025000  1.0
  C  C1026  1  0.801400  0.541600  0.475000  1.0
  C  C1027  1  0.301400  0.958400  0.025000  1.0
  C  C1028  1  0.301400  0.041600  0.475000  1.0
  C  C1029  1  0.198600  0.541600  0.975000  1.0
  C  C1030  1  0.198600  0.458400  0.525000  1.0
  C  C1031  1  0.698600  0.041600  0.975000  1.0
  C  C1032  1  0.698600  0.958400  0.525000  1.0
  C  C1033  1  0.800100  0.462600  0.991300  1.0
  C  C1034  1  0.800100  0.537400  0.508700  1.0
  C  C1035  1  0.300100  0.962600  0.991300  1.0
  C  C1036  1  0.300100  0.037400  0.508700  1.0
  C  C1037  1  0.199900  0.537400  0.008700  1.0
  C  C1038  1  0.199900  0.462600  0.491300  1.0
  C  C1039  1  0.699900  0.037400  0.008700  1.0
  C  C1040  1  0.699900  0.962600  0.491300  1.0
  C  C1041  1  0.772000  0.507700  0.972700  1.0
  C  C1042  1  0.772000  0.492300  0.527300  1.0
  C  C1043  1  0.272000  0.007700  0.972700  1.0
  C  C1044  1  0.272000  0.992300  0.527300  1.0
  C  C1045  1  0.228000  0.492300  0.027300  1.0
  C  C1046  1  0.228000  0.507700  0.472700  1.0
  C  C1047  1  0.728000  0.992300  0.027300  1.0
  C  C1048  1  0.728000  0.007700  0.472700  1.0
  C  C1049  1  0.742700  0.552600  0.985200  1.0
  C  C1050  1  0.742700  0.447400  0.514800  1.0
  C  C1051  1  0.242700  0.052600  0.985200  1.0
  C  C1052  1  0.242700  0.947400  0.514800  1.0
  C  C1053  1  0.257300  0.447400  0.014800  1.0
  C  C1054  1  0.257300  0.552600  0.485200  1.0
  C  C1055  1  0.757300  0.947400  0.014800  1.0
  C  C1056  1  0.757300  0.052600  0.485200  1.0
  C  C1057  1  0.718000  0.581800  0.956200  1.0
  C  C1058  1  0.718000  0.418200  0.543800  1.0
  C  C1059  1  0.218000  0.081800  0.956200  1.0
  C  C1060  1  0.218000  0.918200  0.543800  1.0
  C  C1061  1  0.282000  0.418200  0.043800  1.0
  C  C1062  1  0.282000  0.581800  0.456200  1.0
  C  C1063  1  0.782000  0.918200  0.043800  1.0
  C  C1064  1  0.782000  0.081800  0.456200  1.0
  C  C1065  1  0.730400  0.569200  0.895600  1.0
  C  C1066  1  0.730400  0.430800  0.604400  1.0
  C  C1067  1  0.230400  0.069200  0.895600  1.0
  C  C1068  1  0.230400  0.930800  0.604400  1.0
  C  C1069  1  0.269600  0.430800  0.104400  1.0
  C  C1070  1  0.269600  0.569200  0.395600  1.0
  C  C1071  1  0.769600  0.930800  0.104400  1.0
  C  C1072  1  0.769600  0.069200  0.395600  1.0
  C  C1073  1  0.860900  0.320500  0.637800  1.0
  C  C1074  1  0.860900  0.679500  0.862200  1.0
  C  C1075  1  0.360900  0.820500  0.637800  1.0
  C  C1076  1  0.360900  0.179500  0.862200  1.0
  C  C1077  1  0.139100  0.679500  0.362200  1.0
  C  C1078  1  0.139100  0.320500  0.137800  1.0
  C  C1079  1  0.639100  0.179500  0.362200  1.0
  C  C1080  1  0.639100  0.820500  0.137800  1.0
  C  C1081  1  0.806200  0.297800  0.621700  1.0
  C  C1082  1  0.806200  0.702200  0.878300  1.0
  C  C1083  1  0.306200  0.797800  0.621700  1.0
  C  C1084  1  0.306200  0.202200  0.878300  1.0
  C  C1085  1  0.193800  0.702200  0.378300  1.0
  C  C1086  1  0.193800  0.297800  0.121700  1.0
  C  C1087  1  0.693800  0.202200  0.378300  1.0
  C  C1088  1  0.693800  0.797800  0.121700  1.0
  C  C1089  1  0.755000  0.333900  0.608600  1.0
  C  C1090  1  0.755000  0.666100  0.891400  1.0
  C  C1091  1  0.255000  0.833900  0.608600  1.0
  C  C1092  1  0.255000  0.166100  0.891400  1.0
  C  C1093  1  0.245000  0.666100  0.391400  1.0
  C  C1094  1  0.245000  0.333900  0.108600  1.0
  C  C1095  1  0.745000  0.166100  0.391400  1.0
  C  C1096  1  0.745000  0.833900  0.108600  1.0
  C  C1097  1  0.773000  0.616900  0.886100  1.0
  C  C1098  1  0.773000  0.383100  0.613900  1.0
  C  C1099  1  0.273000  0.116900  0.886100  1.0
  C  C1100  1  0.273000  0.883100  0.613900  1.0
  C  C1101  1  0.227000  0.383100  0.113900  1.0
  C  C1102  1  0.227000  0.616900  0.386100  1.0
  C  C1103  1  0.727000  0.883100  0.113900  1.0
  C  C1104  1  0.727000  0.116900  0.386100  1.0
  S  S1105  1  0.931510  0.303370  0.828710  1.0
  S  S1106  1  0.931510  0.696630  0.671290  1.0
  S  S1107  1  0.431510  0.803370  0.828710  1.0
  S  S1108  1  0.431510  0.196630  0.671290  1.0
  S  S1109  1  0.068490  0.696630  0.171290  1.0
  S  S1110  1  0.068490  0.303370  0.328710  1.0
  S  S1111  1  0.568490  0.196630  0.171290  1.0
  S  S1112  1  0.568490  0.803370  0.328710  1.0
  S  S1113  1  0.729250  0.355230  0.803550  1.0
  S  S1114  1  0.729250  0.644770  0.696450  1.0
  S  S1115  1  0.229250  0.855230  0.803550  1.0
  S  S1116  1  0.229250  0.144770  0.696450  1.0
  S  S1117  1  0.270750  0.644770  0.196450  1.0
  S  S1118  1  0.270750  0.355230  0.303550  1.0
  S  S1119  1  0.770750  0.144770  0.196450  1.0
  S  S1120  1  0.770750  0.855230  0.303550  1.0
  S  S1121  1  0.854830  0.387030  0.635800  1.0
  S  S1122  1  0.854830  0.612970  0.864200  1.0
  S  S1123  1  0.354830  0.887030  0.635800  1.0
  S  S1124  1  0.354830  0.112970  0.864200  1.0
  S  S1125  1  0.145170  0.612970  0.364200  1.0
  S  S1126  1  0.145170  0.387030  0.135800  1.0
  S  S1127  1  0.645170  0.112970  0.364200  1.0
  S  S1128  1  0.645170  0.887030  0.135800  1.0
  N  N1129  1  0.085500  0.612800  0.809690  1
  N  N1130  1  0.085500  0.387200  0.690310  1
  N  N1131  1  0.585500  0.112800  0.809690  1
  N  N1132  1  0.585500  0.887200  0.690310  1
  N  N1133  1  0.914500  0.387200  0.190310  1
  N  N1134  1  0.914500  0.612800  0.309690  1
  N  N1135  1  0.414500  0.887200  0.190310  1
  N  N1136  1  0.414500  0.112800  0.309690  1
  N  N1137  1  0.789000  0.946700  0.621200  1
  N  N1138  1  0.789000  0.053300  0.878800  1
  N  N1139  1  0.289000  0.446700  0.621200  1
  N  N1140  1  0.289000  0.553300  0.878800  1
  N  N1141  1  0.211000  0.053300  0.378800  1
  N  N1142  1  0.211000  0.946700  0.121200  1
  N  N1143  1  0.711000  0.553300  0.378800  1
  N  N1144  1  0.711000  0.446700  0.121200  1
  N  N1145  1  0.947600  0.601300  0.983700  1
  N  N1146  1  0.947600  0.398700  0.516300  1
  N  N1147  1  0.447600  0.101300  0.983700  1
  N  N1148  1  0.447600  0.898700  0.516300  1
  N  N1149  1  0.052400  0.398700  0.016300  1
  N  N1150  1  0.052400  0.601300  0.483700  1
  N  N1151  1  0.552400  0.898700  0.016300  1
  N  N1152  1  0.552400  0.101300  0.483700  1
  N  N1153  1  0.735200  0.261700  0.704770  1.0
  N  N1154  1  0.735200  0.738300  0.795230  1.0
  N  N1155  1  0.235200  0.761700  0.704770  1.0
  N  N1156  1  0.235200  0.238300  0.795230  1.0
  N  N1157  1  0.264800  0.738300  0.295230  1.0
  N  N1158  1  0.264800  0.261700  0.204770  1.0
  N  N1159  1  0.764800  0.238300  0.295230  1.0
  N  N1160  1  0.764800  0.761700  0.204770  1.0
  N  N1161  1  0.906900  0.334100  0.746690  1.0
  N  N1162  1  0.906900  0.665900  0.753310  1.0
  N  N1163  1  0.406900  0.834100  0.746690  1.0
  N  N1164  1  0.406900  0.165900  0.753310  1.0
  N  N1165  1  0.093100  0.665900  0.253310  1.0
  N  N1166  1  0.093100  0.334100  0.246690  1.0
  N  N1167  1  0.593100  0.165900  0.253310  1.0
  N  N1168  1  0.593100  0.834100  0.246690  1.0
  N  N1169  1  0.853500  0.303400  0.733140  1.0
  N  N1170  1  0.853500  0.696600  0.766860  1.0
  N  N1171  1  0.353500  0.803400  0.733140  1.0
  N  N1172  1  0.353500  0.196600  0.766860  1.0
  N  N1173  1  0.146500  0.696600  0.266860  1.0
  N  N1174  1  0.146500  0.303400  0.233140  1.0
  N  N1175  1  0.646500  0.196600  0.266860  1.0
  N  N1176  1  0.646500  0.803400  0.233140  1.0
  N  N1177  1  0.705200  0.404100  0.921380  1.0
  N  N1178  1  0.705200  0.595900  0.578620  1.0
  N  N1179  1  0.205200  0.904100  0.921380  1.0
  N  N1180  1  0.205200  0.095900  0.578620  1.0
  N  N1181  1  0.294800  0.595900  0.078620  1.0
  N  N1182  1  0.294800  0.404100  0.421380  1.0
  N  N1183  1  0.794800  0.095900  0.078620  1.0
  N  N1184  1  0.794800  0.904100  0.421380  1.0
  N  N1185  1  0.886800  0.319300  0.902760  1.0
  N  N1186  1  0.886800  0.680700  0.597240  1.0
  N  N1187  1  0.386800  0.819300  0.902760  1.0
  N  N1188  1  0.386800  0.180700  0.597240  1.0
  N  N1189  1  0.113200  0.680700  0.097240  1.0
  N  N1190  1  0.113200  0.319300  0.402760  1.0
  N  N1191  1  0.613200  0.180700  0.097240  1.0
  N  N1192  1  0.613200  0.819300  0.402760  1.0
  N  N1193  1  0.830800  0.354200  0.907260  1.0
  N  N1194  1  0.830800  0.645800  0.592740  1.0
  N  N1195  1  0.330800  0.854200  0.907260  1.0
  N  N1196  1  0.330800  0.145800  0.592740  1.0
  N  N1197  1  0.169200  0.645800  0.092740  1.0
  N  N1198  1  0.169200  0.354200  0.407260  1.0
  N  N1199  1  0.669200  0.145800  0.092740  1.0
  N  N1200  1  0.669200  0.854200  0.407260  1.0
  N  N1201  1  0.925000  0.183700  0.745150  1.0
  N  N1202  1  0.925000  0.816300  0.754850  1.0
  N  N1203  1  0.425000  0.683700  0.745150  1.0
  N  N1204  1  0.425000  0.316300  0.754850  1.0
  N  N1205  1  0.075000  0.816300  0.254850  1.0
  N  N1206  1  0.075000  0.183700  0.245150  1.0
  N  N1207  1  0.575000  0.316300  0.254850  1.0
  N  N1208  1  0.575000  0.683700  0.245150  1.0
  N  N1209  1  0.749500  0.223900  0.799900  1.0
  N  N1210  1  0.749500  0.776100  0.700100  1.0
  N  N1211  1  0.249500  0.723900  0.799900  1.0
  N  N1212  1  0.249500  0.276100  0.700100  1.0
  N  N1213  1  0.250500  0.776100  0.200100  1.0
  N  N1214  1  0.250500  0.223900  0.299900  1.0
  N  N1215  1  0.750500  0.276100  0.200100  1.0
  N  N1216  1  0.750500  0.723900  0.299900  1.0
  N  N1217  1  0.802400  0.213000  0.776960  1.0
  N  N1218  1  0.802400  0.787000  0.723040  1.0
  N  N1219  1  0.302400  0.713000  0.776960  1.0
  N  N1220  1  0.302400  0.287000  0.723040  1.0
  N  N1221  1  0.197600  0.787000  0.223040  1.0
  N  N1222  1  0.197600  0.213000  0.276960  1.0
  N  N1223  1  0.697600  0.287000  0.223040  1.0
  N  N1224  1  0.697600  0.713000  0.276960  1.0
  N  N1225  1  0.921300  0.463200  0.912400  1.0
  N  N1226  1  0.921300  0.536800  0.587600  1.0
  N  N1227  1  0.421300  0.963200  0.912400  1.0
  N  N1228  1  0.421300  0.036800  0.587600  1.0
  N  N1229  1  0.078700  0.536800  0.087600  1.0
  N  N1230  1  0.078700  0.463200  0.412400  1.0
  N  N1231  1  0.578700  0.036800  0.087600  1.0
  N  N1232  1  0.578700  0.963200  0.412400  1.0
  N  N1233  1  0.774600  0.459400  0.838510  1.0
  N  N1234  1  0.774600  0.540600  0.661490  1.0
  N  N1235  1  0.274600  0.959400  0.838510  1.0
  N  N1236  1  0.274600  0.040600  0.661490  1.0
  N  N1237  1  0.225400  0.540600  0.161490  1.0
  N  N1238  1  0.225400  0.459400  0.338510  1.0
  N  N1239  1  0.725400  0.040600  0.161490  1.0
  N  N1240  1  0.725400  0.959400  0.338510  1.0
  N  N1241  1  0.817300  0.458500  0.866310  1.0
  N  N1242  1  0.817300  0.541500  0.633690  1.0
  N  N1243  1  0.317300  0.958500  0.866310  1.0
  N  N1244  1  0.317300  0.041500  0.633690  1.0
  N  N1245  1  0.182700  0.541500  0.133690  1.0
  N  N1246  1  0.182700  0.458500  0.366310  1.0
  N  N1247  1  0.682700  0.041500  0.133690  1.0
  N  N1248  1  0.682700  0.958500  0.366310  1.0
  N  N1249  1  0.791700  0.148100  0.710600  1.0
  N  N1250  1  0.791700  0.851900  0.789400  1.0
  N  N1251  1  0.291700  0.648100  0.710600  1.0
  N  N1252  1  0.291700  0.351900  0.789400  1.0
  N  N1253  1  0.208300  0.851900  0.289400  1.0
  N  N1254  1  0.208300  0.148100  0.210600  1.0
  N  N1255  1  0.708300  0.351900  0.289400  1.0
  N  N1256  1  0.708300  0.648100  0.210600  1.0
  N  N1257  1  0.916000  0.239300  0.653720  1.0
  N  N1258  1  0.916000  0.760700  0.846280  1.0
  N  N1259  1  0.416000  0.739300  0.653720  1.0
  N  N1260  1  0.416000  0.260700  0.846280  1.0
  N  N1261  1  0.084000  0.760700  0.346280  1.0
  N  N1262  1  0.084000  0.239300  0.153720  1.0
  N  N1263  1  0.584000  0.260700  0.346280  1.0
  N  N1264  1  0.584000  0.739300  0.153720  1.0
  N  N1265  1  0.870500  0.214500  0.675010  1.0
  N  N1266  1  0.870500  0.785500  0.824990  1.0
  N  N1267  1  0.370500  0.714500  0.675010  1.0
  N  N1268  1  0.370500  0.285500  0.824990  1.0
  N  N1269  1  0.129500  0.785500  0.324990  1.0
  N  N1270  1  0.129500  0.214500  0.175010  1.0
  N  N1271  1  0.629500  0.285500  0.324990  1.0
  N  N1272  1  0.629500  0.714500  0.175010  1.0
  N  N1273  1  0.824300  0.423100  0.970490  1.0
  N  N1274  1  0.824300  0.576900  0.529510  1.0
  N  N1275  1  0.324300  0.923100  0.970490  1.0
  N  N1276  1  0.324300  0.076900  0.529510  1.0
  N  N1277  1  0.175700  0.576900  0.029510  1.0
  N  N1278  1  0.175700  0.423100  0.470490  1.0
  N  N1279  1  0.675700  0.076900  0.029510  1.0
  N  N1280  1  0.675700  0.923100  0.470490  1.0
  N  N1281  1  0.744200  0.554500  0.929980  1.0
  N  N1282  1  0.744200  0.445500  0.570020  1.0
  N  N1283  1  0.244200  0.054500  0.929980  1.0
  N  N1284  1  0.244200  0.945500  0.570020  1.0
  N  N1285  1  0.255800  0.445500  0.070020  1.0
  N  N1286  1  0.255800  0.554500  0.429980  1.0
  N  N1287  1  0.755800  0.945500  0.070020  1.0
  N  N1288  1  0.755800  0.054500  0.429980  1.0
  N  N1289  1  0.774800  0.508500  0.939540  1.0
  N  N1290  1  0.774800  0.491500  0.560460  1.0
  N  N1291  1  0.274800  0.008500  0.939540  1.0
  N  N1292  1  0.274800  0.991500  0.560460  1.0
  N  N1293  1  0.225200  0.491500  0.060460  1.0
  N  N1294  1  0.225200  0.508500  0.439540  1.0
  N  N1295  1  0.725200  0.991500  0.060460  1.0
  N  N1296  1  0.725200  0.008500  0.439540  1.0
  O  O1297  1  0.022400  0.607100  0.816950  1
  O  O1298  1  0.022400  0.392900  0.683050  1
  O  O1299  1  0.522400  0.107100  0.816950  1
  O  O1300  1  0.522400  0.892900  0.683050  1
  O  O1301  1  0.977600  0.392900  0.183050  1
  O  O1302  1  0.977600  0.607100  0.316950  1
  O  O1303  1  0.477600  0.892900  0.183050  1
  O  O1304  1  0.477600  0.107100  0.316950  1
  O  O1305  1  0.108100  0.642400  0.787390  1
  O  O1306  1  0.108100  0.357600  0.712610  1
  O  O1307  1  0.608100  0.142400  0.787390  1
  O  O1308  1  0.608100  0.857600  0.712610  1
  O  O1309  1  0.891900  0.357600  0.212610  1
  O  O1310  1  0.891900  0.642400  0.287390  1
  O  O1311  1  0.391900  0.857600  0.212610  1
  O  O1312  1  0.391900  0.142400  0.287390  1
  O  O1313  1  0.738100  0.968100  0.613500  1
  O  O1314  1  0.738100  0.031900  0.886500  1
  O  O1315  1  0.238100  0.468100  0.613500  1
  O  O1316  1  0.238100  0.531900  0.886500  1
  O  O1317  1  0.261900  0.031900  0.386500  1
  O  O1318  1  0.261900  0.968100  0.113500  1
  O  O1319  1  0.761900  0.531900  0.386500  1
  O  O1320  1  0.761900  0.468100  0.113500  1
  O  O1321  1  0.816500  0.945800  0.649800  1
  O  O1322  1  0.816500  0.054200  0.850200  1
  O  O1323  1  0.316500  0.445800  0.649800  1
  O  O1324  1  0.316500  0.554200  0.850200  1
  O  O1325  1  0.183500  0.054200  0.350200  1
  O  O1326  1  0.183500  0.945800  0.149800  1
  O  O1327  1  0.683500  0.554200  0.350200  1
  O  O1328  1  0.683500  0.445800  0.149800  1
  O  O1329  1  0.963400  0.635400  0.005400  1
  O  O1330  1  0.963400  0.364600  0.494600  1
  O  O1331  1  0.463400  0.135400  0.005400  1
  O  O1332  1  0.463400  0.864600  0.494600  1
  O  O1333  1  0.036600  0.364600  0.994600  1
  O  O1334  1  0.036600  0.635400  0.505400  1
  O  O1335  1  0.536600  0.864600  0.994600  1
  O  O1336  1  0.536600  0.135400  0.505400  1
  O  O1337  1  0.944100  0.560000  0.990900  1
  O  O1338  1  0.944100  0.440000  0.509100  1
  O  O1339  1  0.444100  0.060000  0.990900  1
  O  O1340  1  0.444100  0.940000  0.509100  1
  O  O1341  1  0.055900  0.440000  0.009100  1
  O  O1342  1  0.055900  0.560000  0.490900  1
  O  O1343  1  0.555900  0.940000  0.009100  1
  O  O1344  1  0.555900  0.060000  0.490900  1
  F  F1345  1  0.165900  0.683800  0.908310  1
  F  F1346  1  0.165900  0.316200  0.591690  1
  F  F1347  1  0.665900  0.183800  0.908310  1
  F  F1348  1  0.665900  0.816200  0.591690  1
  F  F1349  1  0.834100  0.316200  0.091690  1
  F  F1350  1  0.834100  0.683800  0.408310  1
  F  F1351  1  0.334100  0.816200  0.091690  1
  F  F1352  1  0.334100  0.183800  0.408310  1
  F  F1353  1  0.099700  0.696200  0.862010  1
  F  F1354  1  0.099700  0.303800  0.637990  1
  F  F1355  1  0.599700  0.196200  0.862010  1
  F  F1356  1  0.599700  0.803800  0.637990  1
  F  F1357  1  0.900300  0.303800  0.137990  1
  F  F1358  1  0.900300  0.696200  0.362010  1
  F  F1359  1  0.400300  0.803800  0.137990  1
  F  F1360  1  0.400300  0.196200  0.362010  1
  F  F1361  1  0.070300  0.631400  0.897420  1
  F  F1362  1  0.070300  0.368600  0.602580  1
  F  F1363  1  0.570300  0.131400  0.897420  1
  F  F1364  1  0.570300  0.868600  0.602580  1
  F  F1365  1  0.929700  0.368600  0.102580  1
  F  F1366  1  0.929700  0.631400  0.397420  1
  F  F1367  1  0.429700  0.868600  0.102580  1
  F  F1368  1  0.429700  0.131400  0.397420  1
  F  F1369  1  0.050600  0.714500  0.911980  1
  F  F1370  1  0.050600  0.285500  0.588020  1
  F  F1371  1  0.550600  0.214500  0.911980  1
  F  F1372  1  0.550600  0.785500  0.588020  1
  F  F1373  1  0.949400  0.285500  0.088020  1
  F  F1374  1  0.949400  0.714500  0.411980  1
  F  F1375  1  0.449400  0.785500  0.088020  1
  F  F1376  1  0.449400  0.214500  0.411980  1
  F  F1377  1  0.485500  0.687400  0.935900  1
  F  F1378  1  0.485500  0.312600  0.564100  1
  F  F1379  1  0.985500  0.187400  0.935900  1
  F  F1380  1  0.985500  0.812600  0.564100  1
  F  F1381  1  0.514500  0.312600  0.064100  1
  F  F1382  1  0.514500  0.687400  0.435900  1
  F  F1383  1  0.014500  0.812600  0.064100  1
  F  F1384  1  0.014500  0.187400  0.435900  1
  F  F1385  1  0.575100  0.732600  0.910600  1
  F  F1386  1  0.575100  0.267400  0.589400  1
  F  F1387  1  0.075100  0.232600  0.910600  1
  F  F1388  1  0.075100  0.767400  0.589400  1
  F  F1389  1  0.424900  0.267400  0.089400  1
  F  F1390  1  0.424900  0.732600  0.410600  1
  F  F1391  1  0.924900  0.767400  0.089400  1
  F  F1392  1  0.924900  0.232600  0.410600  1
  F  F1393  1  0.579600  0.646700  0.911800  1
  F  F1394  1  0.579600  0.353300  0.588200  1
  F  F1395  1  0.079600  0.146700  0.911800  1
  F  F1396  1  0.079600  0.853300  0.588200  1
  F  F1397  1  0.420400  0.353300  0.088200  1
  F  F1398  1  0.420400  0.646700  0.411800  1
  F  F1399  1  0.920400  0.853300  0.088200  1
  F  F1400  1  0.920400  0.146700  0.411800  1
  F  F1401  1  0.494400  0.686400  0.880400  1
  F  F1402  1  0.494400  0.313600  0.619600  1
  F  F1403  1  0.994400  0.186400  0.880400  1
  F  F1404  1  0.994400  0.813600  0.619600  1
  F  F1405  1  0.505600  0.313600  0.119600  1
  F  F1406  1  0.505600  0.686400  0.380400  1
  F  F1407  1  0.005600  0.813600  0.119600  1
  F  F1408  1  0.005600  0.186400  0.380400  1
  F  F1409  1  0.973600  0.500000  0.750000  1
  F  F1410  1  0.473600  0.000000  0.750000  1
  F  F1411  1  0.026400  0.500000  0.250000  1
  F  F1412  1  0.526400  0.000000  0.250000  1
  F  F1413  1  0.061800  0.467600  0.723100  1
  F  F1414  1  0.061800  0.532400  0.776900  1
  F  F1415  1  0.561800  0.967600  0.723100  1
  F  F1416  1  0.561800  0.032400  0.776900  1
  F  F1417  1  0.938200  0.532400  0.276900  1
  F  F1418  1  0.938200  0.467600  0.223100  1
  F  F1419  1  0.438200  0.032400  0.276900  1
  F  F1420  1  0.438200  0.967600  0.223100  1
  F  F1421  1  0.570100  0.640100  0.907300  1
  F  F1422  1  0.570100  0.359900  0.592700  1
  F  F1423  1  0.070100  0.140100  0.907300  1
  F  F1424  1  0.070100  0.859900  0.592700  1
  F  F1425  1  0.429900  0.359900  0.092700  1
  F  F1426  1  0.429900  0.640100  0.407300  1
  F  F1427  1  0.929900  0.859900  0.092700  1
  F  F1428  1  0.929900  0.140100  0.407300  1
  F  F1429  1  0.518300  0.711600  0.888600  1
  F  F1430  1  0.518300  0.288400  0.611400  1
  F  F1431  1  0.018300  0.211600  0.888600  1
  F  F1432  1  0.018300  0.788400  0.611400  1
  F  F1433  1  0.481700  0.288400  0.111400  1
  F  F1434  1  0.481700  0.711600  0.388600  1
  F  F1435  1  0.981700  0.788400  0.111400  1
  F  F1436  1  0.981700  0.211600  0.388600  1
  F  F1437  1  0.476600  0.634700  0.871700  1
  F  F1438  1  0.476600  0.365300  0.628300  1
  F  F1439  1  0.976600  0.134700  0.871700  1
  F  F1440  1  0.976600  0.865300  0.628300  1
  F  F1441  1  0.523400  0.365300  0.128300  1
  F  F1442  1  0.523400  0.634700  0.371700  1
  F  F1443  1  0.023400  0.865300  0.128300  1
  F  F1444  1  0.023400  0.134700  0.371700  1
  F  F1445  1  0.457300  0.661700  0.923800  1
  F  F1446  1  0.457300  0.338300  0.576200  1
  F  F1447  1  0.957300  0.161700  0.923800  1
  F  F1448  1  0.957300  0.838300  0.576200  1
  F  F1449  1  0.542700  0.338300  0.076200  1
  F  F1450  1  0.542700  0.661700  0.423800  1
  F  F1451  1  0.042700  0.838300  0.076200  1
  F  F1452  1  0.042700  0.161700  0.423800  1
  F  F1453  1  0.685400  0.462300  0.733400  1.0
  F  F1454  1  0.685400  0.537700  0.766600  1.0
  F  F1455  1  0.185400  0.962300  0.733400  1.0
  F  F1456  1  0.185400  0.037700  0.766600  1.0
  F  F1457  1  0.314600  0.537700  0.266600  1.0
  F  F1458  1  0.314600  0.462300  0.233400  1.0
  F  F1459  1  0.814600  0.037700  0.266600  1.0
  F  F1460  1  0.814600  0.962300  0.233400  1.0
  F  F1461  1  0.602600  0.523700  0.727900  1.0
  F  F1462  1  0.602600  0.476300  0.772100  1.0
  F  F1463  1  0.102600  0.023700  0.727900  1.0
  F  F1464  1  0.102600  0.976300  0.772100  1.0
  F  F1465  1  0.397400  0.476300  0.272100  1.0
  F  F1466  1  0.397400  0.523700  0.227900  1.0
  F  F1467  1  0.897400  0.976300  0.272100  1.0
  F  F1468  1  0.897400  0.023700  0.227900  1.0
  F  F1469  1  0.060500  0.553070  0.751400  1.0
  F  F1470  1  0.060500  0.446930  0.748600  1.0
  F  F1471  1  0.560500  0.053070  0.751400  1.0
  F  F1472  1  0.560500  0.946930  0.748600  1.0
  F  F1473  1  0.939500  0.446930  0.248600  1.0
  F  F1474  1  0.939500  0.553070  0.251400  1.0
  F  F1475  1  0.439500  0.946930  0.248600  1.0
  F  F1476  1  0.439500  0.053070  0.251400  1.0
  F  F1477  1  0.060700  0.489000  0.783460  1.0
  F  F1478  1  0.060700  0.511000  0.716540  1.0
  F  F1479  1  0.560700  0.989000  0.783460  1.0
  F  F1480  1  0.560700  0.011000  0.716540  1.0
  F  F1481  1  0.939300  0.511000  0.216540  1.0
  F  F1482  1  0.939300  0.489000  0.283460  1.0
  F  F1483  1  0.439300  0.011000  0.216540  1.0
  F  F1484  1  0.439300  0.989000  0.283460  1.0
