# generated using pymatgen
data_Ni8B9H240C278S12N79F36
_symmetry_space_group_name_H-M   'P 1'
_cell_length_a   18.81810000
_cell_length_b   20.42610000
_cell_length_c   43.16980000
_cell_angle_alpha   90.00000000
_cell_angle_beta   90.00000000
_cell_angle_gamma   90.00000000
_symmetry_Int_Tables_number   1
_chemical_formula_structural   Ni8B9H240C278S12N79F36
_chemical_formula_sum   'Ni16 B18 H480 C556 S24 N158 F72'
_cell_volume   16593.62466426
_cell_formula_units_Z   2
loop_
 _symmetry_equiv_pos_site_id
 _symmetry_equiv_pos_as_xyz
  1  'x, y, z'
loop_
 _atom_site_type_symbol
 _atom_site_label
 _atom_site_symmetry_multiplicity
 _atom_site_fract_x
 _atom_site_fract_y
 _atom_site_fract_z
 _atom_site_occupancy
  Ni  Ni1  1  0.979990  0.512140  0.374180  1
  Ni  Ni2  1  0.020010  0.012140  0.125820  1
  Ni  Ni3  1  0.979990  0.512140  0.625820  1
  Ni  Ni4  1  0.020010  0.012140  0.874180  1
  Ni  Ni5  1  0.951630  0.501400  0.136180  1
  Ni  Ni6  1  0.048370  0.001400  0.363820  1
  Ni  Ni7  1  0.951630  0.501400  0.863820  1
  Ni  Ni8  1  0.048370  0.001400  0.636180  1
  Ni  Ni9  1  0.519400  0.304350  0.128420  1
  Ni  Ni10  1  0.480600  0.804350  0.371580  1
  Ni  Ni11  1  0.519400  0.304350  0.871580  1
  Ni  Ni12  1  0.480600  0.804350  0.628420  1
  Ni  Ni13  1  0.526790  0.315260  0.376890  1
  Ni  Ni14  1  0.473210  0.815260  0.123110  1
  Ni  Ni15  1  0.526790  0.315260  0.623110  1
  Ni  Ni16  1  0.473210  0.815260  0.876890  1
  B  B17  1  0.683800  0.548400  1.000000  1
  B  B18  1  0.316200  0.048400  0.500000  1
  B  B19  1  0.175200  0.751000  0.238700  1
  B  B20  1  0.824800  0.251000  0.261300  1
  B  B21  1  0.175200  0.751000  0.761300  1
  B  B22  1  0.824800  0.251000  0.738700  1
  B  B23  1  0.104600  0.285000  0.074400  1
  B  B24  1  0.895400  0.785000  0.425600  1
  B  B25  1  0.104600  0.285000  0.925600  1
  B  B26  1  0.895400  0.785000  0.574400  1
  B  B27  1  0.109400  0.276300  0.323100  1
  B  B28  1  0.890600  0.776300  0.176900  1
  B  B29  1  0.109400  0.276300  0.676900  1
  B  B30  1  0.890600  0.776300  0.823100  1
  B  B31  1  0.317100  0.072000  0.250600  1
  B  B32  1  0.682900  0.572000  0.249400  1
  B  B33  1  0.317100  0.072000  0.749400  1
  B  B34  1  0.682900  0.572000  0.750600  1
  H  H35  1  0.975400  0.590900  0.438500  1
  H  H36  1  0.024600  0.090900  0.061500  1
  H  H37  1  0.975400  0.590900  0.561500  1
  H  H38  1  0.024600  0.090900  0.938500  1
  H  H39  1  0.050000  0.665000  0.464000  1
  H  H40  1  0.950000  0.165000  0.036000  1
  H  H41  1  0.050000  0.665000  0.536000  1
  H  H42  1  0.950000  0.165000  0.964000  1
  H  H43  1  0.160900  0.691300  0.442900  1
  H  H44  1  0.839100  0.191300  0.057100  1
  H  H45  1  0.160900  0.691300  0.557100  1
  H  H46  1  0.839100  0.191300  0.942900  1
  H  H47  1  0.197200  0.643400  0.396300  1
  H  H48  1  0.802800  0.143400  0.103700  1
  H  H49  1  0.197200  0.643400  0.603700  1
  H  H50  1  0.802800  0.143400  0.896300  1
  H  H51  1  0.231500  0.574000  0.352100  1
  H  H52  1  0.768500  0.074000  0.147900  1
  H  H53  1  0.231500  0.574000  0.647900  1
  H  H54  1  0.768500  0.074000  0.852100  1
  H  H55  1  0.212500  0.507100  0.306800  1
  H  H56  1  0.787500  0.007100  0.193200  1
  H  H57  1  0.212500  0.507100  0.693200  1
  H  H58  1  0.787500  0.007100  0.806800  1
  H  H59  1  0.031800  0.440700  0.306100  1
  H  H60  1  0.968200  0.940700  0.193900  1
  H  H61  1  0.031800  0.440700  0.693900  1
  H  H62  1  0.968200  0.940700  0.806100  1
  H  H63  1  0.100800  0.444100  0.284300  1
  H  H64  1  0.899200  0.944100  0.215700  1
  H  H65  1  0.100800  0.444100  0.715700  1
  H  H66  1  0.899200  0.944100  0.784300  1
  H  H67  1  0.026200  0.442000  0.075700  1
  H  H68  1  0.973800  0.942000  0.424300  1
  H  H69  1  0.026200  0.442000  0.924300  1
  H  H70  1  0.973800  0.942000  0.575700  1
  H  H71  1  0.127900  0.466400  0.046700  1
  H  H72  1  0.872100  0.966400  0.453300  1
  H  H73  1  0.127900  0.466400  0.953300  1
  H  H74  1  0.872100  0.966400  0.546700  1
  H  H75  1  0.204400  0.550100  0.062800  1
  H  H76  1  0.795600  0.050100  0.437200  1
  H  H77  1  0.204400  0.550100  0.937200  1
  H  H78  1  0.795600  0.050100  0.562800  1
  H  H79  1  0.179100  0.609500  0.107800  1
  H  H80  1  0.820900  0.109500  0.392200  1
  H  H81  1  0.179100  0.609500  0.892200  1
  H  H82  1  0.820900  0.109500  0.607800  1
  H  H83  1  0.140700  0.668900  0.154900  1
  H  H84  1  0.859300  0.168900  0.345100  1
  H  H85  1  0.140700  0.668900  0.845100  1
  H  H86  1  0.859300  0.168900  0.654900  1
  H  H87  1  0.058700  0.695900  0.198500  1
  H  H88  1  0.941300  0.195900  0.301500  1
  H  H89  1  0.058700  0.695900  0.801500  1
  H  H90  1  0.941300  0.195900  0.698500  1
  H  H91  1  0.918500  0.650400  0.211300  1
  H  H92  1  0.081500  0.150400  0.288700  1
  H  H93  1  0.918500  0.650400  0.788700  1
  H  H94  1  0.081500  0.150400  0.711300  1
  H  H95  1  0.908600  0.575700  0.200900  1
  H  H96  1  0.091400  0.075700  0.299100  1
  H  H97  1  0.908600  0.575700  0.799100  1
  H  H98  1  0.091400  0.075700  0.700900  1
  H  H99  1  0.048200  0.613700  0.302800  1
  H  H100  1  0.951800  0.113700  0.197200  1
  H  H101  1  0.048200  0.613700  0.697200  1
  H  H102  1  0.951800  0.113700  0.802800  1
  H  H103  1  0.997400  0.673200  0.260300  1
  H  H104  1  0.002600  0.173200  0.239700  1
  H  H105  1  0.997400  0.673200  0.739700  1
  H  H106  1  0.002600  0.173200  0.760300  1
  H  H107  1  0.925100  0.655400  0.129300  1
  H  H108  1  0.074900  0.155400  0.370700  1
  H  H109  1  0.925100  0.655400  0.870700  1
  H  H110  1  0.074900  0.155400  0.629300  1
  H  H111  1  0.861600  0.723300  0.095600  1
  H  H112  1  0.138400  0.223300  0.404400  1
  H  H113  1  0.861600  0.723300  0.904400  1
  H  H114  1  0.138400  0.223300  0.595600  1
  H  H115  1  0.799200  0.677900  0.053900  1
  H  H116  1  0.200800  0.177900  0.446100  1
  H  H117  1  0.799200  0.677900  0.946100  1
  H  H118  1  0.200800  0.177900  0.553900  1
  H  H119  1  0.800200  0.564600  0.046000  1
  H  H120  1  0.199800  0.064600  0.454000  1
  H  H121  1  0.800200  0.564600  0.954000  1
  H  H122  1  0.199800  0.064600  0.546000  1
  H  H123  1  0.818100  0.444000  0.038600  1
  H  H124  1  0.181900  0.944000  0.461400  1
  H  H125  1  0.818100  0.444000  0.961400  1
  H  H126  1  0.181900  0.944000  0.538600  1
  H  H127  1  0.855400  0.329800  0.055500  1
  H  H128  1  0.144600  0.829800  0.444500  1
  H  H129  1  0.855400  0.329800  0.944500  1
  H  H130  1  0.144600  0.829800  0.555500  1
  H  H131  1  0.968500  0.340400  0.124300  1
  H  H132  1  0.031500  0.840400  0.375700  1
  H  H133  1  0.968500  0.340400  0.875700  1
  H  H134  1  0.031500  0.840400  0.624300  1
  H  H135  1  0.945700  0.289200  0.098200  1
  H  H136  1  0.054300  0.789200  0.401800  1
  H  H137  1  0.945700  0.289200  0.901800  1
  H  H138  1  0.054300  0.789200  0.598200  1
  H  H139  1  0.391800  0.404600  0.124200  1
  H  H140  1  0.608200  0.904600  0.375800  1
  H  H141  1  0.391800  0.404600  0.875800  1
  H  H142  1  0.608200  0.904600  0.624200  1
  H  H143  1  0.343600  0.485300  0.156400  1
  H  H144  1  0.656400  0.985300  0.343600  1
  H  H145  1  0.343600  0.485300  0.843600  1
  H  H146  1  0.656400  0.985300  0.656400  1
  H  H147  1  0.402000  0.514400  0.202300  1
  H  H148  1  0.598000  0.014400  0.297700  1
  H  H149  1  0.402000  0.514400  0.797700  1
  H  H150  1  0.598000  0.014400  0.702300  1
  H  H151  1  0.508500  0.462800  0.215900  1
  H  H152  1  0.491500  0.962800  0.284100  1
  H  H153  1  0.508500  0.462800  0.784100  1
  H  H154  1  0.491500  0.962800  0.715900  1
  H  H155  1  0.617700  0.396100  0.227700  1
  H  H156  1  0.382300  0.896100  0.272300  1
  H  H157  1  0.617700  0.396100  0.772300  1
  H  H158  1  0.382300  0.896100  0.727700  1
  H  H159  1  0.704500  0.302600  0.220000  1
  H  H160  1  0.295500  0.802600  0.280000  1
  H  H161  1  0.704500  0.302600  0.780000  1
  H  H162  1  0.295500  0.802600  0.720000  1
  H  H163  1  0.663800  0.218300  0.147600  1
  H  H164  1  0.336200  0.718300  0.352400  1
  H  H165  1  0.663800  0.218300  0.852400  1
  H  H166  1  0.336200  0.718300  0.647600  1
  H  H167  1  0.690800  0.199300  0.181600  1
  H  H168  1  0.309200  0.699300  0.318400  1
  H  H169  1  0.690800  0.199300  0.818400  1
  H  H170  1  0.309200  0.699300  0.681600  1
  H  H171  1  0.929000  0.244300  0.167100  1
  H  H172  1  0.071000  0.744300  0.332900  1
  H  H173  1  0.929000  0.244300  0.832900  1
  H  H174  1  0.071000  0.744300  0.667100  1
  H  H175  1  0.825700  0.205500  0.190100  1
  H  H176  1  0.174300  0.705500  0.309900  1
  H  H177  1  0.825700  0.205500  0.809900  1
  H  H178  1  0.174300  0.705500  0.690100  1
  H  H179  1  0.102600  0.434000  0.152300  1
  H  H180  1  0.897400  0.934000  0.347700  1
  H  H181  1  0.102600  0.434000  0.847700  1
  H  H182  1  0.897400  0.934000  0.652300  1
  H  H183  1  0.144100  0.360400  0.189700  1
  H  H184  1  0.855900  0.860400  0.310300  1
  H  H185  1  0.144100  0.360400  0.810300  1
  H  H186  1  0.855900  0.860400  0.689700  1
  H  H187  1  0.064700  0.313400  0.225000  1
  H  H188  1  0.935300  0.813400  0.275000  1
  H  H189  1  0.064700  0.313400  0.775000  1
  H  H190  1  0.935300  0.813400  0.725000  1
  H  H191  1  0.943900  0.340000  0.222900  1
  H  H192  1  0.056100  0.840000  0.277100  1
  H  H193  1  0.943900  0.340000  0.777100  1
  H  H194  1  0.056100  0.840000  0.722900  1
  H  H195  1  0.816700  0.373800  0.216100  1
  H  H196  1  0.183300  0.873800  0.283900  1
  H  H197  1  0.816700  0.373800  0.783900  1
  H  H198  1  0.183300  0.873800  0.716100  1
  H  H199  1  0.725300  0.461400  0.203200  1
  H  H200  1  0.274700  0.961400  0.296800  1
  H  H201  1  0.725300  0.461400  0.796800  1
  H  H202  1  0.274700  0.961400  0.703200  1
  H  H203  1  0.763200  0.592400  0.178600  1
  H  H204  1  0.236800  0.092400  0.321400  1
  H  H205  1  0.763200  0.592400  0.821400  1
  H  H206  1  0.236800  0.092400  0.678600  1
  H  H207  1  0.798600  0.578800  0.145400  1
  H  H208  1  0.201400  0.078800  0.354600  1
  H  H209  1  0.798600  0.578800  0.854600  1
  H  H210  1  0.201400  0.078800  0.645400  1
  H  H211  1  0.528300  0.148100  0.135300  1
  H  H212  1  0.471700  0.648100  0.364700  1
  H  H213  1  0.528300  0.148100  0.864700  1
  H  H214  1  0.471700  0.648100  0.635300  1
  H  H215  1  0.599700  0.065800  0.114000  1
  H  H216  1  0.400300  0.565800  0.386000  1
  H  H217  1  0.599700  0.065800  0.886000  1
  H  H218  1  0.400300  0.565800  0.614000  1
  H  H219  1  0.680500  0.091100  0.074600  1
  H  H220  1  0.319500  0.591100  0.425400  1
  H  H221  1  0.680500  0.091100  0.925400  1
  H  H222  1  0.319500  0.591100  0.574600  1
  H  H223  1  0.689800  0.198700  0.056400  1
  H  H224  1  0.310200  0.698700  0.443600  1
  H  H225  1  0.689800  0.198700  0.943600  1
  H  H226  1  0.310200  0.698700  0.556400  1
  H  H227  1  0.685900  0.313700  0.037200  1
  H  H228  1  0.314100  0.813700  0.462800  1
  H  H229  1  0.685900  0.313700  0.962800  1
  H  H230  1  0.314100  0.813700  0.537200  1
  H  H231  1  0.648800  0.435200  0.041200  1
  H  H232  1  0.351200  0.935200  0.458800  1
  H  H233  1  0.648800  0.435200  0.958800  1
  H  H234  1  0.351200  0.935200  0.541200  1
  H  H235  1  0.557800  0.498600  0.072300  1
  H  H236  1  0.442200  0.998600  0.427700  1
  H  H237  1  0.557800  0.498600  0.927700  1
  H  H238  1  0.442200  0.998600  0.572300  1
  H  H239  1  0.512100  0.459400  0.097300  1
  H  H240  1  0.487900  0.959400  0.402700  1
  H  H241  1  0.512100  0.459400  0.902700  1
  H  H242  1  0.487900  0.959400  0.597300  1
  H  H243  1  0.625000  0.588400  0.176000  1
  H  H244  1  0.375000  0.088400  0.324000  1
  H  H245  1  0.625000  0.588400  0.824000  1
  H  H246  1  0.375000  0.088400  0.676000  1
  H  H247  1  0.529200  0.544600  0.144900  1
  H  H248  1  0.470800  0.044600  0.355100  1
  H  H249  1  0.529200  0.544600  0.855100  1
  H  H250  1  0.470800  0.044600  0.644900  1
  H  H251  1  0.469200  0.351700  0.060900  1
  H  H252  1  0.530800  0.851700  0.439100  1
  H  H253  1  0.469200  0.351700  0.939100  1
  H  H254  1  0.530800  0.851700  0.560900  1
  H  H255  1  0.368600  0.338200  0.029700  1
  H  H256  1  0.631400  0.838200  0.470300  1
  H  H257  1  0.368600  0.338200  0.970300  1
  H  H258  1  0.631400  0.838200  0.529700  1
  H  H259  1  0.273400  0.274400  0.047200  1
  H  H260  1  0.726600  0.774400  0.452800  1
  H  H261  1  0.273400  0.274400  0.952800  1
  H  H262  1  0.726600  0.774400  0.547200  1
  H  H263  1  0.278700  0.224300  0.095900  1
  H  H264  1  0.721300  0.724300  0.404100  1
  H  H265  1  0.278700  0.224300  0.904100  1
  H  H266  1  0.721300  0.724300  0.595900  1
  H  H267  1  0.304600  0.158700  0.144700  1
  H  H268  1  0.695400  0.658700  0.355300  1
  H  H269  1  0.304600  0.158700  0.855300  1
  H  H270  1  0.695400  0.658700  0.644700  1
  H  H271  1  0.368000  0.139400  0.193700  1
  H  H272  1  0.632000  0.639400  0.306300  1
  H  H273  1  0.368000  0.139400  0.806300  1
  H  H274  1  0.632000  0.639400  0.693700  1
  H  H275  1  0.534200  0.230000  0.196500  1
  H  H276  1  0.465800  0.730000  0.303500  1
  H  H277  1  0.534200  0.230000  0.803500  1
  H  H278  1  0.465800  0.730000  0.696500  1
  H  H279  1  0.492500  0.174400  0.215200  1
  H  H280  1  0.507500  0.674400  0.284800  1
  H  H281  1  0.492500  0.174400  0.784800  1
  H  H282  1  0.507500  0.674400  0.715200  1
  H  H283  1  0.536500  0.224300  0.435200  1
  H  H284  1  0.463500  0.724300  0.064800  1
  H  H285  1  0.536500  0.224300  0.564800  1
  H  H286  1  0.463500  0.724300  0.935200  1
  H  H287  1  0.465900  0.145100  0.459400  1
  H  H288  1  0.534100  0.645100  0.040600  1
  H  H289  1  0.465900  0.145100  0.540600  1
  H  H290  1  0.534100  0.645100  0.959400  1
  H  H291  1  0.353900  0.119500  0.439300  1
  H  H292  1  0.646100  0.619500  0.060700  1
  H  H293  1  0.353900  0.119500  0.560700  1
  H  H294  1  0.646100  0.619500  0.939300  1
  H  H295  1  0.312400  0.173200  0.395000  1
  H  H296  1  0.687600  0.673200  0.105000  1
  H  H297  1  0.312400  0.173200  0.605000  1
  H  H298  1  0.687600  0.673200  0.895000  1
  H  H299  1  0.275100  0.248700  0.353900  1
  H  H300  1  0.724900  0.748700  0.146100  1
  H  H301  1  0.275100  0.248700  0.646100  1
  H  H302  1  0.724900  0.748700  0.853900  1
  H  H303  1  0.286200  0.327500  0.309900  1
  H  H304  1  0.713800  0.827500  0.190100  1
  H  H305  1  0.286200  0.327500  0.690100  1
  H  H306  1  0.713800  0.827500  0.809900  1
  H  H307  1  0.482100  0.375500  0.308300  1
  H  H308  1  0.517900  0.875500  0.191700  1
  H  H309  1  0.482100  0.375500  0.691700  1
  H  H310  1  0.517900  0.875500  0.808300  1
  H  H311  1  0.411200  0.415100  0.300500  1
  H  H312  1  0.588800  0.915100  0.199500  1
  H  H313  1  0.411200  0.415100  0.699500  1
  H  H314  1  0.588800  0.915100  0.800500  1
  H  H315  1  0.381100  0.313700  0.200100  1
  H  H316  1  0.618900  0.813700  0.299900  1
  H  H317  1  0.381100  0.313700  0.799900  1
  H  H318  1  0.618900  0.813700  0.700100  1
  H  H319  1  0.359100  0.390100  0.243900  1
  H  H320  1  0.640900  0.890100  0.256100  1
  H  H321  1  0.359100  0.390100  0.756100  1
  H  H322  1  0.640900  0.890100  0.743900  1
  H  H323  1  0.378100  0.395000  0.380000  1
  H  H324  1  0.621900  0.895000  0.120000  1
  H  H325  1  0.378100  0.395000  0.620000  1
  H  H326  1  0.621900  0.895000  0.880000  1
  H  H327  1  0.328100  0.467500  0.415900  1
  H  H328  1  0.671900  0.967500  0.084100  1
  H  H329  1  0.328100  0.467500  0.584100  1
  H  H330  1  0.671900  0.967500  0.915900  1
  H  H331  1  0.394500  0.502400  0.458600  1
  H  H332  1  0.605500  0.002400  0.041400  1
  H  H333  1  0.394500  0.502400  0.541400  1
  H  H334  1  0.605500  0.002400  0.958600  1
  H  H335  1  0.511000  0.464900  0.465500  1
  H  H336  1  0.489000  0.964900  0.034500  1
  H  H337  1  0.511000  0.464900  0.534500  1
  H  H338  1  0.489000  0.964900  0.965500  1
  H  H339  1  0.630600  0.426800  0.461500  1
  H  H340  1  0.369400  0.926800  0.038500  1
  H  H341  1  0.630600  0.426800  0.538500  1
  H  H342  1  0.369400  0.926800  0.961500  1
  H  H343  1  0.741500  0.351200  0.453400  1
  H  H344  1  0.258500  0.851200  0.046600  1
  H  H345  1  0.741500  0.351200  0.546600  1
  H  H346  1  0.258500  0.851200  0.953400  1
  H  H347  1  0.676100  0.238800  0.391800  1
  H  H348  1  0.323900  0.738800  0.108200  1
  H  H349  1  0.676100  0.238800  0.608200  1
  H  H350  1  0.323900  0.738800  0.891800  1
  H  H351  1  0.709000  0.228900  0.425500  1
  H  H352  1  0.291000  0.728900  0.074500  1
  H  H353  1  0.709000  0.228900  0.574500  1
  H  H354  1  0.291000  0.728900  0.925500  1
  H  H355  1  0.965900  0.671600  0.378300  1
  H  H356  1  0.034100  0.171600  0.121700  1
  H  H357  1  0.965900  0.671600  0.621700  1
  H  H358  1  0.034100  0.171600  0.878300  1
  H  H359  1  0.900200  0.753100  0.353200  1
  H  H360  1  0.099800  0.253100  0.146800  1
  H  H361  1  0.900200  0.753100  0.646800  1
  H  H362  1  0.099800  0.253100  0.853200  1
  H  H363  1  0.821900  0.725100  0.313200  1
  H  H364  1  0.178100  0.225100  0.186800  1
  H  H365  1  0.821900  0.725100  0.686800  1
  H  H366  1  0.178100  0.225100  0.813200  1
  H  H367  1  0.809300  0.615500  0.298400  1
  H  H368  1  0.190700  0.115500  0.201600  1
  H  H369  1  0.809300  0.615500  0.701600  1
  H  H370  1  0.190700  0.115500  0.798400  1
  H  H371  1  0.809400  0.495500  0.284800  1
  H  H372  1  0.190600  0.995500  0.215200  1
  H  H373  1  0.809400  0.495500  0.715200  1
  H  H374  1  0.190600  0.995500  0.784800  1
  H  H375  1  0.838900  0.378100  0.290600  1
  H  H376  1  0.161100  0.878100  0.209400  1
  H  H377  1  0.838900  0.378100  0.709400  1
  H  H378  1  0.161100  0.878100  0.790600  1
  H  H379  1  0.942300  0.313800  0.324500  1
  H  H380  1  0.057700  0.813800  0.175500  1
  H  H381  1  0.942300  0.313800  0.675500  1
  H  H382  1  0.057700  0.813800  0.824500  1
  H  H383  1  0.980500  0.356000  0.351000  1
  H  H384  1  0.019500  0.856000  0.149000  1
  H  H385  1  0.980500  0.356000  0.649000  1
  H  H386  1  0.019500  0.856000  0.851000  1
  H  H387  1  0.844600  0.237400  0.425700  1
  H  H388  1  0.155400  0.737400  0.074300  1
  H  H389  1  0.844600  0.237400  0.574300  1
  H  H390  1  0.155400  0.737400  0.925700  1
  H  H391  1  0.952300  0.269100  0.395200  1
  H  H392  1  0.047700  0.769100  0.104800  1
  H  H393  1  0.952300  0.269100  0.604800  1
  H  H394  1  0.047700  0.769100  0.895200  1
  H  H395  1  0.558500  0.162500  0.376100  1
  H  H396  1  0.441500  0.662500  0.123900  1
  H  H397  1  0.558500  0.162500  0.623900  1
  H  H398  1  0.441500  0.662500  0.876100  1
  H  H399  1  0.629700  0.093100  0.346100  1
  H  H400  1  0.370300  0.593100  0.153900  1
  H  H401  1  0.629700  0.093100  0.653900  1
  H  H402  1  0.370300  0.593100  0.846100  1
  H  H403  1  0.693500  0.135200  0.304100  1
  H  H404  1  0.306500  0.635200  0.195900  1
  H  H405  1  0.693500  0.135200  0.695900  1
  H  H406  1  0.306500  0.635200  0.804100  1
  H  H407  1  0.686100  0.246700  0.291900  1
  H  H408  1  0.313900  0.746700  0.208100  1
  H  H409  1  0.686100  0.246700  0.708100  1
  H  H410  1  0.313900  0.746700  0.791900  1
  H  H411  1  0.673000  0.370000  0.284700  1
  H  H412  1  0.327000  0.870000  0.215300  1
  H  H413  1  0.673000  0.370000  0.715300  1
  H  H414  1  0.327000  0.870000  0.784700  1
  H  H415  1  0.636300  0.479500  0.297100  1
  H  H416  1  0.363700  0.979500  0.202900  1
  H  H417  1  0.636300  0.479500  0.702900  1
  H  H418  1  0.363700  0.979500  0.797100  1
  H  H419  1  0.518400  0.480500  0.366000  1
  H  H420  1  0.481600  0.980500  0.134000  1
  H  H421  1  0.518400  0.480500  0.634000  1
  H  H422  1  0.481600  0.980500  0.866000  1
  H  H423  1  0.546800  0.529200  0.339500  1
  H  H424  1  0.453200  0.029200  0.160500  1
  H  H425  1  0.546800  0.529200  0.660500  1
  H  H426  1  0.453200  0.029200  0.839500  1
  H  H427  1  0.125400  0.419500  0.372100  1
  H  H428  1  0.874600  0.919500  0.127900  1
  H  H429  1  0.125400  0.419500  0.627900  1
  H  H430  1  0.874600  0.919500  0.872100  1
  H  H431  1  0.173200  0.338600  0.404300  1
  H  H432  1  0.826800  0.838600  0.095700  1
  H  H433  1  0.173200  0.338600  0.595700  1
  H  H434  1  0.826800  0.838600  0.904300  1
  H  H435  1  0.109100  0.301900  0.447400  1
  H  H436  1  0.890900  0.801900  0.052600  1
  H  H437  1  0.109100  0.301900  0.552600  1
  H  H438  1  0.890900  0.801900  0.947400  1
  H  H439  1  0.997200  0.346200  0.458300  1
  H  H440  1  0.002800  0.846200  0.041700  1
  H  H441  1  0.997200  0.346200  0.541700  1
  H  H442  1  0.002800  0.846200  0.958300  1
  H  H443  1  0.880300  0.399900  0.459900  1
  H  H444  1  0.119700  0.899900  0.040100  1
  H  H445  1  0.880300  0.399900  0.540100  1
  H  H446  1  0.119700  0.899900  0.959900  1
  H  H447  1  0.802600  0.487700  0.464300  1
  H  H448  1  0.197400  0.987700  0.035700  1
  H  H449  1  0.802600  0.487700  0.535700  1
  H  H450  1  0.197400  0.987700  0.964300  1
  H  H451  1  0.795100  0.606500  0.424800  1
  H  H452  1  0.204900  0.106500  0.075200  1
  H  H453  1  0.795100  0.606500  0.575200  1
  H  H454  1  0.204900  0.106500  0.924800  1
  H  H455  1  0.821200  0.594300  0.390200  1
  H  H456  1  0.178800  0.094300  0.109800  1
  H  H457  1  0.821200  0.594300  0.609800  1
  H  H458  1  0.178800  0.094300  0.890200  1
  H  H459  1  0.562900  0.560400  0.409200  1
  H  H460  1  0.437100  0.060400  0.090800  1
  H  H461  1  0.562900  0.560400  0.590800  1
  H  H462  1  0.437100  0.060400  0.909200  1
  H  H463  1  0.662000  0.596700  0.434000  1
  H  H464  1  0.338000  0.096700  0.066000  1
  H  H465  1  0.662000  0.596700  0.566000  1
  H  H466  1  0.338000  0.096700  0.934000  1
  H  H467  1  0.204400  0.437500  0.120700  1
  H  H468  1  0.795600  0.937500  0.379300  1
  H  H469  1  0.204400  0.437500  0.879300  1
  H  H470  1  0.795600  0.937500  0.620700  1
  H  H471  1  0.217000  0.378100  0.097100  1
  H  H472  1  0.783000  0.878100  0.402900  1
  H  H473  1  0.217000  0.378100  0.902900  1
  H  H474  1  0.783000  0.878100  0.597100  1
  H  H475  1  0.282800  0.421700  0.108400  1
  H  H476  1  0.717200  0.921700  0.391600  1
  H  H477  1  0.282800  0.421700  0.891600  1
  H  H478  1  0.717200  0.921700  0.608400  1
  H  H479  1  0.243600  0.522100  0.243300  1
  H  H480  1  0.756400  0.022100  0.256700  1
  H  H481  1  0.243600  0.522100  0.756700  1
  H  H482  1  0.756400  0.022100  0.743300  1
  H  H483  1  0.160400  0.507300  0.240000  1
  H  H484  1  0.839600  0.007300  0.260000  1
  H  H485  1  0.160400  0.507300  0.760000  1
  H  H486  1  0.839600  0.007300  0.740000  1
  H  H487  1  0.189100  0.580900  0.237300  1
  H  H488  1  0.810900  0.080900  0.262700  1
  H  H489  1  0.189100  0.580900  0.762700  1
  H  H490  1  0.810900  0.080900  0.737300  1
  H  H491  1  0.153200  0.375700  0.262000  1
  H  H492  1  0.846800  0.875700  0.238000  1
  H  H493  1  0.153200  0.375700  0.738000  1
  H  H494  1  0.846800  0.875700  0.762000  1
  H  H495  1  0.203300  0.399100  0.234200  1
  H  H496  1  0.796700  0.899100  0.265800  1
  H  H497  1  0.203300  0.399100  0.765800  1
  H  H498  1  0.796700  0.899100  0.734200  1
  H  H499  1  0.232500  0.399900  0.269000  1
  H  H500  1  0.767500  0.899900  0.231000  1
  H  H501  1  0.232500  0.399900  0.731000  1
  H  H502  1  0.767500  0.899900  0.769000  1
  H  H503  1  0.280100  0.350700  0.177300  1
  H  H504  1  0.719900  0.850700  0.322700  1
  H  H505  1  0.280100  0.350700  0.822700  1
  H  H506  1  0.719900  0.850700  0.677300  1
  H  H507  1  0.293300  0.294200  0.156400  1
  H  H508  1  0.706700  0.794200  0.343600  1
  H  H509  1  0.293300  0.294200  0.843600  1
  H  H510  1  0.706700  0.794200  0.656400  1
  H  H511  1  0.220800  0.306100  0.168900  1
  H  H512  1  0.779200  0.806100  0.331100  1
  H  H513  1  0.220800  0.306100  0.831100  1
  H  H514  1  0.779200  0.806100  0.668900  1
  C  C515  1  0.529900  0.017700  0.500000  1
  C  C516  1  0.470100  0.517700  1.000000  1
  C  C517  1  0.520100  0.947100  0.500000  1
  C  C518  1  0.479900  0.447100  1.000000  1
  C  C519  1  0.020400  0.601600  0.429900  1
  C  C520  1  0.979600  0.101600  0.070100  1
  C  C521  1  0.020400  0.601600  0.570100  1
  C  C522  1  0.979600  0.101600  0.929900  1
  C  C523  1  0.064700  0.645600  0.445090  1
  C  C524  1  0.935300  0.145600  0.054910  1
  C  C525  1  0.064700  0.645600  0.554910  1
  C  C526  1  0.935300  0.145600  0.945090  1
  C  C527  1  0.130600  0.661200  0.432600  1
  C  C528  1  0.869400  0.161200  0.067400  1
  C  C529  1  0.130600  0.661200  0.567400  1
  C  C530  1  0.869400  0.161200  0.932600  1
  C  C531  1  0.152200  0.632800  0.404800  1
  C  C532  1  0.847800  0.132800  0.095200  1
  C  C533  1  0.152200  0.632800  0.595200  1
  C  C534  1  0.847800  0.132800  0.904800  1
  C  C535  1  0.107900  0.588800  0.389680  1
  C  C536  1  0.892100  0.088800  0.110320  1
  C  C537  1  0.107900  0.588800  0.610320  1
  C  C538  1  0.892100  0.088800  0.889680  1
  C  C539  1  0.129600  0.560100  0.360300  1
  C  C540  1  0.870400  0.060100  0.139700  1
  C  C541  1  0.129600  0.560100  0.639700  1
  C  C542  1  0.870400  0.060100  0.860300  1
  C  C543  1  0.187700  0.554700  0.346000  1
  C  C544  1  0.812300  0.054700  0.154000  1
  C  C545  1  0.187700  0.554700  0.654000  1
  C  C546  1  0.812300  0.054700  0.846000  1
  C  C547  1  0.178000  0.518800  0.321900  1
  C  C548  1  0.822000  0.018800  0.178100  1
  C  C549  1  0.178000  0.518800  0.678100  1
  C  C550  1  0.822000  0.018800  0.821900  1
  C  C551  1  0.068600  0.470200  0.297600  1
  C  C552  1  0.931400  0.970200  0.202400  1
  C  C553  1  0.068600  0.470200  0.702400  1
  C  C554  1  0.931400  0.970200  0.797600  1
  C  C555  1  0.057200  0.476000  0.082210  1
  C  C556  1  0.942800  0.976000  0.417790  1
  C  C557  1  0.057200  0.476000  0.917790  1
  C  C558  1  0.942800  0.976000  0.582210  1
  C  C559  1  0.117700  0.490500  0.065010  1
  C  C560  1  0.882300  0.990500  0.434990  1
  C  C561  1  0.117700  0.490500  0.934990  1
  C  C562  1  0.882300  0.990500  0.565010  1
  C  C563  1  0.163100  0.540200  0.074560  1
  C  C564  1  0.836900  0.040200  0.425440  1
  C  C565  1  0.163100  0.540200  0.925440  1
  C  C566  1  0.836900  0.040200  0.574560  1
  C  C567  1  0.148000  0.575500  0.101310  1
  C  C568  1  0.852000  0.075500  0.398690  1
  C  C569  1  0.148000  0.575500  0.898690  1
  C  C570  1  0.852000  0.075500  0.601310  1
  C  C571  1  0.087600  0.561000  0.118510  1
  C  C572  1  0.912400  0.061000  0.381490  1
  C  C573  1  0.087600  0.561000  0.881490  1
  C  C574  1  0.912400  0.061000  0.618510  1
  C  C575  1  0.065200  0.595500  0.145400  1
  C  C576  1  0.934800  0.095500  0.354600  1
  C  C577  1  0.065200  0.595500  0.854600  1
  C  C578  1  0.934800  0.095500  0.645400  1
  C  C579  1  0.097500  0.647700  0.160200  1
  C  C580  1  0.902500  0.147700  0.339800  1
  C  C581  1  0.097500  0.647700  0.839800  1
  C  C582  1  0.902500  0.147700  0.660200  1
  C  C583  1  0.052700  0.661400  0.184000  1
  C  C584  1  0.947300  0.161400  0.316000  1
  C  C585  1  0.052700  0.661400  0.816000  1
  C  C586  1  0.947300  0.161400  0.684000  1
  C  C587  1  0.943800  0.608500  0.207900  1
  C  C588  1  0.056200  0.108500  0.292100  1
  C  C589  1  0.943800  0.608500  0.792100  1
  C  C590  1  0.056200  0.108500  0.707900  1
  C  C591  1  0.033700  0.525700  0.278600  1
  C  C592  1  0.966300  0.025700  0.221400  1
  C  C593  1  0.033700  0.525700  0.721400  1
  C  C594  1  0.966300  0.025700  0.778600  1
  C  C595  1  0.030900  0.593700  0.284400  1
  C  C596  1  0.969100  0.093700  0.215600  1
  C  C597  1  0.030900  0.593700  0.715600  1
  C  C598  1  0.969100  0.093700  0.784400  1
  C  C599  1  0.000800  0.626800  0.260700  1
  C  C600  1  0.999200  0.126800  0.239300  1
  C  C601  1  0.000800  0.626800  0.739300  1
  C  C602  1  0.999200  0.126800  0.760700  1
  C  C603  1  0.974800  0.587400  0.236500  1
  C  C604  1  0.025200  0.087400  0.263500  1
  C  C605  1  0.974800  0.587400  0.763500  1
  C  C606  1  0.025200  0.087400  0.736500  1
  C  C607  1  0.899700  0.636900  0.112420  1
  C  C608  1  0.100300  0.136900  0.387580  1
  C  C609  1  0.899700  0.636900  0.887580  1
  C  C610  1  0.100300  0.136900  0.612420  1
  C  C611  1  0.862000  0.677300  0.092380  1
  C  C612  1  0.138000  0.177300  0.407620  1
  C  C613  1  0.862000  0.677300  0.907620  1
  C  C614  1  0.138000  0.177300  0.592380  1
  C  C615  1  0.824900  0.650400  0.067630  1
  C  C616  1  0.175100  0.150400  0.432370  1
  C  C617  1  0.824900  0.650400  0.932370  1
  C  C618  1  0.175100  0.150400  0.567630  1
  C  C619  1  0.825600  0.583000  0.062910  1
  C  C620  1  0.174400  0.083000  0.437090  1
  C  C621  1  0.825600  0.583000  0.937090  1
  C  C622  1  0.174400  0.083000  0.562910  1
  C  C623  1  0.863300  0.542700  0.082950  1
  C  C624  1  0.136700  0.042700  0.417050  1
  C  C625  1  0.863300  0.542700  0.917050  1
  C  C626  1  0.136700  0.042700  0.582950  1
  C  C627  1  0.871000  0.475200  0.081000  1
  C  C628  1  0.129000  0.975200  0.419000  1
  C  C629  1  0.871000  0.475200  0.919000  1
  C  C630  1  0.129000  0.975200  0.581000  1
  C  C631  1  0.844000  0.432200  0.056700  1
  C  C632  1  0.156000  0.932200  0.443300  1
  C  C633  1  0.844000  0.432200  0.943300  1
  C  C634  1  0.156000  0.932200  0.556700  1
  C  C635  1  0.865100  0.369800  0.065900  1
  C  C636  1  0.134900  0.869800  0.434100  1
  C  C637  1  0.865100  0.369800  0.934100  1
  C  C638  1  0.134900  0.869800  0.565900  1
  C  C639  1  0.927700  0.324200  0.112000  1
  C  C640  1  0.072300  0.824200  0.388000  1
  C  C641  1  0.927700  0.324200  0.888000  1
  C  C642  1  0.072300  0.824200  0.612000  1
  C  C643  1  0.415500  0.416400  0.142830  1
  C  C644  1  0.584500  0.916400  0.357170  1
  C  C645  1  0.415500  0.416400  0.857170  1
  C  C646  1  0.584500  0.916400  0.642830  1
  C  C647  1  0.386900  0.464400  0.161980  1
  C  C648  1  0.613100  0.964400  0.338020  1
  C  C649  1  0.386900  0.464400  0.838020  1
  C  C650  1  0.613100  0.964400  0.661980  1
  C  C651  1  0.421600  0.481700  0.189210  1
  C  C652  1  0.578400  0.981700  0.310790  1
  C  C653  1  0.421600  0.481700  0.810790  1
  C  C654  1  0.578400  0.981700  0.689210  1
  C  C655  1  0.484800  0.451000  0.197300  1
  C  C656  1  0.515200  0.951000  0.302700  1
  C  C657  1  0.484800  0.451000  0.802700  1
  C  C658  1  0.515200  0.951000  0.697300  1
  C  C659  1  0.513400  0.403000  0.178160  1
  C  C660  1  0.486600  0.903000  0.321840  1
  C  C661  1  0.513400  0.403000  0.821840  1
  C  C662  1  0.486600  0.903000  0.678160  1
  C  C663  1  0.575400  0.367000  0.184700  1
  C  C664  1  0.424600  0.867000  0.315300  1
  C  C665  1  0.575400  0.367000  0.815300  1
  C  C666  1  0.424600  0.867000  0.684700  1
  C  C667  1  0.619900  0.367100  0.210500  1
  C  C668  1  0.380100  0.867100  0.289500  1
  C  C669  1  0.619900  0.367100  0.789500  1
  C  C670  1  0.380100  0.867100  0.710500  1
  C  C671  1  0.668200  0.316300  0.206200  1
  C  C672  1  0.331800  0.816300  0.293800  1
  C  C673  1  0.668200  0.316300  0.793800  1
  C  C674  1  0.331800  0.816300  0.706200  1
  C  C675  1  0.690000  0.234700  0.165900  1
  C  C676  1  0.310000  0.734700  0.334100  1
  C  C677  1  0.690000  0.234700  0.834100  1
  C  C678  1  0.310000  0.734700  0.665900  1
  C  C679  1  0.875000  0.294400  0.133900  1
  C  C680  1  0.125000  0.794400  0.366100  1
  C  C681  1  0.875000  0.294400  0.866100  1
  C  C682  1  0.125000  0.794400  0.633900  1
  C  C683  1  0.883200  0.254800  0.159200  1
  C  C684  1  0.116800  0.754800  0.340800  1
  C  C685  1  0.883200  0.254800  0.840800  1
  C  C686  1  0.116800  0.754800  0.659200  1
  C  C687  1  0.825800  0.232200  0.172000  1
  C  C688  1  0.174200  0.732200  0.328000  1
  C  C689  1  0.825800  0.232200  0.828000  1
  C  C690  1  0.174200  0.732200  0.672000  1
  C  C691  1  0.764900  0.251200  0.156700  1
  C  C692  1  0.235100  0.751200  0.343300  1
  C  C693  1  0.764900  0.251200  0.843300  1
  C  C694  1  0.235100  0.751200  0.656700  1
  C  C695  1  0.070300  0.414900  0.166630  1
  C  C696  1  0.929700  0.914900  0.333370  1
  C  C697  1  0.070300  0.414900  0.833370  1
  C  C698  1  0.929700  0.914900  0.666630  1
  C  C699  1  0.095000  0.371200  0.188840  1
  C  C700  1  0.905000  0.871200  0.311160  1
  C  C701  1  0.095000  0.371200  0.811160  1
  C  C702  1  0.905000  0.871200  0.688840  1
  C  C703  1  0.047900  0.343300  0.209820  1
  C  C704  1  0.952100  0.843300  0.290180  1
  C  C705  1  0.047900  0.343300  0.790180  1
  C  C706  1  0.952100  0.843300  0.709820  1
  C  C707  1  0.976100  0.359100  0.208590  1
  C  C708  1  0.023900  0.859100  0.291410  1
  C  C709  1  0.976100  0.359100  0.791410  1
  C  C710  1  0.023900  0.859100  0.708590  1
  C  C711  1  0.951400  0.402800  0.186380  1
  C  C712  1  0.048600  0.902800  0.313620  1
  C  C713  1  0.951400  0.402800  0.813620  1
  C  C714  1  0.048600  0.902800  0.686380  1
  C  C715  1  0.882800  0.431800  0.186200  1
  C  C716  1  0.117200  0.931800  0.313800  1
  C  C717  1  0.882800  0.431800  0.813800  1
  C  C718  1  0.117200  0.931800  0.686200  1
  C  C719  1  0.822000  0.410800  0.202900  1
  C  C720  1  0.178000  0.910800  0.297100  1
  C  C721  1  0.822000  0.410800  0.797100  1
  C  C722  1  0.178000  0.910800  0.702900  1
  C  C723  1  0.772100  0.458200  0.195100  1
  C  C724  1  0.227900  0.958200  0.304900  1
  C  C725  1  0.772100  0.458200  0.804900  1
  C  C726  1  0.227900  0.958200  0.695100  1
  C  C727  1  0.767800  0.559800  0.161690  1
  C  C728  1  0.232200  0.059800  0.338310  1
  C  C729  1  0.767800  0.559800  0.838310  1
  C  C730  1  0.232200  0.059800  0.661690  1
  C  C731  1  0.561100  0.158400  0.119270  1
  C  C732  1  0.438900  0.658400  0.380730  1
  C  C733  1  0.561100  0.158400  0.880730  1
  C  C734  1  0.438900  0.658400  0.619270  1
  C  C735  1  0.603500  0.109490  0.106640  1
  C  C736  1  0.396500  0.609490  0.393360  1
  C  C737  1  0.603500  0.109490  0.893360  1
  C  C738  1  0.396500  0.609490  0.606640  1
  C  C739  1  0.651500  0.124500  0.083220  1
  C  C740  1  0.348500  0.624500  0.416780  1
  C  C741  1  0.651500  0.124500  0.916780  1
  C  C742  1  0.348500  0.624500  0.583220  1
  C  C743  1  0.657000  0.188400  0.072420  1
  C  C744  1  0.343000  0.688400  0.427580  1
  C  C745  1  0.657000  0.188400  0.927580  1
  C  C746  1  0.343000  0.688400  0.572420  1
  C  C747  1  0.614600  0.237300  0.085050  1
  C  C748  1  0.385400  0.737300  0.414950  1
  C  C749  1  0.614600  0.237300  0.914950  1
  C  C750  1  0.385400  0.737300  0.585050  1
  C  C751  1  0.619800  0.304000  0.076730  1
  C  C752  1  0.380200  0.804000  0.423270  1
  C  C753  1  0.619800  0.304000  0.923270  1
  C  C754  1  0.380200  0.804000  0.576730  1
  C  C755  1  0.655300  0.333400  0.052000  1
  C  C756  1  0.344700  0.833400  0.448000  1
  C  C757  1  0.655300  0.333400  0.948000  1
  C  C758  1  0.344700  0.833400  0.552000  1
  C  C759  1  0.634000  0.400800  0.054500  1
  C  C760  1  0.366000  0.900800  0.445500  1
  C  C761  1  0.634000  0.400800  0.945500  1
  C  C762  1  0.366000  0.900800  0.554500  1
  C  C763  1  0.561100  0.467800  0.090000  1
  C  C764  1  0.438900  0.967800  0.410000  1
  C  C765  1  0.561100  0.467800  0.910000  1
  C  C766  1  0.438900  0.967800  0.590000  1
  C  C767  1  0.697200  0.546100  0.148640  1
  C  C768  1  0.302800  0.046100  0.351360  1
  C  C769  1  0.697200  0.546100  0.851360  1
  C  C770  1  0.302800  0.046100  0.648640  1
  C  C771  1  0.633100  0.562100  0.158200  1
  C  C772  1  0.366900  0.062100  0.341800  1
  C  C773  1  0.633100  0.562100  0.841800  1
  C  C774  1  0.366900  0.062100  0.658200  1
  C  C775  1  0.577700  0.536900  0.140050  1
  C  C776  1  0.422300  0.036900  0.359950  1
  C  C777  1  0.577700  0.536900  0.859950  1
  C  C778  1  0.422300  0.036900  0.640050  1
  C  C779  1  0.598400  0.499300  0.114000  1
  C  C780  1  0.401600  0.999300  0.386000  1
  C  C781  1  0.598400  0.499300  0.886000  1
  C  C782  1  0.401600  0.999300  0.614000  1
  C  C783  1  0.430500  0.325800  0.068040  1
  C  C784  1  0.569500  0.825800  0.431960  1
  C  C785  1  0.430500  0.325800  0.931960  1
  C  C786  1  0.569500  0.825800  0.568040  1
  C  C787  1  0.370800  0.317800  0.049500  1
  C  C788  1  0.629200  0.817800  0.450500  1
  C  C789  1  0.370800  0.317800  0.950500  1
  C  C790  1  0.629200  0.817800  0.549500  1
  C  C791  1  0.314200  0.279900  0.059870  1
  C  C792  1  0.685800  0.779900  0.440130  1
  C  C793  1  0.314200  0.279900  0.940130  1
  C  C794  1  0.685800  0.779900  0.559870  1
  C  C795  1  0.317400  0.250100  0.088780  1
  C  C796  1  0.682600  0.750100  0.411220  1
  C  C797  1  0.317400  0.250100  0.911220  1
  C  C798  1  0.682600  0.750100  0.588780  1
  C  C799  1  0.377100  0.258200  0.107320  1
  C  C800  1  0.622900  0.758200  0.392680  1
  C  C801  1  0.377100  0.258200  0.892680  1
  C  C802  1  0.622900  0.758200  0.607320  1
  C  C803  1  0.387400  0.228800  0.136400  1
  C  C804  1  0.612600  0.728800  0.363600  1
  C  C805  1  0.387400  0.228800  0.863600  1
  C  C806  1  0.612600  0.728800  0.636400  1
  C  C807  1  0.346900  0.179400  0.151600  1
  C  C808  1  0.653100  0.679400  0.348400  1
  C  C809  1  0.346900  0.179400  0.848400  1
  C  C810  1  0.653100  0.679400  0.651600  1
  C  C811  1  0.382500  0.169000  0.177900  1
  C  C812  1  0.617500  0.669000  0.322100  1
  C  C813  1  0.382500  0.169000  0.822100  1
  C  C814  1  0.617500  0.669000  0.677900  1
  C  C815  1  0.486800  0.216400  0.204000  1
  C  C816  1  0.513200  0.716400  0.296000  1
  C  C817  1  0.486800  0.216400  0.796000  1
  C  C818  1  0.513200  0.716400  0.704000  1
  C  C819  1  0.491000  0.214000  0.427100  1
  C  C820  1  0.509000  0.714000  0.072900  1
  C  C821  1  0.491000  0.214000  0.572900  1
  C  C822  1  0.509000  0.714000  0.927100  1
  C  C823  1  0.449100  0.166900  0.441440  1
  C  C824  1  0.550900  0.666900  0.058560  1
  C  C825  1  0.449100  0.166900  0.558560  1
  C  C826  1  0.550900  0.666900  0.941440  1
  C  C827  1  0.382500  0.151700  0.429500  1
  C  C828  1  0.617500  0.651700  0.070500  1
  C  C829  1  0.382500  0.151700  0.570500  1
  C  C830  1  0.617500  0.651700  0.929500  1
  C  C831  1  0.357900  0.183600  0.403100  1
  C  C832  1  0.642100  0.683600  0.096900  1
  C  C833  1  0.357900  0.183600  0.596900  1
  C  C834  1  0.642100  0.683600  0.903100  1
  C  C835  1  0.399900  0.230600  0.388750  1
  C  C836  1  0.600100  0.730600  0.111250  1
  C  C837  1  0.399900  0.230600  0.611250  1
  C  C838  1  0.600100  0.730600  0.888750  1
  C  C839  1  0.381200  0.266100  0.360800  1
  C  C840  1  0.618800  0.766100  0.139200  1
  C  C841  1  0.381200  0.266100  0.639200  1
  C  C842  1  0.618800  0.766100  0.860800  1
  C  C843  1  0.316900  0.271300  0.347700  1
  C  C844  1  0.683100  0.771300  0.152300  1
  C  C845  1  0.316900  0.271300  0.652300  1
  C  C846  1  0.683100  0.771300  0.847700  1
  C  C847  1  0.322300  0.314300  0.324000  1
  C  C848  1  0.677700  0.814300  0.176000  1
  C  C849  1  0.322300  0.314300  0.676000  1
  C  C850  1  0.677700  0.814300  0.824000  1
  C  C851  1  0.431900  0.370700  0.301800  1
  C  C852  1  0.568100  0.870700  0.198200  1
  C  C853  1  0.431900  0.370700  0.698200  1
  C  C854  1  0.568100  0.870700  0.801800  1
  C  C855  1  0.458400  0.269600  0.227300  1
  C  C856  1  0.541600  0.769600  0.272700  1
  C  C857  1  0.458400  0.269600  0.772700  1
  C  C858  1  0.541600  0.769600  0.727300  1
  C  C859  1  0.405200  0.312500  0.219400  1
  C  C860  1  0.594800  0.812500  0.280600  1
  C  C861  1  0.405200  0.312500  0.780600  1
  C  C862  1  0.594800  0.812500  0.719400  1
  C  C863  1  0.392100  0.355000  0.245000  1
  C  C864  1  0.607900  0.855000  0.255000  1
  C  C865  1  0.392100  0.355000  0.755000  1
  C  C866  1  0.607900  0.855000  0.745000  1
  C  C867  1  0.430600  0.341600  0.271200  1
  C  C868  1  0.569400  0.841600  0.228800  1
  C  C869  1  0.430600  0.341600  0.728800  1
  C  C870  1  0.569400  0.841600  0.771200  1
  C  C871  1  0.405100  0.409200  0.397300  1
  C  C872  1  0.594900  0.909200  0.102700  1
  C  C873  1  0.405100  0.409200  0.602700  1
  C  C874  1  0.594900  0.909200  0.897300  1
  C  C875  1  0.375400  0.452200  0.418600  1
  C  C876  1  0.624600  0.952200  0.081400  1
  C  C877  1  0.375400  0.452200  0.581400  1
  C  C878  1  0.624600  0.952200  0.918600  1
  C  C879  1  0.414800  0.473000  0.444000  1
  C  C880  1  0.585200  0.973000  0.056000  1
  C  C881  1  0.414800  0.473000  0.556000  1
  C  C882  1  0.585200  0.973000  0.944000  1
  C  C883  1  0.484000  0.450700  0.448100  1
  C  C884  1  0.516000  0.950700  0.051900  1
  C  C885  1  0.484000  0.450700  0.551900  1
  C  C886  1  0.516000  0.950700  0.948100  1
  C  C887  1  0.513700  0.407700  0.426800  1
  C  C888  1  0.486300  0.907700  0.073200  1
  C  C889  1  0.513700  0.407700  0.573200  1
  C  C890  1  0.486300  0.907700  0.926800  1
  C  C891  1  0.579900  0.383900  0.429700  1
  C  C892  1  0.420100  0.883900  0.070300  1
  C  C893  1  0.579900  0.383900  0.570300  1
  C  C894  1  0.420100  0.883900  0.929700  1
  C  C895  1  0.632100  0.393200  0.446300  1
  C  C896  1  0.367900  0.893200  0.053700  1
  C  C897  1  0.632100  0.393200  0.553700  1
  C  C898  1  0.367900  0.893200  0.946300  1
  C  C899  1  0.696700  0.353200  0.443300  1
  C  C900  1  0.303300  0.853200  0.056700  1
  C  C901  1  0.696700  0.353200  0.556700  1
  C  C902  1  0.303300  0.853200  0.943300  1
  C  C903  1  0.704700  0.260200  0.408100  1
  C  C904  1  0.295300  0.760200  0.091900  1
  C  C905  1  0.704700  0.260200  0.591900  1
  C  C906  1  0.295300  0.760200  0.908100  1
  C  C907  1  0.934100  0.660200  0.362070  1
  C  C908  1  0.065900  0.160200  0.137930  1
  C  C909  1  0.934100  0.660200  0.637930  1
  C  C910  1  0.065900  0.160200  0.862070  1
  C  C911  1  0.895100  0.708600  0.347160  1
  C  C912  1  0.104900  0.208600  0.152840  1
  C  C913  1  0.895100  0.708600  0.652840  1
  C  C914  1  0.104900  0.208600  0.847160  1
  C  C915  1  0.848600  0.692000  0.323420  1
  C  C916  1  0.151400  0.192000  0.176580  1
  C  C917  1  0.848600  0.692000  0.676580  1
  C  C918  1  0.151400  0.192000  0.823420  1
  C  C919  1  0.841100  0.626900  0.314600  1
  C  C920  1  0.158900  0.126900  0.185400  1
  C  C921  1  0.841100  0.626900  0.685400  1
  C  C922  1  0.158900  0.126900  0.814600  1
  C  C923  1  0.880100  0.578500  0.329510  1
  C  C924  1  0.119900  0.078500  0.170490  1
  C  C925  1  0.880100  0.578500  0.670490  1
  C  C926  1  0.119900  0.078500  0.829510  1
  C  C927  1  0.879600  0.510800  0.322600  1
  C  C928  1  0.120400  0.010800  0.177400  1
  C  C929  1  0.879600  0.510800  0.677400  1
  C  C930  1  0.120400  0.010800  0.822600  1
  C  C931  1  0.840900  0.476800  0.299600  1
  C  C932  1  0.159100  0.976800  0.200400  1
  C  C933  1  0.840900  0.476800  0.700400  1
  C  C934  1  0.159100  0.976800  0.799600  1
  C  C935  1  0.857200  0.413000  0.302700  1
  C  C936  1  0.142800  0.913000  0.197300  1
  C  C937  1  0.857200  0.413000  0.697300  1
  C  C938  1  0.142800  0.913000  0.802700  1
  C  C939  1  0.934300  0.346700  0.341000  1
  C  C940  1  0.065700  0.846700  0.159000  1
  C  C941  1  0.934300  0.346700  0.659000  1
  C  C942  1  0.065700  0.846700  0.841000  1
  C  C943  1  0.783900  0.274100  0.394400  1
  C  C944  1  0.216100  0.774100  0.105600  1
  C  C945  1  0.783900  0.274100  0.605600  1
  C  C946  1  0.216100  0.774100  0.894400  1
  C  C947  1  0.841800  0.260100  0.406600  1
  C  C948  1  0.158200  0.760100  0.093400  1
  C  C949  1  0.841800  0.260100  0.593400  1
  C  C950  1  0.158200  0.760100  0.906600  1
  C  C951  1  0.905000  0.280500  0.389700  1
  C  C952  1  0.095000  0.780500  0.110300  1
  C  C953  1  0.905000  0.280500  0.610300  1
  C  C954  1  0.095000  0.780500  0.889700  1
  C  C955  1  0.886000  0.320400  0.363600  1
  C  C956  1  0.114000  0.820400  0.136400  1
  C  C957  1  0.886000  0.320400  0.636400  1
  C  C958  1  0.114000  0.820400  0.863600  1
  C  C959  1  0.584400  0.179600  0.358990  1
  C  C960  1  0.415600  0.679600  0.141010  1
  C  C961  1  0.584400  0.179600  0.641010  1
  C  C962  1  0.415600  0.679600  0.858990  1
  C  C963  1  0.626700  0.138400  0.341200  1
  C  C964  1  0.373300  0.638400  0.158800  1
  C  C965  1  0.626700  0.138400  0.658800  1
  C  C966  1  0.373300  0.638400  0.841200  1
  C  C967  1  0.664600  0.163400  0.316200  1
  C  C968  1  0.335400  0.663400  0.183800  1
  C  C969  1  0.664600  0.163400  0.683800  1
  C  C970  1  0.335400  0.663400  0.816200  1
  C  C971  1  0.660200  0.229600  0.309020  1
  C  C972  1  0.339800  0.729600  0.190980  1
  C  C973  1  0.660200  0.229600  0.690980  1
  C  C974  1  0.339800  0.729600  0.809020  1
  C  C975  1  0.617900  0.270800  0.326820  1
  C  C976  1  0.382100  0.770800  0.173180  1
  C  C977  1  0.617900  0.270800  0.673180  1
  C  C978  1  0.382100  0.770800  0.826820  1
  C  C979  1  0.622200  0.340700  0.324000  1
  C  C980  1  0.377800  0.840700  0.176000  1
  C  C981  1  0.622200  0.340700  0.676000  1
  C  C982  1  0.377800  0.840700  0.824000  1
  C  C983  1  0.645700  0.382200  0.302300  1
  C  C984  1  0.354300  0.882200  0.197700  1
  C  C985  1  0.645700  0.382200  0.697700  1
  C  C986  1  0.354300  0.882200  0.802300  1
  C  C987  1  0.625800  0.441300  0.308800  1
  C  C988  1  0.374200  0.941300  0.191200  1
  C  C989  1  0.625800  0.441300  0.691200  1
  C  C990  1  0.374200  0.941300  0.808800  1
  C  C991  1  0.560600  0.493300  0.353700  1
  C  C992  1  0.439400  0.993300  0.146300  1
  C  C993  1  0.560600  0.493300  0.646300  1
  C  C994  1  0.439400  0.993300  0.853700  1
  C  C995  1  0.099300  0.404700  0.389600  1
  C  C996  1  0.900700  0.904700  0.110400  1
  C  C997  1  0.099300  0.404700  0.610400  1
  C  C998  1  0.900700  0.904700  0.889600  1
  C  C999  1  0.127700  0.356600  0.408700  1
  C  C1000  1  0.872300  0.856600  0.091300  1
  C  C1001  1  0.127700  0.356600  0.591300  1
  C  C1002  1  0.872300  0.856600  0.908700  1
  C  C1003  1  0.089700  0.334800  0.434300  1
  C  C1004  1  0.910300  0.834800  0.065700  1
  C  C1005  1  0.089700  0.334800  0.565700  1
  C  C1006  1  0.910300  0.834800  0.934300  1
  C  C1007  1  0.023200  0.361100  0.440800  1
  C  C1008  1  0.976800  0.861100  0.059200  1
  C  C1009  1  0.023200  0.361100  0.559200  1
  C  C1010  1  0.976800  0.861100  0.940800  1
  C  C1011  1  0.994800  0.409200  0.421600  1
  C  C1012  1  0.005200  0.909200  0.078400  1
  C  C1013  1  0.994800  0.409200  0.578400  1
  C  C1014  1  0.005200  0.909200  0.921600  1
  C  C1015  1  0.933300  0.439200  0.427200  1
  C  C1016  1  0.066700  0.939200  0.072800  1
  C  C1017  1  0.933300  0.439200  0.572800  1
  C  C1018  1  0.066700  0.939200  0.927200  1
  C  C1019  1  0.882800  0.436400  0.446400  1
  C  C1020  1  0.117200  0.936400  0.053600  1
  C  C1021  1  0.882800  0.436400  0.553600  1
  C  C1022  1  0.117200  0.936400  0.946400  1
  C  C1023  1  0.836100  0.479700  0.448300  1
  C  C1024  1  0.163900  0.979700  0.051700  1
  C  C1025  1  0.836100  0.479700  0.551700  1
  C  C1026  1  0.163900  0.979700  0.948300  1
  C  C1027  1  0.797200  0.573500  0.408000  1
  C  C1028  1  0.202800  0.073500  0.092000  1
  C  C1029  1  0.797200  0.573500  0.592000  1
  C  C1030  1  0.202800  0.073500  0.908000  1
  C  C1031  1  0.623300  0.517100  0.376200  1
  C  C1032  1  0.376700  0.017100  0.123800  1
  C  C1033  1  0.623300  0.517100  0.623800  1
  C  C1034  1  0.376700  0.017100  0.876200  1
  C  C1035  1  0.609700  0.552300  0.401800  1
  C  C1036  1  0.390300  0.052300  0.098200  1
  C  C1037  1  0.609700  0.552300  0.598200  1
  C  C1038  1  0.390300  0.052300  0.901800  1
  C  C1039  1  0.663900  0.573300  0.415000  1
  C  C1040  1  0.336100  0.073300  0.085000  1
  C  C1041  1  0.663900  0.573300  0.585000  1
  C  C1042  1  0.336100  0.073300  0.915000  1
  C  C1043  1  0.729500  0.559500  0.399500  1
  C  C1044  1  0.270500  0.059500  0.100500  1
  C  C1045  1  0.729500  0.559500  0.600500  1
  C  C1046  1  0.270500  0.059500  0.899500  1
  C  C1047  1  0.237200  0.402500  0.114600  1
  C  C1048  1  0.762800  0.902500  0.385400  1
  C  C1049  1  0.237200  0.402500  0.885400  1
  C  C1050  1  0.762800  0.902500  0.614600  1
  C  C1051  1  0.248500  0.357600  0.141100  1
  C  C1052  1  0.751500  0.857600  0.358900  1
  C  C1053  1  0.248500  0.357600  0.858900  1
  C  C1054  1  0.751500  0.857600  0.641100  1
  C  C1055  1  0.199700  0.534900  0.232700  1
  C  C1056  1  0.800300  0.034900  0.267300  1
  C  C1057  1  0.199700  0.534900  0.767300  1
  C  C1058  1  0.800300  0.034900  0.732700  1
  C  C1059  1  0.208500  0.526500  0.199400  1
  C  C1060  1  0.791500  0.026500  0.300600  1
  C  C1061  1  0.208500  0.526500  0.800600  1
  C  C1062  1  0.791500  0.026500  0.699400  1
  C  C1063  1  0.202100  0.376600  0.254300  1
  C  C1064  1  0.797900  0.876600  0.245700  1
  C  C1065  1  0.202100  0.376600  0.745700  1
  C  C1066  1  0.797900  0.876600  0.754300  1
  C  C1067  1  0.228000  0.309300  0.250500  1
  C  C1068  1  0.772000  0.809300  0.249500  1
  C  C1069  1  0.228000  0.309300  0.749500  1
  C  C1070  1  0.772000  0.809300  0.750500  1
  S  S1071  1  0.994910  0.506350  0.244410  1
  S  S1072  1  0.005090  0.006350  0.255590  1
  S  S1073  1  0.994910  0.506350  0.755590  1
  S  S1074  1  0.005090  0.006350  0.744410  1
  S  S1075  1  0.785140  0.301840  0.125410  1
  S  S1076  1  0.214860  0.801840  0.374590  1
  S  S1077  1  0.785140  0.301840  0.874590  1
  S  S1078  1  0.214860  0.801840  0.625410  1
  S  S1079  1  0.692060  0.494660  0.115400  1
  S  S1080  1  0.307940  0.994660  0.384600  1
  S  S1081  1  0.692060  0.494660  0.884600  1
  S  S1082  1  0.307940  0.994660  0.615400  1
  S  S1083  1  0.489890  0.275700  0.263020  1
  S  S1084  1  0.510110  0.775700  0.236980  1
  S  S1085  1  0.489890  0.275700  0.736980  1
  S  S1086  1  0.510110  0.775700  0.763020  1
  S  S1087  1  0.794900  0.323620  0.362560  1
  S  S1088  1  0.205100  0.823620  0.137440  1
  S  S1089  1  0.794900  0.323620  0.637440  1
  S  S1090  1  0.205100  0.823620  0.862560  1
  S  S1091  1  0.707660  0.511940  0.367230  1
  S  S1092  1  0.292340  0.011940  0.132770  1
  S  S1093  1  0.707660  0.511940  0.632770  1
  S  S1094  1  0.292340  0.011940  0.867230  1
  N  N1095  1  0.507400  0.891900  0.500000  1
  N  N1096  1  0.492600  0.391900  1.000000  1
  N  N1097  1  0.042000  0.573200  0.402200  1
  N  N1098  1  0.958000  0.073200  0.097800  1
  N  N1099  1  0.042000  0.573200  0.597800  1
  N  N1100  1  0.958000  0.073200  0.902200  1
  N  N1101  1  0.108200  0.500900  0.322400  1
  N  N1102  1  0.891800  0.000900  0.177600  1
  N  N1103  1  0.108200  0.500900  0.677600  1
  N  N1104  1  0.891800  0.000900  0.822400  1
  N  N1105  1  0.071800  0.526200  0.346800  1
  N  N1106  1  0.928200  0.026200  0.153200  1
  N  N1107  1  0.071800  0.526200  0.653200  1
  N  N1108  1  0.928200  0.026200  0.846800  1
  N  N1109  1  0.042200  0.511300  0.108960  1
  N  N1110  1  0.957800  0.011300  0.391040  1
  N  N1111  1  0.042200  0.511300  0.891040  1
  N  N1112  1  0.957800  0.011300  0.608960  1
  N  N1113  1  0.997200  0.617400  0.183820  1
  N  N1114  1  0.002800  0.117400  0.316180  1
  N  N1115  1  0.997200  0.617400  0.816180  1
  N  N1116  1  0.002800  0.117400  0.683820  1
  N  N1117  1  0.007300  0.574800  0.159350  1
  N  N1118  1  0.992700  0.074800  0.340650  1
  N  N1119  1  0.007300  0.574800  0.840650  1
  N  N1120  1  0.992700  0.074800  0.659350  1
  N  N1121  1  0.900400  0.569600  0.107710  1
  N  N1122  1  0.099600  0.069600  0.392290  1
  N  N1123  1  0.900400  0.569600  0.892290  1
  N  N1124  1  0.099600  0.069600  0.607710  1
  N  N1125  1  0.902500  0.377300  0.092940  1
  N  N1126  1  0.097500  0.877300  0.407060  1
  N  N1127  1  0.902500  0.377300  0.907060  1
  N  N1128  1  0.097500  0.877300  0.592940  1
  N  N1129  1  0.901800  0.440500  0.102840  1
  N  N1130  1  0.098200  0.940500  0.397160  1
  N  N1131  1  0.901800  0.440500  0.897160  1
  N  N1132  1  0.098200  0.940500  0.602840  1
  N  N1133  1  0.478800  0.385800  0.150920  1
  N  N1134  1  0.521200  0.885800  0.349080  1
  N  N1135  1  0.478800  0.385800  0.849080  1
  N  N1136  1  0.521200  0.885800  0.650920  1
  N  N1137  1  0.652800  0.291100  0.178570  1
  N  N1138  1  0.347200  0.791100  0.321430  1
  N  N1139  1  0.652800  0.291100  0.821430  1
  N  N1140  1  0.347200  0.791100  0.678570  1
  N  N1141  1  0.596300  0.318300  0.164520  1
  N  N1142  1  0.403700  0.818300  0.335480  1
  N  N1143  1  0.596300  0.318300  0.835480  1
  N  N1144  1  0.403700  0.818300  0.664520  1
  N  N1145  1  0.998600  0.430700  0.165400  1
  N  N1146  1  0.001400  0.930700  0.334600  1
  N  N1147  1  0.998600  0.430700  0.834600  1
  N  N1148  1  0.001400  0.930700  0.665400  1
  N  N1149  1  0.801400  0.499000  0.174100  1
  N  N1150  1  0.198600  0.999000  0.325900  1
  N  N1151  1  0.801400  0.499000  0.825900  1
  N  N1152  1  0.198600  0.999000  0.674100  1
  N  N1153  1  0.869600  0.482500  0.168060  1
  N  N1154  1  0.130400  0.982500  0.331940  1
  N  N1155  1  0.869600  0.482500  0.831940  1
  N  N1156  1  0.130400  0.982500  0.668060  1
  N  N1157  1  0.566600  0.222300  0.108470  1
  N  N1158  1  0.433400  0.722300  0.391530  1
  N  N1159  1  0.566600  0.222300  0.891530  1
  N  N1160  1  0.433400  0.722300  0.608470  1
  N  N1161  1  0.589900  0.407200  0.078690  1
  N  N1162  1  0.410100  0.907200  0.421310  1
  N  N1163  1  0.589900  0.407200  0.921310  1
  N  N1164  1  0.410100  0.907200  0.578690  1
  N  N1165  1  0.580700  0.348900  0.093780  1
  N  N1166  1  0.419300  0.848900  0.406220  1
  N  N1167  1  0.580700  0.348900  0.906220  1
  N  N1168  1  0.419300  0.848900  0.593780  1
  N  N1169  1  0.433700  0.296000  0.096950  1
  N  N1170  1  0.566300  0.796000  0.403050  1
  N  N1171  1  0.433700  0.296000  0.903050  1
  N  N1172  1  0.566300  0.796000  0.596950  1
  N  N1173  1  0.443100  0.206900  0.179100  1
  N  N1174  1  0.556900  0.706900  0.320900  1
  N  N1175  1  0.443100  0.206900  0.820900  1
  N  N1176  1  0.556900  0.706900  0.679100  1
  N  N1177  1  0.448300  0.243000  0.152300  1
  N  N1178  1  0.551700  0.743000  0.347700  1
  N  N1179  1  0.448300  0.243000  0.847700  1
  N  N1180  1  0.551700  0.743000  0.652300  1
  N  N1181  1  0.466400  0.245800  0.400720  1
  N  N1182  1  0.533600  0.745800  0.099280  1
  N  N1183  1  0.466400  0.245800  0.599280  1
  N  N1184  1  0.533600  0.745800  0.900720  1
  N  N1185  1  0.395400  0.335500  0.325100  1
  N  N1186  1  0.604600  0.835500  0.174900  1
  N  N1187  1  0.395400  0.335500  0.674900  1
  N  N1188  1  0.604600  0.835500  0.825100  1
  N  N1189  1  0.428100  0.303800  0.347000  1
  N  N1190  1  0.571900  0.803800  0.153000  1
  N  N1191  1  0.428100  0.303800  0.653000  1
  N  N1192  1  0.571900  0.803800  0.847000  1
  N  N1193  1  0.474300  0.386900  0.401400  1
  N  N1194  1  0.525700  0.886900  0.098600  1
  N  N1195  1  0.474300  0.386900  0.598600  1
  N  N1196  1  0.525700  0.886900  0.901400  1
  N  N1197  1  0.664500  0.319800  0.419500  1
  N  N1198  1  0.335500  0.819800  0.080500  1
  N  N1199  1  0.664500  0.319800  0.580500  1
  N  N1200  1  0.335500  0.819800  0.919500  1
  N  N1201  1  0.602300  0.331900  0.410700  1
  N  N1202  1  0.397700  0.831900  0.089300  1
  N  N1203  1  0.602300  0.331900  0.589300  1
  N  N1204  1  0.397700  0.831900  0.910700  1
  N  N1205  1  0.926600  0.595100  0.353250  1
  N  N1206  1  0.073400  0.095100  0.146750  1
  N  N1207  1  0.926600  0.595100  0.646750  1
  N  N1208  1  0.073400  0.095100  0.853250  1
  N  N1209  1  0.906100  0.407400  0.327100  1
  N  N1210  1  0.093900  0.907400  0.172900  1
  N  N1211  1  0.906100  0.407400  0.672900  1
  N  N1212  1  0.093900  0.907400  0.827100  1
  N  N1213  1  0.917200  0.467500  0.339500  1
  N  N1214  1  0.082800  0.967500  0.160500  1
  N  N1215  1  0.917200  0.467500  0.660500  1
  N  N1216  1  0.082800  0.967500  0.839500  1
  N  N1217  1  0.580000  0.245800  0.351800  1
  N  N1218  1  0.420000  0.745800  0.148200  1
  N  N1219  1  0.580000  0.245800  0.648200  1
  N  N1220  1  0.420000  0.745800  0.851800  1
  N  N1221  1  0.585600  0.438900  0.336400  1
  N  N1222  1  0.414400  0.938900  0.163600  1
  N  N1223  1  0.585600  0.438900  0.663600  1
  N  N1224  1  0.414400  0.938900  0.836400  1
  N  N1225  1  0.584100  0.373500  0.345600  1
  N  N1226  1  0.415900  0.873500  0.154400  1
  N  N1227  1  0.584100  0.373500  0.654400  1
  N  N1228  1  0.415900  0.873500  0.845600  1
  N  N1229  1  0.032800  0.431000  0.396000  1
  N  N1230  1  0.967200  0.931000  0.104000  1
  N  N1231  1  0.032800  0.431000  0.604000  1
  N  N1232  1  0.967200  0.931000  0.896000  1
  N  N1233  1  0.846400  0.513700  0.419800  1
  N  N1234  1  0.153600  0.013700  0.080200  1
  N  N1235  1  0.846400  0.513700  0.580200  1
  N  N1236  1  0.153600  0.013700  0.919800  1
  N  N1237  1  0.903200  0.492800  0.409100  1
  N  N1238  1  0.096800  0.992800  0.090900  1
  N  N1239  1  0.903200  0.492800  0.590900  1
  N  N1240  1  0.096800  0.992800  0.909100  1
  N  N1241  1  0.261300  0.325500  0.162000  1
  N  N1242  1  0.738700  0.825500  0.338000  1
  N  N1243  1  0.261300  0.325500  0.838000  1
  N  N1244  1  0.738700  0.825500  0.662000  1
  N  N1245  1  0.219300  0.513300  0.174900  1
  N  N1246  1  0.780700  0.013300  0.325100  1
  N  N1247  1  0.219300  0.513300  0.825100  1
  N  N1248  1  0.780700  0.013300  0.674900  1
  N  N1249  1  0.238600  0.251400  0.253200  1
  N  N1250  1  0.761400  0.751400  0.246800  1
  N  N1251  1  0.238600  0.251400  0.746800  1
  N  N1252  1  0.761400  0.751400  0.753200  1
  F  F1253  1  0.734600  0.498900  0.000000  1
  F  F1254  1  0.265400  0.998900  0.500000  1
  F  F1255  1  0.717100  0.609000  1.000000  1
  F  F1256  1  0.282900  0.109000  0.500000  1
  F  F1257  1  0.212800  0.698900  0.252000  1
  F  F1258  1  0.787200  0.198900  0.248000  1
  F  F1259  1  0.212800  0.698900  0.748000  1
  F  F1260  1  0.787200  0.198900  0.752000  1
  F  F1261  1  0.215600  0.804200  0.243520  1
  F  F1262  1  0.784400  0.304200  0.256480  1
  F  F1263  1  0.215600  0.804200  0.756480  1
  F  F1264  1  0.784400  0.304200  0.743520  1
  F  F1265  1  0.111000  0.752100  0.251460  1
  F  F1266  1  0.889000  0.252100  0.248540  1
  F  F1267  1  0.111000  0.752100  0.748540  1
  F  F1268  1  0.889000  0.252100  0.751460  1
  F  F1269  1  0.171900  0.741000  0.207070  1
  F  F1270  1  0.828100  0.241000  0.292930  1
  F  F1271  1  0.171900  0.741000  0.792930  1
  F  F1272  1  0.828100  0.241000  0.707070  1
  F  F1273  1  0.146900  0.230700  0.079760  1
  F  F1274  1  0.853100  0.730700  0.420240  1
  F  F1275  1  0.146900  0.230700  0.920240  1
  F  F1276  1  0.853100  0.730700  0.579760  1
  F  F1277  1  0.137900  0.325600  0.053180  1
  F  F1278  1  0.862100  0.825600  0.446820  1
  F  F1279  1  0.137900  0.325600  0.946820  1
  F  F1280  1  0.862100  0.825600  0.553180  1
  F  F1281  1  0.038900  0.264200  0.062920  1
  F  F1282  1  0.961100  0.764200  0.437080  1
  F  F1283  1  0.038900  0.264200  0.937080  1
  F  F1284  1  0.961100  0.764200  0.562920  1
  F  F1285  1  0.093100  0.318700  0.101840  1
  F  F1286  1  0.906900  0.818700  0.398160  1
  F  F1287  1  0.093100  0.318700  0.898160  1
  F  F1288  1  0.906900  0.818700  0.601840  1
  F  F1289  1  0.163000  0.227800  0.320700  1
  F  F1290  1  0.837000  0.727800  0.179300  1
  F  F1291  1  0.163000  0.227800  0.679300  1
  F  F1292  1  0.837000  0.727800  0.820700  1
  F  F1293  1  0.139600  0.335300  0.326500  1
  F  F1294  1  0.860400  0.835300  0.173500  1
  F  F1295  1  0.139600  0.335300  0.673500  1
  F  F1296  1  0.860400  0.835300  0.826500  1
  F  F1297  1  0.070000  0.261700  0.348240  1
  F  F1298  1  0.930000  0.761700  0.151760  1
  F  F1299  1  0.070000  0.261700  0.651760  1
  F  F1300  1  0.930000  0.761700  0.848240  1
  F  F1301  1  0.070300  0.273600  0.296400  1
  F  F1302  1  0.929700  0.773600  0.203600  1
  F  F1303  1  0.070300  0.273600  0.703600  1
  F  F1304  1  0.929700  0.773600  0.796400  1
  F  F1305  1  0.359700  0.123700  0.259700  1
  F  F1306  1  0.640300  0.623700  0.240300  1
  F  F1307  1  0.359700  0.123700  0.740300  1
  F  F1308  1  0.640300  0.623700  0.759700  1
  F  F1309  1  0.348700  0.013000  0.260300  1
  F  F1310  1  0.651300  0.513000  0.239700  1
  F  F1311  1  0.348700  0.013000  0.739700  1
  F  F1312  1  0.651300  0.513000  0.760300  1
  F  F1313  1  0.249100  0.078700  0.264300  1
  F  F1314  1  0.750900  0.578700  0.235700  1
  F  F1315  1  0.249100  0.078700  0.735700  1
  F  F1316  1  0.750900  0.578700  0.764300  1
  F  F1317  1  0.303600  0.072000  0.220700  1
  F  F1318  1  0.696400  0.572000  0.279300  1
  F  F1319  1  0.303600  0.072000  0.779300  1
  F  F1320  1  0.696400  0.572000  0.720700  1
  F  F1321  1  0.647100  0.542200  0.027000  1.0
  F  F1322  1  0.352900  0.042200  0.473000  1.0
  F  F1323  1  0.647100  0.542200  0.973000  1.0
  F  F1324  1  0.352900  0.042200  0.527000  1.0
