
#######################################################################
#
#                 Cambridge Crystallographic Data Centre
#                                CCDC 
#
#######################################################################
#
# If this CIF has been generated from an entry in the Cambridge 
# Structural Database, then it will include bibliographic, chemical, 
# crystal, experimental, refinement or atomic coordinate data resulting 
# from the CCDC's data processing and validation procedures.
#
#######################################################################

data_DAHGEA
_chemical_formula_moiety         
'C132 H108 N36 Ni4 O6 8+,8(B1 F4 1-),16(C1 H3 N1 O2)'
_chemical_name_systematic        
'hexakis(\m~2~-2,5-bis(3-(2-Pyridyl)pyrazolylmethyl)furan)-tetra-nickel(ii) octakis(tetrafluoroborate) nitromethane solvate'
_symmetry_cell_setting           triclinic
_symmetry_space_group_name_H-M   'P -1'
_symmetry_Int_Tables_number      2
_space_group_name_Hall           '-P 1'
loop_
_symmetry_equiv_pos_site_id
_symmetry_equiv_pos_as_xyz
1 x,y,z
2 -x,-y,-z
_cell_length_a                   13.0255(4)
_cell_length_b                   19.7988(7)
_cell_length_c                   20.0373(7)
_cell_angle_alpha                112.172(2)
_cell_angle_beta                 98.864(2)
_cell_angle_gamma                94.268(2)
_cell_volume                     4678.26
_exptl_crystal_colour            purple
_exptl_crystal_description       needle
_cell_formula_units_Z            1
loop_
_atom_site_label
_atom_site_type_symbol
_atom_site_fract_x
_atom_site_fract_y
_atom_site_fract_z
Ni1 Ni 0.82104(8) 0.64532(5) 0.37142(6)
Ni2 Ni 0.71969(8) 0.78856(5) 0.85862(6)
N1 N 0.8517(5) 0.5576(3) 0.2832(4)
C1 C 0.8942(6) 0.5634(5) 0.2291(5)
H1 H 0.9106 0.6109 0.2289
C2 C 0.9158(7) 0.5011(5) 0.1716(5)
H2 H 0.9449 0.5060 0.1327
C3 C 0.8928(7) 0.4323(5) 0.1741(6)
H3 H 0.9089 0.3893 0.1379
C4 C 0.8466(6) 0.4275(5) 0.2296(5)
H4 H 0.8274 0.3807 0.2305
C5 C 0.8281(6) 0.4901(4) 0.2835(4)
N2 N 0.7353(5) 0.5413(3) 0.4496(4)
N3 N 0.7756(5) 0.5566(3) 0.3978(4)
C6 C 0.7833(6) 0.4905(4) 0.3465(4)
C7 C 0.7451(6) 0.4334(5) 0.3665(5)
H5 H 0.7405 0.3818 0.3399
C8 C 0.7171(6) 0.4679(5) 0.4310(5)
H6 H 0.6889 0.4445 0.4592
C9 C 0.7267(6) 0.5990(4) 0.5198(4)
H7 H 0.6704 0.5815 0.5400
H8 H 0.7078 0.6433 0.5118
N4 N 0.6810(5) 0.8918(3) 0.8661(3)
C10 C 0.6003(7) 0.9209(4) 0.8909(5)
H9 H 0.5534 0.8933 0.9063
C11 C 0.5802(8) 0.9907(5) 0.8955(5)
H10 H 0.5210 1.0104 0.9135
C12 C 0.6501(8) 1.0304(5) 0.8728(5)
H11 H 0.6397 1.0782 0.8751
C13 C 0.7334(7) 0.9994(5) 0.8473(5)
H12 H 0.7817 1.0257 0.8316
C14 C 0.7482(6) 0.9301(5) 0.8441(4)
N5 N 0.9179(5) 0.8005(4) 0.7772(4)
N6 N 0.8369(5) 0.8227(4) 0.8102(4)
C15 C 0.8312(6) 0.8913(5) 0.8115(5)
C16 C 0.9096(7) 0.9118(5) 0.7797(5)
H13 H 0.9238 0.9569 0.7740
C17 C 0.9614(7) 0.8515(5) 0.7584(5)
H14 H 1.0192 0.8472 0.7341
C18 C 0.9471(7) 0.7263(5) 0.7623(5)
H15 H 0.9065 0.7023 0.7873
H16 H 1.0225 0.7313 0.7835
C19 C 0.8286(7) 0.6185(4) 0.5734(4)
C20 C 0.9251(6) 0.6002(5) 0.5684(5)
H17 H 0.9466 0.5674 0.5262
C21 C 0.9887(7) 0.6403(5) 0.6396(5)
H18 H 1.0617 0.6399 0.6536
C22 C 0.9278(6) 0.6781(5) 0.6825(5)
O1 O 0.8265(4) 0.6660(3) 0.6437(3)
N7 N 0.9684(5) 0.6613(3) 0.4356(3)
C23 C 1.0421(7) 0.6174(5) 0.4202(5)
H19 H 1.0261 0.5729 0.3774
C24 C 1.1420(7) 0.6345(5) 0.4648(5)
H20 H 1.1924 0.6018 0.4525
C25 C 1.1665(7) 0.6987(6) 0.5262(5)
H21 H 1.2343 0.7116 0.5568
C26 C 1.0916(7) 0.7441(5) 0.5429(4)
H22 H 1.1068 0.7888 0.5855
C27 C 0.9931(6) 0.7241(4) 0.4970(5)
N8 N 0.7443(5) 0.7848(4) 0.4929(4)
N9 N 0.8108(5) 0.7340(3) 0.4693(4)
C28 C 0.9055(6) 0.7666(4) 0.5111(4)
C29 C 0.9003(7) 0.8367(5) 0.5602(5)
H23 H 0.9570 0.8711 0.5950
C30 C 0.7969(8) 0.8470(5) 0.5488(5)
H24 H 0.7678 0.8894 0.5751
C31 C 0.6315(6) 0.7669(5) 0.4628(5)
H25 H 0.6124 0.7127 0.4373
H26 H 0.6140 0.7887 0.4261
N10 N 0.7557(5) 0.6838(4) 0.8446(4)
C32 C 0.8228(6) 0.6670(5) 0.8916(5)
H27 H 0.8542 0.7049 0.9379
C33 C 0.8485(7) 0.5962(5) 0.8755(5)
H28 H 0.8965 0.5857 0.9098
C34 C 0.8019(7) 0.5417(5) 0.8077(5)
H29 H 0.8187 0.4930 0.7945
C35 C 0.7315(6) 0.5580(5) 0.7599(5)
H30 H 0.6986 0.5208 0.7136
C36 C 0.7085(6) 0.6293(4) 0.7796(5)
N11 N 0.5658(5) 0.7324(4) 0.6985(4)
N12 N 0.6325(5) 0.7250(3) 0.7533(3)
C37 C 0.6391(6) 0.6528(4) 0.7310(4)
C38 C 0.5721(6) 0.6128(5) 0.6624(4)
H31 H 0.5598 0.5609 0.6354
C39 C 0.5286(6) 0.6658(5) 0.6436(5)
H32 H 0.4805 0.6571 0.5994
C40 C 0.5474(6) 0.8048(4) 0.6999(4)
H33 H 0.6100 0.8414 0.7296
H34 H 0.4871 0.8198 0.7239
C41 C 0.5688(6) 0.7953(4) 0.5216(5)
C42 C 0.4837(7) 0.8283(4) 0.5256(5)
H35 H 0.4498 0.8448 0.4903
C43 C 0.4525(6) 0.8347(4) 0.5927(4)
H36 H 0.3933 0.8549 0.6104
C44 C 0.5258(6) 0.8054(5) 0.6263(5)
O2 O 0.5981(4) 0.7807(3) 0.5830(3)
N13 N 0.8655(5) 0.7283(3) 0.3354(4)
C45 C 0.9630(7) 0.7649(4) 0.3479(5)
H37 H 1.0203 0.7466 0.3678
C46 C 0.9844(7) 0.8258(5) 0.3341(5)
H38 H 1.0543 0.8499 0.3444
C47 C 0.9008(8) 0.8517(5) 0.3044(5)
H39 H 0.9128 0.8950 0.2952
C48 C 0.8001(7) 0.8148(5) 0.2881(5)
H40 H 0.7424 0.8314 0.2667
C49 C 0.7855(6) 0.7522(4) 0.3041(4)
N14 N 0.5794(5) 0.6161(4) 0.2812(4)
N15 N 0.6798(5) 0.6496(4) 0.3058(3)
C50 C 0.6841(7) 0.7071(5) 0.2872(5)
C51 C 0.5853(7) 0.7111(5) 0.2508(5)
H41 H 0.5667 0.7474 0.2327
C52 C 0.5218(7) 0.6516(5) 0.2472(5)
H42 H 0.4496 0.6377 0.2246
C53 C 0.5456(6) 0.5450(4) 0.2821(5)
H43 H 0.4688 0.5388 0.2798
H44 H 0.5804 0.5431 0.3288
N16 N 0.8123(5) 0.8400(4) 0.9647(4)
C54 C 0.9158(7) 0.8669(5) 0.9829(5)
H45 H 0.9529 0.8620 0.9444
C55 C 0.9692(7) 0.9005(5) 1.0532(5)
H46 H 1.0419 0.9188 1.0636
C56 C 0.9164(8) 0.9076(5) 1.1095(6)
H47 H 0.9520 0.9323 1.1592
C57 C 0.8116(7) 0.8789(5) 1.0935(5)
H48 H 0.7749 0.8811 1.1316
C58 C 0.7601(6) 0.8459(4) 1.0185(5)
N17 N 0.5069(5) 0.7594(3) 0.9199(4)
N18 N 0.6105(5) 0.7791(3) 0.9250(4)
C59 C 0.6498(6) 0.8159(4) 0.9972(5)
C60 C 0.5728(7) 0.8192(4) 1.0387(5)
H49 H 0.5806 0.8412 1.0907
C61 C 0.4822(7) 0.7832(5) 0.9874(5)
H50 H 0.4143 0.7762 0.9977
C62 C 0.4357(6) 0.7132(4) 0.8521(4)
H51 H 0.4626 0.7177 0.8102
H52 H 0.3663 0.7305 0.8523
C63 C 0.5712(6) 0.4842(4) 0.2198(5)
C64 C 0.6104(7) 0.4780(5) 0.1598(5)
H53 H 0.6310 0.5173 0.1461
C65 C 0.6156(6) 0.4023(4) 0.1205(5)
H54 H 0.6412 0.3814 0.0763
C66 C 0.4229(6) 0.6339(4) 0.8421(4)
O3 O 0.5490(4) 0.4151(3) 0.2191(3)
Ni1A Ni 0.17896(8) 0.35468(5) 0.62858(6)
Ni2A Ni 0.28031(8) 0.21144(5) 0.14138(6)
N1A N 0.1483(5) 0.4424(3) 0.7168(4)
C1A C 0.1058(6) 0.4366(5) 0.7709(5)
H1A H 0.0894 0.3891 0.7711
C2A C 0.0842(7) 0.4989(5) 0.8284(5)
H2A H 0.0551 0.4940 0.8673
C3A C 0.1072(7) 0.5677(5) 0.8259(6)
H3A H 0.0911 0.6107 0.8621
C4A C 0.1534(6) 0.5725(5) 0.7704(5)
H4A H 0.1726 0.6193 0.7695
C5A C 0.1719(6) 0.5099(4) 0.7165(4)
N2A N 0.2647(5) 0.4587(3) 0.5504(4)
N3A N 0.2244(5) 0.4434(3) 0.6022(4)
C6A C 0.2167(6) 0.5095(4) 0.6535(4)
C7A C 0.2549(6) 0.5666(5) 0.6335(5)
H5A H 0.2595 0.6182 0.6601
C8A C 0.2829(6) 0.5321(5) 0.5690(5)
H6A H 0.3111 0.5555 0.5408
C9A C 0.2733(6) 0.4010(4) 0.4802(4)
H7A H 0.3296 0.4185 0.4600
H8A H 0.2922 0.3567 0.4882
N4A N 0.3190(5) 0.1082(3) 0.1339(3)
C10A C 0.3997(7) 0.0791(4) 0.1091(5)
H9A H 0.4466 0.1067 0.0937
C11A C 0.4198(8) 0.0093(5) 0.1045(5)
H10A H 0.4790 -0.0104 0.0865
C12A C 0.3499(8) -0.0304(5) 0.1272(5)
H11A H 0.3603 -0.0782 0.1249
C13A C 0.2666(7) 0.0006(5) 0.1527(5)
H12A H 0.2183 -0.0257 0.1684
C14A C 0.2518(6) 0.0699(5) 0.1559(4)
N5A N 0.0821(5) 0.1995(4) 0.2228(4)
N6A N 0.1631(5) 0.1773(4) 0.1898(4)
C15A C 0.1688(6) 0.1087(5) 0.1885(5)
C16A C 0.0904(7) 0.0882(5) 0.2203(5)
H13A H 0.0762 0.0431 0.2260
C17A C 0.0386(7) 0.1485(5) 0.2416(5)
H14A H -0.0192 0.1528 0.2659
C18A C 0.0529(7) 0.2737(5) 0.2377(5)
H15A H 0.0935 0.2977 0.2127
H16A H -0.0225 0.2687 0.2165
C19A C 0.1714(7) 0.3815(4) 0.4266(4)
C20A C 0.0749(6) 0.3998(5) 0.4316(5)
H17A H 0.0534 0.4326 0.4738
C21A C 0.0113(7) 0.3597(5) 0.3604(5)
H18A H -0.0617 0.3601 0.3464
C22A C 0.0722(6) 0.3219(5) 0.3175(5)
O1A O 0.1735(4) 0.3340(3) 0.3563(3)
N7A N 0.0316(5) 0.3387(3) 0.5644(3)
C23A C -0.0421(7) 0.3826(5) 0.5798(5)
H19A H -0.0261 0.4271 0.6226
C24A C -0.1420(7) 0.3655(5) 0.5352(5)
H20A H -0.1924 0.3982 0.5475
C25A C -0.1665(7) 0.3013(6) 0.4738(5)
H21A H -0.2343 0.2884 0.4432
C26A C -0.0916(7) 0.2559(5) 0.4571(4)
H22A H -0.1068 0.2112 0.4145
C27A C 0.0069(6) 0.2759(4) 0.5030(5)
N8A N 0.2557(5) 0.2152(4) 0.5071(4)
N9A N 0.1892(5) 0.2660(3) 0.5307(4)
C28A C 0.0945(6) 0.2334(4) 0.4889(4)
C29A C 0.0997(7) 0.1633(5) 0.4398(5)
H23A H 0.0430 0.1289 0.4050
C30A C 0.2031(8) 0.1530(5) 0.4512(5)
H24A H 0.2322 0.1106 0.4249
C31A C 0.3685(6) 0.2331(5) 0.5372(5)
H25A H 0.3876 0.2873 0.5627
H26A H 0.3860 0.2113 0.5739
N10A N 0.2443(5) 0.3162(4) 0.1554(4)
C32A C 0.1772(6) 0.3330(5) 0.1084(5)
H27A H 0.1458 0.2951 0.0621
C33A C 0.1515(7) 0.4038(5) 0.1245(5)
H28A H 0.1035 0.4143 0.0902
C34A C 0.1981(7) 0.4583(5) 0.1923(5)
H29A H 0.1813 0.5070 0.2055
C35A C 0.2685(6) 0.4420(5) 0.2401(5)
H30A H 0.3014 0.4792 0.2864
C36A C 0.2915(6) 0.3707(4) 0.2204(5)
N11A N 0.4342(5) 0.2676(4) 0.3015(4)
N12A N 0.3675(5) 0.2750(3) 0.2467(3)
C37A C 0.3609(6) 0.3472(4) 0.2690(4)
C38A C 0.4279(6) 0.3872(5) 0.3376(4)
H31A H 0.4402 0.4391 0.3646
C39A C 0.4714(6) 0.3342(5) 0.3564(5)
H32A H 0.5195 0.3429 0.4006
C40A C 0.4526(6) 0.1952(4) 0.3001(4)
H33A H 0.3900 0.1586 0.2704
H34A H 0.5129 0.1802 0.2761
C41A C 0.4312(6) 0.2047(4) 0.4784(5)
C42A C 0.5163(7) 0.1717(4) 0.4744(5)
H35A H 0.5502 0.1552 0.5097
C43A C 0.5475(6) 0.1653(4) 0.4073(4)
H36A H 0.6067 0.1451 0.3896
C44A C 0.4742(6) 0.1946(5) 0.3737(5)
O2A O 0.4019(4) 0.2193(3) 0.4170(3)
N13A N 0.1345(5) 0.2717(3) 0.6646(4)
C45A C 0.0370(7) 0.2351(4) 0.6521(5)
H37A H -0.0203 0.2534 0.6322
C46A C 0.0156(7) 0.1742(5) 0.6659(5)
H38A H -0.0543 0.1501 0.6556
C47A C 0.0992(8) 0.1483(5) 0.6956(5)
H39A H 0.0872 0.1050 0.7048
C48A C 0.1999(7) 0.1852(5) 0.7119(5)
H40A H 0.2576 0.1686 0.7333
C49A C 0.2145(6) 0.2478(4) 0.6959(4)
N14A N 0.4206(5) 0.3839(4) 0.7188(4)
N15A N 0.3202(5) 0.3504(4) 0.6942(3)
C50A C 0.3159(7) 0.2929(5) 0.7128(5)
C51A C 0.4147(7) 0.2889(5) 0.7492(5)
H41A H 0.4333 0.2526 0.7673
C52A C 0.4782(7) 0.3484(5) 0.7528(5)
H42A H 0.5504 0.3623 0.7754
C53A C 0.4544(6) 0.4550(4) 0.7179(5)
H43A H 0.5312 0.4612 0.7202
H44A H 0.4196 0.4569 0.6712
N16A N 0.1877(5) 0.1600(4) 0.0353(4)
C54A C 0.0842(7) 0.1331(5) 0.0171(5)
H45A H 0.0471 0.1380 0.0556
C55A C 0.0308(7) 0.0995(5) -0.0532(5)
H46A H -0.0419 0.0812 -0.0636
C56A C 0.0836(8) 0.0924(5) -0.1095(6)
H47A H 0.0480 0.0677 -0.1592
C57A C 0.1884(7) 0.1211(5) -0.0935(5)
H48A H 0.2251 0.1189 -0.1316
C58A C 0.2399(6) 0.1541(4) -0.0185(5)
N17A N 0.4931(5) 0.2406(3) 0.0801(4)
N18A N 0.3895(5) 0.2209(3) 0.0750(4)
C59A C 0.3502(6) 0.1841(4) 0.0028(5)
C60A C 0.4272(7) 0.1808(4) -0.0387(5)
H49A H 0.4194 0.1588 -0.0907
C61A C 0.5178(7) 0.2168(5) 0.0126(5)
H50A H 0.5857 0.2238 0.0023
C62A C 0.5643(6) 0.2868(4) 0.1479(4)
H51A H 0.5374 0.2823 0.1898
H52A H 0.6337 0.2695 0.1477
C63A C 0.4288(6) 0.5158(4) 0.7802(5)
C64A C 0.3896(7) 0.5220(5) 0.8402(5)
H53A H 0.3690 0.4827 0.8539
C65A C 0.3844(6) 0.5977(4) 0.8795(5)
H54A H 0.3588 0.6186 0.9237
C66A C 0.5771(6) 0.3661(4) 0.1579(4)
O3A O 0.4510(4) 0.5849(3) 0.7809(3)
B1 B 0.4117(7) 0.6046(5) 0.4359(5)
F1 F 0.3478(4) 0.5384(3) 0.4207(3)
F2 F 0.3840(4) 0.6217(3) 0.3743(3)
F3 F 0.5132(5) 0.5928(6) 0.4461(4)
F4 F 0.3879(6) 0.6598(4) 0.4938(5)
B2 B 0.2648(7) 0.7895(5) 0.7415(5)
F5 F 0.3048(4) 0.7462(3) 0.6819(3)
F6 F 0.3485(4) 0.8356(3) 0.7952(3)
F7 F 0.2126(4) 0.7441(3) 0.7668(3)
F8 F 0.1961(4) 0.8308(3) 0.7210(3)
B3 B 0.8485(8) 0.2507(6) 0.0205(6)
F9 F 0.8132(10) 0.1822(5) -0.0364(6)
F10 F 0.9203(9) 0.2469(5) 0.0765(6)
F11 F 0.7597(7) 0.2743(6) 0.0430(7)
F12 F 0.8966(13) 0.3003(6) -0.0032(6)
B4 B 0.1696(7) 0.9549(5) 0.3105(5)
F13 F 0.2149(4) 0.9036(3) 0.3326(3)
F14 F 0.2493(4) 1.0090(3) 0.3157(3)
F15 F 0.1133(10) 0.9221(6) 0.2399(6)
F16 F 0.1047(9) 0.9857(4) 0.3599(10)
C67 C 0.2694(9) 0.7428(6) 0.3597(6)
H55 H 0.2478 0.7849 0.3496
H56 H 0.3462 0.7467 0.3682
H57 H 0.2449 0.7425 0.4035
N19 N 0.2235(6) 0.6740(4) 0.2964(4)
O4 O 0.2660(6) 0.6518(4) 0.2431(4)
O5 O 0.1447(6) 0.6399(4) 0.3008(4)
C68 C 0.3520(10) 0.9861(7) 0.7635(7)
H58 H 0.4101 0.9687 0.7389
H59 H 0.3373 0.9577 0.7926
H60 H 0.3711 1.0384 0.7959
N20 N 0.2629(9) 0.9770(7) 0.7109(7)
O6 O 0.2493(6) 0.9368(5) 0.6467(5)
O7 O 0.1879(10) 1.0108(7) 0.7332(7)
C69 C 0.2715(9) 0.7894(6) 0.1795(6)
H61 H 0.2345 0.7451 0.1809
H62 H 0.2275 0.8052 0.1454
H63 H 0.2864 0.8289 0.2288
N21 N 0.3678(7) 0.7734(5) 0.1555(5)
O8 O 0.3779(6) 0.7095(5) 0.1214(5)
O9 O 0.4391(7) 0.8251(5) 0.1712(5)
C70 C 0.5741(9) 0.6225(7) 0.0444(7)
H64 H 0.5437 0.5931 0.0683
H65 H 0.5746 0.5908 -0.0067
H66 H 0.5318 0.6617 0.0454
N22 N 0.6831(10) 0.6557(8) 0.0840(7)
O10 O 0.7346(8) 0.6298(6) 0.1214(6)
O11 O 0.7117(11) 0.7251(9) 0.1124(8)
C71 C 0.9673(10) 0.7433(7) 0.1180(7)
H67 H 0.9551 0.7454 0.0693
H68 H 1.0285 0.7791 0.1495
H69 H 0.9054 0.7550 0.1400
N23 N 0.9864(7) 0.6695(5) 0.1106(5)
O12 O 1.0384(7) 0.6641(5) 0.1636(5)
O13 O 0.9507(8) 0.6164(6) 0.0560(6)
C72 C 0.4690(10) 0.9713(7) 0.3772(7)
H70 H 0.4500 0.9857 0.3357
H71 H 0.5135 1.0127 0.4185
H72 H 0.4051 0.9578 0.3923
N24 N 0.5250(8) 0.9097(6) 0.3557(5)
O14 O 0.6008(8) 0.9138(5) 0.3251(5)
O15 O 0.4929(8) 0.8561(6) 0.3655(6)
C73 C 0.2042(12) 0.9044(9) 0.9215(9)
H73 H 0.1600 0.9424 0.9407
H74 H 0.2011 0.8702 0.9463
H75 H 0.1787 0.8772 0.8685
N25 N 0.3062(10) 0.9369(7) 0.9342(7)
O16 O 0.3770(8) 0.9010(6) 0.9518(6)
O17 O 0.3243(6) 0.9942(5) 0.9302(4)
C74 C 0.1906(9) 0.5607(6) 0.0530(6)
H76 H 0.1390 0.5161 0.0271
H77 H 0.1785 0.5957 0.0297
H78 H 0.1834 0.5833 0.1045
N26 N 0.2949(7) 0.5418(5) 0.0498(5)
O18 O 0.3307(8) 0.5383(6) -0.0044(6)
O19 O 0.3435(7) 0.5284(5) 0.0980(5)
loop_
_geom_bond_atom_site_label_1
_geom_bond_atom_site_label_2
_geom_bond_site_symmetry_1
_geom_bond_site_symmetry_2
Ni1 N1 1_555 1_555
Ni2 N4 1_555 1_555
N1 C1 1_555 1_555
C1 H1 1_555 1_555
C2 C1 1_555 1_555
H2 C2 1_555 1_555
C3 C2 1_555 1_555
H3 C3 1_555 1_555
C4 C3 1_555 1_555
H4 C4 1_555 1_555
C5 N1 1_555 1_555
N2 N3 1_555 1_555
N3 Ni1 1_555 1_555
C6 C5 1_555 1_555
C7 C6 1_555 1_555
H5 C7 1_555 1_555
C8 N2 1_555 1_555
H6 C8 1_555 1_555
C9 N2 1_555 1_555
H7 C9 1_555 1_555
H8 C9 1_555 1_555
N4 C10 1_555 1_555
C10 H9 1_555 1_555
C11 C10 1_555 1_555
H10 C11 1_555 1_555
C12 C11 1_555 1_555
H11 C12 1_555 1_555
C13 C12 1_555 1_555
H12 C13 1_555 1_555
C14 N4 1_555 1_555
N5 N6 1_555 1_555
N6 Ni2 1_555 1_555
C15 C14 1_555 1_555
C16 C15 1_555 1_555
H13 C16 1_555 1_555
C17 N5 1_555 1_555
H14 C17 1_555 1_555
C18 N5 1_555 1_555
H15 C18 1_555 1_555
H16 C18 1_555 1_555
C19 C9 1_555 1_555
C20 C19 1_555 1_555
H17 C20 1_555 1_555
C21 C20 1_555 1_555
H18 C21 1_555 1_555
C22 C18 1_555 1_555
O1 C19 1_555 1_555
N7 Ni1 1_555 1_555
C23 N7 1_555 1_555
H19 C23 1_555 1_555
C24 C23 1_555 1_555
H20 C24 1_555 1_555
C25 C24 1_555 1_555
H21 C25 1_555 1_555
C26 C25 1_555 1_555
H22 C26 1_555 1_555
C27 N7 1_555 1_555
N8 N9 1_555 1_555
N9 Ni1 1_555 1_555
C28 C27 1_555 1_555
C29 C28 1_555 1_555
H23 C29 1_555 1_555
C30 N8 1_555 1_555
H24 C30 1_555 1_555
C31 N8 1_555 1_555
H25 C31 1_555 1_555
H26 C31 1_555 1_555
N10 Ni2 1_555 1_555
C32 N10 1_555 1_555
H27 C32 1_555 1_555
C33 C32 1_555 1_555
H28 C33 1_555 1_555
C34 C33 1_555 1_555
H29 C34 1_555 1_555
C35 C34 1_555 1_555
H30 C35 1_555 1_555
C36 N10 1_555 1_555
N11 N12 1_555 1_555
N12 Ni2 1_555 1_555
C37 C36 1_555 1_555
C38 C37 1_555 1_555
H31 C38 1_555 1_555
C39 N11 1_555 1_555
H32 C39 1_555 1_555
C40 N11 1_555 1_555
H33 C40 1_555 1_555
H34 C40 1_555 1_555
C41 C31 1_555 1_555
C42 C41 1_555 1_555
H35 C42 1_555 1_555
C43 C42 1_555 1_555
H36 C43 1_555 1_555
C44 C40 1_555 1_555
O2 C41 1_555 1_555
N13 Ni1 1_555 1_555
C45 N13 1_555 1_555
H37 C45 1_555 1_555
C46 C45 1_555 1_555
H38 C46 1_555 1_555
C47 C46 1_555 1_555
H39 C47 1_555 1_555
C48 C47 1_555 1_555
H40 C48 1_555 1_555
C49 N13 1_555 1_555
N14 N15 1_555 1_555
N15 Ni1 1_555 1_555
C50 C49 1_555 1_555
C51 C50 1_555 1_555
H41 C51 1_555 1_555
C52 N14 1_555 1_555
H42 C52 1_555 1_555
C53 N14 1_555 1_555
H43 C53 1_555 1_555
H44 C53 1_555 1_555
N16 Ni2 1_555 1_555
C54 N16 1_555 1_555
H45 C54 1_555 1_555
C55 C54 1_555 1_555
H46 C55 1_555 1_555
C56 C55 1_555 1_555
H47 C56 1_555 1_555
C57 C56 1_555 1_555
H48 C57 1_555 1_555
C58 N16 1_555 1_555
N17 N18 1_555 1_555
N18 Ni2 1_555 1_555
C59 C58 1_555 1_555
C60 C59 1_555 1_555
H49 C60 1_555 1_555
C61 N17 1_555 1_555
H50 C61 1_555 1_555
C62 N17 1_555 1_555
H51 C62 1_555 1_555
H52 C62 1_555 1_555
C63 C53 1_555 1_555
C64 C63 1_555 1_555
H53 C64 1_555 1_555
C65 C64 1_555 1_555
H54 C65 1_555 1_555
C66 C62 1_555 1_555
O3 C63 1_555 1_555
B1 F1 1_555 1_555
F2 B1 1_555 1_555
F3 B1 1_555 1_555
F4 B1 1_555 1_555
B2 F5 1_555 1_555
F6 B2 1_555 1_555
F7 B2 1_555 1_555
F8 B2 1_555 1_555
B3 F9 1_555 1_555
F10 B3 1_555 1_555
F11 B3 1_555 1_555
F12 B3 1_555 1_555
B4 F13 1_555 1_555
F14 B4 1_555 1_555
F15 B4 1_555 1_555
F16 B4 1_555 1_555
C67 H55 1_555 1_555
H56 C67 1_555 1_555
H57 C67 1_555 1_555
N19 C67 1_555 1_555
O4 N19 1_555 1_555
O5 N19 1_555 1_555
C68 H58 1_555 1_555
H59 C68 1_555 1_555
H60 C68 1_555 1_555
N20 C68 1_555 1_555
O6 N20 1_555 1_555
O7 N20 1_555 1_555
C69 H61 1_555 1_555
H62 C69 1_555 1_555
H63 C69 1_555 1_555
N21 C69 1_555 1_555
O8 N21 1_555 1_555
O9 N21 1_555 1_555
C70 H64 1_555 1_555
H65 C70 1_555 1_555
H66 C70 1_555 1_555
N22 C70 1_555 1_555
O10 N22 1_555 1_555
O11 N22 1_555 1_555
C71 H67 1_555 1_555
H68 C71 1_555 1_555
H69 C71 1_555 1_555
N23 C71 1_555 1_555
O12 N23 1_555 1_555
O13 N23 1_555 1_555
C72 H70 1_555 1_555
H71 C72 1_555 1_555
H72 C72 1_555 1_555
N24 C72 1_555 1_555
O14 N24 1_555 1_555
O15 N24 1_555 1_555
C73 H73 1_555 1_555
H74 C73 1_555 1_555
H75 C73 1_555 1_555
N25 C73 1_555 1_555
O16 N25 1_555 1_555
O17 N25 1_555 1_555
C74 H76 1_555 1_555
H77 C74 1_555 1_555
H78 C74 1_555 1_555
N26 C74 1_555 1_555
O18 N26 1_555 1_555
O19 N26 1_555 1_555
Ni1A N1A 1_555 1_555
Ni2A N4A 1_555 1_555
N1A C1A 1_555 1_555
C1A H1A 1_555 1_555
C2A C1A 1_555 1_555
H2A C2A 1_555 1_555
C3A C2A 1_555 1_555
H3A C3A 1_555 1_555
C4A C3A 1_555 1_555
H4A C4A 1_555 1_555
C5A N1A 1_555 1_555
N2A N3A 1_555 1_555
N3A Ni1A 1_555 1_555
C6A C5A 1_555 1_555
C7A C6A 1_555 1_555
H5A C7A 1_555 1_555
C8A N2A 1_555 1_555
H6A C8A 1_555 1_555
C9A N2A 1_555 1_555
H7A C9A 1_555 1_555
H8A C9A 1_555 1_555
N4A C10A 1_555 1_555
C10A H9A 1_555 1_555
C11A C10A 1_555 1_555
H10A C11A 1_555 1_555
C12A C11A 1_555 1_555
H11A C12A 1_555 1_555
C13A C12A 1_555 1_555
H12A C13A 1_555 1_555
C14A N4A 1_555 1_555
N5A N6A 1_555 1_555
N6A Ni2A 1_555 1_555
C15A C14A 1_555 1_555
C16A C15A 1_555 1_555
H13A C16A 1_555 1_555
C17A N5A 1_555 1_555
H14A C17A 1_555 1_555
C18A N5A 1_555 1_555
H15A C18A 1_555 1_555
H16A C18A 1_555 1_555
C19A C9A 1_555 1_555
C20A C19A 1_555 1_555
H17A C20A 1_555 1_555
C21A C20A 1_555 1_555
H18A C21A 1_555 1_555
C22A C18A 1_555 1_555
O1A C19A 1_555 1_555
N7A Ni1A 1_555 1_555
C23A N7A 1_555 1_555
H19A C23A 1_555 1_555
C24A C23A 1_555 1_555
H20A C24A 1_555 1_555
C25A C24A 1_555 1_555
H21A C25A 1_555 1_555
C26A C25A 1_555 1_555
H22A C26A 1_555 1_555
C27A N7A 1_555 1_555
N8A N9A 1_555 1_555
N9A Ni1A 1_555 1_555
C28A C27A 1_555 1_555
C29A C28A 1_555 1_555
H23A C29A 1_555 1_555
C30A N8A 1_555 1_555
H24A C30A 1_555 1_555
C31A N8A 1_555 1_555
H25A C31A 1_555 1_555
H26A C31A 1_555 1_555
N10A Ni2A 1_555 1_555
C32A N10A 1_555 1_555
H27A C32A 1_555 1_555
C33A C32A 1_555 1_555
H28A C33A 1_555 1_555
C34A C33A 1_555 1_555
H29A C34A 1_555 1_555
C35A C34A 1_555 1_555
H30A C35A 1_555 1_555
C36A N10A 1_555 1_555
N11A N12A 1_555 1_555
N12A Ni2A 1_555 1_555
C37A C36A 1_555 1_555
C38A C37A 1_555 1_555
H31A C38A 1_555 1_555
C39A N11A 1_555 1_555
H32A C39A 1_555 1_555
C40A N11A 1_555 1_555
H33A C40A 1_555 1_555
H34A C40A 1_555 1_555
C41A C31A 1_555 1_555
C42A C41A 1_555 1_555
H35A C42A 1_555 1_555
C43A C42A 1_555 1_555
H36A C43A 1_555 1_555
C44A C40A 1_555 1_555
O2A C41A 1_555 1_555
N13A Ni1A 1_555 1_555
C45A N13A 1_555 1_555
H37A C45A 1_555 1_555
C46A C45A 1_555 1_555
H38A C46A 1_555 1_555
C47A C46A 1_555 1_555
H39A C47A 1_555 1_555
C48A C47A 1_555 1_555
H40A C48A 1_555 1_555
C49A N13A 1_555 1_555
N14A N15A 1_555 1_555
N15A Ni1A 1_555 1_555
C50A C49A 1_555 1_555
C51A C50A 1_555 1_555
H41A C51A 1_555 1_555
C52A N14A 1_555 1_555
H42A C52A 1_555 1_555
C53A N14A 1_555 1_555
H43A C53A 1_555 1_555
H44A C53A 1_555 1_555
N16A Ni2A 1_555 1_555
C54A N16A 1_555 1_555
H45A C54A 1_555 1_555
C55A C54A 1_555 1_555
H46A C55A 1_555 1_555
C56A C55A 1_555 1_555
H47A C56A 1_555 1_555
C57A C56A 1_555 1_555
H48A C57A 1_555 1_555
C58A N16A 1_555 1_555
N17A N18A 1_555 1_555
N18A Ni2A 1_555 1_555
C59A C58A 1_555 1_555
C60A C59A 1_555 1_555
H49A C60A 1_555 1_555
C61A N17A 1_555 1_555
H50A C61A 1_555 1_555
C62A N17A 1_555 1_555
H51A C62A 1_555 1_555
H52A C62A 1_555 1_555
C63A C53A 1_555 1_555
C64A C63A 1_555 1_555
H53A C64A 1_555 1_555
C65A C66 1_555 1_555
H54A C65A 1_555 1_555
C66A C65 1_555 1_555
O3A C66 1_555 1_555
C4 C5 1_555 1_555
N3 C6 1_555 1_555
C7 C8 1_555 1_555
C13 C14 1_555 1_555
N6 C15 1_555 1_555
C16 C17 1_555 1_555
C21 C22 1_555 1_555
C22 O1 1_555 1_555
C26 C27 1_555 1_555
N9 C28 1_555 1_555
C29 C30 1_555 1_555
C35 C36 1_555 1_555
N12 C37 1_555 1_555
C38 C39 1_555 1_555
C43 C44 1_555 1_555
C44 O2 1_555 1_555
C48 C49 1_555 1_555
N15 C50 1_555 1_555
C51 C52 1_555 1_555
C57 C58 1_555 1_555
N18 C59 1_555 1_555
C60 C61 1_555 1_555
O3 C66A 1_555 1_555
C4A C5A 1_555 1_555
N3A C6A 1_555 1_555
C7A C8A 1_555 1_555
C13A C14A 1_555 1_555
N6A C15A 1_555 1_555
C16A C17A 1_555 1_555
C21A C22A 1_555 1_555
C22A O1A 1_555 1_555
C26A C27A 1_555 1_555
N9A C28A 1_555 1_555
C29A C30A 1_555 1_555
C35A C36A 1_555 1_555
N12A C37A 1_555 1_555
C38A C39A 1_555 1_555
C43A C44A 1_555 1_555
C44A O2A 1_555 1_555
C48A C49A 1_555 1_555
N15A C50A 1_555 1_555
C51A C52A 1_555 1_555
C57A C58A 1_555 1_555
N18A C59A 1_555 1_555
C60A C61A 1_555 1_555
C62A C66A 1_555 1_555
C63A O3A 1_555 1_555
C64A C65A 1_555 1_555

#END
