
#######################################################################
#
#                 Cambridge Crystallographic Data Centre
#                                CCDC 
#
#######################################################################
#
# If this CIF has been generated from an entry in the Cambridge 
# Structural Database, then it will include bibliographic, chemical, 
# crystal, experimental, refinement or atomic coordinate data resulting 
# from the CCDC's data processing and validation procedures.
#
#######################################################################

data_DAHGAW
_chemical_formula_moiety         
'C264 H216 N72 O12 Zn8 16+,16(Cl1 O4 1-),2.5(C1 H3 N1 O2)'
_chemical_name_systematic        
'dodecakis(\m~2~-2,5-bis(3-(2-Pyridyl)pyrazolylmethyl)furan)-octa-zinc(ii) hexadecaperchlorate nitromethane solvate'
_symmetry_cell_setting           monoclinic
_symmetry_space_group_name_H-M   'P 21/c'
_symmetry_Int_Tables_number      14
_space_group_name_Hall           '-P 2ybc'
loop_
_symmetry_equiv_pos_site_id
_symmetry_equiv_pos_as_xyz
1 x,y,z
2 -x,1/2+y,1/2-z
3 -x,-y,-z
4 x,1/2-y,1/2+z
_cell_length_a                   25.726(5)
_cell_length_b                   42.927(9)
_cell_length_c                   66.265(14)
_cell_angle_alpha                90
_cell_angle_beta                 94.909(13)
_cell_angle_gamma                90
_cell_volume                     72910.7
_exptl_crystal_description       block
_cell_formula_units_Z            8
loop_
_atom_site_label
_atom_site_type_symbol
_atom_site_fract_x
_atom_site_fract_y
_atom_site_fract_z
Zn1 Zn -0.09703(7) 0.13234(4) 0.39643(3)
Zn2 Zn -0.16175(6) 0.34965(4) 0.42349(3)
Zn3 Zn 0.07663(6) 0.29117(4) 0.55274(2)
Zn4 Zn 0.22281(6) 0.10986(4) 0.50420(3)
Zn5 Zn 0.17842(6) 0.19606(4) 0.31974(3)
Zn6 Zn 0.11056(6) 0.40579(4) 0.34308(3)
Zn7 Zn 0.28626(6) 0.42294(4) 0.48864(2)
Zn8 Zn 0.45609(6) 0.24834(4) 0.43114(2)
N1 N -0.0243(3) 0.1157(2) 0.38690(14)
C1 C -0.0188(3) 0.0940(2) 0.37169(13)
H1 H -0.0488 0.0865 0.3637
C2 C 0.0304(4) 0.08308(19) 0.36809(12)
H2 H 0.0342 0.0682 0.3577
C3 C 0.0742(3) 0.0940(2) 0.37971(15)
H3 H 0.1079 0.0865 0.3773
C4 C 0.0688(3) 0.1157(2) 0.39492(14)
H4 H 0.0987 0.1231 0.4029
C5 C 0.0195(4) 0.12659(19) 0.39851(12)
N2 N -0.0400(3) 0.17974(19) 0.43199(13)
N3 N -0.0415(3) 0.1589(2) 0.41531(12)
C6 C 0.0101(4) 0.1481(2) 0.41353(13)
C7 C 0.0434(3) 0.1622(2) 0.42911(15)
H5 H 0.0800 0.1591 0.4315
C8 C 0.0124(4) 0.1818(2) 0.44052(12)
H6 H 0.0246 0.1941 0.4519
C9 C -0.0826(6) 0.1988(3) 0.4360(2)
H7 H -0.0799 0.2047 0.4505
H8 H -0.1157 0.1873 0.4329
N4 N -0.1451(4) 0.39006(17) 0.40585(13)
C10 C -0.1392(4) 0.4201(2) 0.41357(10)
H9 H -0.1388 0.4235 0.4277
C11 C -0.1339(4) 0.44505(16) 0.40055(14)
H10 H -0.1299 0.4656 0.4058
C12 C -0.1346(4) 0.44001(18) 0.37981(13)
H11 H -0.1310 0.4571 0.3709
C13 C -0.1405(4) 0.4100(2) 0.37209(10)
H12 H -0.1409 0.4065 0.3579
C14 C -0.1457(4) 0.38501(16) 0.38511(14)
N5 N -0.1639(4) 0.30267(16) 0.38365(13)
N6 N -0.1614(4) 0.3324(2) 0.39310(10)
C15 C -0.1510(4) 0.35487(15) 0.37825(15)
C16 C -0.1472(4) 0.3391(2) 0.35961(12)
H13 H -0.1404 0.3484 0.3471
C17 C -0.1551(4) 0.30680(19) 0.36295(12)
H14 H -0.1546 0.2908 0.3531
C18 C -0.1718(6) 0.2746(3) 0.3927(2)
H15 H -0.1873 0.2600 0.3824
H16 H -0.1973 0.2776 0.4029
C19 C -0.0822(3) 0.22576(18) 0.42382(13)
C20 C -0.0447(2) 0.2463(2) 0.41656(15)
H17 H -0.0081 0.2456 0.4200
C21 C -0.0716(4) 0.26806(19) 0.40332(14)
H18 H -0.0562 0.2845 0.3963
C22 C -0.1257(3) 0.26097(19) 0.40240(13)
O1 O -0.1322(3) 0.23483(18) 0.41507(12)
N7 N -0.2435(3) 0.3592(2) 0.42028(14)
C23 C -0.2758(4) 0.34939(19) 0.40364(12)
H19 H -0.2616 0.3383 0.3930
C24 C -0.3290(3) 0.3557(2) 0.40260(12)
H20 H -0.3511 0.3490 0.3912
C25 C -0.3498(3) 0.3719(2) 0.41820(15)
H21 H -0.3861 0.3762 0.4175
C26 C -0.3174(4) 0.3817(2) 0.43485(12)
H22 H -0.3316 0.3928 0.4455
C27 C -0.2643(3) 0.3754(2) 0.43589(11)
N8 N -0.1512(3) 0.3830(2) 0.47015(13)
N9 N -0.1781(4) 0.37497(19) 0.45126(11)
C28 C -0.2315(3) 0.3830(2) 0.45206(13)
C29 C -0.2375(3) 0.3959(2) 0.47143(15)
H23 H -0.2692 0.4033 0.4761
C30 C -0.1879(4) 0.3959(2) 0.48261(10)
H24 H -0.1805 0.4033 0.4961
C31 C -0.0966(6) 0.3812(3) 0.4749(2)
H25 H -0.0814 0.4024 0.4750
H26 H -0.0806 0.3689 0.4644
N10 N 0.0661(3) 0.29779(17) 0.58451(9)
C32 C 0.1074(2) 0.30113(18) 0.59931(13)
H27 H 0.1421 0.3028 0.5955
C33 C 0.0979(3) 0.30208(19) 0.61964(11)
H28 H 0.1261 0.3044 0.6298
C34 C 0.0472(3) 0.29969(19) 0.62517(9)
H29 H 0.0407 0.3003 0.6391
C35 C 0.0059(3) 0.29635(19) 0.61037(13)
H30 H -0.0288 0.2947 0.6141
C36 C 0.0154(3) 0.29540(18) 0.59004(11)
N11 N -0.0564(3) 0.28833(18) 0.54173(9)
N12 N -0.0094(3) 0.29237(19) 0.55437(13)
C37 C -0.0220(3) 0.2917(2) 0.57482(11)
C38 C -0.0767(3) 0.2873(2) 0.57482(11)
H31 H -0.0957 0.2859 0.5865
C39 C -0.0979(2) 0.2852(2) 0.55437(13)
H32 H -0.1337 0.2822 0.5499
C40 C -0.0587(6) 0.2930(3) 0.5212(2)
H33 H -0.0875 0.2805 0.5145
H34 H -0.0257 0.2860 0.5161
C41 C -0.0851(4) 0.36661(17) 0.49479(11)
C42 C -0.0800(4) 0.37832(15) 0.51490(14)
H35 H -0.0835 0.3995 0.5188
C43 C -0.0688(4) 0.3528(2) 0.52824(9)
H36 H -0.0634 0.3540 0.5426
C44 C -0.0669(4) 0.32539(15) 0.51636(12)
O2 O -0.0770(3) 0.33390(16) 0.49569(10)
N13 N 0.0739(4) 0.34061(16) 0.54636(14)
C45 C 0.0680(4) 0.3636(2) 0.56076(11)
H37 H 0.0735 0.3588 0.5748
C46 C 0.0542(4) 0.39369(19) 0.55465(13)
H38 H 0.0502 0.4094 0.5645
C47 C 0.0462(4) 0.40076(16) 0.53415(15)
H39 H 0.0368 0.4213 0.5300
C48 C 0.0521(4) 0.3778(2) 0.51975(11)
H40 H 0.0466 0.3826 0.5057
C49 C 0.0659(4) 0.34768(19) 0.52586(13)
N14 N 0.0811(4) 0.27173(15) 0.50402(14)
N15 N 0.0769(4) 0.2926(2) 0.52041(10)
C50 C 0.0697(4) 0.32310(17) 0.51231(14)
C51 C 0.0694(4) 0.32103(19) 0.49091(14)
H41 H 0.0653 0.3379 0.4817
C52 C 0.0765(4) 0.2893(2) 0.48579(11)
H42 H 0.0779 0.2812 0.4725
C53 C 0.0920(6) 0.2407(3) 0.5065(2)
H43 H 0.0814 0.2297 0.4937
H44 H 0.0710 0.2323 0.5171
N16 N 0.2958(3) 0.0952(2) 0.49426(15)
C54 C 0.3023(3) 0.0722(2) 0.47993(14)
H45 H 0.2727 0.0615 0.4737
C55 C 0.3520(4) 0.0648(2) 0.47471(13)
H46 H 0.3564 0.0490 0.4649
C56 C 0.3952(3) 0.0803(2) 0.48380(16)
H47 H 0.4291 0.0753 0.4802
C57 C 0.3887(3) 0.1034(2) 0.49813(15)
H48 H 0.4182 0.1140 0.5043
C58 C 0.3390(4) 0.1108(2) 0.50335(13)
N17 N 0.2768(3) 0.1663(2) 0.53437(14)
N18 N 0.2769(3) 0.1415(2) 0.52015(14)
C59 C 0.3296(4) 0.1349(2) 0.51678(14)
C60 C 0.3620(3) 0.1556(2) 0.52893(16)
H49 H 0.3991 0.1564 0.5297
C61 C 0.3294(4) 0.1750(2) 0.53979(14)
H50 H 0.3408 0.1909 0.5491
C62 C 0.2300(6) 0.1801(3) 0.5410(2)
H51 H 0.2025 0.1640 0.5411
H52 H 0.2372 0.1879 0.5551
C63 C 0.1462(3) 0.2346(2) 0.51214(15)
C64 C 0.1944(4) 0.24981(18) 0.50982(15)
H53 H 0.1987 0.2688 0.5028
C65 C 0.2349(3) 0.2316(2) 0.51977(16)
H54 H 0.2711 0.2362 0.5206
C66 C 0.2117(3) 0.20510(19) 0.52824(15)
O3 O 0.1569(3) 0.20700(17) 0.52352(13)
N19 N 0.2283(4) 0.07740(19) 0.52903(12)
C67 C 0.2569(4) 0.08267(17) 0.54748(14)
H55 H 0.2739 0.1021 0.5500
C68 C 0.2606(4) 0.0595(2) 0.56219(11)
H56 H 0.2801 0.0631 0.5748
C69 C 0.2357(4) 0.03109(19) 0.55846(13)
H57 H 0.2382 0.0153 0.5685
C70 C 0.2071(4) 0.02583(17) 0.54001(15)
H58 H 0.1901 0.0064 0.5375
C71 C 0.2035(4) 0.0490(2) 0.52529(12)
N20 N 0.1480(4) 0.0604(2) 0.47411(12)
N21 N 0.1790(4) 0.06941(18) 0.49191(14)
C72 C 0.1773(4) 0.0450(2) 0.50630(11)
C73 C 0.1453(4) 0.02087(19) 0.49739(15)
H59 H 0.1373 0.0017 0.5036
C74 C 0.1272(4) 0.0304(2) 0.47750(14)
H60 H 0.1050 0.0187 0.4681
C75 C 0.1439(6) 0.0798(3) 0.4560(2)
H61 H 0.1497 0.1019 0.4598
H62 H 0.1708 0.0736 0.4470
N22 N -0.1432(4) 0.0999(2) 0.37820(16)
C76 C -0.1617(4) 0.1049(2) 0.35812(16)
H63 H -0.1535 0.1237 0.3515
C77 C -0.1921(4) 0.0824(3) 0.34772(12)
H64 H -0.2047 0.0857 0.3340
C78 C -0.2040(4) 0.0548(2) 0.35738(16)
H65 H -0.2248 0.0394 0.3503
C79 C -0.1856(5) 0.0499(2) 0.37745(17)
H66 H -0.1937 0.0311 0.3840
C80 C -0.1551(4) 0.0724(3) 0.38786(12)
N23 N -0.0850(4) 0.0828(2) 0.43752(14)
N24 N -0.1005(4) 0.0926(2) 0.41743(15)
C81 C -0.1371(4) 0.0705(3) 0.40872(13)
C82 C -0.1440(4) 0.0472(2) 0.42343(18)
H67 H -0.1663 0.0296 0.4217
C83 C -0.1118(5) 0.0548(2) 0.44122(14)
H68 H -0.1088 0.0432 0.4535
C84 C -0.0437(6) 0.0980(4) 0.4491(3)
H69 H -0.0464 0.0951 0.4638
H70 H -0.0429 0.1205 0.4459
C85 C 0.0929(3) 0.0761(2) 0.44570(15)
C86 C 0.0736(4) 0.0578(2) 0.42885(14)
H71 H 0.0939 0.0456 0.4205
C87 C 0.0184(4) 0.0610(2) 0.42661(13)
H72 H -0.0046 0.0513 0.4165
C88 C 0.0037(3) 0.0813(2) 0.44208(15)
O4 O 0.0498(4) 0.09058(18) 0.45389(11)
N25 N -0.1672(3) 0.15229(19) 0.40681(13)
C89 C -0.1924(3) 0.14267(17) 0.42347(12)
H73 H -0.1781 0.1262 0.4318
C90 C -0.2384(4) 0.1571(2) 0.42795(12)
H74 H -0.2556 0.1505 0.4393
C91 C -0.2592(3) 0.1812(2) 0.41575(14)
H75 H -0.2906 0.1910 0.4188
C92 C -0.2340(4) 0.19077(17) 0.39908(13)
H76 H -0.2483 0.2072 0.3907
C93 C -0.1880(4) 0.1763(2) 0.39461(11)
N26 N -0.0941(3) 0.1803(2) 0.35705(13)
N27 N -0.1140(3) 0.16854(17) 0.37488(12)
C94 C -0.1613(3) 0.1844(2) 0.37759(12)
C95 C -0.1706(3) 0.20598(19) 0.36144(15)
H77 H -0.1996 0.2197 0.3595
C96 C -0.1291(4) 0.20343(19) 0.34874(11)
H78 H -0.1254 0.2152 0.3368
C97 C -0.0489(5) 0.1708(3) 0.3492(2)
H79 H -0.0483 0.1786 0.3351
H80 H -0.0474 0.1478 0.3488
N28 N 0.2177(3) 0.23964(15) 0.32039(13)
C98 C 0.2314(3) 0.25585(19) 0.30349(10)
H81 H 0.2212 0.2482 0.2903
C99 C 0.2601(4) 0.28325(19) 0.30589(11)
H82 H 0.2695 0.2943 0.2943
C100 C 0.2750(3) 0.29443(16) 0.32521(14)
H83 H 0.2946 0.3132 0.3269
C101 C 0.2612(4) 0.2782(2) 0.34212(10)
H84 H 0.2714 0.2859 0.3553
C102 C 0.2326(4) 0.25083(19) 0.33971(11)
N29 N 0.1683(3) 0.19596(17) 0.37108(13)
N30 N 0.1828(4) 0.2075(2) 0.35227(10)
C103 C 0.2137(4) 0.2346(2) 0.35619(13)
C104 C 0.2183(4) 0.23981(18) 0.37743(14)
H85 H 0.2369 0.2564 0.3843
C105 C 0.1903(4) 0.2159(2) 0.38663(10)
H86 H 0.1868 0.2137 0.4007
C106 C 0.1331(5) 0.1715(3) 0.3730(2)
H87 H 0.1417 0.1602 0.3859
H88 H 0.1347 0.1566 0.3616
C107 C -0.0041(3) 0.1831(2) 0.36180(13)
C108 C 0.0033(3) 0.2068(2) 0.37674(14)
H89 H -0.0232 0.2197 0.3814
C109 C 0.0572(4) 0.20776(19) 0.38347(13)
H90 H 0.0731 0.2214 0.3934
C110 C 0.0831(3) 0.1847(2) 0.37268(14)
O5 O 0.0452(3) 0.16947(15) 0.35929(11)
N31 N -0.1730(3) 0.30746(16) 0.44012(11)
C111 C -0.2204(3) 0.29390(19) 0.44370(12)
H91 H -0.2521 0.3025 0.4377
C112 C -0.2215(3) 0.26773(19) 0.45602(13)
H92 H -0.2539 0.2585 0.4585
C113 C -0.1751(4) 0.25512(16) 0.46474(12)
H93 H -0.1758 0.2372 0.4732
C114 C -0.1277(3) 0.26868(19) 0.46116(13)
H94 H -0.0960 0.2601 0.4671
C115 C -0.1267(3) 0.29484(19) 0.44884(13)
N32 N -0.0310(3) 0.34535(17) 0.43129(12)
N33 N -0.0833(3) 0.33556(19) 0.43284(13)
C116 C -0.0820(3) 0.3086(2) 0.44529(14)
C117 C -0.0291(4) 0.30173(18) 0.45143(13)
H95 H -0.0168 0.2849 0.4598
C118 C 0.0025(3) 0.3244(2) 0.44278(14)
H96 H 0.0395 0.3255 0.4444
C119 C -0.0190(6) 0.3687(3) 0.4168(2)
H97 H -0.0481 0.3839 0.4153
H98 H 0.0127 0.3801 0.4222
N34 N 0.1574(4) 0.38256(19) 0.32108(11)
C120 C 0.2100(3) 0.38728(18) 0.31869(12)
H99 H 0.2304 0.4002 0.3279
C121 C 0.2327(3) 0.3731(2) 0.30277(15)
H100 H 0.2687 0.3763 0.3011
C122 C 0.2029(4) 0.3542(2) 0.28924(12)
H101 H 0.2185 0.3445 0.2784
C123 C 0.1504(4) 0.34948(19) 0.29163(13)
H102 H 0.1300 0.3366 0.2824
C124 C 0.1276(3) 0.3637(2) 0.30755(14)
N35 N 0.0040(3) 0.3665(2) 0.32846(12)
N36 N 0.0575(3) 0.37419(18) 0.32793(13)
C125 C 0.0763(3) 0.3589(2) 0.31100(15)
C126 C 0.0344(4) 0.3417(2) 0.30108(12)
H103 H 0.0360 0.3293 0.2893
C127 C -0.0103(3) 0.3464(2) 0.31187(14)
H104 H -0.0439 0.3377 0.3086
C128 C -0.0278(6) 0.3757(3) 0.3444(2)
H105 H -0.0648 0.3709 0.3402
H106 H -0.0248 0.3985 0.3464
C129 C -0.0111(4) 0.3568(2) 0.39802(10)
C130 C 0.0123(4) 0.32942(18) 0.39083(14)
H107 H 0.0263 0.3126 0.3989
C131 C 0.0112(4) 0.33156(19) 0.36942(14)
H108 H 0.0243 0.3165 0.3607
C132 C -0.0129(4) 0.3602(2) 0.36337(10)
O6 O -0.0267(3) 0.37580(15) 0.38105(12)
N37 N 0.0771(3) 0.24191(13) 0.55871(12)
C133 C 0.0346(3) 0.22183(18) 0.55690(13)
H109 H 0.0015 0.2292 0.5514
C134 C 0.0405(3) 0.19099(17) 0.56307(14)
H110 H 0.0114 0.1773 0.5618
C135 C 0.0889(3) 0.18024(14) 0.57105(13)
H111 H 0.0930 0.1592 0.5753
C136 C 0.1315(3) 0.20032(18) 0.57286(13)
H112 H 0.1646 0.1930 0.5783
C137 C 0.1256(3) 0.23116(17) 0.56669(13)
N38 N 0.2045(3) 0.29733(14) 0.55996(12)
N39 N 0.1568(2) 0.28054(18) 0.55879(12)
C138 C 0.1670(3) 0.25051(16) 0.56719(14)
C139 C 0.2211(3) 0.24873(16) 0.57355(14)
H113 H 0.2386 0.2313 0.5797
C140 C 0.2442(2) 0.27767(19) 0.56908(14)
H114 H 0.2800 0.2830 0.5717
C141 C 0.2094(5) 0.3264(3) 0.55183(19)
H115 H 0.2358 0.3380 0.5606
H116 H 0.1757 0.3374 0.5523
N40 N 0.3386(3) 0.4227(2) 0.46462(11)
C142 C 0.3834(3) 0.44090(17) 0.46497(11)
H117 H 0.3930 0.4538 0.4763
C143 C 0.4142(3) 0.44015(19) 0.44872(14)
H118 H 0.4448 0.4526 0.4490
C144 C 0.4001(3) 0.4212(2) 0.43212(11)
H119 H 0.4211 0.4207 0.4210
C145 C 0.3553(4) 0.40306(18) 0.43177(11)
H120 H 0.3457 0.3901 0.4204
C146 C 0.3246(3) 0.40382(18) 0.44802(13)
N41 N 0.2120(3) 0.36728(19) 0.46638(11)
N42 N 0.2551(3) 0.38805(17) 0.46825(11)
C147 C 0.2808(3) 0.3863(2) 0.45014(13)
C148 C 0.2535(4) 0.3644(2) 0.43709(10)
H121 H 0.2622 0.3587 0.4240
C149 C 0.2110(3) 0.35267(18) 0.44713(13)
H122 H 0.1863 0.3377 0.4419
C150 C 0.1814(5) 0.3616(3) 0.4820(2)
H123 H 0.1497 0.3501 0.4767
H124 H 0.1702 0.3817 0.4876
C151 C 0.2244(3) 0.3276(2) 0.53086(9)
C152 C 0.2639(3) 0.31481(19) 0.51970(13)
H125 H 0.2918 0.3019 0.5250
C153 C 0.2546(3) 0.3248(2) 0.49927(12)
H126 H 0.2751 0.3196 0.4885
C154 C 0.2092(3) 0.34373(19) 0.49782(9)
O7 O 0.1905(2) 0.34550(16) 0.51734(11)
N43 N 0.1500(3) 0.12727(19) 0.51202(14)
C155 C 0.1234(3) 0.11526(17) 0.52766(12)
H127 H 0.1407 0.1017 0.5374
C156 C 0.0713(3) 0.1230(2) 0.52907(12)
H128 H 0.0531 0.1148 0.5398
C157 C 0.0459(3) 0.1428(2) 0.51483(14)
H129 H 0.0104 0.1481 0.5158
C158 C 0.0726(4) 0.15479(18) 0.49918(12)
H130 H 0.0552 0.1683 0.4894
C159 C 0.1246(4) 0.1470(2) 0.49777(12)
N44 N 0.2271(3) 0.1608(2) 0.46439(13)
N45 N 0.2036(4) 0.14427(17) 0.47982(12)
C160 C 0.1547(3) 0.1584(2) 0.48240(13)
C161 C 0.1480(3) 0.1837(2) 0.46857(15)
H131 H 0.1187 0.1972 0.4670
C162 C 0.1927(4) 0.18511(19) 0.45744(12)
H132 H 0.1986 0.1998 0.4471
C163 C 0.2746(6) 0.1535(3) 0.4578(2)
H133 H 0.2750 0.1586 0.4432
H134 H 0.2818 0.1310 0.4596
N46 N 0.4693(3) 0.29413(15) 0.44190(12)
C164 C 0.4689(3) 0.32034(19) 0.42957(9)
H135 H 0.4579 0.3187 0.4156
C165 C 0.4846(4) 0.34900(15) 0.43774(12)
H136 H 0.4843 0.3669 0.4293
C166 C 0.5007(4) 0.35145(15) 0.45824(13)
H137 H 0.5114 0.3710 0.4638
C167 C 0.5011(4) 0.3252(2) 0.47057(9)
H138 H 0.5121 0.3269 0.4846
C168 C 0.4854(4) 0.29658(16) 0.46240(11)
N47 N 0.4760(4) 0.21746(14) 0.47812(13)
N48 N 0.4682(4) 0.24214(19) 0.46392(10)
C169 C 0.4869(4) 0.27002(15) 0.47351(14)
C170 C 0.5063(4) 0.26257(18) 0.49365(12)
H139 H 0.5212 0.2768 0.5035
C171 C 0.4995(4) 0.23008(19) 0.49650(11)
H140 H 0.5091 0.2188 0.5086
C172 C 0.4541(6) 0.1870(3) 0.4743(2)
H141 H 0.4718 0.1715 0.4835
H142 H 0.4580 0.1806 0.4601
C173 C 0.3145(3) 0.17225(19) 0.47010(13)
C174 C 0.3134(3) 0.1953(2) 0.48544(14)
H143 H 0.2833 0.2023 0.4914
C175 C 0.3652(4) 0.20594(19) 0.49026(13)
H144 H 0.3758 0.2214 0.5000
C176 C 0.3984(2) 0.1895(2) 0.47789(14)
O8 O 0.3671(3) 0.16870(16) 0.46543(10)
N49 N 0.1389(3) 0.15240(16) 0.32050(13)
C177 C 0.1623(3) 0.1238(2) 0.32520(14)
H145 H 0.1988 0.1227 0.3288
C178 C 0.1323(3) 0.09685(15) 0.32462(14)
H146 H 0.1483 0.0773 0.3278
C179 C 0.0789(3) 0.09845(16) 0.31934(14)
H147 H 0.0584 0.0800 0.3189
C180 C 0.0555(3) 0.1270(2) 0.31463(14)
H148 H 0.0190 0.1281 0.3110
C181 C 0.0855(3) 0.15399(15) 0.31521(14)
N50 N 0.0707(3) 0.23573(15) 0.30886(14)
N51 N 0.0995(3) 0.2082(2) 0.31388(14)
C182 C 0.0645(4) 0.18256(15) 0.31182(16)
C183 C 0.0141(3) 0.1943(2) 0.30553(16)
H149 H -0.0168 0.1822 0.3030
C184 C 0.0179(3) 0.22714(19) 0.30370(15)
H150 H -0.0100 0.2410 0.2997
C185 C 0.0888(6) 0.2654(3) 0.3104(2)
H151 H 0.0615 0.2798 0.3045
H152 H 0.1195 0.2674 0.3024
N52 N 0.0652(4) 0.4259(2) 0.36625(12)
C186 C 0.0297(4) 0.4502(2) 0.36343(11)
H153 H 0.0192 0.4574 0.3501
C187 C 0.0096(3) 0.46408(19) 0.38005(15)
H154 H -0.0147 0.4807 0.3781
C188 C 0.0249(4) 0.4536(2) 0.39949(12)
H155 H 0.0112 0.4630 0.4109
C189 C 0.0604(4) 0.4292(2) 0.40232(11)
H156 H 0.0709 0.4220 0.4156
C190 C 0.0806(3) 0.41539(18) 0.38570(15)
N53 N 0.1613(3) 0.35085(19) 0.37510(13)
N54 N 0.1299(4) 0.3771(2) 0.36936(11)
C191 C 0.1104(4) 0.38953(19) 0.38710(15)
C192 C 0.1298(4) 0.3709(2) 0.40380(11)
H157 H 0.1230 0.3740 0.4175
C193 C 0.1613(4) 0.34704(19) 0.39638(13)
H158 H 0.1792 0.3313 0.4043
C194 C 0.1833(6) 0.3317(3) 0.3607(2)
H159 H 0.2167 0.3227 0.3666
H160 H 0.1900 0.3440 0.3486
C195 C 0.1036(4) 0.27445(19) 0.33128(11)
C196 C 0.0892(4) 0.26480(19) 0.35053(14)
H161 H 0.0666 0.2480 0.3530
C197 C 0.1146(4) 0.2847(2) 0.36541(10)
H162 H 0.1120 0.2835 0.3796
C198 C 0.1447(4) 0.30661(18) 0.35534(12)
O9 O 0.1378(3) 0.30029(17) 0.33425(11)
N55 N 0.0867(4) 0.4418(2) 0.32106(12)
C199 C 0.0438(3) 0.44005(19) 0.30682(15)
H163 H 0.0190 0.4238 0.3076
C200 C 0.0373(3) 0.4621(2) 0.29143(14)
H164 H 0.0081 0.4609 0.2817
C201 C 0.0737(4) 0.4858(2) 0.29027(13)
H165 H 0.0693 0.5008 0.2797
C202 C 0.1165(4) 0.4875(2) 0.30450(16)
H166 H 0.1414 0.5038 0.3037
C203 C 0.1230(3) 0.4655(2) 0.31990(14)
N56 N 0.2158(4) 0.4471(2) 0.36106(13)
N57 N 0.1710(3) 0.44095(19) 0.34761(15)
C204 C 0.1639(4) 0.4664(2) 0.33397(14)
C205 C 0.2044(4) 0.48827(19) 0.33898(15)
H167 H 0.2092 0.5075 0.3323
C206 C 0.2364(3) 0.4763(2) 0.35572(15)
H168 H 0.2664 0.4862 0.3622
C207 C 0.2373(6) 0.4262(3) 0.3765(2)
H169 H 0.2131 0.4084 0.3774
H170 H 0.2706 0.4179 0.3724
N58 N 0.3228(4) 0.46239(19) 0.50497(14)
C208 C 0.3634(4) 0.46059(18) 0.52016(15)
H171 H 0.3814 0.4415 0.5227
C209 C 0.3778(4) 0.4868(2) 0.53165(14)
H172 H 0.4056 0.4856 0.5420
C210 C 0.3515(4) 0.51477(19) 0.52795(15)
H173 H 0.3613 0.5327 0.5358
C211 C 0.3109(4) 0.51656(18) 0.51277(16)
H174 H 0.2929 0.5357 0.5102
C212 C 0.2965(4) 0.4904(2) 0.50128(14)
N59 N 0.2036(4) 0.4704(2) 0.46020(14)
N60 N 0.2452(4) 0.46369(18) 0.47506(15)
C213 C 0.2589(4) 0.4917(2) 0.48556(15)
C214 C 0.2258(5) 0.51576(17) 0.47720(17)
H175 H 0.2263 0.5369 0.4814
C215 C 0.1916(4) 0.5026(2) 0.46153(16)
H176 H 0.1653 0.5134 0.4534
C216 C 0.1858(6) 0.4491(3) 0.4430(2)
H177 H 0.1850 0.4272 0.4477
H178 H 0.1504 0.4549 0.4372
C217 C 0.2465(4) 0.4395(2) 0.39599(11)
C218 C 0.2875(3) 0.4578(2) 0.40554(16)
H179 H 0.3187 0.4636 0.3998
C219 C 0.2736(4) 0.4660(2) 0.42513(15)
H180 H 0.2939 0.4782 0.4348
C220 C 0.2240(4) 0.4527(2) 0.42769(12)
O10 O 0.2073(3) 0.43633(17) 0.40968(13)
N61 N 0.2346(3) 0.42104(19) 0.51325(10)
C221 C 0.1867(3) 0.43603(18) 0.51323(10)
H181 H 0.1714 0.4454 0.5012
C222 C 0.1613(3) 0.43733(19) 0.53088(13)
H182 H 0.1285 0.4476 0.5309
C223 C 0.1837(3) 0.4236(2) 0.54855(11)
H183 H 0.1662 0.4245 0.5606
C224 C 0.2316(3) 0.40866(19) 0.54857(10)
H184 H 0.2469 0.3993 0.5606
C225 C 0.2571(3) 0.40736(18) 0.53092(13)
N62 N 0.3718(3) 0.37294(19) 0.51281(12)
N63 N 0.3246(3) 0.39010(18) 0.50986(11)
C226 C 0.3030(3) 0.3924(2) 0.52882(14)
C227 C 0.3369(4) 0.3767(2) 0.54350(10)
H185 H 0.3320 0.3746 0.5575
C228 C 0.3794(3) 0.36468(19) 0.53361(13)
H186 H 0.4079 0.3531 0.5398
C229 C 0.3981(6) 0.3636(3) 0.4951(2)
H187 H 0.3907 0.3792 0.4842
H188 H 0.4362 0.3633 0.4986
N64 N 0.4389(3) 0.20224(15) 0.42251(13)
C230 C 0.4751(3) 0.1791(2) 0.41932(14)
H189 H 0.5114 0.1838 0.4207
C231 C 0.4584(3) 0.14920(18) 0.41409(14)
H190 H 0.4832 0.1334 0.4119
C232 C 0.4054(4) 0.14236(15) 0.41204(14)
H191 H 0.3940 0.1219 0.4085
C233 C 0.3691(3) 0.1655(2) 0.41523(14)
H192 H 0.3329 0.1608 0.4138
C234 C 0.3859(3) 0.19541(18) 0.42047(14)
N65 N 0.3305(3) 0.26788(15) 0.43408(13)
N66 N 0.3733(3) 0.2483(2) 0.43066(13)
C235 C 0.3532(3) 0.21864(17) 0.42446(15)
C236 C 0.2979(3) 0.21996(17) 0.42405(15)
H193 H 0.2745 0.2034 0.4204
C237 C 0.2839(3) 0.2504(2) 0.43000(14)
H194 H 0.2494 0.2578 0.4311
C238 C 0.3362(6) 0.2998(3) 0.4391(2)
H195 H 0.3025 0.3106 0.4363
H196 H 0.3620 0.3095 0.4308
C239 C 0.3819(4) 0.33424(16) 0.48792(11)
C240 C 0.3799(4) 0.3031(2) 0.49507(10)
H197 H 0.3885 0.2964 0.5086
C241 C 0.3628(4) 0.28376(13) 0.47844(14)
H198 H 0.3579 0.2618 0.4789
C242 C 0.3542(4) 0.30292(17) 0.46100(10)
O11 O 0.3660(3) 0.33412(15) 0.46686(11)
N67 N 0.1885(3) 0.18957(19) 0.28752(10)
C243 C 0.1555(3) 0.20079(18) 0.27145(13)
H199 H 0.1269 0.2138 0.2740
C244 C 0.1643(3) 0.1930(2) 0.25168(11)
H200 H 0.1417 0.2006 0.2407
C245 C 0.2061(4) 0.1739(2) 0.24797(10)
H201 H 0.2122 0.1686 0.2345
C246 C 0.2392(3) 0.16272(19) 0.26403(14)
H202 H 0.2678 0.1497 0.2615
C247 C 0.2303(3) 0.17054(19) 0.28381(11)
N68 N 0.2889(3) 0.15662(19) 0.33381(9)
N69 N 0.2533(3) 0.17178(17) 0.31946(13)
C248 C 0.2616(4) 0.1600(2) 0.29996(10)
C249 C 0.3023(4) 0.1376(2) 0.30226(12)
H203 H 0.3158 0.1261 0.2917
C250 C 0.3192(3) 0.13551(19) 0.32318(13)
H204 H 0.3460 0.1223 0.3290
C251 C 0.2947(6) 0.1642(3) 0.3551(2)
H205 H 0.2637 0.1762 0.3584
H206 H 0.2953 0.1445 0.3629
N70 N 0.5396(2) 0.24692(19) 0.42806(13)
C252 C 0.5757(3) 0.23911(18) 0.44408(11)
H207 H 0.5642 0.2303 0.4561
C253 C 0.6286(3) 0.24419(19) 0.44256(12)
H208 H 0.6532 0.2389 0.4535
C254 C 0.6454(3) 0.2571(2) 0.42501(14)
H209 H 0.6815 0.2606 0.4240
C255 C 0.6093(4) 0.2649(2) 0.40899(11)
H210 H 0.6208 0.2737 0.3970
C256 C 0.5564(3) 0.25983(19) 0.41052(11)
N71 N 0.4354(3) 0.2689(2) 0.38089(13)
N72 N 0.4663(3) 0.25977(19) 0.39868(10)
C257 C 0.5195(3) 0.2646(2) 0.39536(13)
C258 C 0.5215(3) 0.2768(2) 0.37552(14)
H211 H 0.5522 0.2822 0.3693
C259 C 0.4695(4) 0.2795(2) 0.36657(10)
H212 H 0.4594 0.2870 0.3533
C260 C 0.3798(6) 0.2605(3) 0.3777(2)
H213 H 0.3612 0.2737 0.3671
H214 H 0.3623 0.2623 0.3904
C261 C 0.3400(3) 0.18160(16) 0.36146(14)
C262 C 0.3945(3) 0.17559(17) 0.36336(15)
H215 H 0.4106 0.1561 0.3611
C263 C 0.4205(2) 0.2038(2) 0.36917(15)
H216 H 0.4572 0.2065 0.3715
C264 C 0.3822(3) 0.22718(15) 0.37085(15)
O12 O 0.3324(3) 0.21348(17) 0.36609(12)
Cl1 Cl 0.32017(15) 0.33509(8) 0.38630(6)
O14 O 0.3275(4) 0.3304(2) 0.36523(12)
O15 O 0.3699(3) 0.3346(2) 0.39789(14)
O16 O 0.2889(4) 0.3094(2) 0.39334(14)
O17 O 0.2943(4) 0.3636(2) 0.38916(14)
Cl2 Cl 0.06557(16) 0.41017(9) 0.46204(6)
O18 O 0.0937(4) 0.3891(2) 0.45009(13)
O19 O 0.0220(4) 0.3935(2) 0.46844(16)
O20 O 0.0979(4) 0.4209(2) 0.47930(13)
O21 O 0.0483(5) 0.4363(2) 0.44975(17)
Cl3 Cl 0.17636(15) 0.71379(8) 0.37709(5)
O22 O 0.1212(3) 0.7197(2) 0.37732(15)
O23 O 0.1848(4) 0.68543(19) 0.36718(14)
O24 O 0.1990(4) 0.7123(2) 0.39755(12)
O25 O 0.1989(4) 0.73870(19) 0.36663(13)
Cl4 Cl 0.46044(15) 0.33582(8) 0.23373(6)
O26 O 0.4467(4) 0.3309(2) 0.25448(13)
O27 O 0.4126(3) 0.33524(19) 0.22073(13)
O28 O 0.4862(3) 0.36504(18) 0.23260(13)
O29 O 0.4933(3) 0.31094(18) 0.22795(13)
Cl5 Cl 0.08259(16) 0.27740(9) 0.25403(6)
O30 O 0.0465(4) 0.2665(3) 0.26724(17)
O31 O 0.0792(7) 0.2579(4) 0.2367(2)
O32 O 0.1345(3) 0.2759(2) 0.26341(14)
O33 O 0.0727(6) 0.3083(3) 0.2483(2)
Cl6 Cl 0.23830(15) 0.36390(8) 0.60285(6)
O34 O 0.2209(4) 0.3335(2) 0.60728(16)
O35 O 0.2815(4) 0.3613(2) 0.59036(15)
O36 O 0.1974(4) 0.3807(2) 0.59185(16)
O37 O 0.2558(4) 0.3801(2) 0.62114(14)
Cl7 Cl 0.23994(15) 0.14147(8) 0.59186(6)
O38 O 0.1937(3) 0.13532(19) 0.57903(13)
O39 O 0.2846(4) 0.1295(2) 0.58258(15)
O40 O 0.2369(4) 0.1268(2) 0.61137(13)
O41 O 0.2464(4) 0.17450(19) 0.59461(15)
Cl8 Cl 0.3863(2) 0.25121(11) 0.56134(8)
O42 O 0.4035(6) 0.2375(4) 0.5443(2)
O43 O 0.3485(5) 0.2315(3) 0.5697(2)
O44 O 0.4292(5) 0.2534(3) 0.57736(18)
O45 O 0.3660(6) 0.2811(3) 0.5577(2)
Cl9 Cl 0.44234(18) 0.62734(10) 0.28781(7)
O46 O 0.4749(6) 0.6071(3) 0.3003(2)
O47 O 0.4033(5) 0.6411(3) 0.2998(2)
O48 O 0.4718(5) 0.6526(3) 0.2803(2)
O49 O 0.4165(5) 0.6106(3) 0.27090(18)
Cl10 Cl 0.2207(2) 0.12289(11) 0.40988(7)
O50 O 0.1990(5) 0.1090(3) 0.39179(17)
O51 O 0.2390(5) 0.1529(2) 0.40613(18)
O52 O 0.1776(5) 0.1280(4) 0.4229(2)
O53 O 0.2571(6) 0.1042(3) 0.4209(2)
Cl11 Cl 0.1349(2) 0.03403(13) 0.28469(9)
O54 O 0.1307(6) 0.0177(3) 0.26493(19)
O55 O 0.1692(5) 0.0612(3) 0.2830(2)
O56 O 0.0828(5) 0.0444(3) 0.2890(2)
O57 O 0.1569(5) 0.0126(3) 0.30021(19)
Cl12 Cl 0.53702(16) 0.13856(9) 0.51638(6)
O58 O 0.5550(5) 0.1680(3) 0.5104(2)
O59 O 0.5781(4) 0.1239(3) 0.52858(18)
O60 O 0.4925(4) 0.1435(3) 0.52835(18)
O61 O 0.5205(5) 0.1204(3) 0.49933(18)
Cl13 Cl 0.61368(18) 0.16051(10) 0.44099(7)
O62 O 0.6046(4) 0.1760(2) 0.42138(13)
O63 O 0.5691(4) 0.1669(2) 0.45293(16)
O64 O 0.6209(4) 0.1282(2) 0.43852(17)
O65 O 0.6593(4) 0.1748(2) 0.45218(15)
C267 C 0.1338(8) 0.3389(4) 0.1297(3)
H218 H 0.1665 0.3496 0.1340
H219 H 0.1042 0.3517 0.1331
H220 H 0.1317 0.3354 0.1151
N73 N 0.1324(7) 0.3104(4) 0.1396(2)
O66 O 0.1000(5) 0.3145(3) 0.1537(2)
O67 O 0.1520(5) 0.2864(3) 0.13642(19)
C268 C 0.2069(6) 0.6775(3) 0.5008(2)
H221 H 0.2071 0.6609 0.4906
H222 H 0.1716 0.6796 0.5052
H223 H 0.2313 0.6721 0.5125
N74 N 0.2233(6) 0.7079(3) 0.49174(19)
O68 O 0.2678(4) 0.7157(2) 0.49383(15)
O69 O 0.1878(4) 0.7240(2) 0.48344(15)
C269 C 0.8593(8) 0.1391(4) 0.5007(3)
H224 H 0.8274 0.1445 0.5071
H225 H 0.8893 0.1491 0.5082
H226 H 0.8640 0.1164 0.5011
N75 N 0.8543(7) 0.1515(4) 0.4765(2)
O70 O 0.8810(5) 0.1345(3) 0.4653(2)
O71 O 0.8303(5) 0.1741(3) 0.47142(18)
C270 C 0.0166(6) 0.8255(3) 0.3832(2)
H227 H 0.0294 0.8232 0.3698
H228 H 0.0437 0.8352 0.3925
H229 H -0.0146 0.8387 0.3822
N76 N 0.0044(6) 0.7965(3) 0.3906(2)
O72 O -0.0420(4) 0.7861(2) 0.38799(16)
O73 O 0.0382(4) 0.7801(2) 0.39873(15)
C271 C 0.3661(8) 0.5635(4) 0.4634(3)
H230 H 0.3510 0.5828 0.4576
H231 H 0.4042 0.5655 0.4652
H232 H 0.3527 0.5598 0.4766
N77 N 0.3519(7) 0.5375(4) 0.4500(3)
O74 O 0.3462(5) 0.5120(3) 0.4575(2)
O75 O 0.3478(5) 0.5431(3) 0.4317(2)
C265? C 0.2221(4) 0.7095(2) 0.25652(15)
H217? H 0.1961 0.7230 0.2609
C266? C 0.2139(3) 0.6849(2) 0.24229(14)
O13? O 0.2627(3) 0.67045(16) 0.24009(11)
loop_
_geom_bond_atom_site_label_1
_geom_bond_atom_site_label_2
_geom_bond_site_symmetry_1
_geom_bond_site_symmetry_2
Zn1 N1 1_555 1_555
Zn2 N4 1_555 1_555
Zn3 N10 1_555 1_555
Zn4 N16 1_555 1_555
Zn5 N28 1_555 1_555
Zn6 N34 1_555 1_555
Zn7 N40 1_555 1_555
Zn8 N46 1_555 1_555
N1 C1 1_555 1_555
C1 H1 1_555 1_555
C2 C1 1_555 1_555
H2 C2 1_555 1_555
C3 C2 1_555 1_555
H3 C3 1_555 1_555
C4 C3 1_555 1_555
H4 C4 1_555 1_555
C5 N1 1_555 1_555
N2 N3 1_555 1_555
N3 Zn1 1_555 1_555
C6 C5 1_555 1_555
C7 C6 1_555 1_555
H5 C7 1_555 1_555
C8 N2 1_555 1_555
H6 C8 1_555 1_555
C9 N2 1_555 1_555
H7 C9 1_555 1_555
H8 C9 1_555 1_555
N4 C10 1_555 1_555
C10 H9 1_555 1_555
C11 C10 1_555 1_555
H10 C11 1_555 1_555
C12 C11 1_555 1_555
H11 C12 1_555 1_555
C13 C12 1_555 1_555
H12 C13 1_555 1_555
C14 N4 1_555 1_555
N5 N6 1_555 1_555
N6 Zn2 1_555 1_555
C15 C14 1_555 1_555
C16 C15 1_555 1_555
H13 C16 1_555 1_555
C17 N5 1_555 1_555
H14 C17 1_555 1_555
C18 N5 1_555 1_555
H15 C18 1_555 1_555
H16 C18 1_555 1_555
C19 C9 1_555 1_555
C20 C19 1_555 1_555
H17 C20 1_555 1_555
C21 C20 1_555 1_555
H18 C21 1_555 1_555
C22 C18 1_555 1_555
O1 C19 1_555 1_555
N7 Zn2 1_555 1_555
C23 N7 1_555 1_555
H19 C23 1_555 1_555
C24 C23 1_555 1_555
H20 C24 1_555 1_555
C25 C24 1_555 1_555
H21 C25 1_555 1_555
C26 C25 1_555 1_555
H22 C26 1_555 1_555
C27 N7 1_555 1_555
N8 N9 1_555 1_555
N9 Zn2 1_555 1_555
C28 C27 1_555 1_555
C29 C28 1_555 1_555
H23 C29 1_555 1_555
C30 N8 1_555 1_555
H24 C30 1_555 1_555
C31 N8 1_555 1_555
H25 C31 1_555 1_555
H26 C31 1_555 1_555
N10 C32 1_555 1_555
C32 H27 1_555 1_555
C33 C32 1_555 1_555
H28 C33 1_555 1_555
C34 C33 1_555 1_555
H29 C34 1_555 1_555
C35 C34 1_555 1_555
H30 C35 1_555 1_555
C36 N10 1_555 1_555
N11 N12 1_555 1_555
N12 Zn3 1_555 1_555
C37 C36 1_555 1_555
C38 C37 1_555 1_555
H31 C38 1_555 1_555
C39 N11 1_555 1_555
H32 C39 1_555 1_555
C40 N11 1_555 1_555
H33 C40 1_555 1_555
H34 C40 1_555 1_555
C41 C31 1_555 1_555
C42 C41 1_555 1_555
H35 C42 1_555 1_555
C43 C42 1_555 1_555
H36 C43 1_555 1_555
C44 C40 1_555 1_555
O2 C41 1_555 1_555
N13 Zn3 1_555 1_555
C45 N13 1_555 1_555
H37 C45 1_555 1_555
C46 C45 1_555 1_555
H38 C46 1_555 1_555
C47 C46 1_555 1_555
H39 C47 1_555 1_555
C48 C47 1_555 1_555
H40 C48 1_555 1_555
C49 N13 1_555 1_555
N14 N15 1_555 1_555
N15 Zn3 1_555 1_555
C50 C49 1_555 1_555
C51 C50 1_555 1_555
H41 C51 1_555 1_555
C52 N14 1_555 1_555
H42 C52 1_555 1_555
C53 N14 1_555 1_555
H43 C53 1_555 1_555
H44 C53 1_555 1_555
N16 C54 1_555 1_555
C54 H45 1_555 1_555
C55 C54 1_555 1_555
H46 C55 1_555 1_555
C56 C55 1_555 1_555
H47 C56 1_555 1_555
C57 C56 1_555 1_555
H48 C57 1_555 1_555
C58 N16 1_555 1_555
N17 N18 1_555 1_555
N18 Zn4 1_555 1_555
C59 C58 1_555 1_555
C60 C59 1_555 1_555
H49 C60 1_555 1_555
C61 N17 1_555 1_555
H50 C61 1_555 1_555
C62 N17 1_555 1_555
H51 C62 1_555 1_555
H52 C62 1_555 1_555
C63 C53 1_555 1_555
C64 C63 1_555 1_555
H53 C64 1_555 1_555
C65 C64 1_555 1_555
H54 C65 1_555 1_555
C66 C62 1_555 1_555
O3 C63 1_555 1_555
N19 Zn4 1_555 1_555
C67 N19 1_555 1_555
H55 C67 1_555 1_555
C68 C67 1_555 1_555
H56 C68 1_555 1_555
C69 C68 1_555 1_555
H57 C69 1_555 1_555
C70 C69 1_555 1_555
H58 C70 1_555 1_555
C71 N19 1_555 1_555
N20 N21 1_555 1_555
N21 Zn4 1_555 1_555
C72 C71 1_555 1_555
C73 C72 1_555 1_555
H59 C73 1_555 1_555
C74 N20 1_555 1_555
H60 C74 1_555 1_555
C75 N20 1_555 1_555
H61 C75 1_555 1_555
H62 C75 1_555 1_555
N22 Zn1 1_555 1_555
C76 N22 1_555 1_555
H63 C76 1_555 1_555
C77 C76 1_555 1_555
H64 C77 1_555 1_555
C78 C77 1_555 1_555
H65 C78 1_555 1_555
C79 C78 1_555 1_555
H66 C79 1_555 1_555
C80 N22 1_555 1_555
N23 N24 1_555 1_555
N24 Zn1 1_555 1_555
C81 C80 1_555 1_555
C82 C81 1_555 1_555
H67 C82 1_555 1_555
C83 N23 1_555 1_555
H68 C83 1_555 1_555
C84 N23 1_555 1_555
H69 C84 1_555 1_555
H70 C84 1_555 1_555
C85 C75 1_555 1_555
C86 C85 1_555 1_555
H71 C86 1_555 1_555
C87 C86 1_555 1_555
H72 C87 1_555 1_555
C88 C84 1_555 1_555
O4 C85 1_555 1_555
N25 Zn1 1_555 1_555
C89 N25 1_555 1_555
H73 C89 1_555 1_555
C90 C89 1_555 1_555
H74 C90 1_555 1_555
C91 C90 1_555 1_555
H75 C91 1_555 1_555
C92 C91 1_555 1_555
H76 C92 1_555 1_555
C93 N25 1_555 1_555
N26 N27 1_555 1_555
N27 Zn1 1_555 1_555
C94 C93 1_555 1_555
C95 C94 1_555 1_555
H77 C95 1_555 1_555
C96 N26 1_555 1_555
H78 C96 1_555 1_555
C97 N26 1_555 1_555
H79 C97 1_555 1_555
H80 C97 1_555 1_555
N28 C98 1_555 1_555
C98 H81 1_555 1_555
C99 C98 1_555 1_555
H82 C99 1_555 1_555
C100 C99 1_555 1_555
H83 C100 1_555 1_555
C101 C100 1_555 1_555
H84 C101 1_555 1_555
C102 N28 1_555 1_555
N29 N30 1_555 1_555
N30 Zn5 1_555 1_555
C103 C102 1_555 1_555
C104 C103 1_555 1_555
H85 C104 1_555 1_555
C105 N29 1_555 1_555
H86 C105 1_555 1_555
C106 N29 1_555 1_555
H87 C106 1_555 1_555
H88 C106 1_555 1_555
C107 C97 1_555 1_555
C108 C107 1_555 1_555
H89 C108 1_555 1_555
C109 C108 1_555 1_555
H90 C109 1_555 1_555
C110 C106 1_555 1_555
O5 C107 1_555 1_555
N31 Zn2 1_555 1_555
C111 N31 1_555 1_555
H91 C111 1_555 1_555
C112 C111 1_555 1_555
H92 C112 1_555 1_555
C113 C112 1_555 1_555
H93 C113 1_555 1_555
C114 C113 1_555 1_555
H94 C114 1_555 1_555
C115 N31 1_555 1_555
N32 N33 1_555 1_555
N33 Zn2 1_555 1_555
C116 C115 1_555 1_555
C117 C116 1_555 1_555
H95 C117 1_555 1_555
C118 N32 1_555 1_555
H96 C118 1_555 1_555
C119 N32 1_555 1_555
H97 C119 1_555 1_555
H98 C119 1_555 1_555
N34 C120 1_555 1_555
C120 H99 1_555 1_555
C121 C120 1_555 1_555
H100 C121 1_555 1_555
C122 C121 1_555 1_555
H101 C122 1_555 1_555
C123 C122 1_555 1_555
H102 C123 1_555 1_555
C124 N34 1_555 1_555
N35 N36 1_555 1_555
N36 Zn6 1_555 1_555
C125 C124 1_555 1_555
C126 C125 1_555 1_555
H103 C126 1_555 1_555
C127 N35 1_555 1_555
H104 C127 1_555 1_555
C128 N35 1_555 1_555
H105 C128 1_555 1_555
H106 C128 1_555 1_555
C129 C119 1_555 1_555
C130 C129 1_555 1_555
H107 C130 1_555 1_555
C131 C130 1_555 1_555
H108 C131 1_555 1_555
C132 C128 1_555 1_555
O6 C129 1_555 1_555
N37 Zn3 1_555 1_555
C133 N37 1_555 1_555
H109 C133 1_555 1_555
C134 C133 1_555 1_555
H110 C134 1_555 1_555
C135 C134 1_555 1_555
H111 C135 1_555 1_555
C136 C135 1_555 1_555
H112 C136 1_555 1_555
C137 N37 1_555 1_555
N38 N39 1_555 1_555
N39 Zn3 1_555 1_555
C138 C137 1_555 1_555
C139 C138 1_555 1_555
H113 C139 1_555 1_555
C140 N38 1_555 1_555
H114 C140 1_555 1_555
C141 N38 1_555 1_555
H115 C141 1_555 1_555
H116 C141 1_555 1_555
N40 C142 1_555 1_555
C142 H117 1_555 1_555
C143 C142 1_555 1_555
H118 C143 1_555 1_555
C144 C143 1_555 1_555
H119 C144 1_555 1_555
C145 C144 1_555 1_555
H120 C145 1_555 1_555
C146 N40 1_555 1_555
N41 N42 1_555 1_555
N42 Zn7 1_555 1_555
C147 C146 1_555 1_555
C148 C147 1_555 1_555
H121 C148 1_555 1_555
C149 N41 1_555 1_555
H122 C149 1_555 1_555
C150 N41 1_555 1_555
H123 C150 1_555 1_555
H124 C150 1_555 1_555
C151 C141 1_555 1_555
C152 C151 1_555 1_555
H125 C152 1_555 1_555
C153 C152 1_555 1_555
H126 C153 1_555 1_555
C154 C150 1_555 1_555
O7 C151 1_555 1_555
N43 Zn4 1_555 1_555
C155 N43 1_555 1_555
H127 C155 1_555 1_555
C156 C155 1_555 1_555
H128 C156 1_555 1_555
C157 C156 1_555 1_555
H129 C157 1_555 1_555
C158 C157 1_555 1_555
H130 C158 1_555 1_555
C159 N43 1_555 1_555
N44 N45 1_555 1_555
N45 Zn4 1_555 1_555
C160 C159 1_555 1_555
C161 C160 1_555 1_555
H131 C161 1_555 1_555
C162 N44 1_555 1_555
H132 C162 1_555 1_555
C163 N44 1_555 1_555
H133 C163 1_555 1_555
H134 C163 1_555 1_555
N46 C164 1_555 1_555
C164 H135 1_555 1_555
C165 C164 1_555 1_555
H136 C165 1_555 1_555
C166 C165 1_555 1_555
H137 C166 1_555 1_555
C167 C166 1_555 1_555
H138 C167 1_555 1_555
C168 N46 1_555 1_555
N47 N48 1_555 1_555
N48 Zn8 1_555 1_555
C169 C168 1_555 1_555
C170 C169 1_555 1_555
H139 C170 1_555 1_555
C171 N47 1_555 1_555
H140 C171 1_555 1_555
C172 N47 1_555 1_555
H141 C172 1_555 1_555
H142 C172 1_555 1_555
C173 C163 1_555 1_555
C174 C173 1_555 1_555
H143 C174 1_555 1_555
C175 C174 1_555 1_555
H144 C175 1_555 1_555
C176 C172 1_555 1_555
O8 C173 1_555 1_555
N49 Zn5 1_555 1_555
C177 N49 1_555 1_555
H145 C177 1_555 1_555
C178 C177 1_555 1_555
H146 C178 1_555 1_555
C179 C178 1_555 1_555
H147 C179 1_555 1_555
C180 C179 1_555 1_555
H148 C180 1_555 1_555
C181 N49 1_555 1_555
N50 N51 1_555 1_555
N51 Zn5 1_555 1_555
C182 C181 1_555 1_555
C183 C182 1_555 1_555
H149 C183 1_555 1_555
C184 N50 1_555 1_555
H150 C184 1_555 1_555
C185 N50 1_555 1_555
H151 C185 1_555 1_555
H152 C185 1_555 1_555
N52 Zn6 1_555 1_555
C186 N52 1_555 1_555
H153 C186 1_555 1_555
C187 C186 1_555 1_555
H154 C187 1_555 1_555
C188 C187 1_555 1_555
H155 C188 1_555 1_555
C189 C188 1_555 1_555
H156 C189 1_555 1_555
C190 N52 1_555 1_555
N53 N54 1_555 1_555
N54 Zn6 1_555 1_555
C191 C190 1_555 1_555
C192 C191 1_555 1_555
H157 C192 1_555 1_555
C193 N53 1_555 1_555
H158 C193 1_555 1_555
C194 N53 1_555 1_555
H159 C194 1_555 1_555
H160 C194 1_555 1_555
C195 C185 1_555 1_555
C196 C195 1_555 1_555
H161 C196 1_555 1_555
C197 C196 1_555 1_555
H162 C197 1_555 1_555
C198 C194 1_555 1_555
O9 C195 1_555 1_555
N55 Zn6 1_555 1_555
C199 N55 1_555 1_555
H163 C199 1_555 1_555
C200 C199 1_555 1_555
H164 C200 1_555 1_555
C201 C200 1_555 1_555
H165 C201 1_555 1_555
C202 C201 1_555 1_555
H166 C202 1_555 1_555
C203 N55 1_555 1_555
N56 N57 1_555 1_555
N57 Zn6 1_555 1_555
C204 C203 1_555 1_555
C205 C204 1_555 1_555
H167 C205 1_555 1_555
C206 N56 1_555 1_555
H168 C206 1_555 1_555
C207 N56 1_555 1_555
H169 C207 1_555 1_555
H170 C207 1_555 1_555
N58 Zn7 1_555 1_555
C208 N58 1_555 1_555
H171 C208 1_555 1_555
C209 C208 1_555 1_555
H172 C209 1_555 1_555
C210 C209 1_555 1_555
H173 C210 1_555 1_555
C211 C210 1_555 1_555
H174 C211 1_555 1_555
C212 N58 1_555 1_555
N59 N60 1_555 1_555
N60 Zn7 1_555 1_555
C213 C212 1_555 1_555
C214 C213 1_555 1_555
H175 C214 1_555 1_555
C215 N59 1_555 1_555
H176 C215 1_555 1_555
C216 N59 1_555 1_555
H177 C216 1_555 1_555
H178 C216 1_555 1_555
C217 C207 1_555 1_555
C218 C217 1_555 1_555
H179 C218 1_555 1_555
C219 C218 1_555 1_555
H180 C219 1_555 1_555
C220 C216 1_555 1_555
O10 C217 1_555 1_555
N61 Zn7 1_555 1_555
C221 N61 1_555 1_555
H181 C221 1_555 1_555
C222 C221 1_555 1_555
H182 C222 1_555 1_555
C223 C222 1_555 1_555
H183 C223 1_555 1_555
C224 C223 1_555 1_555
H184 C224 1_555 1_555
C225 N61 1_555 1_555
N62 N63 1_555 1_555
N63 Zn7 1_555 1_555
C226 C225 1_555 1_555
C227 C226 1_555 1_555
H185 C227 1_555 1_555
C228 N62 1_555 1_555
H186 C228 1_555 1_555
C229 N62 1_555 1_555
H187 C229 1_555 1_555
H188 C229 1_555 1_555
N64 Zn8 1_555 1_555
C230 N64 1_555 1_555
H189 C230 1_555 1_555
C231 C230 1_555 1_555
H190 C231 1_555 1_555
C232 C231 1_555 1_555
H191 C232 1_555 1_555
C233 C232 1_555 1_555
H192 C233 1_555 1_555
C234 N64 1_555 1_555
N65 N66 1_555 1_555
N66 Zn8 1_555 1_555
C235 C234 1_555 1_555
C236 C235 1_555 1_555
H193 C236 1_555 1_555
C237 N65 1_555 1_555
H194 C237 1_555 1_555
C238 N65 1_555 1_555
H195 C238 1_555 1_555
H196 C238 1_555 1_555
C239 C229 1_555 1_555
C240 C239 1_555 1_555
H197 C240 1_555 1_555
C241 C240 1_555 1_555
H198 C241 1_555 1_555
C242 C238 1_555 1_555
O11 C239 1_555 1_555
N67 Zn5 1_555 1_555
C243 N67 1_555 1_555
H199 C243 1_555 1_555
C244 C243 1_555 1_555
H200 C244 1_555 1_555
C245 C244 1_555 1_555
H201 C245 1_555 1_555
C246 C245 1_555 1_555
H202 C246 1_555 1_555
C247 N67 1_555 1_555
N68 N69 1_555 1_555
N69 Zn5 1_555 1_555
C248 C247 1_555 1_555
C249 C248 1_555 1_555
H203 C249 1_555 1_555
C250 N68 1_555 1_555
H204 C250 1_555 1_555
C251 N68 1_555 1_555
H205 C251 1_555 1_555
H206 C251 1_555 1_555
N70 Zn8 1_555 1_555
C252 N70 1_555 1_555
H207 C252 1_555 1_555
C253 C252 1_555 1_555
H208 C253 1_555 1_555
C254 C253 1_555 1_555
H209 C254 1_555 1_555
C255 C254 1_555 1_555
H210 C255 1_555 1_555
C256 N70 1_555 1_555
N71 N72 1_555 1_555
N72 Zn8 1_555 1_555
C257 C256 1_555 1_555
C258 C257 1_555 1_555
H211 C258 1_555 1_555
C259 N71 1_555 1_555
H212 C259 1_555 1_555
C260 N71 1_555 1_555
H213 C260 1_555 1_555
H214 C260 1_555 1_555
C261 C251 1_555 1_555
C262 C261 1_555 1_555
H215 C262 1_555 1_555
C263 C262 1_555 1_555
H216 C263 1_555 1_555
C264 C260 1_555 1_555
O12 C261 1_555 1_555
Cl1 O14 1_555 1_555
O15 Cl1 1_555 1_555
O16 Cl1 1_555 1_555
O17 Cl1 1_555 1_555
Cl2 O18 1_555 1_555
O19 Cl2 1_555 1_555
O20 Cl2 1_555 1_555
O21 Cl2 1_555 1_555
Cl3 O22 1_555 1_555
O23 Cl3 1_555 1_555
O24 Cl3 1_555 1_555
O25 Cl3 1_555 1_555
Cl4 O26 1_555 1_555
O27 Cl4 1_555 1_555
O28 Cl4 1_555 1_555
O29 Cl4 1_555 1_555
Cl5 O30 1_555 1_555
O31 Cl5 1_555 1_555
O32 Cl5 1_555 1_555
O33 Cl5 1_555 1_555
Cl6 O34 1_555 1_555
O35 Cl6 1_555 1_555
O36 Cl6 1_555 1_555
O37 Cl6 1_555 1_555
Cl7 O38 1_555 1_555
O39 Cl7 1_555 1_555
O40 Cl7 1_555 1_555
O41 Cl7 1_555 1_555
Cl8 O42 1_555 1_555
O43 Cl8 1_555 1_555
O44 Cl8 1_555 1_555
O45 Cl8 1_555 1_555
Cl9 O46 1_555 1_555
O47 Cl9 1_555 1_555
O48 Cl9 1_555 1_555
O49 Cl9 1_555 1_555
Cl10 O50 1_555 1_555
O51 Cl10 1_555 1_555
O52 Cl10 1_555 1_555
O53 Cl10 1_555 1_555
Cl11 O54 1_555 1_555
O55 Cl11 1_555 1_555
O56 Cl11 1_555 1_555
O57 Cl11 1_555 1_555
Cl12 O58 1_555 1_555
O59 Cl12 1_555 1_555
O60 Cl12 1_555 1_555
O61 Cl12 1_555 1_555
Cl13 O62 1_555 1_555
O63 Cl13 1_555 1_555
O64 Cl13 1_555 1_555
O65 Cl13 1_555 1_555
C267 H218 1_555 1_555
H219 C267 1_555 1_555
H220 C267 1_555 1_555
N73 C267 1_555 1_555
O66 N73 1_555 1_555
O67 N73 1_555 1_555
C268 H221 1_555 1_555
H222 C268 1_555 1_555
H223 C268 1_555 1_555
N74 C268 1_555 1_555
O68 N74 1_555 1_555
O69 N74 1_555 1_555
C269 H224 1_555 1_555
H225 C269 1_555 1_555
H226 C269 1_555 1_555
N75 C269 1_555 1_555
O70 N75 1_555 1_555
O71 N75 1_555 1_555
C270 H227 1_555 1_555
H228 C270 1_555 1_555
H229 C270 1_555 1_555
N76 C270 1_555 1_555
O72 N76 1_555 1_555
O73 N76 1_555 1_555
C271 H230 1_555 1_555
H231 C271 1_555 1_555
H232 C271 1_555 1_555
N77 C271 1_555 1_555
O74 N77 1_555 1_555
O75 N77 1_555 1_555
C4 C5 1_555 1_555
N3 C6 1_555 1_555
C7 C8 1_555 1_555
C13 C14 1_555 1_555
N6 C15 1_555 1_555
C16 C17 1_555 1_555
C21 C22 1_555 1_555
C22 O1 1_555 1_555
C26 C27 1_555 1_555
N9 C28 1_555 1_555
C29 C30 1_555 1_555
C35 C36 1_555 1_555
N12 C37 1_555 1_555
C38 C39 1_555 1_555
C43 C44 1_555 1_555
C44 O2 1_555 1_555
C48 C49 1_555 1_555
N15 C50 1_555 1_555
C51 C52 1_555 1_555
C57 C58 1_555 1_555
N18 C59 1_555 1_555
C60 C61 1_555 1_555
C65 C66 1_555 1_555
C66 O3 1_555 1_555
C70 C71 1_555 1_555
N21 C72 1_555 1_555
C73 C74 1_555 1_555
C79 C80 1_555 1_555
N24 C81 1_555 1_555
C82 C83 1_555 1_555
C87 C88 1_555 1_555
C88 O4 1_555 1_555
C92 C93 1_555 1_555
N27 C94 1_555 1_555
C95 C96 1_555 1_555
C101 C102 1_555 1_555
N30 C103 1_555 1_555
C104 C105 1_555 1_555
C109 C110 1_555 1_555
C110 O5 1_555 1_555
C114 C115 1_555 1_555
N33 C116 1_555 1_555
C117 C118 1_555 1_555
C123 C124 1_555 1_555
N36 C125 1_555 1_555
C126 C127 1_555 1_555
C131 C132 1_555 1_555
C132 O6 1_555 1_555
C136 C137 1_555 1_555
N39 C138 1_555 1_555
C139 C140 1_555 1_555
C145 C146 1_555 1_555
N42 C147 1_555 1_555
C148 C149 1_555 1_555
C153 C154 1_555 1_555
C154 O7 1_555 1_555
C158 C159 1_555 1_555
N45 C160 1_555 1_555
C161 C162 1_555 1_555
C167 C168 1_555 1_555
N48 C169 1_555 1_555
C170 C171 1_555 1_555
C175 C176 1_555 1_555
C176 O8 1_555 1_555
C180 C181 1_555 1_555
N51 C182 1_555 1_555
C183 C184 1_555 1_555
C189 C190 1_555 1_555
N54 C191 1_555 1_555
C192 C193 1_555 1_555
C197 C198 1_555 1_555
C198 O9 1_555 1_555
C202 C203 1_555 1_555
N57 C204 1_555 1_555
C205 C206 1_555 1_555
C211 C212 1_555 1_555
N60 C213 1_555 1_555
C214 C215 1_555 1_555
C219 C220 1_555 1_555
C220 O10 1_555 1_555
C224 C225 1_555 1_555
N63 C226 1_555 1_555
C227 C228 1_555 1_555
C233 C234 1_555 1_555
N66 C235 1_555 1_555
C236 C237 1_555 1_555
C241 C242 1_555 1_555
C242 O11 1_555 1_555
C246 C247 1_555 1_555
N69 C248 1_555 1_555
C249 C250 1_555 1_555
C255 C256 1_555 1_555
N72 C257 1_555 1_555
C258 C259 1_555 1_555
C263 C264 1_555 1_555
C264 O12 1_555 1_555

#END
