
#######################################################################
#
#                 Cambridge Crystallographic Data Centre
#                                CCDC 
#
#######################################################################
#
# If this CIF has been generated from an entry in the Cambridge 
# Structural Database, then it will include bibliographic, chemical, 
# crystal, experimental, refinement or atomic coordinate data resulting 
# from the CCDC's data processing and validation procedures.
#
#######################################################################

data_DAHGIE
_chemical_formula_moiety         
'C132 H108 Co4 N36 S6 8+,8(B1 F4 1-),4(C1 H3 N1 O2)'
_chemical_name_systematic        
'hexakis(\m~2~-2,5-bis(3-(2-Pyridyl)pyrazolylmethyl)thiophene)-tetra-cobalt(ii) octakis(tetrafluoroborate) nitromethane solvate'
_symmetry_cell_setting           monoclinic
_symmetry_space_group_name_H-M   'C 2/c'
_symmetry_Int_Tables_number      15
_space_group_name_Hall           '-C 2yn'
loop_
_symmetry_equiv_pos_site_id
_symmetry_equiv_pos_as_xyz
1 x,y,z
2 -x,y,1/2-z
3 1/2+x,1/2+y,z
4 1/2-x,1/2+y,1/2-z
5 -x,-y,-z
6 x,-y,1/2+z
7 1/2-x,1/2-y,-z
8 1/2+x,1/2-y,1/2+z
_cell_length_a                   25.7813(7)
_cell_length_b                   18.2941(7)
_cell_length_c                   39.8811(13)
_cell_angle_alpha                90
_cell_angle_beta                 90.621(3)
_cell_angle_gamma                90
_cell_volume                     18808.6
_exptl_crystal_colour            orange
_exptl_crystal_description       plate
_cell_formula_units_Z            4
loop_
_atom_site_label
_atom_site_type_symbol
_atom_site_fract_x
_atom_site_fract_y
_atom_site_fract_z
Co1 Co 0.77656(4) 0.17060(5) 0.27444(3)
Co2 Co 0.56386(4) 0.18793(6) 0.08229(3)
N1 N 0.7383(2) 0.2648(3) 0.29523(17)
C1 C 0.7606(3) 0.3199(4) 0.3114(2)
H1 H 0.7974 0.3227 0.3118
C2 C 0.7332(3) 0.3729(4) 0.3276(2)
H2 H 0.7509 0.4114 0.3389
C3 C 0.6800(3) 0.3702(4) 0.3275(2)
H3 H 0.6602 0.4064 0.3388
C4 C 0.6557(3) 0.3128(4) 0.3105(2)
H4 H 0.6189 0.3098 0.3096
C5 C 0.6850(3) 0.2615(4) 0.2953(2)
N2 N 0.6659(2) 0.0931(3) 0.25331(17)
N3 N 0.6966(2) 0.1465(3) 0.26686(16)
C6 C 0.6626(3) 0.1976(4) 0.2785(2)
C7 C 0.6132(3) 0.1758(4) 0.2729(2)
H5 H 0.5826 0.2021 0.2783
C8 C 0.6155(3) 0.1091(4) 0.2578(2)
H6 H 0.5867 0.0793 0.2516
C9 C 0.6892(3) 0.0270(4) 0.2386(2)
H7 H 0.6794 -0.0161 0.2521
H8 H 0.7275 0.0315 0.2394
N4 N 0.5959(3) 0.2948(4) 0.07862(18)
C10 C 0.5704(3) 0.3577(5) 0.0707(2)
H9 H 0.5336 0.3560 0.0697
C11 C 0.5939(3) 0.4230(5) 0.0641(2)
H10 H 0.5745 0.4654 0.0581
C12 C 0.6488(3) 0.4239(5) 0.0666(2)
H11 H 0.6668 0.4687 0.0635
C13 C 0.6757(3) 0.3630(5) 0.0733(2)
H12 H 0.7126 0.3638 0.0736
C14 C 0.6487(3) 0.2974(5) 0.0799(2)
N5 N 0.6807(3) 0.1132(4) 0.09724(18)
N6 N 0.6458(3) 0.1692(4) 0.09274(18)
C15 C 0.6739(3) 0.2292(5) 0.0878(2)
C16 C 0.7282(3) 0.2115(5) 0.0906(2)
H13 H 0.7568 0.2440 0.0884
C17 C 0.7299(3) 0.1405(5) 0.0969(2)
H14 H 0.7606 0.1128 0.1006
C18 C 0.6657(3) 0.0398(5) 0.1040(2)
H15 H 0.6920 0.0061 0.0947
H16 H 0.6322 0.0296 0.0925
C19 C 0.6719(3) 0.0161(4) 0.2034(2)
C20 C 0.6364(3) -0.0333(4) 0.1906(2)
H17 H 0.6182 -0.0671 0.2042
C21 C 0.6297(3) -0.0295(4) 0.1563(2)
H18 H 0.6070 -0.0604 0.1439
C22 C 0.6599(3) 0.0248(5) 0.1419(2)
S1 S 0.69663(8) 0.06849(11) 0.17129(6)
N7 N 0.8163(2) 0.0750(3) 0.25485(18)
C23 C 0.8324(3) 0.0172(4) 0.2720(2)
H19 H 0.8201 0.0111 0.2942
C24 C 0.8655(3) -0.0340(4) 0.2597(2)
H20 H 0.8762 -0.0743 0.2731
C25 C 0.8832(3) -0.0262(4) 0.2270(2)
H21 H 0.9064 -0.0613 0.2180
C26 C 0.8673(3) 0.0327(4) 0.2076(2)
H22 H 0.8786 0.0392 0.1852
C27 C 0.8328(3) 0.0830(4) 0.2233(2)
N8 N 0.7761(2) 0.2505(3) 0.20010(17)
N9 N 0.7870(2) 0.1976(3) 0.22304(17)
C28 C 0.8158(3) 0.1477(4) 0.2054(2)
C29 C 0.8227(3) 0.1719(4) 0.1718(2)
H23 H 0.8410 0.1483 0.1543
C30 C 0.7967(3) 0.2372(4) 0.1707(2)
H24 H 0.7940 0.2681 0.1516
C31 C 0.7462(3) 0.3155(4) 0.2109(2)
H25 H 0.7683 0.3596 0.2088
H26 H 0.7371 0.3100 0.2348
N10 N 0.5368(3) 0.0787(4) 0.08760(18)
C32 C 0.5328(3) 0.0278(5) 0.0625(2)
H27 H 0.5425 0.0409 0.0404
C33 C 0.5150(3) -0.0415(5) 0.0686(2)
H28 H 0.5138 -0.0765 0.0510
C34 C 0.4989(3) -0.0600(5) 0.1001(2)
H29 H 0.4853 -0.1075 0.1039
C35 C 0.5021(3) -0.0108(5) 0.1263(2)
H30 H 0.4917 -0.0240 0.1483
C36 C 0.5213(3) 0.0603(5) 0.1192(2)
N11 N 0.5406(2) 0.2254(4) 0.16149(17)
N12 N 0.5415(3) 0.1827(4) 0.13369(17)
C37 C 0.5259(3) 0.1158(5) 0.1436(2)
C38 C 0.5177(3) 0.1169(5) 0.1786(2)
H31 H 0.5084 0.0762 0.1920
C39 C 0.5251(3) 0.1850(4) 0.1893(2)
H32 H 0.5208 0.2026 0.2115
C40 C 0.5524(3) 0.3028(4) 0.1612(2)
H33 H 0.5317 0.3276 0.1786
H34 H 0.5420 0.3235 0.1392
C41 C 0.6974(3) 0.3261(4) 0.1905(2)
C42 C 0.6876(3) 0.3782(4) 0.1679(2)
H35 H 0.7123 0.4141 0.1616
C43 C 0.6371(3) 0.3749(4) 0.1542(2)
H36 H 0.6238 0.4078 0.1378
C44 C 0.6095(3) 0.3184(4) 0.1675(2)
S2 S 0.64477(7) 0.27075(11) 0.19645(5)
N13 N 0.8519(3) 0.2083(4) 0.2894(2)
C45 C 0.8825(3) 0.2542(4) 0.2715(3)
H37 H 0.8708 0.2718 0.2503
C46 C 0.9312(3) 0.2757(5) 0.2841(3)
H38 H 0.9520 0.3083 0.2715
C47 C 0.9482(3) 0.2509(5) 0.3134(3)
H39 H 0.9813 0.2658 0.3216
C48 C 0.9175(3) 0.2022(5) 0.3328(3)
H40 H 0.9290 0.1840 0.3540
C49 C 0.8700(3) 0.1834(5) 0.3189(2)
N14 N 0.7607(2) 0.0840(4) 0.34628(19)
N15 N 0.7855(2) 0.1295(4) 0.32499(19)
C50 C 0.8344(3) 0.1352(5) 0.3365(2)
C51 C 0.8412(3) 0.0961(4) 0.3669(2)
H41 H 0.8716 0.0929 0.3805
C52 C 0.7927(3) 0.0629(4) 0.3723(2)
H42 H 0.7838 0.0319 0.3905
C53 C 0.7052(3) 0.0753(4) 0.3448(2)
H43 H 0.6952 0.0290 0.3559
H44 H 0.6934 0.0731 0.3211
N16 N 0.5769(3) 0.1757(4) 0.02951(18)
C54 C 0.6189(4) 0.1501(6) 0.0145(2)
H45 H 0.6473 0.1345 0.0281
C55 C 0.6233(4) 0.1452(6) -0.0195(2)
H46 H 0.6530 0.1230 -0.0291
C56 C 0.5853(3) 0.1720(5) -0.0394(2)
H47 H 0.5889 0.1723 -0.0631
C57 C 0.5416(4) 0.1986(6) -0.0250(2)
H48 H 0.5139 0.2163 -0.0387
C58 C 0.5374(3) 0.1999(6) 0.0087(2)
N17 N 0.4455(3) 0.2558(5) 0.07002(19)
N18 N 0.4915(3) 0.2252(5) 0.06046(19)
C59 C 0.4923(3) 0.2280(6) 0.0273(2)
C60 C 0.4474(3) 0.2573(6) 0.0148(2)
H49 H 0.4372 0.2609 -0.0081
C61 C 0.4182(4) 0.2820(6) 0.0438(2)
H50 H 0.3872 0.3100 0.0441
C62 C 0.4308(3) 0.2696(6) 0.1044(2)
H51 H 0.4241 0.3225 0.1074
H52 H 0.4599 0.2559 0.1196
C63 C 0.6795(3) 0.1391(5) 0.3622(2)
C64 C 0.7022(3) 0.1938(4) 0.3783(2)
H53 H 0.7387 0.1984 0.3809
C65 C 0.6661(3) 0.2450(5) 0.3914(2)
H54 H 0.6764 0.2882 0.4029
C66 C 0.3831(3) 0.2270(5) 0.1139(2)
S3 S 0.61297(8) 0.14517(12) 0.36420(6)
Co1A Co 0.22344(4) 0.17060(5) 0.22556(3)
Co2A Co 0.43614(4) 0.18793(6) 0.41771(3)
N1A N 0.2617(2) 0.2648(3) 0.20477(17)
C1A C 0.2394(3) 0.3199(4) 0.1886(2)
H1A H 0.2026 0.3227 0.1882
C2A C 0.2668(3) 0.3729(4) 0.1724(2)
H2A H 0.2491 0.4114 0.1611
C3A C 0.3200(3) 0.3702(4) 0.1725(2)
H3A H 0.3398 0.4064 0.1612
C4A C 0.3443(3) 0.3128(4) 0.1895(2)
H4A H 0.3811 0.3098 0.1904
C5A C 0.3150(3) 0.2615(4) 0.2047(2)
N2A N 0.3341(2) 0.0931(3) 0.24669(17)
N3A N 0.3034(2) 0.1465(3) 0.23314(16)
C6A C 0.3374(3) 0.1976(4) 0.2215(2)
C7A C 0.3868(3) 0.1758(4) 0.2271(2)
H5A H 0.4174 0.2021 0.2217
C8A C 0.3845(3) 0.1091(4) 0.2422(2)
H6A H 0.4133 0.0793 0.2484
C9A C 0.3108(3) 0.0270(4) 0.2614(2)
H7A H 0.3206 -0.0161 0.2479
H8A H 0.2725 0.0315 0.2606
N4A N 0.4041(3) 0.2948(4) 0.42138(18)
C10A C 0.4296(3) 0.3577(5) 0.4293(2)
H9A H 0.4664 0.3560 0.4303
C11A C 0.4061(3) 0.4230(5) 0.4359(2)
H10A H 0.4255 0.4654 0.4419
C12A C 0.3512(3) 0.4239(5) 0.4334(2)
H11A H 0.3332 0.4687 0.4365
C13A C 0.3243(3) 0.3630(5) 0.4267(2)
H12A H 0.2874 0.3638 0.4264
C14A C 0.3513(3) 0.2974(5) 0.4201(2)
N5A N 0.3193(3) 0.1132(4) 0.40276(18)
N6A N 0.3542(3) 0.1692(4) 0.40726(18)
C15A C 0.3261(3) 0.2292(5) 0.4122(2)
C16A C 0.2718(3) 0.2115(5) 0.4094(2)
H13A H 0.2432 0.2440 0.4116
C17A C 0.2701(3) 0.1405(5) 0.4031(2)
H14A H 0.2394 0.1128 0.3994
C18A C 0.3343(3) 0.0398(5) 0.3960(2)
H15A H 0.3080 0.0061 0.4053
H16A H 0.3678 0.0296 0.4075
C19A C 0.3281(3) 0.0161(4) 0.2966(2)
C20A C 0.3636(3) -0.0333(4) 0.3094(2)
H17A H 0.3818 -0.0671 0.2958
C21A C 0.3703(3) -0.0295(4) 0.3437(2)
H18A H 0.3930 -0.0604 0.3561
C22A C 0.3401(3) 0.0248(5) 0.3581(2)
S1A S 0.30337(8) 0.06849(11) 0.32871(6)
N7A N 0.1837(2) 0.0750(3) 0.24515(18)
C23A C 0.1676(3) 0.0172(4) 0.2280(2)
H19A H 0.1799 0.0111 0.2058
C24A C 0.1345(3) -0.0340(4) 0.2403(2)
H20A H 0.1238 -0.0743 0.2269
C25A C 0.1168(3) -0.0262(4) 0.2730(2)
H21A H 0.0936 -0.0613 0.2820
C26A C 0.1327(3) 0.0327(4) 0.2924(2)
H22A H 0.1214 0.0392 0.3148
C27A C 0.1672(3) 0.0830(4) 0.2767(2)
N8A N 0.2239(2) 0.2505(3) 0.29990(17)
N9A N 0.2130(2) 0.1976(3) 0.27696(17)
C28A C 0.1842(3) 0.1477(4) 0.2946(2)
C29A C 0.1773(3) 0.1719(4) 0.3282(2)
H23A H 0.1590 0.1483 0.3457
C30A C 0.2033(3) 0.2372(4) 0.3293(2)
H24A H 0.2060 0.2681 0.3484
C31A C 0.2538(3) 0.3155(4) 0.2891(2)
H25A H 0.2317 0.3596 0.2912
H26A H 0.2629 0.3100 0.2652
N10A N 0.4632(3) 0.0787(4) 0.41240(18)
C32A C 0.4672(3) 0.0278(5) 0.4375(2)
H27A H 0.4575 0.0409 0.4596
C33A C 0.4850(3) -0.0415(5) 0.4314(2)
H28A H 0.4862 -0.0765 0.4490
C34A C 0.5011(3) -0.0600(5) 0.3999(2)
H29A H 0.5147 -0.1075 0.3961
C35A C 0.4979(3) -0.0108(5) 0.3737(2)
H30A H 0.5083 -0.0240 0.3517
C36A C 0.4787(3) 0.0603(5) 0.3808(2)
N11A N 0.4594(2) 0.2254(4) 0.33851(17)
N12A N 0.4585(3) 0.1827(4) 0.36631(17)
C37A C 0.4741(3) 0.1158(5) 0.3564(2)
C38A C 0.4823(3) 0.1169(5) 0.3214(2)
H31A H 0.4916 0.0762 0.3080
C39A C 0.4749(3) 0.1850(4) 0.3107(2)
H32A H 0.4792 0.2026 0.2885
C40A C 0.4476(3) 0.3028(4) 0.3388(2)
H33A H 0.4683 0.3276 0.3214
H34A H 0.4580 0.3235 0.3608
C41A C 0.3026(3) 0.3261(4) 0.3095(2)
C42A C 0.3124(3) 0.3782(4) 0.3321(2)
H35A H 0.2877 0.4141 0.3384
C43A C 0.3629(3) 0.3749(4) 0.3458(2)
H36A H 0.3762 0.4078 0.3622
C44A C 0.3905(3) 0.3184(4) 0.3325(2)
S2A S 0.35523(7) 0.27075(11) 0.30355(5)
N13A N 0.1481(3) 0.2083(4) 0.2106(2)
C45A C 0.1175(3) 0.2542(4) 0.2285(3)
H37A H 0.1292 0.2718 0.2497
C46A C 0.0688(3) 0.2757(5) 0.2159(3)
H38A H 0.0480 0.3083 0.2285
C47A C 0.0518(3) 0.2509(5) 0.1866(3)
H39A H 0.0187 0.2658 0.1784
C48A C 0.0825(3) 0.2022(5) 0.1672(3)
H40A H 0.0710 0.1840 0.1460
C49A C 0.1300(3) 0.1834(5) 0.1811(2)
N14A N 0.2393(2) 0.0840(4) 0.15372(19)
N15A N 0.2145(2) 0.1295(4) 0.17501(19)
C50A C 0.1656(3) 0.1352(5) 0.1635(2)
C51A C 0.1588(3) 0.0961(4) 0.1331(2)
H41A H 0.1284 0.0929 0.1195
C52A C 0.2073(3) 0.0629(4) 0.1277(2)
H42A H 0.2162 0.0319 0.1095
C53A C 0.2948(3) 0.0753(4) 0.1552(2)
H43A H 0.3048 0.0290 0.1441
H44A H 0.3066 0.0731 0.1789
N16A N 0.4231(3) 0.1757(4) 0.47049(18)
C54A C 0.3811(4) 0.1501(6) 0.4855(2)
H45A H 0.3527 0.1345 0.4719
C55A C 0.3767(4) 0.1452(6) 0.5195(2)
H46A H 0.3470 0.1230 0.5291
C56A C 0.4147(3) 0.1720(5) 0.5394(2)
H47A H 0.4111 0.1723 0.5631
C57A C 0.4584(4) 0.1986(6) 0.5250(2)
H48A H 0.4861 0.2163 0.5387
C58A C 0.4626(3) 0.1999(6) 0.4913(2)
N17A N 0.5545(3) 0.2558(5) 0.42998(19)
N18A N 0.5085(3) 0.2252(5) 0.43954(19)
C59A C 0.5077(3) 0.2280(6) 0.4727(2)
C60A C 0.5526(3) 0.2573(6) 0.4852(2)
H49A H 0.5628 0.2609 0.5081
C61A C 0.5818(4) 0.2820(6) 0.4562(2)
H50A H 0.6128 0.3100 0.4559
C62A C 0.5692(3) 0.2696(6) 0.3956(2)
H51A H 0.5759 0.3225 0.3926
H52A H 0.5401 0.2559 0.3804
C63A C 0.3205(3) 0.1391(5) 0.1378(2)
C64A C 0.2978(3) 0.1938(4) 0.1217(2)
H53A H 0.2613 0.1984 0.1191
C65A C 0.3339(3) 0.2450(5) 0.1086(2)
H54A H 0.3236 0.2882 0.0971
C66A C 0.6169(3) 0.2270(5) 0.3861(2)
S3A S 0.38703(8) 0.14517(12) 0.13580(6)
B1 B 0.5000 0.3528(12) 0.2500
F1 F 0.5377(3) 0.3146(4) 0.2666(2)
F2 F 0.4763(3) 0.3974(4) 0.2721(2)
F1A F 0.4623(3) 0.3146(4) 0.2334(2)
F2A F 0.5237(3) 0.3974(4) 0.2279(2)
B2 B 0.3186(4) 0.9031(6) 0.1047(3)
F3 F 0.3162(2) 0.8341(3) 0.09169(15)
F4 F 0.3038(2) 0.9003(3) 0.13799(13)
F5 F 0.3686(2) 0.9297(3) 0.10258(14)
F6 F 0.2855(2) 0.9494(3) 0.08802(14)
B3 B 0.5000 0.9510(3) 0.2500
F8 F 0.44693(9) 0.9395(3) 0.2486(2)
F9 F 0.5110(4) 0.9393(3) 0.21654(8)
F8A F 0.55307(9) 0.9395(3) 0.2514(2)
F9A F 0.4890(4) 0.9393(3) 0.28346(8)
B4 B 0.3120(7) 0.4663(10) 0.0909(5)
F11 F 0.3126(6) 0.5145(7) 0.0641(3)
F12 F 0.2674(5) 0.4249(7) 0.0894(3)
F13 F 0.3533(6) 0.4204(8) 0.0882(5)
F14 F 0.3136(6) 0.5056(7) 0.1196(3)
C67 C 0.4151(3) 0.8590(5) 0.1732(2)
H55 H 0.4105 0.8652 0.1490
H56 H 0.4021 0.8109 0.1799
H57 H 0.4521 0.8626 0.1790
N19 N 0.3872(2) 0.9145(4) 0.19031(16)
O1 O 0.3929(2) 0.9776(4) 0.18305(16)
O2 O 0.3576(3) 0.8919(4) 0.21261(19)
C68 C 0.0840(7) 0.1724(10) 0.4029(5)
H58 H 0.1180 0.1958 0.4050
H59 H 0.0884 0.1217 0.3955
H60 H 0.0666 0.1732 0.4246
N20 N 0.0533(4) 0.2110(8) 0.3788(4)
O3 O 0.0319(4) 0.2619(5) 0.3865(2)
O4 O 0.0542(4) 0.1835(6) 0.3502(3)
C69 C 0.3817(7) 0.0652(9) 0.0511(4)
H61 H 0.4116 0.0617 0.0664
H62 H 0.3558 0.0283 0.0571
H63 H 0.3663 0.1140 0.0527
N21 N 0.3987(6) 0.0524(5) 0.0163(4)
O5 O 0.3646(7) 0.0366(9) -0.0054(4)
O6 O 0.4400(5) 0.0559(7) 0.0091(3)
F7? F 0.5000 1.0264(3) 0.2500
F10? F 0.5324(3) 0.9382(3) 0.27690(15)
B5? B 0.3374(8) 0.4944(11) 0.1018(5)
F15? F 0.3599(7) 0.4299(9) 0.0927(5)
F16? F 0.2884(5) 0.4817(9) 0.1114(4)
F17? F 0.3653(6) 0.5234(8) 0.1283(4)
F18? F 0.3383(6) 0.5427(9) 0.0762(4)
loop_
_geom_bond_atom_site_label_1
_geom_bond_atom_site_label_2
_geom_bond_site_symmetry_1
_geom_bond_site_symmetry_2
Co1 N1 1_555 1_555
Co2 N4 1_555 1_555
N1 C1 1_555 1_555
C1 H1 1_555 1_555
C2 C1 1_555 1_555
H2 C2 1_555 1_555
C3 C2 1_555 1_555
H3 C3 1_555 1_555
C4 C3 1_555 1_555
H4 C4 1_555 1_555
C5 N1 1_555 1_555
N2 N3 1_555 1_555
N3 Co1 1_555 1_555
C6 C5 1_555 1_555
C7 C6 1_555 1_555
H5 C7 1_555 1_555
C8 N2 1_555 1_555
H6 C8 1_555 1_555
C9 N2 1_555 1_555
H7 C9 1_555 1_555
H8 C9 1_555 1_555
N4 C10 1_555 1_555
C10 H9 1_555 1_555
C11 C10 1_555 1_555
H10 C11 1_555 1_555
C12 C11 1_555 1_555
H11 C12 1_555 1_555
C13 C12 1_555 1_555
H12 C13 1_555 1_555
C14 N4 1_555 1_555
N5 N6 1_555 1_555
N6 Co2 1_555 1_555
C15 C14 1_555 1_555
C16 C15 1_555 1_555
H13 C16 1_555 1_555
C17 N5 1_555 1_555
H14 C17 1_555 1_555
C18 N5 1_555 1_555
H15 C18 1_555 1_555
H16 C18 1_555 1_555
C19 C9 1_555 1_555
C20 C19 1_555 1_555
H17 C20 1_555 1_555
C21 C20 1_555 1_555
H18 C21 1_555 1_555
C22 C18 1_555 1_555
S1 C19 1_555 1_555
N7 Co1 1_555 1_555
C23 N7 1_555 1_555
H19 C23 1_555 1_555
C24 C23 1_555 1_555
H20 C24 1_555 1_555
C25 C24 1_555 1_555
H21 C25 1_555 1_555
C26 C25 1_555 1_555
H22 C26 1_555 1_555
C27 N7 1_555 1_555
N8 N9 1_555 1_555
N9 Co1 1_555 1_555
C28 C27 1_555 1_555
C29 C28 1_555 1_555
H23 C29 1_555 1_555
C30 N8 1_555 1_555
H24 C30 1_555 1_555
C31 N8 1_555 1_555
H25 C31 1_555 1_555
H26 C31 1_555 1_555
N10 Co2 1_555 1_555
C32 N10 1_555 1_555
H27 C32 1_555 1_555
C33 C32 1_555 1_555
H28 C33 1_555 1_555
C34 C33 1_555 1_555
H29 C34 1_555 1_555
C35 C34 1_555 1_555
H30 C35 1_555 1_555
C36 N10 1_555 1_555
N11 N12 1_555 1_555
N12 Co2 1_555 1_555
C37 C36 1_555 1_555
C38 C37 1_555 1_555
H31 C38 1_555 1_555
C39 N11 1_555 1_555
H32 C39 1_555 1_555
C40 N11 1_555 1_555
H33 C40 1_555 1_555
H34 C40 1_555 1_555
C41 C31 1_555 1_555
C42 C41 1_555 1_555
H35 C42 1_555 1_555
C43 C42 1_555 1_555
H36 C43 1_555 1_555
C44 C40 1_555 1_555
S2 C41 1_555 1_555
N13 Co1 1_555 1_555
C45 N13 1_555 1_555
H37 C45 1_555 1_555
C46 C45 1_555 1_555
H38 C46 1_555 1_555
C47 C46 1_555 1_555
H39 C47 1_555 1_555
C48 C47 1_555 1_555
H40 C48 1_555 1_555
C49 N13 1_555 1_555
N14 N15 1_555 1_555
N15 Co1 1_555 1_555
C50 C49 1_555 1_555
C51 C50 1_555 1_555
H41 C51 1_555 1_555
C52 N14 1_555 1_555
H42 C52 1_555 1_555
C53 N14 1_555 1_555
H43 C53 1_555 1_555
H44 C53 1_555 1_555
N16 Co2 1_555 1_555
C54 N16 1_555 1_555
H45 C54 1_555 1_555
C55 C54 1_555 1_555
H46 C55 1_555 1_555
C56 C55 1_555 1_555
H47 C56 1_555 1_555
C57 C56 1_555 1_555
H48 C57 1_555 1_555
C58 N16 1_555 1_555
N17 N18 1_555 1_555
N18 Co2 1_555 1_555
C59 C58 1_555 1_555
C60 C59 1_555 1_555
H49 C60 1_555 1_555
C61 N17 1_555 1_555
H50 C61 1_555 1_555
C62 N17 1_555 1_555
H51 C62 1_555 1_555
H52 C62 1_555 1_555
C63 C53 1_555 1_555
C64 C63 1_555 1_555
H53 C64 1_555 1_555
C65 C64 1_555 1_555
H54 C65 1_555 1_555
C66 C62 1_555 1_555
S3 C63 1_555 1_555
B1 F1 1_555 1_555
F2 B1 1_555 1_555
B2 F3 1_555 1_555
F4 B2 1_555 1_555
F5 B2 1_555 1_555
F6 B2 1_555 1_555
B3 F8 1_555 1_555
F9 B3 1_555 1_555
B4 F11 1_555 1_555
F12 B4 1_555 1_555
F13 B4 1_555 1_555
F14 B4 1_555 1_555
C67 H55 1_555 1_555
H56 C67 1_555 1_555
H57 C67 1_555 1_555
N19 C67 1_555 1_555
O1 N19 1_555 1_555
O2 N19 1_555 1_555
C68 H58 1_555 1_555
H59 C68 1_555 1_555
H60 C68 1_555 1_555
N20 C68 1_555 1_555
O3 N20 1_555 1_555
O4 N20 1_555 1_555
C69 H61 1_555 1_555
H62 C69 1_555 1_555
H63 C69 1_555 1_555
N21 C69 1_555 1_555
O5 N21 1_555 1_555
O6 N21 1_555 1_555
Co1A N1A 1_555 1_555
Co2A N4A 1_555 1_555
N1A C1A 1_555 1_555
C1A H1A 1_555 1_555
C2A C1A 1_555 1_555
H2A C2A 1_555 1_555
C3A C2A 1_555 1_555
H3A C3A 1_555 1_555
C4A C3A 1_555 1_555
H4A C4A 1_555 1_555
C5A N1A 1_555 1_555
N2A N3A 1_555 1_555
N3A Co1A 1_555 1_555
C6A C5A 1_555 1_555
C7A C6A 1_555 1_555
H5A C7A 1_555 1_555
C8A N2A 1_555 1_555
H6A C8A 1_555 1_555
C9A N2A 1_555 1_555
H7A C9A 1_555 1_555
H8A C9A 1_555 1_555
N4A C10A 1_555 1_555
C10A H9A 1_555 1_555
C11A C10A 1_555 1_555
H10A C11A 1_555 1_555
C12A C11A 1_555 1_555
H11A C12A 1_555 1_555
C13A C12A 1_555 1_555
H12A C13A 1_555 1_555
C14A N4A 1_555 1_555
N5A N6A 1_555 1_555
N6A Co2A 1_555 1_555
C15A C14A 1_555 1_555
C16A C15A 1_555 1_555
H13A C16A 1_555 1_555
C17A N5A 1_555 1_555
H14A C17A 1_555 1_555
C18A N5A 1_555 1_555
H15A C18A 1_555 1_555
H16A C18A 1_555 1_555
C19A C9A 1_555 1_555
C20A C19A 1_555 1_555
H17A C20A 1_555 1_555
C21A C20A 1_555 1_555
H18A C21A 1_555 1_555
C22A C18A 1_555 1_555
S1A C19A 1_555 1_555
N7A Co1A 1_555 1_555
C23A N7A 1_555 1_555
H19A C23A 1_555 1_555
C24A C23A 1_555 1_555
H20A C24A 1_555 1_555
C25A C24A 1_555 1_555
H21A C25A 1_555 1_555
C26A C25A 1_555 1_555
H22A C26A 1_555 1_555
C27A N7A 1_555 1_555
N8A N9A 1_555 1_555
N9A Co1A 1_555 1_555
C28A C27A 1_555 1_555
C29A C28A 1_555 1_555
H23A C29A 1_555 1_555
C30A N8A 1_555 1_555
H24A C30A 1_555 1_555
C31A N8A 1_555 1_555
H25A C31A 1_555 1_555
H26A C31A 1_555 1_555
N10A Co2A 1_555 1_555
C32A N10A 1_555 1_555
H27A C32A 1_555 1_555
C33A C32A 1_555 1_555
H28A C33A 1_555 1_555
C34A C33A 1_555 1_555
H29A C34A 1_555 1_555
C35A C34A 1_555 1_555
H30A C35A 1_555 1_555
C36A N10A 1_555 1_555
N11A N12A 1_555 1_555
N12A Co2A 1_555 1_555
C37A C36A 1_555 1_555
C38A C37A 1_555 1_555
H31A C38A 1_555 1_555
C39A N11A 1_555 1_555
H32A C39A 1_555 1_555
C40A N11A 1_555 1_555
H33A C40A 1_555 1_555
H34A C40A 1_555 1_555
C41A C31A 1_555 1_555
C42A C41A 1_555 1_555
H35A C42A 1_555 1_555
C43A C42A 1_555 1_555
H36A C43A 1_555 1_555
C44A C40A 1_555 1_555
S2A C41A 1_555 1_555
N13A Co1A 1_555 1_555
C45A N13A 1_555 1_555
H37A C45A 1_555 1_555
C46A C45A 1_555 1_555
H38A C46A 1_555 1_555
C47A C46A 1_555 1_555
H39A C47A 1_555 1_555
C48A C47A 1_555 1_555
H40A C48A 1_555 1_555
C49A N13A 1_555 1_555
N14A N15A 1_555 1_555
N15A Co1A 1_555 1_555
C50A C49A 1_555 1_555
C51A C50A 1_555 1_555
H41A C51A 1_555 1_555
C52A N14A 1_555 1_555
H42A C52A 1_555 1_555
C53A N14A 1_555 1_555
H43A C53A 1_555 1_555
H44A C53A 1_555 1_555
N16A Co2A 1_555 1_555
C54A N16A 1_555 1_555
H45A C54A 1_555 1_555
C55A C54A 1_555 1_555
H46A C55A 1_555 1_555
C56A C55A 1_555 1_555
H47A C56A 1_555 1_555
C57A C56A 1_555 1_555
H48A C57A 1_555 1_555
C58A N16A 1_555 1_555
N17A N18A 1_555 1_555
N18A Co2A 1_555 1_555
C59A C58A 1_555 1_555
C60A C59A 1_555 1_555
H49A C60A 1_555 1_555
C61A N17A 1_555 1_555
H50A C61A 1_555 1_555
C62A N17A 1_555 1_555
H51A C62A 1_555 1_555
H52A C62A 1_555 1_555
C63A C53A 1_555 1_555
C64A C63A 1_555 1_555
H53A C64A 1_555 1_555
C65A C66 1_555 1_555
H54A C65A 1_555 1_555
C66A C65 1_555 1_555
S3A C66 1_555 1_555
F1A B1 1_555 1_555
F2A B1 1_555 1_555
F8A B3 1_555 1_555
F9A B3 1_555 1_555
C4 C5 1_555 1_555
N3 C6 1_555 1_555
C7 C8 1_555 1_555
C13 C14 1_555 1_555
N6 C15 1_555 1_555
C16 C17 1_555 1_555
C21 C22 1_555 1_555
C22 S1 1_555 1_555
C26 C27 1_555 1_555
N9 C28 1_555 1_555
C29 C30 1_555 1_555
C35 C36 1_555 1_555
N12 C37 1_555 1_555
C38 C39 1_555 1_555
C43 C44 1_555 1_555
C44 S2 1_555 1_555
C48 C49 1_555 1_555
N15 C50 1_555 1_555
C51 C52 1_555 1_555
C57 C58 1_555 1_555
N18 C59 1_555 1_555
C60 C61 1_555 1_555
S3 C66A 1_555 1_555
C4A C5A 1_555 1_555
N3A C6A 1_555 1_555
C7A C8A 1_555 1_555
C13A C14A 1_555 1_555
N6A C15A 1_555 1_555
C16A C17A 1_555 1_555
C21A C22A 1_555 1_555
C22A S1A 1_555 1_555
C26A C27A 1_555 1_555
N9A C28A 1_555 1_555
C29A C30A 1_555 1_555
C35A C36A 1_555 1_555
N12A C37A 1_555 1_555
C38A C39A 1_555 1_555
C43A C44A 1_555 1_555
C44A S2A 1_555 1_555
C48A C49A 1_555 1_555
N15A C50A 1_555 1_555
C51A C52A 1_555 1_555
C57A C58A 1_555 1_555
N18A C59A 1_555 1_555
C60A C61A 1_555 1_555
C62A C66A 1_555 1_555
C63A S3A 1_555 1_555
C64A C65A 1_555 1_555

#END
