# generated using pymatgen
data_Ni4H96C82N21O32
_symmetry_space_group_name_H-M   'P 1'
_cell_length_a   16.08560000
_cell_length_b   21.61700000
_cell_length_c   28.30600000
_cell_angle_alpha   90.00000000
_cell_angle_beta   90.00000000
_cell_angle_gamma   102.18900000
_symmetry_Int_Tables_number   1
_chemical_formula_structural   Ni4H96C82N21O32
_chemical_formula_sum   'Ni16 H384 C328 N84 O128'
_cell_volume   9620.74282525
_cell_formula_units_Z   4
loop_
 _symmetry_equiv_pos_site_id
 _symmetry_equiv_pos_as_xyz
  1  'x, y, z'
loop_
 _atom_site_type_symbol
 _atom_site_label
 _atom_site_symmetry_multiplicity
 _atom_site_fract_x
 _atom_site_fract_y
 _atom_site_fract_z
 _atom_site_occupancy
  Ni  Ni1  1  0.569720  0.665460  0.857530  1.0
  Ni  Ni2  1  0.430280  0.834540  0.357530  1.0
  Ni  Ni3  1  0.430280  0.334540  0.142470  1.0
  Ni  Ni4  1  0.569720  0.165460  0.642470  1.0
  Ni  Ni5  1  0.591400  0.742190  0.073320  1.0
  Ni  Ni6  1  0.408600  0.757810  0.573320  1.0
  Ni  Ni7  1  0.408600  0.257810  0.926680  1.0
  Ni  Ni8  1  0.591400  0.242190  0.426680  1.0
  Ni  Ni9  1  0.763430  0.445320  0.896520  1.0
  Ni  Ni10  1  0.236570  0.054680  0.396520  1.0
  Ni  Ni11  1  0.236570  0.554680  0.103480  1.0
  Ni  Ni12  1  0.763430  0.945320  0.603480  1.0
  Ni  Ni13  1  0.783590  0.521810  0.112840  1.0
  Ni  Ni14  1  0.216410  0.978190  0.612840  1.0
  Ni  Ni15  1  0.216410  0.478190  0.887160  1.0
  Ni  Ni16  1  0.783590  0.021810  0.387160  1.0
  H  H17  1  0.319700  0.255300  0.221400  1
  H  H18  1  0.680300  0.244700  0.721400  1
  H  H19  1  0.680300  0.744700  0.778600  1
  H  H20  1  0.319700  0.755300  0.278600  1
  H  H21  1  0.239700  0.242100  0.249500  1
  H  H22  1  0.760300  0.257900  0.749500  1
  H  H23  1  0.760300  0.757900  0.750500  1
  H  H24  1  0.239700  0.742100  0.250500  1
  H  H25  1  0.653500  0.912400  0.153100  1
  H  H26  1  0.346500  0.587600  0.653100  1
  H  H27  1  0.346500  0.087600  0.846900  1
  H  H28  1  0.653500  0.412400  0.346900  1
  H  H29  1  0.624400  0.844900  0.167100  1
  H  H30  1  0.375600  0.655100  0.667100  1
  H  H31  1  0.375600  0.155100  0.832900  1
  H  H32  1  0.624400  0.344900  0.332900  1
  H  H33  1  0.350200  0.289000  0.297200  1
  H  H34  1  0.649800  0.211000  0.797200  1
  H  H35  1  0.649800  0.711000  0.702800  1
  H  H36  1  0.350200  0.789000  0.202800  1
  H  H37  1  0.309100  0.219300  0.315600  1
  H  H38  1  0.690900  0.280700  0.815600  1
  H  H39  1  0.690900  0.780700  0.684400  1
  H  H40  1  0.309100  0.719300  0.184400  1
  H  H41  1  0.455900  0.233300  0.315700  1
  H  H42  1  0.544100  0.266700  0.815700  1
  H  H43  1  0.544100  0.766700  0.684300  1
  H  H44  1  0.455900  0.733300  0.184300  1
  H  H45  1  0.459800  0.252400  0.260900  1
  H  H46  1  0.540200  0.247600  0.760900  1
  H  H47  1  0.540200  0.747600  0.739100  1
  H  H48  1  0.459800  0.752400  0.239100  1
  H  H49  1  0.534200  0.162600  0.241800  1
  H  H50  1  0.465800  0.337400  0.741800  1
  H  H51  1  0.465800  0.837400  0.758200  1
  H  H52  1  0.534200  0.662600  0.258200  1
  H  H53  1  0.533000  0.148500  0.297300  1
  H  H54  1  0.467000  0.351500  0.797300  1
  H  H55  1  0.467000  0.851500  0.702700  1
  H  H56  1  0.533000  0.648500  0.202700  1
  H  H57  1  0.465000  0.041400  0.283000  1
  H  H58  1  0.535000  0.458600  0.783000  1
  H  H59  1  0.535000  0.958600  0.717000  1
  H  H60  1  0.465000  0.541400  0.217000  1
  H  H61  1  0.613900  0.059600  0.283100  1
  H  H62  1  0.386100  0.440400  0.783100  1
  H  H63  1  0.386100  0.940400  0.716900  1
  H  H64  1  0.613900  0.559600  0.216900  1
  H  H65  1  0.616500  0.078300  0.228400  1
  H  H66  1  0.383500  0.421700  0.728400  1
  H  H67  1  0.383500  0.921700  0.771600  1
  H  H68  1  0.616500  0.578300  0.271600  1
  H  H69  1  0.551100  0.954000  0.264700  1
  H  H70  1  0.448900  0.546000  0.764700  1
  H  H71  1  0.448900  0.046000  0.735300  1
  H  H72  1  0.551100  0.454000  0.235300  1
  H  H73  1  0.700000  0.979500  0.267000  1
  H  H74  1  0.300000  0.520500  0.767000  1
  H  H75  1  0.300000  0.020500  0.733000  1
  H  H76  1  0.700000  0.479500  0.233000  1
  H  H77  1  0.703500  0.997200  0.212000  1
  H  H78  1  0.296500  0.502800  0.712000  1
  H  H79  1  0.296500  0.002800  0.788000  1
  H  H80  1  0.703500  0.497200  0.288000  1
  H  H81  1  0.729000  0.893700  0.221600  1
  H  H82  1  0.271000  0.606300  0.721600  1
  H  H83  1  0.271000  0.106300  0.778400  1
  H  H84  1  0.729000  0.393700  0.278400  1
  H  H85  1  0.639700  0.871800  0.248500  1
  H  H86  1  0.360300  0.628200  0.748500  1
  H  H87  1  0.360300  0.128200  0.751500  1
  H  H88  1  0.639700  0.371800  0.251500  1
  H  H89  1  0.506200  0.865400  0.203100  1
  H  H90  1  0.493800  0.634600  0.703100  1
  H  H91  1  0.493800  0.134600  0.796900  1
  H  H92  1  0.506200  0.365400  0.296900  1
  H  H93  1  0.508700  0.884700  0.148400  1
  H  H94  1  0.491300  0.615300  0.648400  1
  H  H95  1  0.491300  0.115300  0.851600  1
  H  H96  1  0.508700  0.384700  0.351600  1
  H  H97  1  0.561700  0.992600  0.167800  1
  H  H98  1  0.438300  0.507400  0.667800  1
  H  H99  1  0.438300  0.007400  0.832200  1
  H  H100  1  0.561700  0.492600  0.332200  1
  H  H101  1  0.475300  0.967500  0.196500  1
  H  H102  1  0.524700  0.532500  0.696500  1
  H  H103  1  0.524700  0.032500  0.803500  1
  H  H104  1  0.475300  0.467500  0.303500  1
  H  H105  1  0.354600  0.097100  0.218200  1
  H  H106  1  0.645400  0.402900  0.718200  1
  H  H107  1  0.645400  0.902900  0.781800  1
  H  H108  1  0.354600  0.597100  0.281800  1
  H  H109  1  0.397100  0.166900  0.200400  1
  H  H110  1  0.602900  0.333100  0.700400  1
  H  H111  1  0.602900  0.833100  0.799600  1
  H  H112  1  0.397100  0.666900  0.299600  1
  H  H113  1  0.245200  0.156000  0.201100  1
  H  H114  1  0.754800  0.344000  0.701100  1
  H  H115  1  0.754800  0.844000  0.798900  1
  H  H116  1  0.245200  0.656000  0.298900  1
  H  H117  1  0.241400  0.136100  0.255700  1
  H  H118  1  0.758600  0.363900  0.755700  1
  H  H119  1  0.758600  0.863900  0.744300  1
  H  H120  1  0.241400  0.636100  0.244300  1
  H  H121  1  0.030500  0.991900  0.351800  1
  H  H122  1  0.969500  0.508100  0.851800  1
  H  H123  1  0.969500  0.008100  0.648200  1
  H  H124  1  0.030500  0.491900  0.148200  1
  H  H125  1  0.941600  0.967100  0.335800  1
  H  H126  1  0.058400  0.532900  0.835800  1
  H  H127  1  0.058400  0.032900  0.664200  1
  H  H128  1  0.941600  0.467100  0.164200  1
  H  H129  1  0.016900  0.886000  0.329400  1
  H  H130  1  0.983100  0.614000  0.829400  1
  H  H131  1  0.983100  0.114000  0.670600  1
  H  H132  1  0.016900  0.386000  0.170600  1
  H  H133  1  0.083700  0.930700  0.295300  1
  H  H134  1  0.916300  0.569300  0.795300  1
  H  H135  1  0.916300  0.069300  0.704700  1
  H  H136  1  0.083700  0.430700  0.204700  1
  H  H137  1  0.980200  0.860900  0.247500  1
  H  H138  1  0.019800  0.639100  0.747500  1
  H  H139  1  0.019800  0.139100  0.752500  1
  H  H140  1  0.980200  0.360900  0.252500  1
  H  H141  1  0.904600  0.885200  0.273300  1
  H  H142  1  0.095400  0.614800  0.773300  1
  H  H143  1  0.095400  0.114800  0.726700  1
  H  H144  1  0.904600  0.385200  0.226700  1
  H  H145  1  0.029300  0.961800  0.212200  1
  H  H146  1  0.970700  0.538200  0.712200  1
  H  H147  1  0.970700  0.038200  0.787800  1
  H  H148  1  0.029300  0.461800  0.287800  1
  H  H149  1  0.959700  0.045300  0.223900  1
  H  H150  1  0.040300  0.454700  0.723900  1
  H  H151  1  0.040300  0.954700  0.776100  1
  H  H152  1  0.959700  0.545300  0.276100  1
  H  H153  1  0.890100  0.002300  0.257000  1
  H  H154  1  0.109900  0.497700  0.757000  1
  H  H155  1  0.109900  0.997700  0.743000  1
  H  H156  1  0.890100  0.502300  0.243000  1
  H  H157  1  0.988500  0.068700  0.305200  1
  H  H158  1  0.011500  0.431300  0.805200  1
  H  H159  1  0.011500  0.931300  0.694800  1
  H  H160  1  0.988500  0.568700  0.194800  1
  H  H161  1  0.066100  0.045300  0.280400  1
  H  H162  1  0.933900  0.454700  0.780400  1
  H  H163  1  0.933900  0.954700  0.719600  1
  H  H164  1  0.066100  0.545300  0.219600  1
  H  H165  1  0.939600  0.941200  0.153100  1
  H  H166  1  0.060400  0.558800  0.653100  1
  H  H167  1  0.060400  0.058800  0.846900  1
  H  H168  1  0.939600  0.441200  0.346900  1
  H  H169  1  0.859500  0.947900  0.185200  1
  H  H170  1  0.140500  0.552100  0.685200  1
  H  H171  1  0.140500  0.052100  0.814800  1
  H  H172  1  0.859500  0.447900  0.314800  1
  H  H173  1  0.068600  0.669000  0.096100  1
  H  H174  1  0.931400  0.831000  0.596100  1
  H  H175  1  0.931400  0.331000  0.903900  1
  H  H176  1  0.068600  0.169000  0.403900  1
  H  H177  1  0.975000  0.658600  0.103200  1
  H  H178  1  0.025000  0.841400  0.603200  1
  H  H179  1  0.025000  0.341400  0.896800  1
  H  H180  1  0.975000  0.158600  0.396800  1
  H  H181  1  0.009400  0.713600  0.032400  1
  H  H182  1  0.990600  0.786400  0.532400  1
  H  H183  1  0.990600  0.286400  0.967600  1
  H  H184  1  0.009400  0.213600  0.467600  1
  H  H185  1  0.072400  0.768300  0.061200  1
  H  H186  1  0.927600  0.731700  0.561200  1
  H  H187  1  0.927600  0.231700  0.938800  1
  H  H188  1  0.072400  0.268300  0.438800  1
  H  H189  1  0.937600  0.798700  0.050800  1
  H  H190  1  0.062400  0.701300  0.550800  1
  H  H191  1  0.062400  0.201300  0.949200  1
  H  H192  1  0.937600  0.298700  0.449200  1
  H  H193  1  0.889300  0.734300  0.075200  1
  H  H194  1  0.110700  0.765700  0.575200  1
  H  H195  1  0.110700  0.265700  0.924800  1
  H  H196  1  0.889300  0.234300  0.424800  1
  H  H197  1  0.005200  0.835000  0.123300  1
  H  H198  1  0.994800  0.665000  0.623300  1
  H  H199  1  0.994800  0.165000  0.876700  1
  H  H200  1  0.005200  0.335000  0.376700  1
  H  H201  1  0.978700  0.775600  0.192900  1
  H  H202  1  0.021300  0.724400  0.692900  1
  H  H203  1  0.021300  0.224400  0.807100  1
  H  H204  1  0.978700  0.275600  0.307100  1
  H  H205  1  0.913500  0.720600  0.166200  1
  H  H206  1  0.086500  0.779400  0.666200  1
  H  H207  1  0.086500  0.279400  0.833800  1
  H  H208  1  0.913500  0.220600  0.333800  1
  H  H209  1  0.042600  0.688500  0.175200  1
  H  H210  1  0.957400  0.811500  0.675200  1
  H  H211  1  0.957400  0.311500  0.824800  1
  H  H212  1  0.042600  0.188500  0.324800  1
  H  H213  1  0.093500  0.752200  0.150700  1
  H  H214  1  0.906500  0.747800  0.650700  1
  H  H215  1  0.906500  0.247800  0.849300  1
  H  H216  1  0.093500  0.252200  0.349300  1
  H  H217  1  0.824200  0.796800  0.131900  1
  H  H218  1  0.175800  0.703200  0.631900  1
  H  H219  1  0.175800  0.203200  0.868100  1
  H  H220  1  0.824200  0.296800  0.368100  1
  H  H221  1  0.875600  0.864000  0.113100  1
  H  H222  1  0.124400  0.636000  0.613100  1
  H  H223  1  0.124400  0.136000  0.886900  1
  H  H224  1  0.875600  0.364000  0.386900  1
  H  H225  1  0.926500  0.838500  0.205300  1
  H  H226  1  0.073500  0.661500  0.705300  1
  H  H227  1  0.073500  0.161500  0.794700  1
  H  H228  1  0.926500  0.338500  0.294700  1
  H  H229  1  0.828000  0.842900  0.203300  1
  H  H230  1  0.172000  0.657100  0.703300  1
  H  H231  1  0.172000  0.157100  0.796700  1
  H  H232  1  0.828000  0.342900  0.296700  1
  H  H233  1  0.990500  0.569200  0.987900  1
  H  H234  1  0.009500  0.930800  0.487900  1
  H  H235  1  0.009500  0.430800  0.012100  1
  H  H236  1  0.990500  0.069200  0.512100  1
  H  H237  1  0.381200  0.128000  0.296800  1
  H  H238  1  0.618800  0.372000  0.796800  1
  H  H239  1  0.618800  0.872000  0.703200  1
  H  H240  1  0.381200  0.628000  0.203200  1
  H  H241  1  0.464600  0.055300  0.227500  1
  H  H242  1  0.535400  0.444700  0.727500  1
  H  H243  1  0.535400  0.944700  0.772500  1
  H  H244  1  0.464600  0.555300  0.272500  1
  H  H245  1  0.976700  0.012600  0.355400  1
  H  H246  1  0.023300  0.487400  0.855400  1
  H  H247  1  0.023300  0.987400  0.644600  1
  H  H248  1  0.976700  0.512600  0.144600  1
  H  H249  1  0.062400  0.032600  0.333800  1
  H  H250  1  0.937600  0.467400  0.833800  1
  H  H251  1  0.937600  0.967400  0.666200  1
  H  H252  1  0.062400  0.532600  0.166200  1
  H  H253  1  0.007000  0.122400  0.344600  1
  H  H254  1  0.993000  0.377600  0.844600  1
  H  H255  1  0.993000  0.877600  0.655400  1
  H  H256  1  0.007000  0.622400  0.155400  1
  H  H257  1  0.925300  0.090000  0.313900  1
  H  H258  1  0.074700  0.410000  0.813900  1
  H  H259  1  0.074700  0.910000  0.686100  1
  H  H260  1  0.925300  0.590000  0.186100  1
  H  H261  1  0.025500  0.159400  0.263700  1
  H  H262  1  0.974500  0.340600  0.763700  1
  H  H263  1  0.974500  0.840600  0.736300  1
  H  H264  1  0.025500  0.659400  0.236300  1
  H  H265  1  0.098000  0.122100  0.277300  1
  H  H266  1  0.902000  0.377900  0.777300  1
  H  H267  1  0.902000  0.877900  0.722700  1
  H  H268  1  0.098000  0.622100  0.222700  1
  H  H269  1  0.948300  0.070100  0.223800  1
  H  H270  1  0.051700  0.429900  0.723800  1
  H  H271  1  0.051700  0.929900  0.776200  1
  H  H272  1  0.948300  0.570100  0.276200  1
  H  H273  1  0.001700  0.978600  0.217000  1
  H  H274  1  0.998300  0.521400  0.717000  1
  H  H275  1  0.998300  0.021400  0.783000  1
  H  H276  1  0.001700  0.478600  0.283000  1
  H  H277  1  0.084300  0.009700  0.246900  1
  H  H278  1  0.915700  0.490300  0.746900  1
  H  H279  1  0.915700  0.990300  0.753100  1
  H  H280  1  0.084300  0.509700  0.253100  1
  H  H281  1  0.992900  0.940900  0.295700  1
  H  H282  1  0.007100  0.559100  0.795700  1
  H  H283  1  0.007100  0.059100  0.704300  1
  H  H284  1  0.992900  0.440900  0.204300  1
  H  H285  1  0.915800  0.974700  0.283500  1
  H  H286  1  0.084200  0.525300  0.783500  1
  H  H287  1  0.084200  0.025300  0.716500  1
  H  H288  1  0.915800  0.474700  0.216500  1
  H  H289  1  0.113100  0.126600  0.198800  1
  H  H290  1  0.886900  0.373400  0.698800  1
  H  H291  1  0.886900  0.873400  0.801200  1
  H  H292  1  0.113100  0.626600  0.301200  1
  H  H293  1  0.027300  0.128100  0.172100  1
  H  H294  1  0.972700  0.371900  0.672100  1
  H  H295  1  0.972700  0.871900  0.827900  1
  H  H296  1  0.027300  0.628100  0.327900  1
  H  H297  1  0.059800  0.013800  0.132700  1
  H  H298  1  0.940200  0.486200  0.632700  1
  H  H299  1  0.940200  0.986200  0.867300  1
  H  H300  1  0.059800  0.513800  0.367300  1
  H  H301  1  0.095200  0.080500  0.106400  1
  H  H302  1  0.904800  0.419500  0.606400  1
  H  H303  1  0.904800  0.919500  0.893600  1
  H  H304  1  0.095200  0.580500  0.393600  1
  H  H305  1  0.301800  0.907700  0.035000  1
  H  H306  1  0.698200  0.592300  0.535000  1
  H  H307  1  0.698200  0.092300  0.965000  1
  H  H308  1  0.301800  0.407700  0.465000  1
  H  H309  1  0.349100  0.963800  0.061300  1
  H  H310  1  0.650900  0.536200  0.561300  1
  H  H311  1  0.650900  0.036200  0.938700  1
  H  H312  1  0.349100  0.463800  0.438700  1
  H  H313  1  0.302700  0.883400  0.115500  1
  H  H314  1  0.697300  0.616600  0.615500  1
  H  H315  1  0.697300  0.116600  0.884500  1
  H  H316  1  0.302700  0.383400  0.384500  1
  H  H317  1  0.206800  0.878900  0.097500  1
  H  H318  1  0.793200  0.621100  0.597500  1
  H  H319  1  0.793200  0.121100  0.902500  1
  H  H320  1  0.206800  0.378900  0.402500  1
  H  H321  1  0.231000  0.944100  0.167600  1
  H  H322  1  0.769000  0.555900  0.667600  1
  H  H323  1  0.769000  0.055900  0.832400  1
  H  H324  1  0.231000  0.444100  0.332400  1
  H  H325  1  0.310200  0.989700  0.142700  1
  H  H326  1  0.689800  0.510300  0.642700  1
  H  H327  1  0.689800  0.010300  0.857300  1
  H  H328  1  0.310200  0.489700  0.357300  1
  H  H329  1  0.136600  0.975900  0.113900  1
  H  H330  1  0.863400  0.524100  0.613900  1
  H  H331  1  0.863400  0.024100  0.886100  1
  H  H332  1  0.136600  0.475900  0.386100  1
  H  H333  1  0.185500  0.052600  0.057000  1
  H  H334  1  0.814500  0.447400  0.557000  1
  H  H335  1  0.814500  0.947400  0.943000  1
  H  H336  1  0.185500  0.552600  0.443000  1
  H  H337  1  0.281400  0.058900  0.074500  1
  H  H338  1  0.718600  0.441100  0.574500  1
  H  H339  1  0.718600  0.941100  0.925500  1
  H  H340  1  0.281400  0.558900  0.425500  1
  H  H341  1  0.263200  0.999200  0.005900  1
  H  H342  1  0.736800  0.500800  0.505900  1
  H  H343  1  0.736800  0.000800  0.994100  1
  H  H344  1  0.263200  0.499200  0.494100  1
  H  H345  1  0.182000  0.951700  0.027600  1
  H  H346  1  0.818000  0.548300  0.527600  1
  H  H347  1  0.818000  0.048300  0.972400  1
  H  H348  1  0.182000  0.451700  0.472400  1
  H  H349  1  0.230200  0.095400  0.147000  1
  H  H350  1  0.769800  0.404600  0.647000  1
  H  H351  1  0.769800  0.904600  0.853000  1
  H  H352  1  0.230200  0.595400  0.353000  1
  H  H353  1  0.191800  0.042200  0.186400  1
  H  H354  1  0.808200  0.457800  0.686400  1
  H  H355  1  0.808200  0.957800  0.813600  1
  H  H356  1  0.191800  0.542200  0.313600  1
  H  H357  1  0.749900  0.699100  0.209800  1.0
  H  H358  1  0.250100  0.800900  0.709800  1.0
  H  H359  1  0.250100  0.300900  0.790200  1.0
  H  H360  1  0.749900  0.199100  0.290200  1.0
  H  H361  1  0.677300  0.611600  0.037600  1.0
  H  H362  1  0.322700  0.888400  0.537600  1.0
  H  H363  1  0.322700  0.388400  0.962400  1.0
  H  H364  1  0.677300  0.111600  0.462400  1.0
  H  H365  1  0.762200  0.833700  0.940000  1.0
  H  H366  1  0.237800  0.666300  0.440000  1.0
  H  H367  1  0.237800  0.166300  0.060000  1.0
  H  H368  1  0.762200  0.333700  0.560000  1.0
  H  H369  1  0.489800  0.654200  0.976400  1.0
  H  H370  1  0.510200  0.845800  0.476400  1.0
  H  H371  1  0.510200  0.345800  0.023600  1.0
  H  H372  1  0.489800  0.154200  0.523600  1.0
  H  H373  1  0.712900  0.547800  0.749800  1.0
  H  H374  1  0.287100  0.952200  0.249800  1.0
  H  H375  1  0.287100  0.452200  0.250200  1.0
  H  H376  1  0.712900  0.047800  0.750200  1.0
  H  H377  1  0.660500  0.566500  0.934200  1.0
  H  H378  1  0.339500  0.933500  0.434200  1.0
  H  H379  1  0.339500  0.433500  0.065800  1.0
  H  H380  1  0.660500  0.066500  0.565800  1.0
  H  H381  1  0.679400  0.437800  0.013500  1.0
  H  H382  1  0.320600  0.062200  0.513500  1.0
  H  H383  1  0.320600  0.562200  0.986500  1.0
  H  H384  1  0.679400  0.937800  0.486500  1.0
  H  H385  1  0.283700  0.692900  0.827400  1.0
  H  H386  1  0.716300  0.807100  0.327400  1.0
  H  H387  1  0.716300  0.307100  0.172600  1.0
  H  H388  1  0.283700  0.192900  0.672600  1.0
  H  H389  1  0.558500  0.485900  0.119400  1.0
  H  H390  1  0.441500  0.014100  0.619400  1.0
  H  H391  1  0.441500  0.514100  0.880600  1.0
  H  H392  1  0.558500  0.985900  0.380600  1.0
  H  H393  1  0.693300  0.218300  0.916000  1.0
  H  H394  1  0.306700  0.281700  0.416000  1.0
  H  H395  1  0.306700  0.781700  0.084000  1.0
  H  H396  1  0.693300  0.718300  0.584000  1.0
  H  H397  1  0.536800  0.409200  0.899300  1.0
  H  H398  1  0.463200  0.090800  0.399300  1.0
  H  H399  1  0.463200  0.590800  0.100700  1.0
  H  H400  1  0.536800  0.909200  0.600700  1.0
  C  C401  1  0.341400  0.243500  0.289400  1
  C  C402  1  0.658600  0.256500  0.789400  1
  C  C403  1  0.658600  0.756500  0.710600  1
  C  C404  1  0.341400  0.743500  0.210600  1
  C  C405  1  0.425300  0.225700  0.285200  1
  C  C406  1  0.574700  0.274300  0.785200  1
  C  C407  1  0.574700  0.774300  0.714800  1
  C  C408  1  0.425300  0.725700  0.214800  1
  C  C409  1  0.414200  0.154400  0.271300  1
  C  C410  1  0.585800  0.345600  0.771300  1
  C  C411  1  0.585800  0.845600  0.728700  1
  C  C412  1  0.414200  0.654400  0.228700  1
  C  C413  1  0.501600  0.137100  0.267300  1
  C  C414  1  0.498400  0.362900  0.767300  1
  C  C415  1  0.498400  0.862900  0.732700  1
  C  C416  1  0.501600  0.637100  0.232700  1
  C  C417  1  0.496800  0.066900  0.257200  1
  C  C418  1  0.503200  0.433100  0.757200  1
  C  C419  1  0.503200  0.933100  0.742800  1
  C  C420  1  0.496800  0.566900  0.242800  1
  C  C421  1  0.583500  0.050400  0.252600  1
  C  C422  1  0.416500  0.449600  0.752600  1
  C  C423  1  0.416500  0.949600  0.747400  1
  C  C424  1  0.583500  0.550400  0.247400  1
  C  C425  1  0.582200  0.981700  0.239300  1
  C  C426  1  0.417800  0.518300  0.739300  1
  C  C427  1  0.417800  0.018300  0.760700  1
  C  C428  1  0.582200  0.481700  0.260700  1
  C  C429  1  0.670900  0.969200  0.236300  1
  C  C430  1  0.329100  0.530800  0.736300  1
  C  C431  1  0.329100  0.030800  0.763700  1
  C  C432  1  0.670900  0.469200  0.263700  1
  C  C433  1  0.670100  0.900300  0.223800  1
  C  C434  1  0.329900  0.599700  0.723800  1
  C  C435  1  0.329900  0.099700  0.776200  1
  C  C436  1  0.670100  0.400300  0.276200  1
  C  C437  1  0.537500  0.894800  0.179200  1
  C  C438  1  0.462500  0.605200  0.679200  1
  C  C439  1  0.462500  0.105200  0.820800  1
  C  C440  1  0.537500  0.394800  0.320800  1
  C  C441  1  0.535200  0.963400  0.193100  1
  C  C442  1  0.464800  0.536600  0.693100  1
  C  C443  1  0.464800  0.036600  0.806900  1
  C  C444  1  0.535200  0.463400  0.306900  1
  C  C445  1  0.364200  0.142600  0.226300  1
  C  C446  1  0.635800  0.357400  0.726300  1
  C  C447  1  0.635800  0.857400  0.773700  1
  C  C448  1  0.364200  0.642600  0.273700  1
  C  C449  1  0.276300  0.162500  0.231400  1
  C  C450  1  0.723700  0.337500  0.731400  1
  C  C451  1  0.723700  0.837500  0.768600  1
  C  C452  1  0.276300  0.662500  0.268600  1
  C  C453  1  0.194900  0.774600  0.975600  1
  C  C454  1  0.805100  0.725400  0.475600  1
  C  C455  1  0.805100  0.225400  0.024400  1
  C  C456  1  0.194900  0.274600  0.524400  1
  C  C457  1  0.306400  0.719600  0.956600  1
  C  C458  1  0.693600  0.780400  0.456600  1
  C  C459  1  0.693600  0.280400  0.043400  1
  C  C460  1  0.306400  0.219600  0.543400  1
  C  C461  1  0.154900  0.661700  0.963900  1
  C  C462  1  0.845100  0.838300  0.463900  1
  C  C463  1  0.845100  0.338300  0.036100  1
  C  C464  1  0.154900  0.161700  0.536100  1
  C  C465  1  0.863600  0.682500  0.874500  1
  C  C466  1  0.136400  0.817500  0.374500  1
  C  C467  1  0.136400  0.317500  0.125500  1
  C  C468  1  0.863600  0.182500  0.625500  1
  C  C469  1  0.974400  0.746700  0.921500  1
  C  C470  1  0.025600  0.753300  0.421500  1
  C  C471  1  0.025600  0.253300  0.078500  1
  C  C472  1  0.974400  0.246700  0.578500  1
  C  C473  1  0.848300  0.676500  0.959300  1
  C  C474  1  0.151700  0.823500  0.459300  1
  C  C475  1  0.151700  0.323500  0.040700  1
  C  C476  1  0.848300  0.176500  0.540700  1
  C  C477  1  0.023500  0.920100  0.305500  1
  C  C478  1  0.976500  0.579900  0.805500  1
  C  C479  1  0.976500  0.079900  0.694500  1
  C  C480  1  0.023500  0.420100  0.194500  1
  C  C481  1  0.964100  0.898200  0.262200  1
  C  C482  1  0.035900  0.601800  0.762200  1
  C  C483  1  0.035900  0.101800  0.737800  1
  C  C484  1  0.964100  0.398200  0.237800  1
  C  C485  1  0.969700  0.951300  0.224600  1
  C  C486  1  0.030300  0.548700  0.724600  1
  C  C487  1  0.030300  0.048700  0.775400  1
  C  C488  1  0.969700  0.451300  0.275400  1
  C  C489  1  0.950600  0.010700  0.247400  1
  C  C490  1  0.049400  0.489300  0.747400  1
  C  C491  1  0.049400  0.989300  0.752600  1
  C  C492  1  0.950600  0.510700  0.252600  1
  C  C493  1  0.005900  0.032000  0.290300  1
  C  C494  1  0.994100  0.468000  0.790300  1
  C  C495  1  0.994100  0.968000  0.709700  1
  C  C496  1  0.005900  0.532000  0.209700  1
  C  C497  1  0.910300  0.928800  0.183500  1
  C  C498  1  0.089700  0.571200  0.683500  1
  C  C499  1  0.089700  0.071200  0.816500  1
  C  C500  1  0.910300  0.428800  0.316500  1
  C  C501  1  0.019000  0.735700  0.063200  1
  C  C502  1  0.981000  0.764300  0.563200  1
  C  C503  1  0.981000  0.264300  0.936800  1
  C  C504  1  0.019000  0.235700  0.436800  1
  C  C505  1  0.942600  0.767100  0.075400  1
  C  C506  1  0.057400  0.732900  0.575400  1
  C  C507  1  0.057400  0.232900  0.924600  1
  C  C508  1  0.942600  0.267100  0.424600  1
  C  C509  1  0.953300  0.800100  0.124500  1
  C  C510  1  0.046700  0.699900  0.624500  1
  C  C511  1  0.046700  0.199900  0.875500  1
  C  C512  1  0.953300  0.300100  0.375500  1
  C  C513  1  0.966600  0.753100  0.162400  1
  C  C514  1  0.033400  0.746900  0.662400  1
  C  C515  1  0.033400  0.246900  0.837600  1
  C  C516  1  0.966600  0.253100  0.337600  1
  C  C517  1  0.039000  0.720700  0.150700  1
  C  C518  1  0.961000  0.779300  0.650700  1
  C  C519  1  0.961000  0.279300  0.849300  1
  C  C520  1  0.039000  0.220700  0.349300  1
  C  C521  1  0.877300  0.829200  0.135500  1
  C  C522  1  0.122700  0.670800  0.635500  1
  C  C523  1  0.122700  0.170800  0.864500  1
  C  C524  1  0.877300  0.329200  0.364500  1
  C  C525  1  0.884000  0.855400  0.187100  1
  C  C526  1  0.116000  0.644600  0.687100  1
  C  C527  1  0.116000  0.144600  0.812900  1
  C  C528  1  0.884000  0.355400  0.312900  1
  C  C529  1  0.471000  0.883300  0.927000  1
  C  C530  1  0.529000  0.616700  0.427000  1
  C  C531  1  0.529000  0.116700  0.073000  1
  C  C532  1  0.471000  0.383300  0.573000  1
  C  C533  1  0.493000  0.880100  0.880300  1
  C  C534  1  0.507000  0.619900  0.380300  1
  C  C535  1  0.507000  0.119900  0.119700  1
  C  C536  1  0.493000  0.380100  0.619700  1
  C  C537  1  0.827000  0.145000  0.154500  1
  C  C538  1  0.173000  0.355000  0.654500  1
  C  C539  1  0.173000  0.855000  0.845500  1
  C  C540  1  0.827000  0.645000  0.345500  1
  C  C541  1  0.738000  0.138200  0.157100  1
  C  C542  1  0.262000  0.361800  0.657100  1
  C  C543  1  0.262000  0.861800  0.842900  1
  C  C544  1  0.738000  0.638200  0.342900  1
  C  C545  1  0.169300  0.675200  0.975000  1
  C  C546  1  0.830700  0.824800  0.475000  1
  C  C547  1  0.830700  0.324800  0.025000  1
  C  C548  1  0.169300  0.175200  0.525000  1
  C  C549  1  0.292000  0.761000  0.972000  1
  C  C550  1  0.708000  0.739000  0.472000  1
  C  C551  1  0.708000  0.239000  0.028000  1
  C  C552  1  0.292000  0.261000  0.528000  1
  C  C553  1  0.305000  0.652000  0.995000  1
  C  C554  1  0.695000  0.848000  0.495000  1
  C  C555  1  0.695000  0.348000  0.005000  1
  C  C556  1  0.305000  0.152000  0.505000  1
  C  C557  1  0.987100  0.093000  0.318100  1
  C  C558  1  0.012900  0.407000  0.818100  1
  C  C559  1  0.012900  0.907000  0.681900  1
  C  C560  1  0.987100  0.593000  0.181900  1
  C  C561  1  0.036200  0.117200  0.271700  1
  C  C562  1  0.963800  0.382800  0.771700  1
  C  C563  1  0.963800  0.882800  0.728300  1
  C  C564  1  0.036200  0.617200  0.228300  1
  C  C565  1  0.010100  0.072900  0.230300  1
  C  C566  1  0.989900  0.427100  0.730300  1
  C  C567  1  0.989900  0.927100  0.769700  1
  C  C568  1  0.010100  0.572900  0.269700  1
  C  C569  1  0.022600  0.008000  0.243300  1
  C  C570  1  0.977400  0.492000  0.743300  1
  C  C571  1  0.977400  0.992000  0.756700  1
  C  C572  1  0.022600  0.508000  0.256700  1
  C  C573  1  0.978200  0.981900  0.288000  1
  C  C574  1  0.021800  0.518100  0.788000  1
  C  C575  1  0.021800  0.018100  0.712000  1
  C  C576  1  0.978200  0.481900  0.212000  1
  C  C577  1  0.060400  0.099000  0.186500  1
  C  C578  1  0.939600  0.401000  0.686500  1
  C  C579  1  0.939600  0.901000  0.813500  1
  C  C580  1  0.060400  0.599000  0.313500  1
  C  C581  1  0.095000  0.057000  0.136000  1
  C  C582  1  0.905000  0.443000  0.636000  1
  C  C583  1  0.905000  0.943000  0.864000  1
  C  C584  1  0.095000  0.557000  0.364000  1
  C  C585  1  0.262600  0.907900  0.102400  1
  C  C586  1  0.737400  0.592100  0.602400  1
  C  C587  1  0.737400  0.092100  0.897600  1
  C  C588  1  0.262600  0.407900  0.397600  1
  C  C589  1  0.253400  0.962600  0.136900  1
  C  C590  1  0.746600  0.537400  0.636900  1
  C  C591  1  0.746600  0.037400  0.863100  1
  C  C592  1  0.253400  0.462600  0.363100  1
  C  C593  1  0.194600  0.003200  0.117900  1
  C  C594  1  0.805400  0.496800  0.617900  1
  C  C595  1  0.805400  0.996800  0.882100  1
  C  C596  1  0.194600  0.503200  0.382100  1
  C  C597  1  0.226000  0.028800  0.070300  1
  C  C598  1  0.774000  0.471200  0.570300  1
  C  C599  1  0.774000  0.971200  0.929700  1
  C  C600  1  0.226000  0.528800  0.429700  1
  C  C601  1  0.238000  0.979000  0.035400  1
  C  C602  1  0.762000  0.521000  0.535400  1
  C  C603  1  0.762000  0.021000  0.964600  1
  C  C604  1  0.238000  0.479000  0.464600  1
  C  C605  1  0.188700  0.055400  0.153100  1
  C  C606  1  0.811300  0.444600  0.653100  1
  C  C607  1  0.811300  0.944600  0.846900  1
  C  C608  1  0.188700  0.555400  0.346900  1
  C  C609  1  0.779300  0.617000  0.181700  1.0
  C  C610  1  0.220700  0.883000  0.681700  1.0
  C  C611  1  0.220700  0.383000  0.818300  1.0
  C  C612  1  0.779300  0.117000  0.318300  1.0
  C  C613  1  0.735400  0.635600  0.140000  1.0
  C  C614  1  0.264600  0.864400  0.640000  1.0
  C  C615  1  0.264600  0.364400  0.860000  1.0
  C  C616  1  0.735400  0.135600  0.360000  1.0
  C  C617  1  0.689000  0.626700  0.068900  1.0
  C  C618  1  0.311000  0.873300  0.568900  1.0
  C  C619  1  0.311000  0.373300  0.931100  1.0
  C  C620  1  0.689000  0.126700  0.431100  1.0
  C  C621  1  0.695000  0.682900  0.131400  1.0
  C  C622  1  0.305000  0.817100  0.631400  1.0
  C  C623  1  0.305000  0.317100  0.868600  1.0
  C  C624  1  0.695000  0.182900  0.368600  1.0
  C  C625  1  0.675600  0.733900  0.162000  1.0
  C  C626  1  0.324400  0.766100  0.662000  1.0
  C  C627  1  0.324400  0.266100  0.838000  1.0
  C  C628  1  0.675600  0.233900  0.338000  1.0
  C  C629  1  0.705700  0.810700  0.005000  1.0
  C  C630  1  0.294300  0.689300  0.505000  1.0
  C  C631  1  0.294300  0.189300  0.995000  1.0
  C  C632  1  0.705700  0.310700  0.495000  1.0
  C  C633  1  0.644800  0.763700  0.978800  1.0
  C  C634  1  0.355200  0.736300  0.478800  1.0
  C  C635  1  0.355200  0.236300  0.021200  1.0
  C  C636  1  0.644800  0.263700  0.521200  1.0
  C  C637  1  0.538300  0.686400  0.969530  1.0
  C  C638  1  0.461700  0.813600  0.469530  1.0
  C  C639  1  0.461700  0.313600  0.030470  1.0
  C  C640  1  0.538300  0.186400  0.530470  1.0
  C  C641  1  0.640600  0.746000  0.931900  1.0
  C  C642  1  0.359400  0.754000  0.431900  1.0
  C  C643  1  0.359400  0.254000  0.068100  1.0
  C  C644  1  0.640600  0.246000  0.568100  1.0
  C  C645  1  0.694500  0.769800  0.890900  1.0
  C  C646  1  0.305500  0.730200  0.390900  1.0
  C  C647  1  0.305500  0.230200  0.109100  1.0
  C  C648  1  0.694500  0.269800  0.609100  1.0
  C  C649  1  0.639900  0.605800  0.782300  1.0
  C  C650  1  0.360100  0.894200  0.282300  1.0
  C  C651  1  0.360100  0.394200  0.217700  1.0
  C  C652  1  0.639900  0.105800  0.717700  1.0
  C  C653  1  0.664100  0.578000  0.825900  1.0
  C  C654  1  0.335900  0.922000  0.325900  1.0
  C  C655  1  0.335900  0.422000  0.174100  1.0
  C  C656  1  0.664100  0.078000  0.674100  1.0
  C  C657  1  0.668600  0.562500  0.901150  1.0
  C  C658  1  0.331400  0.937500  0.401150  1.0
  C  C659  1  0.331400  0.437500  0.098850  1.0
  C  C660  1  0.668600  0.062500  0.598850  1.0
  C  C661  1  0.706800  0.529900  0.834000  1.0
  C  C662  1  0.293200  0.970100  0.334000  1.0
  C  C663  1  0.293200  0.470100  0.166000  1.0
  C  C664  1  0.706800  0.029900  0.666000  1.0
  C  C665  1  0.744300  0.490500  0.803500  1.0
  C  C666  1  0.255700  0.009500  0.303500  1.0
  C  C667  1  0.255700  0.509500  0.196500  1.0
  C  C668  1  0.744300  0.990500  0.696500  1.0
  C  C669  1  0.913800  0.518800  0.937200  1.0
  C  C670  1  0.086200  0.981200  0.437200  1.0
  C  C671  1  0.086200  0.481200  0.062800  1.0
  C  C672  1  0.913800  0.018800  0.562800  1.0
  C  C673  1  0.854000  0.502100  0.975900  1.0
  C  C674  1  0.146000  0.997900  0.475900  1.0
  C  C675  1  0.146000  0.497900  0.024100  1.0
  C  C676  1  0.854000  0.002100  0.524100  1.0
  C  C677  1  0.736200  0.460700  0.009100  1.0
  C  C678  1  0.263800  0.039300  0.509100  1.0
  C  C679  1  0.263800  0.539300  0.990900  1.0
  C  C680  1  0.736200  0.960700  0.490900  1.0
  C  C681  1  0.857900  0.518900  0.023600  1.0
  C  C682  1  0.142100  0.981100  0.523600  1.0
  C  C683  1  0.142100  0.481100  0.976400  1.0
  C  C684  1  0.857900  0.018900  0.476400  1.0
  C  C685  1  0.924600  0.561000  0.051100  1.0
  C  C686  1  0.075400  0.939000  0.551100  1.0
  C  C687  1  0.075400  0.439000  0.948900  1.0
  C  C688  1  0.924600  0.061000  0.448900  1.0
  C  C689  1  0.775200  0.398500  0.151500  1.0
  C  C690  1  0.224800  0.101500  0.651500  1.0
  C  C691  1  0.224800  0.601500  0.848500  1.0
  C  C692  1  0.775200  0.898500  0.348500  1.0
  C  C693  1  0.685500  0.406400  0.145200  1.0
  C  C694  1  0.314500  0.093600  0.645200  1.0
  C  C695  1  0.314500  0.593600  0.854800  1.0
  C  C696  1  0.685500  0.906400  0.354800  1.0
  C  C697  1  0.587200  0.453600  0.128560  1.0
  C  C698  1  0.412800  0.046400  0.628560  1.0
  C  C699  1  0.412800  0.546400  0.871440  1.0
  C  C700  1  0.587200  0.953600  0.371440  1.0
  C  C701  1  0.390900  0.635500  0.849100  1.0
  C  C702  1  0.609100  0.864500  0.349100  1.0
  C  C703  1  0.609100  0.364500  0.150900  1.0
  C  C704  1  0.390900  0.135500  0.650900  1.0
  C  C705  1  0.414700  0.701800  0.835400  1.0
  C  C706  1  0.585300  0.798200  0.335400  1.0
  C  C707  1  0.585300  0.298200  0.164600  1.0
  C  C708  1  0.414700  0.201800  0.664600  1.0
  C  C709  1  0.751900  0.312500  0.905600  1.0
  C  C710  1  0.248100  0.187500  0.405600  1.0
  C  C711  1  0.248100  0.687500  0.094400  1.0
  C  C712  1  0.751900  0.812500  0.594400  1.0
  C  C713  1  0.663700  0.321700  0.906700  1.0
  C  C714  1  0.336300  0.178300  0.406700  1.0
  C  C715  1  0.336300  0.678300  0.093300  1.0
  C  C716  1  0.663700  0.821700  0.593300  1.0
  C  C717  1  0.564900  0.374900  0.902630  1.0
  C  C718  1  0.435100  0.125100  0.402630  1.0
  C  C719  1  0.435100  0.625100  0.097370  1.0
  C  C720  1  0.564900  0.874900  0.597370  1.0
  C  C721  1  0.414100  0.718800  0.087600  1.0
  C  C722  1  0.585900  0.781200  0.587600  1.0
  C  C723  1  0.585900  0.281200  0.912400  1.0
  C  C724  1  0.414100  0.218800  0.412400  1.0
  C  C725  1  0.438200  0.787800  0.077700  1.0
  C  C726  1  0.561800  0.712200  0.577700  1.0
  C  C727  1  0.561800  0.212200  0.922300  1.0
  C  C728  1  0.438200  0.287800  0.422300  1.0
  N  N729  1  0.291300  0.230800  0.245400  1
  N  N730  1  0.708700  0.269200  0.745400  1
  N  N731  1  0.708700  0.769200  0.754600  1
  N  N732  1  0.291300  0.730800  0.254600  1
  N  N733  1  0.624600  0.885900  0.175800  1
  N  N734  1  0.375400  0.614100  0.675800  1
  N  N735  1  0.375400  0.114100  0.824200  1
  N  N736  1  0.624600  0.385900  0.324200  1
  N  N737  1  0.217700  0.720500  0.965500  1
  N  N738  1  0.782300  0.779500  0.465500  1
  N  N739  1  0.782300  0.279500  0.034500  1
  N  N740  1  0.217700  0.220500  0.534500  1
  N  N741  1  0.894300  0.701000  0.917000  1
  N  N742  1  0.105700  0.799000  0.417000  1
  N  N743  1  0.105700  0.299000  0.083000  1
  N  N744  1  0.894300  0.201000  0.583000  1
  N  N745  1  0.997300  0.978100  0.325900  1
  N  N746  1  0.002700  0.521900  0.825900  1
  N  N747  1  0.002700  0.021900  0.674100  1
  N  N748  1  0.997300  0.478100  0.174100  1
  N  N749  1  0.024600  0.689000  0.102500  1
  N  N750  1  0.975400  0.811000  0.602500  1
  N  N751  1  0.975400  0.311000  0.897500  1
  N  N752  1  0.024600  0.189000  0.397500  1
  N  N753  1  0.252700  0.695100  0.980400  1
  N  N754  1  0.747300  0.804900  0.480400  1
  N  N755  1  0.747300  0.304900  0.019600  1
  N  N756  1  0.252700  0.195100  0.519600  1
  N  N757  1  0.005100  0.028500  0.328400  1
  N  N758  1  0.994900  0.471500  0.828400  1
  N  N759  1  0.994900  0.971500  0.671600  1
  N  N760  1  0.005100  0.528500  0.171600  1
  N  N761  1  0.296000  0.938700  0.056300  1
  N  N762  1  0.704000  0.561300  0.556300  1
  N  N763  1  0.704000  0.061300  0.943700  1
  N  N764  1  0.296000  0.438700  0.443700  1
  N  N765  1  0.732700  0.599300  0.100410  1.0
  N  N766  1  0.267300  0.900700  0.600410  1.0
  N  N767  1  0.267300  0.400700  0.899590  1.0
  N  N768  1  0.732700  0.099300  0.399590  1.0
  N  N769  1  0.663800  0.677500  0.086140  1.0
  N  N770  1  0.336200  0.822500  0.586140  1.0
  N  N771  1  0.336200  0.322500  0.913860  1.0
  N  N772  1  0.663800  0.177500  0.413860  1.0
  N  N773  1  0.579900  0.726000  0.001950  1.0
  N  N774  1  0.420100  0.774000  0.501950  1.0
  N  N775  1  0.420100  0.274000  0.998050  1.0
  N  N776  1  0.579900  0.226000  0.498050  1.0
  N  N777  1  0.572300  0.697000  0.925830  1.0
  N  N778  1  0.427700  0.803000  0.425830  1.0
  N  N779  1  0.427700  0.303000  0.074170  1.0
  N  N780  1  0.572300  0.197000  0.574170  1.0
  N  N781  1  0.639600  0.598300  0.868170  1.0
  N  N782  1  0.360400  0.901700  0.368170  1.0
  N  N783  1  0.360400  0.401700  0.131830  1.0
  N  N784  1  0.639600  0.098300  0.631830  1.0
  N  N785  1  0.709800  0.520900  0.882100  1.0
  N  N786  1  0.290200  0.979100  0.382100  1.0
  N  N787  1  0.290200  0.479100  0.117900  1.0
  N  N788  1  0.709800  0.020900  0.617900  1.0
  N  N789  1  0.776600  0.464100  0.967320  1.0
  N  N790  1  0.223400  0.035900  0.467320  1.0
  N  N791  1  0.223400  0.535900  0.032680  1.0
  N  N792  1  0.776600  0.964100  0.532680  1.0
  N  N793  1  0.783000  0.492600  0.044250  1.0
  N  N794  1  0.217000  0.007400  0.544250  1.0
  N  N795  1  0.217000  0.507400  0.955750  1.0
  N  N796  1  0.783000  0.992600  0.455750  1.0
  N  N797  1  0.670800  0.462900  0.130790  1.0
  N  N798  1  0.329200  0.037100  0.630790  1.0
  N  N799  1  0.329200  0.537100  0.869210  1.0
  N  N800  1  0.670800  0.962900  0.369210  1.0
  N  N801  1  0.454300  0.605200  0.859770  1.0
  N  N802  1  0.545700  0.894800  0.359770  1.0
  N  N803  1  0.545700  0.394800  0.140230  1.0
  N  N804  1  0.454300  0.105200  0.640230  1.0
  N  N805  1  0.649900  0.381900  0.900300  1.0
  N  N806  1  0.350100  0.118100  0.400300  1.0
  N  N807  1  0.350100  0.618100  0.099700  1.0
  N  N808  1  0.649900  0.881900  0.599700  1.0
  N  N809  1  0.476100  0.684500  0.090030  1.0
  N  N810  1  0.523900  0.815500  0.590030  1.0
  N  N811  1  0.523900  0.315500  0.909970  1.0
  N  N812  1  0.476100  0.184500  0.409970  1.0
  O  O813  1  0.242800  0.827000  0.978100  1
  O  O814  1  0.757200  0.673000  0.478100  1
  O  O815  1  0.757200  0.173000  0.021900  1
  O  O816  1  0.242800  0.327000  0.521900  1
  O  O817  1  0.897100  0.700300  0.836500  1
  O  O818  1  0.102900  0.799700  0.336500  1
  O  O819  1  0.102900  0.299700  0.163500  1
  O  O820  1  0.897100  0.200300  0.663500  1
  O  O821  1  0.457000  0.828500  0.949200  1
  O  O822  1  0.543000  0.671500  0.449200  1
  O  O823  1  0.543000  0.171500  0.050800  1
  O  O824  1  0.457000  0.328500  0.550800  1
  O  O825  1  0.715900  0.963700  0.110300  1
  O  O826  1  0.284100  0.536300  0.610300  1
  O  O827  1  0.284100  0.036300  0.889700  1
  O  O828  1  0.715900  0.463700  0.389700  1
  O  O829  1  0.138400  0.269500  0.254300  1
  O  O830  1  0.861600  0.230500  0.754300  1
  O  O831  1  0.861600  0.730500  0.745700  1
  O  O832  1  0.138400  0.769500  0.245700  1
  O  O833  1  0.954500  0.352400  0.124000  1
  O  O834  1  0.045500  0.147600  0.624000  1
  O  O835  1  0.045500  0.647600  0.876000  1
  O  O836  1  0.954500  0.852400  0.376000  1
  O  O837  1  0.871000  0.193500  0.180400  1
  O  O838  1  0.129000  0.306500  0.680400  1
  O  O839  1  0.129000  0.806500  0.819600  1
  O  O840  1  0.871000  0.693500  0.319600  1
  O  O841  1  0.119100  0.707900  0.962900  1
  O  O842  1  0.880900  0.792100  0.462900  1
  O  O843  1  0.880900  0.292100  0.037100  1
  O  O844  1  0.119100  0.207900  0.537100  1
  O  O845  1  0.809000  0.568500  0.180370  1.0
  O  O846  1  0.191000  0.931500  0.680370  1.0
  O  O847  1  0.191000  0.431500  0.819630  1.0
  O  O848  1  0.809000  0.068500  0.319630  1.0
  O  O849  1  0.784800  0.653900  0.218680  1.0
  O  O850  1  0.215200  0.846100  0.718680  1.0
  O  O851  1  0.215200  0.346100  0.781320  1.0
  O  O852  1  0.784800  0.153900  0.281320  1.0
  O  O853  1  0.629000  0.768100  0.143950  1.0
  O  O854  1  0.371000  0.731900  0.643950  1.0
  O  O855  1  0.371000  0.231900  0.856050  1.0
  O  O856  1  0.629000  0.268100  0.356050  1.0
  O  O857  1  0.708500  0.741800  0.202210  1.0
  O  O858  1  0.291500  0.758200  0.702210  1.0
  O  O859  1  0.291500  0.258200  0.797790  1.0
  O  O860  1  0.708500  0.241800  0.297790  1.0
  O  O861  1  0.696700  0.813600  0.048710  1.0
  O  O862  1  0.303300  0.686400  0.548710  1.0
  O  O863  1  0.303300  0.186400  0.951290  1.0
  O  O864  1  0.696700  0.313600  0.451290  1.0
  O  O865  1  0.766900  0.846800  0.983060  1.0
  O  O866  1  0.233100  0.653200  0.483060  1.0
  O  O867  1  0.233100  0.153200  0.016940  1.0
  O  O868  1  0.766900  0.346800  0.516940  1.0
  O  O869  1  0.675600  0.740600  0.852250  1.0
  O  O870  1  0.324400  0.759400  0.352250  1.0
  O  O871  1  0.324400  0.259400  0.147750  1.0
  O  O872  1  0.675600  0.240600  0.647750  1.0
  O  O873  1  0.756000  0.817100  0.896190  1.0
  O  O874  1  0.244000  0.682900  0.396190  1.0
  O  O875  1  0.244000  0.182900  0.103810  1.0
  O  O876  1  0.756000  0.317100  0.603810  1.0
  O  O877  1  0.596000  0.647400  0.785590  1.0
  O  O878  1  0.404000  0.852600  0.285590  1.0
  O  O879  1  0.404000  0.352600  0.214410  1.0
  O  O880  1  0.596000  0.147400  0.714410  1.0
  O  O881  1  0.666300  0.587200  0.743180  1.0
  O  O882  1  0.333700  0.912800  0.243180  1.0
  O  O883  1  0.333700  0.412800  0.256820  1.0
  O  O884  1  0.666300  0.087200  0.756820  1.0
  O  O885  1  0.775000  0.447000  0.820290  1.0
  O  O886  1  0.225000  0.053000  0.320290  1.0
  O  O887  1  0.225000  0.553000  0.179710  1.0
  O  O888  1  0.775000  0.947000  0.679710  1.0
  O  O889  1  0.746200  0.501700  0.757990  1.0
  O  O890  1  0.253800  0.998300  0.257990  1.0
  O  O891  1  0.253800  0.498300  0.242010  1.0
  O  O892  1  0.746200  0.001700  0.742010  1.0
  O  O893  1  0.890500  0.497800  0.896440  1.0
  O  O894  1  0.109500  0.002200  0.396440  1.0
  O  O895  1  0.109500  0.502200  0.103560  1.0
  O  O896  1  0.890500  0.997800  0.603560  1.0
  O  O897  1  0.986100  0.554700  0.944840  1.0
  O  O898  1  0.013900  0.945300  0.444840  1.0
  O  O899  1  0.013900  0.445300  0.055160  1.0
  O  O900  1  0.986100  0.054700  0.555160  1.0
  O  O901  1  0.909700  0.567800  0.093730  1.0
  O  O902  1  0.090300  0.932200  0.593730  1.0
  O  O903  1  0.090300  0.432200  0.906270  1.0
  O  O904  1  0.909700  0.067800  0.406270  1.0
  O  O905  1  0.994100  0.586500  0.030140  1.0
  O  O906  1  0.005900  0.913500  0.530140  1.0
  O  O907  1  0.005900  0.413500  0.969860  1.0
  O  O908  1  0.994100  0.086500  0.469860  1.0
  O  O909  1  0.832300  0.446200  0.140450  1.0
  O  O910  1  0.167700  0.053800  0.640450  1.0
  O  O911  1  0.167700  0.553800  0.859550  1.0
  O  O912  1  0.832300  0.946200  0.359550  1.0
  O  O913  1  0.788600  0.346700  0.166560  1.0
  O  O914  1  0.211400  0.153300  0.666560  1.0
  O  O915  1  0.211400  0.653300  0.833440  1.0
  O  O916  1  0.788600  0.846700  0.333440  1.0
  O  O917  1  0.353900  0.730600  0.824010  1.0
  O  O918  1  0.646100  0.769400  0.324010  1.0
  O  O919  1  0.646100  0.269400  0.175990  1.0
  O  O920  1  0.353900  0.230600  0.675990  1.0
  O  O921  1  0.491100  0.728300  0.834190  1.0
  O  O922  1  0.508900  0.771700  0.334190  1.0
  O  O923  1  0.508900  0.271700  0.165810  1.0
  O  O924  1  0.491100  0.228300  0.665810  1.0
  O  O925  1  0.809600  0.360100  0.900110  1.0
  O  O926  1  0.190400  0.139900  0.400110  1.0
  O  O927  1  0.190400  0.639900  0.099890  1.0
  O  O928  1  0.809600  0.860100  0.599890  1.0
  O  O929  1  0.763600  0.255600  0.910790  1.0
  O  O930  1  0.236400  0.244400  0.410790  1.0
  O  O931  1  0.236400  0.744400  0.089210  1.0
  O  O932  1  0.763600  0.755600  0.589210  1.0
  O  O933  1  0.515600  0.811500  0.073600  1.0
  O  O934  1  0.484400  0.688500  0.573600  1.0
  O  O935  1  0.484400  0.188500  0.926400  1.0
  O  O936  1  0.515600  0.311500  0.426400  1.0
  O  O937  1  0.379300  0.818800  0.077120  1.0
  O  O938  1  0.620700  0.681200  0.577120  1.0
  O  O939  1  0.620700  0.181200  0.922880  1.0
  O  O940  1  0.379300  0.318800  0.422880  1.0
