
#######################################################################
#
#                 Cambridge Crystallographic Data Centre
#                                CCDC 
#
#######################################################################
#
# If this CIF has been generated from an entry in the Cambridge 
# Structural Database, then it will include bibliographic, chemical, 
# crystal, experimental, refinement or atomic coordinate data resulting 
# from the CCDC's data processing and validation procedures.
#
#######################################################################

data_DAKXEV
_chemical_formula_moiety         
'C360 H312 Cd8 N72 O24 16+,13(C3 H7 N1 O1),16(N1 O3 1-),2(H2 O1)'
_chemical_name_systematic        
'dodecakis(\m-(naphthalene-1,5-diylbis(methylene-1H-pyrazole-1,3-diylpyridine-2,4-diyl))dimethanol)-octa-cadmium(ii) hexadecanitrate N,N-dimethylformamide solvate dihydrate'
_symmetry_cell_setting           triclinic
_symmetry_space_group_name_H-M   'P -1'
_symmetry_Int_Tables_number      2
_space_group_name_Hall           '-P 1'
loop_
_symmetry_equiv_pos_site_id
_symmetry_equiv_pos_as_xyz
1 x,y,z
2 -x,-y,-z
_cell_length_a                   23.1625(3)
_cell_length_b                   23.7759(4)
_cell_length_c                   24.2858(3)
_cell_angle_alpha                108.5500(10)
_cell_angle_beta                 101.7820(10)
_cell_angle_gamma                90.4160(10)
_cell_volume                     12374.8
_exptl_crystal_colour            colorless
_exptl_crystal_description       prism
_cell_formula_units_Z            1
_chemical_properties_physical    ', Efflorescent'
_exptl_crystal_recrystallization_method 'N,N-dimethylformamide/ ether'
_exptl_crystal_preparation       ', Luminescent'
loop_
_atom_site_label
_atom_site_type_symbol
_atom_site_fract_x
_atom_site_fract_y
_atom_site_fract_z
Cd1 Cd -0.10684(2) 0.60581(2) 0.63721(2)
Cd2 Cd 0.34952(2) 0.55588(2) 0.86769(2)
Cd3 Cd 0.19952(2) 0.14117(2) 0.92085(2)
Cd4 Cd 0.25226(2) 0.80695(2) 1.29387(2)
N1 N 0.22406(17) 0.1431(2) 1.01838(14)
C1 C 0.18077(14) 0.1210(2) 1.03981(17)
C2 C 0.19317(17) 0.1192(2) 1.09765(18)
H1 H 0.1636 0.1041 1.1123
C3 C 0.2489(2) 0.1394(2) 1.13405(15)
C4 C 0.29216(16) 0.1615(2) 1.11262(18)
H2 H 0.3302 0.1754 1.1375
C5 C 0.27976(15) 0.1634(2) 1.05478(19)
H3 H 0.3093 0.1785 1.0401
C6 C 0.2620(4) 0.1369(4) 1.1977(4)
H4 H 0.2504 0.1738 1.2246
H5 H 0.2381 0.1029 1.1989
O1 O 0.3223(5) 0.1308(12) 1.2178(8)
H6 H 0.3325 0.0998 1.1947
N2 N 0.05945(16) 0.07871(19) 0.91329(14)
N3 N 0.11694(15) 0.10546(18) 0.94418(16)
C7 C 0.12676(16) 0.1017(2) 1.00251(15)
C8 C 0.0753(2) 0.0726(2) 1.00767(16)
H7 H 0.0698 0.0641 1.0420
C9 C 0.03374(15) 0.0584(2) 0.95253(19)
H8 H -0.0046 0.0388 0.9435
C10 C 0.0349(3) 0.0799(3) 0.8566(3)
H9 H 0.0010 0.0494 0.8388
H10 H 0.0647 0.0684 0.8319
N4 N -0.2979(2) 0.1934(3) 0.61271(19)
C11 C -0.2640(2) 0.2178(3) 0.5837(2)
C12 C -0.2884(3) 0.2208(3) 0.5275(3)
H11 H -0.2652 0.2375 0.5077
C13 C -0.3468(3) 0.1995(4) 0.5004(2)
C14 C -0.3807(2) 0.1751(4) 0.5295(3)
H12 H -0.4206 0.1605 0.5110
C15 C -0.3563(2) 0.1721(3) 0.5856(3)
H13 H -0.3795 0.1554 0.6055
C16 C -0.3719(7) 0.2070(8) 0.4362(7)
H14 H -0.3539 0.2439 0.4340
H15 H -0.3632 0.1726 0.4040
O2 O -0.4350(8) 0.2098(13) 0.4309(10)
H16 H -0.4482 0.1833 0.4421
N5 N -0.12624(15) 0.2626(2) 0.68954(15)
N6 N -0.18594(16) 0.23836(19) 0.67076(17)
C17 C -0.20745(17) 0.2387(2) 0.61177(17)
C18 C -0.1611(2) 0.2632(2) 0.59410(15)
H17 H -0.1632 0.2687 0.5567
C19 C -0.11087(18) 0.2780(2) 0.6422(2)
H18 H -0.0736 0.2952 0.6426
C20 C -0.0913(3) 0.2654(3) 0.7439(3)
H19 H -0.1162 0.2745 0.7739
H20 H -0.0605 0.2987 0.7562
C21 C 0.01332(16) 0.13970(14) 0.85316(12)
C22 C 0.01593(16) 0.18579(16) 0.90618(10)
H21 H 0.0335 0.1807 0.9430
C23 C -0.00711(17) 0.23939(15) 0.90528(10)
H22 H -0.0053 0.2709 0.9415
C24 C -0.03277(16) 0.24689(12) 0.85135(12)
H23 H -0.0485 0.2835 0.8507
C25 C -0.03538(11) 0.20079(10) 0.79834(10)
C26 C -0.01234(11) 0.14720(10) 0.79924(10)
C27 C -0.01495(17) 0.10110(12) 0.74622(12)
H24 H 0.0008 0.0645 0.7468
C28 C -0.04060(18) 0.10860(15) 0.69230(10)
H25 H -0.0424 0.0771 0.6561
C29 C -0.06364(17) 0.16219(17) 0.69140(10)
H26 H -0.0812 0.1673 0.6545
C30 C -0.06103(16) 0.20829(14) 0.74441(12)
N7 N 0.2202(2) 0.03890(18) 0.8844(3)
C31 C 0.2775(2) 0.0289(2) 0.8765(3)
C32 C 0.2957(3) -0.0286(3) 0.8624(4)
H27 H 0.3349 -0.0354 0.8570
C33 C 0.2567(3) -0.0760(2) 0.8561(4)
C34 C 0.1994(3) -0.0660(2) 0.8640(4)
H28 H 0.1728 -0.0984 0.8597
C35 C 0.1812(2) -0.0085(2) 0.8781(3)
H29 H 0.1421 -0.0017 0.8835
C36 C 0.2918(7) -0.1358(6) 0.8447(9)
H30 H 0.3045 -0.1465 0.8064
H31 H 0.3266 -0.1319 0.8774
O3 O 0.2498(6) -0.1754(5) 0.8436(6)
H32 H 0.2649 -0.2070 0.8449
N8 N 0.3424(2) 0.17410(19) 0.9105(3)
N9 N 0.29530(18) 0.1334(2) 0.9063(3)
C37 C 0.3117(3) 0.07487(19) 0.8809(4)
C38 C 0.3689(3) 0.0794(2) 0.8694(4)
H33 H 0.3906 0.0471 0.8524
C39 C 0.3879(2) 0.1407(3) 0.8876(4)
H34 H 0.4246 0.1567 0.8850
C40 C 0.3376(3) 0.2343(4) 0.9294(4)
H35 H 0.3778 0.2547 0.9457
H36 H 0.3162 0.2443 0.9623
N10 N 0.30967(16) 0.64282(17) 0.90910(19)
C41 C 0.25062(16) 0.63912(17) 0.9124(2)
C42 C 0.22295(15) 0.6907(2) 0.9343(2)
H37 H 0.1826 0.6881 0.9366
C43 C 0.2543(2) 0.74591(18) 0.9530(2)
C44 C 0.3134(2) 0.74962(16) 0.9497(3)
H38 H 0.3348 0.7874 0.9625
C45 C 0.34105(15) 0.6981(2) 0.9278(2)
H39 H 0.3814 0.7006 0.9255
C46 C 0.2226(4) 0.8001(5) 0.9766(5)
H40 H 0.1796 0.7918 0.9593
H41 H 0.2287 0.8112 1.0204
O4 O 0.2450(7) 0.8472(6) 0.9614(7)
H42 H 0.2355 0.8395 0.9243
N11 N 0.20705(16) 0.48389(14) 0.84413(18)
N12 N 0.24870(12) 0.53409(18) 0.86367(18)
C47 C 0.22059(17) 0.58493(14) 0.8916(2)
C48 C 0.16157(15) 0.56616(19) 0.8894(2)
H43 H 0.1327 0.5910 0.9048
C49 C 0.15320(13) 0.50371(19) 0.8600(2)
H44 H 0.1178 0.4794 0.8524
C50 C 0.2220(3) 0.4259(3) 0.8211(3)
H45 H 0.2506 0.4253 0.7957
H46 H 0.1861 0.4008 0.7955
C51 C 0.30559(17) 0.25879(13) 0.88135(17)
C52 C 0.29457(19) 0.22350(13) 0.82185(19)
H47 H 0.3050 0.1835 0.8112
C53 C 0.26829(19) 0.24676(16) 0.77788(15)
H48 H 0.2608 0.2226 0.7372
C54 C 0.25302(17) 0.30530(16) 0.79340(11)
H49 H 0.2351 0.3212 0.7634
C55 C 0.26404(11) 0.34058(12) 0.85291(11)
C56 C 0.29032(11) 0.31733(12) 0.89688(12)
C57 C 0.30134(16) 0.35261(15) 0.95639(12)
H50 H 0.3193 0.3367 0.9864
C58 C 0.28608(17) 0.41115(15) 0.97192(12)
H51 H 0.2936 0.4353 1.0126
C59 C 0.25979(16) 0.43441(12) 0.92795(15)
H52 H 0.2494 0.4744 0.9386
C60 C 0.24877(15) 0.39913(13) 0.86844(14)
N13 N 0.37407(18) 0.45906(17) 0.8354(2)
C61 C 0.40074(19) 0.4354(2) 0.87897(16)
C62 C 0.4177(2) 0.3775(2) 0.8627(2)
H53 H 0.4359 0.3613 0.8925
C63 C 0.4080(2) 0.34319(17) 0.8030(3)
C64 C 0.3813(2) 0.3669(2) 0.75945(19)
H54 H 0.3746 0.3434 0.7186
C65 C 0.3644(2) 0.4248(2) 0.77569(18)
H55 H 0.3461 0.4410 0.7459
C66 C 0.4283(4) 0.2814(5) 0.7877(5)
H56 H 0.4035 0.2561 0.8007
H57 H 0.4237 0.2641 0.7441
O5 O 0.4867(4) 0.2825(5) 0.8153(5)
H58 H 0.4907 0.2976 0.8523
N14 N 0.41241(18) 0.55769(16) 1.01346(16)
N15 N 0.39761(17) 0.53183(18) 0.95053(16)
C67 C 0.4090(2) 0.47081(17) 0.93596(16)
C68 C 0.4308(2) 0.45895(18) 0.9899(2)
H59 H 0.4420 0.4217 0.9933
C69 C 0.4329(2) 0.5126(2) 1.03778(15)
H60 H 0.4458 0.5176 1.0789
C70 C 0.4004(3) 0.6157(3) 1.0404(3)
H61 H 0.4076 0.6396 1.0154
H62 H 0.4288 0.6319 1.0792
N16 N 0.2181(2) 0.90152(16) 1.33282(19)
C71 C 0.1830(2) 0.92332(19) 1.29163(15)
C72 C 0.1567(2) 0.9764(2) 1.3109(2)
H63 H 0.1328 0.9913 1.2828
C73 C 0.1655(3) 1.00759(19) 1.3714(2)
C74 C 0.2005(3) 0.9858(2) 1.41259(17)
H64 H 0.2065 1.0071 1.4539
C75 C 0.2268(2) 0.9328(2) 1.39329(18)
H65 H 0.2508 0.9179 1.4214
C76 C 0.1344(5) 1.0642(4) 1.3907(4)
H66 H 0.1389 1.0889 1.3656
H67 H 0.0917 1.0542 1.3857
O6 O 0.1587(9) 1.0959(7) 1.4499(6)
H68 H 0.1416 1.1273 1.4603
N17 N 0.1697(2) 0.80288(15) 1.15547(16)
N18 N 0.19010(18) 0.82968(18) 1.21790(16)
C77 C 0.1728(2) 0.88888(17) 1.23394(16)
C78 C 0.1417(2) 0.89867(18) 1.1814(2)
H69 H 0.1250 0.9345 1.1791
C79 C 0.1397(2) 0.8455(2) 1.13293(16)
H70 H 0.1216 0.8395 1.0925
C80 C 0.1820(3) 0.7463(3) 1.1259(3)
H71 H 0.1512 0.7302 1.0888
H72 H 0.1790 0.7212 1.1509
C81 C 0.33815(12) 0.62404(14) 1.05105(16)
C82 C 0.30153(15) 0.57314(12) 1.03931(16)
H73 H 0.3150 0.5350 1.0232
C83 C 0.24518(15) 0.57812(12) 1.05108(17)
H74 H 0.2201 0.5433 1.0430
C84 C 0.22546(11) 0.63399(13) 1.07459(16)
H75 H 0.1869 0.6374 1.0826
C85 C 0.26208(10) 0.68489(12) 1.08634(11)
C86 C 0.31843(10) 0.67991(12) 1.07457(12)
C87 C 0.35506(13) 0.73081(14) 1.08631(18)
H76 H 0.3936 0.7274 1.0783
C88 C 0.33534(17) 0.78668(13) 1.10982(19)
H77 H 0.3604 0.8215 1.1179
C89 C 0.27899(17) 0.79166(11) 1.12159(18)
H78 H 0.2655 0.8298 1.1377
C90 C 0.24236(13) 0.74076(13) 1.10985(17)
N19 N -0.14612(19) 0.61712(17) 0.54341(13)
C91 C -0.1559(2) 0.67474(15) 0.54346(14)
C92 C -0.1699(2) 0.68654(15) 0.48998(18)
H79 H -0.1766 0.7259 0.4900
C93 C -0.1741(2) 0.6407(2) 0.43645(14)
C94 C -0.1643(2) 0.58311(17) 0.43640(13)
H80 H -0.1671 0.5518 0.3998
C95 C -0.1503(2) 0.57130(14) 0.48988(16)
H81 H -0.1436 0.5319 0.4898
C96 C -0.1871(4) 0.6550(4) 0.3772(3)
H82 H -0.2062 0.6930 0.3834
H83 H -0.1493 0.6601 0.3657
O7 O -0.2237(3) 0.6105(3) 0.3314(2)
H84 H -0.2211 0.5783 0.3387
N20 N -0.1227(2) 0.75824(17) 0.69807(12)
N21 N -0.12486(19) 0.70525(14) 0.64935(16)
C97 C -0.1502(2) 0.71735(18) 0.59629(12)
C98 C -0.1637(3) 0.77782(19) 0.61222(18)
H85 H -0.1810 0.7978 0.5855
C99 C -0.1467(3) 0.80309(14) 0.67512(18)
H86 H -0.1507 0.8430 0.6979
C100 C -0.1031(3) 0.7600(3) 0.7561(3)
H87 H -0.0889 0.8015 0.7809
H88 H -0.0690 0.7353 0.7581
N22 N -0.15867(18) 0.84670(17) 1.16816(14)
C101 C -0.14319(19) 0.79000(15) 1.16691(13)
C102 C -0.1207(2) 0.77891(15) 1.21975(17)
H89 H -0.1101 0.7402 1.2189
C103 C -0.1136(2) 0.8245(2) 1.27384(14)
C104 C -0.1291(2) 0.88122(17) 1.27510(13)
H90 H -0.1243 0.9124 1.3121
C105 C -0.1516(2) 0.89231(14) 1.22226(17)
H91 H -0.1622 0.9311 1.2231
C106 C -0.0886(4) 0.8117(4) 1.3310(3)
H92 H -0.1049 0.7718 1.3272
H93 H -0.0452 0.8104 1.3354
O8 O -0.0997(5) 0.8521(4) 1.3822(3)
H94 H -0.0850 0.8861 1.3867
N23 N -0.18508(16) 0.70452(16) 1.01267(12)
N24 N -0.18090(16) 0.75805(13) 1.06122(15)
C107 C -0.15113(19) 0.74719(16) 1.11364(12)
C108 C -0.13691(19) 0.68694(17) 1.09749(16)
H95 H -0.1169 0.6677 1.1238
C109 C -0.15789(19) 0.66057(13) 1.03509(16)
H96 H -0.1544 0.6206 1.0123
C110 C -0.2062(3) 0.7007(3) 0.9550(3)
H97 H -0.2402 0.7256 0.9532
H98 H -0.2212 0.6590 0.9319
C111 C -0.14987(13) 0.73816(16) 0.78245(10)
C112 C -0.20736(14) 0.72029(17) 0.74962(10)
H99 H -0.2178 0.7203 0.7097
C113 C -0.24956(11) 0.70235(18) 0.77516(12)
H100 H -0.2889 0.6901 0.7527
C114 C -0.23427(9) 0.70227(16) 0.83354(12)
H101 H -0.2631 0.6900 0.8510
C115 C -0.17679(9) 0.72014(11) 0.86637(9)
C116 C -0.13458(9) 0.73808(10) 0.84083(9)
C117 C -0.07709(9) 0.75594(15) 0.87367(12)
H102 H -0.0483 0.7682 0.8562
C118 C -0.06181(10) 0.75587(16) 0.93205(12)
H103 H -0.0225 0.7681 0.9545
C119 C -0.10401(13) 0.73793(17) 0.95759(10)
H104 H -0.0936 0.7379 0.9975
C120 C -0.16150(12) 0.72006(16) 0.92475(10)
N25 N -0.00898(12) 0.61591(16) 0.62926(17)
C121 C 0.01555(15) 0.56373(13) 0.60250(17)
C122 C 0.07372(16) 0.56569(14) 0.59606(17)
H105 H 0.0905 0.5300 0.5778
C123 C 0.10737(12) 0.61982(18) 0.61637(19)
C124 C 0.08285(16) 0.67200(14) 0.64313(19)
H106 H 0.1058 0.7090 0.6570
C125 C 0.02467(17) 0.67005(13) 0.64957(18)
H107 H 0.0079 0.7057 0.6679
C126 C 0.1703(3) 0.6215(3) 0.6085(3)
H108 H 0.1733 0.6425 0.5798
H109 H 0.1968 0.6439 0.6471
O9 O 0.1883(2) 0.5642(2) 0.5879(2)
H110 H 0.2163 0.5593 0.6136
N26 N -0.10348(13) 0.45088(16) 0.56100(17)
N27 N -0.07837(16) 0.51049(13) 0.58770(16)
C127 C -0.01879(15) 0.51152(15) 0.58142(18)
C128 C -0.00708(14) 0.45255(18) 0.55083(19)
H111 H 0.0294 0.4403 0.5406
C129 C -0.05942(18) 0.41508(13) 0.53821(18)
H112 H -0.0641 0.3734 0.5181
C130 C -0.1567(3) 0.4325(3) 0.5686(3)
H113 H -0.1719 0.3946 0.5365
H114 H -0.1854 0.4624 0.5645
N28 N -0.34081(18) 0.1553(2) 0.7200(3)
C131 C -0.3774(2) 0.19804(18) 0.7440(3)
C132 C -0.4311(2) 0.1807(2) 0.7535(4)
H115 H -0.4561 0.2100 0.7699
C133 C -0.4480(2) 0.1207(3) 0.7388(4)
C134 C -0.4114(3) 0.0779(2) 0.7147(4)
H116 H -0.4230 0.0369 0.7046
C135 C -0.3578(2) 0.0952(2) 0.7053(4)
H117 H -0.3328 0.0660 0.6888
C136 C -0.5083(6) 0.1050(6) 0.7478(8)
H118 H -0.5129 0.1309 0.7874
H119 H -0.5393 0.1134 0.7174
O10 O -0.5171(6) 0.0470(6) 0.7443(9)
H120 H -0.5522 0.0400 0.7460
N29 N -0.30016(16) 0.27191(16) 0.7557(2)
N30 N -0.29101(15) 0.33495(16) 0.7774(2)
C137 C -0.3425(2) 0.35807(15) 0.7968(2)
H121 H -0.3484 0.3990 0.8133
C138 C -0.38343(15) 0.3093(2) 0.7869(2)
H122 H -0.4216 0.3119 0.7958
C139 C -0.35728(18) 0.25607(16) 0.7616(2)
C140 C -0.2427(3) 0.3637(3) 0.7722(3)
H123 H -0.2082 0.3405 0.7786
H124 H -0.2349 0.4028 0.8042
C141 C -0.15358(12) 0.42331(16) 0.62876(13)
C142 C -0.09971(11) 0.43634(17) 0.66966(15)
H125 H -0.0659 0.4505 0.6600
C143 C -0.09524(10) 0.42857(17) 0.72469(14)
H126 H -0.0584 0.4375 0.7526
C144 C -0.14465(12) 0.40779(17) 0.73883(11)
H127 H -0.1416 0.4025 0.7764
C145 C -0.19853(10) 0.39476(11) 0.69793(10)
C146 C -0.20299(10) 0.40253(12) 0.64289(10)
C147 C -0.25686(12) 0.38950(18) 0.60199(12)
H128 H -0.2599 0.3948 0.5644
C148 C -0.30627(10) 0.36872(19) 0.61612(16)
H129 H -0.3431 0.3598 0.5882
C149 C -0.30181(11) 0.36095(18) 0.67116(17)
H130 H -0.3356 0.3467 0.6808
C150 C -0.24794(12) 0.37397(17) 0.71206(13)
N31 N 0.44133(14) 0.6009(2) 0.86742(18)
C151 C 0.44757(16) 0.6094(2) 0.81483(15)
C152 C 0.50117(19) 0.6330(3) 0.81110(18)
H131 H 0.5054 0.6388 0.7752
C153 C 0.54852(15) 0.6481(3) 0.8600(2)
C154 C 0.54227(15) 0.6397(3) 0.91258(18)
H132 H 0.5746 0.6500 0.9460
C155 C 0.48868(17) 0.6161(2) 0.91630(16)
H133 H 0.4844 0.6103 0.9522
C156 C 0.6065(3) 0.6750(5) 0.8553(4)
H134 H 0.6185 0.6494 0.8191
H135 H 0.6003 0.7146 0.8509
O11 O 0.6522(2) 0.6810(4) 0.9050(3)
H136 H 0.6795 0.6600 0.8944
N32 N 0.30524(17) 0.5541(3) 0.7212(2)
N33 N 0.34770(19) 0.5673(3) 0.77571(17)
C157 C 0.39893(17) 0.5963(3) 0.7700(2)
C158 C 0.3881(2) 0.6009(3) 0.7119(2)
H137 H 0.4149 0.6184 0.6961
C159 C 0.3302(2) 0.5749(3) 0.68181(17)
H138 H 0.3115 0.5719 0.6422
C160 C 0.2483(3) 0.5322(4) 0.7163(3)
H139 H 0.2501 0.5026 0.7373
H140 H 0.2305 0.5113 0.6737
N34 N -0.19381(16) 0.5738(2) 0.65304(19)
C161 C -0.19150(18) 0.5671(2) 0.70824(18)
C162 C -0.2423(2) 0.5482(3) 0.7215(2)
H141 H -0.2408 0.5436 0.7592
C163 C -0.29547(19) 0.5359(3) 0.6795(3)
C164 C -0.29778(16) 0.5426(3) 0.6243(3)
H142 H -0.3341 0.5342 0.5956
C165 C -0.2469(2) 0.5616(3) 0.61106(18)
H143 H -0.2485 0.5661 0.5733
C166 C -0.3524(5) 0.5161(6) 0.6911(7)
H144 H -0.3464 0.4796 0.7022
H145 H -0.3619 0.5473 0.7255
O12 O -0.4010(5) 0.5044(7) 0.6424(7)
H146 H -0.4246 0.5311 0.6497
N35 N -0.04207(15) 0.61979(19) 0.78439(17)
N36 N -0.08952(18) 0.60474(19) 0.73363(13)
C167 C -0.13895(15) 0.5819(2) 0.74840(19)
C168 C -0.1220(2) 0.5829(2) 0.8083(2)
H147 H -0.1465 0.5701 0.8297
C169 C -0.0622(2) 0.6063(2) 0.83054(14)
H148 H -0.0395 0.6119 0.8695
C170 C 0.0141(3) 0.6417(3) 0.7847(3)
H149 H 0.0335 0.6653 0.8261
H150 H 0.0098 0.6687 0.7607
C171 C 0.20788(11) 0.58023(17) 0.74154(17)
C172 C 0.22917(13) 0.63974(18) 0.76357(19)
H151 H 0.2690 0.6504 0.7644
C173 C 0.19219(17) 0.68360(14) 0.78445(19)
H152 H 0.2067 0.7243 0.7995
C174 C 0.13391(16) 0.66794(11) 0.78330(17)
H153 H 0.1086 0.6979 0.7976
C175 C 0.11262(12) 0.60843(11) 0.76127(11)
C176 C 0.14960(11) 0.56457(12) 0.74039(11)
C177 C 0.12831(14) 0.50506(11) 0.71836(15)
H154 H 0.1536 0.4751 0.7041
C178 C 0.07003(15) 0.48940(12) 0.71720(16)
H155 H 0.0555 0.4487 0.7021
C179 C 0.03305(12) 0.53325(16) 0.73808(16)
H156 H -0.0068 0.5225 0.7373
C180 C 0.05434(12) 0.59277(14) 0.76011(16)
Cd1A Cd 0.10684(2) 0.39419(2) 1.36279(2)
Cd2A Cd -0.34952(2) 0.44412(2) 1.13231(2)
Cd3A Cd -0.19952(2) 0.85883(2) 1.07915(2)
Cd4A Cd -0.25226(2) 0.19305(2) 0.70613(2)
N1A N -0.22406(17) 0.8569(2) 0.98162(14)
C1A C -0.18077(14) 0.8790(2) 0.96019(17)
C2A C -0.19317(17) 0.8808(2) 0.90235(18)
H1A H -0.1636 0.8959 0.8877
C3A C -0.2489(2) 0.8606(2) 0.86595(15)
C4A C -0.29216(16) 0.8385(2) 0.88738(18)
H2A H -0.3302 0.8246 0.8625
C5A C -0.27976(15) 0.8366(2) 0.94522(19)
H3A H -0.3093 0.8215 0.9599
C6A C -0.2620(4) 0.8631(4) 0.8023(4)
H4A H -0.2504 0.8262 0.7754
H5A H -0.2381 0.8971 0.8011
O1A O -0.3223(5) 0.8692(12) 0.7822(8)
H6A H -0.3325 0.9002 0.8053
N2A N -0.05945(16) 0.92129(19) 1.08671(14)
N3A N -0.11694(15) 0.89454(18) 1.05582(16)
C7A C -0.12676(16) 0.8983(2) 0.99749(15)
C8A C -0.0753(2) 0.9274(2) 0.99233(16)
H7A H -0.0698 0.9359 0.9580
C9A C -0.03374(15) 0.9416(2) 1.04747(19)
H8A H 0.0046 0.9612 1.0565
C10A C -0.0349(3) 0.9201(3) 1.1434(3)
H9A H -0.0010 0.9506 1.1612
H10A H -0.0647 0.9316 1.1681
N4A N 0.2979(2) 0.8066(3) 1.38729(19)
C11A C 0.2640(2) 0.7822(3) 1.4163(2)
C12A C 0.2884(3) 0.7792(3) 1.4725(3)
H11A H 0.2652 0.7625 1.4923
C13A C 0.3468(3) 0.8005(4) 1.4996(2)
C14A C 0.3807(2) 0.8249(4) 1.4705(3)
H12A H 0.4206 0.8395 1.4890
C15A C 0.3563(2) 0.8279(3) 1.4144(3)
H13A H 0.3795 0.8446 1.3945
C16A C 0.3719(7) 0.7930(8) 1.5638(7)
H14A H 0.3539 0.7561 1.5660
H15A H 0.3632 0.8274 1.5960
O2A O 0.4350(8) 0.7902(13) 1.5691(10)
H16A H 0.4482 0.8167 1.5579
N5A N 0.12624(15) 0.7374(2) 1.31046(15)
N6A N 0.18594(16) 0.76164(19) 1.32924(17)
C17A C 0.20745(17) 0.7613(2) 1.38823(17)
C18A C 0.1611(2) 0.7368(2) 1.40590(15)
H17A H 0.1632 0.7313 1.4433
C19A C 0.11087(18) 0.7220(2) 1.3578(2)
H18A H 0.0736 0.7048 1.3574
C20A C 0.0913(3) 0.7346(3) 1.2561(3)
H19A H 0.1162 0.7255 1.2261
H20A H 0.0605 0.7013 1.2438
C21A C -0.01332(16) 0.86030(14) 1.14684(12)
C22A C -0.01593(16) 0.81421(16) 1.09382(10)
H21A H -0.0335 0.8193 1.0570
C23A C 0.00711(17) 0.76061(15) 1.09472(10)
H22A H 0.0053 0.7291 1.0585
C24A C 0.03277(16) 0.75311(12) 1.14865(12)
H23A H 0.0485 0.7165 1.1493
C25A C 0.03538(11) 0.79921(10) 1.20166(10)
C26A C 0.01234(11) 0.85280(10) 1.20076(10)
C27A C 0.01495(17) 0.89890(12) 1.25378(12)
H24A H -0.0008 0.9355 1.2532
C28A C 0.04060(18) 0.89140(15) 1.30770(10)
H25A H 0.0424 0.9229 1.3439
C29A C 0.06364(17) 0.83781(17) 1.30860(10)
H26A H 0.0812 0.8327 1.3455
C30A C 0.06103(16) 0.79171(14) 1.25559(12)
N7A N -0.2202(2) 0.96110(18) 1.1156(3)
C31A C -0.2775(2) 0.9711(2) 1.1235(3)
C32A C -0.2957(3) 1.0286(3) 1.1376(4)
H27A H -0.3349 1.0354 1.1430
C33A C -0.2567(3) 1.0760(2) 1.1439(4)
C34A C -0.1994(3) 1.0660(2) 1.1360(4)
H28A H -0.1728 1.0984 1.1403
C35A C -0.1812(2) 1.0085(2) 1.1219(3)
H29A H -0.1421 1.0017 1.1165
C36A C -0.2918(7) 1.1358(6) 1.1553(9)
H30A H -0.3045 1.1465 1.1936
H31A H -0.3266 1.1319 1.1226
O3A O -0.2498(6) 1.1754(5) 1.1564(6)
H32A H -0.2649 1.2070 1.1551
N8A N -0.3424(2) 0.82590(19) 1.0895(3)
N9A N -0.29530(18) 0.8666(2) 1.0937(3)
C37A C -0.3117(3) 0.92513(19) 1.1191(4)
C38A C -0.3689(3) 0.9206(2) 1.1306(4)
H33A H -0.3906 0.9529 1.1476
C39A C -0.3879(2) 0.8593(3) 1.1124(4)
H34A H -0.4246 0.8433 1.1150
C40A C -0.3376(3) 0.7657(4) 1.0706(4)
H35A H -0.3778 0.7453 1.0543
H36A H -0.3162 0.7557 1.0377
N10A N -0.30967(16) 0.35718(17) 1.09090(19)
C41A C -0.25062(16) 0.36088(17) 1.0876(2)
C42A C -0.22295(15) 0.3093(2) 1.0657(2)
H37A H -0.1826 0.3119 1.0634
C43A C -0.2543(2) 0.25409(18) 1.0470(2)
C44A C -0.3134(2) 0.25038(16) 1.0503(3)
H38A H -0.3348 0.2126 1.0375
C45A C -0.34105(15) 0.3019(2) 1.0722(2)
H39A H -0.3814 0.2994 1.0745
C46A C -0.2226(4) 0.1999(5) 1.0234(5)
H40A H -0.1796 0.2082 1.0407
H41A H -0.2287 0.1888 0.9796
O4A O -0.2450(7) 0.1528(6) 1.0386(7)
H42A H -0.2355 0.1605 1.0757
N11A N -0.20705(16) 0.51611(14) 1.15587(18)
N12A N -0.24870(12) 0.46591(18) 1.13633(18)
C47A C -0.22059(17) 0.41507(14) 1.1084(2)
C48A C -0.16157(15) 0.43384(19) 1.1106(2)
H43A H -0.1327 0.4090 1.0952
C49A C -0.15320(13) 0.49629(19) 1.1400(2)
H44A H -0.1178 0.5206 1.1476
C50A C -0.2220(3) 0.5741(3) 1.1789(3)
H45A H -0.2506 0.5747 1.2043
H46A H -0.1861 0.5992 1.2045
C51A C -0.30559(17) 0.74121(13) 1.11865(17)
C52A C -0.29457(19) 0.77650(13) 1.17815(19)
H47A H -0.3050 0.8165 1.1888
C53A C -0.26829(19) 0.75324(16) 1.22212(15)
H48A H -0.2608 0.7774 1.2628
C54A C -0.25302(17) 0.69470(16) 1.20660(11)
H49A H -0.2351 0.6788 1.2366
C55A C -0.26404(11) 0.65942(12) 1.14709(11)
C56A C -0.29032(11) 0.68267(12) 1.10312(12)
C57A C -0.30134(16) 0.64739(15) 1.04361(12)
H50A H -0.3193 0.6633 1.0136
C58A C -0.28608(17) 0.58885(15) 1.02808(12)
H51A H -0.2936 0.5647 0.9874
C59A C -0.25979(16) 0.56559(12) 1.07205(15)
H52A H -0.2494 0.5256 1.0614
C60A C -0.24877(15) 0.60087(13) 1.13156(14)
N13A N -0.37407(18) 0.54094(17) 1.1646(2)
C61A C -0.40074(19) 0.5646(2) 1.12103(16)
C62A C -0.4177(2) 0.6225(2) 1.1373(2)
H53A H -0.4359 0.6387 1.1075
C63A C -0.4080(2) 0.65681(17) 1.1970(3)
C64A C -0.3813(2) 0.6331(2) 1.24055(19)
H54A H -0.3746 0.6566 1.2814
C65A C -0.3644(2) 0.5752(2) 1.22431(18)
H55A H -0.3461 0.5590 1.2541
C66A C -0.4283(4) 0.7186(5) 1.2123(5)
H56A H -0.4035 0.7439 1.1993
H57A H -0.4237 0.7359 1.2559
O5A O -0.4867(4) 0.7175(5) 1.1847(5)
H58A H -0.4907 0.7024 1.1477
N14A N -0.41241(18) 0.44231(16) 0.98654(16)
N15A N -0.39761(17) 0.46817(18) 1.04947(16)
C67A C -0.4090(2) 0.52919(17) 1.06404(16)
C68A C -0.4308(2) 0.54105(18) 1.0101(2)
H59A H -0.4420 0.5783 1.0067
C69A C -0.4329(2) 0.4874(2) 0.96222(15)
H60A H -0.4458 0.4824 0.9211
C70A C -0.4004(3) 0.3843(3) 0.9596(3)
H61A H -0.4076 0.3604 0.9846
H62A H -0.4288 0.3681 0.9208
N16A N -0.2181(2) 0.09848(16) 0.66718(19)
C71A C -0.1830(2) 0.07668(19) 0.70837(15)
C72A C -0.1567(2) 0.0236(2) 0.6891(2)
H63A H -0.1328 0.0087 0.7172
C73A C -0.1655(3) -0.00759(19) 0.6286(2)
C74A C -0.2005(3) 0.0142(2) 0.58741(17)
H64A H -0.2065 -0.0071 0.5461
C75A C -0.2268(2) 0.0672(2) 0.60671(18)
H65A H -0.2508 0.0821 0.5786
C76A C -0.1344(5) -0.0642(4) 0.6093(4)
H66A H -0.1389 -0.0889 0.6344
H67A H -0.0917 -0.0542 0.6143
O6A O -0.1587(9) -0.0959(7) 0.5501(6)
H68A H -0.1416 -0.1273 0.5397
N17A N -0.1697(2) 0.19712(15) 0.84453(16)
N18A N -0.19010(18) 0.17032(18) 0.78210(16)
C77A C -0.1728(2) 0.11112(17) 0.76606(16)
C78A C -0.1417(2) 0.10133(18) 0.8186(2)
H69A H -0.1250 0.0655 0.8209
C79A C -0.1397(2) 0.1545(2) 0.86707(16)
H70A H -0.1216 0.1605 0.9075
C80A C -0.1820(3) 0.2537(3) 0.8741(3)
H71A H -0.1512 0.2698 0.9112
H72A H -0.1790 0.2788 0.8491
C81A C -0.33815(12) 0.37596(14) 0.94895(16)
C82A C -0.30153(15) 0.42686(12) 0.96069(16)
H73A H -0.3150 0.4650 0.9768
C83A C -0.24518(15) 0.42188(12) 0.94892(17)
H74A H -0.2201 0.4567 0.9570
C84A C -0.22546(11) 0.36601(13) 0.92541(16)
H75A H -0.1869 0.3626 0.9174
C85A C -0.26208(10) 0.31511(12) 0.91366(11)
C86A C -0.31843(10) 0.32009(12) 0.92543(12)
C87A C -0.35506(13) 0.26919(14) 0.91369(18)
H76A H -0.3936 0.2726 0.9217
C88A C -0.33534(17) 0.21332(13) 0.89018(19)
H77A H -0.3604 0.1785 0.8821
C89A C -0.27899(17) 0.20834(11) 0.87841(18)
H78A H -0.2655 0.1702 0.8623
C90A C -0.24236(13) 0.25924(13) 0.89015(17)
N19A N 0.14612(19) 0.38288(17) 1.45659(13)
C91A C 0.1559(2) 0.32526(15) 1.45654(14)
C92A C 0.1699(2) 0.31346(15) 1.51002(18)
H79A H 0.1766 0.2741 1.5100
C93A C 0.1741(2) 0.3593(2) 1.56355(14)
C94A C 0.1643(2) 0.41689(17) 1.56360(13)
H80A H 0.1671 0.4482 1.6002
C95A C 0.1503(2) 0.42870(14) 1.51012(16)
H81A H 0.1436 0.4681 1.5102
C96A C 0.1871(4) 0.3450(4) 1.6228(3)
H82A H 0.2062 0.3070 1.6166
H83A H 0.1493 0.3399 1.6343
O7A O 0.2237(3) 0.3895(3) 1.6686(2)
H84A H 0.2211 0.4217 1.6613
N20A N 0.1227(2) 0.24176(17) 1.30193(12)
N21A N 0.12486(19) 0.29475(14) 1.35065(16)
C97A C 0.1502(2) 0.28265(18) 1.40371(12)
C98A C 0.1637(3) 0.22218(19) 1.38778(18)
H85A H 0.1810 0.2022 1.4145
C99A C 0.1467(3) 0.19691(14) 1.32488(18)
H86A H 0.1507 0.1570 1.3021
C100A C 0.1031(3) 0.2400(3) 1.2439(3)
H87A H 0.0889 0.1985 1.2191
H88A H 0.0690 0.2647 1.2419
N22A N 0.15867(18) 0.15330(17) 0.83184(14)
C101A C 0.14319(19) 0.21000(15) 0.83309(13)
C102A C 0.1207(2) 0.22109(15) 0.78025(17)
H89A H 0.1101 0.2598 0.7811
C103A C 0.1136(2) 0.1755(2) 0.72616(14)
C104A C 0.1291(2) 0.11878(17) 0.72490(13)
H90A H 0.1243 0.0876 0.6879
C105A C 0.1516(2) 0.10769(14) 0.77774(17)
H91A H 0.1622 0.0689 0.7769
C106A C 0.0886(4) 0.1883(4) 0.6690(3)
H92A H 0.1049 0.2282 0.6728
H93A H 0.0452 0.1896 0.6646
O8A O 0.0997(5) 0.1479(4) 0.6178(3)
H94A H 0.0850 0.1139 0.6133
N23A N 0.18508(16) 0.29548(16) 0.98733(12)
N24A N 0.18090(16) 0.24195(13) 0.93878(15)
C107A C 0.15113(19) 0.25281(16) 0.88636(12)
C108A C 0.13691(19) 0.31306(17) 0.90251(16)
H95A H 0.1169 0.3323 0.8762
C109A C 0.15789(19) 0.33943(13) 0.96491(16)
H96A H 0.1544 0.3794 0.9877
C110A C 0.2062(3) 0.2993(3) 1.0450(3)
H97A H 0.2402 0.2744 1.0468
H98A H 0.2212 0.3410 1.0681
C111A C 0.14987(13) 0.26184(16) 1.21755(10)
C112A C 0.20736(14) 0.27971(17) 1.25038(10)
H99A H 0.2178 0.2797 1.2903
C113A C 0.24956(11) 0.29765(18) 1.22484(12)
H100A H 0.2889 0.3099 1.2473
C114A C 0.23427(9) 0.29773(16) 1.16646(12)
H101A H 0.2631 0.3100 1.1490
C115A C 0.17679(9) 0.27986(11) 1.13363(9)
C116A C 0.13458(9) 0.26192(10) 1.15917(9)
C117A C 0.07709(9) 0.24406(15) 1.12633(12)
H102A H 0.0483 0.2318 1.1438
C118A C 0.06181(10) 0.24413(16) 1.06795(12)
H103A H 0.0225 0.2319 1.0455
C119A C 0.10401(13) 0.26207(17) 1.04241(10)
H104A H 0.0936 0.2621 1.0025
C120A C 0.16150(12) 0.27994(16) 1.07525(10)
N25A N 0.00898(12) 0.38409(16) 1.37074(17)
C121A C -0.01555(15) 0.43627(13) 1.39750(17)
C122A C -0.07372(16) 0.43431(14) 1.40394(17)
H105A H -0.0905 0.4700 1.4222
C123A C -0.10737(12) 0.38018(18) 1.38363(19)
C124A C -0.08285(16) 0.32800(14) 1.35687(19)
H106A H -0.1058 0.2910 1.3430
C125A C -0.02467(17) 0.32995(13) 1.35043(18)
H107A H -0.0079 0.2943 1.3321
C126A C -0.1703(3) 0.3785(3) 1.3915(3)
H108A H -0.1733 0.3575 1.4202
H109A H -0.1968 0.3561 1.3529
O9A O -0.1883(2) 0.4358(2) 1.4121(2)
H110A H -0.2163 0.4407 1.3864
N26A N 0.10348(13) 0.54912(16) 1.43900(17)
N27A N 0.07837(16) 0.48951(13) 1.41230(16)
C127A C 0.01879(15) 0.48848(15) 1.41858(18)
C128A C 0.00708(14) 0.54745(18) 1.44917(19)
H111A H -0.0294 0.5597 1.4594
C129A C 0.05942(18) 0.58492(13) 1.46179(18)
H112A H 0.0641 0.6266 1.4819
C130A C 0.1567(3) 0.5675(3) 1.4314(3)
H113A H 0.1719 0.6054 1.4635
H114A H 0.1854 0.5376 1.4355
N28A N 0.34081(18) 0.8447(2) 1.2800(3)
C131A C 0.3774(2) 0.80196(18) 1.2560(3)
C132A C 0.4311(2) 0.8193(2) 1.2465(4)
H115A H 0.4561 0.7900 1.2301
C133A C 0.4480(2) 0.8793(3) 1.2612(4)
C134A C 0.4114(3) 0.9221(2) 1.2853(4)
H116A H 0.4230 0.9631 1.2954
C135A C 0.3578(2) 0.9048(2) 1.2947(4)
H117A H 0.3328 0.9340 1.3112
C136A C 0.5083(6) 0.8950(6) 1.2522(8)
H118A H 0.5129 0.8691 1.2126
H119A H 0.5393 0.8866 1.2826
O10A O 0.5171(6) 0.9530(6) 1.2557(9)
H120A H 0.5522 0.9600 1.2540
N29A N 0.30016(16) 0.72809(16) 1.2443(2)
N30A N 0.29101(15) 0.66505(16) 1.2226(2)
C137A C 0.3425(2) 0.64193(15) 1.2032(2)
H121A H 0.3484 0.6010 1.1867
C138A C 0.38343(15) 0.6907(2) 1.2131(2)
H122A H 0.4216 0.6881 1.2042
C139A C 0.35728(18) 0.74393(16) 1.2384(2)
C140A C 0.2427(3) 0.6363(3) 1.2278(3)
H123A H 0.2082 0.6595 1.2214
H124A H 0.2349 0.5972 1.1958
C141A C 0.15358(12) 0.57669(16) 1.37124(13)
C142A C 0.09971(11) 0.56366(17) 1.33034(15)
H125A H 0.0659 0.5495 1.3400
C143A C 0.09524(10) 0.57143(17) 1.27531(14)
H126A H 0.0584 0.5625 1.2474
C144A C 0.14465(12) 0.59221(17) 1.26117(11)
H127A H 0.1416 0.5975 1.2236
C145A C 0.19853(10) 0.60524(11) 1.30207(10)
C146A C 0.20299(10) 0.59747(12) 1.35711(10)
C147A C 0.25686(12) 0.61050(18) 1.39801(12)
H128A H 0.2599 0.6052 1.4356
C148A C 0.30627(10) 0.63128(19) 1.38388(16)
H129A H 0.3431 0.6402 1.4118
C149A C 0.30181(11) 0.63905(18) 1.32884(17)
H130A H 0.3356 0.6533 1.3192
C150A C 0.24794(12) 0.62603(17) 1.28794(13)
N31A N -0.44133(14) 0.3991(2) 1.13258(18)
C151A C -0.44757(16) 0.3906(2) 1.18517(15)
C152A C -0.50117(19) 0.3670(3) 1.18890(18)
H131A H -0.5054 0.3612 1.2248
C153A C -0.54852(15) 0.3519(3) 1.1400(2)
C154A C -0.54227(15) 0.3603(3) 1.08742(18)
H132A H -0.5746 0.3500 1.0540
C155A C -0.48868(17) 0.3839(2) 1.08370(16)
H133A H -0.4844 0.3897 1.0478
C156A C -0.6065(3) 0.3250(5) 1.1447(4)
H134A H -0.6185 0.3506 1.1809
H135A H -0.6003 0.2854 1.1491
O11A O -0.6522(2) 0.3190(4) 1.0950(3)
H136A H -0.6795 0.3400 1.1056
N32A N -0.30524(17) 0.4459(3) 1.2788(2)
N33A N -0.34770(19) 0.4327(3) 1.22429(17)
C157A C -0.39893(17) 0.4037(3) 1.2300(2)
C158A C -0.3881(2) 0.3991(3) 1.2881(2)
H137A H -0.4149 0.3816 1.3039
C159A C -0.3302(2) 0.4251(3) 1.31819(17)
H138A H -0.3115 0.4281 1.3578
C160A C -0.2483(3) 0.4678(4) 1.2837(3)
H139A H -0.2501 0.4974 1.2627
H140A H -0.2305 0.4887 1.3263
N34A N 0.19381(16) 0.4262(2) 1.34696(19)
C161A C 0.19150(18) 0.4329(2) 1.29176(18)
C162A C 0.2423(2) 0.4518(3) 1.2785(2)
H141A H 0.2408 0.4564 1.2408
C163A C 0.29547(19) 0.4641(3) 1.3205(3)
C164A C 0.29778(16) 0.4574(3) 1.3757(3)
H142A H 0.3341 0.4658 1.4044
C165A C 0.2469(2) 0.4384(3) 1.38894(18)
H143A H 0.2485 0.4339 1.4267
C166A C 0.3524(5) 0.4839(6) 1.3089(7)
H144A H 0.3464 0.5204 1.2978
H145A H 0.3619 0.4527 1.2745
O12A O 0.4010(5) 0.4956(7) 1.3576(7)
H146A H 0.4246 0.4689 1.3503
N35A N 0.04207(15) 0.38021(19) 1.21561(17)
N36A N 0.08952(18) 0.39526(19) 1.26637(13)
C167A C 0.13895(15) 0.4181(2) 1.25160(19)
C168A C 0.1220(2) 0.4171(2) 1.1917(2)
H147A H 0.1465 0.4299 1.1703
C169A C 0.0622(2) 0.3937(2) 1.16946(14)
H148A H 0.0395 0.3881 1.1305
C170A C -0.0141(3) 0.3583(3) 1.2153(3)
H149A H -0.0335 0.3347 1.1739
H150A H -0.0098 0.3313 1.2393
C171A C -0.20788(11) 0.41977(17) 1.25846(17)
C172A C -0.22917(13) 0.36026(18) 1.23643(19)
H151A H -0.2690 0.3496 1.2356
C173A C -0.19219(17) 0.31640(14) 1.21555(19)
H152A H -0.2067 0.2757 1.2005
C174A C -0.13391(16) 0.33206(11) 1.21670(17)
H153A H -0.1086 0.3021 1.2024
C175A C -0.11262(12) 0.39157(11) 1.23873(11)
C176A C -0.14960(11) 0.43543(12) 1.25961(11)
C177A C -0.12831(14) 0.49494(11) 1.28164(15)
H154A H -0.1536 0.5249 1.2959
C178A C -0.07003(15) 0.51060(12) 1.28280(16)
H155A H -0.0555 0.5513 1.2979
C179A C -0.03305(12) 0.46675(16) 1.26192(16)
H156A H 0.0068 0.4775 1.2627
C180A C -0.05434(12) 0.40723(14) 1.23989(16)
N37 N 0.0616(3) 0.3512(3) 0.7476(3)
O20 O 0.0633(4) 0.3759(3) 0.8003(3)
O21 O 0.0141(3) 0.3354(4) 0.7124(3)
O22 O 0.1077(2) 0.3451(3) 0.7279(3)
N38 N 0.0954(3) 0.0493(3) 0.1789(3)
O23 O 0.0894(2) 0.0144(2) 0.1281(2)
O24 O 0.1176(4) 0.0991(3) 0.1906(4)
O25 O 0.0750(3) 0.0337(3) 0.2149(3)
N39 N 0.9253(4) 0.3071(4) 0.0334(4)
O26 O 0.9064(4) 0.2535(4) 0.0015(4)
O27 O 0.9377(6) 0.3407(5) 0.0114(5)
O28 O 0.9253(4) 0.3164(4) 0.0843(3)
N40 N 0.5012(3) 0.7371(4) 0.0550(4)
O29 O 0.5314(3) 0.6953(4) 0.0516(3)
O30 O 0.5042(4) 0.7753(5) 0.1048(4)
O31 O 0.4672(4) 0.7397(4) 0.0109(4)
N41 N 0.6877(5) 0.5329(5) 0.8520(5)
O32 O 0.7132(5) 0.5797(5) 0.8815(5)
O33 O 0.7161(5) 0.4932(5) 0.8268(6)
O34 O 0.6346(5) 0.5264(8) 0.8405(9)
N42 N 0.2676(9) 0.969(2) 0.1061(10)
O35 O 0.2201(8) 0.9604(9) 0.0689(7)
O36 O 0.3151(9) 0.961(3) 0.0891(16)
O37 O 0.2676(11) 0.9750(12) 0.1588(8)
N43 N 0.8551(6) 0.2421(5) 0.4405(5)
O38 O 0.8617(5) 0.2923(5) 0.4789(5)
O39 O 0.8213(7) 0.2331(7) 0.3910(5)
O40 O 0.8926(10) 0.2057(8) 0.4449(9)
N45 N 0.0116(3) 0.5529(3) 0.0798(3)
C181 C -0.0450(5) 0.5614(6) 0.0467(5)
H178 H -0.0399 0.5912 0.0277
H179 H -0.0719 0.5750 0.0738
H180 H -0.0617 0.5236 0.0161
C182 C 0.0109(5) 0.5091(5) 0.1085(5)
H181 H 0.0515 0.4999 0.1217
H182 H -0.0121 0.4729 0.0805
H183 H -0.0071 0.5245 0.1430
C183 C 0.0624(4) 0.5853(5) 0.0841(4)
H184 H 0.0598 0.6097 0.0596
O44 O 0.1092(4) 0.5861(6) 0.1150(4)
N46 N 0.9382(3) 0.1388(4) 0.1105(5)
C184 C 0.9649(6) 0.0947(6) 0.1310(8)
H185 H 0.9999 0.0838 0.1142
H186 H 0.9369 0.0597 0.1185
H187 H 0.9768 0.1097 0.1745
C185 C 0.9167(6) 0.1196(7) 0.0450(5)
H188 H 0.8824 0.0907 0.0332
H189 H 0.9483 0.1011 0.0257
H190 H 0.9053 0.1542 0.0328
C186 C 0.9334(4) 0.1955(4) 0.1446(6)
H191 H 0.9127 0.2211 0.1257
O45 O 0.9541(3) 0.2157(3) 0.1982(4)
N47 N 0.0364(3) 0.2610(3) 0.5195(3)
C187 C 0.0195(4) 0.2821(4) 0.4699(3)
H192 H 0.0347 0.2569 0.4362
H193 H 0.0361 0.3232 0.4808
H194 H -0.0237 0.2806 0.4586
C188 C 0.0186(5) 0.2940(5) 0.5732(4)
H195 H -0.0246 0.2897 0.5668
H196 H 0.0318 0.3361 0.5843
H197 H 0.0364 0.2787 0.6053
C189 C 0.0677(4) 0.2133(4) 0.5150(4)
H198 H 0.0776 0.2011 0.5492
O46 O 0.0847(3) 0.1841(3) 0.4712(3)
N48 N 0.5026(7) 0.8024(8) 0.8914(7)
C190 C 0.5151(15) 0.8058(16) 0.8374(11)
H199 H 0.4796 0.8156 0.8135
H200 H 0.5272 0.7674 0.8149
H201 H 0.5471 0.8368 0.8466
C191 C 0.4411(8) 0.7847(11) 0.8836(11)
H202 H 0.4378 0.7488 0.8946
H203 H 0.4211 0.7765 0.8419
H204 H 0.4226 0.8168 0.9090
C192 C 0.5400(7) 0.8060(9) 0.9427(8)
H205 H 0.5235 0.8024 0.9743
O47 O 0.5913(7) 0.8131(7) 0.9512(7)
N49 N 0.5089(4) 0.4409(5) 0.7369(5)
C193 C 0.5265(7) 0.4578(8) 0.7986(7)
H206 H 0.5308 0.4991 0.8206
C194 C 0.4851(9) 0.4764(9) 0.7002(9)
H207 H 0.4547 0.4521 0.6663
H208 H 0.5169 0.4905 0.6856
H209 H 0.4674 0.5106 0.7238
C195 C 0.5060(8) 0.3787(7) 0.7008(8)
H210 H 0.4707 0.3694 0.6684
H211 H 0.5039 0.3536 0.7256
H212 H 0.5414 0.3712 0.6841
O48 O 0.5367(5) 0.4230(5) 0.8261(5)
N50 N 0.3742(6) 0.5421(8) 0.5327(8)
C196 C 0.4253(10) 0.5064(12) 0.5438(13)
H213 H 0.4609 0.5248 0.5386
H214 H 0.4315 0.5051 0.5845
H215 H 0.4170 0.4658 0.5155
C197 C 0.3917(12) 0.5943(11) 0.5197(13)
H216 H 0.4340 0.5950 0.5196
H217 H 0.3689 0.5932 0.4806
H218 H 0.3841 0.6302 0.5502
C198 C 0.3170(6) 0.5318(8) 0.5352(8)
H219 H 0.3074 0.4957 0.5413
O49 O 0.2795(4) 0.5617(4) 0.5309(4)
N51 N 0.9420(4) 0.1150(4) 0.2909(4)
C199 C 0.8887(6) 0.1451(7) 0.2842(7)
H220 H 0.8546 0.1157 0.2662
H221 H 0.8909 0.1692 0.2585
H222 H 0.8843 0.1710 0.3233
C200 C 0.9973(7) 0.1526(9) 0.3160(9)
H223 H 1.0306 0.1274 0.3170
H224 H 0.9970 0.1782 0.3565
H225 H 1.0014 0.1773 0.2913
C201 C 0.9491(6) 0.0541(5) 0.2710(6)
H226 H 0.9870 0.0391 0.2769
O50 O 0.9063(4) 0.0222(4) 0.2466(4)
N52 N 0.9393(7) 0.0525(9) 0.4723(8)
C202 C 0.9376(12) 0.0978(13) 0.5277(12)
H227 H 0.9541 0.1359 0.5280
H228 H 0.8965 0.1013 0.5321
H229 H 0.9609 0.0869 0.5608
C203 C 0.9649(19) 0.072(2) 0.4338(19)
H230 H 0.9761 0.1151 0.4516
H231 H 1.0002 0.0510 0.4268
H232 H 0.9364 0.0645 0.3958
C204 C 0.9190(13) 0.0000(15) 0.4657(14)
H233 H 0.8947 -0.0103 0.4887
O51 O 0.9381(9) -0.0370(10) 0.4209(10)
O52 O 0.1647(3) 0.4614(4) 0.0810(4)
O53 O 0.6723(10) 0.5992(10) 0.3848(10)
H157? H 0.2312 0.1568 1.2181
H158? H 0.2598 0.0948 1.1960
O13? O 0.3177(7) 0.1641(12) 1.2311(9)
H159? H 0.3442 0.1465 1.2148
H160? H -0.3884 0.2462 0.4412
H161? H -0.3396 0.2046 0.4146
O14? O -0.4173(10) 0.1600(10) 0.4031(11)
H162? H -0.4480 0.1671 0.4168
H163? H 0.2523 0.8317 1.0048
H164? H 0.2053 0.8141 0.9430
O15? O 0.1750(7) 0.7938(8) 1.0071(8)
H165? H 0.1486 0.7681 0.9835
H166? H 0.4652 0.2814 0.8167
H167? H 0.3980 0.2545 0.7920
O16? O 0.4384(10) 0.2595(10) 0.7314(8)
H168? H 0.4498 0.2250 0.7256
H169? H 0.1605 1.0987 1.3936
H170? H 0.0978 1.0621 1.3606
O17? O 0.1201(11) 1.0722(10) 1.4464(8)
H171? H 0.1027 1.1036 1.4562
H172? H -0.0483 0.7984 1.3302
H173? H -0.0854 0.8488 1.3651
O18? O -0.1237(9) 0.7682(8) 1.3387(9)
H174? H -0.1262 0.7366 1.3099
H175? H -0.5205 0.0631 0.7230
H176? H -0.5037 0.1071 0.7899
O19? O -0.5535(9) 0.1392(11) 0.7350(15)
H177? H -0.5851 0.1255 0.7395
N44? N 0.8277(6) 0.2549(6) 0.4449(7)
O41? O 0.8786(5) 0.2792(7) 0.4728(7)
O42? O 0.7848(6) 0.2843(8) 0.4581(10)
O43? O 0.8194(9) 0.1999(6) 0.4367(11)
loop_
_geom_bond_atom_site_label_1
_geom_bond_atom_site_label_2
_geom_bond_site_symmetry_1
_geom_bond_site_symmetry_2
Cd1 N19 1_555 1_555
Cd2 N10 1_555 1_555
Cd3 N1 1_555 1_555
Cd4 N16 1_555 1_555
N1 C1 1_555 1_555
C1 C2 1_555 1_555
C2 H1 1_555 1_555
C3 C2 1_555 1_555
C4 C3 1_555 1_555
H2 C4 1_555 1_555
C5 N1 1_555 1_555
H3 C5 1_555 1_555
C6 C3 1_555 1_555
H4 C6 1_555 1_555
H5 C6 1_555 1_555
O1 C6 1_555 1_555
H6 O1 1_555 1_555
N2 N3 1_555 1_555
N3 Cd3 1_555 1_555
C7 C1 1_555 1_555
C8 C7 1_555 1_555
H7 C8 1_555 1_555
C9 N2 1_555 1_555
H8 C9 1_555 1_555
C10 N2 1_555 1_555
H9 C10 1_555 1_555
H10 C10 1_555 1_555
N4 C11 1_555 1_555
C11 C12 1_555 1_555
C12 H11 1_555 1_555
C13 C12 1_555 1_555
C14 C13 1_555 1_555
H12 C14 1_555 1_555
C15 N4 1_555 1_555
H13 C15 1_555 1_555
C16 C13 1_555 1_555
H14 C16 1_555 1_555
H15 C16 1_555 1_555
O2 C16 1_555 1_555
H16 O2 1_555 1_555
N5 N6 1_555 1_555
N6 C17 1_555 1_555
C17 C11 1_555 1_555
C18 C17 1_555 1_555
H17 C18 1_555 1_555
C19 N5 1_555 1_555
H18 C19 1_555 1_555
C20 N5 1_555 1_555
H19 C20 1_555 1_555
H20 C20 1_555 1_555
C21 C10 1_555 1_555
C22 C21 1_555 1_555
H21 C22 1_555 1_555
C23 C22 1_555 1_555
H22 C23 1_555 1_555
C24 C23 1_555 1_555
H23 C24 1_555 1_555
C25 C24 1_555 1_555
C26 C21 1_555 1_555
C27 C26 1_555 1_555
H24 C27 1_555 1_555
C28 C27 1_555 1_555
H25 C28 1_555 1_555
C29 C28 1_555 1_555
H26 C29 1_555 1_555
C30 C20 1_555 1_555
N7 Cd3 1_555 1_555
C31 N7 1_555 1_555
C32 C31 1_555 1_555
H27 C32 1_555 1_555
C33 C32 1_555 1_555
C34 C33 1_555 1_555
H28 C34 1_555 1_555
C35 N7 1_555 1_555
H29 C35 1_555 1_555
C36 C33 1_555 1_555
H30 C36 1_555 1_555
H31 C36 1_555 1_555
O3 C36 1_555 1_555
H32 O3 1_555 1_555
N8 N9 1_555 1_555
N9 Cd3 1_555 1_555
C37 C31 1_555 1_555
C38 C37 1_555 1_555
H33 C38 1_555 1_555
C39 N8 1_555 1_555
H34 C39 1_555 1_555
C40 N8 1_555 1_555
H35 C40 1_555 1_555
H36 C40 1_555 1_555
N10 C41 1_555 1_555
C41 C42 1_555 1_555
C42 H37 1_555 1_555
C43 C42 1_555 1_555
C44 C43 1_555 1_555
H38 C44 1_555 1_555
C45 N10 1_555 1_555
H39 C45 1_555 1_555
C46 C43 1_555 1_555
H40 C46 1_555 1_555
H41 C46 1_555 1_555
O4 C46 1_555 1_555
H42 O4 1_555 1_555
N11 N12 1_555 1_555
N12 Cd2 1_555 1_555
C47 C41 1_555 1_555
C48 C47 1_555 1_555
H43 C48 1_555 1_555
C49 N11 1_555 1_555
H44 C49 1_555 1_555
C50 N11 1_555 1_555
H45 C50 1_555 1_555
H46 C50 1_555 1_555
C51 C40 1_555 1_555
C52 C51 1_555 1_555
H47 C52 1_555 1_555
C53 C52 1_555 1_555
H48 C53 1_555 1_555
C54 C53 1_555 1_555
H49 C54 1_555 1_555
C55 C54 1_555 1_555
C56 C51 1_555 1_555
C57 C56 1_555 1_555
H50 C57 1_555 1_555
C58 C57 1_555 1_555
H51 C58 1_555 1_555
C59 C58 1_555 1_555
H52 C59 1_555 1_555
C60 C50 1_555 1_555
N13 Cd2 1_555 1_555
C61 N13 1_555 1_555
C62 C61 1_555 1_555
H53 C62 1_555 1_555
C63 C62 1_555 1_555
C64 C63 1_555 1_555
H54 C64 1_555 1_555
C65 N13 1_555 1_555
H55 C65 1_555 1_555
C66 C63 1_555 1_555
H56 C66 1_555 1_555
H57 C66 1_555 1_555
O5 C66 1_555 1_555
H58 O5 1_555 1_555
N14 N15 1_555 1_555
N15 Cd2 1_555 1_555
C67 C61 1_555 1_555
C68 C67 1_555 1_555
H59 C68 1_555 1_555
C69 N14 1_555 1_555
H60 C69 1_555 1_555
C70 N14 1_555 1_555
H61 C70 1_555 1_555
H62 C70 1_555 1_555
N16 C71 1_555 1_555
C71 C72 1_555 1_555
C72 H63 1_555 1_555
C73 C72 1_555 1_555
C74 C73 1_555 1_555
H64 C74 1_555 1_555
C75 N16 1_555 1_555
H65 C75 1_555 1_555
C76 C73 1_555 1_555
H66 C76 1_555 1_555
H67 C76 1_555 1_555
O6 C76 1_555 1_555
H68 O6 1_555 1_555
N17 N18 1_555 1_555
N18 Cd4 1_555 1_555
C77 C71 1_555 1_555
C78 C77 1_555 1_555
H69 C78 1_555 1_555
C79 N17 1_555 1_555
H70 C79 1_555 1_555
C80 N17 1_555 1_555
H71 C80 1_555 1_555
H72 C80 1_555 1_555
C81 C70 1_555 1_555
C82 C81 1_555 1_555
H73 C82 1_555 1_555
C83 C82 1_555 1_555
H74 C83 1_555 1_555
C84 C83 1_555 1_555
H75 C84 1_555 1_555
C85 C84 1_555 1_555
C86 C81 1_555 1_555
C87 C86 1_555 1_555
H76 C87 1_555 1_555
C88 C87 1_555 1_555
H77 C88 1_555 1_555
C89 C88 1_555 1_555
H78 C89 1_555 1_555
C90 C80 1_555 1_555
N19 C91 1_555 1_555
C91 C92 1_555 1_555
C92 H79 1_555 1_555
C93 C92 1_555 1_555
C94 C93 1_555 1_555
H80 C94 1_555 1_555
C95 N19 1_555 1_555
H81 C95 1_555 1_555
C96 C93 1_555 1_555
H82 C96 1_555 1_555
H83 C96 1_555 1_555
O7 C96 1_555 1_555
H84 O7 1_555 1_555
N20 N21 1_555 1_555
N21 Cd1 1_555 1_555
C97 C91 1_555 1_555
C98 C97 1_555 1_555
H85 C98 1_555 1_555
C99 N20 1_555 1_555
H86 C99 1_555 1_555
C100 N20 1_555 1_555
H87 C100 1_555 1_555
H88 C100 1_555 1_555
N22 C101 1_555 1_555
C101 C102 1_555 1_555
C102 H89 1_555 1_555
C103 C102 1_555 1_555
C104 C103 1_555 1_555
H90 C104 1_555 1_555
C105 N22 1_555 1_555
H91 C105 1_555 1_555
C106 C103 1_555 1_555
H92 C106 1_555 1_555
H93 C106 1_555 1_555
O8 C106 1_555 1_555
H94 O8 1_555 1_555
N23 N24 1_555 1_555
N24 C107 1_555 1_555
C107 C101 1_555 1_555
C108 C107 1_555 1_555
H95 C108 1_555 1_555
C109 N23 1_555 1_555
H96 C109 1_555 1_555
C110 N23 1_555 1_555
H97 C110 1_555 1_555
H98 C110 1_555 1_555
C111 C100 1_555 1_555
C112 C111 1_555 1_555
H99 C112 1_555 1_555
C113 C112 1_555 1_555
H100 C113 1_555 1_555
C114 C113 1_555 1_555
H101 C114 1_555 1_555
C115 C114 1_555 1_555
C116 C111 1_555 1_555
C117 C116 1_555 1_555
H102 C117 1_555 1_555
C118 C117 1_555 1_555
H103 C118 1_555 1_555
C119 C118 1_555 1_555
H104 C119 1_555 1_555
C120 C110 1_555 1_555
N25 Cd1 1_555 1_555
C121 N25 1_555 1_555
C122 C121 1_555 1_555
H105 C122 1_555 1_555
C123 C122 1_555 1_555
C124 C123 1_555 1_555
H106 C124 1_555 1_555
C125 N25 1_555 1_555
H107 C125 1_555 1_555
C126 C123 1_555 1_555
H108 C126 1_555 1_555
H109 C126 1_555 1_555
O9 C126 1_555 1_555
H110 O9 1_555 1_555
N26 N27 1_555 1_555
N27 Cd1 1_555 1_555
C127 C121 1_555 1_555
C128 C127 1_555 1_555
H111 C128 1_555 1_555
C129 N26 1_555 1_555
H112 C129 1_555 1_555
C130 N26 1_555 1_555
H113 C130 1_555 1_555
H114 C130 1_555 1_555
N28 C131 1_555 1_555
C131 C132 1_555 1_555
C132 H115 1_555 1_555
C133 C132 1_555 1_555
C134 C133 1_555 1_555
H116 C134 1_555 1_555
C135 N28 1_555 1_555
H117 C135 1_555 1_555
C136 C133 1_555 1_555
H118 C136 1_555 1_555
H119 C136 1_555 1_555
O10 C136 1_555 1_555
H120 O10 1_555 1_555
N29 N30 1_555 1_555
N30 C137 1_555 1_555
C137 H121 1_555 1_555
C138 C137 1_555 1_555
H122 C138 1_555 1_555
C139 C131 1_555 1_555
C140 N30 1_555 1_555
H123 C140 1_555 1_555
H124 C140 1_555 1_555
C141 C130 1_555 1_555
C142 C141 1_555 1_555
H125 C142 1_555 1_555
C143 C142 1_555 1_555
H126 C143 1_555 1_555
C144 C143 1_555 1_555
H127 C144 1_555 1_555
C145 C144 1_555 1_555
C146 C141 1_555 1_555
C147 C146 1_555 1_555
H128 C147 1_555 1_555
C148 C147 1_555 1_555
H129 C148 1_555 1_555
C149 C148 1_555 1_555
H130 C149 1_555 1_555
C150 C140 1_555 1_555
N31 Cd2 1_555 1_555
C151 N31 1_555 1_555
C152 C151 1_555 1_555
H131 C152 1_555 1_555
C153 C152 1_555 1_555
C154 C153 1_555 1_555
H132 C154 1_555 1_555
C155 N31 1_555 1_555
H133 C155 1_555 1_555
C156 C153 1_555 1_555
H134 C156 1_555 1_555
H135 C156 1_555 1_555
O11 C156 1_555 1_555
H136 O11 1_555 1_555
N32 N33 1_555 1_555
N33 Cd2 1_555 1_555
C157 C151 1_555 1_555
C158 C157 1_555 1_555
H137 C158 1_555 1_555
C159 N32 1_555 1_555
H138 C159 1_555 1_555
C160 N32 1_555 1_555
H139 C160 1_555 1_555
H140 C160 1_555 1_555
N34 Cd1 1_555 1_555
C161 N34 1_555 1_555
C162 C161 1_555 1_555
H141 C162 1_555 1_555
C163 C162 1_555 1_555
C164 C163 1_555 1_555
H142 C164 1_555 1_555
C165 N34 1_555 1_555
H143 C165 1_555 1_555
C166 C163 1_555 1_555
H144 C166 1_555 1_555
H145 C166 1_555 1_555
O12 C166 1_555 1_555
H146 O12 1_555 1_555
N35 N36 1_555 1_555
N36 Cd1 1_555 1_555
C167 C161 1_555 1_555
C168 C167 1_555 1_555
H147 C168 1_555 1_555
C169 N35 1_555 1_555
H148 C169 1_555 1_555
C170 N35 1_555 1_555
H149 C170 1_555 1_555
H150 C170 1_555 1_555
C171 C160 1_555 1_555
C172 C171 1_555 1_555
H151 C172 1_555 1_555
C173 C172 1_555 1_555
H152 C173 1_555 1_555
C174 C173 1_555 1_555
H153 C174 1_555 1_555
C175 C174 1_555 1_555
C176 C171 1_555 1_555
C177 C176 1_555 1_555
H154 C177 1_555 1_555
C178 C177 1_555 1_555
H155 C178 1_555 1_555
C179 C178 1_555 1_555
H156 C179 1_555 1_555
C180 C170 1_555 1_555
N37 O20 1_555 1_555
O21 N37 1_555 1_555
O22 N37 1_555 1_555
N38 O23 1_555 1_555
O24 N38 1_555 1_555
O25 N38 1_555 1_555
N39 O26 1_555 1_555
O27 N39 1_555 1_555
O28 N39 1_555 1_555
N40 O29 1_555 1_555
O30 N40 1_555 1_555
O31 N40 1_555 1_555
N41 O32 1_555 1_555
O33 N41 1_555 1_555
O34 N41 1_555 1_555
N42 O35 1_555 1_555
O36 N42 1_555 1_555
O37 N42 1_555 1_555
N43 O38 1_555 1_555
O39 N43 1_555 1_555
O40 N43 1_555 1_555
N45 C181 1_555 1_555
C181 H178 1_555 1_555
H179 C181 1_555 1_555
H180 C181 1_555 1_555
C182 N45 1_555 1_555
H181 C182 1_555 1_555
H182 C182 1_555 1_555
H183 C182 1_555 1_555
C183 N45 1_555 1_555
H184 C183 1_555 1_555
O44 C183 1_555 1_555
N46 C184 1_555 1_555
C184 H185 1_555 1_555
H186 C184 1_555 1_555
H187 C184 1_555 1_555
C185 N46 1_555 1_555
H188 C185 1_555 1_555
H189 C185 1_555 1_555
H190 C185 1_555 1_555
C186 N46 1_555 1_555
H191 C186 1_555 1_555
O45 C186 1_555 1_555
N47 C187 1_555 1_555
C187 H192 1_555 1_555
H193 C187 1_555 1_555
H194 C187 1_555 1_555
C188 N47 1_555 1_555
H195 C188 1_555 1_555
H196 C188 1_555 1_555
H197 C188 1_555 1_555
C189 N47 1_555 1_555
H198 C189 1_555 1_555
O46 C189 1_555 1_555
N48 C190 1_555 1_555
C190 H199 1_555 1_555
H200 C190 1_555 1_555
H201 C190 1_555 1_555
C191 N48 1_555 1_555
H202 C191 1_555 1_555
H203 C191 1_555 1_555
H204 C191 1_555 1_555
C192 N48 1_555 1_555
H205 C192 1_555 1_555
O47 C192 1_555 1_555
N49 C193 1_555 1_555
C193 H206 1_555 1_555
C194 N49 1_555 1_555
H207 C194 1_555 1_555
H208 C194 1_555 1_555
H209 C194 1_555 1_555
C195 N49 1_555 1_555
H210 C195 1_555 1_555
H211 C195 1_555 1_555
H212 C195 1_555 1_555
O48 C193 1_555 1_555
N50 C196 1_555 1_555
C196 H213 1_555 1_555
H214 C196 1_555 1_555
H215 C196 1_555 1_555
C197 N50 1_555 1_555
H216 C197 1_555 1_555
H217 C197 1_555 1_555
H218 C197 1_555 1_555
C198 N50 1_555 1_555
H219 C198 1_555 1_555
O49 C198 1_555 1_555
N51 C199 1_555 1_555
C199 H220 1_555 1_555
H221 C199 1_555 1_555
H222 C199 1_555 1_555
C200 N51 1_555 1_555
H223 C200 1_555 1_555
H224 C200 1_555 1_555
H225 C200 1_555 1_555
C201 N51 1_555 1_555
H226 C201 1_555 1_555
O50 C201 1_555 1_555
N52 C202 1_555 1_555
C202 H227 1_555 1_555
H228 C202 1_555 1_555
H229 C202 1_555 1_555
C203 N52 1_555 1_555
H230 C203 1_555 1_555
H231 C203 1_555 1_555
H232 C203 1_555 1_555
C204 N52 1_555 1_555
H233 C204 1_555 1_555
O51 C204 1_555 1_555
Cd1A N19A 1_555 1_555
Cd2A N10A 1_555 1_555
Cd3A N22 1_555 1_555
Cd4A N4 1_555 1_555
N1A Cd3A 1_555 1_555
C1A N1A 1_555 1_555
C2A C1A 1_555 1_555
H1A C2A 1_555 1_555
C3A C2A 1_555 1_555
C4A C3A 1_555 1_555
H2A C4A 1_555 1_555
C5A N1A 1_555 1_555
H3A C5A 1_555 1_555
C6A C3A 1_555 1_555
H4A C6A 1_555 1_555
H5A C6A 1_555 1_555
O1A C6A 1_555 1_555
H6A O1A 1_555 1_555
N2A N3A 1_555 1_555
N3A Cd3A 1_555 1_555
C7A C1A 1_555 1_555
C8A C7A 1_555 1_555
H7A C8A 1_555 1_555
C9A N2A 1_555 1_555
H8A C9A 1_555 1_555
C10A N2A 1_555 1_555
H9A C10A 1_555 1_555
H10A C10A 1_555 1_555
N4A Cd4 1_555 1_555
C11A N4A 1_555 1_555
C12A C11A 1_555 1_555
H11A C12A 1_555 1_555
C13A C12A 1_555 1_555
C14A C13A 1_555 1_555
H12A C14A 1_555 1_555
C15A N4A 1_555 1_555
H13A C15A 1_555 1_555
C16A C13A 1_555 1_555
H14A C16A 1_555 1_555
H15A C16A 1_555 1_555
O2A C16A 1_555 1_555
H16A O2A 1_555 1_555
N5A N6A 1_555 1_555
N6A Cd4 1_555 1_555
C17A C11A 1_555 1_555
C18A C17A 1_555 1_555
H17A C18A 1_555 1_555
C19A N5A 1_555 1_555
H18A C19A 1_555 1_555
C20A N5A 1_555 1_555
H19A C20A 1_555 1_555
H20A C20A 1_555 1_555
C21A C10A 1_555 1_555
C22A C21A 1_555 1_555
H21A C22A 1_555 1_555
C23A C22A 1_555 1_555
H22A C23A 1_555 1_555
C24A C23A 1_555 1_555
H23A C24A 1_555 1_555
C25A C24A 1_555 1_555
C26A C21A 1_555 1_555
C27A C26A 1_555 1_555
H24A C27A 1_555 1_555
C28A C27A 1_555 1_555
H25A C28A 1_555 1_555
C29A C28A 1_555 1_555
H26A C29A 1_555 1_555
C30A C20A 1_555 1_555
N7A Cd3A 1_555 1_555
C31A N7A 1_555 1_555
C32A C31A 1_555 1_555
H27A C32A 1_555 1_555
C33A C32A 1_555 1_555
C34A C33A 1_555 1_555
H28A C34A 1_555 1_555
C35A N7A 1_555 1_555
H29A C35A 1_555 1_555
C36A C33A 1_555 1_555
H30A C36A 1_555 1_555
H31A C36A 1_555 1_555
O3A C36A 1_555 1_555
H32A O3A 1_555 1_555
N8A N9A 1_555 1_555
N9A Cd3A 1_555 1_555
C37A C31A 1_555 1_555
C38A C37A 1_555 1_555
H33A C38A 1_555 1_555
C39A N8A 1_555 1_555
H34A C39A 1_555 1_555
C40A N8A 1_555 1_555
H35A C40A 1_555 1_555
H36A C40A 1_555 1_555
N10A C41A 1_555 1_555
C41A C42A 1_555 1_555
C42A H37A 1_555 1_555
C43A C42A 1_555 1_555
C44A C43A 1_555 1_555
H38A C44A 1_555 1_555
C45A N10A 1_555 1_555
H39A C45A 1_555 1_555
C46A C43A 1_555 1_555
H40A C46A 1_555 1_555
H41A C46A 1_555 1_555
O4A C46A 1_555 1_555
H42A O4A 1_555 1_555
N11A N12A 1_555 1_555
N12A Cd2A 1_555 1_555
C47A C41A 1_555 1_555
C48A C47A 1_555 1_555
H43A C48A 1_555 1_555
C49A N11A 1_555 1_555
H44A C49A 1_555 1_555
C50A N11A 1_555 1_555
H45A C50A 1_555 1_555
H46A C50A 1_555 1_555
C51A C40A 1_555 1_555
C52A C51A 1_555 1_555
H47A C52A 1_555 1_555
C53A C52A 1_555 1_555
H48A C53A 1_555 1_555
C54A C53A 1_555 1_555
H49A C54A 1_555 1_555
C55A C54A 1_555 1_555
C56A C51A 1_555 1_555
C57A C56A 1_555 1_555
H50A C57A 1_555 1_555
C58A C57A 1_555 1_555
H51A C58A 1_555 1_555
C59A C58A 1_555 1_555
H52A C59A 1_555 1_555
C60A C50A 1_555 1_555
N13A Cd2A 1_555 1_555
C61A N13A 1_555 1_555
C62A C61A 1_555 1_555
H53A C62A 1_555 1_555
C63A C62A 1_555 1_555
C64A C63A 1_555 1_555
H54A C64A 1_555 1_555
C65A N13A 1_555 1_555
H55A C65A 1_555 1_555
C66A C63A 1_555 1_555
H56A C66A 1_555 1_555
H57A C66A 1_555 1_555
O5A C66A 1_555 1_555
H58A O5A 1_555 1_555
N14A N15A 1_555 1_555
N15A Cd2A 1_555 1_555
C67A C61A 1_555 1_555
C68A C67A 1_555 1_555
H59A C68A 1_555 1_555
C69A N14A 1_555 1_555
H60A C69A 1_555 1_555
C70A N14A 1_555 1_555
H61A C70A 1_555 1_555
H62A C70A 1_555 1_555
N16A Cd4A 1_555 1_555
C71A N16A 1_555 1_555
C72A C71A 1_555 1_555
H63A C72A 1_555 1_555
C73A C72A 1_555 1_555
C74A C73A 1_555 1_555
H64A C74A 1_555 1_555
C75A N16A 1_555 1_555
H65A C75A 1_555 1_555
C76A C73A 1_555 1_555
H66A C76A 1_555 1_555
H67A C76A 1_555 1_555
O6A C76A 1_555 1_555
H68A O6A 1_555 1_555
N17A N18A 1_555 1_555
N18A Cd4A 1_555 1_555
C77A C71A 1_555 1_555
C78A C77A 1_555 1_555
H69A C78A 1_555 1_555
C79A N17A 1_555 1_555
H70A C79A 1_555 1_555
C80A N17A 1_555 1_555
H71A C80A 1_555 1_555
H72A C80A 1_555 1_555
C81A C70A 1_555 1_555
C82A C81A 1_555 1_555
H73A C82A 1_555 1_555
C83A C82A 1_555 1_555
H74A C83A 1_555 1_555
C84A C83A 1_555 1_555
H75A C84A 1_555 1_555
C85A C84A 1_555 1_555
C86A C81A 1_555 1_555
C87A C86A 1_555 1_555
H76A C87A 1_555 1_555
C88A C87A 1_555 1_555
H77A C88A 1_555 1_555
C89A C88A 1_555 1_555
H78A C89A 1_555 1_555
C90A C80A 1_555 1_555
N19A C91A 1_555 1_555
C91A C92A 1_555 1_555
C92A H79A 1_555 1_555
C93A C92A 1_555 1_555
C94A C93A 1_555 1_555
H80A C94A 1_555 1_555
C95A N19A 1_555 1_555
H81A C95A 1_555 1_555
C96A C93A 1_555 1_555
H82A C96A 1_555 1_555
H83A C96A 1_555 1_555
O7A C96A 1_555 1_555
H84A O7A 1_555 1_555
N20A N21A 1_555 1_555
N21A Cd1A 1_555 1_555
C97A C91A 1_555 1_555
C98A C97A 1_555 1_555
H85A C98A 1_555 1_555
C99A N20A 1_555 1_555
H86A C99A 1_555 1_555
C100A N20A 1_555 1_555
H87A C100A 1_555 1_555
H88A C100A 1_555 1_555
N22A Cd3 1_555 1_555
C101A N22A 1_555 1_555
C102A C101A 1_555 1_555
H89A C102A 1_555 1_555
C103A C102A 1_555 1_555
C104A C103A 1_555 1_555
H90A C104A 1_555 1_555
C105A N22A 1_555 1_555
H91A C105A 1_555 1_555
C106A C103A 1_555 1_555
H92A C106A 1_555 1_555
H93A C106A 1_555 1_555
O8A C106A 1_555 1_555
H94A O8A 1_555 1_555
N23A N24A 1_555 1_555
N24A Cd3 1_555 1_555
C107A C101A 1_555 1_555
C108A C107A 1_555 1_555
H95A C108A 1_555 1_555
C109A N23A 1_555 1_555
H96A C109A 1_555 1_555
C110A N23A 1_555 1_555
H97A C110A 1_555 1_555
H98A C110A 1_555 1_555
C111A C100A 1_555 1_555
C112A C111A 1_555 1_555
H99A C112A 1_555 1_555
C113A C112A 1_555 1_555
H100A C113A 1_555 1_555
C114A C113A 1_555 1_555
H101A C114A 1_555 1_555
C115A C114A 1_555 1_555
C116A C111A 1_555 1_555
C117A C116A 1_555 1_555
H102A C117A 1_555 1_555
C118A C117A 1_555 1_555
H103A C118A 1_555 1_555
C119A C118A 1_555 1_555
H104A C119A 1_555 1_555
C120A C110A 1_555 1_555
N25A Cd1A 1_555 1_555
C121A N25A 1_555 1_555
C122A C121A 1_555 1_555
H105A C122A 1_555 1_555
C123A C122A 1_555 1_555
C124A C123A 1_555 1_555
H106A C124A 1_555 1_555
C125A N25A 1_555 1_555
H107A C125A 1_555 1_555
C126A C123A 1_555 1_555
H108A C126A 1_555 1_555
H109A C126A 1_555 1_555
O9A C126A 1_555 1_555
H110A O9A 1_555 1_555
N26A N27A 1_555 1_555
N27A Cd1A 1_555 1_555
C127A C121A 1_555 1_555
C128A C127A 1_555 1_555
H111A C128A 1_555 1_555
C129A N26A 1_555 1_555
H112A C129A 1_555 1_555
C130A N26A 1_555 1_555
H113A C130A 1_555 1_555
H114A C130A 1_555 1_555
N28A Cd4 1_555 1_555
C131A N28A 1_555 1_555
C132A C131A 1_555 1_555
H115A C132A 1_555 1_555
C133A C132A 1_555 1_555
C134A C133A 1_555 1_555
H116A C134A 1_555 1_555
C135A N28A 1_555 1_555
H117A C135A 1_555 1_555
C136A C133A 1_555 1_555
H118A C136A 1_555 1_555
H119A C136A 1_555 1_555
O10A C136A 1_555 1_555
H120A O10A 1_555 1_555
N29A Cd4 1_555 1_555
N30A N29A 1_555 1_555
C137A N30A 1_555 1_555
H121A C137A 1_555 1_555
C138A C137A 1_555 1_555
H122A C138A 1_555 1_555
C139A C131A 1_555 1_555
C140A N30A 1_555 1_555
H123A C140A 1_555 1_555
H124A C140A 1_555 1_555
C141A C130A 1_555 1_555
C142A C141A 1_555 1_555
H125A C142A 1_555 1_555
C143A C142A 1_555 1_555
H126A C143A 1_555 1_555
C144A C143A 1_555 1_555
H127A C144A 1_555 1_555
C145A C144A 1_555 1_555
C146A C141A 1_555 1_555
C147A C146A 1_555 1_555
H128A C147A 1_555 1_555
C148A C147A 1_555 1_555
H129A C148A 1_555 1_555
C149A C148A 1_555 1_555
H130A C149A 1_555 1_555
C150A C140A 1_555 1_555
N31A Cd2A 1_555 1_555
C151A N31A 1_555 1_555
C152A C151A 1_555 1_555
H131A C152A 1_555 1_555
C153A C152A 1_555 1_555
C154A C153A 1_555 1_555
H132A C154A 1_555 1_555
C155A N31A 1_555 1_555
H133A C155A 1_555 1_555
C156A C153A 1_555 1_555
H134A C156A 1_555 1_555
H135A C156A 1_555 1_555
O11A C156A 1_555 1_555
H136A O11A 1_555 1_555
N32A N33A 1_555 1_555
N33A Cd2A 1_555 1_555
C157A C151A 1_555 1_555
C158A C157A 1_555 1_555
H137A C158A 1_555 1_555
C159A N32A 1_555 1_555
H138A C159A 1_555 1_555
C160A N32A 1_555 1_555
H139A C160A 1_555 1_555
H140A C160A 1_555 1_555
N34A Cd1A 1_555 1_555
C161A N34A 1_555 1_555
C162A C161A 1_555 1_555
H141A C162A 1_555 1_555
C163A C162A 1_555 1_555
C164A C163A 1_555 1_555
H142A C164A 1_555 1_555
C165A N34A 1_555 1_555
H143A C165A 1_555 1_555
C166A C163A 1_555 1_555
H144A C166A 1_555 1_555
H145A C166A 1_555 1_555
O12A C166A 1_555 1_555
H146A O12A 1_555 1_555
N35A N36A 1_555 1_555
N36A Cd1A 1_555 1_555
C167A C161A 1_555 1_555
C168A C167A 1_555 1_555
H147A C168A 1_555 1_555
C169A N35A 1_555 1_555
H148A C169A 1_555 1_555
C170A N35A 1_555 1_555
H149A C170A 1_555 1_555
H150A C170A 1_555 1_555
C171A C160A 1_555 1_555
C172A C171A 1_555 1_555
H151A C172A 1_555 1_555
C173A C172A 1_555 1_555
H152A C173A 1_555 1_555
C174A C173A 1_555 1_555
H153A C174A 1_555 1_555
C175A C174A 1_555 1_555
C176A C171A 1_555 1_555
C177A C176A 1_555 1_555
H154A C177A 1_555 1_555
C178A C177A 1_555 1_555
H155A C178A 1_555 1_555
C179A C178A 1_555 1_555
H156A C179A 1_555 1_555
C180A C170A 1_555 1_555
C4 C5 1_555 1_555
N3 C7 1_555 1_555
C8 C9 1_555 1_555
C14 C15 1_555 1_555
N6 Cd4A 1_555 1_555
C18 C19 1_555 1_555
C25 C26 1_555 1_555
C25 C30 1_555 1_555
C29 C30 1_555 1_555
C34 C35 1_555 1_555
N9 C37 1_555 1_555
C38 C39 1_555 1_555
C44 C45 1_555 1_555
N12 C47 1_555 1_555
C48 C49 1_555 1_555
C55 C56 1_555 1_555
C55 C60 1_555 1_555
C59 C60 1_555 1_555
C64 C65 1_555 1_555
N15 C67 1_555 1_555
C68 C69 1_555 1_555
C74 C75 1_555 1_555
N18 C77 1_555 1_555
C78 C79 1_555 1_555
C85 C86 1_555 1_555
C85 C90 1_555 1_555
C89 C90 1_555 1_555
C94 C95 1_555 1_555
N21 C97 1_555 1_555
C98 C99 1_555 1_555
C104 C105 1_555 1_555
N24 Cd3A 1_555 1_555
C108 C109 1_555 1_555
C115 C116 1_555 1_555
C115 C120 1_555 1_555
C119 C120 1_555 1_555
C124 C125 1_555 1_555
N27 C127 1_555 1_555
C128 C129 1_555 1_555
N28 Cd4A 1_555 1_555
C134 C135 1_555 1_555
N29 C139 1_555 1_555
N29 Cd4A 1_555 1_555
C138 C139 1_555 1_555
C145 C146 1_555 1_555
C145 C150 1_555 1_555
C149 C150 1_555 1_555
C154 C155 1_555 1_555
N33 C157 1_555 1_555
C158 C159 1_555 1_555
C164 C165 1_555 1_555
N36 C167 1_555 1_555
C168 C169 1_555 1_555
C175 C176 1_555 1_555
C175 C180 1_555 1_555
C179 C180 1_555 1_555
C4A C5A 1_555 1_555
N3A C7A 1_555 1_555
C8A C9A 1_555 1_555
C14A C15A 1_555 1_555
N6A C17A 1_555 1_555
C18A C19A 1_555 1_555
C25A C26A 1_555 1_555
C25A C30A 1_555 1_555
C29A C30A 1_555 1_555
C34A C35A 1_555 1_555
N9A C37A 1_555 1_555
C38A C39A 1_555 1_555
C44A C45A 1_555 1_555
N12A C47A 1_555 1_555
C48A C49A 1_555 1_555
C55A C56A 1_555 1_555
C55A C60A 1_555 1_555
C59A C60A 1_555 1_555
C64A C65A 1_555 1_555
N15A C67A 1_555 1_555
C68A C69A 1_555 1_555
C74A C75A 1_555 1_555
N18A C77A 1_555 1_555
C78A C79A 1_555 1_555
C85A C86A 1_555 1_555
C85A C90A 1_555 1_555
C89A C90A 1_555 1_555
C94A C95A 1_555 1_555
N21A C97A 1_555 1_555
C98A C99A 1_555 1_555
C104A C105A 1_555 1_555
N24A C107A 1_555 1_555
C108A C109A 1_555 1_555
C115A C116A 1_555 1_555
C115A C120A 1_555 1_555
C119A C120A 1_555 1_555
C124A C125A 1_555 1_555
N27A C127A 1_555 1_555
C128A C129A 1_555 1_555
C134A C135A 1_555 1_555
N29A C139A 1_555 1_555
C138A C139A 1_555 1_555
C145A C146A 1_555 1_555
C145A C150A 1_555 1_555
C149A C150A 1_555 1_555
C154A C155A 1_555 1_555
N33A C157A 1_555 1_555
C158A C159A 1_555 1_555
C164A C165A 1_555 1_555
N36A C167A 1_555 1_555
C168A C169A 1_555 1_555
C175A C176A 1_555 1_555
C175A C180A 1_555 1_555
C179A C180A 1_555 1_555

#END
