# generated using pymatgen
data_Cd4H233C204N52O53
_symmetry_space_group_name_H-M   'P 1'
_cell_length_a   23.16250000
_cell_length_b   23.77590000
_cell_length_c   24.28580000
_cell_angle_alpha   108.55000000
_cell_angle_beta   101.78200000
_cell_angle_gamma   90.41600000
_symmetry_Int_Tables_number   1
_chemical_formula_structural   Cd4H233C204N52O53
_chemical_formula_sum   'Cd8 H466 C408 N104 O106'
_cell_volume   12374.78973767
_cell_formula_units_Z   2
loop_
 _symmetry_equiv_pos_site_id
 _symmetry_equiv_pos_as_xyz
  1  'x, y, z'
loop_
 _atom_site_type_symbol
 _atom_site_label
 _atom_site_symmetry_multiplicity
 _atom_site_fract_x
 _atom_site_fract_y
 _atom_site_fract_z
 _atom_site_occupancy
  Cd  Cd1  1  0.893160  0.605810  0.637210  1.0
  Cd  Cd2  1  0.106840  0.394190  0.362790  1.0
  Cd  Cd3  1  0.349520  0.555880  0.867690  1.0
  Cd  Cd4  1  0.650480  0.444120  0.132310  1.0
  Cd  Cd5  1  0.199520  0.141170  0.920850  1.0
  Cd  Cd6  1  0.800480  0.858830  0.079150  1.0
  Cd  Cd7  1  0.252260  0.806950  0.293870  1.0
  Cd  Cd8  1  0.747740  0.193050  0.706130  1.0
  H  H9  1  0.960100  0.591200  0.027700  1
  H  H10  1  0.039900  0.408800  0.972300  1
  H  H11  1  0.928100  0.575000  0.073800  1
  H  H12  1  0.071900  0.425000  0.926200  1
  H  H13  1  0.938300  0.523600  0.016100  1
  H  H14  1  0.061700  0.476400  0.983900  1
  H  H15  1  0.051500  0.499900  0.121700  1
  H  H16  1  0.948500  0.500100  0.878300  1
  H  H17  1  0.987900  0.472900  0.080500  1
  H  H18  1  0.012100  0.527100  0.919500  1
  H  H19  1  0.992900  0.524500  0.143000  1
  H  H20  1  0.007100  0.475500  0.857000  1
  H  H21  1  0.059800  0.609700  0.059600  1
  H  H22  1  0.940200  0.390300  0.940400  1
  H  H23  1  0.999900  0.083800  0.114200  1
  H  H24  1  0.000100  0.916200  0.885800  1
  H  H25  1  0.936900  0.059700  0.118500  1
  H  H26  1  0.063100  0.940300  0.881500  1
  H  H27  1  0.976800  0.109700  0.174500  1
  H  H28  1  0.023200  0.890300  0.825500  1
  H  H29  1  0.882400  0.090700  0.033200  1
  H  H30  1  0.117600  0.909300  0.966800  1
  H  H31  1  0.948300  0.101100  0.025700  1
  H  H32  1  0.051700  0.898900  0.974300  1
  H  H33  1  0.905300  0.154200  0.032800  1
  H  H34  1  0.094700  0.845800  0.967200  1
  H  H35  1  0.912700  0.221100  0.125700  1
  H  H36  1  0.087300  0.778900  0.874300  1
  H  H37  1  0.034700  0.256900  0.436200  1
  H  H38  1  0.965300  0.743100  0.563800  1
  H  H39  1  0.036100  0.323200  0.480800  1
  H  H40  1  0.963900  0.676800  0.519200  1
  H  H41  1  0.976300  0.280600  0.458600  1
  H  H42  1  0.023700  0.719400  0.541400  1
  H  H43  1  0.975400  0.289700  0.566800  1
  H  H44  1  0.024600  0.710300  0.433200  1
  H  H45  1  0.031800  0.336100  0.584300  1
  H  H46  1  0.968200  0.663900  0.415700  1
  H  H47  1  0.036400  0.278700  0.605300  1
  H  H48  1  0.963600  0.721300  0.394700  1
  H  H49  1  0.077600  0.201100  0.549200  1
  H  H50  1  0.922400  0.798900  0.450800  1
  H  H51  1  0.479600  0.815600  0.813500  1
  H  H52  1  0.520400  0.184400  0.186500  1
  H  H53  1  0.527200  0.767400  0.814900  1
  H  H54  1  0.472800  0.232600  0.185100  1
  H  H55  1  0.547100  0.836800  0.846600  1
  H  H56  1  0.452900  0.163200  0.153400  1
  H  H57  1  0.437800  0.748800  0.894600  1
  H  H58  1  0.562200  0.251200  0.105400  1
  H  H59  1  0.421100  0.776500  0.841900  1
  H  H60  1  0.578900  0.223500  0.158100  1
  H  H61  1  0.422600  0.816800  0.909000  1
  H  H62  1  0.577400  0.183200  0.091000  1
  H  H63  1  0.523500  0.802400  0.974300  1
  H  H64  1  0.476500  0.197600  0.025700  1
  H  H65  1  0.530800  0.499100  0.820600  1
  H  H66  1  0.469200  0.500900  0.179400  1
  H  H67  1  0.454700  0.452100  0.666300  1
  H  H68  1  0.545300  0.547900  0.333700  1
  H  H69  1  0.516900  0.490500  0.685600  1
  H  H70  1  0.483100  0.509500  0.314400  1
  H  H71  1  0.467400  0.510600  0.723800  1
  H  H72  1  0.532600  0.489400  0.276200  1
  H  H73  1  0.470700  0.369400  0.668400  1
  H  H74  1  0.529300  0.630600  0.331600  1
  H  H75  1  0.503900  0.353600  0.725600  1
  H  H76  1  0.496100  0.646400  0.274400  1
  H  H77  1  0.541400  0.371200  0.684100  1
  H  H78  1  0.458600  0.628800  0.315900  1
  H  H79  1  0.460900  0.524800  0.538600  1
  H  H80  1  0.539100  0.475200  0.461400  1
  H  H81  1  0.431500  0.505100  0.584500  1
  H  H82  1  0.568500  0.494900  0.415500  1
  H  H83  1  0.417000  0.465800  0.515500  1
  H  H84  1  0.583000  0.534200  0.484500  1
  H  H85  1  0.434000  0.595000  0.519600  1
  H  H86  1  0.566000  0.405000  0.480400  1
  H  H87  1  0.368900  0.593200  0.480600  1
  H  H88  1  0.631100  0.406800  0.519400  1
  H  H89  1  0.384100  0.630200  0.550200  1
  H  H90  1  0.615900  0.369800  0.449800  1
  H  H91  1  0.307400  0.495700  0.541300  1
  H  H92  1  0.692600  0.504300  0.458700  1
  H  H93  1  0.854600  0.115700  0.266200  1
  H  H94  1  0.145400  0.884300  0.733800  1
  H  H95  1  0.890900  0.169200  0.258500  1
  H  H96  1  0.109100  0.830800  0.741500  1
  H  H97  1  0.884300  0.171000  0.323300  1
  H  H98  1  0.115700  0.829000  0.676700  1
  H  H99  1  0.030600  0.127400  0.317000  1
  H  H100  1  0.969400  0.872600  0.683000  1
  H  H101  1  0.997000  0.178200  0.356500  1
  H  H102  1  0.003000  0.821800  0.643500  1
  H  H103  1  0.001400  0.177300  0.291300  1
  H  H104  1  0.998600  0.822700  0.708700  1
  H  H105  1  0.987000  0.039100  0.276900  1
  H  H106  1  0.013000  0.960900  0.723100  1
  H  H107  1  0.954100  0.135900  0.528000  1
  H  H108  1  0.045900  0.864100  0.472000  1
  H  H109  1  0.896500  0.101300  0.532100  1
  H  H110  1  0.103500  0.898700  0.467900  1
  H  H111  1  0.960900  0.086900  0.560800  1
  H  H112  1  0.039100  0.913100  0.439200  1
  H  H113  1  0.976100  0.115100  0.451600  1
  H  H114  1  0.023900  0.884900  0.548400  1
  H  H115  1  0.000200  0.051000  0.426800  1
  H  H116  1  0.999800  0.949000  0.573200  1
  H  H117  1  0.936400  0.064500  0.395800  1
  H  H118  1  0.063600  0.935500  0.604200  1
  H  H119  1  0.894700  0.989700  0.488700  1
  H  H120  1  0.105300  0.010300  0.511300  1
  H  H121  1  0.231200  0.156800  0.218100  1
  H  H122  1  0.768800  0.843200  0.781900  1
  H  H123  1  0.259800  0.094800  0.196000  1
  H  H124  1  0.740200  0.905200  0.804000  1
  H  H125  1  0.344200  0.146500  0.214800  1
  H  H126  1  0.655800  0.853500  0.785200  1
  H  H127  1  0.611600  0.246200  0.441200  1
  H  H128  1  0.388400  0.753800  0.558800  1
  H  H129  1  0.660400  0.204600  0.414600  1
  H  H130  1  0.339600  0.795400  0.585400  1
  H  H131  1  0.552000  0.167100  0.416800  1
  H  H132  1  0.448000  0.832900  0.583200  1
  H  H133  1  0.252300  0.831700  0.004800  1
  H  H134  1  0.747700  0.168300  0.995200  1
  H  H135  1  0.205300  0.814100  0.943000  1
  H  H136  1  0.794700  0.185900  0.057000  1
  H  H137  1  0.148600  0.768100  0.983500  1
  H  H138  1  0.851400  0.231900  0.016500  1
  H  H139  1  0.465200  0.281400  0.816700  1
  H  H140  1  0.534800  0.718600  0.183300  1
  H  H141  1  0.398000  0.254500  0.792000  1
  H  H142  1  0.602000  0.745500  0.208000  1
  H  H143  1  0.449800  0.225000  0.725600  1
  H  H144  1  0.550200  0.775000  0.274400  1
  H  H145  1  0.160500  0.098700  0.393600  1
  H  H146  1  0.839500  0.901300  0.606400  1
  H  H147  1  0.097800  0.062100  0.360600  1
  H  H148  1  0.902200  0.937900  0.639400  1
  H  H149  1  0.102700  0.103600  0.456200  1
  H  H150  1  0.897300  0.896400  0.543800  1
  H  H151  1  0.951700  0.798400  0.330200  1
  H  H152  1  0.048300  0.201600  0.669800  1
  H  H153  1  0.914600  0.848800  0.365100  1
  H  H154  1  0.085400  0.151200  0.634900  1
  H  H155  1  0.873800  0.736600  0.309900  1
  H  H156  1  0.126200  0.263400  0.690100  1
  H  H157  1  0.479500  0.063100  0.723000  1
  H  H158  1  0.520500  0.936900  0.277000  1
  H  H159  1  0.496300  0.107100  0.789900  1
  H  H160  1  0.503700  0.892900  0.210100  1
  H  H161  1  0.414900  0.125500  0.739500  1
  H  H162  1  0.585100  0.874500  0.260500  1
  H  H163  1  0.163600  0.104100  0.112300  1.0
  H  H164  1  0.836400  0.895900  0.887700  1.0
  H  H165  1  0.330200  0.175400  0.137500  1.0
  H  H166  1  0.669800  0.824600  0.862500  1.0
  H  H167  1  0.309300  0.178500  0.040100  1.0
  H  H168  1  0.690700  0.821500  0.959900  1.0
  H  H169  1  0.250400  0.173800  0.224600  1.0
  H  H170  1  0.749600  0.826200  0.775400  1.0
  H  H171  1  0.238100  0.102900  0.198900  1.0
  H  H172  1  0.761900  0.897100  0.801100  1.0
  H  H173  1  0.332500  0.099800  0.194700  1.0
  H  H174  1  0.667500  0.900200  0.805300  1.0
  H  H175  1  0.069800  0.064100  0.042000  1.0
  H  H176  1  0.930200  0.935900  0.958000  1.0
  H  H177  1  0.995400  0.038800  0.943500  1.0
  H  H178  1  0.004600  0.961200  0.056500  1.0
  H  H179  1  0.001000  0.049400  0.838800  1.0
  H  H180  1  0.999000  0.950600  0.161200  1.0
  H  H181  1  0.064700  0.068400  0.831900  1.0
  H  H182  1  0.935300  0.931600  0.168100  1.0
  H  H183  1  0.734800  0.237500  0.507700  1.0
  H  H184  1  0.265200  0.762500  0.492300  1.0
  H  H185  1  0.579400  0.160500  0.511000  1.0
  H  H186  1  0.420600  0.839500  0.489000  1.0
  H  H187  1  0.620500  0.155400  0.605500  1.0
  H  H188  1  0.379500  0.844600  0.394500  1.0
  H  H189  1  0.646100  0.243900  0.434000  1.0
  H  H190  1  0.353900  0.756100  0.566000  1.0
  H  H191  1  0.636800  0.172600  0.404000  1.0
  H  H192  1  0.363200  0.827400  0.596000  1.0
  H  H193  1  0.551800  0.183300  0.442100  1.0
  H  H194  1  0.448200  0.816700  0.557900  1.0
  H  H195  1  0.836800  0.268700  0.556700  1.0
  H  H196  1  0.163200  0.731300  0.443300  1.0
  H  H197  1  0.926400  0.295200  0.642600  1.0
  H  H198  1  0.073600  0.704800  0.357400  1.0
  H  H199  1  0.883800  0.274500  0.773900  1.0
  H  H200  1  0.116200  0.725500  0.226100  1.0
  H  H201  1  0.939500  0.298700  0.756200  1.0
  H  H202  1  0.060500  0.701300  0.243800  1.0
  H  H203  1  0.033500  0.180700  0.943000  1.0
  H  H204  1  0.966500  0.819300  0.057000  1.0
  H  H205  1  0.994700  0.270900  0.941500  1.0
  H  H206  1  0.005300  0.729100  0.058500  1.0
  H  H207  1  0.951500  0.283500  0.850700  1.0
  H  H208  1  0.048500  0.716500  0.149300  1.0
  H  H209  1  0.000800  0.064500  0.746800  1.0
  H  H210  1  0.999200  0.935500  0.253200  1.0
  H  H211  1  0.957600  0.077100  0.656100  1.0
  H  H212  1  0.042400  0.922900  0.343900  1.0
  H  H213  1  0.918800  0.167300  0.654500  1.0
  H  H214  1  0.081200  0.832700  0.345500  1.0
  H  H215  1  0.334900  0.964600  0.857000  1.0
  H  H216  1  0.665100  0.035400  0.143000  1.0
  H  H217  1  0.172800  0.901600  0.859700  1.0
  H  H218  1  0.827200  0.098400  0.140300  1.0
  H  H219  1  0.142100  0.998300  0.883500  1.0
  H  H220  1  0.857900  0.001700  0.116500  1.0
  H  H221  1  0.304500  0.853500  0.806400  1.0
  H  H222  1  0.695500  0.146500  0.193600  1.0
  H  H223  1  0.326600  0.868100  0.877400  1.0
  H  H224  1  0.673400  0.131900  0.122600  1.0
  H  H225  1  0.264900  0.793000  0.844900  1.0
  H  H226  1  0.735100  0.207000  0.155100  1.0
  H  H227  1  0.390600  0.047100  0.852400  1.0
  H  H228  1  0.609400  0.952900  0.147600  1.0
  H  H229  1  0.424600  0.156700  0.885000  1.0
  H  H230  1  0.575400  0.843300  0.115000  1.0
  H  H231  1  0.377800  0.254700  0.945700  1.0
  H  H232  1  0.622200  0.745300  0.054300  1.0
  H  H233  1  0.316200  0.244300  0.962300  1.0
  H  H234  1  0.683800  0.755700  0.037700  1.0
  H  H235  1  0.182600  0.688100  0.936600  1.0
  H  H236  1  0.817400  0.311900  0.063400  1.0
  H  H237  1  0.334800  0.787400  0.962500  1.0
  H  H238  1  0.665200  0.212600  0.037500  1.0
  H  H239  1  0.381400  0.700600  0.925500  1.0
  H  H240  1  0.618600  0.299400  0.074500  1.0
  H  H241  1  0.179600  0.791800  0.959300  1.0
  H  H242  1  0.820400  0.208200  0.040700  1.0
  H  H243  1  0.228700  0.811200  0.020400  1.0
  H  H244  1  0.771300  0.188800  0.979600  1.0
  H  H245  1  0.235500  0.839500  0.924300  1.0
  H  H246  1  0.764500  0.160500  0.075700  1.0
  H  H247  1  0.132700  0.591000  0.904800  1.0
  H  H248  1  0.867300  0.409000  0.095200  1.0
  H  H249  1  0.117800  0.479400  0.852400  1.0
  H  H250  1  0.882200  0.520600  0.147600  1.0
  H  H251  1  0.250600  0.425300  0.795700  1.0
  H  H252  1  0.749400  0.574700  0.204300  1.0
  H  H253  1  0.186100  0.400800  0.795500  1.0
  H  H254  1  0.813900  0.599200  0.204500  1.0
  H  H255  1  0.305000  0.183500  0.811200  1.0
  H  H256  1  0.695000  0.816500  0.188800  1.0
  H  H257  1  0.260800  0.222600  0.737200  1.0
  H  H258  1  0.739200  0.777400  0.262800  1.0
  H  H259  1  0.235100  0.321200  0.763400  1.0
  H  H260  1  0.764900  0.678800  0.236600  1.0
  H  H261  1  0.319300  0.336700  0.986400  1.0
  H  H262  1  0.680700  0.663300  0.013600  1.0
  H  H263  1  0.293600  0.435300  0.012600  1.0
  H  H264  1  0.706400  0.564700  0.987400  1.0
  H  H265  1  0.249400  0.474400  0.938600  1.0
  H  H266  1  0.750600  0.525600  0.061400  1.0
  H  H267  1  0.435900  0.361300  0.892500  1.0
  H  H268  1  0.564100  0.638700  0.107500  1.0
  H  H269  1  0.374600  0.343400  0.718600  1.0
  H  H270  1  0.625400  0.656600  0.281400  1.0
  H  H271  1  0.346100  0.441000  0.745900  1.0
  H  H272  1  0.653900  0.559000  0.254100  1.0
  H  H273  1  0.403500  0.256100  0.800700  1.0
  H  H274  1  0.596500  0.743900  0.199300  1.0
  H  H275  1  0.423700  0.264100  0.744100  1.0
  H  H276  1  0.576300  0.735900  0.255900  1.0
  H  H277  1  0.490700  0.297600  0.852300  1.0
  H  H278  1  0.509300  0.702400  0.147700  1.0
  H  H279  1  0.442000  0.421700  0.993300  1.0
  H  H280  1  0.558000  0.578300  0.006700  1.0
  H  H281  1  0.445800  0.517600  0.078900  1.0
  H  H282  1  0.554200  0.482400  0.921100  1.0
  H  H283  1  0.407600  0.639600  0.015400  1.0
  H  H284  1  0.592400  0.360400  0.984600  1.0
  H  H285  1  0.428800  0.631900  0.079200  1.0
  H  H286  1  0.571200  0.368100  0.920800  1.0
  H  H287  1  0.132800  0.991300  0.282800  1.0
  H  H288  1  0.867200  0.008700  0.717200  1.0
  H  H289  1  0.206500  0.007100  0.453900  1.0
  H  H290  1  0.793500  0.992900  0.546100  1.0
  H  H291  1  0.250800  0.917900  0.421400  1.0
  H  H292  1  0.749200  0.082100  0.578600  1.0
  H  H293  1  0.138900  0.088900  0.365600  1.0
  H  H294  1  0.861100  0.911100  0.634400  1.0
  H  H295  1  0.091700  0.054200  0.385700  1.0
  H  H296  1  0.908300  0.945800  0.614300  1.0
  H  H297  1  0.141600  0.127300  0.460300  1.0
  H  H298  1  0.858400  0.872700  0.539700  1.0
  H  H299  1  0.125000  0.934500  0.179100  1.0
  H  H300  1  0.875000  0.065500  0.820900  1.0
  H  H301  1  0.121600  0.839500  0.092500  1.0
  H  H302  1  0.878400  0.160500  0.907500  1.0
  H  H303  1  0.151200  0.730200  0.088800  1.0
  H  H304  1  0.848800  0.269800  0.911200  1.0
  H  H305  1  0.179000  0.721200  0.150900  1.0
  H  H306  1  0.821000  0.278800  0.849100  1.0
  H  H307  1  0.315000  0.535000  0.023200  1.0
  H  H308  1  0.685000  0.465000  0.976800  1.0
  H  H309  1  0.220100  0.543300  0.043000  1.0
  H  H310  1  0.779900  0.456700  0.957000  1.0
  H  H311  1  0.186900  0.637400  0.082600  1.0
  H  H312  1  0.813100  0.362600  0.917400  1.0
  H  H313  1  0.393600  0.727400  0.078300  1.0
  H  H314  1  0.606400  0.272600  0.921700  1.0
  H  H315  1  0.360400  0.821500  0.117900  1.0
  H  H316  1  0.639600  0.178500  0.882100  1.0
  H  H317  1  0.265500  0.829800  0.137700  1.0
  H  H318  1  0.734500  0.170200  0.862300  1.0
  H  H319  1  0.823400  0.725900  0.490000  1.0
  H  H320  1  0.176600  0.274100  0.510000  1.0
  H  H321  1  0.832900  0.551800  0.399800  1.0
  H  H322  1  0.167100  0.448200  0.600200  1.0
  H  H323  1  0.856400  0.531900  0.489800  1.0
  H  H324  1  0.143600  0.468100  0.510200  1.0
  H  H325  1  0.793800  0.693000  0.383400  1.0
  H  H326  1  0.206200  0.307000  0.616600  1.0
  H  H327  1  0.850700  0.660100  0.365700  1.0
  H  H328  1  0.149300  0.339900  0.634300  1.0
  H  H329  1  0.778900  0.578300  0.338700  1.0
  H  H330  1  0.221100  0.421700  0.661300  1.0
  H  H331  1  0.819000  0.797800  0.585500  1.0
  H  H332  1  0.181000  0.202200  0.414500  1.0
  H  H333  1  0.849300  0.843000  0.697900  1.0
  H  H334  1  0.150700  0.157000  0.302100  1.0
  H  H335  1  0.911100  0.801500  0.780900  1.0
  H  H336  1  0.088900  0.198500  0.219100  1.0
  H  H337  1  0.931000  0.735300  0.758100  1.0
  H  H338  1  0.069000  0.264700  0.241900  1.0
  H  H339  1  0.889900  0.740200  0.218900  1.0
  H  H340  1  0.110100  0.259800  0.781100  1.0
  H  H341  1  0.875700  0.912400  0.312100  1.0
  H  H342  1  0.124300  0.087600  0.687900  1.0
  H  H343  1  0.837800  0.931100  0.223100  1.0
  H  H344  1  0.162200  0.068900  0.776900  1.0
  H  H345  1  0.895100  0.771800  0.327200  1.0
  H  H346  1  0.104900  0.228200  0.672800  1.0
  H  H347  1  0.954800  0.810400  0.335400  1.0
  H  H348  1  0.045200  0.189600  0.664600  1.0
  H  H349  1  0.915000  0.886100  0.386700  1.0
  H  H350  1  0.085000  0.113900  0.613300  1.0
  H  H351  1  0.883100  0.667700  0.123800  1.0
  H  H352  1  0.116900  0.332300  0.876200  1.0
  H  H353  1  0.845600  0.620600  0.012300  1.0
  H  H354  1  0.154400  0.379400  0.987700  1.0
  H  H355  1  0.759800  0.725600  0.953200  1.0
  H  H356  1  0.240200  0.274400  0.046800  1.0
  H  H357  1  0.778800  0.659000  0.931900  1.0
  H  H358  1  0.221200  0.341000  0.068100  1.0
  H  H359  1  0.782200  0.720300  0.709700  1.0
  H  H360  1  0.217800  0.279700  0.290300  1.0
  H  H361  1  0.711100  0.690100  0.752700  1.0
  H  H362  1  0.288900  0.309900  0.247300  1.0
  H  H363  1  0.736900  0.690000  0.851000  1.0
  H  H364  1  0.263100  0.310000  0.149000  1.0
  H  H365  1  0.951700  0.768200  0.856200  1.0
  H  H366  1  0.048300  0.231800  0.143800  1.0
  H  H367  1  0.977500  0.768100  0.954500  1.0
  H  H368  1  0.022500  0.231900  0.045500  1.0
  H  H369  1  0.906400  0.737900  0.997500  1.0
  H  H370  1  0.093600  0.262100  0.002500  1.0
  H  H371  1  0.090500  0.530000  0.577800  1.0
  H  H372  1  0.909500  0.470000  0.422200  1.0
  H  H373  1  0.105800  0.709000  0.657000  1.0
  H  H374  1  0.894200  0.291000  0.343000  1.0
  H  H375  1  0.007900  0.705700  0.667900  1.0
  H  H376  1  0.992100  0.294300  0.332100  1.0
  H  H377  1  0.173300  0.642500  0.579800  1.0
  H  H378  1  0.826700  0.357500  0.420200  1.0
  H  H379  1  0.196800  0.643900  0.647100  1.0
  H  H380  1  0.803200  0.356100  0.352900  1.0
  H  H381  1  0.216300  0.559300  0.613600  1.0
  H  H382  1  0.783700  0.440700  0.386400  1.0
  H  H383  1  0.029400  0.440300  0.540600  1.0
  H  H384  1  0.970600  0.559700  0.459400  1.0
  H  H385  1  0.935900  0.373400  0.518100  1.0
  H  H386  1  0.064100  0.626600  0.481900  1.0
  H  H387  1  0.828100  0.394600  0.536500  1.0
  H  H388  1  0.171900  0.605400  0.463500  1.0
  H  H389  1  0.814600  0.462400  0.564500  1.0
  H  H390  1  0.185400  0.537600  0.435500  1.0
  H  H391  1  0.543900  0.210000  0.769900  1.0
  H  H392  1  0.456100  0.790000  0.230100  1.0
  H  H393  1  0.577000  0.036900  0.704600  1.0
  H  H394  1  0.423000  0.963100  0.295400  1.0
  H  H395  1  0.667200  0.066000  0.688800  1.0
  H  H396  1  0.332800  0.934000  0.311200  1.0
  H  H397  1  0.487100  0.130900  0.787400  1.0
  H  H398  1  0.512900  0.869100  0.212600  1.0
  H  H399  1  0.460700  0.113400  0.717400  1.0
  H  H400  1  0.539300  0.886600  0.282600  1.0
  H  H401  1  0.447800  0.040000  0.746000  1.0
  H  H402  1  0.552200  0.960000  0.254000  1.0
  H  H403  1  0.651600  0.399000  0.813300  1.0
  H  H404  1  0.348400  0.601000  0.186700  1.0
  H  H405  1  0.578400  0.311900  0.795800  1.0
  H  H406  1  0.421600  0.688100  0.204200  1.0
  H  H407  1  0.791800  0.340500  0.778600  1.0
  H  H408  1  0.208200  0.659500  0.221400  1.0
  H  H409  1  0.765100  0.402800  0.804200  1.0
  H  H410  1  0.234900  0.597200  0.195800  1.0
  H  H411  1  0.934100  0.450500  0.660000  1.0
  H  H412  1  0.065900  0.549500  0.340000  1.0
  H  H413  1  0.941600  0.437500  0.752600  1.0
  H  H414  1  0.058400  0.562500  0.247400  1.0
  H  H415  1  0.858400  0.402500  0.776400  1.0
  H  H416  1  0.141600  0.597500  0.223600  1.0
  H  H417  1  0.740100  0.394800  0.564400  1.0
  H  H418  1  0.259900  0.605200  0.435600  1.0
  H  H419  1  0.656900  0.359800  0.588200  1.0
  H  H420  1  0.343100  0.640200  0.411800  1.0
  H  H421  1  0.664400  0.346700  0.680800  1.0
  H  H422  1  0.335600  0.653300  0.319200  1.0
  H  H423  1  0.505400  0.638800  0.775200  1.0
  H  H424  1  0.494600  0.361200  0.224800  1.0
  H  H425  1  0.574600  0.650000  0.946000  1.0
  H  H426  1  0.425400  0.350000  0.054000  1.0
  H  H427  1  0.484400  0.610300  0.952200  1.0
  H  H428  1  0.515600  0.389700  0.047800  1.0
  H  H429  1  0.618500  0.649400  0.819100  1.0
  H  H430  1  0.381500  0.350600  0.180900  1.0
  H  H431  1  0.600300  0.714600  0.850900  1.0
  H  H432  1  0.399700  0.285400  0.149100  1.0
  H  H433  1  0.679500  0.660000  0.894400  1.0
  H  H434  1  0.320500  0.340000  0.105600  1.0
  H  H435  1  0.414900  0.618400  0.696100  1.0
  H  H436  1  0.585100  0.381600  0.303900  1.0
  H  H437  1  0.311500  0.571900  0.642200  1.0
  H  H438  1  0.688500  0.428100  0.357800  1.0
  H  H439  1  0.250100  0.502600  0.737300  1.0
  H  H440  1  0.749900  0.497400  0.262700  1.0
  H  H441  1  0.230500  0.511300  0.673700  1.0
  H  H442  1  0.769500  0.488700  0.326300  1.0
  H  H443  1  0.759200  0.543600  0.759200  1.0
  H  H444  1  0.240800  0.456400  0.240800  1.0
  H  H445  1  0.665900  0.534200  0.595600  1.0
  H  H446  1  0.334100  0.465800  0.404400  1.0
  H  H447  1  0.751500  0.566100  0.573300  1.0
  H  H448  1  0.248500  0.433900  0.426700  1.0
  H  H449  1  0.653600  0.479600  0.702200  1.0
  H  H450  1  0.346400  0.520400  0.297800  1.0
  H  H451  1  0.638100  0.547300  0.725500  1.0
  H  H452  1  0.361900  0.452700  0.274500  1.0
  H  H453  1  0.575400  0.531100  0.649700  1.0
  H  H454  1  0.424600  0.468900  0.350300  1.0
  H  H455  1  0.853500  0.570100  0.829700  1.0
  H  H456  1  0.146500  0.429900  0.170300  1.0
  H  H457  1  0.960500  0.611900  0.869500  1.0
  H  H458  1  0.039500  0.388100  0.130500  1.0
  H  H459  1  0.033500  0.665300  0.826100  1.0
  H  H460  1  0.966500  0.334700  0.173900  1.0
  H  H461  1  0.009800  0.668700  0.760700  1.0
  H  H462  1  0.990200  0.331300  0.239300  1.0
  H  H463  1  0.269000  0.650400  0.764400  1.0
  H  H464  1  0.731000  0.349600  0.235600  1.0
  H  H465  1  0.206700  0.724300  0.799500  1.0
  H  H466  1  0.793300  0.275700  0.200500  1.0
  H  H467  1  0.108600  0.697900  0.797600  1.0
  H  H468  1  0.891400  0.302100  0.202400  1.0
  H  H469  1  0.153600  0.475100  0.704100  1.0
  H  H470  1  0.846400  0.524900  0.295900  1.0
  H  H471  1  0.055500  0.448700  0.702100  1.0
  H  H472  1  0.944500  0.551300  0.297900  1.0
  H  H473  1  0.993200  0.522500  0.737300  1.0
  H  H474  1  0.006800  0.477500  0.262700  1.0
  C  C475  1  0.955000  0.561400  0.046700  1
  C  C476  1  0.045000  0.438600  0.953300  1
  C  C477  1  0.010900  0.509100  0.108500  1
  C  C478  1  0.989100  0.490900  0.891500  1
  C  C479  1  0.062400  0.585300  0.084100  1
  C  C480  1  0.937600  0.414700  0.915900  1
  C  C481  1  0.964900  0.094700  0.131000  1
  C  C482  1  0.035100  0.905300  0.869000  1
  C  C483  1  0.916700  0.119600  0.045000  1
  C  C484  1  0.083300  0.880400  0.955000  1
  C  C485  1  0.933400  0.195500  0.144600  1
  C  C486  1  0.066600  0.804500  0.855400  1
  C  C487  1  0.019500  0.282100  0.469900  1
  C  C488  1  0.980500  0.717900  0.530100  1
  C  C489  1  0.018600  0.294000  0.573200  1
  C  C490  1  0.981400  0.706000  0.426800  1
  C  C491  1  0.067700  0.213300  0.515000  1
  C  C492  1  0.932300  0.786700  0.485000  1
  C  C493  1  0.515100  0.805800  0.837400  1
  C  C494  1  0.484900  0.194200  0.162600  1
  C  C495  1  0.441100  0.784700  0.883600  1
  C  C496  1  0.558900  0.215300  0.116400  1
  C  C497  1  0.540000  0.806000  0.942700  1
  C  C498  1  0.460000  0.194000  0.057300  1
  C  C499  1  0.526500  0.457800  0.798600  1
  C  C500  1  0.473500  0.542200  0.201400  1
  C  C501  1  0.485100  0.476400  0.700200  1
  C  C502  1  0.514900  0.523600  0.299800  1
  C  C503  1  0.506000  0.378700  0.700800  1
  C  C504  1  0.494000  0.621300  0.299200  1
  C  C505  1  0.425300  0.506400  0.543800  1
  C  C506  1  0.574700  0.493600  0.456200  1
  C  C507  1  0.391700  0.594300  0.519700  1
  C  C508  1  0.608300  0.405700  0.480300  1
  C  C509  1  0.317000  0.531800  0.535200  1
  C  C510  1  0.683000  0.468200  0.464800  1
  C  C511  1  0.888700  0.145100  0.284200  1
  C  C512  1  0.111300  0.854900  0.715800  1
  C  C513  1  0.997300  0.152600  0.316000  1
  C  C514  1  0.002700  0.847400  0.684000  1
  C  C515  1  0.949100  0.054100  0.271000  1
  C  C516  1  0.050900  0.945900  0.729000  1
  C  C517  1  0.937600  0.097800  0.527700  1
  C  C518  1  0.062400  0.902200  0.472300  1
  C  C519  1  0.964900  0.072000  0.433800  1
  C  C520  1  0.035100  0.928000  0.566200  1
  C  C521  1  0.919000  0.000000  0.465700  1
  C  C522  1  0.081000  0.000000  0.534300  1
  C  C523  1  0.180770  0.121000  0.039810  1.0
  C  C524  1  0.819230  0.879000  0.960190  1.0
  C  C525  1  0.193170  0.119200  0.097650  1.0
  C  C526  1  0.806830  0.880800  0.902350  1.0
  C  C527  1  0.248900  0.139400  0.134050  1.0
  C  C528  1  0.751100  0.860600  0.865950  1.0
  C  C529  1  0.292160  0.161500  0.112620  1.0
  C  C530  1  0.707840  0.838500  0.887380  1.0
  C  C531  1  0.279760  0.163400  0.054780  1.0
  C  C532  1  0.720240  0.836600  0.945220  1.0
  C  C533  1  0.262000  0.136900  0.197700  1.0
  C  C534  1  0.738000  0.863100  0.802300  1.0
  C  C535  1  0.126760  0.101700  0.002510  1.0
  C  C536  1  0.873240  0.898300  0.997490  1.0
  C  C537  1  0.075300  0.072600  0.007670  1.0
  C  C538  1  0.924700  0.927400  0.992330  1.0
  C  C539  1  0.033740  0.058400  0.952530  1.0
  C  C540  1  0.966260  0.941600  0.047470  1.0
  C  C541  1  0.034900  0.079900  0.856600  1.0
  C  C542  1  0.965100  0.920100  0.143400  1.0
  C  C543  1  0.736000  0.217800  0.583700  1.0
  C  C544  1  0.264000  0.782200  0.416300  1.0
  C  C545  1  0.711600  0.220800  0.527500  1.0
  C  C546  1  0.288400  0.779200  0.472500  1.0
  C  C547  1  0.653200  0.199500  0.500400  1.0
  C  C548  1  0.346800  0.800500  0.499600  1.0
  C  C549  1  0.619300  0.175100  0.529500  1.0
  C  C550  1  0.380700  0.824900  0.470500  1.0
  C  C551  1  0.643700  0.172100  0.585600  1.0
  C  C552  1  0.356300  0.827900  0.414400  1.0
  C  C553  1  0.628100  0.207000  0.436200  1.0
  C  C554  1  0.371900  0.793000  0.563800  1.0
  C  C555  1  0.792550  0.238700  0.611770  1.0
  C  C556  1  0.207450  0.761300  0.388230  1.0
  C  C557  1  0.838900  0.263200  0.594100  1.0
  C  C558  1  0.161100  0.736800  0.405900  1.0
  C  C559  1  0.889130  0.278000  0.642200  1.0
  C  C560  1  0.110870  0.722000  0.357800  1.0
  C  C561  1  0.908700  0.265400  0.743900  1.0
  C  C562  1  0.091300  0.734600  0.256100  1.0
  C  C563  1  0.013320  0.139700  0.853160  1.0
  C  C564  1  0.986680  0.860300  0.146840  1.0
  C  C565  1  0.015930  0.185790  0.906180  1.0
  C  C566  1  0.984070  0.814210  0.093820  1.0
  C  C567  1  0.992890  0.239390  0.905280  1.0
  C  C568  1  0.007110  0.760610  0.094720  1.0
  C  C569  1  0.967230  0.246890  0.851350  1.0
  C  C570  1  0.032770  0.753110  0.148650  1.0
  C  C571  1  0.964620  0.200790  0.798340  1.0
  C  C572  1  0.035380  0.799210  0.201660  1.0
  C  C573  1  0.987660  0.147200  0.799240  1.0
  C  C574  1  0.012340  0.852800  0.200760  1.0
  C  C575  1  0.985050  0.101100  0.746220  1.0
  C  C576  1  0.014950  0.898900  0.253780  1.0
  C  C577  1  0.959400  0.108600  0.692300  1.0
  C  C578  1  0.040600  0.891400  0.307700  1.0
  C  C579  1  0.936360  0.162190  0.691400  1.0
  C  C580  1  0.063640  0.837810  0.308600  1.0
  C  C581  1  0.938970  0.208290  0.744410  1.0
  C  C582  1  0.061030  0.791710  0.255590  1.0
  C  C583  1  0.277500  0.028900  0.876500  1.0
  C  C584  1  0.722500  0.971100  0.123500  1.0
  C  C585  1  0.295700  0.971400  0.862400  1.0
  C  C586  1  0.704300  0.028600  0.137600  1.0
  C  C587  1  0.256700  0.924000  0.856100  1.0
  C  C588  1  0.743300  0.076000  0.143900  1.0
  C  C589  1  0.199400  0.934000  0.864000  1.0
  C  C590  1  0.800600  0.066000  0.136000  1.0
  C  C591  1  0.181200  0.991500  0.878100  1.0
  C  C592  1  0.818800  0.008500  0.121900  1.0
  C  C593  1  0.291800  0.864200  0.844700  1.0
  C  C594  1  0.708200  0.135800  0.155300  1.0
  C  C595  1  0.311700  0.074870  0.880900  1.0
  C  C596  1  0.688300  0.925130  0.119100  1.0
  C  C597  1  0.368900  0.079400  0.869400  1.0
  C  C598  1  0.631100  0.920600  0.130600  1.0
  C  C599  1  0.387900  0.140700  0.887600  1.0
  C  C600  1  0.612100  0.859300  0.112400  1.0
  C  C601  1  0.337600  0.234300  0.929400  1.0
  C  C602  1  0.662400  0.765700  0.070600  1.0
  C  C603  1  0.250620  0.639120  0.912400  1.0
  C  C604  1  0.749380  0.360880  0.087600  1.0
  C  C605  1  0.222950  0.690700  0.934300  1.0
  C  C606  1  0.777050  0.309300  0.065700  1.0
  C  C607  1  0.254300  0.745910  0.953000  1.0
  C  C608  1  0.745700  0.254090  0.047000  1.0
  C  C609  1  0.313400  0.749620  0.949700  1.0
  C  C610  1  0.686600  0.250380  0.050300  1.0
  C  C611  1  0.341050  0.698100  0.927800  1.0
  C  C612  1  0.658950  0.301900  0.072200  1.0
  C  C613  1  0.222600  0.800100  0.976600  1.0
  C  C614  1  0.777400  0.199900  0.023400  1.0
  C  C615  1  0.220590  0.584930  0.891600  1.0
  C  C616  1  0.779410  0.415070  0.108400  1.0
  C  C617  1  0.161570  0.566160  0.889400  1.0
  C  C618  1  0.838430  0.433840  0.110600  1.0
  C  C619  1  0.153200  0.503710  0.860000  1.0
  C  C620  1  0.846800  0.496290  0.140000  1.0
  C  C621  1  0.222000  0.425900  0.821100  1.0
  C  C622  1  0.778000  0.574100  0.178900  1.0
  C  C623  1  0.305590  0.258790  0.881350  1.0
  C  C624  1  0.694410  0.741210  0.118650  1.0
  C  C625  1  0.294570  0.223500  0.821850  1.0
  C  C626  1  0.705430  0.776500  0.178150  1.0
  C  C627  1  0.268290  0.246760  0.777880  1.0
  C  C628  1  0.731710  0.753240  0.222120  1.0
  C  C629  1  0.253020  0.305300  0.793400  1.0
  C  C630  1  0.746980  0.694700  0.206600  1.0
  C  C631  1  0.264040  0.340580  0.852910  1.0
  C  C632  1  0.735960  0.659420  0.147090  1.0
  C  C633  1  0.290320  0.317330  0.896880  1.0
  C  C634  1  0.709680  0.682670  0.103120  1.0
  C  C635  1  0.301340  0.352610  0.956390  1.0
  C  C636  1  0.698660  0.647390  0.043610  1.0
  C  C637  1  0.286080  0.411150  0.971920  1.0
  C  C638  1  0.713920  0.588850  0.028080  1.0
  C  C639  1  0.259790  0.434410  0.927950  1.0
  C  C640  1  0.740210  0.565590  0.072050  1.0
  C  C641  1  0.248770  0.399130  0.868440  1.0
  C  C642  1  0.751230  0.600870  0.131560  1.0
  C  C643  1  0.400740  0.435400  0.878970  1.0
  C  C644  1  0.599260  0.564600  0.121030  1.0
  C  C645  1  0.417700  0.377500  0.862700  1.0
  C  C646  1  0.582300  0.622500  0.137300  1.0
  C  C647  1  0.408000  0.343190  0.803000  1.0
  C  C648  1  0.592000  0.656810  0.197000  1.0
  C  C649  1  0.381300  0.366900  0.759450  1.0
  C  C650  1  0.618700  0.633100  0.240550  1.0
  C  C651  1  0.364400  0.424800  0.775690  1.0
  C  C652  1  0.635600  0.575200  0.224310  1.0
  C  C653  1  0.428300  0.281400  0.787700  1.0
  C  C654  1  0.571700  0.718600  0.212300  1.0
  C  C655  1  0.409000  0.470810  0.935960  1.0
  C  C656  1  0.591000  0.529190  0.064040  1.0
  C  C657  1  0.430800  0.458950  0.989900  1.0
  C  C658  1  0.569200  0.541050  0.010100  1.0
  C  C659  1  0.432900  0.512600  0.037780  1.0
  C  C660  1  0.567100  0.487400  0.962220  1.0
  C  C661  1  0.400400  0.615700  0.040400  1.0
  C  C662  1  0.599600  0.384300  0.959600  1.0
  C  C663  1  0.183000  0.923320  0.291630  1.0
  C  C664  1  0.817000  0.076680  0.708370  1.0
  C  C665  1  0.156700  0.976400  0.310900  1.0
  C  C666  1  0.843300  0.023600  0.689100  1.0
  C  C667  1  0.165500  0.007590  0.371400  1.0
  C  C668  1  0.834500  0.992410  0.628600  1.0
  C  C669  1  0.200500  0.985800  0.412590  1.0
  C  C670  1  0.799500  0.014200  0.587410  1.0
  C  C671  1  0.226800  0.932800  0.393290  1.0
  C  C672  1  0.773200  0.067200  0.606710  1.0
  C  C673  1  0.134400  0.064200  0.390700  1.0
  C  C674  1  0.865600  0.935800  0.609300  1.0
  C  C675  1  0.172800  0.888880  0.233940  1.0
  C  C676  1  0.827200  0.111120  0.766060  1.0
  C  C677  1  0.141700  0.898670  0.181400  1.0
  C  C678  1  0.858300  0.101330  0.818600  1.0
  C  C679  1  0.139700  0.845500  0.132930  1.0
  C  C680  1  0.860300  0.154500  0.867070  1.0
  C  C681  1  0.182000  0.746300  0.125900  1.0
  C  C682  1  0.818000  0.253700  0.874100  1.0
  C  C683  1  0.338150  0.624040  0.051050  1.0
  C  C684  1  0.661850  0.375960  0.948950  1.0
  C  C685  1  0.301530  0.573140  0.039310  1.0
  C  C686  1  0.698470  0.426860  0.960690  1.0
  C  C687  1  0.245180  0.578120  0.051080  1.0
  C  C688  1  0.754820  0.421880  0.948920  1.0
  C  C689  1  0.225460  0.633990  0.074590  1.0
  C  C690  1  0.774540  0.366010  0.925410  1.0
  C  C691  1  0.262080  0.684890  0.086340  1.0
  C  C692  1  0.737920  0.315110  0.913660  1.0
  C  C693  1  0.318430  0.679910  0.074570  1.0
  C  C694  1  0.681570  0.320090  0.925430  1.0
  C  C695  1  0.355060  0.730810  0.086310  1.0
  C  C696  1  0.644940  0.269190  0.913690  1.0
  C  C697  1  0.335340  0.786680  0.109820  1.0
  C  C698  1  0.664660  0.213320  0.890180  1.0
  C  C699  1  0.278990  0.791660  0.121590  1.0
  C  C700  1  0.721010  0.208340  0.878410  1.0
  C  C701  1  0.242360  0.740760  0.109850  1.0
  C  C702  1  0.757640  0.259240  0.890150  1.0
  C  C703  1  0.844100  0.674740  0.543460  1.0
  C  C704  1  0.155900  0.325260  0.456540  1.0
  C  C705  1  0.830100  0.686540  0.489980  1.0
  C  C706  1  0.169900  0.313460  0.510020  1.0
  C  C707  1  0.825900  0.640700  0.436450  1.0
  C  C708  1  0.174100  0.359300  0.563550  1.0
  C  C709  1  0.835700  0.583110  0.436400  1.0
  C  C710  1  0.164300  0.416890  0.563600  1.0
  C  C711  1  0.849700  0.571300  0.489880  1.0
  C  C712  1  0.150300  0.428700  0.510120  1.0
  C  C713  1  0.812900  0.655000  0.377200  1.0
  C  C714  1  0.187100  0.345000  0.622800  1.0
  C  C715  1  0.849800  0.717350  0.596290  1.0
  C  C716  1  0.150200  0.282650  0.403710  1.0
  C  C717  1  0.836300  0.777820  0.612220  1.0
  C  C718  1  0.163700  0.222180  0.387780  1.0
  C  C719  1  0.853300  0.803090  0.675120  1.0
  C  C720  1  0.146700  0.196910  0.324880  1.0
  C  C721  1  0.896900  0.760000  0.756100  1.0
  C  C722  1  0.103100  0.240000  0.243900  1.0
  C  C723  1  0.856810  0.790000  0.166910  1.0
  C  C724  1  0.143190  0.210000  0.833090  1.0
  C  C725  1  0.879300  0.778910  0.219750  1.0
  C  C726  1  0.120700  0.221090  0.780250  1.0
  C  C727  1  0.886400  0.824500  0.273840  1.0
  C  C728  1  0.113600  0.175500  0.726160  1.0
  C  C729  1  0.870900  0.881220  0.275100  1.0
  C  C730  1  0.129100  0.118780  0.724900  1.0
  C  C731  1  0.848400  0.892310  0.222260  1.0
  C  C732  1  0.151600  0.107690  0.777740  1.0
  C  C733  1  0.911400  0.811700  0.331000  1.0
  C  C734  1  0.088600  0.188300  0.669000  1.0
  C  C735  1  0.848870  0.747190  0.113640  1.0
  C  C736  1  0.151130  0.252810  0.886360  1.0
  C  C737  1  0.863090  0.686940  0.097490  1.0
  C  C738  1  0.136910  0.313060  0.902510  1.0
  C  C739  1  0.842110  0.660570  0.035090  1.0
  C  C740  1  0.157890  0.339430  0.964910  1.0
  C  C741  1  0.793800  0.700700  0.955000  1.0
  C  C742  1  0.206200  0.299300  0.045000  1.0
  C  C743  1  0.850130  0.738160  0.782450  1.0
  C  C744  1  0.149870  0.261840  0.217550  1.0
  C  C745  1  0.792640  0.720290  0.749620  1.0
  C  C746  1  0.207360  0.279710  0.250380  1.0
  C  C747  1  0.750440  0.702350  0.775160  1.0
  C  C748  1  0.249560  0.297650  0.224840  1.0
  C  C749  1  0.765730  0.702270  0.833540  1.0
  C  C750  1  0.234270  0.297730  0.166460  1.0
  C  C751  1  0.823210  0.720140  0.866370  1.0
  C  C752  1  0.176790  0.279860  0.133630  1.0
  C  C753  1  0.865420  0.738080  0.840830  1.0
  C  C754  1  0.134580  0.261920  0.159170  1.0
  C  C755  1  0.922910  0.755940  0.873670  1.0
  C  C756  1  0.077090  0.244060  0.126330  1.0
  C  C757  1  0.938190  0.755870  0.932050  1.0
  C  C758  1  0.061810  0.244130  0.067950  1.0
  C  C759  1  0.895990  0.737930  0.957590  1.0
  C  C760  1  0.104010  0.262070  0.042410  1.0
  C  C761  1  0.838500  0.720060  0.924750  1.0
  C  C762  1  0.161500  0.279940  0.075250  1.0
  C  C763  1  0.015550  0.563730  0.602500  1.0
  C  C764  1  0.984450  0.436270  0.397500  1.0
  C  C765  1  0.073720  0.565690  0.596060  1.0
  C  C766  1  0.926280  0.434310  0.403940  1.0
  C  C767  1  0.107370  0.619820  0.616370  1.0
  C  C768  1  0.892630  0.380180  0.383630  1.0
  C  C769  1  0.082850  0.672000  0.643130  1.0
  C  C770  1  0.917150  0.328000  0.356870  1.0
  C  C771  1  0.024670  0.670050  0.649570  1.0
  C  C772  1  0.975330  0.329950  0.350430  1.0
  C  C773  1  0.170300  0.621500  0.608500  1.0
  C  C774  1  0.829700  0.378500  0.391500  1.0
  C  C775  1  0.981210  0.511520  0.581420  1.0
  C  C776  1  0.018790  0.488480  0.418580  1.0
  C  C777  1  0.992920  0.452550  0.550830  1.0
  C  C778  1  0.007080  0.547450  0.449170  1.0
  C  C779  1  0.940580  0.415080  0.538210  1.0
  C  C780  1  0.059420  0.584920  0.461790  1.0
  C  C781  1  0.843300  0.432500  0.568600  1.0
  C  C782  1  0.156700  0.567500  0.431400  1.0
  C  C783  1  0.622600  0.198040  0.744000  1.0
  C  C784  1  0.377400  0.801960  0.256000  1.0
  C  C785  1  0.568900  0.180700  0.753500  1.0
  C  C786  1  0.431100  0.819300  0.246500  1.0
  C  C787  1  0.552000  0.120700  0.738800  1.0
  C  C788  1  0.448000  0.879300  0.261200  1.0
  C  C789  1  0.588600  0.077900  0.714700  1.0
  C  C790  1  0.411400  0.922100  0.285300  1.0
  C  C791  1  0.642200  0.095200  0.705300  1.0
  C  C792  1  0.357800  0.904800  0.294700  1.0
  C  C793  1  0.491700  0.105000  0.747800  1.0
  C  C794  1  0.508300  0.895000  0.252200  1.0
  C  C795  1  0.657500  0.358070  0.796800  1.0
  C  C796  1  0.342500  0.641930  0.203200  1.0
  C  C797  1  0.616570  0.309300  0.786900  1.0
  C  C798  1  0.383430  0.690700  0.213100  1.0
  C  C799  1  0.642720  0.256070  0.761600  1.0
  C  C800  1  0.357280  0.743930  0.238400  1.0
  C  C801  1  0.757300  0.363700  0.772200  1.0
  C  C802  1  0.242700  0.636300  0.227800  1.0
  C  C803  1  0.846420  0.423310  0.628760  1.0
  C  C804  1  0.153580  0.576690  0.371240  1.0
  C  C805  1  0.900290  0.436340  0.669660  1.0
  C  C806  1  0.099710  0.563660  0.330340  1.0
  C  C807  1  0.904760  0.428570  0.724690  1.0
  C  C808  1  0.095240  0.571430  0.275310  1.0
  C  C809  1  0.855350  0.407790  0.738830  1.0
  C  C810  1  0.144650  0.592210  0.261170  1.0
  C  C811  1  0.801470  0.394760  0.697930  1.0
  C  C812  1  0.198530  0.605240  0.302070  1.0
  C  C813  1  0.797010  0.402530  0.642890  1.0
  C  C814  1  0.202990  0.597470  0.357110  1.0
  C  C815  1  0.743140  0.389500  0.601990  1.0
  C  C816  1  0.256860  0.610500  0.398010  1.0
  C  C817  1  0.693730  0.368720  0.616120  1.0
  C  C818  1  0.306270  0.631280  0.383880  1.0
  C  C819  1  0.698190  0.360950  0.671160  1.0
  C  C820  1  0.301810  0.639050  0.328840  1.0
  C  C821  1  0.752060  0.373970  0.712060  1.0
  C  C822  1  0.247940  0.626030  0.287940  1.0
  C  C823  1  0.447570  0.609400  0.814830  1.0
  C  C824  1  0.552430  0.390600  0.185170  1.0
  C  C825  1  0.501170  0.633000  0.811100  1.0
  C  C826  1  0.498830  0.367000  0.188900  1.0
  C  C827  1  0.548520  0.648100  0.860000  1.0
  C  C828  1  0.451480  0.351900  0.140000  1.0
  C  C829  1  0.542270  0.639700  0.912580  1.0
  C  C830  1  0.457730  0.360300  0.087420  1.0
  C  C831  1  0.488680  0.616100  0.916300  1.0
  C  C832  1  0.511320  0.383900  0.083700  1.0
  C  C833  1  0.606500  0.675000  0.855300  1.0
  C  C834  1  0.393500  0.325000  0.144700  1.0
  C  C835  1  0.398930  0.596300  0.770000  1.0
  C  C836  1  0.601070  0.403700  0.230000  1.0
  C  C837  1  0.388100  0.600900  0.711900  1.0
  C  C838  1  0.611900  0.399100  0.288100  1.0
  C  C839  1  0.330200  0.574900  0.681810  1.0
  C  C840  1  0.669800  0.425100  0.318190  1.0
  C  C841  1  0.248300  0.532200  0.716300  1.0
  C  C842  1  0.751700  0.467800  0.283700  1.0
  C  C843  1  0.808500  0.567100  0.708240  1.0
  C  C844  1  0.191500  0.432900  0.291760  1.0
  C  C845  1  0.757700  0.548200  0.721500  1.0
  C  C846  1  0.242300  0.451800  0.278500  1.0
  C  C847  1  0.704530  0.535900  0.679500  1.0
  C  C848  1  0.295470  0.464100  0.320500  1.0
  C  C849  1  0.702220  0.542600  0.624300  1.0
  C  C850  1  0.297780  0.457400  0.375700  1.0
  C  C851  1  0.753100  0.561600  0.611060  1.0
  C  C852  1  0.246900  0.438400  0.388940  1.0
  C  C853  1  0.647600  0.516100  0.691100  1.0
  C  C854  1  0.352400  0.483900  0.308900  1.0
  C  C855  1  0.861050  0.581900  0.748400  1.0
  C  C856  1  0.138950  0.418100  0.251600  1.0
  C  C857  1  0.878000  0.582900  0.808300  1.0
  C  C858  1  0.122000  0.417100  0.191700  1.0
  C  C859  1  0.937800  0.606300  0.830540  1.0
  C  C860  1  0.062200  0.393700  0.169460  1.0
  C  C861  1  0.014100  0.641700  0.784700  1.0
  C  C862  1  0.985900  0.358300  0.215300  1.0
  C  C863  1  0.207880  0.580230  0.741540  1.0
  C  C864  1  0.792120  0.419770  0.258460  1.0
  C  C865  1  0.229170  0.639740  0.763570  1.0
  C  C866  1  0.770830  0.360260  0.236430  1.0
  C  C867  1  0.192190  0.683600  0.784450  1.0
  C  C868  1  0.807810  0.316400  0.215550  1.0
  C  C869  1  0.133910  0.667940  0.783300  1.0
  C  C870  1  0.866090  0.332060  0.216700  1.0
  C  C871  1  0.112620  0.608430  0.761270  1.0
  C  C872  1  0.887380  0.391570  0.238730  1.0
  C  C873  1  0.149600  0.564570  0.740390  1.0
  C  C874  1  0.850400  0.435430  0.259610  1.0
  C  C875  1  0.128310  0.505060  0.718360  1.0
  C  C876  1  0.871690  0.494940  0.281640  1.0
  C  C877  1  0.070030  0.489400  0.717200  1.0
  C  C878  1  0.929970  0.510600  0.282800  1.0
  C  C879  1  0.033050  0.533250  0.738080  1.0
  C  C880  1  0.966950  0.466750  0.261920  1.0
  C  C881  1  0.054340  0.592770  0.760110  1.0
  C  C882  1  0.945660  0.407230  0.239890  1.0
  N  N883  1  0.061600  0.351200  0.747600  1
  N  N884  1  0.938400  0.648800  0.252400  1
  N  N885  1  0.095400  0.049300  0.178900  1
  N  N886  1  0.904600  0.950700  0.821100  1
  N  N887  1  0.925300  0.307100  0.033400  1
  N  N888  1  0.074700  0.692900  0.966600  1
  N  N889  1  0.501200  0.737100  0.055000  1
  N  N890  1  0.498800  0.262900  0.945000  1
  N  N891  1  0.687700  0.532900  0.852000  1
  N  N892  1  0.312300  0.467100  0.148000  1
  N  N893  1  0.267600  0.969000  0.106100  1
  N  N894  1  0.732400  0.031000  0.893900  1
  N  N895  1  0.855100  0.242100  0.440500  1
  N  N896  1  0.144900  0.757900  0.559500  1
  N  N897  1  0.011600  0.552900  0.079800  1
  N  N898  1  0.988400  0.447100  0.920200  1
  N  N899  1  0.938200  0.138800  0.110500  1
  N  N900  1  0.061800  0.861200  0.889500  1
  N  N901  1  0.036400  0.261000  0.519500  1
  N  N902  1  0.963600  0.739000  0.480500  1
  N  N903  1  0.502600  0.802400  0.891400  1
  N  N904  1  0.497400  0.197600  0.108600  1
  N  N905  1  0.508900  0.440900  0.736900  1
  N  N906  1  0.491100  0.559100  0.263100  1
  N  N907  1  0.374200  0.542100  0.532700  1
  N  N908  1  0.625800  0.457900  0.467300  1
  N  N909  1  0.942000  0.115000  0.290900  1
  N  N910  1  0.058000  0.885000  0.709100  1
  N  N911  1  0.939300  0.052500  0.472300  1
  N  N912  1  0.060700  0.947500  0.527700  1
  N  N913  1  0.827700  0.254900  0.444900  1
  N  N914  1  0.172300  0.745100  0.555100  1
  N  N915  1  0.224060  0.143100  0.018380  1.0
  N  N916  1  0.775940  0.856900  0.981620  1.0
  N  N917  1  0.059450  0.078710  0.913290  1.0
  N  N918  1  0.940550  0.921290  0.086710  1.0
  N  N919  1  0.116940  0.105460  0.944180  1.0
  N  N920  1  0.883060  0.894540  0.055820  1.0
  N  N921  1  0.702100  0.193400  0.612710  1.0
  N  N922  1  0.297900  0.806600  0.387290  1.0
  N  N923  1  0.873760  0.262600  0.689540  1.0
  N  N924  1  0.126240  0.737400  0.310460  1.0
  N  N925  1  0.814060  0.238360  0.670760  1.0
  N  N926  1  0.185940  0.761640  0.329240  1.0
  N  N927  1  0.220200  0.038900  0.884400  1.0
  N  N928  1  0.779800  0.961100  0.115600  1.0
  N  N929  1  0.342400  0.174100  0.910500  1.0
  N  N930  1  0.657600  0.825900  0.089500  1.0
  N  N931  1  0.295300  0.133400  0.906300  1.0
  N  N932  1  0.704700  0.866600  0.093700  1.0
  N  N933  1  0.309670  0.642820  0.909100  1.0
  N  N934  1  0.690330  0.357180  0.090900  1.0
  N  N935  1  0.207050  0.483890  0.844130  1.0
  N  N936  1  0.792950  0.516110  0.155870  1.0
  N  N937  1  0.248700  0.534090  0.863670  1.0
  N  N938  1  0.751300  0.465910  0.136330  1.0
  N  N939  1  0.374070  0.459060  0.835400  1.0
  N  N940  1  0.625930  0.540940  0.164600  1.0
  N  N941  1  0.412410  0.557690  0.013460  1.0
  N  N942  1  0.587590  0.442310  0.986540  1.0
  N  N943  1  0.397610  0.531830  0.950530  1.0
  N  N944  1  0.602390  0.468170  0.049470  1.0
  N  N945  1  0.218100  0.901520  0.332820  1.0
  N  N946  1  0.781900  0.098480  0.667180  1.0
  N  N947  1  0.169700  0.802880  0.155470  1.0
  N  N948  1  0.830300  0.197120  0.844530  1.0
  N  N949  1  0.190100  0.829680  0.217900  1.0
  N  N950  1  0.809900  0.170320  0.782100  1.0
  N  N951  1  0.853880  0.617120  0.543410  1.0
  N  N952  1  0.146120  0.382880  0.456590  1.0
  N  N953  1  0.877300  0.758240  0.698070  1.0
  N  N954  1  0.122700  0.241760  0.301930  1.0
  N  N955  1  0.875140  0.705250  0.649350  1.0
  N  N956  1  0.124860  0.294750  0.350650  1.0
  N  N957  1  0.841330  0.846700  0.168160  1.0
  N  N958  1  0.158670  0.153300  0.831840  1.0
  N  N959  1  0.814920  0.704520  0.012670  1.0
  N  N960  1  0.185080  0.295480  0.987330  1.0
  N  N961  1  0.819100  0.758050  0.061220  1.0
  N  N962  1  0.180900  0.241950  0.938780  1.0
  N  N963  1  0.991020  0.615910  0.629260  1.0
  N  N964  1  0.008980  0.384090  0.370740  1.0
  N  N965  1  0.896520  0.450880  0.561000  1.0
  N  N966  1  0.103480  0.549120  0.439000  1.0
  N  N967  1  0.921630  0.510490  0.587700  1.0
  N  N968  1  0.078370  0.489510  0.412300  1.0
  N  N969  1  0.659190  0.155300  0.720000  1.0
  N  N970  1  0.340810  0.844700  0.280000  1.0
  N  N971  1  0.699840  0.271910  0.755700  1.0
  N  N972  1  0.300160  0.728090  0.244300  1.0
  N  N973  1  0.708990  0.334950  0.777400  1.0
  N  N974  1  0.291010  0.665050  0.222600  1.0
  N  N975  1  0.441330  0.600900  0.867420  1.0
  N  N976  1  0.558670  0.399100  0.132580  1.0
  N  N977  1  0.305240  0.554100  0.721200  1.0
  N  N978  1  0.694760  0.445900  0.278800  1.0
  N  N979  1  0.347700  0.567300  0.775710  1.0
  N  N980  1  0.652300  0.432700  0.224290  1.0
  N  N981  1  0.806190  0.573800  0.653040  1.0
  N  N982  1  0.193810  0.426200  0.346960  1.0
  N  N983  1  0.957930  0.619790  0.784390  1.0
  N  N984  1  0.042070  0.380210  0.215610  1.0
  N  N985  1  0.910480  0.604740  0.733630  1.0
  N  N986  1  0.089520  0.395260  0.266370  1.0
  O  O987  1  0.063300  0.375900  0.800300  1
  O  O988  1  0.936700  0.624100  0.199700  1
  O  O989  1  0.014100  0.335400  0.712400  1
  O  O990  1  0.985900  0.664600  0.287600  1
  O  O991  1  0.107700  0.345100  0.727900  1
  O  O992  1  0.892300  0.654900  0.272100  1
  O  O993  1  0.089400  0.014400  0.128100  1
  O  O994  1  0.910600  0.985600  0.871900  1
  O  O995  1  0.117600  0.099100  0.190600  1
  O  O996  1  0.882400  0.900900  0.809400  1
  O  O997  1  0.075000  0.033700  0.214900  1
  O  O998  1  0.925000  0.966300  0.785100  1
  O  O999  1  0.906400  0.253500  0.001500  1
  O  O1000  1  0.093600  0.746500  0.998500  1
  O  O1001  1  0.937700  0.340700  0.011400  1
  O  O1002  1  0.062300  0.659300  0.988600  1
  O  O1003  1  0.925300  0.316400  0.084300  1
  O  O1004  1  0.074700  0.683600  0.915700  1
  O  O1005  1  0.531400  0.695300  0.051600  1
  O  O1006  1  0.468600  0.304700  0.948400  1
  O  O1007  1  0.504200  0.775300  0.104800  1
  O  O1008  1  0.495800  0.224700  0.895200  1
  O  O1009  1  0.467200  0.739700  0.010900  1
  O  O1010  1  0.532800  0.260300  0.989100  1
  O  O1011  1  0.713200  0.579700  0.881500  1
  O  O1012  1  0.286800  0.420300  0.118500  1
  O  O1013  1  0.716100  0.493200  0.826800  1
  O  O1014  1  0.283900  0.506800  0.173200  1
  O  O1015  1  0.634600  0.526400  0.840500  1
  O  O1016  1  0.365400  0.473600  0.159500  1
  O  O1017  1  0.220100  0.960400  0.068900  1
  O  O1018  1  0.779900  0.039600  0.931100  1
  O  O1019  1  0.315100  0.961000  0.089100  1
  O  O1020  1  0.684900  0.039000  0.910900  1
  O  O1021  1  0.267600  0.975000  0.158800  1
  O  O1022  1  0.732400  0.025000  0.841200  1
  O  O1023  1  0.861700  0.292300  0.478900  1
  O  O1024  1  0.138300  0.707700  0.521100  1
  O  O1025  1  0.821300  0.233100  0.391000  1
  O  O1026  1  0.178700  0.766900  0.609000  1
  O  O1027  1  0.892600  0.205700  0.444900  1
  O  O1028  1  0.107400  0.794300  0.555100  1
  O  O1029  1  0.109200  0.586100  0.115000  1
  O  O1030  1  0.890800  0.413900  0.885000  1
  O  O1031  1  0.954100  0.215700  0.198200  1
  O  O1032  1  0.045900  0.784300  0.801800  1
  O  O1033  1  0.084700  0.184100  0.471200  1
  O  O1034  1  0.915300  0.815900  0.528800  1
  O  O1035  1  0.591300  0.813100  0.951200  1
  O  O1036  1  0.408700  0.186900  0.048800  1
  O  O1037  1  0.536700  0.423000  0.826100  1
  O  O1038  1  0.463300  0.577000  0.173900  1
  O  O1039  1  0.279500  0.561700  0.530900  1
  O  O1040  1  0.720500  0.438300  0.469100  1
  O  O1041  1  0.906300  0.022200  0.246600  1
  O  O1042  1  0.093700  0.977800  0.753400  1
  O  O1043  1  0.938100  0.963000  0.420900  1
  O  O1044  1  0.061900  0.037000  0.579100  1
  O  O1045  1  0.164700  0.461400  0.081000  1
  O  O1046  1  0.835300  0.538600  0.919000  1
  O  O1047  1  0.672300  0.599200  0.384800  1
  O  O1048  1  0.327700  0.400800  0.615200  1
  O  O1049  1  0.317700  0.164100  0.231100  1
  O  O1050  1  0.682300  0.835900  0.768900  1
  O  O1051  1  0.582700  0.160000  0.403100  1
  O  O1052  1  0.417300  0.840000  0.596900  1
  O  O1053  1  0.175000  0.793800  0.007100  1
  O  O1054  1  0.825000  0.206200  0.992900  1
  O  O1055  1  0.438400  0.259500  0.731400  1
  O  O1056  1  0.561600  0.740500  0.268600  1
  O  O1057  1  0.120100  0.072200  0.446400  1
  O  O1058  1  0.879900  0.927800  0.553600  1
  O  O1059  1  0.876300  0.768200  0.338700  1
  O  O1060  1  0.123700  0.231800  0.661300  1
  O  O1061  1  0.446500  0.139200  0.735000  1
  O  O1062  1  0.553500  0.860800  0.265000  1
  O  O1063  1  0.878600  0.279200  0.472800  1
  O  O1064  1  0.121400  0.720800  0.527200  1
  O  O1065  1  0.784800  0.284300  0.458100  1
  O  O1066  1  0.215200  0.715700  0.541900  1
  O  O1067  1  0.819400  0.199900  0.436700  1
  O  O1068  1  0.180600  0.800100  0.563300  1
  O  O1069  1  0.322300  0.130800  0.217800  1.0
  O  O1070  1  0.677700  0.869200  0.782200  1.0
  O  O1071  1  0.565000  0.209800  0.430900  1.0
  O  O1072  1  0.435000  0.790200  0.569100  1.0
  O  O1073  1  0.249800  0.824600  0.843600  1.0
  O  O1074  1  0.750200  0.175400  0.156400  1.0
  O  O1075  1  0.245000  0.847200  0.961400  1.0
  O  O1076  1  0.755000  0.152800  0.038600  1.0
  O  O1077  1  0.486700  0.282500  0.815300  1.0
  O  O1078  1  0.513300  0.717500  0.184700  1.0
  O  O1079  1  0.158700  0.095900  0.449900  1.0
  O  O1080  1  0.841300  0.904100  0.550100  1.0
  O  O1081  1  0.776300  0.610500  0.331400  1.0
  O  O1082  1  0.223700  0.389500  0.668600  1.0
  O  O1083  1  0.900300  0.852100  0.382200  1.0
  O  O1084  1  0.099700  0.147900  0.617800  1.0
  O  O1085  1  0.188300  0.564200  0.587900  1.0
  O  O1086  1  0.811700  0.435800  0.412100  1.0
  O  O1087  1  0.482900  0.047000  0.744300  1.0
  O  O1088  1  0.517100  0.953000  0.255700  1.0
  O  O1089  1  0.652200  0.681000  0.905000  1.0
  O  O1090  1  0.347800  0.319000  0.095000  1.0
  O  O1091  1  0.599000  0.504400  0.642400  1.0
  O  O1092  1  0.401000  0.495600  0.357600  1.0
