# generated using pymatgen
data_H4RhC8O5
_symmetry_space_group_name_H-M   'P 1'
_cell_length_a   28.46400000
_cell_length_b   28.67100000
_cell_length_c   28.67100000
_cell_angle_alpha   120.00000000
_cell_angle_beta   90.00000000
_cell_angle_gamma   90.00000000
_symmetry_Int_Tables_number   1
_chemical_formula_structural   H4RhC8O5
_chemical_formula_sum   'H192 Rh48 C384 O240'
_cell_volume   20263.39656572
_cell_formula_units_Z   48
loop_
 _symmetry_equiv_pos_site_id
 _symmetry_equiv_pos_as_xyz
  1  'x, y, z'
loop_
 _atom_site_type_symbol
 _atom_site_label
 _atom_site_symmetry_multiplicity
 _atom_site_fract_x
 _atom_site_fract_y
 _atom_site_fract_z
 _atom_site_occupancy
  H  H1  1  0.750000  0.558400  0.399600  1.0
  H  H2  1  0.250000  0.441600  0.600400  1.0
  H  H3  1  0.750000  0.841200  0.441600  1.0
  H  H4  1  0.750000  0.600400  0.158800  1.0
  H  H5  1  0.250000  0.399600  0.841200  1.0
  H  H6  1  0.250000  0.158800  0.558400  1.0
  H  H7  1  0.750000  0.494400  0.308900  1.0
  H  H8  1  0.250000  0.505600  0.691100  1.0
  H  H9  1  0.750000  0.814500  0.505600  1.0
  H  H10  1  0.750000  0.691100  0.185500  1.0
  H  H11  1  0.250000  0.308900  0.814500  1.0
  H  H12  1  0.250000  0.185500  0.494400  1.0
  H  H13  1  0.750000  0.403100  0.278500  1.0
  H  H14  1  0.250000  0.596900  0.721500  1.0
  H  H15  1  0.750000  0.875400  0.596900  1.0
  H  H16  1  0.750000  0.721500  0.124600  1.0
  H  H17  1  0.250000  0.278500  0.875400  1.0
  H  H18  1  0.250000  0.124600  0.403100  1.0
  H  H19  1  0.750000  0.435800  0.433400  1.0
  H  H20  1  0.250000  0.564200  0.566600  1.0
  H  H21  1  0.750000  0.997600  0.564200  1.0
  H  H22  1  0.750000  0.566600  0.002400  1.0
  H  H23  1  0.250000  0.433400  0.997600  1.0
  H  H24  1  0.250000  0.002400  0.435800  1.0
  H  H25  1  0.750000  0.797000  0.736200  1.0
  H  H26  1  0.250000  0.203000  0.263800  1.0
  H  H27  1  0.750000  0.939200  0.203000  1.0
  H  H28  1  0.750000  0.263800  0.060800  1.0
  H  H29  1  0.250000  0.736200  0.939200  1.0
  H  H30  1  0.250000  0.060800  0.797000  1.0
  H  H31  1  0.750000  0.861100  0.825400  1.0
  H  H32  1  0.250000  0.138900  0.174600  1.0
  H  H33  1  0.750000  0.964300  0.138900  1.0
  H  H34  1  0.750000  0.174600  0.035700  1.0
  H  H35  1  0.250000  0.825400  0.964300  1.0
  H  H36  1  0.250000  0.035700  0.861100  1.0
  H  H37  1  0.750000  0.836800  0.895100  1.0
  H  H38  1  0.250000  0.163200  0.104900  1.0
  H  H39  1  0.750000  0.058300  0.163200  1.0
  H  H40  1  0.750000  0.104900  0.941700  1.0
  H  H41  1  0.250000  0.895100  0.058300  1.0
  H  H42  1  0.250000  0.941700  0.836800  1.0
  H  H43  1  0.750000  0.680000  0.775000  1.0
  H  H44  1  0.250000  0.320000  0.225000  1.0
  H  H45  1  0.750000  0.095000  0.320000  1.0
  H  H46  1  0.750000  0.225000  0.905000  1.0
  H  H47  1  0.250000  0.775000  0.095000  1.0
  H  H48  1  0.250000  0.905000  0.680000  1.0
  H  H49  1  0.481600  0.658800  0.648800  1.0
  H  H50  1  0.981600  0.341200  0.351200  1.0
  H  H51  1  0.481600  0.990000  0.341200  1.0
  H  H52  1  0.481600  0.351200  0.010000  1.0
  H  H53  1  0.981600  0.648800  0.990000  1.0
  H  H54  1  0.981600  0.010000  0.658800  1.0
  H  H55  1  0.518400  0.341200  0.351200  1.0
  H  H56  1  0.018400  0.658800  0.648800  1.0
  H  H57  1  0.518400  0.010000  0.658800  1.0
  H  H58  1  0.518400  0.648800  0.990000  1.0
  H  H59  1  0.018400  0.351200  0.010000  1.0
  H  H60  1  0.018400  0.990000  0.341200  1.0
  H  H61  1  0.510900  0.685900  0.593100  1.0
  H  H62  1  0.010900  0.314100  0.406900  1.0
  H  H63  1  0.510900  0.907200  0.314100  1.0
  H  H64  1  0.510900  0.406900  0.092800  1.0
  H  H65  1  0.010900  0.593100  0.907200  1.0
  H  H66  1  0.010900  0.092800  0.685900  1.0
  H  H67  1  0.489100  0.314100  0.406900  1.0
  H  H68  1  0.989100  0.685900  0.593100  1.0
  H  H69  1  0.489100  0.092800  0.685900  1.0
  H  H70  1  0.489100  0.593100  0.907200  1.0
  H  H71  1  0.989100  0.406900  0.092800  1.0
  H  H72  1  0.989100  0.907200  0.314100  1.0
  H  H73  1  0.593700  0.679800  0.576800  1.0
  H  H74  1  0.093700  0.320200  0.423200  1.0
  H  H75  1  0.593700  0.897000  0.320200  1.0
  H  H76  1  0.593700  0.423200  0.103000  1.0
  H  H77  1  0.093700  0.576800  0.897000  1.0
  H  H78  1  0.093700  0.103000  0.679800  1.0
  H  H79  1  0.406300  0.320200  0.423200  1.0
  H  H80  1  0.906300  0.679800  0.576800  1.0
  H  H81  1  0.406300  0.103000  0.679800  1.0
  H  H82  1  0.406300  0.576800  0.897000  1.0
  H  H83  1  0.906300  0.423200  0.103000  1.0
  H  H84  1  0.906300  0.897000  0.320200  1.0
  H  H85  1  0.603600  0.584200  0.643000  1.0
  H  H86  1  0.103600  0.415800  0.357000  1.0
  H  H87  1  0.603600  0.058800  0.415800  1.0
  H  H88  1  0.603600  0.357000  0.941200  1.0
  H  H89  1  0.103600  0.643000  0.058800  1.0
  H  H90  1  0.103600  0.941200  0.584200  1.0
  H  H91  1  0.396400  0.415800  0.357000  1.0
  H  H92  1  0.896400  0.584200  0.643000  1.0
  H  H93  1  0.396400  0.941200  0.584200  1.0
  H  H94  1  0.396400  0.643000  0.058800  1.0
  H  H95  1  0.896400  0.357000  0.941200  1.0
  H  H96  1  0.896400  0.058800  0.415800  1.0
  H  H97  1  0.358500  0.466800  0.610600  1.0
  H  H98  1  0.858500  0.533200  0.389400  1.0
  H  H99  1  0.358500  0.143800  0.533200  1.0
  H  H100  1  0.358500  0.389400  0.856200  1.0
  H  H101  1  0.858500  0.610600  0.143800  1.0
  H  H102  1  0.858500  0.856200  0.466800  1.0
  H  H103  1  0.641500  0.533200  0.389400  1.0
  H  H104  1  0.141500  0.466800  0.610600  1.0
  H  H105  1  0.641500  0.856200  0.466800  1.0
  H  H106  1  0.641500  0.610600  0.143800  1.0
  H  H107  1  0.141500  0.389400  0.856200  1.0
  H  H108  1  0.141500  0.143800  0.533200  1.0
  H  H109  1  0.320700  0.393600  0.541700  1.0
  H  H110  1  0.820700  0.606400  0.458300  1.0
  H  H111  1  0.320700  0.148100  0.606400  1.0
  H  H112  1  0.320700  0.458300  0.851900  1.0
  H  H113  1  0.820700  0.541700  0.148100  1.0
  H  H114  1  0.820700  0.851900  0.393600  1.0
  H  H115  1  0.679300  0.606400  0.458300  1.0
  H  H116  1  0.179300  0.393600  0.541700  1.0
  H  H117  1  0.679300  0.851900  0.393600  1.0
  H  H118  1  0.679300  0.541700  0.148100  1.0
  H  H119  1  0.179300  0.458300  0.851900  1.0
  H  H120  1  0.179300  0.148100  0.606400  1.0
  H  H121  1  0.356900  0.310200  0.491500  1.0
  H  H122  1  0.856900  0.689800  0.508500  1.0
  H  H123  1  0.356900  0.181300  0.689800  1.0
  H  H124  1  0.356900  0.508500  0.818700  1.0
  H  H125  1  0.856900  0.491500  0.181300  1.0
  H  H126  1  0.856900  0.818700  0.310200  1.0
  H  H127  1  0.643100  0.689800  0.508500  1.0
  H  H128  1  0.143100  0.310200  0.491500  1.0
  H  H129  1  0.643100  0.818700  0.310200  1.0
  H  H130  1  0.643100  0.491500  0.181300  1.0
  H  H131  1  0.143100  0.508500  0.818700  1.0
  H  H132  1  0.143100  0.181300  0.689800  1.0
  H  H133  1  0.475100  0.373800  0.580000  1.0
  H  H134  1  0.975100  0.626200  0.420000  1.0
  H  H135  1  0.475100  0.206200  0.626200  1.0
  H  H136  1  0.475100  0.420000  0.793800  1.0
  H  H137  1  0.975100  0.580000  0.206200  1.0
  H  H138  1  0.975100  0.793800  0.373800  1.0
  H  H139  1  0.524900  0.626200  0.420000  1.0
  H  H140  1  0.024900  0.373800  0.580000  1.0
  H  H141  1  0.524900  0.793800  0.373800  1.0
  H  H142  1  0.524900  0.580000  0.206200  1.0
  H  H143  1  0.024900  0.420000  0.793800  1.0
  H  H144  1  0.024900  0.206200  0.626200  1.0
  H  H145  1  0.481700  0.186200  0.278000  1.0
  H  H146  1  0.981700  0.813800  0.722000  1.0
  H  H147  1  0.481700  0.091800  0.813800  1.0
  H  H148  1  0.481700  0.722000  0.908200  1.0
  H  H149  1  0.981700  0.278000  0.091800  1.0
  H  H150  1  0.981700  0.908200  0.186200  1.0
  H  H151  1  0.518300  0.813800  0.722000  1.0
  H  H152  1  0.018300  0.186200  0.278000  1.0
  H  H153  1  0.518300  0.908200  0.186200  1.0
  H  H154  1  0.518300  0.278000  0.091800  1.0
  H  H155  1  0.018300  0.722000  0.908200  1.0
  H  H156  1  0.018300  0.091800  0.813800  1.0
  H  H157  1  0.515200  0.216500  0.222900  1.0
  H  H158  1  0.015200  0.783500  0.777100  1.0
  H  H159  1  0.515200  0.006400  0.783500  1.0
  H  H160  1  0.515200  0.777100  0.993600  1.0
  H  H161  1  0.015200  0.222900  0.006400  1.0
  H  H162  1  0.015200  0.993600  0.216500  1.0
  H  H163  1  0.484800  0.783500  0.777100  1.0
  H  H164  1  0.984800  0.216500  0.222900  1.0
  H  H165  1  0.484800  0.993600  0.216500  1.0
  H  H166  1  0.484800  0.222900  0.006400  1.0
  H  H167  1  0.984800  0.777100  0.993600  1.0
  H  H168  1  0.984800  0.006400  0.783500  1.0
  H  H169  1  0.596700  0.223000  0.218900  1.0
  H  H170  1  0.096700  0.777000  0.781100  1.0
  H  H171  1  0.596700  0.995900  0.777000  1.0
  H  H172  1  0.596700  0.781100  0.004100  1.0
  H  H173  1  0.096700  0.218900  0.995900  1.0
  H  H174  1  0.096700  0.004100  0.223000  1.0
  H  H175  1  0.403300  0.777000  0.781100  1.0
  H  H176  1  0.903300  0.223000  0.218900  1.0
  H  H177  1  0.403300  0.004100  0.223000  1.0
  H  H178  1  0.403300  0.218900  0.995900  1.0
  H  H179  1  0.903300  0.781100  0.004100  1.0
  H  H180  1  0.903300  0.995900  0.777000  1.0
  H  H181  1  0.604200  0.227900  0.362800  1.0
  H  H182  1  0.104200  0.772100  0.637200  1.0
  H  H183  1  0.604200  0.134900  0.772100  1.0
  H  H184  1  0.604200  0.637200  0.865100  1.0
  H  H185  1  0.104200  0.362800  0.134900  1.0
  H  H186  1  0.104200  0.865100  0.227900  1.0
  H  H187  1  0.395800  0.772100  0.637200  1.0
  H  H188  1  0.895800  0.227900  0.362800  1.0
  H  H189  1  0.395800  0.865100  0.227900  1.0
  H  H190  1  0.395800  0.362800  0.134900  1.0
  H  H191  1  0.895800  0.637200  0.865100  1.0
  H  H192  1  0.895800  0.134900  0.772100  1.0
  Rh  Rh193  1  0.750000  0.583900  0.599620  1.0
  Rh  Rh194  1  0.250000  0.416100  0.400380  1.0
  Rh  Rh195  1  0.750000  0.015720  0.416100  1.0
  Rh  Rh196  1  0.750000  0.400380  0.984280  1.0
  Rh  Rh197  1  0.250000  0.599620  0.015720  1.0
  Rh  Rh198  1  0.250000  0.984280  0.583900  1.0
  Rh  Rh199  1  0.750000  0.653030  0.575700  1.0
  Rh  Rh200  1  0.250000  0.346970  0.424300  1.0
  Rh  Rh201  1  0.750000  0.922670  0.346970  1.0
  Rh  Rh202  1  0.750000  0.424300  0.077330  1.0
  Rh  Rh203  1  0.250000  0.575700  0.922670  1.0
  Rh  Rh204  1  0.250000  0.077330  0.653030  1.0
  Rh  Rh205  1  0.750000  0.255900  0.343560  1.0
  Rh  Rh206  1  0.250000  0.744100  0.656440  1.0
  Rh  Rh207  1  0.750000  0.087660  0.744100  1.0
  Rh  Rh208  1  0.750000  0.656440  0.912340  1.0
  Rh  Rh209  1  0.250000  0.343560  0.087660  1.0
  Rh  Rh210  1  0.250000  0.912340  0.255900  1.0
  Rh  Rh211  1  0.750000  0.238160  0.252500  1.0
  Rh  Rh212  1  0.250000  0.761840  0.747500  1.0
  Rh  Rh213  1  0.750000  0.014340  0.761840  1.0
  Rh  Rh214  1  0.750000  0.747500  0.985660  1.0
  Rh  Rh215  1  0.250000  0.252500  0.014340  1.0
  Rh  Rh216  1  0.250000  0.985660  0.238160  1.0
  Rh  Rh217  1  0.517420  0.524950  0.728380  1.0
  Rh  Rh218  1  0.017420  0.475050  0.271620  1.0
  Rh  Rh219  1  0.517420  0.203430  0.475050  1.0
  Rh  Rh220  1  0.517420  0.271620  0.796570  1.0
  Rh  Rh221  1  0.017420  0.728380  0.203430  1.0
  Rh  Rh222  1  0.017420  0.796570  0.524950  1.0
  Rh  Rh223  1  0.482580  0.475050  0.271620  1.0
  Rh  Rh224  1  0.982580  0.524950  0.728380  1.0
  Rh  Rh225  1  0.482580  0.796570  0.524950  1.0
  Rh  Rh226  1  0.482580  0.728380  0.203430  1.0
  Rh  Rh227  1  0.982580  0.271620  0.796570  1.0
  Rh  Rh228  1  0.982580  0.203430  0.475050  1.0
  Rh  Rh229  1  0.447560  0.577490  0.744490  1.0
  Rh  Rh230  1  0.947560  0.422510  0.255510  1.0
  Rh  Rh231  1  0.447560  0.167000  0.422510  1.0
  Rh  Rh232  1  0.447560  0.255510  0.833000  1.0
  Rh  Rh233  1  0.947560  0.744490  0.167000  1.0
  Rh  Rh234  1  0.947560  0.833000  0.577490  1.0
  Rh  Rh235  1  0.552440  0.422510  0.255510  1.0
  Rh  Rh236  1  0.052440  0.577490  0.744490  1.0
  Rh  Rh237  1  0.552440  0.833000  0.577490  1.0
  Rh  Rh238  1  0.552440  0.744490  0.167000  1.0
  Rh  Rh239  1  0.052440  0.255510  0.833000  1.0
  Rh  Rh240  1  0.052440  0.167000  0.422510  1.0
  C  C241  1  0.750000  0.544500  0.486900  1.0
  C  C242  1  0.250000  0.455500  0.513100  1.0
  C  C243  1  0.750000  0.942400  0.455500  1.0
  C  C244  1  0.750000  0.513100  0.057600  1.0
  C  C245  1  0.250000  0.486900  0.942400  1.0
  C  C246  1  0.250000  0.057600  0.544500  1.0
  C  C247  1  0.750000  0.503200  0.426200  1.0
  C  C248  1  0.250000  0.496800  0.573800  1.0
  C  C249  1  0.750000  0.923000  0.496800  1.0
  C  C250  1  0.750000  0.573800  0.077000  1.0
  C  C251  1  0.250000  0.426200  0.923000  1.0
  C  C252  1  0.250000  0.077000  0.503200  1.0
  C  C253  1  0.750000  0.521100  0.388300  1.0
  C  C254  1  0.250000  0.478900  0.611700  1.0
  C  C255  1  0.750000  0.867200  0.478900  1.0
  C  C256  1  0.750000  0.611700  0.132800  1.0
  C  C257  1  0.250000  0.388300  0.867200  1.0
  C  C258  1  0.250000  0.132800  0.521100  1.0
  C  C259  1  0.750000  0.482700  0.334600  1.0
  C  C260  1  0.250000  0.517300  0.665400  1.0
  C  C261  1  0.750000  0.851900  0.517300  1.0
  C  C262  1  0.750000  0.665400  0.148100  1.0
  C  C263  1  0.250000  0.334600  0.851900  1.0
  C  C264  1  0.250000  0.148100  0.482700  1.0
  C  C265  1  0.750000  0.428100  0.316100  1.0
  C  C266  1  0.250000  0.571900  0.683900  1.0
  C  C267  1  0.750000  0.888000  0.571900  1.0
  C  C268  1  0.750000  0.683900  0.112000  1.0
  C  C269  1  0.250000  0.316100  0.888000  1.0
  C  C270  1  0.250000  0.112000  0.428100  1.0
  C  C271  1  0.750000  0.410100  0.352400  1.0
  C  C272  1  0.250000  0.589900  0.647600  1.0
  C  C273  1  0.750000  0.942300  0.589900  1.0
  C  C274  1  0.750000  0.647600  0.057700  1.0
  C  C275  1  0.250000  0.352400  0.942300  1.0
  C  C276  1  0.250000  0.057700  0.410100  1.0
  C  C277  1  0.750000  0.448000  0.408200  1.0
  C  C278  1  0.250000  0.552000  0.591800  1.0
  C  C279  1  0.750000  0.960200  0.552000  1.0
  C  C280  1  0.750000  0.591800  0.039800  1.0
  C  C281  1  0.250000  0.408200  0.960200  1.0
  C  C282  1  0.250000  0.039800  0.448000  1.0
  C  C283  1  0.750000  0.348600  0.332800  1.0
  C  C284  1  0.250000  0.651400  0.667200  1.0
  C  C285  1  0.750000  0.984200  0.651400  1.0
  C  C286  1  0.750000  0.667200  0.015800  1.0
  C  C287  1  0.250000  0.332800  0.984200  1.0
  C  C288  1  0.250000  0.015800  0.348600  1.0
  C  C289  1  0.750000  0.694900  0.688600  1.0
  C  C290  1  0.250000  0.305100  0.311400  1.0
  C  C291  1  0.750000  0.993700  0.305100  1.0
  C  C292  1  0.750000  0.311400  0.006300  1.0
  C  C293  1  0.250000  0.688600  0.993700  1.0
  C  C294  1  0.250000  0.006300  0.694900  1.0
  C  C295  1  0.750000  0.734300  0.747700  1.0
  C  C296  1  0.250000  0.265700  0.252300  1.0
  C  C297  1  0.750000  0.013400  0.265700  1.0
  C  C298  1  0.750000  0.252300  0.986600  1.0
  C  C299  1  0.250000  0.747700  0.013400  1.0
  C  C300  1  0.250000  0.986600  0.734300  1.0
  C  C301  1  0.750000  0.786400  0.762800  1.0
  C  C302  1  0.250000  0.213600  0.237200  1.0
  C  C303  1  0.750000  0.976400  0.213600  1.0
  C  C304  1  0.750000  0.237200  0.023600  1.0
  C  C305  1  0.250000  0.762800  0.976400  1.0
  C  C306  1  0.250000  0.023600  0.786400  1.0
  C  C307  1  0.750000  0.824200  0.815600  1.0
  C  C308  1  0.250000  0.175800  0.184400  1.0
  C  C309  1  0.750000  0.991400  0.175800  1.0
  C  C310  1  0.750000  0.184400  0.008600  1.0
  C  C311  1  0.250000  0.815600  0.991400  1.0
  C  C312  1  0.250000  0.008600  0.824200  1.0
  C  C313  1  0.750000  0.810400  0.857900  1.0
  C  C314  1  0.250000  0.189600  0.142100  1.0
  C  C315  1  0.750000  0.047500  0.189600  1.0
  C  C316  1  0.750000  0.142100  0.952500  1.0
  C  C317  1  0.250000  0.857900  0.047500  1.0
  C  C318  1  0.250000  0.952500  0.810400  1.0
  C  C319  1  0.750000  0.757900  0.840500  1.0
  C  C320  1  0.250000  0.242100  0.159500  1.0
  C  C321  1  0.750000  0.082600  0.242100  1.0
  C  C322  1  0.750000  0.159500  0.917400  1.0
  C  C323  1  0.250000  0.840500  0.082600  1.0
  C  C324  1  0.250000  0.917400  0.757900  1.0
  C  C325  1  0.750000  0.717100  0.785600  1.0
  C  C326  1  0.250000  0.282900  0.214400  1.0
  C  C327  1  0.750000  0.068500  0.282900  1.0
  C  C328  1  0.750000  0.214400  0.931500  1.0
  C  C329  1  0.250000  0.785600  0.068500  1.0
  C  C330  1  0.250000  0.931500  0.717100  1.0
  C  C331  1  0.750000  0.738000  0.882100  1.0
  C  C332  1  0.250000  0.262000  0.117900  1.0
  C  C333  1  0.750000  0.144100  0.262000  1.0
  C  C334  1  0.750000  0.117900  0.855900  1.0
  C  C335  1  0.250000  0.882100  0.144100  1.0
  C  C336  1  0.250000  0.855900  0.738000  1.0
  C  C337  1  0.517900  0.594300  0.683700  1.0
  C  C338  1  0.017900  0.405700  0.316300  1.0
  C  C339  1  0.517900  0.089400  0.405700  1.0
  C  C340  1  0.517900  0.316300  0.910600  1.0
  C  C341  1  0.017900  0.683700  0.089400  1.0
  C  C342  1  0.017900  0.910600  0.594300  1.0
  C  C343  1  0.482100  0.405700  0.316300  1.0
  C  C344  1  0.982100  0.594300  0.683700  1.0
  C  C345  1  0.482100  0.910600  0.594300  1.0
  C  C346  1  0.482100  0.683700  0.089400  1.0
  C  C347  1  0.982100  0.316300  0.910600  1.0
  C  C348  1  0.982100  0.089400  0.405700  1.0
  C  C349  1  0.538600  0.616600  0.649300  1.0
  C  C350  1  0.038600  0.383400  0.350700  1.0
  C  C351  1  0.538600  0.032700  0.383400  1.0
  C  C352  1  0.538600  0.350700  0.967300  1.0
  C  C353  1  0.038600  0.649300  0.032700  1.0
  C  C354  1  0.038600  0.967300  0.616600  1.0
  C  C355  1  0.461400  0.383400  0.350700  1.0
  C  C356  1  0.961400  0.616600  0.649300  1.0
  C  C357  1  0.461400  0.967300  0.616600  1.0
  C  C358  1  0.461400  0.649300  0.032700  1.0
  C  C359  1  0.961400  0.350700  0.967300  1.0
  C  C360  1  0.961400  0.032700  0.383400  1.0
  C  C361  1  0.512900  0.649500  0.636000  1.0
  C  C362  1  0.012900  0.350500  0.364000  1.0
  C  C363  1  0.512900  0.986500  0.350500  1.0
  C  C364  1  0.512900  0.364000  0.013500  1.0
  C  C365  1  0.012900  0.636000  0.986500  1.0
  C  C366  1  0.012900  0.013500  0.649500  1.0
  C  C367  1  0.487100  0.350500  0.364000  1.0
  C  C368  1  0.987100  0.649500  0.636000  1.0
  C  C369  1  0.487100  0.013500  0.649500  1.0
  C  C370  1  0.487100  0.636000  0.986500  1.0
  C  C371  1  0.987100  0.364000  0.013500  1.0
  C  C372  1  0.987100  0.986500  0.350500  1.0
  C  C373  1  0.530700  0.668300  0.606200  1.0
  C  C374  1  0.030700  0.331700  0.393800  1.0
  C  C375  1  0.530700  0.937900  0.331700  1.0
  C  C376  1  0.530700  0.393800  0.062100  1.0
  C  C377  1  0.030700  0.606200  0.937900  1.0
  C  C378  1  0.030700  0.062100  0.668300  1.0
  C  C379  1  0.469300  0.331700  0.393800  1.0
  C  C380  1  0.969300  0.668300  0.606200  1.0
  C  C381  1  0.469300  0.062100  0.668300  1.0
  C  C382  1  0.469300  0.606200  0.937900  1.0
  C  C383  1  0.969300  0.393800  0.062100  1.0
  C  C384  1  0.969300  0.937900  0.331700  1.0
  C  C385  1  0.579600  0.662200  0.593900  1.0
  C  C386  1  0.079600  0.337800  0.406100  1.0
  C  C387  1  0.579600  0.931700  0.337800  1.0
  C  C388  1  0.579600  0.406100  0.068300  1.0
  C  C389  1  0.079600  0.593900  0.931700  1.0
  C  C390  1  0.079600  0.068300  0.662200  1.0
  C  C391  1  0.420400  0.337800  0.406100  1.0
  C  C392  1  0.920400  0.662200  0.593900  1.0
  C  C393  1  0.420400  0.068300  0.662200  1.0
  C  C394  1  0.420400  0.593900  0.931700  1.0
  C  C395  1  0.920400  0.406100  0.068300  1.0
  C  C396  1  0.920400  0.931700  0.337800  1.0
  C  C397  1  0.606000  0.630100  0.607200  1.0
  C  C398  1  0.106000  0.369900  0.392800  1.0
  C  C399  1  0.606000  0.977100  0.369900  1.0
  C  C400  1  0.606000  0.392800  0.022900  1.0
  C  C401  1  0.106000  0.607200  0.977100  1.0
  C  C402  1  0.106000  0.022900  0.630100  1.0
  C  C403  1  0.394000  0.369900  0.392800  1.0
  C  C404  1  0.894000  0.630100  0.607200  1.0
  C  C405  1  0.394000  0.022900  0.630100  1.0
  C  C406  1  0.394000  0.607200  0.977100  1.0
  C  C407  1  0.894000  0.392800  0.022900  1.0
  C  C408  1  0.894000  0.977100  0.369900  1.0
  C  C409  1  0.585600  0.606800  0.634400  1.0
  C  C410  1  0.085600  0.393200  0.365600  1.0
  C  C411  1  0.585600  0.027600  0.393200  1.0
  C  C412  1  0.585600  0.365600  0.972400  1.0
  C  C413  1  0.085600  0.634400  0.027600  1.0
  C  C414  1  0.085600  0.972400  0.606800  1.0
  C  C415  1  0.414400  0.393200  0.365600  1.0
  C  C416  1  0.914400  0.606800  0.634400  1.0
  C  C417  1  0.414400  0.972400  0.606800  1.0
  C  C418  1  0.414400  0.634400  0.027600  1.0
  C  C419  1  0.914400  0.365600  0.972400  1.0
  C  C420  1  0.914400  0.027600  0.393200  1.0
  C  C421  1  0.658100  0.624900  0.596400  1.0
  C  C422  1  0.158100  0.375100  0.403600  1.0
  C  C423  1  0.658100  0.971500  0.375100  1.0
  C  C424  1  0.658100  0.403600  0.028500  1.0
  C  C425  1  0.158100  0.596400  0.971500  1.0
  C  C426  1  0.158100  0.028500  0.624900  1.0
  C  C427  1  0.341900  0.375100  0.403600  1.0
  C  C428  1  0.841900  0.624900  0.596400  1.0
  C  C429  1  0.341900  0.028500  0.624900  1.0
  C  C430  1  0.341900  0.596400  0.971500  1.0
  C  C431  1  0.841900  0.403600  0.028500  1.0
  C  C432  1  0.841900  0.971500  0.375100  1.0
  C  C433  1  0.445400  0.473100  0.649800  1.0
  C  C434  1  0.945400  0.526900  0.350200  1.0
  C  C435  1  0.445400  0.176700  0.526900  1.0
  C  C436  1  0.445400  0.350200  0.823300  1.0
  C  C437  1  0.945400  0.649800  0.176700  1.0
  C  C438  1  0.945400  0.823300  0.473100  1.0
  C  C439  1  0.554600  0.526900  0.350200  1.0
  C  C440  1  0.054600  0.473100  0.649800  1.0
  C  C441  1  0.554600  0.823300  0.473100  1.0
  C  C442  1  0.554600  0.649800  0.176700  1.0
  C  C443  1  0.054600  0.350200  0.823300  1.0
  C  C444  1  0.054600  0.176700  0.526900  1.0
  C  C445  1  0.421600  0.426400  0.601900  1.0
  C  C446  1  0.921600  0.573600  0.398100  1.0
  C  C447  1  0.421600  0.175500  0.573600  1.0
  C  C448  1  0.421600  0.398100  0.824500  1.0
  C  C449  1  0.921600  0.601900  0.175500  1.0
  C  C450  1  0.921600  0.824500  0.426400  1.0
  C  C451  1  0.578400  0.573600  0.398100  1.0
  C  C452  1  0.078400  0.426400  0.601900  1.0
  C  C453  1  0.578400  0.824500  0.426400  1.0
  C  C454  1  0.578400  0.601900  0.175500  1.0
  C  C455  1  0.078400  0.398100  0.824500  1.0
  C  C456  1  0.078400  0.175500  0.573600  1.0
  C  C457  1  0.374200  0.433300  0.590500  1.0
  C  C458  1  0.874200  0.566700  0.409500  1.0
  C  C459  1  0.374200  0.157200  0.566700  1.0
  C  C460  1  0.374200  0.409500  0.842800  1.0
  C  C461  1  0.874200  0.590500  0.157200  1.0
  C  C462  1  0.874200  0.842800  0.433300  1.0
  C  C463  1  0.625800  0.566700  0.409500  1.0
  C  C464  1  0.125800  0.433300  0.590500  1.0
  C  C465  1  0.625800  0.842800  0.433300  1.0
  C  C466  1  0.625800  0.590500  0.157200  1.0
  C  C467  1  0.125800  0.409500  0.842800  1.0
  C  C468  1  0.125800  0.157200  0.566700  1.0
  C  C469  1  0.352400  0.389700  0.549600  1.0
  C  C470  1  0.852400  0.610300  0.450400  1.0
  C  C471  1  0.352400  0.159900  0.610300  1.0
  C  C472  1  0.352400  0.450400  0.840100  1.0
  C  C473  1  0.852400  0.549600  0.159900  1.0
  C  C474  1  0.852400  0.840100  0.389700  1.0
  C  C475  1  0.647600  0.610300  0.450400  1.0
  C  C476  1  0.147600  0.389700  0.549600  1.0
  C  C477  1  0.647600  0.840100  0.389700  1.0
  C  C478  1  0.647600  0.549600  0.159900  1.0
  C  C479  1  0.147600  0.450400  0.840100  1.0
  C  C480  1  0.147600  0.159900  0.610300  1.0
  C  C481  1  0.373800  0.339900  0.518800  1.0
  C  C482  1  0.873800  0.660100  0.481200  1.0
  C  C483  1  0.373800  0.178900  0.660100  1.0
  C  C484  1  0.373800  0.481200  0.821100  1.0
  C  C485  1  0.873800  0.518800  0.178900  1.0
  C  C486  1  0.873800  0.821100  0.339900  1.0
  C  C487  1  0.626200  0.660100  0.481200  1.0
  C  C488  1  0.126200  0.339900  0.518800  1.0
  C  C489  1  0.626200  0.821100  0.339900  1.0
  C  C490  1  0.626200  0.518800  0.178900  1.0
  C  C491  1  0.126200  0.481200  0.821100  1.0
  C  C492  1  0.126200  0.178900  0.660100  1.0
  C  C493  1  0.421300  0.334900  0.529300  1.0
  C  C494  1  0.921300  0.665100  0.470700  1.0
  C  C495  1  0.421300  0.194400  0.665100  1.0
  C  C496  1  0.421300  0.470700  0.805600  1.0
  C  C497  1  0.921300  0.529300  0.194400  1.0
  C  C498  1  0.921300  0.805600  0.334900  1.0
  C  C499  1  0.578700  0.665100  0.470700  1.0
  C  C500  1  0.078700  0.334900  0.529300  1.0
  C  C501  1  0.578700  0.805600  0.334900  1.0
  C  C502  1  0.578700  0.529300  0.194400  1.0
  C  C503  1  0.078700  0.470700  0.805600  1.0
  C  C504  1  0.078700  0.194400  0.665100  1.0
  C  C505  1  0.443600  0.377900  0.571600  1.0
  C  C506  1  0.943600  0.622100  0.428400  1.0
  C  C507  1  0.443600  0.193700  0.622100  1.0
  C  C508  1  0.443600  0.428400  0.806300  1.0
  C  C509  1  0.943600  0.571600  0.193700  1.0
  C  C510  1  0.943600  0.806300  0.377900  1.0
  C  C511  1  0.556400  0.622100  0.428400  1.0
  C  C512  1  0.056400  0.377900  0.571600  1.0
  C  C513  1  0.556400  0.806300  0.377900  1.0
  C  C514  1  0.556400  0.571600  0.193700  1.0
  C  C515  1  0.056400  0.428400  0.806300  1.0
  C  C516  1  0.056400  0.193700  0.622100  1.0
  C  C517  1  0.445000  0.281300  0.497000  1.0
  C  C518  1  0.945000  0.718700  0.503000  1.0
  C  C519  1  0.445000  0.215700  0.718700  1.0
  C  C520  1  0.445000  0.503000  0.784300  1.0
  C  C521  1  0.945000  0.497000  0.215700  1.0
  C  C522  1  0.945000  0.784300  0.281300  1.0
  C  C523  1  0.555000  0.718700  0.503000  1.0
  C  C524  1  0.055000  0.281300  0.497000  1.0
  C  C525  1  0.555000  0.784300  0.281300  1.0
  C  C526  1  0.555000  0.497000  0.215700  1.0
  C  C527  1  0.055000  0.503000  0.784300  1.0
  C  C528  1  0.055000  0.215700  0.718700  1.0
  C  C529  1  0.518000  0.198000  0.372000  1.0
  C  C530  1  0.018000  0.802000  0.628000  1.0
  C  C531  1  0.518000  0.174000  0.802000  1.0
  C  C532  1  0.518000  0.628000  0.826000  1.0
  C  C533  1  0.018000  0.372000  0.174000  1.0
  C  C534  1  0.018000  0.826000  0.198000  1.0
  C  C535  1  0.482000  0.802000  0.628000  1.0
  C  C536  1  0.982000  0.198000  0.372000  1.0
  C  C537  1  0.482000  0.826000  0.198000  1.0
  C  C538  1  0.482000  0.372000  0.174000  1.0
  C  C539  1  0.982000  0.628000  0.826000  1.0
  C  C540  1  0.982000  0.174000  0.802000  1.0
  C  C541  1  0.539700  0.208000  0.330000  1.0
  C  C542  1  0.039700  0.792000  0.670000  1.0
  C  C543  1  0.539700  0.122000  0.792000  1.0
  C  C544  1  0.539700  0.670000  0.878000  1.0
  C  C545  1  0.039700  0.330000  0.122000  1.0
  C  C546  1  0.039700  0.878000  0.208000  1.0
  C  C547  1  0.460300  0.792000  0.670000  1.0
  C  C548  1  0.960300  0.208000  0.330000  1.0
  C  C549  1  0.460300  0.878000  0.208000  1.0
  C  C550  1  0.460300  0.330000  0.122000  1.0
  C  C551  1  0.960300  0.670000  0.878000  1.0
  C  C552  1  0.960300  0.122000  0.792000  1.0
  C  C553  1  0.512800  0.200000  0.283900  1.0
  C  C554  1  0.012800  0.800000  0.716100  1.0
  C  C555  1  0.512800  0.083900  0.800000  1.0
  C  C556  1  0.512800  0.716100  0.916100  1.0
  C  C557  1  0.012800  0.283900  0.083900  1.0
  C  C558  1  0.012800  0.916100  0.200000  1.0
  C  C559  1  0.487200  0.800000  0.716100  1.0
  C  C560  1  0.987200  0.200000  0.283900  1.0
  C  C561  1  0.487200  0.916100  0.200000  1.0
  C  C562  1  0.487200  0.283900  0.083900  1.0
  C  C563  1  0.987200  0.716100  0.916100  1.0
  C  C564  1  0.987200  0.083900  0.800000  1.0
  C  C565  1  0.534300  0.213300  0.248200  1.0
  C  C566  1  0.034300  0.786700  0.751800  1.0
  C  C567  1  0.534300  0.034900  0.786700  1.0
  C  C568  1  0.534300  0.751800  0.965100  1.0
  C  C569  1  0.034300  0.248200  0.034900  1.0
  C  C570  1  0.034300  0.965100  0.213300  1.0
  C  C571  1  0.465700  0.786700  0.751800  1.0
  C  C572  1  0.965700  0.213300  0.248200  1.0
  C  C573  1  0.465700  0.965100  0.213300  1.0
  C  C574  1  0.465700  0.248200  0.034900  1.0
  C  C575  1  0.965700  0.751800  0.965100  1.0
  C  C576  1  0.965700  0.034900  0.786700  1.0
  C  C577  1  0.581800  0.222000  0.248000  1.0
  C  C578  1  0.081800  0.778000  0.752000  1.0
  C  C579  1  0.581800  0.026000  0.778000  1.0
  C  C580  1  0.581800  0.752000  0.974000  1.0
  C  C581  1  0.081800  0.248000  0.026000  1.0
  C  C582  1  0.081800  0.974000  0.222000  1.0
  C  C583  1  0.418200  0.778000  0.752000  1.0
  C  C584  1  0.918200  0.222000  0.248000  1.0
  C  C585  1  0.418200  0.974000  0.222000  1.0
  C  C586  1  0.418200  0.248000  0.026000  1.0
  C  C587  1  0.918200  0.752000  0.974000  1.0
  C  C588  1  0.918200  0.026000  0.778000  1.0
  C  C589  1  0.607000  0.229300  0.293000  1.0
  C  C590  1  0.107000  0.770700  0.707000  1.0
  C  C591  1  0.607000  0.063700  0.770700  1.0
  C  C592  1  0.607000  0.707000  0.936300  1.0
  C  C593  1  0.107000  0.293000  0.063700  1.0
  C  C594  1  0.107000  0.936300  0.229300  1.0
  C  C595  1  0.393000  0.770700  0.707000  1.0
  C  C596  1  0.893000  0.229300  0.293000  1.0
  C  C597  1  0.393000  0.936300  0.229300  1.0
  C  C598  1  0.393000  0.293000  0.063700  1.0
  C  C599  1  0.893000  0.707000  0.936300  1.0
  C  C600  1  0.893000  0.063700  0.770700  1.0
  C  C601  1  0.586000  0.222400  0.332600  1.0
  C  C602  1  0.086000  0.777600  0.667400  1.0
  C  C603  1  0.586000  0.110200  0.777600  1.0
  C  C604  1  0.586000  0.667400  0.889800  1.0
  C  C605  1  0.086000  0.332600  0.110200  1.0
  C  C606  1  0.086000  0.889800  0.222400  1.0
  C  C607  1  0.414000  0.777600  0.667400  1.0
  C  C608  1  0.914000  0.222400  0.332600  1.0
  C  C609  1  0.414000  0.889800  0.222400  1.0
  C  C610  1  0.414000  0.332600  0.110200  1.0
  C  C611  1  0.914000  0.667400  0.889800  1.0
  C  C612  1  0.914000  0.110200  0.777600  1.0
  C  C613  1  0.657500  0.240400  0.295400  1.0
  C  C614  1  0.157500  0.759600  0.704600  1.0
  C  C615  1  0.657500  0.055000  0.759600  1.0
  C  C616  1  0.657500  0.704600  0.945000  1.0
  C  C617  1  0.157500  0.295400  0.055000  1.0
  C  C618  1  0.157500  0.945000  0.240400  1.0
  C  C619  1  0.342500  0.759600  0.704600  1.0
  C  C620  1  0.842500  0.240400  0.295400  1.0
  C  C621  1  0.342500  0.945000  0.240400  1.0
  C  C622  1  0.342500  0.295400  0.055000  1.0
  C  C623  1  0.842500  0.704600  0.945000  1.0
  C  C624  1  0.842500  0.055000  0.759600  1.0
  O  O625  1  0.750000  0.527400  0.519000  1.0
  O  O626  1  0.250000  0.472600  0.481000  1.0
  O  O627  1  0.750000  0.991600  0.472600  1.0
  O  O628  1  0.750000  0.481000  0.008400  1.0
  O  O629  1  0.250000  0.519000  0.991600  1.0
  O  O630  1  0.250000  0.008400  0.527400  1.0
  O  O631  1  0.750000  0.594200  0.497800  1.0
  O  O632  1  0.250000  0.405800  0.502200  1.0
  O  O633  1  0.750000  0.903600  0.405800  1.0
  O  O634  1  0.750000  0.502200  0.096400  1.0
  O  O635  1  0.250000  0.497800  0.903600  1.0
  O  O636  1  0.250000  0.096400  0.594200  1.0
  O  O637  1  0.750000  0.645000  0.678400  1.0
  O  O638  1  0.250000  0.355000  0.321600  1.0
  O  O639  1  0.750000  0.033400  0.355000  1.0
  O  O640  1  0.750000  0.321600  0.966600  1.0
  O  O641  1  0.250000  0.678400  0.033400  1.0
  O  O642  1  0.250000  0.966600  0.645000  1.0
  O  O643  1  0.750000  0.708600  0.654700  1.0
  O  O644  1  0.250000  0.291400  0.345300  1.0
  O  O645  1  0.750000  0.946100  0.291400  1.0
  O  O646  1  0.750000  0.345300  0.053900  1.0
  O  O647  1  0.250000  0.654700  0.946100  1.0
  O  O648  1  0.250000  0.053900  0.708600  1.0
  O  O649  1  0.750000  0.688100  0.861900  1.0
  O  O650  1  0.250000  0.311900  0.138100  1.0
  O  O651  1  0.750000  0.173800  0.311900  1.0
  O  O652  1  0.750000  0.138100  0.826200  1.0
  O  O653  1  0.250000  0.861900  0.173800  1.0
  O  O654  1  0.250000  0.826200  0.688100  1.0
  O  O655  1  0.750000  0.773500  0.930000  1.0
  O  O656  1  0.250000  0.226500  0.070000  1.0
  O  O657  1  0.750000  0.156500  0.226500  1.0
  O  O658  1  0.750000  0.070000  0.843500  1.0
  O  O659  1  0.250000  0.930000  0.156500  1.0
  O  O660  1  0.250000  0.843500  0.773500  1.0
  O  O661  1  0.750000  0.335100  0.369600  1.0
  O  O662  1  0.250000  0.664900  0.630400  1.0
  O  O663  1  0.750000  0.034500  0.664900  1.0
  O  O664  1  0.750000  0.630400  0.965500  1.0
  O  O665  1  0.250000  0.369600  0.034500  1.0
  O  O666  1  0.250000  0.965500  0.335100  1.0
  O  O667  1  0.750000  0.318700  0.281500  1.0
  O  O668  1  0.250000  0.681300  0.718500  1.0
  O  O669  1  0.750000  0.962800  0.681300  1.0
  O  O670  1  0.750000  0.718500  0.037200  1.0
  O  O671  1  0.250000  0.281500  0.962800  1.0
  O  O672  1  0.250000  0.037200  0.318700  1.0
  O  O673  1  0.750000  0.517500  0.623800  1.0
  O  O674  1  0.250000  0.482500  0.376200  1.0
  O  O675  1  0.750000  0.106300  0.482500  1.0
  O  O676  1  0.750000  0.376200  0.893700  1.0
  O  O677  1  0.250000  0.623800  0.106300  1.0
  O  O678  1  0.250000  0.893700  0.517500  1.0
  O  O679  1  0.750000  0.718100  0.548700  1.0
  O  O680  1  0.250000  0.281900  0.451300  1.0
  O  O681  1  0.750000  0.830600  0.281900  1.0
  O  O682  1  0.750000  0.451300  0.169400  1.0
  O  O683  1  0.250000  0.548700  0.830600  1.0
  O  O684  1  0.250000  0.169400  0.718100  1.0
  O  O685  1  0.750000  0.270900  0.431400  1.0
  O  O686  1  0.250000  0.729100  0.568600  1.0
  O  O687  1  0.750000  0.160500  0.729100  1.0
  O  O688  1  0.750000  0.568600  0.839500  1.0
  O  O689  1  0.250000  0.431400  0.160500  1.0
  O  O690  1  0.250000  0.839500  0.270900  1.0
  O  O691  1  0.750000  0.222900  0.164600  1.0
  O  O692  1  0.250000  0.777100  0.835400  1.0
  O  O693  1  0.750000  0.941700  0.777100  1.0
  O  O694  1  0.750000  0.835400  0.058300  1.0
  O  O695  1  0.250000  0.164600  0.941700  1.0
  O  O696  1  0.250000  0.058300  0.222900  1.0
  O  O697  1  0.543500  0.560800  0.688600  1.0
  O  O698  1  0.043500  0.439200  0.311400  1.0
  O  O699  1  0.543500  0.127800  0.439200  1.0
  O  O700  1  0.543500  0.311400  0.872200  1.0
  O  O701  1  0.043500  0.688600  0.127800  1.0
  O  O702  1  0.043500  0.872200  0.560800  1.0
  O  O703  1  0.456500  0.439200  0.311400  1.0
  O  O704  1  0.956500  0.560800  0.688600  1.0
  O  O705  1  0.456500  0.872200  0.560800  1.0
  O  O706  1  0.456500  0.688600  0.127800  1.0
  O  O707  1  0.956500  0.311400  0.872200  1.0
  O  O708  1  0.956500  0.127800  0.439200  1.0
  O  O709  1  0.477400  0.610400  0.703400  1.0
  O  O710  1  0.977400  0.389600  0.296600  1.0
  O  O711  1  0.477400  0.093000  0.389600  1.0
  O  O712  1  0.477400  0.296600  0.907000  1.0
  O  O713  1  0.977400  0.703400  0.093000  1.0
  O  O714  1  0.977400  0.907000  0.610400  1.0
  O  O715  1  0.522600  0.389600  0.296600  1.0
  O  O716  1  0.022600  0.610400  0.703400  1.0
  O  O717  1  0.522600  0.907000  0.610400  1.0
  O  O718  1  0.522600  0.703400  0.093000  1.0
  O  O719  1  0.022600  0.296600  0.907000  1.0
  O  O720  1  0.022600  0.093000  0.389600  1.0
  O  O721  1  0.487370  0.466400  0.659300  1.0
  O  O722  1  0.987370  0.533600  0.340700  1.0
  O  O723  1  0.487370  0.192900  0.533600  1.0
  O  O724  1  0.487370  0.340700  0.807100  1.0
  O  O725  1  0.987370  0.659300  0.192900  1.0
  O  O726  1  0.987370  0.807100  0.466400  1.0
  O  O727  1  0.512630  0.533600  0.340700  1.0
  O  O728  1  0.012630  0.466400  0.659300  1.0
  O  O729  1  0.512630  0.807100  0.466400  1.0
  O  O730  1  0.512630  0.659300  0.192900  1.0
  O  O731  1  0.012630  0.340700  0.807100  1.0
  O  O732  1  0.012630  0.192900  0.533600  1.0
  O  O733  1  0.420400  0.516000  0.676100  1.0
  O  O734  1  0.920400  0.484000  0.323900  1.0
  O  O735  1  0.420400  0.160100  0.484000  1.0
  O  O736  1  0.420400  0.323900  0.839900  1.0
  O  O737  1  0.920400  0.676100  0.160100  1.0
  O  O738  1  0.920400  0.839900  0.516000  1.0
  O  O739  1  0.579600  0.484000  0.323900  1.0
  O  O740  1  0.079600  0.516000  0.676100  1.0
  O  O741  1  0.579600  0.839900  0.516000  1.0
  O  O742  1  0.579600  0.676100  0.160100  1.0
  O  O743  1  0.079600  0.323900  0.839900  1.0
  O  O744  1  0.079600  0.160100  0.484000  1.0
  O  O745  1  0.486740  0.277600  0.510800  1.0
  O  O746  1  0.986740  0.722400  0.489200  1.0
  O  O747  1  0.486740  0.233200  0.722400  1.0
  O  O748  1  0.486740  0.489200  0.766800  1.0
  O  O749  1  0.986740  0.510800  0.233200  1.0
  O  O750  1  0.986740  0.766800  0.277600  1.0
  O  O751  1  0.513260  0.722400  0.489200  1.0
  O  O752  1  0.013260  0.277600  0.510800  1.0
  O  O753  1  0.513260  0.766800  0.277600  1.0
  O  O754  1  0.513260  0.510800  0.233200  1.0
  O  O755  1  0.013260  0.489200  0.766800  1.0
  O  O756  1  0.013260  0.233200  0.722400  1.0
  O  O757  1  0.421700  0.243000  0.459100  1.0
  O  O758  1  0.921700  0.757000  0.540900  1.0
  O  O759  1  0.421700  0.216100  0.757000  1.0
  O  O760  1  0.421700  0.540900  0.783900  1.0
  O  O761  1  0.921700  0.459100  0.216100  1.0
  O  O762  1  0.921700  0.783900  0.243000  1.0
  O  O763  1  0.578300  0.757000  0.540900  1.0
  O  O764  1  0.078300  0.243000  0.459100  1.0
  O  O765  1  0.578300  0.783900  0.243000  1.0
  O  O766  1  0.578300  0.459100  0.216100  1.0
  O  O767  1  0.078300  0.540900  0.783900  1.0
  O  O768  1  0.078300  0.216100  0.757000  1.0
  O  O769  1  0.543500  0.213500  0.414700  1.0
  O  O770  1  0.043500  0.786500  0.585300  1.0
  O  O771  1  0.543500  0.201200  0.786500  1.0
  O  O772  1  0.543500  0.585300  0.798800  1.0
  O  O773  1  0.043500  0.414700  0.201200  1.0
  O  O774  1  0.043500  0.798800  0.213500  1.0
  O  O775  1  0.456500  0.786500  0.585300  1.0
  O  O776  1  0.956500  0.213500  0.414700  1.0
  O  O777  1  0.456500  0.798800  0.213500  1.0
  O  O778  1  0.456500  0.414700  0.201200  1.0
  O  O779  1  0.956500  0.585300  0.798800  1.0
  O  O780  1  0.956500  0.201200  0.786500  1.0
  O  O781  1  0.477200  0.178500  0.364800  1.0
  O  O782  1  0.977200  0.821500  0.635200  1.0
  O  O783  1  0.477200  0.186300  0.821500  1.0
  O  O784  1  0.477200  0.635200  0.813700  1.0
  O  O785  1  0.977200  0.364800  0.186300  1.0
  O  O786  1  0.977200  0.813700  0.178500  1.0
  O  O787  1  0.522800  0.821500  0.635200  1.0
  O  O788  1  0.022800  0.178500  0.364800  1.0
  O  O789  1  0.522800  0.813700  0.178500  1.0
  O  O790  1  0.522800  0.364800  0.186300  1.0
  O  O791  1  0.022800  0.635200  0.813700  1.0
  O  O792  1  0.022800  0.186300  0.821500  1.0
  O  O793  1  0.678700  0.586500  0.600600  1.0
  O  O794  1  0.178700  0.413500  0.399400  1.0
  O  O795  1  0.678700  0.014100  0.413500  1.0
  O  O796  1  0.678700  0.399400  0.985900  1.0
  O  O797  1  0.178700  0.600600  0.014100  1.0
  O  O798  1  0.178700  0.985900  0.586500  1.0
  O  O799  1  0.321300  0.413500  0.399400  1.0
  O  O800  1  0.821300  0.586500  0.600600  1.0
  O  O801  1  0.321300  0.985900  0.586500  1.0
  O  O802  1  0.321300  0.600600  0.014100  1.0
  O  O803  1  0.821300  0.399400  0.985900  1.0
  O  O804  1  0.821300  0.014100  0.413500  1.0
  O  O805  1  0.678600  0.653300  0.580000  1.0
  O  O806  1  0.178600  0.346700  0.420000  1.0
  O  O807  1  0.678600  0.926700  0.346700  1.0
  O  O808  1  0.678600  0.420000  0.073300  1.0
  O  O809  1  0.178600  0.580000  0.926700  1.0
  O  O810  1  0.178600  0.073300  0.653300  1.0
  O  O811  1  0.321400  0.346700  0.420000  1.0
  O  O812  1  0.821400  0.653300  0.580000  1.0
  O  O813  1  0.321400  0.073300  0.653300  1.0
  O  O814  1  0.321400  0.580000  0.926700  1.0
  O  O815  1  0.821400  0.420000  0.073300  1.0
  O  O816  1  0.821400  0.926700  0.346700  1.0
  O  O817  1  0.677600  0.254300  0.341200  1.0
  O  O818  1  0.177600  0.745700  0.658800  1.0
  O  O819  1  0.677600  0.086900  0.745700  1.0
  O  O820  1  0.677600  0.658800  0.913100  1.0
  O  O821  1  0.177600  0.341200  0.086900  1.0
  O  O822  1  0.177600  0.913100  0.254300  1.0
  O  O823  1  0.322400  0.745700  0.658800  1.0
  O  O824  1  0.822400  0.254300  0.341200  1.0
  O  O825  1  0.322400  0.913100  0.254300  1.0
  O  O826  1  0.322400  0.341200  0.086900  1.0
  O  O827  1  0.822400  0.658800  0.913100  1.0
  O  O828  1  0.822400  0.086900  0.745700  1.0
  O  O829  1  0.678900  0.236200  0.254000  1.0
  O  O830  1  0.178900  0.763800  0.746000  1.0
  O  O831  1  0.678900  0.017800  0.763800  1.0
  O  O832  1  0.678900  0.746000  0.982200  1.0
  O  O833  1  0.178900  0.254000  0.017800  1.0
  O  O834  1  0.178900  0.982200  0.236200  1.0
  O  O835  1  0.321100  0.763800  0.746000  1.0
  O  O836  1  0.821100  0.236200  0.254000  1.0
  O  O837  1  0.321100  0.982200  0.236200  1.0
  O  O838  1  0.321100  0.254000  0.017800  1.0
  O  O839  1  0.821100  0.746000  0.982200  1.0
  O  O840  1  0.821100  0.017800  0.763800  1.0
  O  O841  1  0.585300  0.475900  0.712700  1.0
  O  O842  1  0.085300  0.524100  0.287300  1.0
  O  O843  1  0.585300  0.236800  0.524100  1.0
  O  O844  1  0.585300  0.287300  0.763200  1.0
  O  O845  1  0.085300  0.712700  0.236800  1.0
  O  O846  1  0.085300  0.763200  0.475900  1.0
  O  O847  1  0.414700  0.524100  0.287300  1.0
  O  O848  1  0.914700  0.475900  0.712700  1.0
  O  O849  1  0.414700  0.763200  0.475900  1.0
  O  O850  1  0.414700  0.712700  0.236800  1.0
  O  O851  1  0.914700  0.287300  0.763200  1.0
  O  O852  1  0.914700  0.236800  0.524100  1.0
  O  O853  1  0.379100  0.625900  0.755300  1.0
  O  O854  1  0.879100  0.374100  0.244700  1.0
  O  O855  1  0.379100  0.129400  0.374100  1.0
  O  O856  1  0.379100  0.244700  0.870600  1.0
  O  O857  1  0.879100  0.755300  0.129400  1.0
  O  O858  1  0.879100  0.870600  0.625900  1.0
  O  O859  1  0.620900  0.374100  0.244700  1.0
  O  O860  1  0.120900  0.625900  0.755300  1.0
  O  O861  1  0.620900  0.870600  0.625900  1.0
  O  O862  1  0.620900  0.755300  0.129400  1.0
  O  O863  1  0.120900  0.244700  0.870600  1.0
  O  O864  1  0.120900  0.129400  0.374100  1.0
