
#######################################################################
#
#                 Cambridge Crystallographic Data Centre
#                                CCDC 
#
#######################################################################
#
# If this CIF has been generated from an entry in the Cambridge 
# Structural Database, then it will include bibliographic, chemical, 
# crystal, experimental, refinement or atomic coordinate data resulting 
# from the CCDC's data processing and validation procedures.
#
#######################################################################

data_DALTES
_chemical_formula_moiety         'C192 H144 O120 Rh24'
_chemical_name_systematic        
'tetracosakis(\m-Benzene-1,3-dicarboxylato)-tetracosa-aqua-tetracosa-rhodium unknown solvate'
_symmetry_cell_setting           hexagonal
_symmetry_space_group_name_H-M   'P 63/m'
_symmetry_Int_Tables_number      176
_space_group_name_Hall           '-P 6c'
loop_
_symmetry_equiv_pos_site_id
_symmetry_equiv_pos_as_xyz
1 x,y,z
2 -x,-y,1/2+z
3 -y,x-y,z
4 -x+y,-x,z
5 x-y,x,1/2+z
6 y,-x+y,1/2+z
7 -x,-y,-z
8 x,y,1/2-z
9 y,-x+y,-z
10 x-y,x,-z
11 -x+y,-x,1/2-z
12 -y,x-y,1/2-z
_cell_length_a                   28.671(8)
_cell_length_b                   28.671(8)
_cell_length_c                   28.464(8)
_cell_angle_alpha                90
_cell_angle_beta                 90
_cell_angle_gamma                120
_cell_volume                     20263.4
_exptl_crystal_colour            green
_exptl_crystal_description       Block
_cell_formula_units_Z            2
_exptl_crystal_preparation       ', Porous property'
loop_
_atom_site_label
_atom_site_type_symbol
_atom_site_fract_x
_atom_site_fract_y
_atom_site_fract_z
C1 C 0.4057(4) 0.0894(4) 0.4821(3)
C2 C 0.3834(5) 0.0327(5) 0.4614(4)
C3 C 0.3505(6) -0.0135(4) 0.4871(4)
H1 H 0.3412 -0.01 0.5184
C4 C 0.3317(7) -0.0621(5) 0.4693(5)
H2 H 0.3141 -0.0928 0.4891
C5 C 0.3378(6) -0.0683(5) 0.4204(4)
H3 H 0.3202 -0.103 0.4063
C6 C 0.3699(4) -0.0229(4) 0.3940(4)
C7 C 0.3932(4) 0.0276(4) 0.4144(3)
H4 H 0.4158 0.0588 0.3964
C8 C 0.3751(4) -0.0285(3) 0.3419(3)
C9 C 0.5269(4) 0.1767(4) 0.5546(3)
C10 C 0.5736(4) 0.1755(4) 0.5784(3)
C11 C 0.5667(5) 0.1572(5) 0.6258(3)
H5 H 0.5332 0.1438 0.6415
C12 C 0.6103(5) 0.1599(6) 0.6476(4)
H6 H 0.6064 0.1481 0.6793
C13 C 0.6601(5) 0.1789(5) 0.6262(4)
H7 H 0.6898 0.1813 0.6431
C14 C 0.6651(4) 0.1944(6) 0.5787(3)
C15 C 0.6221(4) 0.1937(4) 0.5564(3)
H8 H 0.6262 0.2062 0.5249
C16 C 0.7187(4) 0.2157(5) 0.5550(3)
C17 C 0.8020(4) 0.1740(6) 0.4820(4)
C18 C 0.7920(5) 0.1220(4) 0.4603(4)
C19 C 0.8000(9) 0.0839(6) 0.4872(5)
H9 H 0.8138 0.0918 0.5183
C20 C 0.7867(10) 0.0349(7) 0.4657(7)
H10 H 0.7835 0.0064 0.4848
C21 C 0.7780(9) 0.0260(7) 0.4182(6)
H11 H 0.777 -0.0041 0.4033
C22 C 0.7707(5) 0.0637(4) 0.3930(4)
C23 C 0.7776(4) 0.1102(4) 0.4140(4)
H12 H 0.7721 0.1349 0.3958
C24 C 0.7596(4) 0.0550(4) 0.3425(4)
C25 C 0.4555(5) -0.0576(5) 0.250
C26 C 0.4968(5) -0.0770(5) 0.250
C27 C 0.4789(6) -0.1328(6) 0.250
H13 H 0.4416 -0.1588 0.250
C28 C 0.5173(8) -0.1481(6) 0.250
H14 H 0.5056 -0.1855 0.250
C29 C 0.5719(7) -0.1120(7) 0.250
H15 H 0.5969 -0.1246 0.250
C30 C 0.5899(5) -0.0577(5) 0.250
C31 C 0.5520(4) -0.0398(5) 0.250
H16 H 0.5642 -0.0024 0.250
C32 C 0.6514(6) -0.0158(6) 0.250
C33 C 0.3051(5) -0.0063(5) 0.250
C34 C 0.2657(6) 0.0134(6) 0.250
C35 C 0.2136(6) -0.0236(7) 0.250
H17 H 0.203 -0.0608 0.250
C36 C 0.1758(6) -0.0086(6) 0.250
H18 H 0.1389 -0.0357 0.250
C37 C 0.1896(7) 0.0475(7) 0.250
H19 H 0.1632 0.0583 0.250
C38 C 0.2421(5) 0.0826(6) 0.250
C39 C 0.2829(6) 0.0685(5) 0.250
H20 H 0.32 0.095 0.250
C40 C 0.2620(9) 0.1441(7) 0.250
O1 O 0.4392(3) 0.1278(2) 0.4565(2)
O2 O 0.3896(3) 0.0930(3) 0.5226(2)
O3 O 0.5336(2) 0.1929(3) 0.51263(19)
O4 O 0.4840(3) 0.1601(3) 0.5796(2)
O5 O 0.7224(2) 0.2332(3) 0.51326(18)
O6 O 0.7570(3) 0.2161(4) 0.5783(2)
O7 O 0.7865(3) 0.2012(4) 0.4565(2)
O8 O 0.8215(3) 0.1863(4) 0.5228(2)
O9 O 0.4726(3) -0.0084(3) 0.250
O10 O 0.4058(3) -0.0964(3) 0.250
O11 O 0.4135(2) 0.0141(2) 0.3213(2)
O12 O 0.3467(3) -0.0733(2) 0.3214(2)
O13 O 0.3550(3) 0.0334(3) 0.250
O14 O 0.2914(3) -0.0539(3) 0.250
O15 O 0.3119(4) 0.1738(3) 0.250
O16 O 0.2265(5) 0.1565(4) 0.250
O17 O 0.7457(3) 0.0869(3) 0.3224(3)
O18 O 0.7638(3) 0.0178(2) 0.3211(3)
O19 O 0.6649(3) 0.0345(3) 0.250
O20 O 0.6813(3) -0.0372(4) 0.250
O21 O 0.5241(3) 0.2368(3) 0.4147(2)
O22 O 0.3741(4) 0.1294(5) 0.6209(3)
O23 O 0.4825(4) 0.1063(4) 0.250
O24 O 0.2819(4) -0.1694(3) 0.250
O25 O 0.7291(5) 0.1605(4) 0.250
O26 O 0.7771(5) -0.0583(4) 0.250
Rh1 Rh 0.47505(3) 0.20343(3) 0.48258(2)
Rh2 Rh 0.42251(3) 0.16700(3) 0.55244(2)
Rh3 Rh 0.41610(4) 0.01572(3) 0.250
Rh4 Rh 0.34697(4) -0.07733(4) 0.250
Rh5 Rh 0.74410(4) 0.08766(4) 0.250
Rh6 Rh 0.76184(4) 0.01434(4) 0.250
C1B C 0.9106(4) 0.3163(6) 0.4821(3)
C2B C 0.9673(5) 0.3507(7) 0.4614(4)
C3B C 1.0135(4) 0.3640(7) 0.4871(4)
H1B H 1.01 0.3512 0.5184
C4B C 1.0621(5) 0.3938(9) 0.4693(5)
H2B H 1.0928 0.4069 0.4891
C5B C 1.0683(5) 0.4061(8) 0.4204(4)
H3B H 1.103 0.4232 0.4063
C6B C 1.0229(4) 0.3928(6) 0.3940(4)
C7B C 0.9724(4) 0.3656(6) 0.4144(3)
H4B H 0.9412 0.3570 0.3964
C8B C 1.0285(3) 0.4036(5) 0.3419(3)
C9B C 0.8233(4) 0.3502(6) 0.5546(3)
C10B C 0.8245(4) 0.3981(6) 0.5784(3)
C11B C 0.8428(5) 0.4095(7) 0.6258(3)
H5B H 0.8562 0.3894 0.6415
C12B C 0.8401(6) 0.4504(8) 0.6476(4)
H6B H 0.8519 0.4583 0.6793
C13B C 0.8211(5) 0.4812(7) 0.6262(4)
H7B H 0.8187 0.5085 0.6431
C14B C 0.8056(6) 0.4707(7) 0.5787(3)
C15B C 0.8063(4) 0.4284(6) 0.5564(3)
H8B H 0.7938 0.4200 0.5249
C16B C 0.7843(5) 0.5030(6) 0.5550(3)
C17B C 0.8260(6) 0.6280(7) 0.4820(4)
C18B C 0.8780(4) 0.6700(6) 0.4603(4)
C19B C 0.9161(6) 0.7161(11) 0.4872(5)
H9B H 0.9082 0.7220 0.5183
C20B C 0.9651(7) 0.7518(12) 0.4657(7)
H10B H 0.9936 0.7771 0.4848
C21B C 0.9740(7) 0.7520(11) 0.4182(6)
H11B H 1.0041 0.7811 0.4033
C22B C 0.9363(4) 0.7070(6) 0.3930(4)
C23B C 0.8898(4) 0.6674(6) 0.4140(4)
H12B H 0.8651 0.6372 0.3958
C24B C 0.9450(4) 0.7046(6) 0.3425(4)
C25B C 1.0576(5) 0.5131(7) 0.250
C26B C 1.0770(5) 0.5738(7) 0.250
C27B C 1.1328(6) 0.6117(8) 0.250
H13B H 1.1588 0.6004 0.250
C28B C 1.1481(6) 0.6654(10) 0.250
H14B H 1.1855 0.6911 0.250
C29B C 1.1120(7) 0.6839(10) 0.250
H15B H 1.1246 0.7215 0.250
C30B C 1.0577(5) 0.6476(7) 0.250
C31B C 1.0398(5) 0.5918(6) 0.250
H16B H 1.0024 0.5666 0.250
C32B C 1.0158(6) 0.6672(8) 0.250
C33B C 1.0063(5) 0.3114(7) 0.250
C34B C 0.9866(6) 0.2523(8) 0.250
C35B C 1.0236(7) 0.2372(9) 0.250
H17B H 1.0608 0.2638 0.250
C36B C 1.0086(6) 0.1844(8) 0.250
H18B H 1.0357 0.1746 0.250
C37B C 0.9525(7) 0.1421(10) 0.250
H19B H 0.9417 0.1049 0.250
C38B C 0.9174(6) 0.1595(8) 0.250
C39B C 0.9315(5) 0.2144(8) 0.250
H20B H 0.905 0.225 0.250
C40B C 0.8559(7) 0.1179(11) 0.250
O1B O 0.8722(2) 0.3114(4) 0.4565(2)
O2B O 0.9070(3) 0.2966(4) 0.5226(2)
O3B O 0.8071(3) 0.3407(4) 0.51263(19)
O4B O 0.8399(3) 0.3239(4) 0.5796(2)
O5B O 0.7668(3) 0.4892(4) 0.51326(18)
O6B O 0.7839(4) 0.5409(5) 0.5783(2)
O7B O 0.7988(4) 0.5853(5) 0.4565(2)
O8B O 0.8137(4) 0.6352(5) 0.5228(2)
O9B O 1.0084(3) 0.4810(4) 0.250
O10B O 1.0964(3) 0.5022(4) 0.250
O11B O 0.9859(2) 0.3994(3) 0.3213(2)
O12B O 1.0733(2) 0.4200(4) 0.3214(2)
O13B O 0.9666(3) 0.3216(4) 0.250
O14B O 1.0539(3) 0.3453(4) 0.250
O15B O 0.8262(3) 0.1381(5) 0.250
O16B O 0.8435(4) 0.0700(6) 0.250
O17B O 0.9131(3) 0.6588(4) 0.3224(3)
O18B O 0.9822(2) 0.7460(4) 0.3211(3)
O19B O 0.9655(3) 0.6304(4) 0.250
O20B O 1.0372(4) 0.7185(5) 0.250
O21B O 0.7632(3) 0.2873(4) 0.4147(2)
O22B O 0.8706(5) 0.2447(6) 0.6209(3)
O23B O 0.8937(4) 0.3762(6) 0.250
O24B O 1.1694(3) 0.4513(5) 0.250
O25B O 0.8395(4) 0.5686(6) 0.250
O26B O 1.0583(4) 0.8354(6) 0.250
Rh1B Rh 0.79657(3) 0.27162(4) 0.48258(2)
Rh2B Rh 0.83300(3) 0.25551(4) 0.55244(2)
Rh3B Rh 0.98428(3) 0.40038(5) 0.250
Rh4B Rh 1.07733(4) 0.42430(6) 0.250
Rh5B Rh 0.91234(4) 0.65644(6) 0.250
Rh6B Rh 0.98566(4) 0.74750(6) 0.250
C1C C 0.6837(6) 0.5943(4) 0.4821(3)
C2C C 0.6493(7) 0.6166(5) 0.4614(4)
C3C C 0.6360(7) 0.6495(6) 0.4871(4)
H1C H 0.6488 0.6588 0.5184
C4C C 0.6062(9) 0.6683(7) 0.4693(5)
H2C H 0.5931 0.6859 0.4891
C5C C 0.5939(8) 0.6622(6) 0.4204(4)
H3C H 0.5768 0.6798 0.4063
C6C C 0.6072(6) 0.6301(4) 0.3940(4)
C7C C 0.6344(6) 0.6068(4) 0.4144(3)
H4C H 0.6430 0.5842 0.3964
C8C C 0.5964(5) 0.6249(4) 0.3419(3)
C9C C 0.6498(6) 0.4731(4) 0.5546(3)
C10C C 0.6019(6) 0.4264(4) 0.5784(3)
C11C C 0.5905(7) 0.4333(5) 0.6258(3)
H5C H 0.6106 0.4668 0.6415
C12C C 0.5496(8) 0.3897(5) 0.6476(4)
H6C H 0.5417 0.3936 0.6793
C13C C 0.5188(7) 0.3399(5) 0.6262(4)
H7C H 0.4915 0.3102 0.6431
C14C C 0.5293(7) 0.3349(4) 0.5787(3)
C15C C 0.5716(6) 0.3779(4) 0.5564(3)
H8C H 0.5800 0.3738 0.5249
C16C C 0.4970(6) 0.2813(4) 0.5550(3)
C17C C 0.3720(7) 0.1980(4) 0.4820(4)
C18C C 0.3300(6) 0.2080(5) 0.4603(4)
C19C C 0.2839(11) 0.2000(9) 0.4872(5)
H9C H 0.2780 0.1862 0.5183
C20C C 0.2482(12) 0.2133(10) 0.4657(7)
H10C H 0.2229 0.2165 0.4848
C21C C 0.2480(11) 0.2220(9) 0.4182(6)
H11C H 0.2189 0.223 0.4033
C22C C 0.2930(6) 0.2293(5) 0.3930(4)
C23C C 0.3326(6) 0.2224(4) 0.4140(4)
H12C H 0.3628 0.2279 0.3958
C24C C 0.2954(6) 0.2404(4) 0.3425(4)
C25C C 0.4869(7) 0.5445(5) 0.250
C26C C 0.4262(7) 0.5032(5) 0.250
C27C C 0.3883(8) 0.5211(6) 0.250
H13C H 0.3996 0.5584 0.250
C28C C 0.3346(10) 0.4827(8) 0.250
H14C H 0.3089 0.4944 0.250
C29C C 0.3161(10) 0.4281(7) 0.250
H15C H 0.2785 0.4031 0.250
C30C C 0.3524(7) 0.4101(5) 0.250
C31C C 0.4082(6) 0.4480(4) 0.250
H16C H 0.4334 0.4358 0.250
C32C C 0.3328(8) 0.3486(6) 0.250
C33C C 0.6886(7) 0.6949(5) 0.250
C34C C 0.7477(8) 0.7343(6) 0.250
C35C C 0.7628(9) 0.7864(6) 0.250
H17C H 0.7362 0.797 0.250
C36C C 0.8156(8) 0.8242(6) 0.250
H18C H 0.8254 0.8611 0.250
C37C C 0.8579(10) 0.8104(7) 0.250
H19C H 0.8951 0.8368 0.250
C38C C 0.8405(8) 0.7579(5) 0.250
C39C C 0.7856(8) 0.7171(6) 0.250
H20C H 0.775 0.68 0.250
C40C C 0.8821(11) 0.7380(9) 0.250
O1C O 0.6886(4) 0.5608(3) 0.4565(2)
O2C O 0.7034(4) 0.6104(3) 0.5226(2)
O3C O 0.6593(4) 0.4664(2) 0.51263(19)
O4C O 0.6761(4) 0.5160(3) 0.5796(2)
O5C O 0.5108(4) 0.2776(2) 0.51326(18)
O6C O 0.4591(5) 0.2430(3) 0.5783(2)
O7C O 0.4147(5) 0.2135(3) 0.4565(2)
O8C O 0.3648(5) 0.1785(3) 0.5228(2)
O9C O 0.5190(4) 0.5274(3) 0.250
O10C O 0.4978(4) 0.5942(3) 0.250
O11C O 0.6006(3) 0.5865(2) 0.3213(2)
O12C O 0.5800(4) 0.6533(3) 0.3214(2)
O13C O 0.6784(4) 0.6450(3) 0.250
O14C O 0.6547(4) 0.7086(3) 0.250
O15C O 0.8619(5) 0.6881(4) 0.250
O16C O 0.9300(6) 0.7735(5) 0.250
O17C O 0.3412(4) 0.2543(3) 0.3224(3)
O18C O 0.2540(4) 0.2362(3) 0.3211(3)
O19C O 0.3696(4) 0.3351(3) 0.250
O20C O 0.2815(5) 0.3187(3) 0.250
O21C O 0.7127(4) 0.4759(3) 0.4147(2)
O22C O 0.7553(6) 0.6259(4) 0.6209(3)
O23C O 0.6238(6) 0.5175(4) 0.250
O24C O 0.5487(5) 0.7181(4) 0.250
O25C O 0.4314(6) 0.2709(5) 0.250
O26C O 0.1646(6) 0.2229(5) 0.250
Rh1C Rh 0.72838(4) 0.52495(3) 0.48258(2)
Rh2C Rh 0.74449(4) 0.57749(3) 0.55244(2)
Rh3C Rh 0.59962(5) 0.58390(4) 0.250
Rh4C Rh 0.57570(6) 0.65303(4) 0.250
Rh5C Rh 0.34356(6) 0.25590(4) 0.250
Rh6C Rh 0.25250(6) 0.23816(4) 0.250
C1G C 0.4057(4) 0.0894(4) 0.0179(3)
C2G C 0.3834(5) 0.0327(5) 0.0386(4)
C3G C 0.3505(6) -0.0135(4) 0.0129(4)
H1G H 0.3412 -0.01 -0.0184
C4G C 0.3317(7) -0.0621(5) 0.0307(5)
H2G H 0.3141 -0.0928 0.0109
C5G C 0.3378(6) -0.0683(5) 0.0796(4)
H3G H 0.3202 -0.103 0.0937
C6G C 0.3699(4) -0.0229(4) 0.1060(4)
C7G C 0.3932(4) 0.0276(4) 0.0856(3)
H4G H 0.4158 0.0588 0.1036
C8G C 0.3751(4) -0.0285(3) 0.1581(3)
C9G C 0.5269(4) 0.1767(4) -0.0546(3)
C10G C 0.5736(4) 0.1755(4) -0.0784(3)
C11G C 0.5667(5) 0.1572(5) -0.1258(3)
H5G H 0.5332 0.1438 -0.1415
C12G C 0.6103(5) 0.1599(6) -0.1476(4)
H6G H 0.6064 0.1481 -0.1793
C13G C 0.6601(5) 0.1789(5) -0.1262(4)
H7G H 0.6898 0.1813 -0.1431
C14G C 0.6651(4) 0.1944(6) -0.0787(3)
C15G C 0.6221(4) 0.1937(4) -0.0564(3)
H8G H 0.6262 0.2062 -0.0249
C16G C 0.7187(4) 0.2157(5) -0.0550(3)
C17G C 0.8020(4) 0.1740(6) 0.0180(4)
C18G C 0.7920(5) 0.1220(4) 0.0397(4)
C19G C 0.8000(9) 0.0839(6) 0.0128(5)
H9G H 0.8138 0.0918 -0.0183
C20G C 0.7867(10) 0.0349(7) 0.0343(7)
H10G H 0.7835 0.0064 0.0152
C21G C 0.7780(9) 0.0260(7) 0.0818(6)
H11G H 0.777 -0.0041 0.0967
C22G C 0.7707(5) 0.0637(4) 0.1070(4)
C23G C 0.7776(4) 0.1102(4) 0.0860(4)
H12G H 0.7721 0.1349 0.1042
C24G C 0.7596(4) 0.0550(4) 0.1575(4)
O1G O 0.4392(3) 0.1278(2) 0.0435(2)
O2G O 0.3896(3) 0.0930(3) -0.0226(2)
O3G O 0.5336(2) 0.1929(3) -0.01263(19)
O4G O 0.4840(3) 0.1601(3) -0.0796(2)
O5G O 0.7224(2) 0.2332(3) -0.01326(18)
O6G O 0.7570(3) 0.2161(4) -0.0783(2)
O7G O 0.7865(3) 0.2012(4) 0.0435(2)
O8G O 0.8215(3) 0.1863(4) -0.0228(2)
O11G O 0.4135(2) 0.0141(2) 0.1787(2)
O12G O 0.3467(3) -0.0733(2) 0.1786(2)
O17G O 0.7457(3) 0.0869(3) 0.1776(3)
O18G O 0.7638(3) 0.0178(2) 0.1789(3)
O21G O 0.5241(3) 0.2368(3) 0.0853(2)
O22G O 0.3741(4) 0.1294(5) -0.1209(3)
Rh1G Rh 0.47505(3) 0.20343(3) 0.01742(2)
Rh2G Rh 0.42251(3) 0.16700(3) -0.05244(2)
C1J C 0.6837(6) 0.5943(4) 0.0179(3)
C2J C 0.6493(7) 0.6166(5) 0.0386(4)
C3J C 0.6360(7) 0.6495(6) 0.0129(4)
H1J H 0.6488 0.6588 -0.0184
C4J C 0.6062(9) 0.6683(7) 0.0307(5)
H2J H 0.5931 0.6859 0.0109
C5J C 0.5939(8) 0.6622(6) 0.0796(4)
H3J H 0.5768 0.6798 0.0937
C6J C 0.6072(6) 0.6301(4) 0.1060(4)
C7J C 0.6344(6) 0.6068(4) 0.0856(3)
H4J H 0.6430 0.5842 0.1036
C8J C 0.5964(5) 0.6249(4) 0.1581(3)
C9J C 0.6498(6) 0.4731(4) -0.0546(3)
C10J C 0.6019(6) 0.4264(4) -0.0784(3)
C11J C 0.5905(7) 0.4333(5) -0.1258(3)
H5J H 0.6106 0.4668 -0.1415
C12J C 0.5496(8) 0.3897(5) -0.1476(4)
H6J H 0.5417 0.3936 -0.1793
C13J C 0.5188(7) 0.3399(5) -0.1262(4)
H7J H 0.4915 0.3102 -0.1431
C14J C 0.5293(7) 0.3349(4) -0.0787(3)
C15J C 0.5716(6) 0.3779(4) -0.0564(3)
H8J H 0.5800 0.3738 -0.0249
C16J C 0.4970(6) 0.2813(4) -0.0550(3)
C17J C 0.3720(7) 0.1980(4) 0.0180(4)
C18J C 0.3300(6) 0.2080(5) 0.0397(4)
C19J C 0.2839(11) 0.2000(9) 0.0128(5)
H9J H 0.2780 0.1862 -0.0183
C20J C 0.2482(12) 0.2133(10) 0.0343(7)
H10J H 0.2229 0.2165 0.0152
C21J C 0.2480(11) 0.2220(9) 0.0818(6)
H11J H 0.2189 0.223 0.0967
C22J C 0.2930(6) 0.2293(5) 0.1070(4)
C23J C 0.3326(6) 0.2224(4) 0.0860(4)
H12J H 0.3628 0.2279 0.1042
C24J C 0.2954(6) 0.2404(4) 0.1575(4)
O1J O 0.6886(4) 0.5608(3) 0.0435(2)
O2J O 0.7034(4) 0.6104(3) -0.0226(2)
O3J O 0.6593(4) 0.4664(2) -0.01263(19)
O4J O 0.6761(4) 0.5160(3) -0.0796(2)
O5J O 0.5108(4) 0.2776(2) -0.01326(18)
O6J O 0.4591(5) 0.2430(3) -0.0783(2)
O7J O 0.4147(5) 0.2135(3) 0.0435(2)
O8J O 0.3648(5) 0.1785(3) -0.0228(2)
O11J O 0.6006(3) 0.5865(2) 0.1787(2)
O12J O 0.5800(4) 0.6533(3) 0.1786(2)
O17J O 0.3412(4) 0.2543(3) 0.1776(3)
O18J O 0.2540(4) 0.2362(3) 0.1789(3)
O21J O 0.7127(4) 0.4759(3) 0.0853(2)
O22J O 0.7553(6) 0.6259(4) -0.1209(3)
Rh1J Rh 0.72838(4) 0.52495(3) 0.01742(2)
Rh2J Rh 0.74449(4) 0.57749(3) -0.05244(2)
C1K C 0.9106(4) 0.3163(6) 0.0179(3)
C2K C 0.9673(5) 0.3507(7) 0.0386(4)
C3K C 1.0135(4) 0.3640(7) 0.0129(4)
H1K H 1.01 0.3512 -0.0184
C4K C 1.0621(5) 0.3938(9) 0.0307(5)
H2K H 1.0928 0.4069 0.0109
C5K C 1.0683(5) 0.4061(8) 0.0796(4)
H3K H 1.103 0.4232 0.0937
C6K C 1.0229(4) 0.3928(6) 0.1060(4)
C7K C 0.9724(4) 0.3656(6) 0.0856(3)
H4K H 0.9412 0.3570 0.1036
C8K C 1.0285(3) 0.4036(5) 0.1581(3)
C9K C 0.8233(4) 0.3502(6) -0.0546(3)
C10K C 0.8245(4) 0.3981(6) -0.0784(3)
C11K C 0.8428(5) 0.4095(7) -0.1258(3)
H5K H 0.8562 0.3894 -0.1415
C12K C 0.8401(6) 0.4504(8) -0.1476(4)
H6K H 0.8519 0.4583 -0.1793
C13K C 0.8211(5) 0.4812(7) -0.1262(4)
H7K H 0.8187 0.5085 -0.1431
C14K C 0.8056(6) 0.4707(7) -0.0787(3)
C15K C 0.8063(4) 0.4284(6) -0.0564(3)
H8K H 0.7938 0.4200 -0.0249
C16K C 0.7843(5) 0.5030(6) -0.0550(3)
C17K C 0.8260(6) 0.6280(7) 0.0180(4)
C18K C 0.8780(4) 0.6700(6) 0.0397(4)
C19K C 0.9161(6) 0.7161(11) 0.0128(5)
H9K H 0.9082 0.7220 -0.0183
C20K C 0.9651(7) 0.7518(12) 0.0343(7)
H10K H 0.9936 0.7771 0.0152
C21K C 0.9740(7) 0.7520(11) 0.0818(6)
H11K H 1.0041 0.7811 0.0967
C22K C 0.9363(4) 0.7070(6) 0.1070(4)
C23K C 0.8898(4) 0.6674(6) 0.0860(4)
H12K H 0.8651 0.6372 0.1042
C24K C 0.9450(4) 0.7046(6) 0.1575(4)
O1K O 0.8722(2) 0.3114(4) 0.0435(2)
O2K O 0.9070(3) 0.2966(4) -0.0226(2)
O3K O 0.8071(3) 0.3407(4) -0.01263(19)
O4K O 0.8399(3) 0.3239(4) -0.0796(2)
O5K O 0.7668(3) 0.4892(4) -0.01326(18)
O6K O 0.7839(4) 0.5409(5) -0.0783(2)
O7K O 0.7988(4) 0.5853(5) 0.0435(2)
O8K O 0.8137(4) 0.6352(5) -0.0228(2)
O11K O 0.9859(2) 0.3994(3) 0.1787(2)
O12K O 1.0733(2) 0.4200(4) 0.1786(2)
O17K O 0.9131(3) 0.6588(4) 0.1776(3)
O18K O 0.9822(2) 0.7460(4) 0.1789(3)
O21K O 0.7632(3) 0.2873(4) 0.0853(2)
O22K O 0.8706(5) 0.2447(6) -0.1209(3)
Rh1K Rh 0.79657(3) 0.27162(4) 0.01742(2)
Rh2K Rh 0.83300(3) 0.25551(4) -0.05244(2)
loop_
_geom_bond_atom_site_label_1
_geom_bond_atom_site_label_2
_geom_bond_site_symmetry_1
_geom_bond_site_symmetry_2
C1 C2 1_555 1_555
C2 C3 1_555 1_555
C3 H1 1_555 1_555
C4 C3 1_555 1_555
H2 C4 1_555 1_555
C5 C4 1_555 1_555
H3 C5 1_555 1_555
C6 C5 1_555 1_555
C7 C2 1_555 1_555
H4 C7 1_555 1_555
C8 C6 1_555 1_555
C9 C10 1_555 1_555
C10 C11 1_555 1_555
C11 H5 1_555 1_555
C12 C11 1_555 1_555
H6 C12 1_555 1_555
C13 C12 1_555 1_555
H7 C13 1_555 1_555
C14 C13 1_555 1_555
C15 C10 1_555 1_555
H8 C15 1_555 1_555
C16 C14 1_555 1_555
C17 C18 1_555 1_555
C18 C19 1_555 1_555
C19 H9 1_555 1_555
C20 C19 1_555 1_555
H10 C20 1_555 1_555
C21 C20 1_555 1_555
H11 C21 1_555 1_555
C22 C21 1_555 1_555
C23 C18 1_555 1_555
H12 C23 1_555 1_555
C24 C22 1_555 1_555
C25 C26 1_555 1_555
C26 C27 1_555 1_555
C27 H13 1_555 1_555
C28 C27 1_555 1_555
H14 C28 1_555 1_555
C29 C28 1_555 1_555
H15 C29 1_555 1_555
C30 C29 1_555 1_555
C31 C26 1_555 1_555
H16 C31 1_555 1_555
C32 C30 1_555 1_555
C33 C34 1_555 1_555
C34 C35 1_555 1_555
C35 H17 1_555 1_555
C36 C35 1_555 1_555
H18 C36 1_555 1_555
C37 C36 1_555 1_555
H19 C37 1_555 1_555
C38 C37 1_555 1_555
C39 C34 1_555 1_555
H20 C39 1_555 1_555
C40 C38 1_555 1_555
O1 C1 1_555 1_555
O2 C1 1_555 1_555
O3 C9 1_555 1_555
O4 C9 1_555 1_555
O5 C16 1_555 1_555
O6 C16 1_555 1_555
O7 C17 1_555 1_555
O8 C17 1_555 1_555
O9 C25 1_555 1_555
O10 C25 1_555 1_555
O11 C8 1_555 1_555
O12 C8 1_555 1_555
O13 C33 1_555 1_555
O14 C33 1_555 1_555
O15 C40 1_555 1_555
O16 C40 1_555 1_555
O17 C24 1_555 1_555
O18 C24 1_555 1_555
O19 C32 1_555 1_555
O20 C32 1_555 1_555
O21 Rh1 1_555 1_555
O22 Rh2 1_555 1_555
O23 Rh3 1_555 1_555
O24 Rh4 1_555 1_555
O25 Rh5 1_555 1_555
O26 Rh6 1_555 1_555
Rh1 O1 1_555 1_555
Rh2 O2 1_555 1_555
Rh3 O9 1_555 1_555
Rh4 O10 1_555 1_555
Rh5 O17 1_555 1_555
Rh6 O18 1_555 1_555
C1B C2B 1_555 1_555
C2B C3B 1_555 1_555
C3B H1B 1_555 1_555
C4B C3B 1_555 1_555
H2B C4B 1_555 1_555
C5B C4B 1_555 1_555
H3B C5B 1_555 1_555
C6B C5B 1_555 1_555
C7B C2B 1_555 1_555
H4B C7B 1_555 1_555
C8B C6B 1_555 1_555
C9B C10B 1_555 1_555
C10B C11B 1_555 1_555
C11B H5B 1_555 1_555
C12B C11B 1_555 1_555
H6B C12B 1_555 1_555
C13B C12B 1_555 1_555
H7B C13B 1_555 1_555
C14B C13B 1_555 1_555
C15B C10B 1_555 1_555
H8B C15B 1_555 1_555
C16B C14B 1_555 1_555
C17B C18B 1_555 1_555
C18B C19B 1_555 1_555
C19B H9B 1_555 1_555
C20B C19B 1_555 1_555
H10B C20B 1_555 1_555
C21B C20B 1_555 1_555
H11B C21B 1_555 1_555
C22B C21B 1_555 1_555
C23B C18B 1_555 1_555
H12B C23B 1_555 1_555
C24B C22B 1_555 1_555
C25B C26B 1_555 1_555
C26B C27B 1_555 1_555
C27B H13B 1_555 1_555
C28B C27B 1_555 1_555
H14B C28B 1_555 1_555
C29B C28B 1_555 1_555
H15B C29B 1_555 1_555
C30B C29B 1_555 1_555
C31B C26B 1_555 1_555
H16B C31B 1_555 1_555
C32B C30B 1_555 1_555
C33B C34B 1_555 1_555
C34B C35B 1_555 1_555
C35B H17B 1_555 1_555
C36B C35B 1_555 1_555
H18B C36B 1_555 1_555
C37B C36B 1_555 1_555
H19B C37B 1_555 1_555
C38B C37B 1_555 1_555
C39B C34B 1_555 1_555
H20B C39B 1_555 1_555
C40B C38B 1_555 1_555
O1B C1B 1_555 1_555
O2B C1B 1_555 1_555
O3B C9B 1_555 1_555
O4B C9B 1_555 1_555
O5B C16B 1_555 1_555
O6B C16B 1_555 1_555
O7B C17B 1_555 1_555
O8B C17B 1_555 1_555
O9B C25B 1_555 1_555
O10B C25B 1_555 1_555
O11B C8B 1_555 1_555
O12B C8B 1_555 1_555
O13B C33B 1_555 1_555
O14B C33B 1_555 1_555
O15B Rh5 1_555 1_555
O16B Rh6 1_555 1_555
O17B C24B 1_555 1_555
O18B C24B 1_555 1_555
O19B C32B 1_555 1_555
O20B C32B 1_555 1_555
O21B Rh1B 1_555 1_555
O22B Rh2B 1_555 1_555
O23B Rh3B 1_555 1_555
O24B Rh4B 1_555 1_555
O25B Rh5B 1_555 1_555
O26B Rh6B 1_555 1_555
Rh1B O5 1_555 1_555
Rh2B O6 1_555 1_555
Rh3B O9B 1_555 1_555
Rh4B O10B 1_555 1_555
Rh5B O17B 1_555 1_555
Rh6B O18B 1_555 1_555
C1C C2C 1_555 1_555
C2C C3C 1_555 1_555
C3C H1C 1_555 1_555
C4C C3C 1_555 1_555
H2C C4C 1_555 1_555
C5C C4C 1_555 1_555
H3C C5C 1_555 1_555
C6C C5C 1_555 1_555
C7C C2C 1_555 1_555
H4C C7C 1_555 1_555
C8C C6C 1_555 1_555
C9C C10C 1_555 1_555
C10C C11C 1_555 1_555
C11C H5C 1_555 1_555
C12C C11C 1_555 1_555
H6C C12C 1_555 1_555
C13C C12C 1_555 1_555
H7C C13C 1_555 1_555
C14C C13C 1_555 1_555
C15C C10C 1_555 1_555
H8C C15C 1_555 1_555
C16C C14C 1_555 1_555
C17C C18C 1_555 1_555
C18C C19C 1_555 1_555
C19C H9C 1_555 1_555
C20C C19C 1_555 1_555
H10C C20C 1_555 1_555
C21C C20C 1_555 1_555
H11C C21C 1_555 1_555
C22C C21C 1_555 1_555
C23C C18C 1_555 1_555
H12C C23C 1_555 1_555
C24C C22C 1_555 1_555
C25C C26C 1_555 1_555
C26C C27C 1_555 1_555
C27C H13C 1_555 1_555
C28C C27C 1_555 1_555
H14C C28C 1_555 1_555
C29C C28C 1_555 1_555
H15C C29C 1_555 1_555
C30C C29C 1_555 1_555
C31C C26C 1_555 1_555
H16C C31C 1_555 1_555
C32C C30C 1_555 1_555
C33C C34C 1_555 1_555
C34C C35C 1_555 1_555
C35C H17C 1_555 1_555
C36C C35C 1_555 1_555
H18C C36C 1_555 1_555
C37C C36C 1_555 1_555
H19C C37C 1_555 1_555
C38C C37C 1_555 1_555
C39C C34C 1_555 1_555
H20C C39C 1_555 1_555
C40C C38C 1_555 1_555
O1C C1C 1_555 1_555
O2C C1C 1_555 1_555
O3C C9C 1_555 1_555
O4C C9C 1_555 1_555
O5C Rh1 1_555 1_555
O6C Rh2 1_555 1_555
O7C Rh1 1_555 1_555
O8C Rh2 1_555 1_555
O9C C25C 1_555 1_555
O10C C25C 1_555 1_555
O11C C8C 1_555 1_555
O12C C8C 1_555 1_555
O13C C33C 1_555 1_555
O14C C33C 1_555 1_555
O15C Rh5B 1_555 1_555
O16C Rh6B 1_555 1_555
O17C C24C 1_555 1_555
O18C C24C 1_555 1_555
O19C C32C 1_555 1_555
O20C C32C 1_555 1_555
O21C Rh1C 1_555 1_555
O22C Rh2C 1_555 1_555
O23C Rh3C 1_555 1_555
O24C Rh4C 1_555 1_555
O25C Rh5C 1_555 1_555
O26C Rh6C 1_555 1_555
Rh1C O5B 1_555 1_555
Rh2C O6B 1_555 1_555
Rh3C O9C 1_555 1_555
Rh4C O10C 1_555 1_555
Rh5C O15 1_555 1_555
Rh6C O16 1_555 1_555
C1G C2G 1_555 1_555
C2G C3G 1_555 1_555
C3G H1G 1_555 1_555
C4G C3G 1_555 1_555
H2G C4G 1_555 1_555
C5G C4G 1_555 1_555
H3G C5G 1_555 1_555
C6G C5G 1_555 1_555
C7G C2G 1_555 1_555
H4G C7G 1_555 1_555
C8G C6G 1_555 1_555
C9G C10G 1_555 1_555
C10G C11G 1_555 1_555
C11G H5G 1_555 1_555
C12G C11G 1_555 1_555
H6G C12G 1_555 1_555
C13G C12G 1_555 1_555
H7G C13G 1_555 1_555
C14G C13G 1_555 1_555
C15G C10G 1_555 1_555
H8G C15G 1_555 1_555
C16G C14G 1_555 1_555
C17G C18G 1_555 1_555
C18G C19G 1_555 1_555
C19G H9G 1_555 1_555
C20G C19G 1_555 1_555
H10G C20G 1_555 1_555
C21G C20G 1_555 1_555
H11G C21G 1_555 1_555
C22G C21G 1_555 1_555
C23G C18G 1_555 1_555
H12G C23G 1_555 1_555
C24G C22G 1_555 1_555
O1G C1G 1_555 1_555
O2G C1G 1_555 1_555
O3G C9G 1_555 1_555
O4G C9G 1_555 1_555
O5G C16G 1_555 1_555
O6G C16G 1_555 1_555
O7G C17G 1_555 1_555
O8G C17G 1_555 1_555
O11G Rh3 1_555 1_555
O12G Rh4 1_555 1_555
O17G Rh5 1_555 1_555
O18G Rh6 1_555 1_555
O21G Rh1G 1_555 1_555
O22G Rh2G 1_555 1_555
Rh1G O1G 1_555 1_555
Rh2G O2G 1_555 1_555
C1J C2J 1_555 1_555
C2J C3J 1_555 1_555
C3J H1J 1_555 1_555
C4J C3J 1_555 1_555
H2J C4J 1_555 1_555
C5J C4J 1_555 1_555
H3J C5J 1_555 1_555
C6J C5J 1_555 1_555
C7J C2J 1_555 1_555
H4J C7J 1_555 1_555
C8J C6J 1_555 1_555
C9J C10J 1_555 1_555
C10J C11J 1_555 1_555
C11J H5J 1_555 1_555
C12J C11J 1_555 1_555
H6J C12J 1_555 1_555
C13J C12J 1_555 1_555
H7J C13J 1_555 1_555
C14J C13J 1_555 1_555
C15J C10J 1_555 1_555
H8J C15J 1_555 1_555
C16J C14J 1_555 1_555
C17J C18J 1_555 1_555
C18J C19J 1_555 1_555
C19J H9J 1_555 1_555
C20J C19J 1_555 1_555
H10J C20J 1_555 1_555
C21J C20J 1_555 1_555
H11J C21J 1_555 1_555
C22J C21J 1_555 1_555
C23J C18J 1_555 1_555
H12J C23J 1_555 1_555
C24J C22J 1_555 1_555
O1J C1J 1_555 1_555
O2J C1J 1_555 1_555
O3J C9J 1_555 1_555
O4J C9J 1_555 1_555
O5J Rh1G 1_555 1_555
O6J Rh2G 1_555 1_555
O7J Rh1G 1_555 1_555
O8J Rh2G 1_555 1_555
O11J Rh3C 1_555 1_555
O12J Rh4C 1_555 1_555
O17J Rh5C 1_555 1_555
O18J Rh6C 1_555 1_555
O21J Rh1J 1_555 1_555
O22J Rh2J 1_555 1_555
Rh1J O1J 1_555 1_555
Rh2J O2J 1_555 1_555
C1K C2K 1_555 1_555
C2K C3K 1_555 1_555
C3K H1K 1_555 1_555
C4K C3K 1_555 1_555
H2K C4K 1_555 1_555
C5K C4K 1_555 1_555
H3K C5K 1_555 1_555
C6K C5K 1_555 1_555
C7K C2K 1_555 1_555
H4K C7K 1_555 1_555
C8K C6K 1_555 1_555
C9K C10K 1_555 1_555
C10K C11K 1_555 1_555
C11K H5K 1_555 1_555
C12K C11K 1_555 1_555
H6K C12K 1_555 1_555
C13K C12K 1_555 1_555
H7K C13K 1_555 1_555
C14K C13K 1_555 1_555
C15K C10K 1_555 1_555
H8K C15K 1_555 1_555
C16K C14K 1_555 1_555
C17K C18K 1_555 1_555
C18K C19K 1_555 1_555
C19K H9K 1_555 1_555
C20K C19K 1_555 1_555
H10K C20K 1_555 1_555
C21K C20K 1_555 1_555
H11K C21K 1_555 1_555
C22K C21K 1_555 1_555
C23K C18K 1_555 1_555
H12K C23K 1_555 1_555
C24K C22K 1_555 1_555
O1K C1K 1_555 1_555
O2K C1K 1_555 1_555
O3K C9K 1_555 1_555
O4K C9K 1_555 1_555
O5K Rh1J 1_555 1_555
O6K Rh2J 1_555 1_555
O7K Rh1J 1_555 1_555
O8K Rh2J 1_555 1_555
O11K Rh3B 1_555 1_555
O12K Rh4B 1_555 1_555
O17K Rh5B 1_555 1_555
O18K Rh6B 1_555 1_555
O21K Rh1K 1_555 1_555
O22K Rh2K 1_555 1_555
Rh1K O5G 1_555 1_555
Rh2K O6G 1_555 1_555
C6 C7 1_555 1_555
C14 C15 1_555 1_555
C22 C23 1_555 1_555
C30 C31 1_555 1_555
C38 C39 1_555 1_555
O3 Rh1 1_555 1_555
O4 Rh2 1_555 1_555
O7 Rh1B 1_555 1_555
O8 Rh2B 1_555 1_555
O11 Rh3 1_555 1_555
O12 Rh4 1_555 1_555
O13 Rh3 1_555 1_555
O14 Rh4 1_555 1_555
O19 Rh5 1_555 1_555
O20 Rh6 1_555 1_555
Rh1 Rh2 1_555 1_555
Rh3 Rh4 1_555 1_555
Rh5 Rh6 1_555 1_555
C6B C7B 1_555 1_555
C14B C15B 1_555 1_555
C22B C23B 1_555 1_555
C30B C31B 1_555 1_555
C38B C39B 1_555 1_555
C40B O15B 1_555 1_555
C40B O16B 1_555 1_555
O1B Rh1B 1_555 1_555
O2B Rh2B 1_555 1_555
O3B Rh1B 1_555 1_555
O4B Rh2B 1_555 1_555
O7B Rh1C 1_555 1_555
O8B Rh2C 1_555 1_555
O11B Rh3B 1_555 1_555
O12B Rh4B 1_555 1_555
O13B Rh3B 1_555 1_555
O14B Rh4B 1_555 1_555
O19B Rh5B 1_555 1_555
O20B Rh6B 1_555 1_555
Rh1B Rh2B 1_555 1_555
Rh3B Rh4B 1_555 1_555
Rh5B Rh6B 1_555 1_555
C6C C7C 1_555 1_555
C14C C15C 1_555 1_555
C16C O5C 1_555 1_555
C16C O6C 1_555 1_555
C17C O7C 1_555 1_555
C17C O8C 1_555 1_555
C22C C23C 1_555 1_555
C30C C31C 1_555 1_555
C38C C39C 1_555 1_555
C40C O15C 1_555 1_555
C40C O16C 1_555 1_555
O1C Rh1C 1_555 1_555
O2C Rh2C 1_555 1_555
O3C Rh1C 1_555 1_555
O4C Rh2C 1_555 1_555
O11C Rh3C 1_555 1_555
O12C Rh4C 1_555 1_555
O13C Rh3C 1_555 1_555
O14C Rh4C 1_555 1_555
O17C Rh5C 1_555 1_555
O18C Rh6C 1_555 1_555
O19C Rh5C 1_555 1_555
O20C Rh6C 1_555 1_555
Rh1C Rh2C 1_555 1_555
Rh3C Rh4C 1_555 1_555
Rh5C Rh6C 1_555 1_555
C6G C7G 1_555 1_555
C8G O11G 1_555 1_555
C8G O12G 1_555 1_555
C14G C15G 1_555 1_555
C22G C23G 1_555 1_555
C24G O17G 1_555 1_555
C24G O18G 1_555 1_555
O3G Rh1G 1_555 1_555
O4G Rh2G 1_555 1_555
O7G Rh1K 1_555 1_555
O8G Rh2K 1_555 1_555
Rh1G Rh2G 1_555 1_555
C6J C7J 1_555 1_555
C8J O11J 1_555 1_555
C8J O12J 1_555 1_555
C14J C15J 1_555 1_555
C16J O5J 1_555 1_555
C16J O6J 1_555 1_555
C17J O7J 1_555 1_555
C17J O8J 1_555 1_555
C22J C23J 1_555 1_555
C24J O17J 1_555 1_555
C24J O18J 1_555 1_555
O3J Rh1J 1_555 1_555
O4J Rh2J 1_555 1_555
Rh1J Rh2J 1_555 1_555
C6K C7K 1_555 1_555
C8K O11K 1_555 1_555
C8K O12K 1_555 1_555
C14K C15K 1_555 1_555
C16K O5K 1_555 1_555
C16K O6K 1_555 1_555
C17K O7K 1_555 1_555
C17K O8K 1_555 1_555
C22K C23K 1_555 1_555
C24K O17K 1_555 1_555
C24K O18K 1_555 1_555
O1K Rh1K 1_555 1_555
O2K Rh2K 1_555 1_555
O3K Rh1K 1_555 1_555
O4K Rh2K 1_555 1_555
Rh1K Rh2K 1_555 1_555

#END
