
#######################################################################
#
#                 Cambridge Crystallographic Data Centre
#                                CCDC 
#
#######################################################################
#
# If this CIF has been generated from an entry in the Cambridge 
# Structural Database, then it will include bibliographic, chemical, 
# crystal, experimental, refinement or atomic coordinate data resulting 
# from the CCDC's data processing and validation procedures.
#
#######################################################################

data_DALVUK
_chemical_formula_moiety         'C192 H144 O120 Rh24'
_chemical_name_systematic        
'tetracosakis(\m-Benzene-1,3-dicarboxylato)-tetracosa-aqua-tetracosa-rhodium unknown solvate'
_symmetry_cell_setting           triclinic
_symmetry_space_group_name_H-M   'P -1'
_symmetry_Int_Tables_number      2
_space_group_name_Hall           '-P 1'
loop_
_symmetry_equiv_pos_site_id
_symmetry_equiv_pos_as_xyz
1 x,y,z
2 -x,-y,-z
_cell_length_a                   22.543(5)
_cell_length_b                   24.369(5)
_cell_length_c                   24.845(5)
_cell_angle_alpha                97.049(2)
_cell_angle_beta                 114.1070(10)
_cell_angle_gamma                111.849(2)
_cell_volume                     10938.5
_exptl_crystal_colour            blue
_exptl_crystal_description       plate
_cell_formula_units_Z            1
loop_
_atom_site_label
_atom_site_type_symbol
_atom_site_fract_x
_atom_site_fract_y
_atom_site_fract_z
C1 C 0.6303(5) 0.0807(4) 0.9238(4)
C2 C 0.6740(4) 0.0501(4) 0.9597(4)
C3 C 0.6427(6) -0.0127(4) 0.9498(5)
H1 H 0.5924 -0.0385 0.9195
C4 C 0.6849(6) -0.0392(5) 0.9844(6)
H2 H 0.6636 -0.0829 0.9779
C5 C 0.7578(5) -0.0003(4) 1.0280(5)
H3 H 0.7868 -0.0173 1.0524
C6 C 0.7888(5) 0.0626(4) 1.0365(5)
C7 C 0.7470(5) 0.0884(5) 1.0001(4)
H4 H 0.7690 0.1312 1.0035
C8 C 0.8716(5) 0.1033(4) 1.0866(4)
C9 C 0.5484(5) 0.1710(4) 0.9601(4)
C10 C 0.5458(5) 0.1944(4) 1.0195(4)
C11 C 0.4868(5) 0.1623(4) 1.0272(4)
H5 H 0.4454 0.1253 0.9954
C12 C 0.4888(6) 0.1841(5) 1.0807(5)
H6 H 0.4472 0.1632 1.0854
C13 C 0.5494(5) 0.2361(4) 1.1289(5)
H7 H 0.5502 0.2491 1.1670
C14 C 0.6092(5) 0.2693(4) 1.1218(4)
C15 C 0.6082(5) 0.2481(4) 1.0674(4)
H8 H 0.6492 0.2696 1.0621
C16 C 0.6781(5) 0.3256(4) 1.1752(4)
C17 C 0.4776(5) 0.1811(5) 0.7997(4)
C18 C 0.4361(5) 0.2122(4) 0.7597(5)
C19 C 0.3582(6) 0.1773(5) 0.7242(5)
H9 H 0.3335 0.1375 0.7270
C20 C 0.3180(6) 0.2023(5) 0.6847(6)
H10 H 0.2661 0.1795 0.6593
C21 C 0.3582(6) 0.2635(5) 0.6840(5)
H11 H 0.3328 0.2824 0.6590
C22 C 0.4342(5) 0.2950(4) 0.7200(4)
C23 C 0.4737(6) 0.2706(4) 0.7577(4)
H12 H 0.5258 0.2934 0.7819
C24 C 0.4785(6) 0.3585(5) 0.7151(5)
C25 C 0.5584(5) 0.0945(4) 0.7644(4)
C26 C 0.5598(5) 0.0714(4) 0.7039(4)
C27 C 0.5054(5) 0.0112(4) 0.6596(4)
H13 H 0.4686 -0.0157 0.6670
C28 C 0.5072(6) -0.0079(4) 0.6044(4)
H14 H 0.4735 -0.0490 0.5759
C29 C 0.5586(5) 0.0338(4) 0.5913(5)
H15 H 0.5587 0.0218 0.5535
C30 C 0.6094(5) 0.0932(4) 0.6353(5)
C31 C 0.6110(5) 0.1130(4) 0.6922(4)
H16 H 0.6461 0.1535 0.7213
C32 C 0.6654(5) 0.1399(5) 0.6217(4)
C33 C 1.1439(6) 0.2410(5) 1.2432(5)
C34 C 1.2275(5) 0.2798(4) 1.2853(4)
C35 C 1.2660(5) 0.2562(5) 1.3287(5)
H17 H 1.2403 0.2167 1.3315
C36 C 1.3435(7) 0.2918(6) 1.3681(6)
H18 H 1.3701 0.2781 1.3992
C37 C 1.3801(6) 0.3494(5) 1.3591(5)
H19 H 1.4322 0.3721 1.3815
C38 C 1.3412(5) 0.3714(4) 1.3193(5)
C39 C 1.2663(5) 0.3377(4) 1.2811(4)
H20 H 1.2409 0.3537 1.2519
C40 C 1.3839(6) 0.4346(4) 1.3121(5)
C41 C 0.9652(5) 0.2121(4) 1.2370(5)
C42 C 0.9333(6) 0.2301(5) 1.2773(5)
C43 C 0.9283(8) 0.2027(7) 1.3229(6)
H21 H 0.9476 0.1743 1.3321
C44 C 0.8950(10) 0.2174(7) 1.3543(7)
H22 H 0.8903 0.1985 1.3845
C45 C 0.8698(7) 0.2582(6) 1.3418(6)
H23 H 0.8458 0.2675 1.3627
C46 C 0.8777(6) 0.2874(5) 1.2990(4)
C47 C 0.9096(5) 0.2751(4) 1.2670(5)
H24 H 0.9159 0.2962 1.2385
C48 C 0.8480(5) 0.3360(3) 1.2884(4)
C49 C 1.0494(5) 0.1348(5) 1.0951(5)
C50 C 1.0793(5) 0.1158(4) 1.0537(4)
C51 C 1.0840(7) 0.0581(6) 1.0479(6)
H25 H 1.0661 0.0303 1.0677
C52 C 1.1144(8) 0.0432(5) 1.0140(6)
H26 H 1.1220 0.0074 1.0130
C53 C 1.1329(7) 0.0806(5) 0.9827(6)
H27 H 1.1487 0.0679 0.9556
C54 C 1.1307(5) 0.1363(5) 0.9869(5)
C55 C 1.1021(5) 0.1526(4) 1.0234(4)
H28 H 1.0990 0.1906 1.0265
C56 C 1.1591(6) 0.1785(5) 0.9516(4)
C57 C 0.9201(6) 0.5062(4) 1.3564(5)
C58 C 0.9903(5) 0.5584(4) 1.4105(5)
C59 C 1.0087(6) 0.5642(5) 1.4702(5)
H29 H 0.9753 0.5354 1.4795
C60 C 1.0754(6) 0.6114(5) 1.5188(5)
H30 H 1.0875 0.6138 1.5607
C61 C 1.1254(5) 0.6560(4) 1.5063(5)
H31 H 1.1715 0.6876 1.5395
C62 C 1.1062(5) 0.6528(4) 1.4455(4)
C63 C 1.0405(5) 0.6026(4) 1.3975(4)
H32 H 1.0293 0.5980 1.3555
C64 C 1.1549(4) 0.6996(4) 1.4293(4)
C65 C 0.7521(5) 0.4966(4) 1.2457(4)
C66 C 0.7271(5) 0.5476(4) 1.2368(5)
C67 C 0.6883(5) 0.5573(5) 1.2640(5)
H33 H 0.6757 0.5311 1.2869
C68 C 0.6663(7) 0.6045(5) 1.2596(6)
H34 H 0.6423 0.6125 1.2810
C69 C 0.6821(7) 0.6389(5) 1.2217(5)
H35 H 0.6637 0.6680 1.2136
C70 C 0.7237(6) 0.6318(5) 1.1957(5)
C71 C 0.7441(5) 0.5825(4) 1.2021(4)
H36 H 0.7693 0.5746 1.1820
C72 C 0.7487(6) 0.6727(5) 1.1580(5)
C73 C 1.3281(6) 0.3175(5) 1.0032(4)
C74 C 1.3966(5) 0.3535(5) 1.0647(5)
C75 C 1.4597(6) 0.3429(5) 1.0790(5)
H37 H 1.4592 0.3144 1.0488
C76 C 1.5215(7) 0.3755(6) 1.1384(6)
H38 H 1.5633 0.3693 1.1480
C77 C 1.5234(6) 0.4162(5) 1.1833(5)
H39 H 1.5656 0.4372 1.2236
C78 C 1.4630(7) 0.4263(5) 1.1689(5)
C79 C 1.4002(6) 0.3964(5) 1.1089(5)
H40 H 1.3606 0.4059 1.0991
C80 C 1.4635(6) 0.4729(4) 1.2166(5)
C81 C 1.0849(6) 0.1910(5) 0.7933(5)
C82 C 1.0142(6) 0.1563(5) 0.7307(5)
C83 C 1.0019(7) 0.1007(6) 0.6914(6)
H41 H 1.0347 0.0836 0.7061
C84 C 0.9418(8) 0.0718(6) 0.6316(7)
H42 H 0.9355 0.0373 0.6033
C85 C 0.8904(6) 0.0948(5) 0.6139(5)
H43 H 0.8474 0.0739 0.5741
C86 C 0.9010(6) 0.1473(5) 0.6534(5)
C87 C 0.9631(5) 0.1771(5) 0.7130(5)
H44 H 0.9695 0.2118 0.7410
C88 C 0.8465(5) 0.1734(4) 0.6317(5)
C89 C 0.6673(5) 0.2674(4) 0.5623(5)
C90 C 0.6161(5) 0.2962(4) 0.5427(4)
C91 C 0.5679(5) 0.2819(5) 0.4783(5)
H45 H 0.5697 0.2557 0.4480
C92 C 0.5196(5) 0.3050(5) 0.4594(5)
H46 H 0.4872 0.2945 0.4163
C93 C 0.5174(5) 0.3442(5) 0.5032(5)
H47 H 0.4855 0.3625 0.4902
C94 C 0.5644(5) 0.3573(4) 0.5698(4)
C95 C 0.6138(5) 0.3334(4) 0.5862(4)
H48 H 0.6470 0.3435 0.6290
C96 C 0.5574(5) 0.3975(4) 0.6186(4)
O1 O 0.6662(3) 0.1354(3) 0.9267(3)
O2 O 0.5611(3) 0.0451(3) 0.8926(3)
O3 O 0.6009(3) 0.2071(3) 0.9551(3)
O4 O 0.4953(3) 0.1189(3) 0.9223(3)
O5 O 0.5477(3) 0.2156(3) 0.8320(3)
O6 O 0.4414(3) 0.1261(3) 0.7980(3)
O7 O 0.6100(3) 0.1438(3) 0.8015(3)
O8 O 0.5052(3) 0.0547(3) 0.7687(3)
O9 O 1.1151(3) 0.2662(3) 1.2083(3)
O10 O 1.1161(3) 0.1884(3) 1.2494(3)
O11 O 0.9750(3) 0.2422(3) 1.2030(3)
O12 O 0.9782(4) 0.1656(3) 1.2443(3)
O13 O 0.9002(3) 0.1576(3) 1.0819(3)
O14 O 0.9010(3) 0.0785(3) 1.1220(3)
O15 O 1.0381(3) 0.1803(3) 1.0867(3)
O16 O 1.0388(4) 0.1018(3) 1.1281(3)
O17 O 0.9167(3) 0.4965(3) 1.3050(3)
O18 O 0.8729(3) 0.4759(3) 1.3713(3)
O19 O 0.7822(3) 0.4882(3) 1.2155(3)
O20 O 0.7363(3) 0.4686(3) 1.2822(3)
O21 O 0.7270(3) 0.3548(2) 1.1628(3)
O22 O 0.6812(3) 0.3362(3) 1.2278(3)
O23 O 0.8605(3) 0.3628(3) 1.2500(3)
O24 O 0.8149(3) 0.3438(3) 1.3166(3)
O25 O 1.2796(4) 0.3341(3) 0.9930(3)
O26 O 1.3258(4) 0.2749(3) 0.9664(3)
O27 O 1.1451(4) 0.2263(3) 0.9537(3)
O28 O 1.1898(4) 0.1648(3) 0.9274(3)
O29 O 1.0882(3) 0.2341(3) 0.8298(3)
O30 O 1.1338(4) 0.1727(3) 0.8048(3)
O31 O 0.7783(4) 0.6569(3) 1.1323(3)
O32 O 0.7339(4) 0.7177(3) 1.1595(3)
O33 O 0.8548(3) 0.2146(3) 0.6736(3)
O34 O 0.7955(3) 0.1483(3) 0.5747(3)
O35 O 0.7144(3) 0.1896(3) 0.6656(3)
O36 O 0.6569(3) 0.1243(3) 0.5684(3)
O37 O 0.7162(4) 0.2908(3) 0.6176(3)
O38 O 0.6587(3) 0.2251(3) 0.5215(3)
O39 O 1.1452(3) 0.6841(2) 1.3741(3)
O40 O 1.2060(3) 0.7504(3) 1.4746(3)
O41 O 0.5448(3) 0.3872(3) 0.7502(3)
O42 O 0.4371(3) 0.3750(3) 0.6733(3)
O43 O 0.6094(3) 0.4163(3) 0.6719(3)
O44 O 0.5041(3) 0.4093(3) 0.5967(3)
O45 O 1.3436(3) 0.4531(3) 1.2748(3)
O46 O 1.4528(3) 0.4633(3) 1.3482(3)
O47 O 1.4071(3) 0.4805(3) 1.1975(3)
O48 O 1.5161(4) 0.4943(3) 1.2709(3)
O49 O 0.7188(5) 0.2713(4) 0.9156(5)
O50 O 0.3874(4) -0.0083(4) 0.8080(3)
O51 O 1.0070(5) 0.2966(4) 1.1031(4)
O52 O 1.0102(5) 0.0494(4) 1.2303(4)
O53 O 0.8676(5) 0.4398(6) 1.1611(4)
O54 O 0.7234(5) 0.3844(3) 1.3676(3)
O55 O 1.1420(9) 0.3537(7) 0.9529(8)
O56 O 1.2861(6) 0.1644(5) 0.8592(5)
O57 O 0.8509(6) 0.3250(4) 0.7500(3)
O58 O 0.6676(4) 0.1121(3) 0.4470(3)
O59 O 1.2843(4) 0.5179(5) 1.1795(4)
O60 O 1.6250(5) 0.5619(4) 1.4185(4)
Rh1 Rh 0.60894(4) 0.17791(3) 0.87979(3)
Rh2 Rh 0.49717(4) 0.08398(3) 0.84429(3)
Rh3 Rh 1.00651(4) 0.21405(3) 1.14438(3)
Rh4 Rh 1.00775(4) 0.13115(3) 1.18716(4)
Rh5 Rh 0.82218(4) 0.42598(3) 1.23116(3)
Rh6 Rh 0.77468(4) 0.40583(3) 1.30103(3)
Rh7 Rh 1.18213(5) 0.28620(4) 0.91210(4)
Rh8 Rh 1.23104(5) 0.22221(4) 0.88407(4)
Rh9 Rh 0.78727(4) 0.25457(3) 0.64868(3)
Rh10 Rh 0.72454(4) 0.18394(3) 0.54482(3)
Rh11 Rh 1.39627(4) 0.53250(3) 1.26012(4)
Rh12 Rh 1.51003(4) 0.54413(3) 1.33964(4)
C1A C 1.3697(5) 0.9193(4) 1.0762(4)
C2A C 1.3260(4) 0.9499(4) 1.0403(4)
C3A C 1.3573(6) 1.0127(4) 1.0502(5)
H1A H 1.4076 1.0385 1.0805
C4A C 1.3151(6) 1.0392(5) 1.0156(6)
H2A H 1.3364 1.0829 1.0221
C5A C 1.2422(5) 1.0003(4) 0.9720(5)
H3A H 1.2132 1.0173 0.9476
C6A C 1.2112(5) 0.9374(4) 0.9635(5)
C7A C 1.2530(5) 0.9116(5) 0.9999(4)
H4A H 1.2310 0.8688 0.9965
C8A C 1.1284(5) 0.8967(4) 0.9134(4)
C9A C 1.4516(5) 0.8290(4) 1.0399(4)
C10A C 1.4542(5) 0.8056(4) 0.9805(4)
C11A C 1.5132(5) 0.8377(4) 0.9728(4)
H5A H 1.5546 0.8747 1.0046
C12A C 1.5112(6) 0.8159(5) 0.9193(5)
H6A H 1.5528 0.8368 0.9146
C13A C 1.4506(5) 0.7639(4) 0.8711(5)
H7A H 1.4498 0.7509 0.8330
C14A C 1.3908(5) 0.7307(4) 0.8782(4)
C15A C 1.3918(5) 0.7519(4) 0.9326(4)
H8A H 1.3508 0.7304 0.9379
C16A C 1.3219(5) 0.6744(4) 0.8248(4)
C17A C 1.5224(5) 0.8189(5) 1.2003(4)
C18A C 1.5639(5) 0.7878(4) 1.2403(5)
C19A C 1.6418(6) 0.8227(5) 1.2758(5)
H9A H 1.6665 0.8625 1.2730
C20A C 1.6820(6) 0.7977(5) 1.3153(6)
H10A H 1.7339 0.8205 1.3407
C21A C 1.6418(6) 0.7365(5) 1.3160(5)
H11A H 1.6672 0.7176 1.3410
C22A C 1.5658(5) 0.7050(4) 1.2800(4)
C23A C 1.5263(6) 0.7294(4) 1.2423(4)
H12A H 1.4742 0.7066 1.2181
C24A C 1.5215(6) 0.6415(5) 1.2849(5)
C25A C 1.4416(5) 0.9055(4) 1.2356(4)
C26A C 1.4402(5) 0.9286(4) 1.2961(4)
C27A C 1.4946(5) 0.9888(4) 1.3404(4)
H13A H 1.5314 1.0157 1.3330
C28A C 1.4928(6) 1.0079(4) 1.3956(4)
H14A H 1.5265 1.0490 1.4241
C29A C 1.4414(5) 0.9662(4) 1.4087(5)
H15A H 1.4413 0.9782 1.4465
C30A C 1.3906(5) 0.9068(4) 1.3647(5)
C31A C 1.3890(5) 0.8870(4) 1.3078(4)
H16A H 1.3539 0.8465 1.2787
C32A C 1.3346(5) 0.8601(5) 1.3783(4)
C33A C 0.8561(6) 0.7590(5) 0.7568(5)
C34A C 0.7725(5) 0.7202(4) 0.7147(4)
C35A C 0.7340(5) 0.7438(5) 0.6713(5)
H17A H 0.7597 0.7833 0.6685
C36A C 0.6565(7) 0.7082(6) 0.6319(6)
H18A H 0.6299 0.7219 0.6008
C37A C 0.6199(6) 0.6506(5) 0.6409(5)
H19A H 0.5678 0.6279 0.6185
C38A C 0.6588(5) 0.6286(4) 0.6807(5)
C39A C 0.7337(5) 0.6623(4) 0.7189(4)
H20A H 0.7591 0.6463 0.7481
C40A C 0.6161(6) 0.5654(4) 0.6879(5)
C41A C 1.0348(5) 0.7879(4) 0.7630(5)
C42A C 1.0667(6) 0.7699(5) 0.7227(5)
C43A C 1.0717(8) 0.7973(7) 0.6771(6)
H21A H 1.0524 0.8257 0.6679
C44A C 1.1050(10) 0.7826(7) 0.6457(7)
H22A H 1.1097 0.8015 0.6155
C45A C 1.1302(7) 0.7418(6) 0.6582(6)
H23A H 1.1542 0.7325 0.6373
C46A C 1.1223(6) 0.7126(5) 0.7010(4)
C47A C 1.0904(5) 0.7249(4) 0.7330(5)
H24A H 1.0841 0.7038 0.7615
C48A C 1.1520(5) 0.6640(3) 0.7116(4)
C49A C 0.9506(5) 0.8652(5) 0.9049(5)
C50A C 0.9207(5) 0.8842(4) 0.9463(4)
C51A C 0.9160(7) 0.9419(6) 0.9521(6)
H25A H 0.9339 0.9697 0.9323
C52A C 0.8856(8) 0.9568(5) 0.9860(6)
H26A H 0.8780 0.9926 0.9870
C53A C 0.8671(7) 0.9194(5) 1.0173(6)
H27A H 0.8513 0.9321 1.0444
C54A C 0.8693(5) 0.8637(5) 1.0131(5)
C55A C 0.8979(5) 0.8474(4) 0.9766(4)
H28A H 0.9010 0.8094 0.9735
C56A C 0.8409(6) 0.8215(5) 1.0484(4)
C57A C 1.0799(6) 0.4938(4) 0.6436(5)
C58A C 1.0097(5) 0.4416(4) 0.5895(5)
C59A C 0.9913(6) 0.4358(5) 0.5298(5)
H29A H 1.0247 0.4646 0.5205
C60A C 0.9246(6) 0.3886(5) 0.4812(5)
H30A H 0.9125 0.3862 0.4393
C61A C 0.8746(5) 0.3440(4) 0.4937(5)
H31A H 0.8285 0.3124 0.4605
C62A C 0.8938(5) 0.3472(4) 0.5545(4)
C63A C 0.9595(5) 0.3974(4) 0.6025(4)
H32A H 0.9707 0.4020 0.6445
C64A C 0.8451(4) 0.3004(4) 0.5707(4)
C65A C 1.2479(5) 0.5034(4) 0.7543(4)
C66A C 1.2729(5) 0.4524(4) 0.7632(5)
C67A C 1.3117(5) 0.4427(5) 0.7360(5)
H33A H 1.3243 0.4689 0.7131
C68A C 1.3337(7) 0.3955(5) 0.7404(6)
H34A H 1.3577 0.3875 0.7190
C69A C 1.3179(7) 0.3611(5) 0.7783(5)
H35A H 1.3363 0.3320 0.7864
C70A C 1.2763(6) 0.3682(5) 0.8043(5)
C71A C 1.2559(5) 0.4175(4) 0.7979(4)
H36A H 1.2307 0.4254 0.8180
C72A C 1.2513(6) 0.3273(5) 0.8420(5)
C73A C 0.6719(6) 0.6825(5) 0.9968(4)
C74A C 0.6034(5) 0.6465(5) 0.9353(5)
C75A C 0.5403(6) 0.6571(5) 0.9210(5)
H37A H 0.5408 0.6856 0.9512
C76A C 0.4785(7) 0.6245(6) 0.8616(6)
H38A H 0.4367 0.6307 0.8520
C77A C 0.4766(6) 0.5838(5) 0.8167(5)
H39A H 0.4344 0.5628 0.7764
C78A C 0.5370(7) 0.5737(5) 0.8311(5)
C79A C 0.5998(6) 0.6036(5) 0.8911(5)
H40A H 0.6394 0.5941 0.9009
C80A C 0.5365(6) 0.5271(4) 0.7834(5)
C81A C 0.9151(6) 0.8090(5) 1.2067(5)
C82A C 0.9858(6) 0.8437(5) 1.2693(5)
C83A C 0.9981(7) 0.8993(6) 1.3086(6)
H41A H 0.9653 0.9164 1.2939
C84A C 1.0582(8) 0.9282(6) 1.3684(7)
H42A H 1.0645 0.9627 1.3967
C85A C 1.1096(6) 0.9052(5) 1.3861(5)
H43A H 1.1526 0.9261 1.4259
C86A C 1.0990(6) 0.8527(5) 1.3466(5)
C87A C 1.0369(5) 0.8229(5) 1.2870(5)
H44A H 1.0305 0.7882 1.2590
C88A C 1.1535(5) 0.8266(4) 1.3683(5)
C89A C 1.3327(5) 0.7326(4) 1.4377(5)
C90A C 1.3839(5) 0.7038(4) 1.4573(4)
C91A C 1.4321(5) 0.7181(5) 1.5217(5)
H45A H 1.4303 0.7443 1.5520
C92A C 1.4804(5) 0.6950(5) 1.5406(5)
H46A H 1.5128 0.7055 1.5837
C93A C 1.4826(5) 0.6558(5) 1.4968(5)
H47A H 1.5145 0.6375 1.5098
C94A C 1.4356(5) 0.6427(4) 1.4302(4)
C95A C 1.3862(5) 0.6666(4) 1.4138(4)
H48A H 1.3530 0.6565 1.3710
C96A C 1.4426(5) 0.6025(4) 1.3814(4)
O1A O 1.3338(3) 0.8646(3) 1.0733(3)
O2A O 1.4389(3) 0.9549(3) 1.1074(3)
O3A O 1.3991(3) 0.7929(3) 1.0449(3)
O4A O 1.5047(3) 0.8811(3) 1.0777(3)
O5A O 1.4523(3) 0.7844(3) 1.1680(3)
O6A O 1.5586(3) 0.8739(3) 1.2020(3)
O7A O 1.3900(3) 0.8562(3) 1.1985(3)
O8A O 1.4948(3) 0.9453(3) 1.2313(3)
O9A O 0.8849(3) 0.7338(3) 0.7917(3)
O10A O 0.8839(3) 0.8116(3) 0.7506(3)
O11A O 1.0250(3) 0.7578(3) 0.7970(3)
O12A O 1.0218(4) 0.8344(3) 0.7557(3)
O13A O 1.0998(3) 0.8424(3) 0.9181(3)
O14A O 1.0990(3) 0.9215(3) 0.8780(3)
O15A O 0.9619(3) 0.8197(3) 0.9133(3)
O16A O 0.9612(4) 0.8982(3) 0.8719(3)
O17A O 1.0833(3) 0.5035(3) 0.6950(3)
O18A O 1.1271(3) 0.5241(3) 0.6287(3)
O19A O 1.2178(3) 0.5118(3) 0.7845(3)
O20A O 1.2637(3) 0.5314(3) 0.7178(3)
O21A O 1.2730(3) 0.6452(2) 0.8372(3)
O22A O 1.3188(3) 0.6638(3) 0.7722(3)
O23A O 1.1395(3) 0.6372(3) 0.7500(3)
O24A O 1.1851(3) 0.6562(3) 0.6834(3)
O25A O 0.7204(4) 0.6659(3) 1.0070(3)
O26A O 0.6742(4) 0.7251(3) 1.0336(3)
O27A O 0.8549(4) 0.7737(3) 1.0463(3)
O28A O 0.8102(4) 0.8352(3) 1.0726(3)
O29A O 0.9118(3) 0.7659(3) 1.1702(3)
O30A O 0.8662(4) 0.8273(3) 1.1952(3)
O31A O 1.2217(4) 0.3431(3) 0.8677(3)
O32A O 1.2661(4) 0.2823(3) 0.8405(3)
O33A O 1.1452(3) 0.7854(3) 1.3264(3)
O34A O 1.2045(3) 0.8517(3) 1.4253(3)
O35A O 1.2856(3) 0.8104(3) 1.3344(3)
O36A O 1.3431(3) 0.8757(3) 1.4316(3)
O37A O 1.2838(4) 0.7092(3) 1.3824(3)
O38A O 1.3413(3) 0.7749(3) 1.4785(3)
O39A O 0.8548(3) 0.3159(2) 0.6259(3)
O40A O 0.7940(3) 0.2496(3) 0.5254(3)
O41A O 1.4552(3) 0.6128(3) 1.2498(3)
O42A O 1.5629(3) 0.6250(3) 1.3267(3)
O43A O 1.3906(3) 0.5837(3) 1.3281(3)
O44A O 1.4959(3) 0.5907(3) 1.4033(3)
O45A O 0.6564(3) 0.5469(3) 0.7252(3)
O46A O 0.5472(3) 0.5367(3) 0.6518(3)
O47A O 0.5929(3) 0.5195(3) 0.8025(3)
O48A O 0.4839(4) 0.5057(3) 0.7291(3)
O49A O 1.2812(5) 0.7287(4) 1.0844(5)
O50A O 1.6126(4) 1.0083(4) 1.1920(3)
O51A O 0.9930(5) 0.7034(4) 0.8969(4)
O52A O 0.9898(5) 0.9506(4) 0.7697(4)
O53A O 1.1324(5) 0.5602(6) 0.8389(4)
O54A O 1.2766(5) 0.6156(3) 0.6324(3)
O55A O 0.8580(9) 0.6463(7) 1.0471(8)
O56A O 0.7139(6) 0.8356(5) 1.1408(5)
O57A O 1.1491(6) 0.6750(4) 1.2500(3)
O58A O 1.3324(4) 0.8879(3) 1.5530(3)
O59A O 0.7157(4) 0.4821(5) 0.8205(4)
O60A O 0.3750(5) 0.4381(4) 0.5815(4)
Rh1A Rh 1.39106(4) 0.82209(3) 1.12021(3)
Rh2A Rh 1.50283(4) 0.91602(3) 1.15571(3)
Rh3A Rh 0.99349(4) 0.78595(3) 0.85562(3)
Rh4A Rh 0.99225(4) 0.86885(3) 0.81284(4)
Rh5A Rh 1.17782(4) 0.57402(3) 0.76884(3)
Rh6A Rh 1.22532(4) 0.59417(3) 0.69897(3)
Rh7A Rh 0.81787(5) 0.71380(4) 1.08790(4)
Rh8A Rh 0.76896(5) 0.77779(4) 1.11593(4)
Rh9A Rh 1.21273(4) 0.74543(3) 1.35132(3)
Rh10A Rh 1.27546(4) 0.81606(3) 1.45518(3)
Rh11A Rh 0.60373(4) 0.46750(3) 0.73988(4)
Rh12A Rh 0.48997(4) 0.45587(3) 0.66036(4)
loop_
_geom_bond_atom_site_label_1
_geom_bond_atom_site_label_2
_geom_bond_site_symmetry_1
_geom_bond_site_symmetry_2
C1 C2 1_555 1_555
C2 C3 1_555 1_555
C3 H1 1_555 1_555
C4 C3 1_555 1_555
H2 C4 1_555 1_555
C5 C4 1_555 1_555
H3 C5 1_555 1_555
C6 C5 1_555 1_555
C7 C2 1_555 1_555
H4 C7 1_555 1_555
C8 C6 1_555 1_555
C9 C10 1_555 1_555
C10 C11 1_555 1_555
C11 H5 1_555 1_555
C12 C11 1_555 1_555
H6 C12 1_555 1_555
C13 C12 1_555 1_555
H7 C13 1_555 1_555
C14 C13 1_555 1_555
C15 C10 1_555 1_555
H8 C15 1_555 1_555
C16 C14 1_555 1_555
C17 C18 1_555 1_555
C18 C19 1_555 1_555
C19 H9 1_555 1_555
C20 C19 1_555 1_555
H10 C20 1_555 1_555
C21 C20 1_555 1_555
H11 C21 1_555 1_555
C22 C21 1_555 1_555
C23 C18 1_555 1_555
H12 C23 1_555 1_555
C24 C22 1_555 1_555
C25 C26 1_555 1_555
C26 C27 1_555 1_555
C27 H13 1_555 1_555
C28 C27 1_555 1_555
H14 C28 1_555 1_555
C29 C28 1_555 1_555
H15 C29 1_555 1_555
C30 C29 1_555 1_555
C31 C26 1_555 1_555
H16 C31 1_555 1_555
C32 C30 1_555 1_555
C33 C34 1_555 1_555
C34 C35 1_555 1_555
C35 H17 1_555 1_555
C36 C35 1_555 1_555
H18 C36 1_555 1_555
C37 C36 1_555 1_555
H19 C37 1_555 1_555
C38 C37 1_555 1_555
C39 C34 1_555 1_555
H20 C39 1_555 1_555
C40 C38 1_555 1_555
C41 C42 1_555 1_555
C42 C43 1_555 1_555
C43 H21 1_555 1_555
C44 C43 1_555 1_555
H22 C44 1_555 1_555
C45 C44 1_555 1_555
H23 C45 1_555 1_555
C46 C45 1_555 1_555
C47 C42 1_555 1_555
H24 C47 1_555 1_555
C48 C46 1_555 1_555
C49 C50 1_555 1_555
C50 C51 1_555 1_555
C51 H25 1_555 1_555
C52 C51 1_555 1_555
H26 C52 1_555 1_555
C53 C52 1_555 1_555
H27 C53 1_555 1_555
C54 C53 1_555 1_555
C55 C50 1_555 1_555
H28 C55 1_555 1_555
C56 C54 1_555 1_555
C57 C58 1_555 1_555
C58 C59 1_555 1_555
C59 H29 1_555 1_555
C60 C59 1_555 1_555
H30 C60 1_555 1_555
C61 C60 1_555 1_555
H31 C61 1_555 1_555
C62 C61 1_555 1_555
C63 C58 1_555 1_555
H32 C63 1_555 1_555
C64 C62 1_555 1_555
C65 C66 1_555 1_555
C66 C67 1_555 1_555
C67 H33 1_555 1_555
C68 C67 1_555 1_555
H34 C68 1_555 1_555
C69 C68 1_555 1_555
H35 C69 1_555 1_555
C70 C69 1_555 1_555
C71 C66 1_555 1_555
H36 C71 1_555 1_555
C72 C70 1_555 1_555
C73 C74 1_555 1_555
C74 C75 1_555 1_555
C75 H37 1_555 1_555
C76 C75 1_555 1_555
H38 C76 1_555 1_555
C77 C76 1_555 1_555
H39 C77 1_555 1_555
C78 C77 1_555 1_555
C79 C74 1_555 1_555
H40 C79 1_555 1_555
C80 C78 1_555 1_555
C81 C82 1_555 1_555
C82 C83 1_555 1_555
C83 H41 1_555 1_555
C84 C83 1_555 1_555
H42 C84 1_555 1_555
C85 C84 1_555 1_555
H43 C85 1_555 1_555
C86 C85 1_555 1_555
C87 C82 1_555 1_555
H44 C87 1_555 1_555
C88 C86 1_555 1_555
C89 C90 1_555 1_555
C90 C91 1_555 1_555
C91 H45 1_555 1_555
C92 C91 1_555 1_555
H46 C92 1_555 1_555
C93 C92 1_555 1_555
H47 C93 1_555 1_555
C94 C93 1_555 1_555
C95 C90 1_555 1_555
H48 C95 1_555 1_555
C96 C94 1_555 1_555
O1 C1 1_555 1_555
O2 C1 1_555 1_555
O3 C9 1_555 1_555
O4 C9 1_555 1_555
O5 C17 1_555 1_555
O6 C17 1_555 1_555
O7 C25 1_555 1_555
O8 C25 1_555 1_555
O9 C33 1_555 1_555
O10 C33 1_555 1_555
O11 C41 1_555 1_555
O12 C41 1_555 1_555
O13 C8 1_555 1_555
O14 C8 1_555 1_555
O15 C49 1_555 1_555
O16 C49 1_555 1_555
O17 C57 1_555 1_555
O18 C57 1_555 1_555
O19 C65 1_555 1_555
O20 C65 1_555 1_555
O21 C16 1_555 1_555
O22 C16 1_555 1_555
O23 C48 1_555 1_555
O24 C48 1_555 1_555
O25 C73 1_555 1_555
O26 C73 1_555 1_555
O27 C56 1_555 1_555
O28 C56 1_555 1_555
O29 C81 1_555 1_555
O30 C81 1_555 1_555
O31 C72 1_555 1_555
O32 C72 1_555 1_555
O33 C88 1_555 1_555
O34 C88 1_555 1_555
O35 C32 1_555 1_555
O36 C32 1_555 1_555
O37 C89 1_555 1_555
O38 C89 1_555 1_555
O39 C64 1_555 1_555
O40 C64 1_555 1_555
O41 C24 1_555 1_555
O42 C24 1_555 1_555
O43 C96 1_555 1_555
O44 C96 1_555 1_555
O45 C40 1_555 1_555
O46 C40 1_555 1_555
O47 C80 1_555 1_555
O48 C80 1_555 1_555
O49 Rh1 1_555 1_555
O50 Rh2 1_555 1_555
O51 Rh3 1_555 1_555
O52 Rh4 1_555 1_555
O53 Rh5 1_555 1_555
O54 Rh6 1_555 1_555
O55 Rh7 1_555 1_555
O56 Rh8 1_555 1_555
O57 Rh9 1_555 1_555
O58 Rh10 1_555 1_555
O59 Rh11 1_555 1_555
O60 Rh12 1_555 1_555
Rh1 O1 1_555 1_555
Rh2 O2 1_555 1_555
Rh3 O9 1_555 1_555
Rh4 O10 1_555 1_555
Rh5 O17 1_555 1_555
Rh6 O18 1_555 1_555
Rh7 O25 1_555 1_555
Rh8 O26 1_555 1_555
Rh9 O33 1_555 1_555
Rh10 O34 1_555 1_555
Rh11 O45 1_555 1_555
Rh12 O46 1_555 1_555
C1A C2A 1_555 1_555
C2A C3A 1_555 1_555
C3A H1A 1_555 1_555
C4A C3A 1_555 1_555
H2A C4A 1_555 1_555
C5A C4A 1_555 1_555
H3A C5A 1_555 1_555
C6A C5A 1_555 1_555
C7A C2A 1_555 1_555
H4A C7A 1_555 1_555
C8A C6A 1_555 1_555
C9A C10A 1_555 1_555
C10A C11A 1_555 1_555
C11A H5A 1_555 1_555
C12A C11A 1_555 1_555
H6A C12A 1_555 1_555
C13A C12A 1_555 1_555
H7A C13A 1_555 1_555
C14A C13A 1_555 1_555
C15A C10A 1_555 1_555
H8A C15A 1_555 1_555
C16A C14A 1_555 1_555
C17A C18A 1_555 1_555
C18A C19A 1_555 1_555
C19A H9A 1_555 1_555
C20A C19A 1_555 1_555
H10A C20A 1_555 1_555
C21A C20A 1_555 1_555
H11A C21A 1_555 1_555
C22A C21A 1_555 1_555
C23A C18A 1_555 1_555
H12A C23A 1_555 1_555
C24A C22A 1_555 1_555
C25A C26A 1_555 1_555
C26A C27A 1_555 1_555
C27A H13A 1_555 1_555
C28A C27A 1_555 1_555
H14A C28A 1_555 1_555
C29A C28A 1_555 1_555
H15A C29A 1_555 1_555
C30A C29A 1_555 1_555
C31A C26A 1_555 1_555
H16A C31A 1_555 1_555
C32A C30A 1_555 1_555
C33A C34A 1_555 1_555
C34A C35A 1_555 1_555
C35A H17A 1_555 1_555
C36A C35A 1_555 1_555
H18A C36A 1_555 1_555
C37A C36A 1_555 1_555
H19A C37A 1_555 1_555
C38A C37A 1_555 1_555
C39A C34A 1_555 1_555
H20A C39A 1_555 1_555
C40A C38A 1_555 1_555
C41A C42A 1_555 1_555
C42A C43A 1_555 1_555
C43A H21A 1_555 1_555
C44A C43A 1_555 1_555
H22A C44A 1_555 1_555
C45A C44A 1_555 1_555
H23A C45A 1_555 1_555
C46A C45A 1_555 1_555
C47A C42A 1_555 1_555
H24A C47A 1_555 1_555
C48A C46A 1_555 1_555
C49A C50A 1_555 1_555
C50A C51A 1_555 1_555
C51A H25A 1_555 1_555
C52A C51A 1_555 1_555
H26A C52A 1_555 1_555
C53A C52A 1_555 1_555
H27A C53A 1_555 1_555
C54A C53A 1_555 1_555
C55A C50A 1_555 1_555
H28A C55A 1_555 1_555
C56A C54A 1_555 1_555
C57A C58A 1_555 1_555
C58A C59A 1_555 1_555
C59A H29A 1_555 1_555
C60A C59A 1_555 1_555
H30A C60A 1_555 1_555
C61A C60A 1_555 1_555
H31A C61A 1_555 1_555
C62A C61A 1_555 1_555
C63A C58A 1_555 1_555
H32A C63A 1_555 1_555
C64A C62A 1_555 1_555
C65A C66A 1_555 1_555
C66A C67A 1_555 1_555
C67A H33A 1_555 1_555
C68A C67A 1_555 1_555
H34A C68A 1_555 1_555
C69A C68A 1_555 1_555
H35A C69A 1_555 1_555
C70A C69A 1_555 1_555
C71A C66A 1_555 1_555
H36A C71A 1_555 1_555
C72A C70A 1_555 1_555
C73A C74A 1_555 1_555
C74A C75A 1_555 1_555
C75A H37A 1_555 1_555
C76A C75A 1_555 1_555
H38A C76A 1_555 1_555
C77A C76A 1_555 1_555
H39A C77A 1_555 1_555
C78A C77A 1_555 1_555
C79A C74A 1_555 1_555
H40A C79A 1_555 1_555
C80A C78A 1_555 1_555
C81A C82A 1_555 1_555
C82A C83A 1_555 1_555
C83A H41A 1_555 1_555
C84A C83A 1_555 1_555
H42A C84A 1_555 1_555
C85A C84A 1_555 1_555
H43A C85A 1_555 1_555
C86A C85A 1_555 1_555
C87A C82A 1_555 1_555
H44A C87A 1_555 1_555
C88A C86A 1_555 1_555
C89A C90A 1_555 1_555
C90A C91A 1_555 1_555
C91A H45A 1_555 1_555
C92A C91A 1_555 1_555
H46A C92A 1_555 1_555
C93A C92A 1_555 1_555
H47A C93A 1_555 1_555
C94A C93A 1_555 1_555
C95A C90A 1_555 1_555
H48A C95A 1_555 1_555
C96A C94A 1_555 1_555
O1A C1A 1_555 1_555
O2A C1A 1_555 1_555
O3A C9A 1_555 1_555
O4A C9A 1_555 1_555
O5A C17A 1_555 1_555
O6A C17A 1_555 1_555
O7A C25A 1_555 1_555
O8A C25A 1_555 1_555
O9A C33A 1_555 1_555
O10A C33A 1_555 1_555
O11A C41A 1_555 1_555
O12A C41A 1_555 1_555
O13A C8A 1_555 1_555
O14A C8A 1_555 1_555
O15A C49A 1_555 1_555
O16A C49A 1_555 1_555
O17A C57A 1_555 1_555
O18A C57A 1_555 1_555
O19A C65A 1_555 1_555
O20A C65A 1_555 1_555
O21A C16A 1_555 1_555
O22A C16A 1_555 1_555
O23A C48A 1_555 1_555
O24A C48A 1_555 1_555
O25A C73A 1_555 1_555
O26A C73A 1_555 1_555
O27A C56A 1_555 1_555
O28A C56A 1_555 1_555
O29A C81A 1_555 1_555
O30A C81A 1_555 1_555
O31A Rh7 1_555 1_555
O32A Rh8 1_555 1_555
O33A C88A 1_555 1_555
O34A C88A 1_555 1_555
O35A C32A 1_555 1_555
O36A C32A 1_555 1_555
O37A C89A 1_555 1_555
O38A C89A 1_555 1_555
O39A Rh9 1_555 1_555
O40A Rh10 1_555 1_555
O41A Rh11 1_555 1_555
O42A Rh12 1_555 1_555
O43A Rh11 1_555 1_555
O44A Rh12 1_555 1_555
O45A C40A 1_555 1_555
O46A C40A 1_555 1_555
O47A C80A 1_555 1_555
O48A C80A 1_555 1_555
O49A Rh1A 1_555 1_555
O50A Rh2A 1_555 1_555
O51A Rh3A 1_555 1_555
O52A Rh4A 1_555 1_555
O53A Rh5A 1_555 1_555
O54A Rh6A 1_555 1_555
O55A Rh7A 1_555 1_555
O56A Rh8A 1_555 1_555
O57A Rh9A 1_555 1_555
O58A Rh10A 1_555 1_555
O59A Rh11A 1_555 1_555
O60A Rh12A 1_555 1_555
Rh1A O1A 1_555 1_555
Rh2A O2A 1_555 1_555
Rh3A O9A 1_555 1_555
Rh4A O10A 1_555 1_555
Rh5A O17A 1_555 1_555
Rh6A O18A 1_555 1_555
Rh7A O31 1_555 1_555
Rh8A O32 1_555 1_555
Rh9A O39 1_555 1_555
Rh10A O40 1_555 1_555
Rh11A O41 1_555 1_555
Rh12A O42 1_555 1_555
C6 C7 1_555 1_555
C14 C15 1_555 1_555
C22 C23 1_555 1_555
C30 C31 1_555 1_555
C38 C39 1_555 1_555
C46 C47 1_555 1_555
C54 C55 1_555 1_555
C62 C63 1_555 1_555
C70 C71 1_555 1_555
C78 C79 1_555 1_555
C86 C87 1_555 1_555
C94 C95 1_555 1_555
O3 Rh1 1_555 1_555
O4 Rh2 1_555 1_555
O5 Rh1 1_555 1_555
O6 Rh2 1_555 1_555
O7 Rh1 1_555 1_555
O8 Rh2 1_555 1_555
O11 Rh3 1_555 1_555
O12 Rh4 1_555 1_555
O13 Rh3 1_555 1_555
O14 Rh4 1_555 1_555
O15 Rh3 1_555 1_555
O16 Rh4 1_555 1_555
O19 Rh5 1_555 1_555
O20 Rh6 1_555 1_555
O21 Rh5 1_555 1_555
O22 Rh6 1_555 1_555
O23 Rh5 1_555 1_555
O24 Rh6 1_555 1_555
O27 Rh7 1_555 1_555
O28 Rh8 1_555 1_555
O29 Rh7 1_555 1_555
O30 Rh8 1_555 1_555
O35 Rh9 1_555 1_555
O36 Rh10 1_555 1_555
O37 Rh9 1_555 1_555
O38 Rh10 1_555 1_555
O43 Rh11A 1_555 1_555
O44 Rh12A 1_555 1_555
O47 Rh11 1_555 1_555
O48 Rh12 1_555 1_555
Rh1 Rh2 1_555 1_555
Rh3 Rh4 1_555 1_555
Rh5 Rh6 1_555 1_555
Rh7 Rh8 1_555 1_555
Rh9 Rh10 1_555 1_555
Rh11 Rh12 1_555 1_555
C6A C7A 1_555 1_555
C14A C15A 1_555 1_555
C22A C23A 1_555 1_555
C24A O41A 1_555 1_555
C24A O42A 1_555 1_555
C30A C31A 1_555 1_555
C38A C39A 1_555 1_555
C46A C47A 1_555 1_555
C54A C55A 1_555 1_555
C62A C63A 1_555 1_555
C64A O39A 1_555 1_555
C64A O40A 1_555 1_555
C70A C71A 1_555 1_555
C72A O31A 1_555 1_555
C72A O32A 1_555 1_555
C78A C79A 1_555 1_555
C86A C87A 1_555 1_555
C94A C95A 1_555 1_555
C96A O43A 1_555 1_555
C96A O44A 1_555 1_555
O3A Rh1A 1_555 1_555
O4A Rh2A 1_555 1_555
O5A Rh1A 1_555 1_555
O6A Rh2A 1_555 1_555
O7A Rh1A 1_555 1_555
O8A Rh2A 1_555 1_555
O11A Rh3A 1_555 1_555
O12A Rh4A 1_555 1_555
O13A Rh3A 1_555 1_555
O14A Rh4A 1_555 1_555
O15A Rh3A 1_555 1_555
O16A Rh4A 1_555 1_555
O19A Rh5A 1_555 1_555
O20A Rh6A 1_555 1_555
O21A Rh5A 1_555 1_555
O22A Rh6A 1_555 1_555
O23A Rh5A 1_555 1_555
O24A Rh6A 1_555 1_555
O25A Rh7A 1_555 1_555
O26A Rh8A 1_555 1_555
O27A Rh7A 1_555 1_555
O28A Rh8A 1_555 1_555
O29A Rh7A 1_555 1_555
O30A Rh8A 1_555 1_555
O33A Rh9A 1_555 1_555
O34A Rh10A 1_555 1_555
O35A Rh9A 1_555 1_555
O36A Rh10A 1_555 1_555
O37A Rh9A 1_555 1_555
O38A Rh10A 1_555 1_555
O45A Rh11A 1_555 1_555
O46A Rh12A 1_555 1_555
O47A Rh11A 1_555 1_555
O48A Rh12A 1_555 1_555
Rh1A Rh2A 1_555 1_555
Rh3A Rh4A 1_555 1_555
Rh5A Rh6A 1_555 1_555
Rh7A Rh8A 1_555 1_555
Rh9A Rh10A 1_555 1_555
Rh11A Rh12A 1_555 1_555

#END
