
#######################################################################
#
#                 Cambridge Crystallographic Data Centre
#                                CCDC 
#
#######################################################################
#
# If this CIF has been generated from an entry in the Cambridge 
# Structural Database, then it will include bibliographic, chemical, 
# crystal, experimental, refinement or atomic coordinate data resulting 
# from the CCDC's data processing and validation procedures.
#
#######################################################################

data_DANZUP
_chemical_formula_moiety         
'10(Ni1 2+),8(C9 H3 O6 3-),0.71(C44 H36 N8 Ni1 4+),1.16(H3 O1 1+),24(H2 O1)'
_chemical_name_systematic        
'Deca-nickel oxonium octakis(benzene-1,3,5-tricarboxylate) (5,10,15,20-tetrakis(N-methyl-4-pyridinio)porphyrin)-nickel tetracosahydrate'
_symmetry_cell_setting           cubic
_symmetry_space_group_name_H-M   'F m -3 m'
_symmetry_Int_Tables_number      225
_space_group_name_Hall           '-F 4 2 3'
loop_
_symmetry_equiv_pos_site_id
_symmetry_equiv_pos_as_xyz
1 x,y,z
2 -x,-y,z
3 -x,y,-z
4 x,-y,-z
5 z,x,y
6 z,-x,-y
7 -z,-x,y
8 -z,x,-y
9 y,z,x
10 -y,z,-x
11 y,-z,-x
12 -y,-z,x
13 y,x,-z
14 -y,-x,-z
15 y,-x,z
16 -y,x,z
17 x,z,-y
18 -x,z,y
19 -x,-z,-y
20 x,-z,y
21 z,y,-x
22 z,-y,x
23 -z,y,x
24 -z,-y,-x
25 x,1/2+y,1/2+z
26 -x,1/2-y,1/2+z
27 -x,1/2+y,1/2-z
28 x,1/2-y,1/2-z
29 z,1/2+x,1/2+y
30 z,1/2-x,1/2-y
31 -z,1/2-x,1/2+y
32 -z,1/2+x,1/2-y
33 y,1/2+z,1/2+x
34 -y,1/2+z,1/2-x
35 y,1/2-z,1/2-x
36 -y,1/2-z,1/2+x
37 y,1/2+x,1/2-z
38 -y,1/2-x,1/2-z
39 y,1/2-x,1/2+z
40 -y,1/2+x,1/2+z
41 x,1/2+z,1/2-y
42 -x,1/2+z,1/2+y
43 -x,1/2-z,1/2-y
44 x,1/2-z,1/2+y
45 z,1/2+y,1/2-x
46 z,1/2-y,1/2+x
47 -z,1/2+y,1/2+x
48 -z,1/2-y,1/2-x
49 1/2+x,y,1/2+z
50 1/2-x,-y,1/2+z
51 1/2-x,y,1/2-z
52 1/2+x,-y,1/2-z
53 1/2+z,x,1/2+y
54 1/2+z,-x,1/2-y
55 1/2-z,-x,1/2+y
56 1/2-z,x,1/2-y
57 1/2+y,z,1/2+x
58 1/2-y,z,1/2-x
59 1/2+y,-z,1/2-x
60 1/2-y,-z,1/2+x
61 1/2+y,x,1/2-z
62 1/2-y,-x,1/2-z
63 1/2+y,-x,1/2+z
64 1/2-y,x,1/2+z
65 1/2+x,z,1/2-y
66 1/2-x,z,1/2+y
67 1/2-x,-z,1/2-y
68 1/2+x,-z,1/2+y
69 1/2+z,y,1/2-x
70 1/2+z,-y,1/2+x
71 1/2-z,y,1/2+x
72 1/2-z,-y,1/2-x
73 1/2+x,1/2+y,z
74 1/2-x,1/2-y,z
75 1/2-x,1/2+y,-z
76 1/2+x,1/2-y,-z
77 1/2+z,1/2+x,y
78 1/2+z,1/2-x,-y
79 1/2-z,1/2-x,y
80 1/2-z,1/2+x,-y
81 1/2+y,1/2+z,x
82 1/2-y,1/2+z,-x
83 1/2+y,1/2-z,-x
84 1/2-y,1/2-z,x
85 1/2+y,1/2+x,-z
86 1/2-y,1/2-x,-z
87 1/2+y,1/2-x,z
88 1/2-y,1/2+x,z
89 1/2+x,1/2+z,-y
90 1/2-x,1/2+z,y
91 1/2-x,1/2-z,-y
92 1/2+x,1/2-z,y
93 1/2+z,1/2+y,-x
94 1/2+z,1/2-y,x
95 1/2-z,1/2+y,x
96 1/2-z,1/2-y,-x
97 -x,-y,-z
98 x,y,-z
99 x,-y,z
100 -x,y,z
101 -z,-x,-y
102 -z,x,y
103 z,x,-y
104 z,-x,y
105 -y,-z,-x
106 y,-z,x
107 -y,z,x
108 y,z,-x
109 -y,-x,z
110 y,x,z
111 -y,x,-z
112 y,-x,-z
113 -x,-z,y
114 x,-z,-y
115 x,z,y
116 -x,z,-y
117 -z,-y,x
118 -z,y,-x
119 z,-y,-x
120 z,y,x
121 -x,1/2-y,1/2-z
122 x,1/2+y,1/2-z
123 x,1/2-y,1/2+z
124 -x,1/2+y,1/2+z
125 -z,1/2-x,1/2-y
126 -z,1/2+x,1/2+y
127 z,1/2+x,1/2-y
128 z,1/2-x,1/2+y
129 -y,1/2-z,1/2-x
130 y,1/2-z,1/2+x
131 -y,1/2+z,1/2+x
132 y,1/2+z,1/2-x
133 -y,1/2-x,1/2+z
134 y,1/2+x,1/2+z
135 -y,1/2+x,1/2-z
136 y,1/2-x,1/2-z
137 -x,1/2-z,1/2+y
138 x,1/2-z,1/2-y
139 x,1/2+z,1/2+y
140 -x,1/2+z,1/2-y
141 -z,1/2-y,1/2+x
142 -z,1/2+y,1/2-x
143 z,1/2-y,1/2-x
144 z,1/2+y,1/2+x
145 1/2-x,-y,1/2-z
146 1/2+x,y,1/2-z
147 1/2+x,-y,1/2+z
148 1/2-x,y,1/2+z
149 1/2-z,-x,1/2-y
150 1/2-z,x,1/2+y
151 1/2+z,x,1/2-y
152 1/2+z,-x,1/2+y
153 1/2-y,-z,1/2-x
154 1/2+y,-z,1/2+x
155 1/2-y,z,1/2+x
156 1/2+y,z,1/2-x
157 1/2-y,-x,1/2+z
158 1/2+y,x,1/2+z
159 1/2-y,x,1/2-z
160 1/2+y,-x,1/2-z
161 1/2-x,-z,1/2+y
162 1/2+x,-z,1/2-y
163 1/2+x,z,1/2+y
164 1/2-x,z,1/2-y
165 1/2-z,-y,1/2+x
166 1/2-z,y,1/2-x
167 1/2+z,-y,1/2-x
168 1/2+z,y,1/2+x
169 1/2-x,1/2-y,-z
170 1/2+x,1/2+y,-z
171 1/2+x,1/2-y,z
172 1/2-x,1/2+y,z
173 1/2-z,1/2-x,-y
174 1/2-z,1/2+x,y
175 1/2+z,1/2+x,-y
176 1/2+z,1/2-x,y
177 1/2-y,1/2-z,-x
178 1/2+y,1/2-z,x
179 1/2-y,1/2+z,x
180 1/2+y,1/2+z,-x
181 1/2-y,1/2-x,z
182 1/2+y,1/2+x,z
183 1/2-y,1/2+x,-z
184 1/2+y,1/2-x,-z
185 1/2-x,1/2-z,y
186 1/2+x,1/2-z,-y
187 1/2+x,1/2+z,y
188 1/2-x,1/2+z,-y
189 1/2-z,1/2-y,x
190 1/2-z,1/2+y,-x
191 1/2+z,1/2-y,-x
192 1/2+z,1/2+y,x
_cell_length_a                   27.478(2)
_cell_length_b                   27.478(2)
_cell_length_c                   27.478(2)
_cell_angle_alpha                90
_cell_angle_beta                 90
_cell_angle_gamma                90
_cell_volume                     20747
_exptl_crystal_colour            red
_exptl_crystal_description       octahedron
_cell_formula_units_Z            4
loop_
_atom_site_label
_atom_site_type_symbol
_atom_site_fract_x
_atom_site_fract_y
_atom_site_fract_z
Ni3 Ni -0.5000 -0.5000 0.5000
O6 O -0.323(6) -0.177(6) 0.323(6)
Ni1 Ni -0.2500 -0.2500 0.5000
Ni2 Ni -0.3718(3) -0.2114(3) 0.5000
O1 O -0.438(3) -0.236(3) 0.5000
O2 O -0.3993(15) -0.1672(15) 0.4517(16)
O3 O -0.28707(18) -0.28707(18) 0.4477(2)
O4 O -0.3546(5) -0.2519(6) 0.4389(5)
O5 O -0.19634(19) -0.30366(19) 0.5000
C1 C -0.3758(8) -0.3070(9) 0.3546(6)
H1 H -0.3635 -0.2811 0.3969
C2 C -0.3344(6) -0.3161(8) 0.3855(10)
C3 C -0.3249(6) -0.2843(6) 0.4285(5)
O7 O -0.431(3) -0.288(3) 0.5000
Ni1G Ni -0.5000 -0.2500 0.2500
Ni1J Ni -0.2500 -0.5000 0.2500
Ni1H Ni -0.2500 -0.5000 0.7500
Ni1D Ni -0.5000 -0.2500 0.7500
Ni1ZA Ni 0.0000 -0.2500 0.2500
Ni1FA Ni -0.2500 0.0000 0.2500
Ni1HA Ni -0.2500 0.0000 0.7500
Ni1CB Ni 0.0000 -0.2500 0.7500
Ni1I Ni -0.7500 -0.5000 0.2500
Ni1B Ni -0.7500 -0.2500 0.5000
Ni1AA Ni -0.2500 -0.2500 0.0000
Ni1IA Ni -0.7500 0.0000 0.2500
Ni1Y Ni -0.7500 -0.2500 0.0000
Ni1C Ni -0.2500 -0.7500 0.5000
Ni1E Ni -0.5000 -0.7500 0.2500
Ni2L Ni -0.2114(3) -0.3718(3) 0.5000
Ni2G Ni -0.5000 -0.3718(3) 0.2114(3)
Ni2T Ni -0.5000 -0.2114(3) 0.3718(3)
Ni2J Ni -0.2114(3) -0.5000 0.3718(3)
Ni2P Ni -0.3718(3) -0.5000 0.2114(3)
Ni2S Ni -0.3718(3) -0.5000 0.7886(3)
Ni2H Ni -0.2114(3) -0.5000 0.6282(3)
Ni2V Ni -0.5000 -0.2114(3) 0.6282(3)
Ni2D Ni -0.5000 -0.3718(3) 0.7886(3)
Ni2UB Ni -0.1282(3) -0.2886(3) 0.5000
Ni2GC Ni -0.2886(3) -0.1282(3) 0.5000
Ni2YB Ni 0.0000 -0.1282(3) 0.2114(3)
Ni2QC Ni 0.0000 -0.2886(3) 0.3718(3)
Ni2CC Ni -0.2886(3) 0.0000 0.3718(3)
Ni2LC Ni -0.1282(3) 0.0000 0.2114(3)
Ni2KC Ni -0.1282(3) 0.0000 0.7886(3)
Ni2EC Ni -0.2886(3) 0.0000 0.6282(3)
Ni2OC Ni 0.0000 -0.2886(3) 0.6282(3)
Ni2ZB Ni 0.0000 -0.1282(3) 0.7886(3)
Ni2I Ni -0.7886(3) -0.5000 0.3718(3)
Ni2R Ni -0.6282(3) -0.5000 0.2114(3)
Ni2B Ni -0.6282(3) -0.2114(3) 0.5000
Ni2O Ni -0.7886(3) -0.3718(3) 0.5000
Ni2SA Ni -0.5000 -0.2886(3) 0.1282(3)
Ni2DA Ni -0.5000 -0.1282(3) 0.2886(3)
Ni2LA Ni -0.2114(3) -0.1282(3) 0.0000
Ni2AA Ni -0.3718(3) -0.2886(3) 0.0000
Ni2QA Ni -0.3718(3) 0.0000 0.2886(3)
Ni2FA Ni -0.2114(3) 0.0000 0.1282(3)
Ni2IA Ni -0.7886(3) 0.0000 0.1282(3)
Ni2OA Ni -0.6282(3) 0.0000 0.2886(3)
Ni2Y Ni -0.6282(3) -0.2886(3) 0.0000
Ni2KA Ni -0.7886(3) -0.1282(3) 0.0000
Ni2C Ni -0.3718(3) -0.7886(3) 0.5000
Ni2N Ni -0.2114(3) -0.6282(3) 0.5000
Ni2E Ni -0.5000 -0.6282(3) 0.2114(3)
Ni2W Ni -0.5000 -0.7886(3) 0.3718(3)
Ni2MB Ni -0.1282(3) -0.5000 0.2886(3)
Ni2GB Ni -0.2886(3) -0.5000 0.1282(3)
Ni2EB Ni -0.2886(3) -0.5000 0.8718(3)
Ni2NB Ni -0.1282(3) -0.5000 0.7114(3)
Ni2CA Ni -0.5000 -0.1282(3) 0.7114(3)
Ni2UA Ni -0.5000 -0.2886(3) 0.8718(3)
Ni2RB Ni 0.0000 -0.2114(3) 0.1282(3)
Ni2ZA Ni 0.0000 -0.3718(3) 0.2886(3)
O1L O -0.236(3) -0.438(3) 0.5000
O1G O -0.5000 -0.438(3) 0.236(3)
O1T O -0.5000 -0.236(3) 0.438(3)
O1J O -0.236(3) -0.5000 0.438(3)
O1P O -0.438(3) -0.5000 0.236(3)
O1S O -0.438(3) -0.5000 0.764(3)
O1H O -0.236(3) -0.5000 0.562(3)
O1V O -0.5000 -0.236(3) 0.562(3)
O1D O -0.5000 -0.438(3) 0.764(3)
O1UB O -0.062(3) -0.264(3) 0.5000
O1GC O -0.264(3) -0.062(3) 0.5000
O1YB O 0.0000 -0.062(3) 0.236(3)
O1QC O 0.0000 -0.264(3) 0.438(3)
O1CC O -0.264(3) 0.0000 0.438(3)
O1LC O -0.062(3) 0.0000 0.236(3)
O1KC O -0.062(3) 0.0000 0.764(3)
O1EC O -0.264(3) 0.0000 0.562(3)
O1OC O 0.0000 -0.264(3) 0.562(3)
O1ZB O 0.0000 -0.062(3) 0.764(3)
O1I O -0.764(3) -0.5000 0.438(3)
O1R O -0.562(3) -0.5000 0.236(3)
O1B O -0.562(3) -0.236(3) 0.5000
O1O O -0.764(3) -0.438(3) 0.5000
O2SC O -0.3993(15) -0.1672(15) 0.5483(16)
O2ED O -0.1672(15) -0.3993(15) 0.4517(16)
O2L O -0.1672(15) -0.3993(15) 0.5483(16)
O2G O -0.4517(16) -0.3993(15) 0.1672(15)
O2XC O -0.5483(16) -0.3993(15) 0.1672(15)
O2MD O -0.4517(16) -0.1672(15) 0.3993(15)
O2T O -0.5483(16) -0.1672(15) 0.3993(15)
O2J O -0.1672(15) -0.4517(16) 0.3993(15)
O2CD O -0.1672(15) -0.5483(16) 0.3993(15)
O2ID O -0.3993(15) -0.4517(16) 0.1672(15)
O2P O -0.3993(15) -0.5483(16) 0.1672(15)
O2S O -0.3993(15) -0.4517(16) 0.8328(15)
O2JD O -0.3993(15) -0.5483(16) 0.8328(15)
O2AD O -0.1672(15) -0.4517(16) 0.6007(15)
O2H O -0.1672(15) -0.5483(16) 0.6007(15)
O2V O -0.4517(16) -0.1672(15) 0.6007(15)
O2OD O -0.5483(16) -0.1672(15) 0.6007(15)
O2WC O -0.4517(16) -0.3993(15) 0.8328(15)
O2D O -0.5483(16) -0.3993(15) 0.8328(15)
O2UB O -0.1007(15) -0.3328(15) 0.4517(16)
O2LF O -0.1007(15) -0.3328(15) 0.5483(16)
O2XF O -0.3328(15) -0.1007(15) 0.4517(16)
O2GC O -0.3328(15) -0.1007(15) 0.5483(16)
O2YB O -0.0483(16) -0.1007(15) 0.1672(15)
O2PF O 0.0483(16) -0.1007(15) 0.1672(15)
O2HG O -0.0483(16) -0.3328(15) 0.3993(15)
O2QC O 0.0483(16) -0.3328(15) 0.3993(15)
O2CC O -0.3328(15) -0.0483(16) 0.3993(15)
O2TF O -0.3328(15) 0.0483(16) 0.3993(15)
O2EG O -0.1007(15) -0.0483(16) 0.1672(15)
O2LC O -0.1007(15) 0.0483(16) 0.1672(15)
O2KC O -0.1007(15) -0.0483(16) 0.8328(15)
O2BG O -0.1007(15) 0.0483(16) 0.8328(15)
O2VF O -0.3328(15) -0.0483(16) 0.6007(15)
O2EC O -0.3328(15) 0.0483(16) 0.6007(15)
O2OC O -0.0483(16) -0.3328(15) 0.6007(15)
O2FG O 0.0483(16) -0.3328(15) 0.6007(15)
O2SF O -0.0483(16) -0.1007(15) 0.8328(15)
O2ZB O 0.0483(16) -0.1007(15) 0.8328(15)
O2ZC O -0.8328(15) -0.4517(16) 0.3993(15)
O2I O -0.8328(15) -0.5483(16) 0.3993(15)
O2R O -0.6007(15) -0.4517(16) 0.1672(15)
O2KD O -0.6007(15) -0.5483(16) 0.1672(15)
O2UC O -0.6007(15) -0.1672(15) 0.4517(16)
O2B O -0.6007(15) -0.1672(15) 0.5483(16)
O2O O -0.8328(15) -0.3993(15) 0.4517(16)
O2FD O -0.8328(15) -0.3993(15) 0.5483(16)
O3G O -0.4477(2) -0.28707(18) 0.28707(18)
O3J O -0.28707(18) -0.4477(2) 0.28707(18)
O3L O -0.28707(18) -0.28707(18) 0.5523(2)
O3S O -0.28707(18) -0.4477(2) 0.71293(18)
O3V O -0.4477(2) -0.28707(18) 0.71293(18)
O3UB O -0.21293(18) -0.21293(18) 0.4477(2)
O3YB O -0.0523(2) -0.21293(18) 0.28707(18)
O3CC O -0.21293(18) -0.0523(2) 0.28707(18)
O3GC O -0.21293(18) -0.21293(18) 0.5523(2)
O3KC O -0.21293(18) -0.0523(2) 0.71293(18)
O3OC O -0.0523(2) -0.21293(18) 0.71293(18)
O3T O -0.5523(2) -0.28707(18) 0.28707(18)
O3R O -0.71293(18) -0.4477(2) 0.28707(18)
O3O O -0.71293(18) -0.28707(18) 0.4477(2)
O3DA O -0.4477(2) -0.21293(18) 0.21293(18)
O3AA O -0.28707(18) -0.21293(18) 0.0523(2)
O3FA O -0.28707(18) -0.0523(2) 0.21293(18)
O3SA O -0.5523(2) -0.21293(18) 0.21293(18)
O3OA O -0.71293(18) -0.0523(2) 0.21293(18)
O3KA O -0.71293(18) -0.21293(18) 0.0523(2)
O3P O -0.28707(18) -0.5523(2) 0.28707(18)
O3N O -0.28707(18) -0.71293(18) 0.4477(2)
O3W O -0.4477(2) -0.71293(18) 0.28707(18)
O3GB O -0.21293(18) -0.4477(2) 0.21293(18)
O3MB O -0.21293(18) -0.5523(2) 0.21293(18)
O3H O -0.28707(18) -0.5523(2) 0.71293(18)
O3NB O -0.21293(18) -0.4477(2) 0.78707(18)
O3EB O -0.21293(18) -0.5523(2) 0.78707(18)
O3D O -0.5523(2) -0.28707(18) 0.71293(18)
O3UA O -0.4477(2) -0.21293(18) 0.78707(18)
O3CA O -0.5523(2) -0.21293(18) 0.78707(18)
O3QC O 0.0523(2) -0.21293(18) 0.28707(18)
O3ZA O -0.0523(2) -0.28707(18) 0.21293(18)
O3RB O 0.0523(2) -0.28707(18) 0.21293(18)
O4ED O -0.2519(6) -0.3546(5) 0.4389(5)
O4G O -0.4389(5) -0.3546(5) 0.2519(6)
O4MD O -0.4389(5) -0.2519(6) 0.3546(5)
O4J O -0.2519(6) -0.4389(5) 0.3546(5)
O4ID O -0.3546(5) -0.4389(5) 0.2519(6)
O4L O -0.2519(6) -0.3546(5) 0.5611(5)
O4SC O -0.3546(5) -0.2519(6) 0.5611(5)
O4S O -0.3546(5) -0.4389(5) 0.7481(6)
O4AD O -0.2519(6) -0.4389(5) 0.6454(5)
O4V O -0.4389(5) -0.2519(6) 0.6454(5)
O4WC O -0.4389(5) -0.3546(5) 0.7481(6)
O4UB O -0.1454(5) -0.2481(6) 0.4389(5)
O4XF O -0.2481(6) -0.1454(5) 0.4389(5)
O4YB O -0.0611(5) -0.1454(5) 0.2519(6)
O4HG O -0.0611(5) -0.2481(6) 0.3546(5)
O4CC O -0.2481(6) -0.0611(5) 0.3546(5)
O4EG O -0.1454(5) -0.0611(5) 0.2519(6)
O4GC O -0.2481(6) -0.1454(5) 0.5611(5)
O4LF O -0.1454(5) -0.2481(6) 0.5611(5)
O4KC O -0.1454(5) -0.0611(5) 0.7481(6)
O4VF O -0.2481(6) -0.0611(5) 0.6454(5)
O4OC O -0.0611(5) -0.2481(6) 0.6454(5)
O4SF O -0.0611(5) -0.1454(5) 0.7481(6)
O4XC O -0.5611(5) -0.3546(5) 0.2519(6)
O4T O -0.5611(5) -0.2519(6) 0.3546(5)
O4ZC O -0.7481(6) -0.4389(5) 0.3546(5)
O4R O -0.6454(5) -0.4389(5) 0.2519(6)
O4UC O -0.6454(5) -0.2519(6) 0.4389(5)
O4O O -0.7481(6) -0.3546(5) 0.4389(5)
O4JE O -0.4389(5) -0.2481(6) 0.1454(5)
O4DA O -0.4389(5) -0.1454(5) 0.2481(6)
O4EE O -0.2519(6) -0.1454(5) 0.0611(5)
O4AA O -0.3546(5) -0.2481(6) 0.0611(5)
O4HE O -0.3546(5) -0.0611(5) 0.2481(6)
O4FA O -0.2519(6) -0.0611(5) 0.1454(5)
O4WD O -0.5611(5) -0.1454(5) 0.2481(6)
O4SA O -0.5611(5) -0.2481(6) 0.1454(5)
O4ZD O -0.7481(6) -0.0611(5) 0.1454(5)
O4OA O -0.6454(5) -0.0611(5) 0.2481(6)
O4PD O -0.6454(5) -0.2481(6) 0.0611(5)
O4KA O -0.7481(6) -0.1454(5) 0.0611(5)
O4CD O -0.2519(6) -0.5611(5) 0.3546(5)
O4P O -0.3546(5) -0.5611(5) 0.2519(6)
O4TC O -0.3546(5) -0.7481(6) 0.4389(5)
O4N O -0.2519(6) -0.6454(5) 0.4389(5)
O4VC O -0.4389(5) -0.6454(5) 0.2519(6)
O4W O -0.4389(5) -0.7481(6) 0.3546(5)
O4JD O -0.3546(5) -0.5611(5) 0.7481(6)
O4H O -0.2519(6) -0.5611(5) 0.6454(5)
O4OD O -0.5611(5) -0.2519(6) 0.6454(5)
O4D O -0.5611(5) -0.3546(5) 0.7481(6)
O4PF O 0.0611(5) -0.1454(5) 0.2519(6)
O4QC O 0.0611(5) -0.2481(6) 0.3546(5)
O4TF O -0.2481(6) 0.0611(5) 0.3546(5)
O4LC O -0.1454(5) 0.0611(5) 0.2519(6)
O4BG O -0.1454(5) 0.0611(5) 0.7481(6)
O4EC O -0.2481(6) 0.0611(5) 0.6454(5)
O4FG O 0.0611(5) -0.2481(6) 0.6454(5)
O4ZB O 0.0611(5) -0.1454(5) 0.7481(6)
O4I O -0.7481(6) -0.5611(5) 0.3546(5)
O4KD O -0.6454(5) -0.5611(5) 0.2519(6)
O4B O -0.6454(5) -0.2519(6) 0.5611(5)
O4FD O -0.7481(6) -0.3546(5) 0.5611(5)
O5L O -0.30366(19) -0.19634(19) 0.5000
O5T O -0.5000 -0.30366(19) 0.19634(19)
O5G O -0.5000 -0.19634(19) 0.30366(19)
O5P O -0.19634(19) -0.5000 0.30366(19)
O5J O -0.30366(19) -0.5000 0.19634(19)
O5H O -0.30366(19) -0.5000 0.80366(19)
O5S O -0.19634(19) -0.5000 0.69634(19)
O5D O -0.5000 -0.19634(19) 0.69634(19)
O5V O -0.5000 -0.30366(19) 0.80366(19)
O5ZA O 0.0000 -0.19634(19) 0.19634(19)
O5RB O 0.0000 -0.30366(19) 0.30366(19)
O5FA O -0.30366(19) 0.0000 0.30366(19)
O5QA O -0.19634(19) 0.0000 0.19634(19)
O5NA O -0.19634(19) 0.0000 0.80366(19)
O5HA O -0.30366(19) 0.0000 0.69634(19)
O5PB O 0.0000 -0.30366(19) 0.69634(19)
O5CB O 0.0000 -0.19634(19) 0.80366(19)
O5R O -0.80366(19) -0.5000 0.30366(19)
O5I O -0.69634(19) -0.5000 0.19634(19)
O5O O -0.69634(19) -0.19634(19) 0.5000
O5B O -0.80366(19) -0.30366(19) 0.5000
C1MD C -0.3546(6) -0.3070(9) 0.3758(8)
C1J C -0.3070(9) -0.3546(6) 0.3758(8)
C1ED C -0.3070(9) -0.3758(8) 0.3546(6)
C1ID C -0.3758(8) -0.3546(6) 0.3070(9)
C1G C -0.3546(6) -0.3758(8) 0.3070(9)
C1L C -0.3070(9) -0.3758(8) 0.6454(6)
C1AD C -0.3070(9) -0.3546(6) 0.6242(8)
C1V C -0.3546(6) -0.3070(9) 0.6242(8)
C1SC C -0.3758(8) -0.3070(9) 0.6454(6)
C1WC C -0.3546(6) -0.3758(8) 0.6930(9)
C1S C -0.3758(8) -0.3546(6) 0.6930(9)
C1UB C -0.1242(8) -0.1930(9) 0.3546(6)
C1HG C -0.1454(6) -0.1930(9) 0.3758(8)
C1CC C -0.1930(9) -0.1454(6) 0.3758(8)
C1XF C -0.1930(9) -0.1242(8) 0.3546(6)
C1EG C -0.1242(8) -0.1454(6) 0.3070(9)
C1YB C -0.1454(6) -0.1242(8) 0.3070(9)
C1GC C -0.1930(9) -0.1242(8) 0.6454(6)
C1VF C -0.1930(9) -0.1454(6) 0.6242(8)
C1OC C -0.1454(6) -0.1930(9) 0.6242(8)
C1LF C -0.1242(8) -0.1930(9) 0.6454(6)
C1SF C -0.1454(6) -0.1242(8) 0.6930(9)
C1KC C -0.1242(8) -0.1454(6) 0.6930(9)
C1XC C -0.6454(6) -0.3758(8) 0.3070(9)
C1R C -0.6242(8) -0.3546(6) 0.3070(9)
C1UC C -0.6242(8) -0.3070(9) 0.3546(6)
C1T C -0.6454(6) -0.3070(9) 0.3758(8)
C1O C -0.6930(9) -0.3758(8) 0.3546(6)
C1ZC C -0.6930(9) -0.3546(6) 0.3758(8)
C1JE C -0.3546(6) -0.1930(9) 0.1242(8)
C1AA C -0.3758(8) -0.1930(9) 0.1454(6)
C1HE C -0.3758(8) -0.1454(6) 0.1930(9)
C1DA C -0.3546(6) -0.1242(8) 0.1930(9)
C1FA C -0.3070(9) -0.1454(6) 0.1242(8)
C1EE C -0.3070(9) -0.1242(8) 0.1454(6)
C1WD C -0.6454(6) -0.1242(8) 0.1930(9)
C1OA C -0.6242(8) -0.1454(6) 0.1930(9)
C1PD C -0.6242(8) -0.1930(9) 0.1454(6)
C1SA C -0.6454(6) -0.1930(9) 0.1242(8)
C1KA C -0.6930(9) -0.1242(8) 0.1454(6)
C1ZD C -0.6930(9) -0.1454(6) 0.1242(8)
C1CD C -0.3070(9) -0.6454(6) 0.3758(8)
C1N C -0.3070(9) -0.6242(8) 0.3546(6)
C1VC C -0.3546(6) -0.6242(8) 0.3070(9)
C1P C -0.3758(8) -0.6454(6) 0.3070(9)
C1W C -0.3546(6) -0.6930(9) 0.3758(8)
C1TC C -0.3758(8) -0.6930(9) 0.3546(6)
H1J H -0.2811 -0.3969 0.3635
H1ED H -0.2811 -0.3635 0.3969
H1ID H -0.3635 -0.3969 0.2811
H1MD H -0.3969 -0.2811 0.3635
H1G H -0.3969 -0.3635 0.2811
H1L H -0.2811 -0.3635 0.6031
H1V H -0.3969 -0.2811 0.6365
H1SC H -0.3635 -0.2811 0.6031
H1WC H -0.3969 -0.3635 0.7189
H1AD H -0.2811 -0.3969 0.6365
H1S H -0.3635 -0.3969 0.7189
H1UB H -0.1365 -0.2189 0.3969
H1CC H -0.2189 -0.1031 0.3635
H1XF H -0.2189 -0.1365 0.3969
H1EG H -0.1365 -0.1031 0.2811
H1HG H -0.1031 -0.2189 0.3635
H1YB H -0.1031 -0.1365 0.2811
H1GC H -0.2189 -0.1365 0.6031
H1OC H -0.1031 -0.2189 0.6365
H1LF H -0.1365 -0.2189 0.6031
H1SF H -0.1031 -0.1365 0.7189
H1VF H -0.2189 -0.1031 0.6365
H1KC H -0.1365 -0.1031 0.7189
H1XC H -0.6031 -0.3635 0.2811
H1UC H -0.6365 -0.2811 0.3969
H1T H -0.6031 -0.2811 0.3635
H1O H -0.7189 -0.3635 0.3969
H1R H -0.6365 -0.3969 0.2811
H1ZC H -0.7189 -0.3969 0.3635
H1JE H -0.3969 -0.2189 0.1365
H1HE H -0.3635 -0.1031 0.2189
H1DA H -0.3969 -0.1365 0.2189
H1FA H -0.2811 -0.1031 0.1365
H1AA H -0.3635 -0.2189 0.1031
H1EE H -0.2811 -0.1365 0.1031
H1WD H -0.6031 -0.1365 0.2189
H1PD H -0.6365 -0.2189 0.1031
H1SA H -0.6031 -0.2189 0.1365
H1KA H -0.7189 -0.1365 0.1031
H1OA H -0.6365 -0.1031 0.2189
H1ZD H -0.7189 -0.1031 0.1365
H1CD H -0.2811 -0.6031 0.3635
H1VC H -0.3969 -0.6365 0.2811
H1P H -0.3635 -0.6031 0.2811
H1W H -0.3969 -0.7189 0.3635
H1N H -0.2811 -0.6365 0.3969
H1TC H -0.3635 -0.7189 0.3969
C2J C -0.3161(8) -0.3855(10) 0.3344(6)
C2ED C -0.3161(8) -0.3344(6) 0.3855(10)
C2ID C -0.3344(6) -0.3855(10) 0.3161(8)
C2G C -0.3855(10) -0.3344(6) 0.3161(8)
C2MD C -0.3855(10) -0.3161(8) 0.3344(6)
C2L C -0.3161(8) -0.3344(6) 0.6145(10)
C2V C -0.3855(10) -0.3161(8) 0.6656(6)
C2SC C -0.3344(6) -0.3161(8) 0.6145(10)
C2WC C -0.3855(10) -0.3344(6) 0.6839(8)
C2S C -0.3344(6) -0.3855(10) 0.6839(8)
C2AD C -0.3161(8) -0.3855(10) 0.6656(6)
C2UB C -0.1656(6) -0.1839(8) 0.3855(10)
C2CC C -0.1839(8) -0.1145(10) 0.3344(6)
C2XF C -0.1839(8) -0.1656(6) 0.3855(10)
C2EG C -0.1656(6) -0.1145(10) 0.3161(8)
C2YB C -0.1145(10) -0.1656(6) 0.3161(8)
C2HG C -0.1145(10) -0.1839(8) 0.3344(6)
C2GC C -0.1839(8) -0.1656(6) 0.6145(10)
C2OC C -0.1145(10) -0.1839(8) 0.6656(6)
C2LF C -0.1656(6) -0.1839(8) 0.6145(10)
C2SF C -0.1145(10) -0.1656(6) 0.6839(8)
C2KC C -0.1656(6) -0.1145(10) 0.6839(8)
C2VF C -0.1839(8) -0.1145(10) 0.6656(6)
C2XC C -0.6145(10) -0.3344(6) 0.3161(8)
C2UC C -0.6656(6) -0.3161(8) 0.3855(10)
C2T C -0.6145(10) -0.3161(8) 0.3344(6)
C2O C -0.6839(8) -0.3344(6) 0.3855(10)
C2ZC C -0.6839(8) -0.3855(10) 0.3344(6)
C2R C -0.6656(6) -0.3855(10) 0.3161(8)
C2JE C -0.3855(10) -0.1839(8) 0.1656(6)
C2HE C -0.3344(6) -0.1145(10) 0.1839(8)
C2DA C -0.3855(10) -0.1656(6) 0.1839(8)
C2FA C -0.3161(8) -0.1145(10) 0.1656(6)
C2EE C -0.3161(8) -0.1656(6) 0.1145(10)
C2AA C -0.3344(6) -0.1839(8) 0.1145(10)
C2WD C -0.6145(10) -0.1656(6) 0.1839(8)
C2PD C -0.6656(6) -0.1839(8) 0.1145(10)
C2SA C -0.6145(10) -0.1839(8) 0.1656(6)
C2KA C -0.6839(8) -0.1656(6) 0.1145(10)
C2ZD C -0.6839(8) -0.1145(10) 0.1656(6)
C2OA C -0.6656(6) -0.1145(10) 0.1839(8)
C2CD C -0.3161(8) -0.6145(10) 0.3344(6)
C2VC C -0.3855(10) -0.6656(6) 0.3161(8)
C2P C -0.3344(6) -0.6145(10) 0.3161(8)
C2W C -0.3855(10) -0.6839(8) 0.3344(6)
C2TC C -0.3344(6) -0.6839(8) 0.3855(10)
C2N C -0.3161(8) -0.6656(6) 0.3855(10)
C3ED C -0.2843(6) -0.3249(6) 0.4285(5)
C3MD C -0.4285(5) -0.2843(6) 0.3249(6)
C3G C -0.4285(5) -0.3249(6) 0.2843(6)
C3ID C -0.3249(6) -0.4285(5) 0.2843(6)
C3J C -0.2843(6) -0.4285(5) 0.3249(6)
C3L C -0.2843(6) -0.3249(6) 0.5715(5)
C3SC C -0.3249(6) -0.2843(6) 0.5715(5)
C3AD C -0.2843(6) -0.4285(5) 0.6751(6)
C3S C -0.3249(6) -0.4285(5) 0.7157(6)
C3WC C -0.4285(5) -0.3249(6) 0.7157(6)
C3V C -0.4285(5) -0.2843(6) 0.6751(6)
C3UB C -0.1751(6) -0.2157(6) 0.4285(5)
C3XF C -0.2157(6) -0.1751(6) 0.4285(5)
C3HG C -0.0715(5) -0.2157(6) 0.3249(6)
C3YB C -0.0715(5) -0.1751(6) 0.2843(6)
C3EG C -0.1751(6) -0.0715(5) 0.2843(6)
C3CC C -0.2157(6) -0.0715(5) 0.3249(6)
C3GC C -0.2157(6) -0.1751(6) 0.5715(5)
C3LF C -0.1751(6) -0.2157(6) 0.5715(5)
C3VF C -0.2157(6) -0.0715(5) 0.6751(6)
C3KC C -0.1751(6) -0.0715(5) 0.7157(6)
C3SF C -0.0715(5) -0.1751(6) 0.7157(6)
C3OC C -0.0715(5) -0.2157(6) 0.6751(6)
C3XC C -0.5715(5) -0.3249(6) 0.2843(6)
C3T C -0.5715(5) -0.2843(6) 0.3249(6)
C3R C -0.6751(6) -0.4285(5) 0.2843(6)
C3ZC C -0.7157(6) -0.4285(5) 0.3249(6)
C3O C -0.7157(6) -0.3249(6) 0.4285(5)
C3UC C -0.6751(6) -0.2843(6) 0.4285(5)
C3JE C -0.4285(5) -0.2157(6) 0.1751(6)
C3DA C -0.4285(5) -0.1751(6) 0.2157(6)
C3AA C -0.3249(6) -0.2157(6) 0.0715(5)
C3EE C -0.2843(6) -0.1751(6) 0.0715(5)
C3FA C -0.2843(6) -0.0715(5) 0.1751(6)
C3HE C -0.3249(6) -0.0715(5) 0.2157(6)
C3WD C -0.5715(5) -0.1751(6) 0.2157(6)
C3SA C -0.5715(5) -0.2157(6) 0.1751(6)
C3OA C -0.6751(6) -0.0715(5) 0.2157(6)
C3ZD C -0.7157(6) -0.0715(5) 0.1751(6)
C3KA C -0.7157(6) -0.1751(6) 0.0715(5)
C3PD C -0.6751(6) -0.2157(6) 0.0715(5)
C3CD C -0.2843(6) -0.5715(5) 0.3249(6)
C3P C -0.3249(6) -0.5715(5) 0.2843(6)
C3N C -0.2843(6) -0.6751(6) 0.4285(5)
C3TC C -0.3249(6) -0.7157(6) 0.4285(5)
C3W C -0.4285(5) -0.7157(6) 0.3249(6)
C3VC C -0.4285(5) -0.6751(6) 0.2843(6)
O7L O -0.288(3) -0.431(3) 0.5000
O7G O -0.5000 -0.431(3) 0.288(3)
O7T O -0.5000 -0.288(3) 0.431(3)
O7J O -0.288(3) -0.5000 0.431(3)
O7P O -0.431(3) -0.5000 0.288(3)
O7S O -0.431(3) -0.5000 0.712(3)
O7H O -0.288(3) -0.5000 0.569(3)
O7V O -0.5000 -0.288(3) 0.569(3)
O7D O -0.5000 -0.431(3) 0.712(3)
O7UB O -0.069(3) -0.212(3) 0.5000
O7GC O -0.212(3) -0.069(3) 0.5000
O7YB O 0.0000 -0.069(3) 0.288(3)
O7QC O 0.0000 -0.212(3) 0.431(3)
O7CC O -0.212(3) 0.0000 0.431(3)
O7LC O -0.069(3) 0.0000 0.288(3)
O7KC O -0.069(3) 0.0000 0.712(3)
O7EC O -0.212(3) 0.0000 0.569(3)
O7OC O 0.0000 -0.212(3) 0.569(3)
O7ZB O 0.0000 -0.069(3) 0.712(3)
O7I O -0.712(3) -0.5000 0.431(3)
O7R O -0.569(3) -0.5000 0.288(3)
O7B O -0.569(3) -0.288(3) 0.5000
O7O O -0.712(3) -0.431(3) 0.5000
loop_
_geom_bond_atom_site_label_1
_geom_bond_atom_site_label_2
_geom_bond_site_symmetry_1
_geom_bond_site_symmetry_2
Ni1 O3 1_555 1_555
Ni2 O1 1_555 1_555
O1 O7 1_555 1_555
O2 Ni2 1_555 1_555
O3 C3 1_555 1_555
O4 Ni2 1_555 1_555
O5 Ni1 1_555 1_555
C1 C2 1_555 1_555
H1 C2 1_555 1_555
C2 C3 1_555 1_555
C3 O4 1_555 1_555
Ni1G O3G 1_555 1_555
Ni1J O3J 1_555 1_555
Ni1H O3S 1_555 1_555
Ni1D O3V 1_555 1_555
Ni1ZA O3YB 1_555 1_555
Ni1FA O3CC 1_555 1_555
Ni1HA O3KC 1_555 1_555
Ni1CB O3OC 1_555 1_555
Ni1I O3R 1_555 1_555
Ni1B O3O 1_555 1_555
Ni1AA O3AA 1_555 1_555
Ni1IA O3OA 1_555 1_555
Ni1Y O3KA 1_555 1_555
Ni1C O3N 1_555 1_555
Ni1E O3W 1_555 1_555
Ni2L O5 1_555 1_555
Ni2G O1G 1_555 1_555
Ni2T O1T 1_555 1_555
Ni2J O1J 1_555 1_555
Ni2P O1P 1_555 1_555
Ni2S O1S 1_555 1_555
Ni2H O1H 1_555 1_555
Ni2V O1V 1_555 1_555
Ni2D O1D 1_555 1_555
Ni2UB O5 1_555 1_555
Ni2GC O1GC 1_555 1_555
Ni2YB O1YB 1_555 1_555
Ni2QC O1QC 1_555 1_555
Ni2CC O1CC 1_555 1_555
Ni2LC O1LC 1_555 1_555
Ni2KC O1KC 1_555 1_555
Ni2EC O1EC 1_555 1_555
Ni2OC O1OC 1_555 1_555
Ni2ZB O1ZB 1_555 1_555
Ni2I O1I 1_555 1_555
Ni2R O1R 1_555 1_555
Ni2B O1B 1_555 1_555
Ni2O O1O 1_555 1_555
Ni2SA O4JE 1_555 1_555
Ni2DA O4DA 1_555 1_555
Ni2LA O4EE 1_555 1_555
Ni2AA O4AA 1_555 1_555
Ni2QA O4HE 1_555 1_555
Ni2FA O4FA 1_555 1_555
Ni2IA O4ZD 1_555 1_555
Ni2OA O4OA 1_555 1_555
Ni2Y O4PD 1_555 1_555
Ni2KA O4KA 1_555 1_555
Ni2C O4TC 1_555 1_555
Ni2N O4N 1_555 1_555
Ni2E O4VC 1_555 1_555
Ni2W O4W 1_555 1_555
Ni2MB O5P 1_555 1_555
Ni2GB O5J 1_555 1_555
Ni2EB O5H 1_555 1_555
Ni2NB O5S 1_555 1_555
Ni2CA O5D 1_555 1_555
Ni2UA O5V 1_555 1_555
Ni2RB O5ZA 1_555 1_555
Ni2ZA O5RB 1_555 1_555
O1L Ni2L 1_555 1_555
O1G O7G 1_555 1_555
O1T O7T 1_555 1_555
O1J O7J 1_555 1_555
O1P O7P 1_555 1_555
O1S O7S 1_555 1_555
O1H O7H 1_555 1_555
O1V O7V 1_555 1_555
O1D O7D 1_555 1_555
O1UB Ni2UB 1_555 1_555
O1GC O7GC 1_555 1_555
O1YB O7YB 1_555 1_555
O1QC O7QC 1_555 1_555
O1CC O7CC 1_555 1_555
O1LC O7LC 1_555 1_555
O1KC O7KC 1_555 1_555
O1EC O7EC 1_555 1_555
O1OC O7OC 1_555 1_555
O1ZB O7ZB 1_555 1_555
O1I O7I 1_555 1_555
O1R O7R 1_555 1_555
O1B O7B 1_555 1_555
O1O O7O 1_555 1_555
O2SC Ni2 1_555 1_555
O2ED Ni2L 1_555 1_555
O2L Ni2L 1_555 1_555
O2G Ni2G 1_555 1_555
O2XC Ni2G 1_555 1_555
O2MD Ni2T 1_555 1_555
O2T Ni2T 1_555 1_555
O2J Ni2J 1_555 1_555
O2CD Ni2J 1_555 1_555
O2ID Ni2P 1_555 1_555
O2P Ni2P 1_555 1_555
O2S Ni2S 1_555 1_555
O2JD Ni2S 1_555 1_555
O2AD Ni2H 1_555 1_555
O2H Ni2H 1_555 1_555
O2V Ni2V 1_555 1_555
O2OD Ni2V 1_555 1_555
O2WC Ni2D 1_555 1_555
O2D Ni2D 1_555 1_555
O2UB Ni2UB 1_555 1_555
O2LF Ni2UB 1_555 1_555
O2XF Ni2GC 1_555 1_555
O2GC Ni2GC 1_555 1_555
O2YB Ni2YB 1_555 1_555
O2PF Ni2YB 1_555 1_555
O2HG Ni2QC 1_555 1_555
O2QC Ni2QC 1_555 1_555
O2CC Ni2CC 1_555 1_555
O2TF Ni2CC 1_555 1_555
O2EG Ni2LC 1_555 1_555
O2LC Ni2LC 1_555 1_555
O2KC Ni2KC 1_555 1_555
O2BG Ni2KC 1_555 1_555
O2VF Ni2EC 1_555 1_555
O2EC Ni2EC 1_555 1_555
O2OC Ni2OC 1_555 1_555
O2FG Ni2OC 1_555 1_555
O2SF Ni2ZB 1_555 1_555
O2ZB Ni2ZB 1_555 1_555
O2ZC Ni2I 1_555 1_555
O2I Ni2I 1_555 1_555
O2R Ni2R 1_555 1_555
O2KD Ni2R 1_555 1_555
O2UC Ni2B 1_555 1_555
O2B Ni2B 1_555 1_555
O2O Ni2O 1_555 1_555
O2FD Ni2O 1_555 1_555
O3G C3MD 1_555 1_555
O3J C3ID 1_555 1_555
O3L Ni1 1_555 1_555
O3S C3AD 1_555 1_555
O3V C3WC 1_555 1_555
O3UB Ni1 1_555 1_555
O3YB C3HG 1_555 1_555
O3CC C3EG 1_555 1_555
O3GC Ni1 1_555 1_555
O3KC C3VF 1_555 1_555
O3OC C3SF 1_555 1_555
O3T Ni1G 1_555 1_555
O3R C3R 1_555 1_555
O3O C3O 1_555 1_555
O3DA Ni1G 1_555 1_555
O3AA C3AA 1_555 1_555
O3FA Ni1FA 1_555 1_555
O3SA Ni1G 1_555 1_555
O3OA C3OA 1_555 1_555
O3KA C3KA 1_555 1_555
O3P Ni1J 1_555 1_555
O3N C3N 1_555 1_555
O3W C3W 1_555 1_555
O3GB Ni1J 1_555 1_555
O3MB Ni1J 1_555 1_555
O3H Ni1H 1_555 1_555
O3NB Ni1H 1_555 1_555
O3EB Ni1H 1_555 1_555
O3D Ni1D 1_555 1_555
O3UA Ni1D 1_555 1_555
O3CA Ni1D 1_555 1_555
O3QC Ni1ZA 1_555 1_555
O3ZA Ni1ZA 1_555 1_555
O3RB Ni1ZA 1_555 1_555
O4ED Ni2L 1_555 1_555
O4G Ni2G 1_555 1_555
O4MD Ni2T 1_555 1_555
O4J Ni2J 1_555 1_555
O4ID Ni2P 1_555 1_555
O4L Ni2L 1_555 1_555
O4SC Ni2 1_555 1_555
O4S Ni2S 1_555 1_555
O4AD Ni2H 1_555 1_555
O4V Ni2V 1_555 1_555
O4WC Ni2D 1_555 1_555
O4UB Ni2UB 1_555 1_555
O4XF Ni2GC 1_555 1_555
O4YB Ni2YB 1_555 1_555
O4HG Ni2QC 1_555 1_555
O4CC Ni2CC 1_555 1_555
O4EG Ni2LC 1_555 1_555
O4GC Ni2GC 1_555 1_555
O4LF Ni2UB 1_555 1_555
O4KC Ni2KC 1_555 1_555
O4VF Ni2EC 1_555 1_555
O4OC Ni2OC 1_555 1_555
O4SF Ni2ZB 1_555 1_555
O4XC Ni2G 1_555 1_555
O4T Ni2T 1_555 1_555
O4ZC Ni2I 1_555 1_555
O4R Ni2R 1_555 1_555
O4UC Ni2B 1_555 1_555
O4O Ni2O 1_555 1_555
O4JE C3JE 1_555 1_555
O4DA C3DA 1_555 1_555
O4EE C3EE 1_555 1_555
O4AA C3AA 1_555 1_555
O4HE C3HE 1_555 1_555
O4FA C3FA 1_555 1_555
O4WD Ni2DA 1_555 1_555
O4SA Ni2SA 1_555 1_555
O4ZD C3ZD 1_555 1_555
O4OA C3OA 1_555 1_555
O4PD C3PD 1_555 1_555
O4KA C3KA 1_555 1_555
O4CD Ni2J 1_555 1_555
O4P Ni2P 1_555 1_555
O4TC C3TC 1_555 1_555
O4N C3N 1_555 1_555
O4VC C3VC 1_555 1_555
O4W C3W 1_555 1_555
O4JD Ni2S 1_555 1_555
O4H Ni2H 1_555 1_555
O4OD Ni2V 1_555 1_555
O4D Ni2D 1_555 1_555
O4PF Ni2YB 1_555 1_555
O4QC Ni2QC 1_555 1_555
O4TF Ni2CC 1_555 1_555
O4LC Ni2LC 1_555 1_555
O4BG Ni2KC 1_555 1_555
O4EC Ni2EC 1_555 1_555
O4FG Ni2OC 1_555 1_555
O4ZB Ni2ZB 1_555 1_555
O4I Ni2I 1_555 1_555
O4KD Ni2R 1_555 1_555
O4B Ni2B 1_555 1_555
O4FD Ni2O 1_555 1_555
O5L Ni1 1_555 1_555
O5T Ni1G 1_555 1_555
O5G Ni1G 1_555 1_555
O5P Ni1J 1_555 1_555
O5J Ni1J 1_555 1_555
O5H Ni1H 1_555 1_555
O5S Ni1H 1_555 1_555
O5D Ni1D 1_555 1_555
O5V Ni1D 1_555 1_555
O5ZA Ni1ZA 1_555 1_555
O5RB Ni1ZA 1_555 1_555
O5FA Ni1FA 1_555 1_555
O5QA Ni1FA 1_555 1_555
O5NA Ni1HA 1_555 1_555
O5HA Ni1HA 1_555 1_555
O5PB Ni1CB 1_555 1_555
O5CB Ni1CB 1_555 1_555
O5R Ni1I 1_555 1_555
O5I Ni1I 1_555 1_555
O5O Ni1B 1_555 1_555
O5B Ni1B 1_555 1_555
C1MD C1 1_555 1_555
C1J C2 1_555 1_555
C1ED C1J 1_555 1_555
C1ID C1G 1_555 1_555
C1G H1ID 1_555 1_555
C1L C1AD 1_555 1_555
C1AD H1L 1_555 1_555
C1V C1SC 1_555 1_555
C1SC H1V 1_555 1_555
C1WC C1S 1_555 1_555
C1S H1WC 1_555 1_555
C1UB C1HG 1_555 1_555
C1HG H1UB 1_555 1_555
C1CC C1XF 1_555 1_555
C1XF H1CC 1_555 1_555
C1EG C1YB 1_555 1_555
C1YB H1EG 1_555 1_555
C1GC C1VF 1_555 1_555
C1VF H1GC 1_555 1_555
C1OC C1LF 1_555 1_555
C1LF H1OC 1_555 1_555
C1SF C1KC 1_555 1_555
C1KC H1SF 1_555 1_555
C1XC C1R 1_555 1_555
C1R H1XC 1_555 1_555
C1UC C1T 1_555 1_555
C1T H1UC 1_555 1_555
C1O C1ZC 1_555 1_555
C1ZC H1O 1_555 1_555
C1JE C1AA 1_555 1_555
C1AA H1JE 1_555 1_555
C1HE C1DA 1_555 1_555
C1DA H1HE 1_555 1_555
C1FA C1EE 1_555 1_555
C1EE H1FA 1_555 1_555
C1WD C1OA 1_555 1_555
C1OA H1WD 1_555 1_555
C1PD C1SA 1_555 1_555
C1SA H1PD 1_555 1_555
C1KA C1ZD 1_555 1_555
C1ZD H1KA 1_555 1_555
C1CD C1N 1_555 1_555
C1N H1CD 1_555 1_555
C1VC C1P 1_555 1_555
C1P H1VC 1_555 1_555
C1W C1TC 1_555 1_555
C1TC H1W 1_555 1_555
H1J C1ED 1_555 1_555
H1ED C1J 1_555 1_555
H1ID C2ID 1_555 1_555
H1MD C1 1_555 1_555
H1G C1ID 1_555 1_555
H1L C2L 1_555 1_555
H1V C2V 1_555 1_555
H1SC C1V 1_555 1_555
H1WC C2WC 1_555 1_555
H1AD C1L 1_555 1_555
H1S C1WC 1_555 1_555
H1UB C2UB 1_555 1_555
H1CC C2CC 1_555 1_555
H1XF C1CC 1_555 1_555
H1EG C2EG 1_555 1_555
H1HG C1UB 1_555 1_555
H1YB C1EG 1_555 1_555
H1GC C2GC 1_555 1_555
H1OC C2OC 1_555 1_555
H1LF C1OC 1_555 1_555
H1SF C2SF 1_555 1_555
H1VF C1GC 1_555 1_555
H1KC C1SF 1_555 1_555
H1XC C2XC 1_555 1_555
H1UC C2UC 1_555 1_555
H1T C1UC 1_555 1_555
H1O C2O 1_555 1_555
H1R C1XC 1_555 1_555
H1ZC C1O 1_555 1_555
H1JE C2JE 1_555 1_555
H1HE C2HE 1_555 1_555
H1DA C1HE 1_555 1_555
H1FA C2FA 1_555 1_555
H1AA C1JE 1_555 1_555
H1EE C1FA 1_555 1_555
H1WD C2WD 1_555 1_555
H1PD C2PD 1_555 1_555
H1SA C1PD 1_555 1_555
H1KA C2KA 1_555 1_555
H1OA C1WD 1_555 1_555
H1ZD C1KA 1_555 1_555
H1CD C2CD 1_555 1_555
H1VC C2VC 1_555 1_555
H1P C1VC 1_555 1_555
H1W C2W 1_555 1_555
H1N C1CD 1_555 1_555
H1TC C1W 1_555 1_555
C2J C1J 1_555 1_555
C2ED C2 1_555 1_555
C2ID C1ED 1_555 1_555
C2G C1 1_555 1_555
C2MD C1 1_555 1_555
C2L C1L 1_555 1_555
C2V C1V 1_555 1_555
C2SC C1AD 1_555 1_555
C2WC C1SC 1_555 1_555
C2S C1L 1_555 1_555
C2AD C1L 1_555 1_555
C2UB C1UB 1_555 1_555
C2CC C1CC 1_555 1_555
C2XF C1HG 1_555 1_555
C2EG C1XF 1_555 1_555
C2YB C1UB 1_555 1_555
C2HG C1UB 1_555 1_555
C2GC C1GC 1_555 1_555
C2OC C1OC 1_555 1_555
C2LF C1VF 1_555 1_555
C2SF C1LF 1_555 1_555
C2KC C1GC 1_555 1_555
C2VF C1GC 1_555 1_555
C2XC C1XC 1_555 1_555
C2UC C1UC 1_555 1_555
C2T C1R 1_555 1_555
C2O C1T 1_555 1_555
C2ZC C1XC 1_555 1_555
C2R C1XC 1_555 1_555
C2JE C1JE 1_555 1_555
C2HE C1HE 1_555 1_555
C2DA C1AA 1_555 1_555
C2FA C1DA 1_555 1_555
C2EE C1JE 1_555 1_555
C2AA C1JE 1_555 1_555
C2WD C1WD 1_555 1_555
C2PD C1PD 1_555 1_555
C2SA C1OA 1_555 1_555
C2KA C1SA 1_555 1_555
C2ZD C1WD 1_555 1_555
C2OA C1WD 1_555 1_555
C2CD C1CD 1_555 1_555
C2VC C1VC 1_555 1_555
C2P C1N 1_555 1_555
C2W C1P 1_555 1_555
C2TC C1CD 1_555 1_555
C2N C1CD 1_555 1_555
C3ED O3 1_555 1_555
C3MD O4MD 1_555 1_555
C3G O3G 1_555 1_555
C3ID O4ID 1_555 1_555
C3J O3J 1_555 1_555
C3L O3L 1_555 1_555
C3SC O3L 1_555 1_555
C3AD O4AD 1_555 1_555
C3S O3S 1_555 1_555
C3WC O4WC 1_555 1_555
C3V O3V 1_555 1_555
C3UB O3UB 1_555 1_555
C3XF O3UB 1_555 1_555
C3HG O4HG 1_555 1_555
C3YB O3YB 1_555 1_555
C3EG O4EG 1_555 1_555
C3CC O3CC 1_555 1_555
C3GC O3GC 1_555 1_555
C3LF O3GC 1_555 1_555
C3VF O4VF 1_555 1_555
C3KC O3KC 1_555 1_555
C3SF O4SF 1_555 1_555
C3OC O3OC 1_555 1_555
C3XC O3T 1_555 1_555
C3T O3T 1_555 1_555
C3R O4R 1_555 1_555
C3ZC O3R 1_555 1_555
C3O O4O 1_555 1_555
C3UC O3O 1_555 1_555
C3JE O3DA 1_555 1_555
C3DA O3DA 1_555 1_555
C3AA C2AA 1_555 1_555
C3EE O3AA 1_555 1_555
C3FA O3FA 1_555 1_555
C3HE O3FA 1_555 1_555
C3WD O3SA 1_555 1_555
C3SA O3SA 1_555 1_555
C3OA C2OA 1_555 1_555
C3ZD O3OA 1_555 1_555
C3KA C2KA 1_555 1_555
C3PD O3KA 1_555 1_555
C3CD O3P 1_555 1_555
C3P O3P 1_555 1_555
C3N C2N 1_555 1_555
C3TC O3N 1_555 1_555
C3W C2W 1_555 1_555
C3VC O3W 1_555 1_555
O7L O1L 1_555 1_555
O7UB O1UB 1_555 1_555
Ni2 O5L 1_555 1_555
H1 C1MD 1_555 1_555
C2 C1MD 1_555 1_555
C3 C3ED 1_555 1_555
Ni2G O5T 1_555 1_555
Ni2T O5G 1_555 1_555
Ni2J O5P 1_555 1_555
Ni2P O5J 1_555 1_555
Ni2S O5H 1_555 1_555
Ni2H O5S 1_555 1_555
Ni2V O5D 1_555 1_555
Ni2D O5V 1_555 1_555
Ni2GC O5L 1_555 1_555
Ni2YB O5ZA 1_555 1_555
Ni2QC O5RB 1_555 1_555
Ni2CC O5FA 1_555 1_555
Ni2LC O5QA 1_555 1_555
Ni2KC O5NA 1_555 1_555
Ni2EC O5HA 1_555 1_555
Ni2OC O5PB 1_555 1_555
Ni2ZB O5CB 1_555 1_555
Ni2I O5R 1_555 1_555
Ni2R O5I 1_555 1_555
Ni2B O5O 1_555 1_555
Ni2O O5B 1_555 1_555
Ni2SA O5T 1_555 1_555
Ni2DA O5G 1_555 1_555
Ni2QA O5FA 1_555 1_555
Ni2FA O5QA 1_555 1_555
O4ED C3ED 1_555 1_555
O4G C3G 1_555 1_555
O4J C3J 1_555 1_555
O4L C3L 1_555 1_555
O4SC C3SC 1_555 1_555
O4S C3S 1_555 1_555
O4V C3V 1_555 1_555
O4UB C3UB 1_555 1_555
O4XF C3XF 1_555 1_555
O4YB C3YB 1_555 1_555
O4CC C3CC 1_555 1_555
O4GC C3GC 1_555 1_555
O4LF C3LF 1_555 1_555
O4KC C3KC 1_555 1_555
O4OC C3OC 1_555 1_555
O4XC C3XC 1_555 1_555
O4T C3T 1_555 1_555
O4ZC C3ZC 1_555 1_555
O4UC C3UC 1_555 1_555
O4WD C3WD 1_555 1_555
O4SA C3SA 1_555 1_555
O4CD C3CD 1_555 1_555
O4P C3P 1_555 1_555
C1MD C2ED 1_555 1_555
C1MD C2MD 1_555 1_555
C1J C2ED 1_555 1_555
C1ED C2J 1_555 1_555
C1ED C2ED 1_555 1_555
C1ID C2ID 1_555 1_555
C1ID C2G 1_555 1_555
C1ID C2MD 1_555 1_555
C1G C2J 1_555 1_555
C1G C2ID 1_555 1_555
C1G C2G 1_555 1_555
C1AD C2L 1_555 1_555
C1AD C2AD 1_555 1_555
C1V C2L 1_555 1_555
C1V C2SC 1_555 1_555
C1SC C2V 1_555 1_555
C1SC C2SC 1_555 1_555
C1WC C2WC 1_555 1_555
C1WC C2S 1_555 1_555
C1WC C2AD 1_555 1_555
C1S C2V 1_555 1_555
C1S C2WC 1_555 1_555
C1S C2S 1_555 1_555
C1HG C2UB 1_555 1_555
C1HG C2HG 1_555 1_555
C1CC C2UB 1_555 1_555
C1CC C2XF 1_555 1_555
C1XF C2CC 1_555 1_555
C1XF C2XF 1_555 1_555
C1EG C2EG 1_555 1_555
C1EG C2YB 1_555 1_555
C1EG C2HG 1_555 1_555
C1YB C2CC 1_555 1_555
C1YB C2EG 1_555 1_555
C1YB C2YB 1_555 1_555
C1VF C2GC 1_555 1_555
C1VF C2VF 1_555 1_555
C1OC C2GC 1_555 1_555
C1OC C2LF 1_555 1_555
C1LF C2OC 1_555 1_555
C1LF C2LF 1_555 1_555
C1SF C2SF 1_555 1_555
C1SF C2KC 1_555 1_555
C1SF C2VF 1_555 1_555
C1KC C2OC 1_555 1_555
C1KC C2SF 1_555 1_555
C1KC C2KC 1_555 1_555
C1R C2XC 1_555 1_555
C1R C2R 1_555 1_555
C1UC C2XC 1_555 1_555
C1UC C2T 1_555 1_555
C1T C2UC 1_555 1_555
C1T C2T 1_555 1_555
C1O C2O 1_555 1_555
C1O C2ZC 1_555 1_555
C1O C2R 1_555 1_555
C1ZC C2UC 1_555 1_555
C1ZC C2O 1_555 1_555
C1ZC C2ZC 1_555 1_555
C1AA C2JE 1_555 1_555
C1AA C2AA 1_555 1_555
C1HE C2JE 1_555 1_555
C1HE C2DA 1_555 1_555
C1DA C2HE 1_555 1_555
C1DA C2DA 1_555 1_555
C1FA C2FA 1_555 1_555
C1FA C2EE 1_555 1_555
C1FA C2AA 1_555 1_555
C1EE C2HE 1_555 1_555
C1EE C2FA 1_555 1_555
C1EE C2EE 1_555 1_555
C1OA C2WD 1_555 1_555
C1OA C2OA 1_555 1_555
C1PD C2WD 1_555 1_555
C1PD C2SA 1_555 1_555
C1SA C2PD 1_555 1_555
C1SA C2SA 1_555 1_555
C1KA C2KA 1_555 1_555
C1KA C2ZD 1_555 1_555
C1KA C2OA 1_555 1_555
C1ZD C2PD 1_555 1_555
C1ZD C2KA 1_555 1_555
C1ZD C2ZD 1_555 1_555
C1N C2CD 1_555 1_555
C1N C2N 1_555 1_555
C1VC C2CD 1_555 1_555
C1VC C2P 1_555 1_555
C1P C2VC 1_555 1_555
C1P C2P 1_555 1_555
C1W C2W 1_555 1_555
C1W C2TC 1_555 1_555
C1W C2N 1_555 1_555
C1TC C2VC 1_555 1_555
C1TC C2W 1_555 1_555
C1TC C2TC 1_555 1_555
H1J C2J 1_555 1_555
H1ED C2ED 1_555 1_555
H1MD C2MD 1_555 1_555
H1G C2G 1_555 1_555
H1SC C2SC 1_555 1_555
H1AD C2AD 1_555 1_555
H1S C2S 1_555 1_555
H1XF C2XF 1_555 1_555
H1HG C2HG 1_555 1_555
H1YB C2YB 1_555 1_555
H1LF C2LF 1_555 1_555
H1VF C2VF 1_555 1_555
H1KC C2KC 1_555 1_555
H1T C2T 1_555 1_555
H1R C2R 1_555 1_555
H1ZC C2ZC 1_555 1_555
H1DA C2DA 1_555 1_555
H1AA C2AA 1_555 1_555
H1EE C2EE 1_555 1_555
H1SA C2SA 1_555 1_555
H1OA C2OA 1_555 1_555
H1ZD C2ZD 1_555 1_555
H1P C2P 1_555 1_555
H1N C2N 1_555 1_555
H1TC C2TC 1_555 1_555
C2J C2ID 1_555 1_555
C2J C3J 1_555 1_555
C2ED C3ED 1_555 1_555
C2ID C3ID 1_555 1_555
C2G C2MD 1_555 1_555
C2G C3G 1_555 1_555
C2MD C3MD 1_555 1_555
C2L C2SC 1_555 1_555
C2L C3L 1_555 1_555
C2V C2WC 1_555 1_555
C2V C3V 1_555 1_555
C2SC C3SC 1_555 1_555
C2WC C3WC 1_555 1_555
C2S C2AD 1_555 1_555
C2S C3S 1_555 1_555
C2AD C3AD 1_555 1_555
C2UB C2XF 1_555 1_555
C2UB C3UB 1_555 1_555
C2CC C2EG 1_555 1_555
C2CC C3CC 1_555 1_555
C2XF C3XF 1_555 1_555
C2EG C3EG 1_555 1_555
C2YB C2HG 1_555 1_555
C2YB C3YB 1_555 1_555
C2HG C3HG 1_555 1_555
C2GC C2LF 1_555 1_555
C2GC C3GC 1_555 1_555
C2OC C2SF 1_555 1_555
C2OC C3OC 1_555 1_555
C2LF C3LF 1_555 1_555
C2SF C3SF 1_555 1_555
C2KC C2VF 1_555 1_555
C2KC C3KC 1_555 1_555
C2VF C3VF 1_555 1_555
C2XC C2T 1_555 1_555
C2XC C3XC 1_555 1_555
C2UC C2O 1_555 1_555
C2UC C3UC 1_555 1_555
C2T C3T 1_555 1_555
C2O C3O 1_555 1_555
C2ZC C2R 1_555 1_555
C2ZC C3ZC 1_555 1_555
C2R C3R 1_555 1_555
C2JE C2DA 1_555 1_555
C2JE C3JE 1_555 1_555
C2HE C2FA 1_555 1_555
C2HE C3HE 1_555 1_555
C2DA C3DA 1_555 1_555
C2FA C3FA 1_555 1_555
C2EE C2AA 1_555 1_555
C2EE C3EE 1_555 1_555
C2WD C2SA 1_555 1_555
C2WD C3WD 1_555 1_555
C2PD C2KA 1_555 1_555
C2PD C3PD 1_555 1_555
C2SA C3SA 1_555 1_555
C2ZD C2OA 1_555 1_555
C2ZD C3ZD 1_555 1_555
C2CD C2P 1_555 1_555
C2CD C3CD 1_555 1_555
C2VC C2W 1_555 1_555
C2VC C3VC 1_555 1_555
C2P C3P 1_555 1_555
C2TC C2N 1_555 1_555
C2TC C3TC 1_555 1_555
C3MD C3G 1_555 1_555
C3ID C3J 1_555 1_555
C3L C3SC 1_555 1_555
C3AD C3S 1_555 1_555
C3WC C3V 1_555 1_555
C3UB C3XF 1_555 1_555
C3HG C3YB 1_555 1_555
C3EG C3CC 1_555 1_555
C3GC C3LF 1_555 1_555
C3VF C3KC 1_555 1_555
C3SF C3OC 1_555 1_555
C3XC C3T 1_555 1_555
C3R C3ZC 1_555 1_555
C3O C3UC 1_555 1_555
C3JE C3DA 1_555 1_555
C3AA C3EE 1_555 1_555
C3FA C3HE 1_555 1_555
C3WD C3SA 1_555 1_555
C3OA C3ZD 1_555 1_555
C3KA C3PD 1_555 1_555
C3CD C3P 1_555 1_555
C3N C3TC 1_555 1_555
C3W C3VC 1_555 1_555

#END
