
#######################################################################
#
#                 Cambridge Crystallographic Data Centre
#                                CCDC 
#
#######################################################################
#
# If this CIF has been generated from an entry in the Cambridge 
# Structural Database, then it will include bibliographic, chemical, 
# crystal, experimental, refinement or atomic coordinate data resulting 
# from the CCDC's data processing and validation procedures.
#
#######################################################################

data_DAPBAZ
_chemical_formula_moiety         
'18(Zn1 2+),12(C9 H3 O6 3-),0.66(C44 H36 N8 Zn1 4+),1.36(H3 O1 1+),15(H2 O1),4(H1 O1 1-)'
_chemical_name_systematic        
'Octadeca-zinc oxonium dodecakis(benzene-1,3,5-tricarboxylate) (5,10,15,20-tetrakis(N-methyl-4-pyridinio)porphyrin)-zinc tetrahydroxide pentadecahydrate'
_symmetry_cell_setting           orthorhombic
_symmetry_space_group_name_H-M   'C m m m'
_symmetry_Int_Tables_number      65
_space_group_name_Hall           '-C 2 2'
loop_
_symmetry_equiv_pos_site_id
_symmetry_equiv_pos_as_xyz
1 x,y,z
2 -x,-y,z
3 -x,y,-z
4 x,-y,-z
5 1/2+x,1/2+y,z
6 1/2-x,1/2-y,z
7 1/2-x,1/2+y,-z
8 1/2+x,1/2-y,-z
9 -x,-y,-z
10 x,y,-z
11 x,-y,z
12 -x,y,z
13 1/2-x,1/2-y,-z
14 1/2+x,1/2+y,-z
15 1/2+x,1/2-y,z
16 1/2-x,1/2+y,z
_cell_length_a                   19.653(3)
_cell_length_b                   44.127(6)
_cell_length_c                   14.543(2)
_cell_angle_alpha                90
_cell_angle_beta                 90
_cell_angle_gamma                90
_cell_volume                     12612.1
_exptl_crystal_description       block
_cell_formula_units_Z            2
loop_
_atom_site_label
_atom_site_type_symbol
_atom_site_fract_x
_atom_site_fract_y
_atom_site_fract_z
Zn3 Zn 0.0000 0.0000 0.0000
O10 O 0.0698(14) 0.0437(6) 0.5000
O16 O 0.2639(17) 0.1694(7) 0.5000
Zn1 Zn 0.5000 0.03373(4) 0.0000
Zn2 Zn 0.07455(6) 0.22836(3) 0.0000
Zn4 Zn 0.2585(2) 0.11813(11) 0.3731(4)
Zn8 Zn 0.1679(2) 0.07652(8) 0.5000
O1 O 0.0547(3) 0.19663(16) 0.0963(5)
O2 O 0.1812(4) 0.1371(2) 0.3301(6)
O3 O 0.1246(5) 0.1025(2) 0.4079(7)
O4 O 0.1759(4) 0.2283(2) 0.0000
O5 O 0.5000 0.0791(3) 0.0000
O6 O 0.4303(6) 0.02546(19) 0.0958(6)
O7 O 0.4463(4) 0.24042(14) 0.1027(6)
O8 O 0.2835(7) 0.0817(3) 0.3118(9)
O9 O 0.2140(6) 0.0548(3) 0.3995(7)
O11 O 0.2699(5) 0.1145(4) 0.5000
C1 C 0.0000 0.1873(2) 0.1283(8)
C2 C 0.0000 0.1661(3) 0.2054(10)
C3 C 0.0595(5) 0.1549(2) 0.2451(7)
H1 H 0.1016 0.1624 0.2226
C4 C 0.0614(5) 0.1348(2) 0.3111(8)
C5 C 0.1202(7) 0.1209(3) 0.3492(10)
C6 C 0.4930(11) 0.2084(3) 0.1997(8)
C7 C 0.4298(9) 0.1976(3) 0.2278(10)
H2 H 0.3910 0.2069 0.2012
C8 C 0.4174(8) 0.1746(4) 0.2906(13)
C9 C 0.4663(9) 0.1584(6) 0.3383(19)
H3 H 0.4583 0.1432 0.3833
C10 C 0.4701(9) 0.1686(5) 0.3077(14)
C11 C 0.4603(12) 0.1915(5) 0.2467(15)
H4 H 0.4142 0.1966 0.2351
C12 C 0.3499(5) 0.1636(2) 0.3261(7)
C13 C 0.4095(9) 0.1535(5) 0.3491(15)
O13 O 0.3498(13) 0.1365(4) 0.3548(17)
O14 O 0.3030(9) 0.1832(5) 0.3368(15)
O15 O 0.4063(13) 0.1340(5) 0.4113(14)
C14 C 0.4058(10) 0.0000 0.1154(14)
C15 C 0.3578(10) 0.0000 0.2013(16)
C16 C 0.3351(8) 0.0273(3) 0.2353(10)
H5 H 0.3524 0.0458 0.2117
C17 C 0.2880(9) 0.0273(3) 0.3022(10)
C18 C 0.2671(9) 0.0000 0.3490(13)
H6 H 0.2422 0.0000 0.4050
C19 C 0.0000 0.1263(4) 0.3442(12)
H7 H 0.0000 0.1131 0.3956
C20 C 0.2598(7) 0.0569(4) 0.3422(10)
C21 C 0.5000 0.2319(3) 0.1261(8)
O17 O 0.3673(4) 0.10760(16) 0.4673(4)
Zn1A Zn 0.5000 -0.03373(4) 0.0000
Zn2B Zn -0.07455(6) 0.22836(3) 0.0000
Zn2_2 Zn 0.07455(6) 0.22836(3) 1.0000
Zn2B_2 Zn -0.07455(6) 0.22836(3) 1.0000
Zn2E Zn 0.42545(6) 0.27164(3) 0.0000
Zn2G Zn 0.57455(6) 0.27164(3) 0.0000
Zn2G_2 Zn 0.57455(6) 0.27164(3) 1.0000
Zn2E_2 Zn 0.42545(6) 0.27164(3) 1.0000
Zn2C Zn 0.07455(6) -0.22836(3) 0.0000
Zn2A Zn -0.07455(6) -0.22836(3) 0.0000
Zn2C_2 Zn 0.07455(6) -0.22836(3) 1.0000
Zn2A_2 Zn -0.07455(6) -0.22836(3) 1.0000
Zn2F Zn 0.42545(6) -0.27164(3) 0.0000
Zn2D Zn 0.57455(6) -0.27164(3) 0.0000
Zn2D_2 Zn 0.57455(6) -0.27164(3) 1.0000
Zn2F_2 Zn 0.42545(6) -0.27164(3) 1.0000
Zn4J Zn 0.2585(2) -0.11813(11) 0.3731(4)
Zn4B Zn 0.7415(2) 0.11813(11) -0.3731(4)
Zn4H Zn 0.7415(2) -0.11813(11) -0.3731(4)
Zn4I Zn 0.2585(2) 0.11813(11) -0.3731(4)
Zn4C Zn 0.2585(2) -0.11813(11) -0.3731(4)
Zn4K Zn 0.7415(2) 0.11813(11) 0.3731(4)
Zn4A Zn 0.7415(2) -0.11813(11) 0.3731(4)
Zn4I_2 Zn 0.2585(2) 0.11813(11) 0.6269(4)
Zn4K_2 Zn -0.2585(2) 0.11813(11) 0.3731(4)
Zn4B_2 Zn 0.7415(2) 0.11813(11) 0.6269(4)
Zn4B_3 Zn -0.2585(2) 0.11813(11) 0.6269(4)
Zn4A_2 Zn -0.2585(2) -0.11813(11) 0.3731(4)
Zn4C_2 Zn 0.2585(2) -0.11813(11) 0.6269(4)
Zn4H_2 Zn -0.2585(2) -0.11813(11) 0.6269(4)
Zn4H_3 Zn 0.7415(2) -0.11813(11) 0.6269(4)
Zn4K_3 Zn 0.7415(2) 0.11813(11) -0.6269(4)
Zn4A_3 Zn 0.7415(2) -0.11813(11) -0.6269(4)
Zn8C Zn 0.1679(2) -0.07652(8) 0.5000
Zn8B Zn 0.8321(2) 0.07652(8) -0.5000
Zn8A Zn 0.8321(2) -0.07652(8) -0.5000
Zn8B_2 Zn -0.1679(2) 0.07652(8) 0.5000
Zn8_2 Zn 0.1679(2) 0.07652(8) -0.5000
Zn8C_2 Zn 0.1679(2) -0.07652(8) -0.5000
Zn8B_3 Zn 0.8321(2) 0.07652(8) 0.5000
Zn8A_2 Zn 0.8321(2) -0.07652(8) 0.5000
Zn8A_3 Zn -0.1679(2) -0.07652(8) 0.5000
O1K O -0.0547(3) 0.19663(16) 0.0963(5)
O1I O 0.0547(3) 0.19663(16) 0.9037(5)
O1B O -0.0547(3) 0.19663(16) 0.9037(5)
O1J O 0.0547(3) -0.19663(16) 0.0963(5)
O1A O -0.0547(3) -0.19663(16) 0.0963(5)
O1C O 0.0547(3) -0.19663(16) 0.9037(5)
O1H O -0.0547(3) -0.19663(16) 0.9037(5)
O1I_2 O 0.0547(3) 0.19663(16) -0.0963(5)
O1B_2 O -0.0547(3) 0.19663(16) -0.0963(5)
O1_2 O 0.0547(3) 0.19663(16) 1.0963(5)
O1K_2 O -0.0547(3) 0.19663(16) 1.0963(5)
O2K O -0.1812(4) 0.1371(2) 0.3301(6)
O2I O 0.1812(4) 0.1371(2) 0.6699(6)
O2B O -0.1812(4) 0.1371(2) 0.6699(6)
O2J O 0.1812(4) -0.1371(2) 0.3301(6)
O2A O -0.1812(4) -0.1371(2) 0.3301(6)
O2C O 0.1812(4) -0.1371(2) 0.6699(6)
O2H O -0.1812(4) -0.1371(2) 0.6699(6)
O2B_2 O 0.8188(4) 0.1371(2) -0.3301(6)
O2H_2 O 0.8188(4) -0.1371(2) -0.3301(6)
O2I_2 O 0.1812(4) 0.1371(2) -0.3301(6)
O2C_2 O 0.1812(4) -0.1371(2) -0.3301(6)
O2K_2 O 0.8188(4) 0.1371(2) 0.3301(6)
O2A_2 O 0.8188(4) -0.1371(2) 0.3301(6)
O3K O -0.1246(5) 0.1025(2) 0.4079(7)
O3I O 0.1246(5) 0.1025(2) 0.5921(7)
O3B O -0.1246(5) 0.1025(2) 0.5921(7)
O3J O 0.1246(5) -0.1025(2) 0.4079(7)
O3A O -0.1246(5) -0.1025(2) 0.4079(7)
O3C O 0.1246(5) -0.1025(2) 0.5921(7)
O3H O -0.1246(5) -0.1025(2) 0.5921(7)
O3B_2 O 0.8754(5) 0.1025(2) -0.4079(7)
O3K_2 O 0.8754(5) 0.1025(2) -0.5921(7)
O3H_2 O 0.8754(5) -0.1025(2) -0.4079(7)
O3A_2 O 0.8754(5) -0.1025(2) -0.5921(7)
O4B O -0.1759(4) 0.2283(2) 0.0000
O4_2 O 0.1759(4) 0.2283(2) 1.0000
O4B_2 O -0.1759(4) 0.2283(2) 1.0000
O5A O 0.5000 -0.0791(3) 0.0000
O6J O 0.4303(6) -0.02546(19) 0.0958(6)
O6B O 0.5697(6) 0.02546(19) -0.0958(6)
O6H O 0.5697(6) -0.02546(19) -0.0958(6)
O6I O 0.4303(6) 0.02546(19) -0.0958(6)
O6C O 0.4303(6) -0.02546(19) -0.0958(6)
O6K O 0.5697(6) 0.02546(19) 0.0958(6)
O6A O 0.5697(6) -0.02546(19) 0.0958(6)
O7K O 0.5537(4) 0.24042(14) 0.1027(6)
O7B O 0.5537(4) 0.24042(14) 0.8973(6)
O7I O 0.4463(4) 0.24042(14) 0.8973(6)
O7J O 0.4463(4) -0.24042(14) 0.1027(6)
O7A O 0.5537(4) -0.24042(14) 0.1027(6)
O7H O 0.5537(4) -0.24042(14) 0.8973(6)
O7C O 0.4463(4) -0.24042(14) 0.8973(6)
O7L O 0.0537(4) 0.25958(14) -0.1027(6)
O7E O 0.0537(4) 0.25958(14) 0.1027(6)
O7G O -0.0537(4) 0.25958(14) -0.1027(6)
O7N O -0.0537(4) 0.25958(14) 0.1027(6)
O7E_2 O 0.0537(4) 0.25958(14) 1.1027(6)
O7L_2 O 0.0537(4) 0.25958(14) 0.8973(6)
O7N_2 O -0.0537(4) 0.25958(14) 1.1027(6)
O7G_2 O -0.0537(4) 0.25958(14) 0.8973(6)
O8J O 0.2835(7) -0.0817(3) 0.3118(9)
O8B O 0.7165(7) 0.0817(3) -0.3118(9)
O8H O 0.7165(7) -0.0817(3) -0.3118(9)
O8I O 0.2835(7) 0.0817(3) -0.3118(9)
O8C O 0.2835(7) -0.0817(3) -0.3118(9)
O8K O 0.7165(7) 0.0817(3) 0.3118(9)
O8A O 0.7165(7) -0.0817(3) 0.3118(9)
O9J O 0.2140(6) -0.0548(3) 0.3995(7)
O9B O 0.7860(6) 0.0548(3) -0.3995(7)
O9H O 0.7860(6) -0.0548(3) -0.3995(7)
O9I O 0.2140(6) 0.0548(3) -0.3995(7)
O9C O 0.2140(6) -0.0548(3) -0.3995(7)
O9K O 0.7860(6) 0.0548(3) 0.3995(7)
O9A O 0.7860(6) -0.0548(3) 0.3995(7)
O9I_2 O 0.2140(6) 0.0548(3) 0.6005(7)
O9C_2 O 0.2140(6) -0.0548(3) 0.6005(7)
O9K_2 O 0.7860(6) 0.0548(3) -0.6005(7)
O9A_2 O 0.7860(6) -0.0548(3) -0.6005(7)
O11C O 0.2699(5) -0.1145(4) 0.5000
O11B O 0.7301(5) 0.1145(4) -0.5000
O11A O 0.7301(5) -0.1145(4) -0.5000
O11_2 O 0.2699(5) 0.1145(4) -0.5000
O11C_2 O 0.2699(5) -0.1145(4) -0.5000
O11B_2 O 0.7301(5) 0.1145(4) 0.5000
O11A_2 O 0.7301(5) -0.1145(4) 0.5000
C1B C 0.0000 0.1873(2) 0.8717(8)
C1A C 0.0000 -0.1873(2) 0.1283(8)
C1C C 0.0000 -0.1873(2) 0.8717(8)
C2B C 0.0000 0.1661(3) 0.7946(10)
C2A C 0.0000 -0.1661(3) 0.2054(10)
C2C C 0.0000 -0.1661(3) 0.7946(10)
C3K C -0.0595(5) 0.1549(2) 0.2451(7)
C3I C 0.0595(5) 0.1549(2) 0.7549(7)
C3B C -0.0595(5) 0.1549(2) 0.7549(7)
C3J C 0.0595(5) -0.1549(2) 0.2451(7)
C3A C -0.0595(5) -0.1549(2) 0.2451(7)
C3C C 0.0595(5) -0.1549(2) 0.7549(7)
C3H C -0.0595(5) -0.1549(2) 0.7549(7)
H1K H -0.1016 0.1624 0.2226
H1I H 0.1016 0.1624 0.7774
H1B H -0.1016 0.1624 0.7774
H1J H 0.1016 -0.1624 0.2226
H1A H -0.1016 -0.1624 0.2226
H1C H 0.1016 -0.1624 0.7774
H1H H -0.1016 -0.1624 0.7774
C4K C -0.0614(5) 0.1348(2) 0.3111(8)
C4I C 0.0614(5) 0.1348(2) 0.6889(8)
C4B C -0.0614(5) 0.1348(2) 0.6889(8)
C4J C 0.0614(5) -0.1348(2) 0.3111(8)
C4A C -0.0614(5) -0.1348(2) 0.3111(8)
C4C C 0.0614(5) -0.1348(2) 0.6889(8)
C4H C -0.0614(5) -0.1348(2) 0.6889(8)
C5K C -0.1202(7) 0.1209(3) 0.3492(10)
C5I C 0.1202(7) 0.1209(3) 0.6508(10)
C5B C -0.1202(7) 0.1209(3) 0.6508(10)
C5J C 0.1202(7) -0.1209(3) 0.3492(10)
C5A C -0.1202(7) -0.1209(3) 0.3492(10)
C5C C 0.1202(7) -0.1209(3) 0.6508(10)
C5H C -0.1202(7) -0.1209(3) 0.6508(10)
C6K C 0.5070(11) 0.2084(3) 0.1997(8)
C6I C 0.4930(11) 0.2084(3) 0.8003(8)
C6B C 0.5070(11) 0.2084(3) 0.8003(8)
C6J C 0.4930(11) -0.2084(3) 0.1997(8)
C6A C 0.5070(11) -0.2084(3) 0.1997(8)
C6C C 0.4930(11) -0.2084(3) 0.8003(8)
C6H C 0.5070(11) -0.2084(3) 0.8003(8)
C7K C 0.5702(9) 0.1976(3) 0.2278(10)
C7I C 0.4298(9) 0.1976(3) 0.7722(10)
C7B C 0.5702(9) 0.1976(3) 0.7722(10)
C7J C 0.4298(9) -0.1976(3) 0.2278(10)
C7A C 0.5702(9) -0.1976(3) 0.2278(10)
C7C C 0.4298(9) -0.1976(3) 0.7722(10)
C7H C 0.5702(9) -0.1976(3) 0.7722(10)
H2K H 0.6090 0.2069 0.2012
H2I H 0.3910 0.2069 0.7988
H2B H 0.6090 0.2069 0.7988
H2J H 0.3910 -0.2069 0.2012
H2A H 0.6090 -0.2069 0.2012
H2C H 0.3910 -0.2069 0.7988
H2H H 0.6090 -0.2069 0.7988
C8K C 0.5826(8) 0.1746(4) 0.2906(13)
C8I C 0.4174(8) 0.1746(4) 0.7094(13)
C8B C 0.5826(8) 0.1746(4) 0.7094(13)
C8J C 0.4174(8) -0.1746(4) 0.2906(13)
C8A C 0.5826(8) -0.1746(4) 0.2906(13)
C8C C 0.4174(8) -0.1746(4) 0.7094(13)
C8H C 0.5826(8) -0.1746(4) 0.7094(13)
C9K C 0.5337(9) 0.1584(6) 0.3383(19)
C9I C 0.4663(9) 0.1584(6) 0.6617(19)
C9B C 0.5337(9) 0.1584(6) 0.6617(19)
C9J C 0.4663(9) -0.1584(6) 0.3383(19)
C9A C 0.5337(9) -0.1584(6) 0.3383(19)
C9C C 0.4663(9) -0.1584(6) 0.6617(19)
C9H C 0.5337(9) -0.1584(6) 0.6617(19)
H3K H 0.5417 0.1432 0.3833
H3I H 0.4583 0.1432 0.6167
H3B H 0.5417 0.1432 0.6167
H3J H 0.4583 -0.1432 0.3833
H3A H 0.5417 -0.1432 0.3833
H3C H 0.4583 -0.1432 0.6167
H3H H 0.5417 -0.1432 0.6167
C10K C 0.5299(9) 0.1686(5) 0.3077(14)
C10I C 0.4701(9) 0.1686(5) 0.6923(14)
C10B C 0.5299(9) 0.1686(5) 0.6923(14)
C10J C 0.4701(9) -0.1686(5) 0.3077(14)
C10A C 0.5299(9) -0.1686(5) 0.3077(14)
C10C C 0.4701(9) -0.1686(5) 0.6923(14)
C10H C 0.5299(9) -0.1686(5) 0.6923(14)
C11K C 0.5397(12) 0.1915(5) 0.2467(15)
C11I C 0.4603(12) 0.1915(5) 0.7533(15)
C11B C 0.5397(12) 0.1915(5) 0.7533(15)
C11J C 0.4603(12) -0.1915(5) 0.2467(15)
C11A C 0.5397(12) -0.1915(5) 0.2467(15)
C11C C 0.4603(12) -0.1915(5) 0.7533(15)
C11H C 0.5397(12) -0.1915(5) 0.7533(15)
H4K H 0.5858 0.1966 0.2351
H4I H 0.4142 0.1966 0.7649
H4B H 0.5858 0.1966 0.7649
H4J H 0.4142 -0.1966 0.2351
H4A H 0.5858 -0.1966 0.2351
H4C H 0.4142 -0.1966 0.7649
H4H H 0.5858 -0.1966 0.7649
C12K C 0.6501(5) 0.1636(2) 0.3261(7)
C12B C 0.6501(5) 0.1636(2) 0.6739(7)
C12I C 0.3499(5) 0.1636(2) 0.6739(7)
C12J C 0.3499(5) -0.1636(2) 0.3261(7)
C12A C 0.6501(5) -0.1636(2) 0.3261(7)
C12H C 0.6501(5) -0.1636(2) 0.6739(7)
C12C C 0.3499(5) -0.1636(2) 0.6739(7)
C13K C 0.5905(9) 0.1535(5) 0.3491(15)
C13B C 0.5905(9) 0.1535(5) 0.6509(15)
C13I C 0.4095(9) 0.1535(5) 0.6509(15)
C13J C 0.4095(9) -0.1535(5) 0.3491(15)
C13A C 0.5905(9) -0.1535(5) 0.3491(15)
C13H C 0.5905(9) -0.1535(5) 0.6509(15)
C13C C 0.4095(9) -0.1535(5) 0.6509(15)
O13I O 0.3498(13) 0.1365(4) 0.6452(17)
O13B O 0.6502(13) 0.1365(4) 0.6452(17)
O13K O 0.6502(13) 0.1365(4) 0.3548(17)
O13J O 0.3498(13) -0.1365(4) 0.3548(17)
O13C O 0.3498(13) -0.1365(4) 0.6452(17)
O13H O 0.6502(13) -0.1365(4) 0.6452(17)
O13A O 0.6502(13) -0.1365(4) 0.3548(17)
O13B_2 O 0.6502(13) 0.1365(4) -0.3548(17)
O13H_2 O 0.6502(13) -0.1365(4) -0.3548(17)
O13I_2 O 0.3498(13) 0.1365(4) -0.3548(17)
O13C_2 O 0.3498(13) -0.1365(4) -0.3548(17)
O14K O 0.6970(9) 0.1832(5) 0.3368(15)
O14B O 0.6970(9) 0.1832(5) 0.6632(15)
O14I O 0.3030(9) 0.1832(5) 0.6632(15)
O14J O 0.3030(9) -0.1832(5) 0.3368(15)
O14A O 0.6970(9) -0.1832(5) 0.3368(15)
O14H O 0.6970(9) -0.1832(5) 0.6632(15)
O14C O 0.3030(9) -0.1832(5) 0.6632(15)
O15K O 0.5937(13) 0.1340(5) 0.4113(14)
O15I O 0.4063(13) 0.1340(5) 0.5887(14)
O15B O 0.5937(13) 0.1340(5) 0.5887(14)
O15J O 0.4063(13) -0.1340(5) 0.4113(14)
O15A O 0.5937(13) -0.1340(5) 0.4113(14)
O15C O 0.4063(13) -0.1340(5) 0.5887(14)
O15H O 0.5937(13) -0.1340(5) 0.5887(14)
C14B C 0.5942(10) 0.0000 -0.1154(14)
C14C C 0.4058(10) 0.0000 -0.1154(14)
C14A C 0.5942(10) 0.0000 0.1154(14)
C15B C 0.6422(10) 0.0000 -0.2013(16)
C15C C 0.3578(10) 0.0000 -0.2013(16)
C15A C 0.6422(10) 0.0000 0.2013(16)
C16J C 0.3351(8) -0.0273(3) 0.2353(10)
C16B C 0.6649(8) 0.0273(3) -0.2353(10)
C16H C 0.6649(8) -0.0273(3) -0.2353(10)
C16I C 0.3351(8) 0.0273(3) -0.2353(10)
C16C C 0.3351(8) -0.0273(3) -0.2353(10)
C16K C 0.6649(8) 0.0273(3) 0.2353(10)
C16A C 0.6649(8) -0.0273(3) 0.2353(10)
H5J H 0.3524 -0.0458 0.2117
H5B H 0.6476 0.0458 -0.2117
H5H H 0.6476 -0.0458 -0.2117
H5I H 0.3524 0.0458 -0.2117
H5C H 0.3524 -0.0458 -0.2117
H5K H 0.6476 0.0458 0.2117
H5A H 0.6476 -0.0458 0.2117
C17J C 0.2880(9) -0.0273(3) 0.3022(10)
C17B C 0.7120(9) 0.0273(3) -0.3022(10)
C17H C 0.7120(9) -0.0273(3) -0.3022(10)
C17I C 0.2880(9) 0.0273(3) -0.3022(10)
C17C C 0.2880(9) -0.0273(3) -0.3022(10)
C17K C 0.7120(9) 0.0273(3) 0.3022(10)
C17A C 0.7120(9) -0.0273(3) 0.3022(10)
C18B C 0.7329(9) 0.0000 -0.3490(13)
C18C C 0.2671(9) 0.0000 -0.3490(13)
C18A C 0.7329(9) 0.0000 0.3490(13)
H6B H 0.7578 0.0000 -0.4050
H6C H 0.2422 0.0000 -0.4050
H6A H 0.7578 0.0000 0.4050
C19B C 0.0000 0.1263(4) 0.6558(12)
C19A C 0.0000 -0.1263(4) 0.3442(12)
C19C C 0.0000 -0.1263(4) 0.6558(12)
H7B H 0.0000 0.1131 0.6044
H7A H 0.0000 -0.1131 0.3956
H7C H 0.0000 -0.1131 0.6044
C20J C 0.2598(7) -0.0569(4) 0.3422(10)
C20B C 0.7402(7) 0.0569(4) -0.3422(10)
C20H C 0.7402(7) -0.0569(4) -0.3422(10)
C20I C 0.2598(7) 0.0569(4) -0.3422(10)
C20C C 0.2598(7) -0.0569(4) -0.3422(10)
C20K C 0.7402(7) 0.0569(4) 0.3422(10)
C20A C 0.7402(7) -0.0569(4) 0.3422(10)
C21B C 0.5000 0.2319(3) 0.8739(8)
C21A C 0.5000 -0.2319(3) 0.1261(8)
C21C C 0.5000 -0.2319(3) 0.8739(8)
O17I O 0.3673(4) 0.10760(16) 0.5327(4)
O17B O 0.6327(4) 0.10760(16) 0.5327(4)
O17K O 0.6327(4) 0.10760(16) 0.4673(4)
O17J O 0.3673(4) -0.10760(16) 0.4673(4)
O17C O 0.3673(4) -0.10760(16) 0.5327(4)
O17H O 0.6327(4) -0.10760(16) 0.5327(4)
O17A O 0.6327(4) -0.10760(16) 0.4673(4)
loop_
_geom_bond_atom_site_label_1
_geom_bond_atom_site_label_2
_geom_bond_site_symmetry_1
_geom_bond_site_symmetry_2
Zn1 O5 1_555 1_555
Zn2 O1 1_555 1_555
Zn4 O2 1_555 1_555
Zn8 O3 1_555 1_555
O1 C1 1_555 1_555
O2 C5 1_555 1_555
O3 C5 1_555 1_555
O4 Zn2 1_555 1_555
O6 Zn1 1_555 1_555
O7 C21 1_555 1_555
O8 Zn4 1_555 1_555
O9 Zn8 1_555 1_555
O11 Zn4 1_555 1_555
C1 C2 1_555 1_555
C2 C3 1_555 1_555
C3 H1 1_555 1_555
C4 C3 1_555 1_555
C5 C4 1_555 1_555
C6 C7 1_555 1_555
C7 H2 1_555 1_555
H2 H4 1_555 1_555
C8 C7 1_555 1_555
C9 C8 1_555 1_555
H3 C9 1_555 1_555
C10 C8 1_555 1_555
C11 C6 1_555 1_555
H4 C7 1_555 1_555
C12 C8 1_555 1_555
C13 C8 1_555 1_555
O13 Zn4 1_555 1_555
O14 C12 1_555 1_555
O15 H3 1_555 1_555
C14 O6 1_555 1_555
C15 C14 1_555 1_555
C16 C15 1_555 1_555
H5 C16 1_555 1_555
C17 C16 1_555 1_555
C18 C17 1_555 1_555
H6 C18 1_555 1_555
C19 C4 1_555 1_555
H7 C19 1_555 1_555
C20 O8 1_555 1_555
C21 C6 1_555 1_555
O17 O15 1_555 1_555
Zn1A O5A 1_555 1_555
Zn2B O1K 1_555 1_555
Zn2_2 O1I 1_555 1_555
Zn2B_2 O1B 1_555 1_555
Zn2E O7 1_555 1_555
Zn2G O7K 1_555 1_555
Zn2G_2 O7B 1_555 1_555
Zn2E_2 O7I 1_555 1_555
Zn2C O1J 1_555 1_555
Zn2A O1A 1_555 1_555
Zn2C_2 O1C 1_555 1_555
Zn2A_2 O1H 1_555 1_555
Zn2F O7J 1_555 1_555
Zn2D O7A 1_555 1_555
Zn2D_2 O7H 1_555 1_555
Zn2F_2 O7C 1_555 1_555
Zn4J O2J 1_555 1_555
Zn4B O2B_2 1_555 1_555
Zn4H O2H_2 1_555 1_555
Zn4I O2I_2 1_555 1_555
Zn4C O2C_2 1_555 1_555
Zn4K O2K_2 1_555 1_555
Zn4A O2A_2 1_555 1_555
Zn4I_2 O11 1_555 1_555
Zn4K_2 O2K 1_555 1_555
Zn4B_2 O11B_2 1_555 1_555
Zn4B_3 O2B 1_555 1_555
Zn4A_2 O2A 1_555 1_555
Zn4C_2 O2C 1_555 1_555
Zn4H_2 O2H 1_555 1_555
Zn4H_3 O11A_2 1_555 1_555
Zn4K_3 O11B 1_555 1_555
Zn4A_3 O11A 1_555 1_555
Zn8C O3J 1_555 1_555
Zn8B O3B_2 1_555 1_555
Zn8A O3H_2 1_555 1_555
Zn8B_2 O3K 1_555 1_555
Zn8_2 O9I 1_555 1_555
Zn8C_2 O9C 1_555 1_555
Zn8B_3 O9K 1_555 1_555
Zn8A_2 O9A 1_555 1_555
Zn8A_3 O3A 1_555 1_555
O1K C1 1_555 1_555
O1I C1B 1_555 1_555
O1B C1B 1_555 1_555
O1J C1A 1_555 1_555
O1A C1A 1_555 1_555
O1C C1C 1_555 1_555
O1H C1C 1_555 1_555
O1I_2 Zn2 1_555 1_555
O1B_2 Zn2B 1_555 1_555
O1_2 Zn2_2 1_555 1_555
O1K_2 Zn2B_2 1_555 1_555
O2K C5K 1_555 1_555
O2I Zn4I_2 1_555 1_555
O2B C5B 1_555 1_555
O2J C5J 1_555 1_555
O2A C5A 1_555 1_555
O2C C5C 1_555 1_555
O2H C5H 1_555 1_555
O3K C5K 1_555 1_555
O3I Zn8 1_555 1_555
O3B Zn8B_2 1_555 1_555
O3J C5J 1_555 1_555
O3A C5A 1_555 1_555
O3C Zn8C 1_555 1_555
O3H Zn8A_3 1_555 1_555
O3K_2 Zn8B 1_555 1_555
O3A_2 Zn8A 1_555 1_555
O4B Zn2B 1_555 1_555
O4_2 Zn2_2 1_555 1_555
O4B_2 Zn2B_2 1_555 1_555
O6J C14 1_555 1_555
O6B Zn1 1_555 1_555
O6H Zn1A 1_555 1_555
O6I Zn1 1_555 1_555
O6C Zn1A 1_555 1_555
O6K Zn1 1_555 1_555
O6A Zn1A 1_555 1_555
O7K C21 1_555 1_555
O7B C21B 1_555 1_555
O7I C21B 1_555 1_555
O7J C21A 1_555 1_555
O7A C21A 1_555 1_555
O7H C21C 1_555 1_555
O7C C21C 1_555 1_555
O7L Zn2 1_555 1_555
O7E Zn2 1_555 1_555
O7G Zn2B 1_555 1_555
O7N Zn2B 1_555 1_555
O7E_2 Zn2_2 1_555 1_555
O7L_2 Zn2_2 1_555 1_555
O7N_2 Zn2B_2 1_555 1_555
O7G_2 Zn2B_2 1_555 1_555
O8J Zn4J 1_555 1_555
O8B Zn4B 1_555 1_555
O8H Zn4H 1_555 1_555
O8I Zn4I 1_555 1_555
O8C Zn4C 1_555 1_555
O8K Zn4K 1_555 1_555
O8A Zn4A 1_555 1_555
O9J Zn8C 1_555 1_555
O9B Zn8B 1_555 1_555
O9H Zn8A 1_555 1_555
O9I C20I 1_555 1_555
O9C C20C 1_555 1_555
O9K C20K 1_555 1_555
O9A C20A 1_555 1_555
O9I_2 Zn8 1_555 1_555
O9C_2 Zn8C 1_555 1_555
O9K_2 Zn8B 1_555 1_555
O9A_2 Zn8A 1_555 1_555
O11C Zn4J 1_555 1_555
O11B Zn4B 1_555 1_555
O11A Zn4H 1_555 1_555
O11_2 Zn4I 1_555 1_555
O11C_2 Zn4C 1_555 1_555
O11B_2 Zn4K 1_555 1_555
O11A_2 Zn4A 1_555 1_555
C1B C2B 1_555 1_555
C1A C2A 1_555 1_555
C1C C2C 1_555 1_555
C2B C3I 1_555 1_555
C2A C3J 1_555 1_555
C2C C3C 1_555 1_555
C3K C2 1_555 1_555
C3I H1I 1_555 1_555
C3B C2B 1_555 1_555
C3J H1J 1_555 1_555
C3A C2A 1_555 1_555
C3C H1C 1_555 1_555
C3H C2C 1_555 1_555
H1K C3K 1_555 1_555
H1B C3B 1_555 1_555
H1A C3A 1_555 1_555
H1H C3H 1_555 1_555
C4K C19 1_555 1_555
C4I C3I 1_555 1_555
C4B C3B 1_555 1_555
C4J C3J 1_555 1_555
C4A C3A 1_555 1_555
C4C C3C 1_555 1_555
C4H C3H 1_555 1_555
C5K C4K 1_555 1_555
C5I O2I 1_555 1_555
C5B O3B 1_555 1_555
C5J C4J 1_555 1_555
C5A C4A 1_555 1_555
C5C O3C 1_555 1_555
C5H O3H 1_555 1_555
C6K C6 1_555 1_555
C6I C6B 1_555 1_555
C6B C7I 1_555 1_555
C6J C6A 1_555 1_555
C6A C7J 1_555 1_555
C6C C6H 1_555 1_555
C6H C7C 1_555 1_555
C7K C6 1_555 1_555
C7I C6I 1_555 1_555
C7B C6I 1_555 1_555
C7J C6J 1_555 1_555
C7A C6J 1_555 1_555
C7C C6C 1_555 1_555
C7H C6C 1_555 1_555
H2K C7K 1_555 1_555
H2I C7I 1_555 1_555
H2B C7B 1_555 1_555
H2J C7J 1_555 1_555
H2A C7A 1_555 1_555
H2C C7C 1_555 1_555
H2H C7H 1_555 1_555
C8K C7K 1_555 1_555
C8I C7I 1_555 1_555
C8B C7B 1_555 1_555
C8J C7J 1_555 1_555
C8A C7A 1_555 1_555
C8C C7C 1_555 1_555
C8H C7H 1_555 1_555
C9K C9 1_555 1_555
C9I C8I 1_555 1_555
C9B C8B 1_555 1_555
C9J C8J 1_555 1_555
C9A C8A 1_555 1_555
C9C C8C 1_555 1_555
C9H C8H 1_555 1_555
H3K C9K 1_555 1_555
H3I C9I 1_555 1_555
H3B C9B 1_555 1_555
H3J C9J 1_555 1_555
H3A C9A 1_555 1_555
H3C C9C 1_555 1_555
H3H C9H 1_555 1_555
C10K C9 1_555 1_555
C10I C8I 1_555 1_555
C10B C8B 1_555 1_555
C10J C8J 1_555 1_555
C10A C8A 1_555 1_555
C10C C8C 1_555 1_555
C10H C8H 1_555 1_555
C11K C6 1_555 1_555
C11I C6I 1_555 1_555
C11B C6I 1_555 1_555
C11J C6J 1_555 1_555
C11A C6J 1_555 1_555
C11C C6C 1_555 1_555
C11H C6C 1_555 1_555
H4K C7K 1_555 1_555
H4I C7I 1_555 1_555
H4B C7B 1_555 1_555
H4J C7J 1_555 1_555
H4A C7A 1_555 1_555
H4C C7C 1_555 1_555
H4H C7H 1_555 1_555
C12K C8K 1_555 1_555
C12B C8B 1_555 1_555
C12I C8I 1_555 1_555
C12J C8J 1_555 1_555
C12A C8A 1_555 1_555
C12H C8H 1_555 1_555
C12C C8C 1_555 1_555
C13K C8K 1_555 1_555
C13B C8B 1_555 1_555
C13I C8I 1_555 1_555
C13J C8J 1_555 1_555
C13A C8A 1_555 1_555
C13H C8H 1_555 1_555
C13C C8C 1_555 1_555
O13I Zn4I_2 1_555 1_555
O13B Zn4B_2 1_555 1_555
O13K Zn4K 1_555 1_555
O13J Zn4J 1_555 1_555
O13C Zn4C_2 1_555 1_555
O13H Zn4H_3 1_555 1_555
O13A Zn4A 1_555 1_555
O13B_2 Zn4B 1_555 1_555
O13H_2 Zn4H 1_555 1_555
O13I_2 Zn4I 1_555 1_555
O13C_2 Zn4C 1_555 1_555
O14K C12K 1_555 1_555
O14B C12B 1_555 1_555
O14I C12I 1_555 1_555
O14J C12J 1_555 1_555
O14A C12A 1_555 1_555
O14H C12H 1_555 1_555
O14C C12C 1_555 1_555
O15K H3K 1_555 1_555
O15I H3I 1_555 1_555
O15B H3B 1_555 1_555
O15J H3J 1_555 1_555
O15A H3A 1_555 1_555
O15C H3C 1_555 1_555
O15H H3H 1_555 1_555
C14B O6B 1_555 1_555
C14C O6I 1_555 1_555
C14A O6K 1_555 1_555
C15B C14B 1_555 1_555
C15C C14C 1_555 1_555
C15A C14A 1_555 1_555
C16J C15 1_555 1_555
C16B C15B 1_555 1_555
C16H C15B 1_555 1_555
C16I C15C 1_555 1_555
C16C C15C 1_555 1_555
C16K C15A 1_555 1_555
C16A C15A 1_555 1_555
H5J C16J 1_555 1_555
H5B C16B 1_555 1_555
H5H C16H 1_555 1_555
H5I C16I 1_555 1_555
H5C C16C 1_555 1_555
H5K C16K 1_555 1_555
H5A C16A 1_555 1_555
C17J C18 1_555 1_555
C17B C16B 1_555 1_555
C17H C16H 1_555 1_555
C17I C16I 1_555 1_555
C17C C16C 1_555 1_555
C17K C16K 1_555 1_555
C17A C16A 1_555 1_555
C18B C17B 1_555 1_555
C18C C17I 1_555 1_555
C18A C17K 1_555 1_555
H6B C18B 1_555 1_555
H6C C18C 1_555 1_555
H6A C18A 1_555 1_555
C19B C4I 1_555 1_555
C19A C4J 1_555 1_555
C19C C4C 1_555 1_555
H7B C19B 1_555 1_555
H7A C19A 1_555 1_555
H7C C19C 1_555 1_555
C20J O8J 1_555 1_555
C20B O8B 1_555 1_555
C20H O8H 1_555 1_555
C20I O8I 1_555 1_555
C20C O8C 1_555 1_555
C20K O8K 1_555 1_555
C20A O8A 1_555 1_555
C21B C6I 1_555 1_555
C21A C6J 1_555 1_555
C21C C6C 1_555 1_555
O17I O17 1_555 1_555
O17B O15B 1_555 1_555
O17K O15K 1_555 1_555
O17J O15J 1_555 1_555
O17C O15C 1_555 1_555
O17H O15H 1_555 1_555
O17A O15A 1_555 1_555
O9 C20 1_555 1_555
C7 C11 1_555 1_555
C7 C6K 1_555 1_555
C8 C11 1_555 1_555
C8 H4 1_555 1_555
C9 C10 1_555 1_555
C9 C13 1_555 1_555
H3 C13 1_555 1_555
C10 C11 1_555 1_555
C10 C13 1_555 1_555
C10 C9K 1_555 1_555
C10 C10K 1_555 1_555
C11 H4 1_555 1_555
C11 C6K 1_555 1_555
C11 C11K 1_555 1_555
C12 C13 1_555 1_555
C12 O13 1_555 1_555
C13 O13 1_555 1_555
C13 O15 1_555 1_555
O13 O15 1_555 1_555
C17 C20 1_555 1_555
C21 C6K 1_555 1_555
Zn1A O6J 1_555 1_555
Zn4C_2 O11C 1_555 1_555
O3I C5I 1_555 1_555
O6H C14B 1_555 1_555
O6C C14C 1_555 1_555
O6A C14A 1_555 1_555
O9J C20J 1_555 1_555
O9B C20B 1_555 1_555
O9H C20H 1_555 1_555
C3K C4K 1_555 1_555
C4I C5I 1_555 1_555
C4B C5B 1_555 1_555
C4B C19B 1_555 1_555
C4A C19A 1_555 1_555
C4C C5C 1_555 1_555
C4H C5H 1_555 1_555
C4H C19C 1_555 1_555
C6K C7K 1_555 1_555
C6K C11K 1_555 1_555
C6B C7B 1_555 1_555
C6B C11I 1_555 1_555
C6B C11B 1_555 1_555
C6B C21B 1_555 1_555
C6A C7A 1_555 1_555
C6A C11J 1_555 1_555
C6A C11A 1_555 1_555
C6A C21A 1_555 1_555
C6H C7H 1_555 1_555
C6H C11C 1_555 1_555
C6H C11H 1_555 1_555
C6H C21C 1_555 1_555
C7K C11K 1_555 1_555
C7I C11I 1_555 1_555
C7B C11B 1_555 1_555
C7J C11J 1_555 1_555
C7A C11A 1_555 1_555
C7C C11C 1_555 1_555
C7H C11H 1_555 1_555
H2K H4K 1_555 1_555
H2I H4I 1_555 1_555
H2B H4B 1_555 1_555
H2J H4J 1_555 1_555
H2A H4A 1_555 1_555
H2C H4C 1_555 1_555
H2H H4H 1_555 1_555
C8K C9K 1_555 1_555
C8K C10K 1_555 1_555
C8K C11K 1_555 1_555
C8K H4K 1_555 1_555
C8I C11I 1_555 1_555
C8I H4I 1_555 1_555
C8B C11B 1_555 1_555
C8B H4B 1_555 1_555
C8J C11J 1_555 1_555
C8J H4J 1_555 1_555
C8A C11A 1_555 1_555
C8A H4A 1_555 1_555
C8C C11C 1_555 1_555
C8C H4C 1_555 1_555
C8H C11H 1_555 1_555
C8H H4H 1_555 1_555
C9K C10K 1_555 1_555
C9K C13K 1_555 1_555
C9I C9B 1_555 1_555
C9I C10I 1_555 1_555
C9I C10B 1_555 1_555
C9I C13I 1_555 1_555
C9B C10I 1_555 1_555
C9B C10B 1_555 1_555
C9B C13B 1_555 1_555
C9J C9A 1_555 1_555
C9J C10J 1_555 1_555
C9J C10A 1_555 1_555
C9J C13J 1_555 1_555
C9A C10J 1_555 1_555
C9A C10A 1_555 1_555
C9A C13A 1_555 1_555
C9C C9H 1_555 1_555
C9C C10C 1_555 1_555
C9C C10H 1_555 1_555
C9C C13C 1_555 1_555
C9H C10C 1_555 1_555
C9H C10H 1_555 1_555
C9H C13H 1_555 1_555
H3K C13K 1_555 1_555
H3I C13I 1_555 1_555
H3B C13B 1_555 1_555
H3J C13J 1_555 1_555
H3A C13A 1_555 1_555
H3C C13C 1_555 1_555
H3H C13H 1_555 1_555
C10K C11K 1_555 1_555
C10K C13K 1_555 1_555
C10I C10B 1_555 1_555
C10I C11I 1_555 1_555
C10I C13I 1_555 1_555
C10B C11B 1_555 1_555
C10B C13B 1_555 1_555
C10J C10A 1_555 1_555
C10J C11J 1_555 1_555
C10J C13J 1_555 1_555
C10A C11A 1_555 1_555
C10A C13A 1_555 1_555
C10C C10H 1_555 1_555
C10C C11C 1_555 1_555
C10C C13C 1_555 1_555
C10H C11H 1_555 1_555
C10H C13H 1_555 1_555
C11K H4K 1_555 1_555
C11I C11B 1_555 1_555
C11I H4I 1_555 1_555
C11B H4B 1_555 1_555
C11J C11A 1_555 1_555
C11J H4J 1_555 1_555
C11A H4A 1_555 1_555
C11C C11H 1_555 1_555
C11C H4C 1_555 1_555
C11H H4H 1_555 1_555
C12K C13K 1_555 1_555
C12K O13K 1_555 1_555
C12B C13B 1_555 1_555
C12B O13B 1_555 1_555
C12I C13I 1_555 1_555
C12I O13I 1_555 1_555
C12J C13J 1_555 1_555
C12J O13J 1_555 1_555
C12A C13A 1_555 1_555
C12A O13A 1_555 1_555
C12H C13H 1_555 1_555
C12H O13H 1_555 1_555
C12C C13C 1_555 1_555
C12C O13C 1_555 1_555
C13K O13K 1_555 1_555
C13K O15K 1_555 1_555
C13B O13B 1_555 1_555
C13B O15B 1_555 1_555
C13I O13I 1_555 1_555
C13I O15I 1_555 1_555
C13J O13J 1_555 1_555
C13J O15J 1_555 1_555
C13A O13A 1_555 1_555
C13A O15A 1_555 1_555
C13H O13H 1_555 1_555
C13H O15H 1_555 1_555
C13C O13C 1_555 1_555
C13C O15C 1_555 1_555
O13I O15I 1_555 1_555
O13B O15B 1_555 1_555
O13K O15K 1_555 1_555
O13J O15J 1_555 1_555
O13C O15C 1_555 1_555
O13H O15H 1_555 1_555
O13A O15A 1_555 1_555
O15I O17I 1_555 1_555
C16J C17J 1_555 1_555
C17J C20J 1_555 1_555
C17B C20B 1_555 1_555
C17H C18B 1_555 1_555
C17H C20H 1_555 1_555
C17I C20I 1_555 1_555
C17C C18C 1_555 1_555
C17C C20C 1_555 1_555
C17K C20K 1_555 1_555
C17A C18A 1_555 1_555
C17A C20A 1_555 1_555
O17B O17K 1_555 1_555
O17J O17C 1_555 1_555
O17H O17A 1_555 1_555

#END
