# generated using pymatgen
data_Fe4Co4B4P4H284C308N72O4F37
_symmetry_space_group_name_H-M   'P 1'
_cell_length_a   20.06200000
_cell_length_b   23.39000000
_cell_length_c   34.28800000
_cell_angle_alpha   81.57700000
_cell_angle_beta   80.64200000
_cell_angle_gamma   74.45300000
_symmetry_Int_Tables_number   1
_chemical_formula_structural   Fe4Co4B4P4H284C308N72O4F37
_chemical_formula_sum   'Fe8 Co8 B8 P8 H568 C616 N144 O8 F74'
_cell_volume   15204.78210692
_cell_formula_units_Z   2
loop_
 _symmetry_equiv_pos_site_id
 _symmetry_equiv_pos_as_xyz
  1  'x, y, z'
loop_
 _atom_site_type_symbol
 _atom_site_label
 _atom_site_symmetry_multiplicity
 _atom_site_fract_x
 _atom_site_fract_y
 _atom_site_fract_z
 _atom_site_occupancy
  Fe  Fe1  1  0.065100  0.543650  0.237600  1
  Fe  Fe2  1  0.934900  0.456350  0.762400  1
  Fe  Fe3  1  0.412210  0.451800  0.260860  1
  Fe  Fe4  1  0.587790  0.548200  0.739140  1
  Fe  Fe5  1  0.385980  0.042470  0.924820  1.0
  Fe  Fe6  1  0.614020  0.957530  0.075180  1.0
  Fe  Fe7  1  0.876710  0.043610  0.434120  1.0
  Fe  Fe8  1  0.123290  0.956390  0.565880  1.0
  Co  Co9  1  0.212760  0.602570  0.316950  1
  Co  Co10  1  0.787240  0.397430  0.683050  1
  Co  Co11  1  0.265840  0.397050  0.178000  1
  Co  Co12  1  0.734160  0.602950  0.822000  1
  Co  Co13  1  0.399630  0.895570  0.050440  1.0
  Co  Co14  1  0.600370  0.104430  0.949560  1.0
  Co  Co15  1  0.089020  0.103150  0.447630  1.0
  Co  Co16  1  0.910980  0.896850  0.552370  1.0
  B  B17  1  0.954700  0.647700  0.201700  1
  B  B18  1  0.045300  0.352300  0.798300  1
  B  B19  1  0.519300  0.347500  0.300100  1
  B  B20  1  0.480700  0.652500  0.699900  1
  B  B21  1  0.266500  0.142500  0.897500  1.0
  B  B22  1  0.733500  0.857500  0.102500  1.0
  B  B23  1  0.752900  0.145400  0.409100  1.0
  B  B24  1  0.247100  0.854600  0.590900  1.0
  P  P25  1  0.465900  0.083510  0.306120  1
  P  P26  1  0.534100  0.916490  0.693880  1
  P  P27  1  0.233000  0.589900  0.550930  1
  P  P28  1  0.767000  0.410100  0.449070  1
  P  P29  1  0.257700  0.420680  0.946670  1
  P  P30  1  0.742300  0.579320  0.053330  1
  P  P31  1  0.010900  0.913260  0.196470  1
  P  P32  1  0.989100  0.086740  0.803530  1
  H  H33  1  0.918300  0.681000  0.190000  1
  H  H34  1  0.081700  0.319000  0.810000  1
  H  H35  1  0.554300  0.314000  0.312800  1
  H  H36  1  0.445700  0.686000  0.687200  1
  H  H37  1  0.305500  0.687600  0.311300  1
  H  H38  1  0.694500  0.312400  0.688700  1
  H  H39  1  0.360900  0.718700  0.356100  1
  H  H40  1  0.639100  0.281300  0.643900  1
  H  H41  1  0.279300  0.615200  0.442900  1
  H  H42  1  0.720700  0.384800  0.557100  1
  H  H43  1  0.208600  0.551700  0.458200  1
  H  H44  1  0.791400  0.448300  0.541800  1
  H  H45  1  0.115600  0.452200  0.409000  1
  H  H46  1  0.884400  0.547800  0.591000  1
  H  H47  1  0.145900  0.498700  0.347600  1
  H  H48  1  0.854100  0.501300  0.652400  1
  H  H49  1  0.410700  0.672700  0.429200  1
  H  H50  1  0.589300  0.327300  0.570800  1
  H  H51  1  0.341900  0.677600  0.460900  1
  H  H52  1  0.658100  0.322400  0.539100  1
  H  H53  1  0.351300  0.734000  0.430000  1
  H  H54  1  0.648700  0.266000  0.570000  1
  H  H55  1  0.158800  0.429300  0.486500  1
  H  H56  1  0.841200  0.570700  0.513500  1
  H  H57  1  0.082600  0.473000  0.484700  1
  H  H58  1  0.917400  0.527000  0.515300  1
  H  H59  1  0.140600  0.493300  0.502500  1
  H  H60  1  0.859400  0.506700  0.497500  1
  H  H61  1  0.325000  0.620500  0.249300  1
  H  H62  1  0.675000  0.379500  0.750700  1
  H  H63  1  0.338300  0.692200  0.196700  1
  H  H64  1  0.661700  0.307800  0.803300  1
  H  H65  1  0.138700  0.779800  0.229000  1
  H  H66  1  0.861300  0.220200  0.771000  1
  H  H67  1  0.049200  0.785200  0.278100  1
  H  H68  1  0.950800  0.214800  0.721900  1
  H  H69  1  0.985700  0.710700  0.386700  1
  H  H70  1  0.014300  0.289300  0.613300  1
  H  H71  1  0.087300  0.634300  0.381800  1
  H  H72  1  0.912700  0.365700  0.618200  1
  H  H73  1  0.244500  0.825200  0.178000  1
  H  H74  1  0.755500  0.174800  0.822000  1
  H  H75  1  0.196300  0.796400  0.157900  1
  H  H76  1  0.803700  0.203600  0.842100  1
  H  H77  1  0.279500  0.772800  0.150200  1
  H  H78  1  0.720500  0.227200  0.849800  1
  H  H79  1  0.950500  0.843100  0.323800  1
  H  H80  1  0.049500  0.156900  0.676200  1
  H  H81  1  0.919400  0.807500  0.362900  1
  H  H82  1  0.080600  0.192500  0.637100  1
  H  H83  1  0.906700  0.796600  0.320000  1
  H  H84  1  0.093300  0.203400  0.680000  1
  H  H85  1  0.985300  0.401000  0.194100  1
  H  H86  1  0.014700  0.599000  0.805900  1
  H  H87  1  0.019100  0.418000  0.228600  1
  H  H88  1  0.980900  0.582000  0.771400  1
  H  H89  1  0.059200  0.417300  0.184300  1
  H  H90  1  0.940800  0.582700  0.815700  1
  H  H91  1  0.899200  0.493100  0.156200  1
  H  H92  1  0.100800  0.506900  0.843800  1
  H  H93  1  0.833000  0.606400  0.129900  1
  H  H94  1  0.167000  0.393600  0.870100  1
  H  H95  1  0.878300  0.652900  0.130800  1
  H  H96  1  0.121700  0.347100  0.869200  1
  H  H97  1  0.819300  0.644300  0.167000  1
  H  H98  1  0.180700  0.355700  0.833000  1
  H  H99  1  0.244400  0.619400  0.166600  1
  H  H100  1  0.755600  0.380600  0.833400  1
  H  H101  1  0.220200  0.558900  0.169100  1
  H  H102  1  0.779800  0.441100  0.830900  1
  H  H103  1  0.221500  0.586400  0.208900  1
  H  H104  1  0.778500  0.413600  0.791100  1
  H  H105  1  0.144500  0.711300  0.141800  1
  H  H106  1  0.855500  0.288700  0.858200  1
  H  H107  1  0.018300  0.789600  0.139000  1
  H  H108  1  0.981700  0.210400  0.861000  1
  H  H109  1  0.955500  0.769500  0.167900  1
  H  H110  1  0.044500  0.230500  0.832100  1
  H  H111  1  0.977000  0.748700  0.124200  1
  H  H112  1  0.023000  0.251300  0.875800  1
  H  H113  1  0.977900  0.588300  0.364800  1
  H  H114  1  0.022100  0.411700  0.635200  1
  H  H115  1  0.040300  0.553100  0.335100  1
  H  H116  1  0.959700  0.446900  0.664900  1
  H  H117  1  0.968700  0.532900  0.345600  1
  H  H118  1  0.031300  0.467100  0.654400  1
  H  H119  1  0.882800  0.675700  0.332500  1
  H  H120  1  0.117200  0.324300  0.667500  1
  H  H121  1  0.805700  0.723300  0.245400  1
  H  H122  1  0.194300  0.276700  0.754600  1
  H  H123  1  0.861900  0.762300  0.238300  1
  H  H124  1  0.138100  0.237700  0.761700  1
  H  H125  1  0.814800  0.757800  0.280400  1
  H  H126  1  0.185200  0.242200  0.719600  1
  H  H127  1  0.390800  0.366500  0.113900  1
  H  H128  1  0.609200  0.633500  0.886100  1
  H  H129  1  0.494900  0.293200  0.108200  1
  H  H130  1  0.505100  0.706800  0.891800  1
  H  H131  1  0.432700  0.214200  0.215300  1
  H  H132  1  0.567300  0.785800  0.784700  1
  H  H133  1  0.343400  0.217500  0.265200  1
  H  H134  1  0.656600  0.782500  0.734800  1
  H  H135  1  0.139900  0.300000  0.296300  1
  H  H136  1  0.860100  0.700000  0.703700  1
  H  H137  1  0.152100  0.376200  0.243400  1
  H  H138  1  0.847900  0.623800  0.756600  1
  H  H139  1  0.552400  0.185200  0.131900  1
  H  H140  1  0.447600  0.814800  0.868100  1
  H  H141  1  0.538500  0.164400  0.178400  1
  H  H142  1  0.461500  0.835600  0.821600  1
  H  H143  1  0.579900  0.215000  0.163300  1
  H  H144  1  0.420100  0.785000  0.836700  1
  H  H145  1  0.227300  0.173300  0.316900  1
  H  H146  1  0.772700  0.826700  0.683100  1
  H  H147  1  0.206100  0.226300  0.344800  1
  H  H148  1  0.793900  0.773700  0.655200  1
  H  H149  1  0.286600  0.195300  0.332100  1
  H  H150  1  0.713400  0.804700  0.667900  1
  H  H151  1  0.175700  0.311200  0.177800  1
  H  H152  1  0.824300  0.688800  0.822200  1
  H  H153  1  0.124600  0.282000  0.130200  1
  H  H154  1  0.875400  0.718000  0.869800  1
  H  H155  1  0.198700  0.399800  0.048600  1
  H  H156  1  0.801300  0.600200  0.951400  1
  H  H157  1  0.266500  0.463300  0.038600  1
  H  H158  1  0.733500  0.536700  0.961400  1
  H  H159  1  0.364300  0.552200  0.092700  1
  H  H160  1  0.635700  0.447800  0.907300  1
  H  H161  1  0.336200  0.499500  0.152000  1
  H  H162  1  0.663800  0.500500  0.848000  1
  H  H163  1  0.108400  0.284300  0.060200  1
  H  H164  1  0.891600  0.715700  0.939800  1
  H  H165  1  0.154000  0.318500  0.027000  1
  H  H166  1  0.846000  0.681500  0.973000  1
  H  H167  1  0.079000  0.353800  0.046500  1
  H  H168  1  0.921000  0.646200  0.953500  1
  H  H169  1  0.230300  0.374700  0.321800  1
  H  H170  1  0.769700  0.625300  0.678200  1
  H  H171  1  0.258200  0.418800  0.286500  1
  H  H172  1  0.741800  0.581200  0.713500  1
  H  H173  1  0.251300  0.431800  0.331700  1
  H  H174  1  0.748700  0.568200  0.668300  1
  H  H175  1  0.329000  0.283200  0.352200  1
  H  H176  1  0.671000  0.716800  0.647800  1
  H  H177  1  0.498500  0.246800  0.372800  1
  H  H178  1  0.501500  0.753200  0.627200  1
  H  H179  1  0.516500  0.222900  0.330000  1
  H  H180  1  0.483500  0.777100  0.670000  1
  H  H181  1  0.454200  0.205800  0.361000  1
  H  H182  1  0.545800  0.794200  0.639000  1
  H  H183  1  0.472400  0.579500  0.272000  1
  H  H184  1  0.527600  0.420500  0.728000  1
  H  H185  1  0.479100  0.592500  0.315600  1
  H  H186  1  0.520900  0.407500  0.684400  1
  H  H187  1  0.410700  0.575500  0.307600  1
  H  H188  1  0.589300  0.424500  0.692400  1
  H  H189  1  0.591100  0.341400  0.370800  1
  H  H190  1  0.408900  0.658600  0.629200  1
  H  H191  1  0.631700  0.388900  0.377300  1
  H  H192  1  0.368300  0.611100  0.622700  1
  H  H193  1  0.654000  0.354100  0.338500  1
  H  H194  1  0.346000  0.645900  0.661500  1
  H  H195  1  0.517300  0.413700  0.134200  1
  H  H196  1  0.482700  0.586300  0.865800  1
  H  H197  1  0.494900  0.467500  0.161400  1
  H  H198  1  0.505100  0.532500  0.838600  1
  H  H199  1  0.441700  0.427900  0.159800  1
  H  H200  1  0.558300  0.572100  0.840200  1
  H  H201  1  0.599200  0.319200  0.169000  1
  H  H202  1  0.400800  0.680800  0.831000  1
  H  H203  1  0.659800  0.234600  0.225100  1
  H  H204  1  0.340200  0.765400  0.774900  1
  H  H205  1  0.613800  0.237200  0.267900  1
  H  H206  1  0.386200  0.762800  0.732100  1
  H  H207  1  0.673200  0.273100  0.256700  1
  H  H208  1  0.326800  0.726900  0.743300  1
  H  H209  1  0.567500  0.503100  0.349900  1
  H  H210  1  0.432500  0.496900  0.650100  1
  H  H211  1  0.317200  0.536200  0.998400  1
  H  H212  1  0.682800  0.463800  0.001600  1
  H  H213  1  0.389300  0.536400  0.012500  1
  H  H214  1  0.610700  0.463600  0.987500  1
  H  H215  1  0.321800  0.590100  0.020900  1
  H  H216  1  0.678200  0.409900  0.979100  1
  H  H217  1  0.094300  0.627800  0.093700  1
  H  H218  1  0.905700  0.372200  0.906300  1
  H  H219  1  0.962400  0.605300  0.020300  1
  H  H220  1  0.037600  0.394700  0.979700  1
  H  H221  1  0.989400  0.500800  0.046900  1
  H  H222  1  0.010600  0.499200  0.953100  1
  H  H223  1  0.060100  0.469200  0.095400  1
  H  H224  1  0.939900  0.530800  0.904600  1
  H  H225  1  0.113900  0.526900  0.123500  1
  H  H226  1  0.886100  0.473100  0.876500  1
  H  H227  1  0.051500  0.129400  0.978900  1
  H  H228  1  0.948500  0.870600  0.021100  1
  H  H229  1  0.228900  0.015500  0.007900  1
  H  H230  1  0.771100  0.984500  0.992100  1
  H  H231  1  0.038300  0.178600  0.036100  1
  H  H232  1  0.961700  0.821400  0.963900  1
  H  H233  1  0.223700  0.065800  0.062600  1
  H  H234  1  0.776300  0.934200  0.937400  1
  H  H235  1  0.135100  0.039200  0.972000  1
  H  H236  1  0.864900  0.960800  0.028000  1
  H  H237  1  0.367100  0.021200  0.478700  1
  H  H238  1  0.632900  0.978800  0.521300  1
  H  H239  1  0.436500  0.014600  0.416900  1
  H  H240  1  0.563500  0.985400  0.583100  1
  H  H241  1  0.288100  0.961700  0.499600  1
  H  H242  1  0.711900  0.038300  0.500400  1
  H  H243  1  0.432700  0.941700  0.377100  1
  H  H244  1  0.567300  0.058300  0.622900  1
  H  H245  1  0.280500  0.893400  0.458400  1
  H  H246  1  0.719500  0.106600  0.541600  1
  H  H247  1  0.109400  0.305300  0.481000  1
  H  H248  1  0.890600  0.694700  0.519000  1
  H  H249  1  0.151200  0.297900  0.413000  1
  H  H250  1  0.848800  0.702100  0.587000  1
  H  H251  1  0.976400  0.420500  0.383900  1
  H  H252  1  0.023600  0.579500  0.616100  1
  H  H253  1  0.936800  0.427600  0.451400  1
  H  H254  1  0.063200  0.572400  0.548600  1
  H  H255  1  0.074800  0.381300  0.340100  1
  H  H256  1  0.925200  0.618700  0.659900  1
  H  H257  1  0.407700  0.693300  0.014700  1
  H  H258  1  0.592300  0.306700  0.985300  1
  H  H259  1  0.361600  0.702900  0.079800  1
  H  H260  1  0.638400  0.297100  0.920200  1
  H  H261  1  0.514800  0.562900  0.116300  1
  H  H262  1  0.485200  0.437100  0.883700  1
  H  H263  1  0.559000  0.554700  0.050400  1
  H  H264  1  0.441000  0.445300  0.949600  1
  H  H265  1  0.416900  0.612900  0.157400  1
  H  H266  1  0.583100  0.387100  0.842600  1
  H  H267  1  0.414200  0.879600  0.267600  1
  H  H268  1  0.585800  0.120400  0.732400  1
  H  H269  1  0.480000  0.942100  0.276600  1
  H  H270  1  0.520000  0.057900  0.723400  1
  H  H271  1  0.591500  0.904000  0.293300  1
  H  H272  1  0.408500  0.096000  0.706700  1
  H  H273  1  0.638700  0.797100  0.301900  1
  H  H274  1  0.361300  0.202900  0.698100  1
  H  H275  1  0.567800  0.733700  0.299500  1
  H  H276  1  0.432200  0.266300  0.700500  1
  H  H277  1  0.057800  0.117100  0.231400  1
  H  H278  1  0.942200  0.882900  0.768600  1
  H  H279  1  0.983000  0.055800  0.235800  1
  H  H280  1  0.017000  0.944200  0.764200  1
  H  H281  1  0.867600  0.094300  0.225500  1
  H  H282  1  0.132400  0.905700  0.774500  1
  H  H283  1  0.823600  0.198000  0.213700  1
  H  H284  1  0.176400  0.802000  0.786300  1
  H  H285  1  0.898000  0.260600  0.208500  1
  H  H286  1  0.102000  0.739400  0.791500  1
  H  H287  1  0.190400  0.188000  0.186000  1
  H  H288  1  0.809600  0.812000  0.814000  1
  H  H289  1  0.272500  0.200700  0.132200  1
  H  H290  1  0.727500  0.799300  0.867800  1
  H  H291  1  0.421800  0.084900  0.189400  1
  H  H292  1  0.578200  0.915100  0.810600  1
  H  H293  1  0.341600  0.076400  0.244400  1
  H  H294  1  0.658400  0.923600  0.755600  1
  H  H295  1  0.440300  0.126300  0.126300  1
  H  H296  1  0.559700  0.873700  0.873700  1
  H  H297  1  0.278700  0.809000  0.306100  1
  H  H298  1  0.721300  0.191000  0.693900  1
  H  H299  1  0.198300  0.797600  0.360300  1
  H  H300  1  0.801700  0.202400  0.639700  1
  H  H301  1  0.052400  0.927800  0.307400  1
  H  H302  1  0.947600  0.072200  0.692600  1
  H  H303  1  0.133400  0.934000  0.252700  1
  H  H304  1  0.866600  0.066000  0.747300  1
  H  H305  1  0.033200  0.874500  0.369000  1
  H  H306  1  0.966800  0.125500  0.631000  1
  H  H307  1  0.342600  0.378000  0.393700  1
  H  H308  1  0.657400  0.622000  0.606300  1
  H  H309  1  0.402900  0.449200  0.365400  1
  H  H310  1  0.597100  0.550800  0.634600  1
  H  H311  1  0.421200  0.518000  0.403500  1
  H  H312  1  0.578800  0.482000  0.596500  1
  H  H313  1  0.373300  0.514800  0.469900  1
  H  H314  1  0.626700  0.485200  0.530100  1
  H  H315  1  0.313500  0.444600  0.500900  1
  H  H316  1  0.686500  0.555400  0.499100  1
  H  H317  1  0.873900  0.614500  0.438200  1
  H  H318  1  0.126100  0.385500  0.561800  1
  H  H319  1  0.825200  0.548300  0.414700  1
  H  H320  1  0.174800  0.451700  0.585300  1
  H  H321  1  0.732600  0.584900  0.377500  1
  H  H322  1  0.267400  0.415100  0.622500  1
  H  H323  1  0.693300  0.686400  0.361300  1
  H  H324  1  0.306700  0.313600  0.638700  1
  H  H325  1  0.737400  0.754100  0.386100  1
  H  H326  1  0.262600  0.245900  0.613900  1
  H  H327  1  0.623300  0.382900  0.063800  1
  H  H328  1  0.376700  0.617100  0.936200  1
  H  H329  1  0.668400  0.447000  0.092400  1
  H  H330  1  0.331600  0.553000  0.907600  1
  H  H331  1  0.749300  0.407300  0.137600  1
  H  H332  1  0.250700  0.592700  0.862400  1
  H  H333  1  0.775300  0.305600  0.159300  1
  H  H334  1  0.224700  0.694400  0.840700  1
  H  H335  1  0.740400  0.239900  0.125500  1
  H  H336  1  0.259600  0.760100  0.874500  1
  H  H337  1  0.648100  0.998200  0.305100  1
  H  H338  1  0.351900  0.001800  0.694900  1
  H  H339  1  0.665200  0.094100  0.288500  1
  H  H340  1  0.334800  0.905900  0.711500  1
  H  H341  1  0.768200  0.115400  0.296400  1
  H  H342  1  0.231800  0.884600  0.703600  1
  H  H343  1  0.859500  0.038100  0.316600  1
  H  H344  1  0.140500  0.961900  0.683400  1
  H  H345  1  0.845800  0.941600  0.335200  1
  H  H346  1  0.154200  0.058400  0.664800  1
  H  H347  1  0.824100  0.000400  0.208600  1
  H  H348  1  0.175900  0.999600  0.791400  1
  H  H349  1  0.811500  0.903600  0.228700  1
  H  H350  1  0.188500  0.096400  0.771300  1
  H  H351  1  0.712700  0.877900  0.222000  1
  H  H352  1  0.287300  0.122100  0.778000  1
  H  H353  1  0.611700  0.952100  0.206300  1
  H  H354  1  0.388300  0.047900  0.793700  1
  H  H355  1  0.623400  0.052700  0.184600  1
  H  H356  1  0.376600  0.947300  0.815400  1
  H  H357  1  0.155600  0.571100  0.957300  1
  H  H358  1  0.844400  0.428900  0.042700  1
  H  H359  1  0.041000  0.632500  0.866100  1
  H  H360  1  0.959000  0.367500  0.133900  1
  H  H361  1  0.093900  0.552800  0.910000  1
  H  H362  1  0.906100  0.447200  0.090000  1
  H  H363  1  0.080700  0.750000  0.929000  1
  H  H364  1  0.919300  0.250000  0.071000  1
  H  H365  1  0.022400  0.730400  0.880600  1
  H  H366  1  0.977600  0.269600  0.119400  1
  H  H367  1  0.091800  0.917300  0.977500  1
  H  H368  1  0.908200  0.082700  0.022500  1
  H  H369  1  0.168800  0.838000  0.945300  1
  H  H370  1  0.831200  0.162000  0.054700  1
  H  H371  1  0.996900  0.969900  0.877200  1
  H  H372  1  0.003100  0.030100  0.122800  1
  H  H373  1  0.135000  0.809200  0.890200  1
  H  H374  1  0.865000  0.190800  0.109800  1
  H  H375  1  0.053900  0.877900  0.854100  1
  H  H376  1  0.946100  0.122100  0.145900  1
  H  H377  1  0.553400  0.457500  0.491900  1
  H  H378  1  0.446600  0.542500  0.508100  1
  H  H379  1  0.436400  0.388400  0.584900  1
  H  H380  1  0.563600  0.611600  0.415100  1
  H  H381  1  0.558000  0.379100  0.455300  1
  H  H382  1  0.442000  0.620900  0.544700  1
  H  H383  1  0.410200  0.326300  0.542400  1
  H  H384  1  0.589800  0.673700  0.457600  1
  H  H385  1  0.475000  0.473200  0.550500  1
  H  H386  1  0.525000  0.526800  0.449500  1
  H  H387  1  0.162300  0.412400  0.743100  1
  H  H388  1  0.837700  0.587600  0.256900  1
  H  H389  1  0.334100  0.466900  0.689000  1
  H  H390  1  0.665900  0.533100  0.311000  1
  H  H391  1  0.091100  0.501800  0.717300  1
  H  H392  1  0.908900  0.498200  0.282700  1
  H  H393  1  0.262100  0.554200  0.661300  1
  H  H394  1  0.737900  0.445800  0.338700  1
  H  H395  1  0.141400  0.572200  0.676900  1
  H  H396  1  0.858600  0.427800  0.323100  1
  H  H397  1  0.373000  0.109900  0.573200  1
  H  H398  1  0.627000  0.890100  0.426800  1
  H  H399  1  0.540700  0.149800  0.499400  1
  H  H400  1  0.459300  0.850200  0.500600  1
  H  H401  1  0.393500  0.162400  0.622900  1
  H  H402  1  0.606500  0.837600  0.377100  1
  H  H403  1  0.470600  0.225900  0.603100  1
  H  H404  1  0.529400  0.774100  0.396900  1
  H  H405  1  0.544000  0.222900  0.541800  1
  H  H406  1  0.456000  0.777100  0.458200  1
  H  H407  1  0.573800  0.465100  0.230100  1
  H  H408  1  0.426200  0.534900  0.769900  1
  H  H409  1  0.585800  0.551800  0.191900  1
  H  H410  1  0.414200  0.448200  0.808100  1
  H  H411  1  0.671100  0.392500  0.248800  1
  H  H412  1  0.328900  0.607500  0.751200  1
  H  H413  1  0.796100  0.491300  0.191100  1
  H  H414  1  0.203900  0.508700  0.808900  1
  H  H415  1  0.700000  0.566900  0.170400  1
  H  H416  1  0.300000  0.433100  0.829600  1
  H  H417  1  0.226800  0.175200  0.888400  1.0
  H  H418  1  0.773200  0.824800  0.111600  1.0
  H  H419  1  0.377100  0.856500  0.143800  1.0
  H  H420  1  0.622900  0.143500  0.856200  1.0
  H  H421  1  0.425600  0.779100  0.189100  1.0
  H  H422  1  0.574400  0.220900  0.810900  1.0
  H  H423  1  0.566300  0.709800  0.099400  1.0
  H  H424  1  0.433700  0.290200  0.900600  1.0
  H  H425  1  0.600500  0.718700  0.036800  1.0
  H  H426  1  0.399500  0.281300  0.963200  1.0
  H  H427  1  0.541600  0.794000  0.930300  1.0
  H  H428  1  0.458400  0.206000  0.069700  1.0
  H  H429  1  0.449500  0.861400  0.963400  1.0
  H  H430  1  0.550500  0.138600  0.036600  1.0
  H  H431  1  0.505900  0.669900  0.193800  1.0
  H  H432  1  0.494100  0.330100  0.806200  1.0
  H  H433  1  0.560300  0.708000  0.196300  1.0
  H  H434  1  0.439700  0.292000  0.803700  1.0
  H  H435  1  0.577200  0.661400  0.164000  1.0
  H  H436  1  0.422800  0.338600  0.836000  1.0
  H  H437  1  0.641800  0.713600  0.930300  1.0
  H  H438  1  0.358200  0.286400  0.069700  1.0
  H  H439  1  0.647600  0.668700  0.970300  1.0
  H  H440  1  0.352400  0.331300  0.029700  1.0
  H  H441  1  0.688400  0.720300  0.962200  1.0
  H  H442  1  0.311600  0.279700  0.037800  1.0
  H  H443  1  0.376000  0.999400  0.103600  1.0
  H  H444  1  0.624000  0.000600  0.896400  1.0
  H  H445  1  0.540300  0.087300  0.817800  1.0
  H  H446  1  0.459700  0.912700  0.182200  1.0
  H  H447  1  0.508900  0.030300  0.830800  1.0
  H  H448  1  0.491100  0.969700  0.169200  1.0
  H  H449  1  0.533000  0.060200  0.863400  1.0
  H  H450  1  0.467000  0.939800  0.136600  1.0
  H  H451  1  0.291500  0.047600  0.150700  1.0
  H  H452  1  0.708500  0.952400  0.849300  1.0
  H  H453  1  0.246900  0.773300  0.015200  1.0
  H  H454  1  0.753100  0.226700  0.984800  1.0
  H  H455  1  0.152300  0.886300  0.096500  1.0
  H  H456  1  0.847700  0.113700  0.903500  1.0
  H  H457  1  0.129400  0.763200  0.068500  1.0
  H  H458  1  0.870600  0.236800  0.931500  1.0
  H  H459  1  0.104800  0.811500  0.032200  1.0
  H  H460  1  0.895200  0.188500  0.967800  1.0
  H  H461  1  0.084100  0.828900  0.076800  1.0
  H  H462  1  0.915900  0.171100  0.923200  1.0
  H  H463  1  0.174100  0.271500  0.974900  1.0
  H  H464  1  0.825900  0.728500  0.025100  1.0
  H  H465  1  0.148900  0.231300  0.949200  1.0
  H  H466  1  0.851100  0.768700  0.050800  1.0
  H  H467  1  0.202700  0.269900  0.928600  1.0
  H  H468  1  0.797300  0.730100  0.071400  1.0
  H  H469  1  0.272500  0.203500  0.017800  1.0
  H  H470  1  0.727500  0.796500  0.982200  1.0
  H  H471  1  0.167000  0.948100  0.132700  1.0
  H  H472  1  0.833000  0.051900  0.867300  1.0
  H  H473  1  0.437000  0.174900  0.796500  1.0
  H  H474  1  0.563000  0.825100  0.203500  1.0
  H  H475  1  0.152300  0.075600  0.170700  1.0
  H  H476  1  0.847700  0.924400  0.829300  1.0
  H  H477  1  0.185600  0.025300  0.203900  1.0
  H  H478  1  0.814400  0.974700  0.796100  1.0
  H  H479  1  0.125200  0.016100  0.182000  1.0
  H  H480  1  0.874800  0.983900  0.818000  1.0
  H  H481  1  0.344500  0.806300  0.010400  1.0
  H  H482  1  0.655500  0.193700  0.989600  1.0
  H  H483  1  0.372600  0.053700  0.028100  1.0
  H  H484  1  0.627400  0.946300  0.971900  1.0
  H  H485  1  0.372800  0.114800  0.043900  1.0
  H  H486  1  0.627200  0.885200  0.956100  1.0
  H  H487  1  0.430000  0.089000  0.008200  1.0
  H  H488  1  0.570000  0.911000  0.991800  1.0
  H  H489  1  0.091800  0.096000  0.883900  1.0
  H  H490  1  0.908200  0.904000  0.116100  1.0
  H  H491  1  0.139900  0.126400  0.849800  1.0
  H  H492  1  0.860100  0.873600  0.150200  1.0
  H  H493  1  0.121900  0.148800  0.893100  1.0
  H  H494  1  0.878100  0.851200  0.106900  1.0
  H  H495  1  0.172600  0.986300  0.894100  1.0
  H  H496  1  0.827400  0.013700  0.105900  1.0
  H  H497  1  0.279700  0.895000  0.913900  1.0
  H  H498  1  0.720300  0.105000  0.086100  1.0
  H  H499  1  0.305800  0.914200  0.950600  1.0
  H  H500  1  0.694200  0.085800  0.049400  1.0
  H  H501  1  0.354000  0.910400  0.908500  1.0
  H  H502  1  0.646000  0.089600  0.091500  1.0
  H  H503  1  0.305600  0.248200  0.793500  1.0
  H  H504  1  0.694400  0.751800  0.206500  1.0
  H  H505  1  0.285900  0.267100  0.837700  1.0
  H  H506  1  0.714100  0.732900  0.162300  1.0
  H  H507  1  0.246600  0.224200  0.823400  1.0
  H  H508  1  0.753400  0.775800  0.176600  1.0
  H  H509  1  0.712300  0.178000  0.401000  1.0
  H  H510  1  0.287700  0.822000  0.599000  1.0
  H  H511  1  0.172800  0.951800  0.351300  1.0
  H  H512  1  0.827200  0.048200  0.648700  1.0
  H  H513  1  0.304500  0.053100  0.359400  1.0
  H  H514  1  0.695500  0.946900  0.640600  1.0
  H  H515  1  0.912900  0.176100  0.302400  1.0
  H  H516  1  0.087100  0.823900  0.697600  1.0
  H  H517  1  0.969300  0.339800  0.323000  1.0
  H  H518  1  0.030700  0.660200  0.677000  1.0
  H  H519  1  0.900000  0.316100  0.331500  1.0
  H  H520  1  0.100000  0.683900  0.668500  1.0
  H  H521  1  0.960400  0.291400  0.297100  1.0
  H  H522  1  0.039600  0.708600  0.702900  1.0
  H  H523  1  0.974100  0.194300  0.571500  1.0
  H  H524  1  0.025900  0.805700  0.428500  1.0
  H  H525  1  0.323900  0.114100  0.397300  1.0
  H  H526  1  0.676100  0.885900  0.602700  1.0
  H  H527  1  0.278900  0.992100  0.289200  1.0
  H  H528  1  0.721100  0.007900  0.710800  1.0
  H  H529  1  0.298100  0.929000  0.315600  1.0
  H  H530  1  0.701900  0.071000  0.684400  1.0
  H  H531  1  0.341700  0.977200  0.315400  1.0
  H  H532  1  0.658300  0.022800  0.684600  1.0
  H  H533  1  0.239000  0.217700  0.486700  1.0
  H  H534  1  0.761000  0.782300  0.513300  1.0
  H  H535  1  0.016400  0.085800  0.318200  1.0
  H  H536  1  0.983600  0.914200  0.681800  1.0
  H  H537  1  0.986600  0.029500  0.337400  1.0
  H  H538  1  0.013400  0.970500  0.662600  1.0
  H  H539  1  0.017300  0.063700  0.364600  1.0
  H  H540  1  0.982700  0.936300  0.635400  1.0
  H  H541  1  0.137000  0.189800  0.488800  1.0
  H  H542  1  0.863000  0.810200  0.511200  1.0
  H  H543  1  0.095400  0.000700  0.400200  1.0
  H  H544  1  0.904600  0.999300  0.599800  1.0
  H  H545  1  0.784400  0.248600  0.302700  1.0
  H  H546  1  0.215600  0.751400  0.697300  1.0
  H  H547  1  0.768100  0.267600  0.347000  1.0
  H  H548  1  0.231900  0.732400  0.653000  1.0
  H  H549  1  0.725800  0.226000  0.333900  1.0
  H  H550  1  0.274200  0.774000  0.666100  1.0
  H  H551  1  0.905100  0.280100  0.469200  1.0
  H  H552  1  0.094900  0.719900  0.530800  1.0
  H  H553  1  0.112000  0.136100  0.356100  1.0
  H  H554  1  0.888000  0.863900  0.643900  1.0
  H  H555  1  0.055100  0.125200  0.534800  1.0
  H  H556  1  0.944900  0.874800  0.465200  1.0
  H  H557  1  0.929000  0.285100  0.403700  1.0
  H  H558  1  0.071000  0.714900  0.596300  1.0
  H  H559  1  0.058900  0.211700  0.311500  1.0
  H  H560  1  0.941100  0.788300  0.688500  1.0
  H  H561  1  0.879200  0.328300  0.541700  1.0
  H  H562  1  0.120800  0.671700  0.458300  1.0
  H  H563  1  0.874300  0.275300  0.576400  1.0
  H  H564  1  0.125700  0.724700  0.423600  1.0
  H  H565  1  0.827100  0.287200  0.541200  1.0
  H  H566  1  0.172900  0.712800  0.458800  1.0
  H  H567  1  0.768000  0.899100  0.424900  1.0
  H  H568  1  0.232000  0.100900  0.575100  1.0
  H  H569  1  0.785000  0.915600  0.465300  1.0
  H  H570  1  0.215000  0.084400  0.534700  1.0
  H  H571  1  0.839300  0.917100  0.425600  1.0
  H  H572  1  0.160700  0.082900  0.574400  1.0
  H  H573  1  0.652900  0.989300  0.414700  1.0
  H  H574  1  0.347100  0.010700  0.585300  1.0
  H  H575  1  0.578800  0.095000  0.390700  1.0
  H  H576  1  0.421200  0.905000  0.609300  1.0
  H  H577  1  0.623800  0.141700  0.371700  1.0
  H  H578  1  0.376200  0.858300  0.628300  1.0
  H  H579  1  0.590400  0.141400  0.417400  1.0
  H  H580  1  0.409600  0.858600  0.582600  1.0
  H  H581  1  0.867400  0.058800  0.536200  1.0
  H  H582  1  0.132600  0.941200  0.463800  1.0
  H  H583  1  0.874200  0.119000  0.550300  1.0
  H  H584  1  0.125800  0.881000  0.449700  1.0
  H  H585  1  0.926600  0.090500  0.513700  1.0
  H  H586  1  0.073400  0.909500  0.486300  1.0
  H  H587  1  0.773900  0.209700  0.525800  1.0
  H  H588  1  0.226100  0.790300  0.474200  1.0
  H  H589  1  0.684500  0.286400  0.476200  1.0
  H  H590  1  0.315500  0.713600  0.523800  1.0
  H  H591  1  0.643700  0.242600  0.464400  1.0
  H  H592  1  0.356300  0.757400  0.535600  1.0
  H  H593  1  0.698200  0.268300  0.431800  1.0
  H  H594  1  0.301800  0.731700  0.568200  1.0
  H  H595  1  0.354000  0.229300  0.423700  1.0
  H  H596  1  0.646000  0.770700  0.576300  1.0
  H  H597  1  0.396600  0.160900  0.423900  1.0
  H  H598  1  0.603400  0.839100  0.576100  1.0
  H  H599  1  0.370300  0.189900  0.464900  1.0
  H  H600  1  0.629700  0.810100  0.535100  1.0
  C  C601  1  0.125600  0.558400  0.268000  1
  C  C602  1  0.874400  0.441600  0.732000  1
  C  C603  1  0.137100  0.489800  0.210000  1
  C  C604  1  0.862900  0.510200  0.790000  1
  C  C605  1  0.053500  0.479000  0.274500  1
  C  C606  1  0.946500  0.521000  0.725500  1
  C  C607  1  0.351500  0.436500  0.229400  1
  C  C608  1  0.648500  0.563500  0.770600  1
  C  C609  1  0.339800  0.506300  0.287200  1
  C  C610  1  0.660200  0.493700  0.712800  1
  C  C611  1  0.426900  0.516200  0.223900  1
  C  C612  1  0.573100  0.483800  0.776100  1
  C  C613  1  0.299900  0.672200  0.338500  1
  C  C614  1  0.700100  0.327800  0.661500  1
  C  C615  1  0.333000  0.691300  0.365300  1
  C  C616  1  0.667000  0.308700  0.634700  1
  C  C617  1  0.325100  0.670300  0.404800  1
  C  C618  1  0.674900  0.329700  0.595200  1
  C  C619  1  0.285500  0.630500  0.415700  1
  C  C620  1  0.714500  0.369500  0.584300  1
  C  C621  1  0.253600  0.611200  0.389200  1
  C  C622  1  0.746400  0.388800  0.610800  1
  C  C623  1  0.212100  0.566500  0.398600  1
  C  C624  1  0.787900  0.433500  0.601400  1
  C  C625  1  0.194600  0.540500  0.435800  1
  C  C626  1  0.805400  0.459500  0.564200  1
  C  C627  1  0.156600  0.498200  0.441200  1
  C  C628  1  0.843400  0.501800  0.558800  1
  C  C629  1  0.139900  0.482500  0.406900  1
  C  C630  1  0.860100  0.517500  0.593100  1
  C  C631  1  0.158300  0.510200  0.370400  1
  C  C632  1  0.841700  0.489800  0.629600  1
  C  C633  1  0.360300  0.690400  0.433700  1
  C  C634  1  0.639700  0.309600  0.566300  1
  C  C635  1  0.132500  0.471000  0.482300  1
  C  C636  1  0.867500  0.529000  0.517700  1
  C  C637  1  0.287000  0.654200  0.245400  1
  C  C638  1  0.713000  0.345800  0.754600  1
  C  C639  1  0.294900  0.695500  0.213300  1
  C  C640  1  0.705100  0.304500  0.786700  1
  C  C641  1  0.237400  0.742100  0.205900  1
  C  C642  1  0.762600  0.257900  0.794100  1
  C  C643  1  0.178000  0.747300  0.233200  1
  C  C644  1  0.822000  0.252700  0.766800  1
  C  C645  1  0.174000  0.707000  0.266100  1
  C  C646  1  0.826000  0.293000  0.733900  1
  C  C647  1  0.117200  0.709700  0.298100  1
  C  C648  1  0.882800  0.290300  0.701900  1
  C  C649  1  0.056400  0.754800  0.299700  1
  C  C650  1  0.943600  0.245200  0.700300  1
  C  C651  1  0.005500  0.756100  0.332700  1
  C  C652  1  0.994500  0.243900  0.667300  1
  C  C653  1  0.018700  0.710800  0.363500  1
  C  C654  1  0.981300  0.289200  0.636500  1
  C  C655  1  0.080000  0.665500  0.360600  1
  C  C656  1  0.920000  0.334500  0.639400  1
  C  C657  1  0.239600  0.788300  0.169800  1
  C  C658  1  0.760400  0.211700  0.830200  1
  C  C659  1  0.939900  0.805100  0.335100  1
  C  C660  1  0.060100  0.194900  0.664900  1
  C  C661  1  0.013300  0.426100  0.200300  1
  C  C662  1  0.986700  0.573900  0.799700  1
  C  C663  1  0.975800  0.492600  0.190900  1
  C  C664  1  0.024200  0.507400  0.809100  1
  C  C665  1  0.921900  0.515200  0.168500  1
  C  C666  1  0.078100  0.484800  0.831500  1
  C  C667  1  0.907400  0.575800  0.167400  1
  C  C668  1  0.092600  0.424200  0.832600  1
  C  C669  1  0.855000  0.624000  0.147000  1
  C  C670  1  0.145000  0.376000  0.853000  1
  C  C671  1  0.212600  0.596000  0.181200  1
  C  C672  1  0.787400  0.404000  0.818800  1
  C  C673  1  0.138900  0.631300  0.179500  1
  C  C674  1  0.861100  0.368700  0.820500  1
  C  C675  1  0.115900  0.687800  0.157600  1
  C  C676  1  0.884100  0.312200  0.842400  1
  C  C677  1  0.046000  0.701400  0.163300  1
  C  C678  1  0.954000  0.298600  0.836700  1
  C  C679  1  0.994600  0.757300  0.147200  1
  C  C680  1  0.005400  0.242700  0.852800  1
  C  C681  1  0.989500  0.567200  0.341000  1
  C  C682  1  0.010500  0.432800  0.659000  1
  C  C683  1  0.961800  0.608000  0.306900  1
  C  C684  1  0.038200  0.392000  0.693100  1
  C  C685  1  0.907000  0.659300  0.308800  1
  C  C686  1  0.093000  0.340700  0.691200  1
  C  C687  1  0.894100  0.681500  0.272000  1
  C  C688  1  0.105900  0.318500  0.728000  1
  C  C689  1  0.839200  0.736100  0.257800  1
  C  C690  1  0.160800  0.263900  0.742200  1
  C  C691  1  0.399000  0.335000  0.134800  1
  C  C692  1  0.601000  0.665000  0.865200  1
  C  C693  1  0.461600  0.291400  0.131200  1
  C  C694  1  0.538400  0.708600  0.868800  1
  C  C695  1  0.475000  0.245300  0.161600  1
  C  C696  1  0.525000  0.754700  0.838400  1
  C  C697  1  0.424900  0.245200  0.194100  1
  C  C698  1  0.575100  0.754800  0.805900  1
  C  C699  1  0.363000  0.289600  0.196500  1
  C  C700  1  0.637000  0.710400  0.803500  1
  C  C701  1  0.304700  0.291700  0.227600  1
  C  C702  1  0.695300  0.708300  0.772400  1
  C  C703  1  0.303100  0.248800  0.260700  1
  C  C704  1  0.696900  0.751200  0.739300  1
  C  C705  1  0.241200  0.252900  0.287000  1
  C  C706  1  0.758800  0.747100  0.713000  1
  C  C707  1  0.183300  0.298200  0.280000  1
  C  C708  1  0.816700  0.701800  0.720000  1
  C  C709  1  0.190400  0.342700  0.247000  1
  C  C710  1  0.809600  0.657300  0.753000  1
  C  C711  1  0.542200  0.198500  0.158500  1
  C  C712  1  0.457800  0.801500  0.841500  1
  C  C713  1  0.240200  0.208000  0.323400  1
  C  C714  1  0.759800  0.792000  0.676600  1
  C  C715  1  0.181100  0.329300  0.151100  1
  C  C716  1  0.818900  0.670700  0.848900  1
  C  C717  1  0.149700  0.311900  0.122900  1
  C  C718  1  0.850300  0.688100  0.877100  1
  C  C719  1  0.155400  0.338400  0.084200  1
  C  C720  1  0.844600  0.661600  0.915800  1
  C  C721  1  0.193500  0.380800  0.075000  1
  C  C722  1  0.806500  0.619200  0.925000  1
  C  C723  1  0.224700  0.395700  0.104900  1
  C  C724  1  0.775300  0.604300  0.895100  1
  C  C725  1  0.264200  0.442100  0.097300  1
  C  C726  1  0.735800  0.557900  0.902700  1
  C  C727  1  0.280900  0.471600  0.061800  1
  C  C728  1  0.719100  0.528400  0.938200  1
  C  C729  1  0.318500  0.513600  0.058700  1
  C  C730  1  0.681500  0.486400  0.941300  1
  C  C731  1  0.338700  0.523200  0.093400  1
  C  C732  1  0.661300  0.476800  0.906600  1
  C  C733  1  0.322400  0.491600  0.128500  1
  C  C734  1  0.677600  0.508400  0.871500  1
  C  C735  1  0.121100  0.322300  0.051500  1
  C  C736  1  0.878900  0.677700  0.948500  1
  C  C737  1  0.262600  0.400500  0.313900  1
  C  C738  1  0.737400  0.599500  0.686100  1
  C  C739  1  0.335500  0.364200  0.316400  1
  C  C740  1  0.664500  0.635800  0.683600  1
  C  C741  1  0.358300  0.307100  0.337800  1
  C  C742  1  0.641700  0.692900  0.662200  1
  C  C743  1  0.427400  0.293100  0.334300  1
  C  C744  1  0.572600  0.706900  0.665700  1
  C  C745  1  0.478800  0.237100  0.351000  1
  C  C746  1  0.521200  0.762900  0.649000  1
  C  C747  1  0.461400  0.568400  0.300600  1
  C  C748  1  0.538600  0.431600  0.699400  1
  C  C749  1  0.495100  0.503600  0.310600  1
  C  C750  1  0.504900  0.496400  0.689400  1
  C  C751  1  0.614600  0.372100  0.357500  1
  C  C752  1  0.385400  0.627900  0.642500  1
  C  C753  1  0.490900  0.427300  0.159300  1
  C  C754  1  0.509100  0.572700  0.840700  1
  C  C755  1  0.519500  0.385800  0.193100  1
  C  C756  1  0.480500  0.614200  0.806900  1
  C  C757  1  0.573600  0.335800  0.192300  1
  C  C758  1  0.426400  0.664200  0.807700  1
  C  C759  1  0.584900  0.313900  0.230000  1
  C  C760  1  0.415100  0.686100  0.770000  1
  C  C761  1  0.637600  0.259900  0.246400  1
  C  C762  1  0.362400  0.740100  0.753600  1
  C  C763  1  0.562700  0.422000  0.335200  1
  C  C764  1  0.437300  0.578000  0.664800  1
  C  C765  1  0.547500  0.481200  0.335800  1
  C  C766  1  0.452500  0.518800  0.664200  1
  C  C767  1  0.338500  0.547000  0.019100  1
  C  C768  1  0.661500  0.453000  0.980900  1
  C  C769  1  0.071900  0.601000  0.086000  1
  C  C770  1  0.928100  0.399000  0.914000  1
  C  C771  1  0.025600  0.621200  0.057800  1
  C  C772  1  0.974400  0.378800  0.942200  1
  C  C773  1  0.992100  0.589000  0.040300  1
  C  C774  1  0.007900  0.411000  0.959700  1
  C  C775  1  0.008200  0.528700  0.056100  1
  C  C776  1  0.991800  0.471300  0.943900  1
  C  C777  1  0.052000  0.510300  0.085600  1
  C  C778  1  0.948000  0.489700  0.914400  1
  C  C779  1  0.085500  0.542700  0.102900  1
  C  C780  1  0.914500  0.457300  0.897100  1
  C  C781  1  0.010900  0.681300  0.039200  1
  C  C782  1  0.989100  0.318700  0.960800  1
  C  C783  1  0.083600  0.114700  0.997800  1
  C  C784  1  0.916400  0.885300  0.002200  1
  C  C785  1  0.125100  0.154500  0.088600  1
  C  C786  1  0.874900  0.845500  0.911400  1
  C  C787  1  0.189600  0.047400  0.014400  1
  C  C788  1  0.810400  0.952600  0.985600  1
  C  C789  1  0.129300  0.124700  0.055100  1
  C  C790  1  0.870700  0.875300  0.944900  1
  C  C791  1  0.076600  0.145500  0.030700  1
  C  C792  1  0.923400  0.854500  0.969300  1
  C  C793  1  0.186900  0.077200  0.046500  1
  C  C794  1  0.813100  0.922800  0.953500  1
  C  C795  1  0.136300  0.063300  0.991800  1
  C  C796  1  0.863700  0.936700  0.008200  1
  C  C797  1  0.364000  0.993100  0.462000  1
  C  C798  1  0.636000  0.006900  0.538000  1
  C  C799  1  0.406400  0.988700  0.425600  1
  C  C800  1  0.593600  0.011300  0.574400  1
  C  C801  1  0.360100  0.860600  0.393000  1
  C  C802  1  0.639900  0.139400  0.607000  1
  C  C803  1  0.317100  0.957600  0.474800  1
  C  C804  1  0.682900  0.042400  0.525200  1
  C  C805  1  0.404000  0.945800  0.402000  1
  C  C806  1  0.596000  0.054200  0.598000  1
  C  C807  1  0.313700  0.916600  0.450800  1
  C  C808  1  0.686300  0.083400  0.549200  1
  C  C809  1  0.358700  0.908900  0.415500  1
  C  C810  1  0.641300  0.091100  0.584500  1
  C  C811  1  0.999900  0.379400  0.513000  1
  C  C812  1  0.000100  0.620600  0.487000  1
  C  C813  1  0.022900  0.369900  0.472400  1
  C  C814  1  0.977100  0.630100  0.527600  1
  C  C815  1  0.083200  0.329800  0.461300  1
  C  C816  1  0.916800  0.670200  0.538700  1
  C  C817  1  0.107400  0.324200  0.420700  1
  C  C818  1  0.892600  0.675800  0.579300  1
  C  C819  1  0.067200  0.356900  0.392700  1
  C  C820  1  0.932800  0.643100  0.607300  1
  C  C821  1  0.003600  0.397100  0.403500  1
  C  C822  1  0.996400  0.602900  0.596500  1
  C  C823  1  0.981000  0.402100  0.443500  1
  C  C824  1  0.019000  0.597900  0.556500  1
  C  C825  1  0.515100  0.612900  0.985500  1
  C  C826  1  0.484900  0.387100  0.014500  1
  C  C827  1  0.487800  0.622900  0.025700  1
  C  C828  1  0.512200  0.377100  0.974300  1
  C  C829  1  0.429600  0.666500  0.035200  1
  C  C830  1  0.570400  0.333500  0.964800  1
  C  C831  1  0.402600  0.672200  0.074000  1
  C  C832  1  0.597400  0.327800  0.926000  1
  C  C833  1  0.432300  0.635100  0.105100  1
  C  C834  1  0.567700  0.364900  0.894900  1
  C  C835  1  0.492600  0.589700  0.095900  1
  C  C836  1  0.507400  0.410300  0.904100  1
  C  C837  1  0.518200  0.585200  0.056800  1
  C  C838  1  0.481800  0.414800  0.943200  1
  C  C839  1  0.441600  0.766900  0.276700  1
  C  C840  1  0.558400  0.233100  0.723300  1
  C  C841  1  0.484400  0.803700  0.282200  1
  C  C842  1  0.515600  0.196300  0.717800  1
  C  C843  1  0.459300  0.863400  0.275500  1
  C  C844  1  0.540700  0.136600  0.724500  1
  C  C845  1  0.498600  0.900100  0.280300  1
  C  C846  1  0.501400  0.099900  0.719700  1
  C  C847  1  0.564200  0.877900  0.290200  1
  C  C848  1  0.435800  0.122100  0.709800  1
  C  C849  1  0.592000  0.813100  0.296200  1
  C  C850  1  0.408000  0.186900  0.703800  1
  C  C851  1  0.552000  0.775800  0.293800  1
  C  C852  1  0.448000  0.224200  0.706200  1
  C  C853  1  0.030900  0.232200  0.218000  1
  C  C854  1  0.969100  0.767800  0.782000  1
  C  C855  1  0.984900  0.194700  0.220200  1
  C  C856  1  0.015100  0.805300  0.779800  1
  C  C857  1  0.010200  0.133800  0.227800  1
  C  C858  1  0.989800  0.866200  0.772200  1
  C  C859  1  0.965800  0.097700  0.230100  1
  C  C860  1  0.034200  0.902300  0.769900  1
  C  C861  1  0.897200  0.120300  0.224400  1
  C  C862  1  0.102800  0.879700  0.775600  1
  C  C863  1  0.871300  0.181700  0.217000  1
  C  C864  1  0.128700  0.818300  0.783000  1
  C  C865  1  0.915100  0.218700  0.214300  1
  C  C866  1  0.084900  0.781300  0.785700  1
  C  C867  1  0.204700  0.120600  0.254400  1
  C  C868  1  0.795300  0.879400  0.745600  1
  C  C869  1  0.255400  0.129400  0.221900  1
  C  C870  1  0.744600  0.870600  0.778100  1
  C  C871  1  0.237800  0.167100  0.187200  1
  C  C872  1  0.762200  0.832900  0.812800  1
  C  C873  1  0.286400  0.174600  0.155100  1
  C  C874  1  0.713600  0.825400  0.844900  1
  C  C875  1  0.356500  0.144000  0.155900  1
  C  C876  1  0.643500  0.856000  0.844100  1
  C  C877  1  0.374700  0.107100  0.188800  1
  C  C878  1  0.625300  0.892900  0.811200  1
  C  C879  1  0.326300  0.101000  0.221300  1
  C  C880  1  0.673700  0.899000  0.778700  1
  C  C881  1  0.265500  0.881600  0.240700  1
  C  C882  1  0.734500  0.118400  0.759300  1
  C  C883  1  0.215400  0.874100  0.273500  1
  C  C884  1  0.784600  0.125900  0.726500  1
  C  C885  1  0.232200  0.833000  0.306200  1
  C  C886  1  0.767800  0.167000  0.693800  1
  C  C887  1  0.184600  0.825900  0.338300  1
  C  C888  1  0.815400  0.174100  0.661700  1
  C  C889  1  0.115800  0.859700  0.339300  1
  C  C890  1  0.884200  0.140300  0.660700  1
  C  C891  1  0.098100  0.902300  0.307000  1
  C  C892  1  0.901900  0.097700  0.693000  1
  C  C893  1  0.147100  0.906800  0.275200  1
  C  C894  1  0.852900  0.093200  0.724800  1
  C  C895  1  0.286700  0.357600  0.469000  1
  C  C896  1  0.713300  0.642400  0.531000  1
  C  C897  1  0.322300  0.402700  0.450300  1
  C  C898  1  0.677700  0.597300  0.549700  1
  C  C899  1  0.349100  0.405500  0.409700  1
  C  C900  1  0.650900  0.594500  0.590300  1
  C  C901  1  0.385100  0.448200  0.392900  1
  C  C902  1  0.614900  0.551800  0.607100  1
  C  C903  1  0.395800  0.489300  0.414900  1
  C  C904  1  0.604200  0.510700  0.585100  1
  C  C905  1  0.367600  0.486300  0.454500  1
  C  C906  1  0.632400  0.513700  0.545500  1
  C  C907  1  0.331400  0.444700  0.473500  1
  C  C908  1  0.668600  0.555300  0.526500  1
  C  C909  1  0.842400  0.729500  0.432000  1
  C  C910  1  0.157600  0.270500  0.568000  1
  C  C911  1  0.809300  0.690200  0.415900  1
  C  C912  1  0.190700  0.309800  0.584100  1
  C  C913  1  0.835700  0.629500  0.423200  1
  C  C914  1  0.164300  0.370500  0.576800  1
  C  C915  1  0.807300  0.590100  0.409000  1
  C  C916  1  0.192700  0.409900  0.591000  1
  C  C917  1  0.753200  0.611700  0.386700  1
  C  C918  1  0.246800  0.388300  0.613300  1
  C  C919  1  0.729200  0.671900  0.377900  1
  C  C920  1  0.270800  0.328100  0.622100  1
  C  C921  1  0.755400  0.712300  0.392200  1
  C  C922  1  0.244600  0.287700  0.607800  1
  C  C923  1  0.650100  0.269100  0.071600  1
  C  C924  1  0.349900  0.730900  0.928400  1
  C  C925  1  0.678100  0.305900  0.091800  1
  C  C926  1  0.321900  0.694100  0.908200  1
  C  C927  1  0.656200  0.367100  0.082100  1
  C  C928  1  0.343800  0.632900  0.917900  1
  C  C929  1  0.682400  0.405100  0.099300  1
  C  C930  1  0.317600  0.594900  0.900700  1
  C  C931  1  0.729400  0.381500  0.126800  1
  C  C932  1  0.270600  0.618500  0.873200  1
  C  C933  1  0.747400  0.320800  0.138400  1
  C  C934  1  0.252600  0.679200  0.861600  1
  C  C935  1  0.724600  0.281900  0.119500  1
  C  C936  1  0.275400  0.718100  0.880500  1
  C  C937  1  0.743600  0.900400  0.327900  1
  C  C938  1  0.256400  0.099600  0.672100  1
  C  C939  1  0.747500  0.960700  0.319300  1
  C  C940  1  0.252500  0.039300  0.680700  1
  C  C941  1  0.691400  0.006000  0.307100  1
  C  C942  1  0.308600  0.994000  0.692900  1
  C  C943  1  0.701900  0.062800  0.298000  1
  C  C944  1  0.298100  0.937200  0.702000  1
  C  C945  1  0.762900  0.075800  0.302100  1
  C  C946  1  0.237100  0.924200  0.697900  1
  C  C947  1  0.816300  0.029800  0.314800  1
  C  C948  1  0.183700  0.970200  0.685200  1
  C  C949  1  0.809400  0.972300  0.324800  1
  C  C950  1  0.190600  0.027700  0.675200  1
  C  C951  1  0.726600  0.092400  0.187000  1
  C  C952  1  0.273400  0.907600  0.813000  1
  C  C953  1  0.721400  0.035100  0.196900  1
  C  C954  1  0.278600  0.964900  0.803100  1
  C  C955  1  0.781000  0.990900  0.208300  1
  C  C956  1  0.219000  0.009100  0.791700  1
  C  C957  1  0.773600  0.933500  0.219100  1
  C  C958  1  0.226400  0.066500  0.780900  1
  C  C959  1  0.714400  0.918500  0.216500  1
  C  C960  1  0.285600  0.081500  0.783500  1
  C  C961  1  0.654800  0.962100  0.205800  1
  C  C962  1  0.345200  0.037900  0.794200  1
  C  C963  1  0.661200  0.022500  0.194100  1
  C  C964  1  0.338800  0.977500  0.805900  1
  C  C965  1  0.163300  0.672700  0.975900  1
  C  C966  1  0.836700  0.327300  0.024100  1
  C  C967  1  0.122300  0.662200  0.948500  1
  C  C968  1  0.877700  0.337800  0.051500  1
  C  C969  1  0.128200  0.603400  0.942000  1
  C  C970  1  0.871800  0.396600  0.058000  1
  C  C971  1  0.059100  0.640200  0.888200  1
  C  C972  1  0.940900  0.359800  0.111800  1
  C  C973  1  0.093900  0.592600  0.913000  1
  C  C974  1  0.906100  0.407400  0.087000  1
  C  C975  1  0.083900  0.710100  0.924900  1
  C  C976  1  0.916100  0.289900  0.075100  1
  C  C977  1  0.050800  0.698400  0.895600  1
  C  C978  1  0.949200  0.301600  0.104400  1
  C  C979  1  0.037300  0.952400  0.930100  1
  C  C980  1  0.962700  0.047600  0.069900  1
  C  C981  1  0.086900  0.911300  0.951400  1
  C  C982  1  0.913100  0.088700  0.048600  1
  C  C983  1  0.994100  0.006100  0.945200  1
  C  C984  1  0.005900  0.993900  0.054800  1
  C  C985  1  0.129000  0.861700  0.933800  1
  C  C986  1  0.871000  0.138300  0.066200  1
  C  C987  1  0.027800  0.940800  0.892800  1
  C  C988  1  0.972200  0.059200  0.107200  1
  C  C989  1  0.112500  0.846900  0.899300  1
  C  C990  1  0.887500  0.153100  0.100700  1
  C  C991  1  0.063400  0.887100  0.878400  1
  C  C992  1  0.936600  0.112900  0.121600  1
  C  C993  1  0.483200  0.345900  0.495100  1
  C  C994  1  0.516800  0.654100  0.504900  1
  C  C995  1  0.482600  0.305100  0.469300  1
  C  C996  1  0.517400  0.694900  0.530700  1
  C  C997  1  0.525400  0.430300  0.501800  1
  C  C998  1  0.474600  0.569700  0.498200  1
  C  C999  1  0.451200  0.391600  0.557100  1
  C  C1000  1  0.548800  0.608400  0.442900  1
  C  C1001  1  0.527900  0.384600  0.479700  1
  C  C1002  1  0.472100  0.615400  0.520300  1
  C  C1003  1  0.442300  0.350300  0.533300  1
  C  C1004  1  0.557700  0.649700  0.466700  1
  C  C1005  1  0.482700  0.437600  0.538400  1
  C  C1006  1  0.517300  0.562400  0.461600  1
  C  C1007  1  0.254200  0.432000  0.717800  1
  C  C1008  1  0.745800  0.568000  0.282200  1
  C  C1009  1  0.182300  0.441600  0.726700  1
  C  C1010  1  0.817700  0.558400  0.273300  1
  C  C1011  1  0.284700  0.473800  0.694200  1
  C  C1012  1  0.715300  0.526200  0.305800  1
  C  C1013  1  0.140400  0.494200  0.711400  1
  C  C1014  1  0.859600  0.505800  0.288600  1
  C  C1015  1  0.242300  0.525500  0.678400  1
  C  C1016  1  0.757700  0.474500  0.321600  1
  C  C1017  1  0.170400  0.536000  0.687400  1
  C  C1018  1  0.829600  0.464000  0.312600  1
  C  C1019  1  0.307300  0.380500  0.729400  1
  C  C1020  1  0.692700  0.619500  0.270600  1
  C  C1021  1  0.407300  0.132200  0.567900  1
  C  C1022  1  0.592700  0.867800  0.432100  1
  C  C1023  1  0.448800  0.134100  0.531100  1
  C  C1024  1  0.551200  0.865900  0.468900  1
  C  C1025  1  0.506900  0.158900  0.522000  1
  C  C1026  1  0.493100  0.841100  0.478000  1
  C  C1027  1  0.418000  0.164200  0.596800  1
  C  C1028  1  0.582000  0.835800  0.403200  1
  C  C1029  1  0.467400  0.199800  0.585100  1
  C  C1030  1  0.532600  0.800200  0.414900  1
  C  C1031  1  0.512100  0.198400  0.548300  1
  C  C1032  1  0.487900  0.801600  0.451700  1
  C  C1033  1  0.473600  0.092100  0.502200  1
  C  C1034  1  0.526400  0.907900  0.497800  1
  C  C1035  1  0.742200  0.436900  0.222400  1
  C  C1036  1  0.257800  0.563100  0.777600  1
  C  C1037  1  0.619000  0.471500  0.221900  1
  C  C1038  1  0.381000  0.528500  0.778100  1
  C  C1039  1  0.625900  0.522400  0.199300  1
  C  C1040  1  0.374100  0.477600  0.800700  1
  C  C1041  1  0.677000  0.428300  0.233300  1
  C  C1042  1  0.323000  0.571700  0.766700  1
  C  C1043  1  0.750300  0.486400  0.199300  1
  C  C1044  1  0.249700  0.513600  0.800700  1
  C  C1045  1  0.693400  0.531800  0.186700  1
  C  C1046  1  0.306600  0.468200  0.813300  1
  C  C1047  1  0.795000  0.388400  0.237200  1
  C  C1048  1  0.205000  0.611600  0.762800  1
  C  C1049  1  0.382900  0.987600  0.971600  1.0
  C  C1050  1  0.617100  0.012400  0.028400  1.0
  C  C1051  1  0.472300  0.055200  0.936500  1.0
  C  C1052  1  0.527700  0.944800  0.063500  1.0
  C  C1053  1  0.444500  0.976400  0.897600  1.0
  C  C1054  1  0.555500  0.023600  0.102400  1.0
  C  C1055  1  0.415000  0.825400  0.134500  1.0
  C  C1056  1  0.585000  0.174600  0.865500  1.0
  C  C1057  1  0.445400  0.780700  0.161900  1.0
  C  C1058  1  0.554600  0.219300  0.838100  1.0
  C  C1059  1  0.505300  0.737800  0.149500  1.0
  C  C1060  1  0.494700  0.262200  0.850500  1.0
  C  C1061  1  0.527500  0.739800  0.109100  1.0
  C  C1062  1  0.472500  0.260200  0.890900  1.0
  C  C1063  1  0.494800  0.783900  0.083200  1.0
  C  C1064  1  0.505200  0.216100  0.916800  1.0
  C  C1065  1  0.512800  0.787000  0.039200  1.0
  C  C1066  1  0.487200  0.213000  0.960800  1.0
  C  C1067  1  0.570200  0.747800  0.021100  1.0
  C  C1068  1  0.429800  0.252200  0.978900  1.0
  C  C1069  1  0.583900  0.751100  0.979000  1.0
  C  C1070  1  0.416100  0.248900  0.021000  1.0
  C  C1071  1  0.536800  0.792200  0.958500  1.0
  C  C1072  1  0.463200  0.207800  0.041500  1.0
  C  C1073  1  0.480800  0.832400  0.978600  1.0
  C  C1074  1  0.519200  0.167600  0.021400  1.0
  C  C1075  1  0.540100  0.690300  0.178300  1.0
  C  C1076  1  0.459900  0.309700  0.821700  1.0
  C  C1077  1  0.645700  0.709900  0.958700  1.0
  C  C1078  1  0.354300  0.290100  0.041300  1.0
  C  C1079  1  0.332600  0.989000  0.109200  1.0
  C  C1080  1  0.667400  0.011000  0.890800  1.0
  C  C1081  1  0.260900  0.933800  0.098900  1.0
  C  C1082  1  0.739100  0.066200  0.901100  1.0
  C  C1083  1  0.511700  0.068000  0.838800  1.0
  C  C1084  1  0.488300  0.932000  0.161200  1.0
  C  C1085  1  0.440600  0.107800  0.845300  1.0
  C  C1086  1  0.559400  0.892200  0.154700  1.0
  C  C1087  1  0.282500  0.017700  0.137800  1.0
  C  C1088  1  0.717500  0.982300  0.862200  1.0
  C  C1089  1  0.246600  0.803600  0.030900  1.0
  C  C1090  1  0.753400  0.196400  0.969100  1.0
  C  C1091  1  0.191400  0.869500  0.078500  1.0
  C  C1092  1  0.808600  0.130500  0.921500  1.0
  C  C1093  1  0.248500  0.194400  0.963000  1.0
  C  C1094  1  0.751500  0.805600  0.037000  1.0
  C  C1095  1  0.120400  0.805600  0.058400  1.0
  C  C1096  1  0.879600  0.194400  0.941600  1.0
  C  C1097  1  0.188300  0.246300  0.953100  1.0
  C  C1098  1  0.811700  0.753700  0.046900  1.0
  C  C1099  1  0.282200  0.180900  0.995800  1.0
  C  C1100  1  0.717800  0.819100  0.004200  1.0
  C  C1101  1  0.220300  0.002700  0.147100  1.0
  C  C1102  1  0.779700  0.997300  0.852900  1.0
  C  C1103  1  0.209700  0.959700  0.127000  1.0
  C  C1104  1  0.790300  0.040300  0.873000  1.0
  C  C1105  1  0.413100  0.158900  0.820000  1.0
  C  C1106  1  0.586900  0.841100  0.180000  1.0
  C  C1107  1  0.187500  0.826300  0.055000  1.0
  C  C1108  1  0.812500  0.173700  0.945000  1.0
  C  C1109  1  0.166100  0.032500  0.178700  1.0
  C  C1110  1  0.833900  0.967500  0.821300  1.0
  C  C1111  1  0.334100  0.127300  0.991200  1.0
  C  C1112  1  0.665900  0.872700  0.008800  1.0
  C  C1113  1  0.305400  0.822800  0.028600  1.0
  C  C1114  1  0.694600  0.177200  0.971400  1.0
  C  C1115  1  0.381400  0.093300  0.020300  1.0
  C  C1116  1  0.618600  0.906700  0.979700  1.0
  C  C1117  1  0.131700  0.113900  0.878400  1.0
  C  C1118  1  0.868300  0.886100  0.121600  1.0
  C  C1119  1  0.194900  0.069400  0.890900  1.0
  C  C1120  1  0.805100  0.930600  0.109100  1.0
  C  C1121  1  0.204300  0.008500  0.897200  1.0
  C  C1122  1  0.795700  0.991500  0.102800  1.0
  C  C1123  1  0.271200  0.986300  0.909200  1.0
  C  C1124  1  0.728800  0.013700  0.090800  1.0
  C  C1125  1  0.305800  0.920500  0.921700  1.0
  C  C1126  1  0.694200  0.079500  0.078300  1.0
  C  C1127  1  0.291200  0.234800  0.821300  1.0
  C  C1128  1  0.708800  0.765200  0.178700  1.0
  C  C1129  1  0.346100  0.180800  0.835400  1.0
  C  C1130  1  0.653900  0.819200  0.164600  1.0
  C  C1131  1  0.252500  0.887600  0.075100  1.0
  C  C1132  1  0.747500  0.112400  0.924900  1.0
  C  C1133  1  0.961900  0.059400  0.441000  1.0
  C  C1134  1  0.038100  0.940600  0.559000  1.0
  C  C1135  1  0.119900  0.010400  0.519600  1.0
  C  C1136  1  0.880100  0.989600  0.480400  1.0
  C  C1137  1  0.184100  0.982300  0.362400  1.0
  C  C1138  1  0.815900  0.017700  0.637600  1.0
  C  C1139  1  0.261900  0.041600  0.367500  1.0
  C  C1140  1  0.738100  0.958400  0.632500  1.0
  C  C1141  1  0.891200  0.159700  0.326600  1.0
  C  C1142  1  0.108800  0.840300  0.673400  1.0
  C  C1143  1  0.212500  0.067400  0.398700  1.0
  C  C1144  1  0.787500  0.932600  0.601300  1.0
  C  C1145  1  0.950500  0.305100  0.323600  1.0
  C  C1146  1  0.049500  0.694900  0.676400  1.0
  C  C1147  1  0.225400  0.112600  0.420900  1.0
  C  C1148  1  0.774600  0.887400  0.579100  1.0
  C  C1149  1  0.975900  0.198000  0.543400  1.0
  C  C1150  1  0.024100  0.802000  0.456600  1.0
  C  C1151  1  0.286200  0.129700  0.416600  1.0
  C  C1152  1  0.713800  0.870300  0.583400  1.0
  C  C1153  1  0.295400  0.971700  0.314200  1.0
  C  C1154  1  0.704600  0.028300  0.685800  1.0
  C  C1155  1  0.292600  0.171300  0.441500  1.0
  C  C1156  1  0.707400  0.828700  0.558500  1.0
  C  C1157  1  0.245000  0.997800  0.349000  1.0
  C  C1158  1  0.755000  0.002200  0.651000  1.0
  C  C1159  1  0.236200  0.191300  0.468700  1.0
  C  C1160  1  0.763800  0.808700  0.531300  1.0
  C  C1161  1  0.991300  0.068500  0.342000  1.0
  C  C1162  1  0.008700  0.931500  0.658000  1.0
  C  C1163  1  0.176000  0.173700  0.470400  1.0
  C  C1164  1  0.824000  0.826300  0.529600  1.0
  C  C1165  1  0.138700  0.010900  0.392200  1.0
  C  C1166  1  0.861300  0.989100  0.607800  1.0
  C  C1167  1  0.929800  0.979300  0.404400  1.0
  C  C1168  1  0.070200  0.020700  0.595600  1.0
  C  C1169  1  0.828800  0.133500  0.498800  1.0
  C  C1170  1  0.171200  0.866500  0.501200  1.0
  C  C1171  1  0.984100  0.255800  0.352900  1.0
  C  C1172  1  0.015900  0.744200  0.647100  1.0
  C  C1173  1  0.771200  0.235500  0.330700  1.0
  C  C1174  1  0.228800  0.764500  0.669300  1.0
  C  C1175  1  0.754100  0.989300  0.425500  1.0
  C  C1176  1  0.245900  0.010700  0.574500  1.0
  C  C1177  1  0.936100  0.248800  0.483100  1.0
  C  C1178  1  0.063900  0.751200  0.516900  1.0
  C  C1179  1  0.074200  0.166900  0.366000  1.0
  C  C1180  1  0.925800  0.833100  0.634000  1.0
  C  C1181  1  0.000200  0.210300  0.419300  1.0
  C  C1182  1  0.999800  0.789700  0.580700  1.0
  C  C1183  1  0.675700  0.073000  0.407400  1.0
  C  C1184  1  0.324300  0.927000  0.592600  1.0
  C  C1185  1  0.745800  0.201300  0.471600  1.0
  C  C1186  1  0.254200  0.798700  0.528400  1.0
  C  C1187  1  0.023800  0.157000  0.521400  1.0
  C  C1188  1  0.976200  0.843000  0.478600  1.0
  C  C1189  1  0.930400  0.245000  0.524000  1.0
  C  C1190  1  0.069600  0.755000  0.476000  1.0
  C  C1191  1  0.986400  0.207400  0.462200  1.0
  C  C1192  1  0.013600  0.792600  0.537800  1.0
  C  C1193  1  0.966300  0.254300  0.393300  1.0
  C  C1194  1  0.033700  0.745700  0.606700  1.0
  C  C1195  1  0.042100  0.211200  0.339000  1.0
  C  C1196  1  0.957900  0.788800  0.661000  1.0
  C  C1197  1  0.872600  0.287800  0.548000  1.0
  C  C1198  1  0.127400  0.712200  0.452000  1.0
  C  C1199  1  0.789700  0.924600  0.436300  1.0
  C  C1200  1  0.210300  0.075400  0.563700  1.0
  C  C1201  1  0.685600  0.011700  0.415600  1.0
  C  C1202  1  0.314400  0.988300  0.584400  1.0
  C  C1203  1  0.611800  0.116400  0.395800  1.0
  C  C1204  1  0.388200  0.883600  0.604200  1.0
  C  C1205  1  0.921600  0.108500  0.350700  1.0
  C  C1206  1  0.078400  0.891500  0.649300  1.0
  C  C1207  1  0.824900  0.181500  0.343900  1.0
  C  C1208  1  0.175100  0.818500  0.656100  1.0
  C  C1209  1  0.878600  0.097300  0.527300  1.0
  C  C1210  1  0.121400  0.902700  0.472700  1.0
  C  C1211  1  0.781000  0.187000  0.504000  1.0
  C  C1212  1  0.219000  0.813000  0.496000  1.0
  C  C1213  1  0.688000  0.254300  0.460000  1.0
  C  C1214  1  0.312000  0.745700  0.540000  1.0
  C  C1215  1  0.359100  0.189400  0.438200  1.0
  C  C1216  1  0.640900  0.810600  0.561800  1.0
  N  N1217  1  0.162100  0.571300  0.287300  1
  N  N1218  1  0.837900  0.428700  0.712700  1
  N  N1219  1  0.293700  0.544300  0.301330  1
  N  N1220  1  0.706300  0.455700  0.698670  1
  N  N1221  1  0.049300  0.436700  0.297900  1
  N  N1222  1  0.950700  0.563300  0.702100  1
  N  N1223  1  0.315600  0.425600  0.209900  1
  N  N1224  1  0.684400  0.574400  0.790100  1
  N  N1225  1  0.183400  0.454200  0.194500  1
  N  N1226  1  0.816600  0.545800  0.805500  1
  N  N1227  1  0.434400  0.557500  0.200000  1
  N  N1228  1  0.565600  0.442500  0.800000  1
  N  N1229  1  0.260900  0.633300  0.350000  1
  N  N1230  1  0.739100  0.366700  0.650000  1
  N  N1231  1  0.192900  0.552800  0.365200  1
  N  N1232  1  0.807100  0.447200  0.634800  1
  N  N1233  1  0.229400  0.658400  0.271300  1
  N  N1234  1  0.770600  0.341600  0.728700  1
  N  N1235  1  0.129500  0.664600  0.328600  1
  N  N1236  1  0.870500  0.335400  0.671400  1
  N  N1237  1  0.993600  0.536400  0.204200  1
  N  N1238  1  0.006400  0.463600  0.795800  1
  N  N1239  1  0.949300  0.588800  0.190600  1
  N  N1240  1  0.050700  0.411200  0.809400  1
  N  N1241  1  0.985400  0.601100  0.268200  1
  N  N1242  1  0.014600  0.398900  0.731800  1
  N  N1243  1  0.942900  0.646300  0.246900  1
  N  N1244  1  0.057100  0.353700  0.753100  1
  N  N1245  1  0.082200  0.613100  0.197600  1
  N  N1246  1  0.917800  0.386900  0.802400  1
  N  N1247  1  0.024500  0.657500  0.186900  1
  N  N1248  1  0.975500  0.342500  0.813100  1
  N  N1249  1  0.217400  0.369300  0.142700  1
  N  N1250  1  0.782600  0.630700  0.857300  1
  N  N1251  1  0.287600  0.450000  0.131000  1
  N  N1252  1  0.712400  0.550000  0.869000  1
  N  N1253  1  0.350000  0.335100  0.165800  1
  N  N1254  1  0.650000  0.664900  0.834200  1
  N  N1255  1  0.248100  0.339000  0.221700  1
  N  N1256  1  0.751900  0.661000  0.778300  1
  N  N1257  1  0.481700  0.459600  0.295800  1
  N  N1258  1  0.518300  0.540400  0.704200  1
  N  N1259  1  0.524600  0.407000  0.311300  1
  N  N1260  1  0.475400  0.593000  0.688700  1
  N  N1261  1  0.492100  0.394200  0.231800  1
  N  N1262  1  0.507900  0.605800  0.768200  1
  N  N1263  1  0.536700  0.350100  0.253900  1
  N  N1264  1  0.463300  0.649900  0.746100  1
  N  N1265  1  0.393600  0.383100  0.300800  1
  N  N1266  1  0.606400  0.616900  0.699200  1
  N  N1267  1  0.447700  0.338500  0.313000  1
  N  N1268  1  0.552300  0.661500  0.687000  1
  N  N1269  1  0.004700  0.731200  0.031100  1
  N  N1270  1  0.995300  0.268800  0.968900  1
  N  N1271  1  0.117200  0.177300  0.116800  1
  N  N1272  1  0.882800  0.822700  0.883200  1
  N  N1273  1  0.359100  0.828600  0.371900  1
  N  N1274  1  0.640900  0.171400  0.628100  1
  N  N1275  1  0.983400  0.384400  0.546000  1
  N  N1276  1  0.016600  0.615600  0.454000  1
  N  N1277  1  0.536600  0.607900  0.952900  1
  N  N1278  1  0.463400  0.392100  0.047100  1
  N  N1279  1  0.406500  0.736300  0.273400  1
  N  N1280  1  0.593500  0.263700  0.726600  1
  N  N1281  1  0.068700  0.261800  0.216700  1
  N  N1282  1  0.931300  0.738200  0.783300  1
  N  N1283  1  0.163600  0.114200  0.280200  1
  N  N1284  1  0.836400  0.885800  0.719800  1
  N  N1285  1  0.308600  0.887700  0.214600  1
  N  N1286  1  0.691400  0.112300  0.785400  1
  N  N1287  1  0.258600  0.319600  0.486300  1
  N  N1288  1  0.741400  0.680400  0.513700  1
  N  N1289  1  0.864500  0.760800  0.444800  1
  N  N1290  1  0.135500  0.239200  0.555200  1
  N  N1291  1  0.628900  0.241500  0.055800  1
  N  N1292  1  0.371100  0.758500  0.944200  1
  N  N1293  1  0.733300  0.854800  0.335900  1
  N  N1294  1  0.266700  0.145200  0.664100  1
  N  N1295  1  0.734200  0.142000  0.177100  1
  N  N1296  1  0.265800  0.858000  0.822900  1
  N  N1297  1  0.194500  0.680800  0.999700  1
  N  N1298  1  0.805500  0.319200  0.000300  1
  N  N1299  1  0.962000  0.049900  0.958500  1
  N  N1300  1  0.038000  0.950100  0.041500  1
  N  N1301  1  0.490700  0.265600  0.450200  1
  N  N1302  1  0.509300  0.734400  0.549800  1
  N  N1303  1  0.359900  0.350200  0.738500  1
  N  N1304  1  0.640100  0.649800  0.261500  1
  N  N1305  1  0.486900  0.060600  0.477500  1
  N  N1306  1  0.513100  0.939400  0.522500  1
  N  N1307  1  0.848600  0.354100  0.240800  1
  N  N1308  1  0.151400  0.645900  0.759200  1
  N  N1309  1  0.380100  0.953500  0.000300  1.0
  N  N1310  1  0.619900  0.046500  0.999700  1.0
  N  N1311  1  0.521400  0.066200  0.942200  1.0
  N  N1312  1  0.478600  0.933800  0.057800  1.0
  N  N1313  1  0.477800  0.935400  0.883600  1.0
  N  N1314  1  0.522200  0.064600  0.116400  1.0
  N  N1315  1  0.436600  0.826700  0.095600  1.0
  N  N1316  1  0.563400  0.173300  0.904400  1.0
  N  N1317  1  0.470000  0.831400  0.017700  1.0
  N  N1318  1  0.530000  0.168600  0.982300  1.0
  N  N1319  1  0.323200  0.947700  0.089300  1.0
  N  N1320  1  0.676800  0.052300  0.910700  1.0
  N  N1321  1  0.311100  0.864000  0.050500  1.0
  N  N1322  1  0.688900  0.136000  0.949500  1.0
  N  N1323  1  0.391300  0.098200  0.875200  1.0
  N  N1324  1  0.608700  0.901800  0.124800  1.0
  N  N1325  1  0.330900  0.144100  0.869600  1.0
  N  N1326  1  0.669100  0.855900  0.130400  1.0
  N  N1327  1  0.297700  0.032600  0.911600  1.0
  N  N1328  1  0.702300  0.967400  0.088400  1.0
  N  N1329  1  0.249400  0.083200  0.899400  1.0
  N  N1330  1  0.750600  0.916800  0.100600  1.0
  N  N1331  1  0.330300  0.109600  0.956500  1.0
  N  N1332  1  0.669700  0.890400  0.043500  1.0
  N  N1333  1  0.279600  0.152400  0.938800  1.0
  N  N1334  1  0.720400  0.847600  0.061200  1.0
  N  N1335  1  0.012400  0.070400  0.444800  1.0
  N  N1336  1  0.987600  0.929600  0.555200  1.0
  N  N1337  1  0.116100  0.045200  0.491300  1.0
  N  N1338  1  0.883900  0.954800  0.508700  1.0
  N  N1339  1  0.960700  0.937800  0.388800  1.0
  N  N1340  1  0.039300  0.062200  0.611200  1.0
  N  N1341  1  0.169800  0.134600  0.447100  1.0
  N  N1342  1  0.830200  0.865400  0.552900  1.0
  N  N1343  1  0.152300  0.052600  0.410700  1.0
  N  N1344  1  0.847700  0.947400  0.589300  1.0
  N  N1345  1  0.027800  0.160200  0.481660  1.0
  N  N1346  1  0.972200  0.839800  0.518340  1.0
  N  N1347  1  0.055000  0.164900  0.405600  1.0
  N  N1348  1  0.945000  0.835100  0.594400  1.0
  N  N1349  1  0.782500  0.034100  0.425200  1.0
  N  N1350  1  0.217500  0.965900  0.574800  1.0
  N  N1351  1  0.734100  0.085300  0.414100  1.0
  N  N1352  1  0.265900  0.914700  0.585900  1.0
  N  N1353  1  0.875800  0.101100  0.382000  1.0
  N  N1354  1  0.124200  0.898900  0.618000  1.0
  N  N1355  1  0.815400  0.145400  0.378100  1.0
  N  N1356  1  0.184600  0.854600  0.621900  1.0
  N  N1357  1  0.821500  0.112900  0.466000  1.0
  N  N1358  1  0.178500  0.887100  0.534000  1.0
  N  N1359  1  0.771300  0.156400  0.448400  1.0
  N  N1360  1  0.228700  0.843600  0.551600  1.0
  O  O1361  1  0.092500  0.350400  0.354500  1
  O  O1362  1  0.907500  0.649600  0.645500  1
  O  O1363  1  0.402700  0.643700  0.142000  1
  O  O1364  1  0.597300  0.356300  0.858000  1
  O  O1365  1  0.401400  0.150200  0.123400  1
  O  O1366  1  0.598600  0.849800  0.876600  1
  O  O1367  1  0.073000  0.852000  0.371600  1
  O  O1368  1  0.927000  0.148000  0.628400  1
  F  F1369  1  0.530000  0.107600  0.307700  1
  F  F1370  1  0.470000  0.892400  0.692300  1
  F  F1371  1  0.522200  0.048900  0.272200  1
  F  F1372  1  0.477800  0.951100  0.727800  1
  F  F1373  1  0.428700  0.139600  0.284300  1
  F  F1374  1  0.571300  0.860400  0.715700  1
  F  F1375  1  0.448400  0.095800  0.352500  1
  F  F1376  1  0.551600  0.904200  0.647500  1
  F  F1377  1  0.406200  0.053400  0.306600  1
  F  F1378  1  0.593800  0.946600  0.693400  1
  F  F1379  1  0.506000  0.022000  0.327900  1
  F  F1380  1  0.494000  0.978000  0.672100  1
  F  F1381  1  0.203900  0.549900  0.590500  1
  F  F1382  1  0.796100  0.450100  0.409500  1
  F  F1383  1  0.191500  0.650000  0.556300  1
  F  F1384  1  0.808500  0.350000  0.443700  1
  F  F1385  1  0.283000  0.592800  0.584000  1
  F  F1386  1  0.717000  0.407200  0.416000  1
  F  F1387  1  0.283200  0.609500  0.517400  1
  F  F1388  1  0.716800  0.390500  0.482600  1
  F  F1389  1  0.178000  0.599200  0.520400  1
  F  F1390  1  0.822000  0.400800  0.479600  1
  F  F1391  1  0.265800  0.532500  0.534700  1
  F  F1392  1  0.734200  0.467500  0.465300  1
  F  F1393  1  0.317000  0.402400  0.972800  1
  F  F1394  1  0.683000  0.597600  0.027200  1
  F  F1395  1  0.190900  0.426500  0.925200  1
  F  F1396  1  0.809100  0.573500  0.074800  1
  F  F1397  1  0.196900  0.462200  0.978700  1
  F  F1398  1  0.803100  0.537800  0.021300  1
  F  F1399  1  0.318700  0.376900  0.919900  1
  F  F1400  1  0.681300  0.623100  0.080100  1
  F  F1401  1  0.289200  0.472900  0.929000  1
  F  F1402  1  0.710800  0.527100  0.071000  1
  F  F1403  1  0.248000  0.362100  0.973200  1
  F  F1404  1  0.752000  0.637900  0.026800  1
  F  F1405  1  0.481700  0.068200  0.261800  1
  F  F1406  1  0.518300  0.931800  0.738200  1
  F  F1407  1  0.419100  0.115200  0.343500  1
  F  F1408  1  0.580900  0.884800  0.656500  1
  F  F1409  1  0.198700  0.555400  0.527800  1
  F  F1410  1  0.801300  0.444600  0.472200  1
  F  F1411  1  0.171300  0.578100  0.586300  1
  F  F1412  1  0.828700  0.421900  0.413700  1
  F  F1413  1  0.286300  0.520700  0.563900  1
  F  F1414  1  0.713700  0.479300  0.436100  1
  F  F1415  1  0.200600  0.391200  0.973100  1
  F  F1416  1  0.799400  0.608800  0.026900  1
  F  F1417  1  0.239600  0.474100  0.971000  1
  F  F1418  1  0.760400  0.525900  0.029000  1
  F  F1419  1  0.274600  0.373300  0.912800  1
  F  F1420  1  0.725400  0.626700  0.087200  1
  F  F1421  1  0.320800  0.441800  0.905100  1
  F  F1422  1  0.679200  0.558200  0.094900  1
  F  F1423  1  0.214800  0.462000  0.912100  1
  F  F1424  1  0.785200  0.538000  0.087900  1
  F  F1425  1  0.035200  0.846300  0.207600  1
  F  F1426  1  0.964800  0.153700  0.792400  1
  F  F1427  1  0.047700  0.962700  0.188400  1
  F  F1428  1  0.952300  0.037300  0.811600  1
  F  F1429  1  0.943600  0.965600  0.183900  1
  F  F1430  1  0.056400  0.034400  0.816100  1
  F  F1431  1  0.031800  0.896800  0.153500  1
  F  F1432  1  0.968200  0.103200  0.846500  1
  F  F1433  1  0.982800  0.934700  0.240300  1
  F  F1434  1  0.017200  0.065300  0.759700  1
  F  F1435  1  0.056900  0.866900  0.222900  1
  F  F1436  1  0.943100  0.133100  0.777100  1
  F  F1437  1  0.095600  0.892800  0.197500  1
  F  F1438  1  0.904400  0.107200  0.802500  1
  F  F1439  1  0.955500  0.864800  0.208700  1
  F  F1440  1  0.044500  0.135200  0.791300  1
  F  F1441  1  0.939100  0.901200  0.195700  1
  F  F1442  1  0.060900  0.098800  0.804300  1
