
#######################################################################
#
#                 Cambridge Crystallographic Data Centre
#                                CCDC 
#
#######################################################################
#
# If this CIF has been generated from an entry in the Cambridge 
# Structural Database, then it will include bibliographic, chemical, 
# crystal, experimental, refinement or atomic coordinate data resulting 
# from the CCDC's data processing and validation procedures.
#
#######################################################################

data_DAPGUZ03
_chemical_formula_moiety         
'C84 H92 B2 Co2 Fe2 N26 2+,2(C7 H5 N1 O1),8(C7 H5 N1),2(F6 P1 1-)'
_chemical_name_systematic        
"tetrakis(\m-cyano)-bis(cyano)-tetrakis(4,4'-dimethyl-2,2'-bipyridine)-bis(hydrogen tris(3,5-dimethylpyrazolyl)borate)-di-cobalt-di-iron bis(hexafluorophosphate) bis(4-cyanophenol) benzonitrile solvate"
_symmetry_cell_setting           triclinic
_symmetry_space_group_name_H-M   'P -1'
_symmetry_Int_Tables_number      2
_space_group_name_Hall           '-P 1'
loop_
_symmetry_equiv_pos_site_id
_symmetry_equiv_pos_as_xyz
1 x,y,z
2 -x,-y,-z
_cell_length_a                   18.706(4)
_cell_length_b                   20.342(5)
_cell_length_c                   23.682(5)
_cell_angle_alpha                74.444(3)
_cell_angle_beta                 89.818(3)
_cell_angle_gamma                66.234(3)
_cell_volume                     7888.69
_exptl_crystal_colour            'dark red'
_exptl_crystal_description       plate
_cell_formula_units_Z            2
loop_
_atom_site_label
_atom_site_type_symbol
_atom_site_fract_x
_atom_site_fract_y
_atom_site_fract_z
O1 O 0.7427(4) 0.4741(4) 0.8535(3)
H1 H 0.7428 0.4405 0.8820
C1 C 1.0037(7) 0.5304(6) 0.8743(5)
C2 C 0.9381(6) 0.5146(6) 0.8691(4)
C3 C 0.9376(6) 0.4478(5) 0.9010(4)
H2 H 0.9823 0.4118 0.9261
C4 C 0.8722(6) 0.4325(5) 0.8969(4)
H3 H 0.8728 0.3869 0.9189
C5 C 0.8077(6) 0.4853(5) 0.8601(4)
C6 C 0.8054(6) 0.5537(5) 0.8267(4)
H4 H 0.7607 0.5898 0.8016
C7 C 0.8727(7) 0.5664(6) 0.8321(4)
H5 H 0.8729 0.6115 0.8098
N1 N 1.0572(6) 0.5438(6) 0.8800(5)
B1 B 0.0977(6) 0.1666(5) 0.6546(4)
H6 H 0.1217 0.1208 0.6878
C8 C -0.1119(5) 0.2806(4) 0.6152(3)
C9 C 0.0760(4) 0.3534(3) 0.4940(3)
C10 C -0.0417(4) 0.4055(4) 0.5598(3)
C11 C -0.0517(5) 0.3338(4) 0.4834(3)
C12 C 0.2285(4) 0.5465(4) 0.3267(3)
H7 H 0.2704 0.5193 0.3566
C13 C 0.2315(5) 0.6034(4) 0.2826(3)
H8 H 0.2761 0.6131 0.2821
C14 C 0.1693(5) 0.6475(4) 0.2381(3)
C15 C 0.1064(5) 0.6280(4) 0.2395(3)
H9 H 0.0640 0.6548 0.2100
C16 C 0.1065(4) 0.5681(3) 0.2851(3)
C17 C 0.0422(4) 0.5419(3) 0.2877(3)
C18 C -0.0229(5) 0.5757(4) 0.2468(3)
H10 H -0.0298 0.6190 0.2170
C19 C -0.0779(5) 0.5474(4) 0.2489(3)
C20 C -0.0650(4) 0.4844(4) 0.2941(3)
H11 H -0.1006 0.4627 0.2972
C21 C 0.0006(4) 0.4529(4) 0.3353(3)
H12 H 0.0083 0.4098 0.3655
C22 C 0.1724(6) 0.7113(5) 0.1893(3)
H13 H 0.2023 0.7331 0.2044
H14 H 0.1199 0.7488 0.1748
H15 H 0.1970 0.6926 0.1578
C23 C -0.1527(5) 0.5855(5) 0.2049(4)
H16 H -0.1778 0.6379 0.2025
H17 H -0.1879 0.5624 0.2180
H18 H -0.1392 0.5802 0.1668
C24 C 0.2611(5) 0.4498(4) 0.4917(3)
H19 H 0.2171 0.4866 0.5004
C25 C 0.3337(6) 0.4301(5) 0.5201(4)
H20 H 0.3382 0.4537 0.5477
C26 C 0.3992(6) 0.3765(6) 0.5084(4)
C27 C 0.3899(5) 0.3420(5) 0.4679(4)
H21 H 0.4335 0.3048 0.4591
C28 C 0.3172(5) 0.3624(4) 0.4407(3)
C29 C 0.3009(5) 0.3275(4) 0.3970(3)
C30 C 0.3585(5) 0.2704(4) 0.3814(3)
H22 H 0.4102 0.2526 0.3979
C31 C 0.3409(6) 0.2388(5) 0.3415(4)
C32 C 0.2644(6) 0.2689(5) 0.3179(4)
H23 H 0.2496 0.2495 0.2910
C33 C 0.2091(5) 0.3274(4) 0.3335(3)
H24 H 0.1573 0.3470 0.3164
C34 C 0.4808(6) 0.3557(7) 0.5386(5)
H25 H 0.4877 0.4007 0.5360
H26 H 0.5204 0.3252 0.5193
H27 H 0.4856 0.3283 0.5793
C35 C 0.4034(6) 0.1726(6) 0.3275(5)
H28 H 0.3987 0.1801 0.2856
H29 H 0.3971 0.1278 0.3473
H30 H 0.4544 0.1676 0.3405
C36 C -0.1786(5) 0.3415(4) 0.5752(3)
H31 H -0.2265 0.3447 0.5915
H32 H -0.1793 0.3321 0.5377
H33 H -0.1740 0.3880 0.5701
C37 C -0.1159(6) 0.2300(4) 0.6655(3)
H34 H -0.1616 0.2299 0.6810
C38 C -0.0414(6) 0.1806(4) 0.6886(3)
C39 C -0.0112(6) 0.1152(5) 0.7440(4)
H35 H -0.0547 0.1113 0.7638
H36 H 0.0225 0.1230 0.7695
H37 H 0.0180 0.0698 0.7338
C40 C 0.0996(6) 0.2193(4) 0.4362(3)
H38 H 0.1382 0.2388 0.4250
H39 H 0.0483 0.2601 0.4293
H40 H 0.1005 0.1866 0.4133
C41 C 0.1180(5) 0.1758(4) 0.5010(3)
C42 C 0.1650(5) 0.1002(4) 0.5248(4)
H41 H 0.1915 0.0662 0.5042
C43 C 0.1652(5) 0.0850(4) 0.5845(4)
C44 C 0.2074(6) 0.0127(4) 0.6319(4)
H42 H 0.2339 -0.0267 0.6143
H43 H 0.1702 0.0010 0.6559
H44 H 0.2452 0.0174 0.6560
C45 C 0.1239(5) 0.4086(4) 0.5960(3)
H45 H 0.1500 0.4283 0.6172
H46 H 0.0688 0.4414 0.5875
H47 H 0.1461 0.4052 0.5597
C46 C 0.1344(4) 0.3322(4) 0.6327(3)
C47 C 0.1783(5) 0.2917(5) 0.6866(3)
H48 H 0.2081 0.3065 0.7074
C48 C 0.1703(5) 0.2267(5) 0.7039(3)
C49 C 0.2059(6) 0.1594(5) 0.7603(4)
H49 H 0.2457 0.1177 0.7506
H50 H 0.1652 0.1454 0.7765
H51 H 0.2287 0.1734 0.7888
Co1 Co 0.14565(5) 0.44919(4) 0.39886(3)
Fe1 Fe 0.02271(6) 0.30892(5) 0.55014(4)
N2 N 0.1072(3) 0.3802(3) 0.4596(2)
N3 N -0.0807(3) 0.4604(3) 0.5682(2)
N4 N -0.0959(4) 0.3522(4) 0.4430(3)
N5 N 0.1657(3) 0.5278(3) 0.3289(2)
N6 N 0.0529(3) 0.4819(3) 0.3331(2)
N7 N 0.2525(3) 0.4166(3) 0.4511(2)
N8 N 0.2261(3) 0.3575(3) 0.3721(2)
N9 N -0.0360(4) 0.2639(3) 0.6068(2)
N10 N 0.0083(4) 0.2002(3) 0.6523(2)
N11 N 0.0893(3) 0.2071(3) 0.5439(2)
N12 N 0.1197(4) 0.1492(3) 0.5955(2)
N13 N 0.0996(3) 0.2917(3) 0.6168(2)
N14 N 0.1250(3) 0.2251(3) 0.6611(2)
B1A B -0.0977(6) 0.8334(5) 0.3454(4)
H6A H -0.1217 0.8792 0.3122
C8A C 0.1119(5) 0.7194(4) 0.3848(3)
C9A C -0.0760(4) 0.6466(3) 0.5060(3)
C10A C 0.0417(4) 0.5945(4) 0.4402(3)
C11A C 0.0517(5) 0.6662(4) 0.5166(3)
C12A C -0.2285(4) 0.4535(4) 0.6733(3)
H7A H -0.2704 0.4807 0.6434
C13A C -0.2315(5) 0.3966(4) 0.7174(3)
H8A H -0.2761 0.3869 0.7179
C14A C -0.1693(5) 0.3525(4) 0.7619(3)
C15A C -0.1064(5) 0.3720(4) 0.7605(3)
H9A H -0.0640 0.3452 0.7900
C16A C -0.1065(4) 0.4319(3) 0.7149(3)
C17A C -0.0422(4) 0.4581(3) 0.7123(3)
C18A C 0.0229(5) 0.4243(4) 0.7532(3)
H10A H 0.0298 0.3810 0.7830
C19A C 0.0779(5) 0.4526(4) 0.7511(3)
C20A C 0.0650(4) 0.5156(4) 0.7059(3)
H11A H 0.1006 0.5373 0.7028
C21A C -0.0006(4) 0.5471(4) 0.6647(3)
H12A H -0.0083 0.5902 0.6345
C22A C -0.1724(6) 0.2887(5) 0.8107(3)
H13A H -0.2023 0.2669 0.7956
H14A H -0.1199 0.2512 0.8252
H15A H -0.1970 0.3074 0.8422
C23A C 0.1527(5) 0.4145(5) 0.7951(4)
H16A H 0.1778 0.3621 0.7975
H17A H 0.1879 0.4376 0.7820
H18A H 0.1392 0.4198 0.8332
C24A C -0.2611(5) 0.5502(4) 0.5083(3)
H19A H -0.2171 0.5134 0.4996
C25A C -0.3337(6) 0.5699(5) 0.4799(4)
H20A H -0.3382 0.5463 0.4523
C26A C -0.3992(6) 0.6235(6) 0.4916(4)
C27A C -0.3899(5) 0.6580(5) 0.5321(4)
H21A H -0.4335 0.6952 0.5409
C28A C -0.3172(5) 0.6376(4) 0.5593(3)
C29A C -0.3009(5) 0.6725(4) 0.6030(3)
C30A C -0.3585(5) 0.7296(4) 0.6186(3)
H22A H -0.4102 0.7474 0.6021
C31A C -0.3409(6) 0.7612(5) 0.6585(4)
C32A C -0.2644(6) 0.7311(5) 0.6821(4)
H23A H -0.2496 0.7505 0.7090
C33A C -0.2091(5) 0.6726(4) 0.6665(3)
H24A H -0.1573 0.6530 0.6836
C34A C -0.4808(6) 0.6443(7) 0.4614(5)
H25A H -0.4877 0.5993 0.4640
H26A H -0.5204 0.6748 0.4807
H27A H -0.4856 0.6717 0.4207
C35A C -0.4034(6) 0.8274(6) 0.6725(5)
H28A H -0.3987 0.8199 0.7144
H29A H -0.3971 0.8722 0.6527
H30A H -0.4544 0.8324 0.6595
C36A C 0.1786(5) 0.6585(4) 0.4248(3)
H31A H 0.2265 0.6553 0.4085
H32A H 0.1793 0.6679 0.4623
H33A H 0.1740 0.6120 0.4299
C37A C 0.1159(6) 0.7700(4) 0.3345(3)
H34A H 0.1616 0.7701 0.3190
C38A C 0.0414(6) 0.8194(4) 0.3114(3)
C39A C 0.0112(6) 0.8848(5) 0.2560(4)
H35A H 0.0547 0.8887 0.2362
H36A H -0.0225 0.8770 0.2305
H37A H -0.0180 0.9302 0.2662
C40A C -0.0996(6) 0.7807(4) 0.5638(3)
H38A H -0.1382 0.7612 0.5750
H39A H -0.0483 0.7399 0.5707
H40A H -0.1005 0.8134 0.5867
C41A C -0.1180(5) 0.8242(4) 0.4990(3)
C42A C -0.1650(5) 0.8998(4) 0.4752(4)
H41A H -0.1915 0.9338 0.4958
C43A C -0.1652(5) 0.9150(4) 0.4155(4)
C44A C -0.2074(6) 0.9873(4) 0.3681(4)
H42A H -0.2339 1.0267 0.3857
H43A H -0.1702 0.9990 0.3441
H44A H -0.2452 0.9826 0.3440
C45A C -0.1239(5) 0.5914(4) 0.4040(3)
H45A H -0.1500 0.5717 0.3828
H46A H -0.0688 0.5586 0.4125
H47A H -0.1461 0.5948 0.4403
C46A C -0.1344(4) 0.6678(4) 0.3673(3)
C47A C -0.1783(5) 0.7083(5) 0.3134(3)
H48A H -0.2081 0.6935 0.2926
C48A C -0.1703(5) 0.7733(5) 0.2961(3)
C49A C -0.2059(6) 0.8406(5) 0.2397(4)
H49A H -0.2457 0.8823 0.2494
H50A H -0.1652 0.8546 0.2235
H51A H -0.2287 0.8266 0.2112
Co1A Co -0.14565(5) 0.55081(4) 0.60114(3)
Fe1A Fe -0.02271(6) 0.69108(5) 0.44986(4)
N2A N -0.1072(3) 0.6198(3) 0.5404(2)
N3A N 0.0807(3) 0.5396(3) 0.4318(2)
N4A N 0.0959(4) 0.6478(4) 0.5570(3)
N5A N -0.1657(3) 0.4722(3) 0.6711(2)
N6A N -0.0529(3) 0.5181(3) 0.6669(2)
N7A N -0.2525(3) 0.5834(3) 0.5489(2)
N8A N -0.2261(3) 0.6425(3) 0.6279(2)
N9A N 0.0360(4) 0.7361(3) 0.3932(2)
N10A N -0.0083(4) 0.7998(3) 0.3477(2)
N11A N -0.0893(3) 0.7929(3) 0.4561(2)
N12A N -0.1197(4) 0.8508(3) 0.4045(2)
N13A N -0.0996(3) 0.7083(3) 0.3832(2)
N14A N -0.1250(3) 0.7749(3) 0.3389(2)
B2 B 0.3007(6) 0.8354(5) -0.1446(4)
H52 H 0.2841 0.8822 -0.1769
C50 C 0.4449(4) 0.6456(3) 0.0117(3)
C51 C 0.3730(3) 0.5947(3) -0.0559(2)
C52 C 0.3002(4) 0.6617(4) 0.0227(3)
C53 C 0.7677(5) 0.4465(4) 0.1765(3)
H53 H 0.7850 0.4755 0.1473
C54 C 0.8232(5) 0.3877(4) 0.2193(3)
H54 H 0.8762 0.3781 0.2191
C55 C 0.7988(5) 0.3431(4) 0.2629(3)
C56 C 0.7189(5) 0.3626(4) 0.2608(3)
H55 H 0.7005 0.3348 0.2901
C57 C 0.6652(4) 0.4222(4) 0.2166(2)
C58 C 0.5792(4) 0.4478(4) 0.2141(3)
C59 C 0.5431(5) 0.4121(4) 0.2539(3)
H56 H 0.5733 0.3680 0.2832
C60 C 0.4603(5) 0.4425(5) 0.2502(3)
C61 C 0.4203(5) 0.5068(4) 0.2077(3)
H57 H 0.3657 0.5297 0.2049
C62 C 0.4594(5) 0.5393(4) 0.1681(3)
H58 H 0.4298 0.5834 0.1386
C63 C 0.8572(5) 0.2766(5) 0.3112(4)
H59 H 0.8909 0.2392 0.2939
H60 H 0.8291 0.2554 0.3389
H61 H 0.8884 0.2931 0.3311
C64 C 0.4206(5) 0.4017(5) 0.2921(4)
H62 H 0.4520 0.3485 0.3020
H63 H 0.3696 0.4133 0.2736
H64 H 0.4150 0.4172 0.3274
C65 C 0.7197(4) 0.5526(4) 0.0126(3)
H65 H 0.7072 0.5177 0.0014
C66 C 0.7766(5) 0.5713(4) -0.0134(3)
H66 H 0.8025 0.5487 -0.0413
C67 C 0.7960(5) 0.6233(5) 0.0016(4)
C68 C 0.7555(4) 0.6546(4) 0.0435(3)
H67 H 0.7677 0.6895 0.0551
C69 C 0.6977(4) 0.6352(3) 0.0683(3)
C70 C 0.6507(4) 0.6679(3) 0.1126(3)
C71 C 0.6557(5) 0.7252(4) 0.1301(3)
H68 H 0.6900 0.7458 0.1138
C72 C 0.6110(5) 0.7523(4) 0.1713(3)
C73 C 0.5615(5) 0.7205(4) 0.1934(3)
H69 H 0.5307 0.7368 0.2220
C74 C 0.5565(4) 0.6651(4) 0.1743(3)
H70 H 0.5207 0.6456 0.1892
C75 C 0.8600(6) 0.6445(7) -0.0266(4)
H71 H 0.9107 0.6065 -0.0078
H72 H 0.8538 0.6918 -0.0218
H73 H 0.8558 0.6485 -0.0679
C76 C 0.6174(6) 0.8143(5) 0.1913(5)
H74 H 0.6694 0.7970 0.2106
H75 H 0.5796 0.8282 0.2183
H76 H 0.6072 0.8570 0.1577
C77 C 0.1811(4) 0.6550(4) -0.0694(3)
H77 H 0.1557 0.6698 -0.0367
H78 H 0.2309 0.6128 -0.0549
H79 H 0.1485 0.6413 -0.0908
C78 C 0.1938(4) 0.7184(4) -0.1090(3)
C79 C 0.1454(5) 0.7708(4) -0.1598(3)
H80 H 0.0995 0.7716 -0.1756
C80 C 0.1771(5) 0.8199(4) -0.1820(3)
C81 C 0.1511(6) 0.8873(5) -0.2356(4)
H81 H 0.1855 0.8760 -0.2652
H82 H 0.1528 0.9290 -0.2249
H83 H 0.0983 0.8999 -0.2510
C82 C 0.3466(5) 0.7746(4) 0.0733(3)
H84 H 0.3951 0.7311 0.0776
H85 H 0.3056 0.7592 0.0860
H86 H 0.3527 0.8041 0.0969
C83 C 0.3259(4) 0.8198(4) 0.0108(3)
C84 C 0.3034(5) 0.8959(4) -0.0123(4)
H87 H 0.2974 0.9294 0.0094
C85 C 0.2915(5) 0.9139(4) -0.0721(4)
C86 C 0.2659(6) 0.9889(4) -0.1187(4)
H88 H 0.2591 1.0272 -0.1000
H89 H 0.2170 1.0006 -0.1405
H90 H 0.3053 0.9866 -0.1451
C87 C 0.5405(4) 0.5936(4) -0.0919(3)
H91 H 0.5838 0.5756 -0.1138
H92 H 0.5145 0.5606 -0.0846
H93 H 0.5598 0.5952 -0.0549
C88 C 0.4839(5) 0.6706(4) -0.1264(3)
C89 C 0.4951(5) 0.7152(5) -0.1791(3)
H94 H 0.5381 0.7014 -0.2001
C90 C 0.4315(6) 0.7819(5) -0.1937(3)
C91 C 0.4092(6) 0.8515(5) -0.2461(4)
H95 H 0.4206 0.8885 -0.2347
H96 H 0.3541 0.8716 -0.2592
H97 H 0.4390 0.8386 -0.2776
Co2 Co 0.60104(5) 0.54735(4) 0.10430(3)
Fe2 Fe 0.35192(5) 0.69039(4) -0.04406(4)
N15 N 0.5007(3) 0.6180(3) 0.0449(2)
N16 N 0.3833(3) 0.5399(3) -0.0668(2)
N17 N 0.2715(4) 0.6422(4) 0.0622(3)
N18 N 0.6909(3) 0.4646(3) 0.1741(2)
N19 N 0.5372(3) 0.5107(3) 0.1701(2)
N20 N 0.6810(3) 0.5823(3) 0.0536(2)
N21 N 0.6010(3) 0.6375(3) 0.1346(2)
N22 N 0.2536(3) 0.7360(3) -0.1006(2)
N23 N 0.2430(4) 0.7993(3) -0.1455(2)
N24 N 0.3282(3) 0.7905(3) -0.0345(2)
N25 N 0.3056(3) 0.8502(3) -0.0856(2)
N26 N 0.4145(4) 0.7101(3) -0.1101(2)
N27 N 0.3815(4) 0.7787(3) -0.1519(2)
B2A B 0.6993(6) 0.1646(5) 0.1446(4)
H52A H 0.7159 0.1178 0.1769
C50A C 0.5551(4) 0.3544(3) -0.0117(3)
C51A C 0.6270(3) 0.4053(3) 0.0559(2)
C52A C 0.6998(4) 0.3383(4) -0.0227(3)
C53A C 0.2323(5) 0.5535(4) -0.1765(3)
H53A H 0.2150 0.5245 -0.1473
C54A C 0.1768(5) 0.6123(4) -0.2193(3)
H54A H 0.1238 0.6219 -0.2191
C55A C 0.2012(5) 0.6569(4) -0.2629(3)
C56A C 0.2811(5) 0.6374(4) -0.2608(3)
H55A H 0.2995 0.6652 -0.2901
C57A C 0.3348(4) 0.5778(4) -0.2166(2)
C58A C 0.4208(4) 0.5522(4) -0.2141(3)
C59A C 0.4569(5) 0.5879(4) -0.2539(3)
H56A H 0.4267 0.6320 -0.2832
C60A C 0.5397(5) 0.5575(5) -0.2502(3)
C61A C 0.5797(5) 0.4932(4) -0.2077(3)
H57A H 0.6343 0.4703 -0.2049
C62A C 0.5406(5) 0.4607(4) -0.1681(3)
H58A H 0.5702 0.4166 -0.1386
C63A C 0.1428(5) 0.7234(5) -0.3112(4)
H59A H 0.1091 0.7608 -0.2939
H60A H 0.1709 0.7446 -0.3389
H61A H 0.1116 0.7069 -0.3311
C64A C 0.5794(5) 0.5983(5) -0.2921(4)
H62A H 0.5480 0.6515 -0.3020
H63A H 0.6304 0.5867 -0.2736
H64A H 0.5850 0.5828 -0.3274
C65A C 0.2803(4) 0.4474(4) -0.0126(3)
H65A H 0.2928 0.4823 -0.0014
C66A C 0.2234(5) 0.4287(4) 0.0134(3)
H66A H 0.1975 0.4513 0.0413
C67A C 0.2040(5) 0.3767(5) -0.0016(4)
C68A C 0.2445(4) 0.3454(4) -0.0435(3)
H67A H 0.2323 0.3105 -0.0551
C69A C 0.3023(4) 0.3648(3) -0.0683(3)
C70A C 0.3493(4) 0.3321(3) -0.1126(3)
C71A C 0.3443(5) 0.2748(4) -0.1301(3)
H68A H 0.3100 0.2542 -0.1138
C72A C 0.3890(5) 0.2477(4) -0.1713(3)
C73A C 0.4385(5) 0.2795(4) -0.1934(3)
H69A H 0.4693 0.2632 -0.2220
C74A C 0.4435(4) 0.3349(4) -0.1743(3)
H70A H 0.4793 0.3544 -0.1892
C75A C 0.1400(6) 0.3555(7) 0.0266(4)
H71A H 0.0893 0.3935 0.0078
H72A H 0.1462 0.3082 0.0218
H73A H 0.1442 0.3515 0.0679
C76A C 0.3826(6) 0.1857(5) -0.1913(5)
H74A H 0.3306 0.2030 -0.2106
H75A H 0.4204 0.1718 -0.2183
H76A H 0.3928 0.1430 -0.1577
C77A C 0.8189(4) 0.3450(4) 0.0694(3)
H77A H 0.8443 0.3302 0.0367
H78A H 0.7691 0.3872 0.0549
H79A H 0.8515 0.3587 0.0908
C78A C 0.8062(4) 0.2816(4) 0.1090(3)
C79A C 0.8546(5) 0.2292(4) 0.1598(3)
H80A H 0.9005 0.2284 0.1756
C80A C 0.8229(5) 0.1801(4) 0.1820(3)
C81A C 0.8489(6) 0.1127(5) 0.2356(4)
H81A H 0.8145 0.1240 0.2652
H82A H 0.8472 0.0710 0.2249
H83A H 0.9017 0.1001 0.2510
C82A C 0.6534(5) 0.2254(4) -0.0733(3)
H84A H 0.6049 0.2689 -0.0776
H85A H 0.6944 0.2408 -0.0860
H86A H 0.6473 0.1959 -0.0969
C83A C 0.6741(4) 0.1802(4) -0.0108(3)
C84A C 0.6966(5) 0.1041(4) 0.0123(4)
H87A H 0.7026 0.0706 -0.0094
C85A C 0.7085(5) 0.0861(4) 0.0721(4)
C86A C 0.7341(6) 0.0111(4) 0.1187(4)
H88A H 0.7409 -0.0272 0.1000
H89A H 0.7830 -0.0006 0.1405
H90A H 0.6947 0.0134 0.1451
C87A C 0.4595(4) 0.4064(4) 0.0919(3)
H91A H 0.4162 0.4244 0.1138
H92A H 0.4855 0.4394 0.0846
H93A H 0.4402 0.4048 0.0549
C88A C 0.5161(5) 0.3294(4) 0.1264(3)
C89A C 0.5049(5) 0.2848(5) 0.1791(3)
H94A H 0.4619 0.2986 0.2001
C90A C 0.5685(6) 0.2181(5) 0.1937(3)
C91A C 0.5908(6) 0.1485(5) 0.2461(4)
H95A H 0.5794 0.1115 0.2347
H96A H 0.6459 0.1284 0.2592
H97A H 0.5610 0.1614 0.2776
Co2A Co 0.39896(5) 0.45265(4) -0.10430(3)
Fe2A Fe 0.64808(5) 0.30961(4) 0.04406(4)
N15A N 0.4993(3) 0.3820(3) -0.0449(2)
N16A N 0.6167(3) 0.4601(3) 0.0668(2)
N17A N 0.7285(4) 0.3578(4) -0.0622(3)
N18A N 0.3091(3) 0.5354(3) -0.1741(2)
N19A N 0.4628(3) 0.4893(3) -0.1701(2)
N20A N 0.3190(3) 0.4177(3) -0.0536(2)
N21A N 0.3990(3) 0.3625(3) -0.1346(2)
N22A N 0.7464(3) 0.2640(3) 0.1006(2)
N23A N 0.7570(4) 0.2007(3) 0.1455(2)
N24A N 0.6718(3) 0.2095(3) 0.0345(2)
N25A N 0.6944(3) 0.1498(3) 0.0856(2)
N26A N 0.5855(4) 0.2899(3) 0.1101(2)
N27A N 0.6185(4) 0.2213(3) 0.1519(2)
P1 P 0.6235(3) 0.2009(3) 0.41715(18)
F1 F 0.6821(8) 0.1153(6) 0.4521(7)
F2 F 0.5607(12) 0.2100(14) 0.3688(9)
F3 F 0.6806(8) 0.2061(10) 0.3742(5)
F4 F 0.6617(10) 0.2167(10) 0.4597(7)
F5 F 0.5653(7) 0.1817(7) 0.4568(6)
F6 F 0.5655(8) 0.2780(7) 0.3924(8)
C92 C 0.4790(9) 0.5109(7) 0.3790(5)
C93 C 0.5603(7) 0.4941(7) 0.3731(5)
C94 C 0.6184(7) 0.4293(6) 0.4077(5)
H98 H 0.6058 0.3946 0.4352
C95 C 0.6936(7) 0.4162(5) 0.4019(4)
H99 H 0.7336 0.3719 0.4249
C96 C 0.7115(6) 0.4679(6) 0.3622(4)
C97 C 0.6532(8) 0.5319(6) 0.3266(4)
H100 H 0.6662 0.5659 0.2987
C98 C 0.5775(7) 0.5459(7) 0.3319(4)
H101 H 0.5375 0.5897 0.3081
N28 N 0.4140(7) 0.5218(7) 0.3852(5)
O2 O 0.7869(4) 0.4578(5) 0.3563(3)
H102 H 0.8145 0.4313 0.3876
C99 C 0.3171(5) 0.7731(5) 0.3045(4)
C100 C 0.3545(6) 0.7300(6) 0.2654(5)
C101 C 0.3354(6) 0.7392(5) 0.3650(4)
H103 H 0.3716 0.6894 0.3796
N29 N 0.3866(7) 0.6924(7) 0.2367(6)
C102 C 0.2598(6) 0.8469(5) 0.2825(4)
H104 H 0.2454 0.8689 0.2420
C103 C 0.2995(7) 0.7800(7) 0.4038(4)
H105 H 0.3102 0.7570 0.4443
C104 C 0.2246(6) 0.8870(5) 0.3217(6)
H106 H 0.1854 0.9355 0.3075
C105 C 0.2479(7) 0.8551(7) 0.3818(5)
H107 H 0.2288 0.8841 0.4075
C106 C 0.0655(5) 0.2138(5) 0.2008(3)
C107 C 0.0514(6) 0.2501(5) 0.1405(4)
H108 H 0.0427 0.3003 0.1267
C108 C 0.0673(6) 0.2547(5) 0.2410(4)
N30 N 0.0681(7) 0.2882(6) 0.2725(4)
C109 C 0.0755(6) 0.1399(5) 0.2217(4)
H109 H 0.0835 0.1164 0.2621
C110 C 0.0614(7) 0.1363(7) 0.1221(5)
H110 H 0.0607 0.1102 0.0954
C111 C 0.0734(8) 0.1009(5) 0.1820(6)
H111 H 0.0801 0.0512 0.1958
C112 C 0.0504(7) 0.2110(7) 0.1014(4)
H112 H 0.0423 0.2346 0.0610
C113 C 0.3585(10) 0.0342(8) 0.0448(6)
C114 C 0.4081(7) -0.0381(7) 0.0806(6)
H113 H 0.4570 -0.0645 0.0699
C115 C 0.2871(8) 0.0748(8) 0.0619(7)
H114 H 0.2537 0.1218 0.0375
C116 C 0.3833(9) -0.0694(6) 0.1318(5)
H115 H 0.4124 -0.1194 0.1532
C117 C 0.3823(11) 0.0637(10) -0.0097(6)
N31 N 0.4082(10) 0.0849(10) -0.0512(6)
C118 C 0.3150(11) -0.0262(10) 0.1511(6)
H116 H 0.3020 -0.0450 0.1880
C119 C 0.2658(8) 0.0449(10) 0.1154(7)
H117 H 0.2185 0.0725 0.1276
C120 C 0.5397(8) 0.7846(6) 0.9495(6)
H118 H 0.5318 0.7502 0.9808
C121 C 0.6163(6) 0.8122(7) 0.8734(5)
C122 C 0.6014(7) 0.7606(5) 0.9179(5)
H119 H 0.6335 0.7096 0.9261
C123 C 0.6845(8) 0.7885(10) 0.8441(7)
C124 C 0.5629(7) 0.8879(6) 0.8560(5)
H120 H 0.5699 0.9219 0.8239
C125 C 0.4891(6) 0.8596(7) 0.9350(5)
H121 H 0.4477 0.8758 0.9570
N32 N 0.7366(8) 0.7700(10) 0.8179(6)
C126 C 0.4996(7) 0.9113(5) 0.8875(6)
H122 H 0.4641 0.9615 0.8770
C127 C 0.0596(11) 0.9742(7) 0.4336(6)
C128 C 0.1037(8) 0.9661(7) 0.4841(6)
H123 H 0.1153 1.0053 0.4873
C129 C 0.0651(9) 0.8527(7) 0.4748(7)
H124 H 0.0535 0.8135 0.4713
C130 C 0.1093(11) 0.8433(7) 0.5250(6)
H125 H 0.1250 0.7992 0.5560
C131 C 0.0378(8) 0.9181(7) 0.4301(5)
H126 H 0.0050 0.9249 0.3976
C132 C 0.1304(8) 0.8997(8) 0.5294(5)
H127 H 0.1622 0.8930 0.5624
C133 C 0.0324(11) 1.0427(7) 0.3860(6)
N33 N 0.0325(10) 1.1002(6) 0.3586(6)
C134 C 0.3933(10) 0.9320(7) 0.3364(6)
C135 C 0.3478(10) 0.9996(8) 0.2937(5)
H128 H 0.3561 1.0055 0.2543
C136 C 0.3817(10) 0.9242(8) 0.3956(5)
H129 H 0.4110 0.8791 0.4242
N34 N 0.4913(9) 0.8091(7) 0.3183(8)
C137 C 0.4477(10) 0.8698(8) 0.3189(9)
C138 C 0.3263(11) 0.9840(10) 0.4118(6)
H130 H 0.3189 0.9788 0.4513
C139 C 0.2905(10) 1.0577(7) 0.3098(7)
H131 H 0.2578 1.1010 0.2808
C140 C 0.2815(10) 1.0518(8) 0.3689(8)
H132 H 0.2461 1.0925 0.3799
C141 C 0.2963(10) 0.2006(7) 0.5512(7)
H133 H 0.2560 0.2487 0.5400
C142 C 0.3767(11) 0.0909(8) 0.6288(5)
C143 C 0.3331(10) 0.1688(7) 0.6080(6)
H134 H 0.3290 0.1988 0.6325
C144 C 0.4006(11) 0.0492(6) 0.5885(6)
H135 H 0.4357 -0.0012 0.6011
C145 C 0.3201(11) 0.1599(9) 0.5107(5)
H136 H 0.3017 0.1834 0.4708
C146 C 0.3714(11) 0.0841(9) 0.5296(6)
H137 H 0.3861 0.0568 0.5024
C147 C 0.4089(13) 0.0567(10) 0.6889(5)
N35 N 0.4362(11) 0.0296(9) 0.7377(5)
C148 C 0.1172(5) 0.9249(4) 0.0377(3)
C149 C 0.0976(5) 0.9913(4) -0.0069(3)
H138 H 0.0965 1.0334 0.0022
C150 C 0.1226(5) 0.8602(4) 0.0243(4)
H139 H 0.1370 0.8150 0.0540
C151 C 0.1333(6) 0.9212(5) 0.0977(3)
C152 C 0.0799(5) 0.9958(5) -0.0643(4)
H140 H 0.0644 1.0412 -0.0938
N36 N 0.1460(7) 0.9188(7) 0.1456(3)
C153 C 0.0853(6) 0.9316(6) -0.0776(4)
H141 H 0.0749 0.9336 -0.1165
C154 C 0.1061(7) 0.8646(5) -0.0333(5)
H142 H 0.1089 0.8222 -0.0427
loop_
_geom_bond_atom_site_label_1
_geom_bond_atom_site_label_2
_geom_bond_site_symmetry_1
_geom_bond_site_symmetry_2
O1 H1 1_555 1_555
C1 C2 1_555 1_555
C2 C3 1_555 1_555
C3 H2 1_555 1_555
C4 C3 1_555 1_555
H3 C4 1_555 1_555
C5 O1 1_555 1_555
C6 C5 1_555 1_555
H4 C6 1_555 1_555
C7 C2 1_555 1_555
H5 C7 1_555 1_555
N1 C1 1_555 1_555
B1 H6 1_555 1_555
C8 C36 1_555 1_555
C9 Fe1 1_555 1_555
C10 Fe1 1_555 1_555
C11 Fe1 1_555 1_555
C12 H7 1_555 1_555
C13 C12 1_555 1_555
H8 C13 1_555 1_555
C14 C13 1_555 1_555
C15 C14 1_555 1_555
H9 C15 1_555 1_555
C16 C15 1_555 1_555
C17 C16 1_555 1_555
C18 C17 1_555 1_555
H10 C18 1_555 1_555
C19 C18 1_555 1_555
C20 C19 1_555 1_555
H11 C20 1_555 1_555
C21 C20 1_555 1_555
H12 C21 1_555 1_555
C22 C14 1_555 1_555
H13 C22 1_555 1_555
H14 C22 1_555 1_555
H15 C22 1_555 1_555
C23 C19 1_555 1_555
H16 C23 1_555 1_555
H17 C23 1_555 1_555
H18 C23 1_555 1_555
C24 H19 1_555 1_555
C25 C24 1_555 1_555
H20 C25 1_555 1_555
C26 C25 1_555 1_555
C27 C26 1_555 1_555
H21 C27 1_555 1_555
C28 C27 1_555 1_555
C29 C28 1_555 1_555
C30 C29 1_555 1_555
H22 C30 1_555 1_555
C31 C30 1_555 1_555
C32 C31 1_555 1_555
H23 C32 1_555 1_555
C33 C32 1_555 1_555
H24 C33 1_555 1_555
C34 C26 1_555 1_555
H25 C34 1_555 1_555
H26 C34 1_555 1_555
H27 C34 1_555 1_555
C35 C31 1_555 1_555
H28 C35 1_555 1_555
H29 C35 1_555 1_555
H30 C35 1_555 1_555
C36 H31 1_555 1_555
H32 C36 1_555 1_555
H33 C36 1_555 1_555
C37 C8 1_555 1_555
H34 C37 1_555 1_555
C38 C37 1_555 1_555
C39 C38 1_555 1_555
H35 C39 1_555 1_555
H36 C39 1_555 1_555
H37 C39 1_555 1_555
C40 H38 1_555 1_555
H39 C40 1_555 1_555
H40 C40 1_555 1_555
C41 C40 1_555 1_555
C42 C41 1_555 1_555
H41 C42 1_555 1_555
C43 C42 1_555 1_555
C44 C43 1_555 1_555
H42 C44 1_555 1_555
H43 C44 1_555 1_555
H44 C44 1_555 1_555
C45 H45 1_555 1_555
H46 C45 1_555 1_555
H47 C45 1_555 1_555
C46 C45 1_555 1_555
C47 C46 1_555 1_555
H48 C47 1_555 1_555
C48 C47 1_555 1_555
C49 C48 1_555 1_555
H49 C49 1_555 1_555
H50 C49 1_555 1_555
H51 C49 1_555 1_555
Co1 N2 1_555 1_555
Fe1 N9 1_555 1_555
N2 C9 1_555 1_555
N3 C10 1_555 1_555
N4 C11 1_555 1_555
N5 C12 1_555 1_555
N6 C17 1_555 1_555
N7 C24 1_555 1_555
N8 C29 1_555 1_555
N9 C8 1_555 1_555
N10 B1 1_555 1_555
N11 C41 1_555 1_555
N12 B1 1_555 1_555
N13 C46 1_555 1_555
N14 B1 1_555 1_555
B2 H52 1_555 1_555
C50 Fe2 1_555 1_555
C51 Fe2 1_555 1_555
C52 Fe2 1_555 1_555
C53 H53 1_555 1_555
C54 C53 1_555 1_555
H54 C54 1_555 1_555
C55 C54 1_555 1_555
C56 C55 1_555 1_555
H55 C56 1_555 1_555
C57 C56 1_555 1_555
C58 C57 1_555 1_555
C59 C58 1_555 1_555
H56 C59 1_555 1_555
C60 C59 1_555 1_555
C61 C60 1_555 1_555
H57 C61 1_555 1_555
C62 C61 1_555 1_555
H58 C62 1_555 1_555
C63 C55 1_555 1_555
H59 C63 1_555 1_555
H60 C63 1_555 1_555
H61 C63 1_555 1_555
C64 C60 1_555 1_555
H62 C64 1_555 1_555
H63 C64 1_555 1_555
H64 C64 1_555 1_555
C65 H65 1_555 1_555
C66 C65 1_555 1_555
H66 C66 1_555 1_555
C67 C66 1_555 1_555
C68 C67 1_555 1_555
H67 C68 1_555 1_555
C69 C68 1_555 1_555
C70 C69 1_555 1_555
C71 C70 1_555 1_555
H68 C71 1_555 1_555
C72 C71 1_555 1_555
C73 C72 1_555 1_555
H69 C73 1_555 1_555
C74 C73 1_555 1_555
H70 C74 1_555 1_555
C75 C67 1_555 1_555
H71 C75 1_555 1_555
H72 C75 1_555 1_555
H73 C75 1_555 1_555
C76 C72 1_555 1_555
H74 C76 1_555 1_555
H75 C76 1_555 1_555
H76 C76 1_555 1_555
C77 H77 1_555 1_555
H78 C77 1_555 1_555
H79 C77 1_555 1_555
C78 C77 1_555 1_555
C79 C78 1_555 1_555
H80 C79 1_555 1_555
C80 C79 1_555 1_555
C81 C80 1_555 1_555
H81 C81 1_555 1_555
H82 C81 1_555 1_555
H83 C81 1_555 1_555
C82 H84 1_555 1_555
H85 C82 1_555 1_555
H86 C82 1_555 1_555
C83 C82 1_555 1_555
C84 C83 1_555 1_555
H87 C84 1_555 1_555
C85 C84 1_555 1_555
C86 C85 1_555 1_555
H88 C86 1_555 1_555
H89 C86 1_555 1_555
H90 C86 1_555 1_555
C87 H91 1_555 1_555
H92 C87 1_555 1_555
H93 C87 1_555 1_555
C88 C87 1_555 1_555
C89 C88 1_555 1_555
H94 C89 1_555 1_555
C90 C89 1_555 1_555
C91 C90 1_555 1_555
H95 C91 1_555 1_555
H96 C91 1_555 1_555
H97 C91 1_555 1_555
Co2 N15 1_555 1_555
Fe2 N22 1_555 1_555
N15 C50 1_555 1_555
N16 C51 1_555 1_555
N17 C52 1_555 1_555
N18 C53 1_555 1_555
N19 C58 1_555 1_555
N20 C65 1_555 1_555
N21 C70 1_555 1_555
N22 C78 1_555 1_555
N23 B2 1_555 1_555
N24 C83 1_555 1_555
N25 B2 1_555 1_555
N26 C88 1_555 1_555
N27 B2 1_555 1_555
P1 F1 1_555 1_555
F2 P1 1_555 1_555
F3 P1 1_555 1_555
F4 P1 1_555 1_555
F5 P1 1_555 1_555
F6 P1 1_555 1_555
C92 C93 1_555 1_555
C93 C94 1_555 1_555
C94 H98 1_555 1_555
C95 C94 1_555 1_555
H99 C95 1_555 1_555
C96 C95 1_555 1_555
C97 C96 1_555 1_555
H100 C97 1_555 1_555
C98 C93 1_555 1_555
H101 C98 1_555 1_555
N28 C92 1_555 1_555
O2 C96 1_555 1_555
H102 O2 1_555 1_555
C99 C100 1_555 1_555
C100 N29 1_555 1_555
C101 C99 1_555 1_555
H103 C101 1_555 1_555
C102 C99 1_555 1_555
H104 C102 1_555 1_555
C103 C101 1_555 1_555
H105 C103 1_555 1_555
C104 C102 1_555 1_555
H106 C104 1_555 1_555
C105 C103 1_555 1_555
H107 C105 1_555 1_555
C106 C107 1_555 1_555
C107 H108 1_555 1_555
C108 C106 1_555 1_555
N30 C108 1_555 1_555
C109 C106 1_555 1_555
H109 C109 1_555 1_555
C110 H110 1_555 1_555
C111 C109 1_555 1_555
H111 C111 1_555 1_555
C112 C107 1_555 1_555
H112 C112 1_555 1_555
C113 C114 1_555 1_555
C114 H113 1_555 1_555
C115 C113 1_555 1_555
H114 C115 1_555 1_555
C116 C114 1_555 1_555
H115 C116 1_555 1_555
C117 C113 1_555 1_555
N31 C117 1_555 1_555
C118 C116 1_555 1_555
H116 C118 1_555 1_555
C119 C115 1_555 1_555
H117 C119 1_555 1_555
C120 H118 1_555 1_555
C121 C122 1_555 1_555
C122 C120 1_555 1_555
H119 C122 1_555 1_555
C123 C121 1_555 1_555
C124 C121 1_555 1_555
H120 C124 1_555 1_555
C125 C120 1_555 1_555
H121 C125 1_555 1_555
N32 C123 1_555 1_555
C126 C124 1_555 1_555
H122 C126 1_555 1_555
C127 C128 1_555 1_555
C128 H123 1_555 1_555
C129 H124 1_555 1_555
C130 C129 1_555 1_555
H125 C130 1_555 1_555
C131 C127 1_555 1_555
H126 C131 1_555 1_555
C132 C128 1_555 1_555
H127 C132 1_555 1_555
C133 C127 1_555 1_555
N33 C133 1_555 1_555
C134 C135 1_555 1_555
C135 H128 1_555 1_555
C136 C134 1_555 1_555
H129 C136 1_555 1_555
N34 C137 1_555 1_555
C137 C134 1_555 1_555
C138 C136 1_555 1_555
H130 C138 1_555 1_555
C139 C135 1_555 1_555
H131 C139 1_555 1_555
C140 C138 1_555 1_555
H132 C140 1_555 1_555
C141 H133 1_555 1_555
C142 C143 1_555 1_555
C143 C141 1_555 1_555
H134 C143 1_555 1_555
C144 C142 1_555 1_555
H135 C144 1_555 1_555
C145 C141 1_555 1_555
H136 C145 1_555 1_555
C146 C144 1_555 1_555
H137 C146 1_555 1_555
C147 C142 1_555 1_555
N35 C147 1_555 1_555
C148 C149 1_555 1_555
C149 H138 1_555 1_555
C150 C148 1_555 1_555
H139 C150 1_555 1_555
C151 C148 1_555 1_555
C152 C149 1_555 1_555
H140 C152 1_555 1_555
N36 C151 1_555 1_555
C153 C152 1_555 1_555
H141 C153 1_555 1_555
C154 C150 1_555 1_555
H142 C154 1_555 1_555
B1A H6A 1_555 1_555
C8A C36A 1_555 1_555
C9A Fe1A 1_555 1_555
C10A Fe1A 1_555 1_555
C11A Fe1A 1_555 1_555
C12A H7A 1_555 1_555
C13A C12A 1_555 1_555
H8A C13A 1_555 1_555
C14A C13A 1_555 1_555
C15A C14A 1_555 1_555
H9A C15A 1_555 1_555
C16A C15A 1_555 1_555
C17A C16A 1_555 1_555
C18A C17A 1_555 1_555
H10A C18A 1_555 1_555
C19A C18A 1_555 1_555
C20A C19A 1_555 1_555
H11A C20A 1_555 1_555
C21A C20A 1_555 1_555
H12A C21A 1_555 1_555
C22A C14A 1_555 1_555
H13A C22A 1_555 1_555
H14A C22A 1_555 1_555
H15A C22A 1_555 1_555
C23A C19A 1_555 1_555
H16A C23A 1_555 1_555
H17A C23A 1_555 1_555
H18A C23A 1_555 1_555
C24A H19A 1_555 1_555
C25A C24A 1_555 1_555
H20A C25A 1_555 1_555
C26A C25A 1_555 1_555
C27A C26A 1_555 1_555
H21A C27A 1_555 1_555
C28A C27A 1_555 1_555
C29A C28A 1_555 1_555
C30A C29A 1_555 1_555
H22A C30A 1_555 1_555
C31A C30A 1_555 1_555
C32A C31A 1_555 1_555
H23A C32A 1_555 1_555
C33A C32A 1_555 1_555
H24A C33A 1_555 1_555
C34A C26A 1_555 1_555
H25A C34A 1_555 1_555
H26A C34A 1_555 1_555
H27A C34A 1_555 1_555
C35A C31A 1_555 1_555
H28A C35A 1_555 1_555
H29A C35A 1_555 1_555
H30A C35A 1_555 1_555
C36A H31A 1_555 1_555
H32A C36A 1_555 1_555
H33A C36A 1_555 1_555
C37A C8A 1_555 1_555
H34A C37A 1_555 1_555
C38A C37A 1_555 1_555
C39A C38A 1_555 1_555
H35A C39A 1_555 1_555
H36A C39A 1_555 1_555
H37A C39A 1_555 1_555
C40A H38A 1_555 1_555
H39A C40A 1_555 1_555
H40A C40A 1_555 1_555
C41A C40A 1_555 1_555
C42A C41A 1_555 1_555
H41A C42A 1_555 1_555
C43A C42A 1_555 1_555
C44A C43A 1_555 1_555
H42A C44A 1_555 1_555
H43A C44A 1_555 1_555
H44A C44A 1_555 1_555
C45A H45A 1_555 1_555
H46A C45A 1_555 1_555
H47A C45A 1_555 1_555
C46A C45A 1_555 1_555
C47A C46A 1_555 1_555
H48A C47A 1_555 1_555
C48A C47A 1_555 1_555
C49A C48A 1_555 1_555
H49A C49A 1_555 1_555
H50A C49A 1_555 1_555
H51A C49A 1_555 1_555
Co1A N3 1_555 1_555
Fe1A N9A 1_555 1_555
N2A C9A 1_555 1_555
N3A Co1 1_555 1_555
N4A C11A 1_555 1_555
N5A C12A 1_555 1_555
N6A C17A 1_555 1_555
N7A C24A 1_555 1_555
N8A C29A 1_555 1_555
N9A C8A 1_555 1_555
N10A B1A 1_555 1_555
N11A C41A 1_555 1_555
N12A B1A 1_555 1_555
N13A C46A 1_555 1_555
N14A B1A 1_555 1_555
B2A H52A 1_555 1_555
C50A Fe2A 1_555 1_555
C51A Fe2A 1_555 1_555
C52A Fe2A 1_555 1_555
C53A H53A 1_555 1_555
C54A C53A 1_555 1_555
H54A C54A 1_555 1_555
C55A C54A 1_555 1_555
C56A C55A 1_555 1_555
H55A C56A 1_555 1_555
C57A C56A 1_555 1_555
C58A C57A 1_555 1_555
C59A C58A 1_555 1_555
H56A C59A 1_555 1_555
C60A C59A 1_555 1_555
C61A C60A 1_555 1_555
H57A C61A 1_555 1_555
C62A C61A 1_555 1_555
H58A C62A 1_555 1_555
C63A C55A 1_555 1_555
H59A C63A 1_555 1_555
H60A C63A 1_555 1_555
H61A C63A 1_555 1_555
C64A C60A 1_555 1_555
H62A C64A 1_555 1_555
H63A C64A 1_555 1_555
H64A C64A 1_555 1_555
C65A H65A 1_555 1_555
C66A C65A 1_555 1_555
H66A C66A 1_555 1_555
C67A C66A 1_555 1_555
C68A C67A 1_555 1_555
H67A C68A 1_555 1_555
C69A C68A 1_555 1_555
C70A C69A 1_555 1_555
C71A C70A 1_555 1_555
H68A C71A 1_555 1_555
C72A C71A 1_555 1_555
C73A C72A 1_555 1_555
H69A C73A 1_555 1_555
C74A C73A 1_555 1_555
H70A C74A 1_555 1_555
C75A C67A 1_555 1_555
H71A C75A 1_555 1_555
H72A C75A 1_555 1_555
H73A C75A 1_555 1_555
C76A C72A 1_555 1_555
H74A C76A 1_555 1_555
H75A C76A 1_555 1_555
H76A C76A 1_555 1_555
C77A H77A 1_555 1_555
H78A C77A 1_555 1_555
H79A C77A 1_555 1_555
C78A C77A 1_555 1_555
C79A C78A 1_555 1_555
H80A C79A 1_555 1_555
C80A C79A 1_555 1_555
C81A C80A 1_555 1_555
H81A C81A 1_555 1_555
H82A C81A 1_555 1_555
H83A C81A 1_555 1_555
C82A H84A 1_555 1_555
H85A C82A 1_555 1_555
H86A C82A 1_555 1_555
C83A C82A 1_555 1_555
C84A C83A 1_555 1_555
H87A C84A 1_555 1_555
C85A C84A 1_555 1_555
C86A C85A 1_555 1_555
H88A C86A 1_555 1_555
H89A C86A 1_555 1_555
H90A C86A 1_555 1_555
C87A H91A 1_555 1_555
H92A C87A 1_555 1_555
H93A C87A 1_555 1_555
C88A C87A 1_555 1_555
C89A C88A 1_555 1_555
H94A C89A 1_555 1_555
C90A C89A 1_555 1_555
C91A C90A 1_555 1_555
H95A C91A 1_555 1_555
H96A C91A 1_555 1_555
H97A C91A 1_555 1_555
Co2A N16 1_555 1_555
Fe2A N22A 1_555 1_555
N15A C50A 1_555 1_555
N16A Co2 1_555 1_555
N17A C52A 1_555 1_555
N18A C53A 1_555 1_555
N19A C58A 1_555 1_555
N20A C65A 1_555 1_555
N21A C70A 1_555 1_555
N22A C78A 1_555 1_555
N23A B2A 1_555 1_555
N24A C83A 1_555 1_555
N25A B2A 1_555 1_555
N26A C88A 1_555 1_555
N27A B2A 1_555 1_555
C4 C5 1_555 1_555
C6 C7 1_555 1_555
C16 N5 1_555 1_555
C21 N6 1_555 1_555
C28 N7 1_555 1_555
C33 N8 1_555 1_555
C38 N10 1_555 1_555
C43 N12 1_555 1_555
C48 N14 1_555 1_555
Co1 N5 1_555 1_555
Co1 N6 1_555 1_555
Co1 N7 1_555 1_555
Co1 N8 1_555 1_555
Fe1 N11 1_555 1_555
Fe1 N13 1_555 1_555
N9 N10 1_555 1_555
N11 N12 1_555 1_555
N13 N14 1_555 1_555
C57 N18 1_555 1_555
C62 N19 1_555 1_555
C69 N20 1_555 1_555
C74 N21 1_555 1_555
C80 N23 1_555 1_555
C85 N25 1_555 1_555
C90 N27 1_555 1_555
Co2 N18 1_555 1_555
Co2 N19 1_555 1_555
Co2 N20 1_555 1_555
Co2 N21 1_555 1_555
Fe2 N24 1_555 1_555
Fe2 N26 1_555 1_555
N22 N23 1_555 1_555
N24 N25 1_555 1_555
N26 N27 1_555 1_555
C97 C98 1_555 1_555
C104 C105 1_555 1_555
C110 C111 1_555 1_555
C110 C112 1_555 1_555
C118 C119 1_555 1_555
C125 C126 1_555 1_555
C129 C131 1_555 1_555
C130 C132 1_555 1_555
C139 C140 1_555 1_555
C145 C146 1_555 1_555
C153 C154 1_555 1_555
C10A N3A 1_555 1_555
C16A N5A 1_555 1_555
C21A N6A 1_555 1_555
C28A N7A 1_555 1_555
C33A N8A 1_555 1_555
C38A N10A 1_555 1_555
C43A N12A 1_555 1_555
C48A N14A 1_555 1_555
Co1A N2A 1_555 1_555
Co1A N5A 1_555 1_555
Co1A N6A 1_555 1_555
Co1A N7A 1_555 1_555
Co1A N8A 1_555 1_555
Fe1A N11A 1_555 1_555
Fe1A N13A 1_555 1_555
N9A N10A 1_555 1_555
N11A N12A 1_555 1_555
N13A N14A 1_555 1_555
C51A N16A 1_555 1_555
C57A N18A 1_555 1_555
C62A N19A 1_555 1_555
C69A N20A 1_555 1_555
C74A N21A 1_555 1_555
C80A N23A 1_555 1_555
C85A N25A 1_555 1_555
C90A N27A 1_555 1_555
Co2A N15A 1_555 1_555
Co2A N18A 1_555 1_555
Co2A N19A 1_555 1_555
Co2A N20A 1_555 1_555
Co2A N21A 1_555 1_555
Fe2A N24A 1_555 1_555
Fe2A N26A 1_555 1_555
N22A N23A 1_555 1_555
N24A N25A 1_555 1_555
N26A N27A 1_555 1_555

#END
