
#######################################################################
#
#                 Cambridge Crystallographic Data Centre
#                                CCDC 
#
#######################################################################
#
# If this CIF has been generated from an entry in the Cambridge 
# Structural Database, then it will include bibliographic, chemical, 
# crystal, experimental, refinement or atomic coordinate data resulting 
# from the CCDC's data processing and validation procedures.
#
#######################################################################

data_DAPGUZ
_chemical_formula_moiety         
'C84 H92 B2 Co2 Fe2 N26 2+,2(C7 H5 N1 O1),8(C7 H5 N1),2(F6 P1 1-)'
_chemical_name_systematic        
"tetrakis(\m-cyano)-bis(cyano)-tetrakis(4,4'-dimethyl-2,2'-bipyridine)-bis(hydrogen tris(3,5-dimethylpyrazolyl)borate)-di-cobalt-di-iron bis(hexafluorophosphate) bis(4-cyanophenol) benzonitrile solvate"
_symmetry_cell_setting           triclinic
_symmetry_space_group_name_H-M   'P -1'
_symmetry_Int_Tables_number      2
_space_group_name_Hall           '-P 1'
loop_
_symmetry_equiv_pos_site_id
_symmetry_equiv_pos_as_xyz
1 x,y,z
2 -x,-y,-z
_cell_length_a                   18.184(3)
_cell_length_b                   19.825(3)
_cell_length_c                   23.214(4)
_cell_angle_alpha                74.800(2)
_cell_angle_beta                 89.978(2)
_cell_angle_gamma                67.834(2)
_cell_volume                     7433.39
_exptl_crystal_colour            'dark green'
_exptl_crystal_description       plate
_cell_formula_units_Z            2
loop_
_atom_site_label
_atom_site_type_symbol
_atom_site_fract_x
_atom_site_fract_y
_atom_site_fract_z
B1 B 1.1892(5) 0.1622(4) 1.1457(3)
H1 H 1.2068 0.1134 1.1786
C1 C 1.0406(4) 0.3584(3) 0.9899(2)
C2 C 1.1194(3) 0.4049(3) 1.0578(2)
C3 C 1.1917(4) 0.3354(3) 0.9763(3)
C4 C 0.7326(4) 0.5511(4) 0.8353(3)
H2 H 0.7140 0.5216 0.8664
C5 C 0.6772(4) 0.6105(4) 0.7909(3)
H3 H 0.6218 0.6209 0.7915
C6 C 0.7036(4) 0.6548(4) 0.7456(3)
C7 C 0.7852(4) 0.6364(4) 0.7468(3)
H4 H 0.8050 0.6657 0.7166
C8 C 0.8380(4) 0.5760(3) 0.7913(3)
C9 C 0.9248(4) 0.5492(3) 0.7938(3)
C10 C 0.9658(4) 0.5797(4) 0.7520(3)
H5 H 0.9374 0.6244 0.7204
C11 C 1.0477(4) 0.5457(4) 0.7560(3)
C12 C 1.0861(4) 0.4810(4) 0.8017(3)
H6 H 1.1424 0.4551 0.8042
C13 C 1.0440(4) 0.4528(4) 0.8443(3)
H7 H 1.0720 0.4088 0.8765
C14 C 0.6451(5) 0.7195(4) 0.6974(3)
H8 H 0.6016 0.7056 0.6867
H9 H 0.6722 0.7307 0.6619
H10 H 0.6230 0.7644 0.7121
C15 C 1.0949(5) 0.5794(5) 0.7124(3)
H11 H 1.0872 0.5717 0.6732
H12 H 1.1517 0.5546 0.7276
H13 H 1.0763 0.6340 0.7081
C16 C 0.7870(4) 0.4615(3) 0.9920(3)
H14 H 0.8048 0.4960 1.0034
C17 C 0.7270(4) 0.4449(4) 1.0207(3)
H15 H 0.7044 0.4675 1.0513
C18 C 0.6998(4) 0.3956(4) 1.0047(3)
C19 C 0.6307(5) 0.3795(5) 1.0323(3)
H16 H 0.6343 0.3768 1.0750
H17 H 0.6327 0.3309 1.0280
H18 H 0.5802 0.4202 1.0118
C20 C 0.7371(4) 0.3616(4) 0.9609(3)
H19 H 0.7210 0.3261 0.9496
C21 C 0.7973(3) 0.3802(3) 0.9344(2)
C22 C 0.8429(4) 0.3464(4) 0.8894(2)
C23 C 0.8351(4) 0.2876(4) 0.8712(3)
H20 H 0.7969 0.2678 0.8871
C24 C 0.8830(4) 0.2578(4) 0.8298(3)
C25 C 0.9379(4) 0.2886(4) 0.8087(3)
H21 H 0.9727 0.2689 0.7812
C26 C 0.9425(4) 0.3482(3) 0.8274(3)
H22 H 0.9801 0.3691 0.8119
C27 C 0.8759(5) 0.1944(5) 0.8101(3)
H23 H 0.8434 0.1728 0.8364
H24 H 0.9293 0.1551 0.8123
H25 H 0.8505 0.2139 0.7687
C28 C 1.3184(4) 0.3423(4) 1.0664(3)
H26 H 1.3609 0.3503 1.0860
H27 H 1.2696 0.3887 1.0572
H28 H 1.3351 0.3297 1.0291
C29 C 1.3026(4) 0.2788(4) 1.1072(3)
C30 C 1.3542(4) 0.2247(4) 1.1580(3)
H29 H 1.4029 0.2236 1.1740
C31 C 1.3192(4) 0.1744(4) 1.1792(3)
C32 C 1.3460(5) 0.1057(5) 1.2331(4)
H30 H 1.3991 0.0966 1.2506
H31 H 1.3483 0.0613 1.2208
H32 H 1.3080 0.1143 1.2630
C33 C 1.1325(5) 0.2263(4) 0.9233(3)
H33 H 1.1384 0.1934 0.8972
H34 H 1.1675 0.2540 0.9127
H35 H 1.0769 0.2626 0.9181
C34 C 1.1548(4) 0.1791(4) 0.9872(3)
C35 C 1.1770(5) 0.1002(4) 1.0088(4)
H36 H 1.1804 0.0660 0.9859
C36 C 1.1927(5) 0.0827(4) 1.0703(4)
C37 C 1.2225(7) 0.0061(4) 1.1163(4)
H37 H 1.1840 0.0055 1.1458
H38 H 1.2742 -0.0037 1.1368
H39 H 1.2288 -0.0333 1.0964
C38 C 0.9493(4) 0.4019(4) 1.0991(3)
H40 H 0.9290 0.3985 1.0613
H41 H 0.9755 0.4379 1.0905
H42 H 0.9047 0.4193 1.1226
C39 C 1.0078(4) 0.3257(3) 1.1340(3)
C40 C 1.0002(5) 0.2815(4) 1.1895(3)
H43 H 0.9581 0.2956 1.2138
C41 C 1.0647(5) 0.2142(4) 1.2022(3)
C42 C 1.0890(6) 0.1446(5) 1.2551(4)
H44 H 1.1285 0.1456 1.2832
H45 H 1.1123 0.0991 1.2412
H46 H 1.0420 0.1437 1.2754
Co1 Co 0.89598(5) 0.45847(4) 0.89806(3)
Fe1 Fe 1.13538(5) 0.31208(5) 1.04281(4)
N1 N 0.9842(3) 0.3895(3) 0.9554(2)
N2 N 1.1110(3) 0.4610(3) 1.0698(2)
N3 N 1.2246(3) 0.3513(3) 0.9356(3)
N4 N 0.8116(3) 0.5338(3) 0.8359(2)
N5 N 0.9640(3) 0.4869(3) 0.8407(2)
N6 N 0.8213(3) 0.4311(3) 0.9489(2)
N7 N 0.8955(3) 0.3770(3) 0.8667(2)
N8 N 1.2397(3) 0.2619(3) 1.0994(2)
N9 N 1.2505(3) 0.1970(3) 1.1437(2)
N10 N 1.1556(3) 0.2081(3) 1.0329(2)
N11 N 1.1794(4) 0.1478(3) 1.0844(2)
N12 N 1.0746(3) 0.2874(3) 1.1139(2)
N13 N 1.1093(3) 0.2177(3) 1.1560(2)
B1A B 0.8108(5) 0.8378(4) 0.8543(3)
H1A H 0.7932 0.8866 0.8214
C1A C 0.9594(4) 0.6416(3) 1.0101(2)
C2A C 0.8806(3) 0.5951(3) 0.9422(2)
C3A C 0.8083(4) 0.6646(3) 1.0237(3)
C4A C 1.2674(4) 0.4489(4) 1.1647(3)
H2A H 1.2860 0.4784 1.1336
C5A C 1.3228(4) 0.3895(4) 1.2091(3)
H3A H 1.3782 0.3791 1.2085
C6A C 1.2964(4) 0.3452(4) 1.2544(3)
C7A C 1.2148(4) 0.3636(4) 1.2532(3)
H4A H 1.1950 0.3343 1.2834
C8A C 1.1620(4) 0.4240(3) 1.2087(3)
C9A C 1.0752(4) 0.4508(3) 1.2062(3)
C10A C 1.0342(4) 0.4203(4) 1.2480(3)
H5A H 1.0626 0.3756 1.2796
C11A C 0.9523(4) 0.4543(4) 1.2440(3)
C12A C 0.9139(4) 0.5190(4) 1.1983(3)
H6A H 0.8576 0.5449 1.1958
C13A C 0.9560(4) 0.5472(4) 1.1557(3)
H7A H 0.9280 0.5912 1.1235
C14A C 1.3549(5) 0.2805(4) 1.3026(3)
H8A H 1.3984 0.2944 1.3133
H9A H 1.3278 0.2693 1.3381
H10A H 1.3770 0.2356 1.2879
C15A C 0.9051(5) 0.4206(5) 1.2876(3)
H11A H 0.9128 0.4283 1.3268
H12A H 0.8483 0.4454 1.2724
H13A H 0.9237 0.3660 1.2919
C16A C 1.2130(4) 0.5385(3) 1.0080(3)
H14A H 1.1952 0.5040 0.9966
C17A C 1.2730(4) 0.5551(4) 0.9793(3)
H15A H 1.2956 0.5325 0.9487
C18A C 1.3002(4) 0.6044(4) 0.9953(3)
C19A C 1.3693(5) 0.6205(5) 0.9677(3)
H16A H 1.3657 0.6232 0.9250
H17A H 1.3673 0.6691 0.9720
H18A H 1.4198 0.5798 0.9882
C20A C 1.2629(4) 0.6384(4) 1.0391(3)
H19A H 1.2790 0.6739 1.0504
C21A C 1.2027(3) 0.6198(3) 1.0656(2)
C22A C 1.1571(4) 0.6536(4) 1.1106(2)
C23A C 1.1649(4) 0.7124(4) 1.1288(3)
H20A H 1.2031 0.7322 1.1129
C24A C 1.1170(4) 0.7422(4) 1.1702(3)
C25A C 1.0621(4) 0.7114(4) 1.1913(3)
H21A H 1.0273 0.7311 1.2188
C26A C 1.0575(4) 0.6518(3) 1.1726(3)
H22A H 1.0199 0.6309 1.1881
C27A C 1.1241(5) 0.8056(5) 1.1899(3)
H23A H 1.1566 0.8272 1.1636
H24A H 1.0707 0.8449 1.1877
H25A H 1.1495 0.7861 1.2313
C28A C 0.6816(4) 0.6577(4) 0.9336(3)
H26A H 0.6391 0.6497 0.9140
H27A H 0.7304 0.6113 0.9428
H28A H 0.6649 0.6703 0.9709
C29A C 0.6974(4) 0.7212(4) 0.8928(3)
C30A C 0.6458(4) 0.7753(4) 0.8420(3)
H29A H 0.5971 0.7764 0.8260
C31A C 0.6808(4) 0.8256(4) 0.8208(3)
C32A C 0.6540(5) 0.8943(5) 0.7669(4)
H30A H 0.6009 0.9034 0.7494
H31A H 0.6517 0.9387 0.7792
H32A H 0.6920 0.8857 0.7370
C33A C 0.8675(5) 0.7737(4) 1.0767(3)
H33A H 0.8616 0.8066 1.1028
H34A H 0.8325 0.7460 1.0873
H35A H 0.9231 0.7374 1.0819
C34A C 0.8452(4) 0.8209(4) 1.0128(3)
C35A C 0.8230(5) 0.8998(4) 0.9912(4)
H36A H 0.8196 0.9340 1.0141
C36A C 0.8073(5) 0.9173(4) 0.9297(4)
C37A C 0.7775(7) 0.9939(4) 0.8837(4)
H37A H 0.8160 0.9945 0.8542
H38A H 0.7258 1.0037 0.8632
H39A H 0.7712 1.0333 0.9036
C38A C 1.0507(4) 0.5981(4) 0.9009(3)
H40A H 1.0710 0.6015 0.9387
H41A H 1.0245 0.5621 0.9095
H42A H 1.0953 0.5807 0.8774
C39A C 0.9922(4) 0.6743(3) 0.8660(3)
C40A C 0.9998(5) 0.7185(4) 0.8105(3)
H43A H 1.0419 0.7044 0.7862
C41A C 0.9353(5) 0.7858(4) 0.7978(3)
C42A C 0.9110(6) 0.8554(5) 0.7449(4)
H44A H 0.8715 0.8544 0.7168
H45A H 0.8877 0.9009 0.7588
H46A H 0.9580 0.8563 0.7246
Co1A Co 1.10402(5) 0.54153(4) 1.10194(3)
Fe1A Fe 0.86462(5) 0.68792(5) 0.95719(4)
N1A N 1.0158(3) 0.6105(3) 1.0446(2)
N2A N 0.8890(3) 0.5390(3) 0.9302(2)
N3A N 0.7754(3) 0.6487(3) 1.0644(3)
N4A N 1.1884(3) 0.4662(3) 1.1641(2)
N5A N 1.0360(3) 0.5131(3) 1.1593(2)
N6A N 1.1787(3) 0.5689(3) 1.0511(2)
N7A N 1.1045(3) 0.6230(3) 1.1333(2)
N8A N 0.7603(3) 0.7381(3) 0.9006(2)
N9A N 0.7495(3) 0.8030(3) 0.8563(2)
N10A N 0.8444(3) 0.7919(3) 0.9671(2)
N11A N 0.8206(4) 0.8522(3) 0.9156(2)
N12A N 0.9254(3) 0.7126(3) 0.8861(2)
N13A N 0.8907(3) 0.7823(3) 0.8440(2)
B2 B 0.5955(5) 0.1671(5) 0.6502(3)
H47 H 0.6194 0.1194 0.6841
C43 C 0.5783(3) 0.3612(3) 0.4898(2)
C44 C 0.4599(4) 0.4048(3) 0.5583(2)
C45 C 0.4509(4) 0.3334(4) 0.4766(3)
C46 C 0.7262(4) 0.5553(4) 0.3360(3)
H48 H 0.7679 0.5272 0.3680
C47 C 0.7329(4) 0.6138(4) 0.2917(3)
H49 H 0.7801 0.6236 0.2925
C48 C 0.6717(4) 0.6584(4) 0.2461(3)
C49 C 0.6059(4) 0.6394(4) 0.2461(3)
H50 H 0.5626 0.6683 0.2153
C50 C 0.6025(4) 0.5786(3) 0.2905(2)
C51 C 0.5384(4) 0.5512(3) 0.2914(3)
C52 C 0.4746(4) 0.5815(4) 0.2483(3)
H51 H 0.4676 0.6257 0.2167
C53 C 0.4191(4) 0.5466(4) 0.2509(3)
C54 C 0.4329(4) 0.4825(4) 0.2978(3)
H52 H 0.3983 0.4562 0.3002
C55 C 0.4974(4) 0.4560(4) 0.3416(3)
H53 H 0.5052 0.4124 0.3741
C56 C 0.6760(5) 0.7245(4) 0.1983(3)
H54 H 0.6867 0.7591 0.2172
H55 H 0.6251 0.7516 0.1725
H56 H 0.7192 0.7058 0.1740
C57 C 0.3475(4) 0.5802(4) 0.2058(3)
H57 H 0.3375 0.6335 0.1860
H58 H 0.3010 0.5772 0.2259
H59 H 0.3569 0.5520 0.1757
C58 C 0.7445(4) 0.4650(3) 0.4902(2)
H60 H 0.6985 0.4995 0.5018
C59 C 0.8194(4) 0.4478(4) 0.5180(3)
H61 H 0.8240 0.4706 0.5483
C60 C 0.8867(4) 0.3983(4) 0.5023(3)
C61 C 0.8777(4) 0.3645(4) 0.4587(3)
H62 H 0.9230 0.3296 0.4469
C62 C 0.8011(4) 0.3827(3) 0.4326(3)
C63 C 0.7834(3) 0.3506(3) 0.3872(3)
C64 C 0.8393(4) 0.2927(4) 0.3687(3)
H63 H 0.8939 0.2735 0.3843
C65 C 0.8166(4) 0.2625(4) 0.3277(3)
C66 C 0.7364(4) 0.2936(4) 0.3063(3)
H64 H 0.7183 0.2744 0.2783
C67 C 0.6828(4) 0.3515(3) 0.3250(3)
H65 H 0.6281 0.3718 0.3094
C68 C 0.9696(4) 0.3812(5) 0.5301(3)
H66 H 0.9808 0.4273 0.5187
H67 H 1.0093 0.3416 0.5156
H68 H 0.9724 0.3635 0.5740
C69 C 0.8767(5) 0.1993(5) 0.3069(4)
H69 H 0.8819 0.2184 0.2643
H70 H 0.8585 0.1576 0.3124
H71 H 0.9286 0.1809 0.3305
C70 C 0.3167(4) 0.3348(4) 0.5640(3)
H72 H 0.3104 0.3188 0.5284
H73 H 0.3275 0.3811 0.5519
H74 H 0.2676 0.3447 0.5837
C71 C 0.3840(4) 0.2741(4) 0.6060(3)
C72 C 0.3783(4) 0.2194(4) 0.6561(3)
H75 H 0.3306 0.2162 0.6707
C73 C 0.4549(4) 0.1715(4) 0.6802(3)
C74 C 0.4842(5) 0.1035(4) 0.7338(3)
H76 H 0.4385 0.0964 0.7528
H77 H 0.5178 0.1109 0.7625
H78 H 0.5155 0.0584 0.7212
C75 C 0.6094(5) 0.2223(4) 0.4280(3)
H79 H 0.6368 0.2573 0.4199
H80 H 0.5517 0.2511 0.4177
H81 H 0.6285 0.1867 0.4037
C76 C 0.6262(4) 0.1791(4) 0.4931(3)
C77 C 0.6797(5) 0.1031(4) 0.5183(3)
H82 H 0.7117 0.0691 0.4974
C78 C 0.6760(4) 0.0881(4) 0.5793(3)
C79 C 0.7182(6) 0.0154(4) 0.6287(4)
H83 H 0.6797 -0.0066 0.6443
H84 H 0.7422 0.0262 0.6611
H85 H 0.7602 -0.0207 0.6126
C80 C 0.6293(4) 0.4113(4) 0.5958(3)
H86 H 0.6537 0.4336 0.6192
H87 H 0.5733 0.4453 0.5824
H88 H 0.6582 0.4045 0.5607
C81 C 0.6337(4) 0.3362(4) 0.6339(3)
C82 C 0.6740(4) 0.2966(4) 0.6911(3)
H89 H 0.7019 0.3135 0.7149
C83 C 0.6656(4) 0.2284(4) 0.7063(3)
C84 C 0.6970(5) 0.1621(5) 0.7622(3)
H90 H 0.7365 0.1182 0.7522
H91 H 0.6527 0.1492 0.7785
H92 H 0.7222 0.1757 0.7922
Co2 Co 0.63897(5) 0.46140(4) 0.39650(3)
Fe2 Fe 0.52319(5) 0.31315(5) 0.54360(4)
N14 N 0.6073(3) 0.3926(3) 0.4538(2)
N15 N 0.4206(3) 0.4596(3) 0.5707(2)
N16 N 0.4045(4) 0.3510(3) 0.4347(2)
N17 N 0.6623(3) 0.5368(3) 0.3354(2)
N18 N 0.5484(3) 0.4902(3) 0.3391(2)
N19 N 0.7360(3) 0.4338(3) 0.4471(2)
N20 N 0.7059(3) 0.3804(3) 0.3650(2)
N21 N 0.4616(3) 0.2603(3) 0.6002(2)
N22 N 0.5047(3) 0.1970(3) 0.6456(2)
N23 N 0.5936(3) 0.2087(3) 0.5373(2)
N24 N 0.6228(3) 0.1516(3) 0.5901(2)
N25 N 0.6003(3) 0.2947(3) 0.6148(2)
N26 N 0.6225(3) 0.2273(3) 0.6599(2)
B2A B 0.4045(5) 0.8329(5) 0.3498(3)
H47A H 0.3806 0.8806 0.3159
C43A C 0.4217(3) 0.6388(3) 0.5102(2)
C44A C 0.5401(4) 0.5952(3) 0.4417(2)
C45A C 0.5491(4) 0.6666(4) 0.5234(3)
C46A C 0.2738(4) 0.4447(4) 0.6640(3)
H48A H 0.2321 0.4728 0.6320
C47A C 0.2671(4) 0.3862(4) 0.7083(3)
H49A H 0.2199 0.3764 0.7075
C48A C 0.3283(4) 0.3416(4) 0.7539(3)
C49A C 0.3941(4) 0.3606(4) 0.7539(3)
H50A H 0.4374 0.3317 0.7847
C50A C 0.3975(4) 0.4214(3) 0.7095(2)
C51A C 0.4616(4) 0.4488(3) 0.7086(3)
C52A C 0.5254(4) 0.4185(4) 0.7517(3)
H51A H 0.5324 0.3743 0.7833
C53A C 0.5809(4) 0.4534(4) 0.7491(3)
C54A C 0.5671(4) 0.5175(4) 0.7022(3)
H52A H 0.6017 0.5438 0.6998
C55A C 0.5026(4) 0.5440(4) 0.6584(3)
H53A H 0.4948 0.5876 0.6259
C56A C 0.3240(5) 0.2755(4) 0.8017(3)
H54A H 0.3133 0.2409 0.7828
H55A H 0.3749 0.2484 0.8275
H56A H 0.2808 0.2942 0.8260
C57A C 0.6525(4) 0.4198(4) 0.7942(3)
H57A H 0.6625 0.3665 0.8140
H58A H 0.6990 0.4228 0.7741
H59A H 0.6431 0.4480 0.8243
C58A C 0.2555(4) 0.5350(3) 0.5098(2)
H60A H 0.3015 0.5005 0.4982
C59A C 0.1806(4) 0.5522(4) 0.4820(3)
H61A H 0.1760 0.5294 0.4517
C60A C 0.1133(4) 0.6017(4) 0.4977(3)
C61A C 0.1223(4) 0.6355(4) 0.5413(3)
H62A H 0.0770 0.6704 0.5531
C62A C 0.1989(4) 0.6173(3) 0.5674(3)
C63A C 0.2166(3) 0.6494(3) 0.6128(3)
C64A C 0.1607(4) 0.7073(4) 0.6313(3)
H63A H 0.1061 0.7265 0.6157
C65A C 0.1834(4) 0.7375(4) 0.6723(3)
C66A C 0.2636(4) 0.7064(4) 0.6937(3)
H64A H 0.2817 0.7256 0.7217
C67A C 0.3172(4) 0.6485(3) 0.6750(3)
H65A H 0.3719 0.6282 0.6906
C68A C 0.0304(4) 0.6188(5) 0.4699(3)
H66A H 0.0192 0.5727 0.4813
H67A H -0.0093 0.6584 0.4844
H68A H 0.0276 0.6365 0.4260
C69A C 0.1233(5) 0.8007(5) 0.6931(4)
H69A H 0.1181 0.7816 0.7357
H70A H 0.1415 0.8424 0.6876
H71A H 0.0714 0.8191 0.6695
C70A C 0.6833(4) 0.6652(4) 0.4360(3)
H72A H 0.6896 0.6812 0.4716
H73A H 0.6725 0.6189 0.4481
H74A H 0.7324 0.6553 0.4163
C71A C 0.6160(4) 0.7259(4) 0.3940(3)
C72A C 0.6217(4) 0.7806(4) 0.3439(3)
H75A H 0.6694 0.7838 0.3293
C73A C 0.5451(4) 0.8285(4) 0.3198(3)
C74A C 0.5158(5) 0.8965(4) 0.2662(3)
H76A H 0.5615 0.9036 0.2472
H77A H 0.4822 0.8891 0.2375
H78A H 0.4845 0.9416 0.2788
C75A C 0.3906(5) 0.7777(4) 0.5720(3)
H79A H 0.3632 0.7427 0.5801
H80A H 0.4483 0.7489 0.5823
H81A H 0.3715 0.8133 0.5963
C76A C 0.3738(4) 0.8209(4) 0.5069(3)
C77A C 0.3203(5) 0.8969(4) 0.4817(3)
H82A H 0.2883 0.9309 0.5026
C78A C 0.3240(4) 0.9119(4) 0.4207(3)
C79A C 0.2818(6) 0.9846(4) 0.3713(4)
H83A H 0.3203 1.0066 0.3557
H84A H 0.2578 0.9738 0.3389
H85A H 0.2398 1.0207 0.3874
C80A C 0.3707(4) 0.5887(4) 0.4042(3)
H86A H 0.3463 0.5664 0.3808
H87A H 0.4267 0.5547 0.4176
H88A H 0.3418 0.5955 0.4393
C81A C 0.3663(4) 0.6638(4) 0.3661(3)
C82A C 0.3260(4) 0.7034(4) 0.3089(3)
H89A H 0.2981 0.6865 0.2851
C83A C 0.3344(4) 0.7716(4) 0.2937(3)
C84A C 0.3030(5) 0.8379(5) 0.2378(3)
H90A H 0.2635 0.8818 0.2478
H91A H 0.3473 0.8508 0.2215
H92A H 0.2778 0.8243 0.2078
Co2A Co 0.36103(5) 0.53860(4) 0.60350(3)
Fe2A Fe 0.47681(5) 0.68685(5) 0.45640(4)
N14A N 0.3927(3) 0.6074(3) 0.5462(2)
N15A N 0.5794(3) 0.5404(3) 0.4293(2)
N16A N 0.5955(4) 0.6490(3) 0.5653(2)
N17A N 0.3377(3) 0.4632(3) 0.6646(2)
N18A N 0.4516(3) 0.5098(3) 0.6609(2)
N19A N 0.2640(3) 0.5662(3) 0.5529(2)
N20A N 0.2941(3) 0.6196(3) 0.6350(2)
N21A N 0.5384(3) 0.7397(3) 0.3998(2)
N22A N 0.4953(3) 0.8030(3) 0.3544(2)
N23A N 0.4064(3) 0.7913(3) 0.4627(2)
N24A N 0.3772(3) 0.8484(3) 0.4099(2)
N25A N 0.3997(3) 0.7053(3) 0.3852(2)
N26A N 0.3775(3) 0.7727(3) 0.3401(2)
C85 C 0.3861(5) 0.5482(4) 0.8322(3)
H93 H 0.3853 0.5960 0.8096
C86 C 0.3232(5) 0.5286(5) 0.8244(3)
H94 H 0.2792 0.5627 0.7954
C87 C 0.3222(5) 0.4599(5) 0.8579(3)
C88 C 0.3882(4) 0.4082(4) 0.8984(3)
H95 H 0.3896 0.3598 0.9201
C89 C 0.4517(4) 0.4282(4) 0.9068(3)
H96 H 0.4958 0.3942 0.9356
N27 N 0.5684(4) 0.5370(4) 0.8916(3)
O1 O 0.2593(4) 0.4451(4) 0.8476(2)
H97 H 0.2564 0.4117 0.8774
C90 C 0.5164(5) 0.5187(4) 0.8838(3)
C91 C 0.4518(4) 0.4972(4) 0.8737(3)
C92 C 0.0545(4) 0.4954(4) 0.3715(3)
C93 C 0.0776(4) 0.5481(4) 0.3310(3)
H98 H 0.0386 0.5958 0.3087
C94 C 0.1583(5) 0.5300(5) 0.3236(3)
H99 H 0.1739 0.5649 0.2953
C95 C 0.2163(4) 0.4609(4) 0.3575(3)
C96 C 0.1922(5) 0.4089(4) 0.3970(3)
H100 H 0.2313 0.3615 0.4197
C97 C 0.1131(5) 0.4251(4) 0.4038(3)
H101 H 0.0978 0.3885 0.4305
N28 N -0.0940(4) 0.5324(4) 0.3878(3)
O2 O 0.2917(3) 0.4493(3) 0.3496(2)
H102 H 0.3218 0.4089 0.3748
C98 C -0.0275(5) 0.5149(5) 0.3802(3)
C99 C 0.3495(6) 0.0736(6) -0.0962(5)
C100 C 0.3616(6) 0.1389(6) -0.0247(4)
H103 H 0.3400 0.1860 -0.0550
C101 C 0.3847(6) 0.1347(6) 0.0351(4)
H104 H 0.3784 0.1802 0.0446
C102 C 0.4152(6) 0.0686(5) 0.0785(5)
H105 H 0.4319 0.0673 0.1177
C103 C 0.4220(6) 0.0016(6) 0.0655(4)
H106 H 0.4416 -0.0452 0.0964
C104 C 0.4005(6) 0.0031(6) 0.0087(4)
H107 H 0.4051 -0.0424 -0.0001
N29 N 0.3330(5) 0.0745(4) -0.1450(4)
C105 C 0.3717(6) 0.0724(6) -0.0365(4)
C106 C 0.5470(6) 0.2538(6) 0.1340(4)
H108 H 0.5351 0.3064 0.1173
C107 C 0.5527(6) 0.2095(5) 0.0977(5)
H109 H 0.5466 0.2305 0.0553
C108 C 0.5675(6) 0.1324(6) 0.1222(4)
H110 H 0.5709 0.1011 0.0967
C109 C 0.5771(6) 0.1031(6) 0.1832(4)
H111 H 0.5854 0.0513 0.2002
C110 C 0.5749(6) 0.1473(5) 0.2201(5)
H112 H 0.5848 0.1260 0.2624
N30 N 0.5485(5) 0.3126(5) 0.2610(4)
C111 C 0.5532(6) 0.2723(6) 0.2326(4)
C112 C 0.5583(6) 0.2229(6) 0.1950(4)
C113 C 0.1697(6) 0.2258(6) 0.6911(4)
C114 C 0.1550(6) 0.2586(6) 0.6291(4)
H113 H 0.1236 0.3113 0.6132
C115 C 0.1861(6) 0.2147(6) 0.5911(5)
H114 H 0.1771 0.2370 0.5488
C116 C 0.2305(6) 0.1379(6) 0.6148(4)
H115 H 0.2500 0.1074 0.5883
C117 C 0.2473(6) 0.1044(6) 0.6754(4)
H116 H 0.2800 0.0519 0.6907
C118 C 0.2148(6) 0.1494(5) 0.7151(5)
H117 H 0.2240 0.1271 0.7574
N31 N 0.1067(5) 0.3103(5) 0.7588(4)
C119 C 0.1343(6) 0.2726(6) 0.7295(4)
C120 C 0.9034(6) 0.2216(6) 0.5961(4)
C121 C 0.9487(6) 0.1930(5) 0.5536(4)
H118 H 1.0036 0.1853 0.5542
C122 C 0.9129(6) 0.1759(5) 0.5104(4)
H119 H 0.9430 0.1564 0.4808
C123 C 0.8321(6) 0.1873(5) 0.5100(4)
H120 H 0.8075 0.1751 0.4803
C124 C 0.7890(7) 0.2158(5) 0.5521(4)
H121 H 0.7341 0.2235 0.5513
C125 C 0.8227(6) 0.2337(5) 0.5956(4)
H122 H 0.7919 0.2539 0.6247
N32 N 0.9698(5) 0.2531(4) 0.6780(4)
C126 C 0.9405(6) 0.2381(6) 0.6425(4)
C127 C 0.8359(8) 0.2189(7) 0.0891(5)
C128 C 0.8546(7) 0.1594(7) 0.0105(5)
H123 H 0.8369 0.1370 -0.0151
C129 C 0.9295(7) 0.1661(7) 0.0057(5)
H124 H 0.9626 0.1471 -0.0228
C130 C 0.9555(8) 0.2013(7) 0.0434(5)
H125 H 1.0059 0.2052 0.0405
C131 C 0.9085(7) 0.2282(7) 0.0818(5)
H126 H 0.9238 0.2545 0.1052
N33 N 0.7480(6) 0.2653(6) 0.1689(4)
C132 C 0.7912(8) 0.2431(7) 0.1336(5)
C133 C 0.8087(8) 0.1854(7) 0.0523(5)
H127 H 0.7586 0.1810 0.0565
C134 C -0.0678(6) 0.0465(6) 0.7007(4)
C135 C 0.0031(6) -0.0285(5) 0.5760(4)
H128 H -0.0156 -0.0486 0.5489
C136 C -0.0409(6) -0.0079(5) 0.6173(4)
H129 H -0.0899 -0.0146 0.6199
C137 C 0.0762(6) -0.0222(5) 0.5698(4)
H130 H 0.1066 -0.0368 0.5386
C138 C 0.1046(6) 0.0059(5) 0.6103(4)
H131 H 0.1558 0.0083 0.6079
N34 N -0.1074(5) 0.0611(5) 0.7391(4)
C139 C 0.0563(6) 0.0315(5) 0.6561(4)
H132 H 0.0733 0.0523 0.6834
C140 C -0.0192(6) 0.0232(6) 0.6575(4)
F1 F 0.6673(4) 0.1427(4) 0.9828(3)
F2 F 0.7032(4) 0.2046(4) 0.8971(3)
F3 F 0.5360(4) 0.2146(4) 0.9468(3)
F4 F 0.6218(4) 0.2688(4) 0.9553(3)
F5 F 0.5700(4) 0.2721(4) 0.8641(3)
F6 F 0.6167(4) 0.1457(4) 0.8934(3)
P1 P 0.61925(14) 0.21120(13) 0.92138(10)
P2 P 0.10514(15) 0.21621(14) 0.41170(10)
F7 F 0.1372(12) 0.2368(11) 0.3489(8)
F8 F 0.0410(6) 0.1915(5) 0.3917(4)
F9 F 0.1809(6) 0.2321(5) 0.4369(4)
F10 F 0.0456(11) 0.3026(11) 0.3990(9)
F11 F 0.0830(12) 0.1974(11) 0.4760(8)
F12 F 0.1679(6) 0.1331(5) 0.4120(4)
N35 N 0.7420(11) 0.1172(10) 0.2847(9)
C141 C 0.9054(12) 0.0484(12) 0.1908(10)
H133 H 0.9252 0.0770 0.2088
C142 C 0.8425(12) -0.0240(13) 0.1375(10)
H134 H 0.8260 -0.0588 0.1254
C143 C 0.9152(12) -0.0269(12) 0.1198(10)
H135 H 0.9391 -0.0473 0.0884
C144 C 0.9497(14) 0.0043(12) 0.1542(10)
H136 H 1.0047 -0.0046 0.1529
C145 C 0.7878(13) 0.0177(12) 0.1688(10)
H137 H 0.7332 0.0250 0.1698
C146 C 0.7818(14) 0.0843(14) 0.2412(12)
C147 C 0.8296(13) 0.0465(13) 0.1984(11)
C148 C 0.4451(11) 0.0309(10) 0.5656(8)
C149 C 0.3938(10) 0.0261(9) 0.5255(7)
H138 H 0.3808 -0.0174 0.5341
N36 N 0.5100(9) -0.0900(8) 0.6580(6)
C150 C 0.4304(10) 0.1529(9) 0.5059(7)
H139 H 0.4437 0.1962 0.4981
C151 C 0.3799(11) 0.1460(9) 0.4653(8)
H140 H 0.3569 0.1868 0.4299
C152 C 0.4601(11) 0.0954(8) 0.5574(7)
H141 H 0.4914 0.0999 0.5879
C153 C 0.4825(11) -0.0324(9) 0.6180(8)
C154 C 0.3607(11) 0.0821(8) 0.4735(7)
H142 H 0.3268 0.0783 0.4445
F13? F 0.1615(11) 0.1327(10) 0.4703(9)
F14? F 0.0615(11) 0.2648(12) 0.4519(9)
F15? F 0.0869(13) 0.2756(11) 0.3559(9)
loop_
_geom_bond_atom_site_label_1
_geom_bond_atom_site_label_2
_geom_bond_site_symmetry_1
_geom_bond_site_symmetry_2
B1 H1 1_555 1_555
C1 Fe1 1_555 1_555
C2 Fe1 1_555 1_555
C3 Fe1 1_555 1_555
C4 H2 1_555 1_555
C5 C4 1_555 1_555
H3 C5 1_555 1_555
C6 C5 1_555 1_555
C7 C6 1_555 1_555
H4 C7 1_555 1_555
C8 C7 1_555 1_555
C9 C8 1_555 1_555
C10 C9 1_555 1_555
H5 C10 1_555 1_555
C11 C10 1_555 1_555
C12 C11 1_555 1_555
H6 C12 1_555 1_555
C13 C12 1_555 1_555
H7 C13 1_555 1_555
C14 C6 1_555 1_555
H8 C14 1_555 1_555
H9 C14 1_555 1_555
H10 C14 1_555 1_555
C15 C11 1_555 1_555
H11 C15 1_555 1_555
H12 C15 1_555 1_555
H13 C15 1_555 1_555
C16 H14 1_555 1_555
C17 C16 1_555 1_555
H15 C17 1_555 1_555
C18 C17 1_555 1_555
C19 C18 1_555 1_555
H16 C19 1_555 1_555
H17 C19 1_555 1_555
H18 C19 1_555 1_555
C20 C18 1_555 1_555
H19 C20 1_555 1_555
C21 C20 1_555 1_555
C22 C21 1_555 1_555
C23 C22 1_555 1_555
H20 C23 1_555 1_555
C24 C23 1_555 1_555
C25 C24 1_555 1_555
H21 C25 1_555 1_555
C26 C25 1_555 1_555
H22 C26 1_555 1_555
C27 C24 1_555 1_555
H23 C27 1_555 1_555
H24 C27 1_555 1_555
H25 C27 1_555 1_555
C28 H26 1_555 1_555
H27 C28 1_555 1_555
H28 C28 1_555 1_555
C29 C28 1_555 1_555
C30 C29 1_555 1_555
H29 C30 1_555 1_555
C31 C30 1_555 1_555
C32 C31 1_555 1_555
H30 C32 1_555 1_555
H31 C32 1_555 1_555
H32 C32 1_555 1_555
C33 H33 1_555 1_555
H34 C33 1_555 1_555
H35 C33 1_555 1_555
C34 C33 1_555 1_555
C35 C34 1_555 1_555
H36 C35 1_555 1_555
C36 C35 1_555 1_555
C37 C36 1_555 1_555
H37 C37 1_555 1_555
H38 C37 1_555 1_555
H39 C37 1_555 1_555
C38 H40 1_555 1_555
H41 C38 1_555 1_555
H42 C38 1_555 1_555
C39 C38 1_555 1_555
C40 C39 1_555 1_555
H43 C40 1_555 1_555
C41 C40 1_555 1_555
C42 C41 1_555 1_555
H44 C42 1_555 1_555
H45 C42 1_555 1_555
H46 C42 1_555 1_555
Co1 N1 1_555 1_555
Fe1 N8 1_555 1_555
N1 C1 1_555 1_555
N2 C2 1_555 1_555
N3 C3 1_555 1_555
N4 C4 1_555 1_555
N5 C9 1_555 1_555
N6 C16 1_555 1_555
N7 C22 1_555 1_555
N8 C29 1_555 1_555
N9 B1 1_555 1_555
N10 C34 1_555 1_555
N11 B1 1_555 1_555
N12 C39 1_555 1_555
N13 B1 1_555 1_555
B2 H47 1_555 1_555
C43 Fe2 1_555 1_555
C44 Fe2 1_555 1_555
C45 Fe2 1_555 1_555
C46 H48 1_555 1_555
C47 C46 1_555 1_555
H49 C47 1_555 1_555
C48 C47 1_555 1_555
C49 C48 1_555 1_555
H50 C49 1_555 1_555
C50 C49 1_555 1_555
C51 C50 1_555 1_555
C52 C51 1_555 1_555
H51 C52 1_555 1_555
C53 C52 1_555 1_555
C54 C53 1_555 1_555
H52 C54 1_555 1_555
C55 C54 1_555 1_555
H53 C55 1_555 1_555
C56 C48 1_555 1_555
H54 C56 1_555 1_555
H55 C56 1_555 1_555
H56 C56 1_555 1_555
C57 C53 1_555 1_555
H57 C57 1_555 1_555
H58 C57 1_555 1_555
H59 C57 1_555 1_555
C58 H60 1_555 1_555
C59 C58 1_555 1_555
H61 C59 1_555 1_555
C60 C59 1_555 1_555
C61 C60 1_555 1_555
H62 C61 1_555 1_555
C62 C61 1_555 1_555
C63 C62 1_555 1_555
C64 C63 1_555 1_555
H63 C64 1_555 1_555
C65 C64 1_555 1_555
C66 C65 1_555 1_555
H64 C66 1_555 1_555
C67 C66 1_555 1_555
H65 C67 1_555 1_555
C68 C60 1_555 1_555
H66 C68 1_555 1_555
H67 C68 1_555 1_555
H68 C68 1_555 1_555
C69 C65 1_555 1_555
H69 C69 1_555 1_555
H70 C69 1_555 1_555
H71 C69 1_555 1_555
C70 H72 1_555 1_555
H73 C70 1_555 1_555
H74 C70 1_555 1_555
C71 C70 1_555 1_555
C72 C71 1_555 1_555
H75 C72 1_555 1_555
C73 C72 1_555 1_555
C74 C73 1_555 1_555
H76 C74 1_555 1_555
H77 C74 1_555 1_555
H78 C74 1_555 1_555
C75 H79 1_555 1_555
H80 C75 1_555 1_555
H81 C75 1_555 1_555
C76 C75 1_555 1_555
C77 C76 1_555 1_555
H82 C77 1_555 1_555
C78 C77 1_555 1_555
C79 C78 1_555 1_555
H83 C79 1_555 1_555
H84 C79 1_555 1_555
H85 C79 1_555 1_555
C80 H86 1_555 1_555
H87 C80 1_555 1_555
H88 C80 1_555 1_555
C81 C80 1_555 1_555
C82 C81 1_555 1_555
H89 C82 1_555 1_555
C83 C82 1_555 1_555
C84 C83 1_555 1_555
H90 C84 1_555 1_555
H91 C84 1_555 1_555
H92 C84 1_555 1_555
Co2 N14 1_555 1_555
Fe2 N21 1_555 1_555
N14 C43 1_555 1_555
N15 C44 1_555 1_555
N16 C45 1_555 1_555
N17 C46 1_555 1_555
N18 C51 1_555 1_555
N19 C58 1_555 1_555
N20 C63 1_555 1_555
N21 C71 1_555 1_555
N22 B2 1_555 1_555
N23 C76 1_555 1_555
N24 B2 1_555 1_555
N25 C81 1_555 1_555
N26 B2 1_555 1_555
C85 H93 1_555 1_555
C86 C85 1_555 1_555
H94 C86 1_555 1_555
C87 C86 1_555 1_555
C88 C87 1_555 1_555
H95 C88 1_555 1_555
C89 C88 1_555 1_555
H96 C89 1_555 1_555
N27 C90 1_555 1_555
O1 C87 1_555 1_555
H97 O1 1_555 1_555
C90 C91 1_555 1_555
C91 C85 1_555 1_555
C92 C93 1_555 1_555
C93 H98 1_555 1_555
C94 C93 1_555 1_555
H99 C94 1_555 1_555
C95 C94 1_555 1_555
C96 C95 1_555 1_555
H100 C96 1_555 1_555
C97 C92 1_555 1_555
H101 C97 1_555 1_555
N28 C98 1_555 1_555
O2 C95 1_555 1_555
H102 O2 1_555 1_555
C98 C92 1_555 1_555
C99 N29 1_555 1_555
C100 H103 1_555 1_555
C101 C100 1_555 1_555
H104 C101 1_555 1_555
C102 C101 1_555 1_555
H105 C102 1_555 1_555
C103 C102 1_555 1_555
H106 C103 1_555 1_555
C104 C103 1_555 1_555
H107 C104 1_555 1_555
C105 C99 1_555 1_555
C106 H108 1_555 1_555
C107 C106 1_555 1_555
H109 C107 1_555 1_555
C108 C107 1_555 1_555
H110 C108 1_555 1_555
C109 C108 1_555 1_555
H111 C109 1_555 1_555
C110 C109 1_555 1_555
H112 C110 1_555 1_555
N30 C111 1_555 1_555
C111 C112 1_555 1_555
C112 C106 1_555 1_555
C113 C114 1_555 1_555
C114 H113 1_555 1_555
C115 C114 1_555 1_555
H114 C115 1_555 1_555
C116 C115 1_555 1_555
H115 C116 1_555 1_555
C117 C116 1_555 1_555
H116 C117 1_555 1_555
C118 C113 1_555 1_555
H117 C118 1_555 1_555
N31 C119 1_555 1_555
C119 C113 1_555 1_555
C120 C121 1_555 1_555
C121 H118 1_555 1_555
C122 C121 1_555 1_555
H119 C122 1_555 1_555
C123 C122 1_555 1_555
H120 C123 1_555 1_555
C124 C123 1_555 1_555
H121 C124 1_555 1_555
C125 C120 1_555 1_555
H122 C125 1_555 1_555
N32 C126 1_555 1_555
C126 C120 1_555 1_555
C127 C131 1_555 1_555
C128 H123 1_555 1_555
C129 C128 1_555 1_555
H124 C129 1_555 1_555
C130 C129 1_555 1_555
H125 C130 1_555 1_555
C131 C130 1_555 1_555
H126 C131 1_555 1_555
N33 C132 1_555 1_555
C132 C127 1_555 1_555
C133 C127 1_555 1_555
H127 C133 1_555 1_555
C134 N34 1_555 1_555
C135 H128 1_555 1_555
C136 C135 1_555 1_555
H129 C136 1_555 1_555
C137 C135 1_555 1_555
H130 C137 1_555 1_555
C138 C137 1_555 1_555
H131 C138 1_555 1_555
C139 C138 1_555 1_555
H132 C139 1_555 1_555
C140 C134 1_555 1_555
F1 P1 1_555 1_555
F2 P1 1_555 1_555
F3 P1 1_555 1_555
F4 P1 1_555 1_555
F5 P1 1_555 1_555
F6 P1 1_555 1_555
P2 F7 1_555 1_555
F8 P2 1_555 1_555
F9 P2 1_555 1_555
F10 P2 1_555 1_555
F11 P2 1_555 1_555
F12 P2 1_555 1_555
N35 C146 1_555 1_555
C141 H133 1_555 1_555
C142 H134 1_555 1_555
C143 C142 1_555 1_555
H135 C143 1_555 1_555
C144 C141 1_555 1_555
H136 C144 1_555 1_555
C145 C142 1_555 1_555
H137 C145 1_555 1_555
C146 C147 1_555 1_555
C147 C141 1_555 1_555
C148 C149 1_555 1_555
C149 H138 1_555 1_555
N36 C153 1_555 1_555
C150 H139 1_555 1_555
C151 C150 1_555 1_555
H140 C151 1_555 1_555
C152 C148 1_555 1_555
H141 C152 1_555 1_555
C153 C148 1_555 1_555
C154 C149 1_555 1_555
H142 C154 1_555 1_555
B1A H1A 1_555 1_555
C1A Fe1A 1_555 1_555
C2A Fe1A 1_555 1_555
C3A Fe1A 1_555 1_555
C4A H2A 1_555 1_555
C5A C4A 1_555 1_555
H3A C5A 1_555 1_555
C6A C5A 1_555 1_555
C7A C6A 1_555 1_555
H4A C7A 1_555 1_555
C8A C7A 1_555 1_555
C9A C8A 1_555 1_555
C10A C9A 1_555 1_555
H5A C10A 1_555 1_555
C11A C10A 1_555 1_555
C12A C11A 1_555 1_555
H6A C12A 1_555 1_555
C13A C12A 1_555 1_555
H7A C13A 1_555 1_555
C14A C6A 1_555 1_555
H8A C14A 1_555 1_555
H9A C14A 1_555 1_555
H10A C14A 1_555 1_555
C15A C11A 1_555 1_555
H11A C15A 1_555 1_555
H12A C15A 1_555 1_555
H13A C15A 1_555 1_555
C16A H14A 1_555 1_555
C17A C16A 1_555 1_555
H15A C17A 1_555 1_555
C18A C17A 1_555 1_555
C19A C18A 1_555 1_555
H16A C19A 1_555 1_555
H17A C19A 1_555 1_555
H18A C19A 1_555 1_555
C20A C18A 1_555 1_555
H19A C20A 1_555 1_555
C21A C20A 1_555 1_555
C22A C21A 1_555 1_555
C23A C22A 1_555 1_555
H20A C23A 1_555 1_555
C24A C23A 1_555 1_555
C25A C24A 1_555 1_555
H21A C25A 1_555 1_555
C26A C25A 1_555 1_555
H22A C26A 1_555 1_555
C27A C24A 1_555 1_555
H23A C27A 1_555 1_555
H24A C27A 1_555 1_555
H25A C27A 1_555 1_555
C28A H26A 1_555 1_555
H27A C28A 1_555 1_555
H28A C28A 1_555 1_555
C29A C28A 1_555 1_555
C30A C29A 1_555 1_555
H29A C30A 1_555 1_555
C31A C30A 1_555 1_555
C32A C31A 1_555 1_555
H30A C32A 1_555 1_555
H31A C32A 1_555 1_555
H32A C32A 1_555 1_555
C33A H33A 1_555 1_555
H34A C33A 1_555 1_555
H35A C33A 1_555 1_555
C34A C33A 1_555 1_555
C35A C34A 1_555 1_555
H36A C35A 1_555 1_555
C36A C35A 1_555 1_555
C37A C36A 1_555 1_555
H37A C37A 1_555 1_555
H38A C37A 1_555 1_555
H39A C37A 1_555 1_555
C38A H40A 1_555 1_555
H41A C38A 1_555 1_555
H42A C38A 1_555 1_555
C39A C38A 1_555 1_555
C40A C39A 1_555 1_555
H43A C40A 1_555 1_555
C41A C40A 1_555 1_555
C42A C41A 1_555 1_555
H44A C42A 1_555 1_555
H45A C42A 1_555 1_555
H46A C42A 1_555 1_555
Co1A N2 1_555 1_555
Fe1A N8A 1_555 1_555
N1A C1A 1_555 1_555
N2A Co1 1_555 1_555
N3A C3A 1_555 1_555
N4A C4A 1_555 1_555
N5A C9A 1_555 1_555
N6A C16A 1_555 1_555
N7A C22A 1_555 1_555
N8A C29A 1_555 1_555
N9A B1A 1_555 1_555
N10A C34A 1_555 1_555
N11A B1A 1_555 1_555
N12A C39A 1_555 1_555
N13A B1A 1_555 1_555
B2A H47A 1_555 1_555
C43A Fe2A 1_555 1_555
C44A Fe2A 1_555 1_555
C45A Fe2A 1_555 1_555
C46A H48A 1_555 1_555
C47A C46A 1_555 1_555
H49A C47A 1_555 1_555
C48A C47A 1_555 1_555
C49A C48A 1_555 1_555
H50A C49A 1_555 1_555
C50A C49A 1_555 1_555
C51A C50A 1_555 1_555
C52A C51A 1_555 1_555
H51A C52A 1_555 1_555
C53A C52A 1_555 1_555
C54A C53A 1_555 1_555
H52A C54A 1_555 1_555
C55A C54A 1_555 1_555
H53A C55A 1_555 1_555
C56A C48A 1_555 1_555
H54A C56A 1_555 1_555
H55A C56A 1_555 1_555
H56A C56A 1_555 1_555
C57A C53A 1_555 1_555
H57A C57A 1_555 1_555
H58A C57A 1_555 1_555
H59A C57A 1_555 1_555
C58A H60A 1_555 1_555
C59A C58A 1_555 1_555
H61A C59A 1_555 1_555
C60A C59A 1_555 1_555
C61A C60A 1_555 1_555
H62A C61A 1_555 1_555
C62A C61A 1_555 1_555
C63A C62A 1_555 1_555
C64A C63A 1_555 1_555
H63A C64A 1_555 1_555
C65A C64A 1_555 1_555
C66A C65A 1_555 1_555
H64A C66A 1_555 1_555
C67A C66A 1_555 1_555
H65A C67A 1_555 1_555
C68A C60A 1_555 1_555
H66A C68A 1_555 1_555
H67A C68A 1_555 1_555
H68A C68A 1_555 1_555
C69A C65A 1_555 1_555
H69A C69A 1_555 1_555
H70A C69A 1_555 1_555
H71A C69A 1_555 1_555
C70A H72A 1_555 1_555
H73A C70A 1_555 1_555
H74A C70A 1_555 1_555
C71A C70A 1_555 1_555
C72A C71A 1_555 1_555
H75A C72A 1_555 1_555
C73A C72A 1_555 1_555
C74A C73A 1_555 1_555
H76A C74A 1_555 1_555
H77A C74A 1_555 1_555
H78A C74A 1_555 1_555
C75A H79A 1_555 1_555
H80A C75A 1_555 1_555
H81A C75A 1_555 1_555
C76A C75A 1_555 1_555
C77A C76A 1_555 1_555
H82A C77A 1_555 1_555
C78A C77A 1_555 1_555
C79A C78A 1_555 1_555
H83A C79A 1_555 1_555
H84A C79A 1_555 1_555
H85A C79A 1_555 1_555
C80A H86A 1_555 1_555
H87A C80A 1_555 1_555
H88A C80A 1_555 1_555
C81A C80A 1_555 1_555
C82A C81A 1_555 1_555
H89A C82A 1_555 1_555
C83A C82A 1_555 1_555
C84A C83A 1_555 1_555
H90A C84A 1_555 1_555
H91A C84A 1_555 1_555
H92A C84A 1_555 1_555
Co2A N15 1_555 1_555
Fe2A N21A 1_555 1_555
N14A C43A 1_555 1_555
N15A Co2 1_555 1_555
N16A C45A 1_555 1_555
N17A C46A 1_555 1_555
N18A C51A 1_555 1_555
N19A C58A 1_555 1_555
N20A C63A 1_555 1_555
N21A C71A 1_555 1_555
N22A B2A 1_555 1_555
N23A C76A 1_555 1_555
N24A B2A 1_555 1_555
N25A C81A 1_555 1_555
N26A B2A 1_555 1_555
C8 N4 1_555 1_555
C13 N5 1_555 1_555
C21 N6 1_555 1_555
C26 N7 1_555 1_555
C31 N9 1_555 1_555
C36 N11 1_555 1_555
C41 N13 1_555 1_555
Co1 N4 1_555 1_555
Co1 N5 1_555 1_555
Co1 N6 1_555 1_555
Co1 N7 1_555 1_555
Fe1 N10 1_555 1_555
Fe1 N12 1_555 1_555
N8 N9 1_555 1_555
N10 N11 1_555 1_555
N12 N13 1_555 1_555
C50 N17 1_555 1_555
C55 N18 1_555 1_555
C62 N19 1_555 1_555
C67 N20 1_555 1_555
C73 N22 1_555 1_555
C78 N24 1_555 1_555
C83 N26 1_555 1_555
Co2 N17 1_555 1_555
Co2 N18 1_555 1_555
Co2 N19 1_555 1_555
Co2 N20 1_555 1_555
Fe2 N23 1_555 1_555
Fe2 N25 1_555 1_555
N21 N22 1_555 1_555
N23 N24 1_555 1_555
N25 N26 1_555 1_555
C89 C91 1_555 1_555
C96 C97 1_555 1_555
C100 C105 1_555 1_555
C104 C105 1_555 1_555
C110 C112 1_555 1_555
C117 C118 1_555 1_555
C124 C125 1_555 1_555
C128 C133 1_555 1_555
C136 C140 1_555 1_555
C139 C140 1_555 1_555
C143 C144 1_555 1_555
C145 C147 1_555 1_555
C150 C152 1_555 1_555
C151 C154 1_555 1_555
C2A N2A 1_555 1_555
C8A N4A 1_555 1_555
C13A N5A 1_555 1_555
C21A N6A 1_555 1_555
C26A N7A 1_555 1_555
C31A N9A 1_555 1_555
C36A N11A 1_555 1_555
C41A N13A 1_555 1_555
Co1A N1A 1_555 1_555
Co1A N4A 1_555 1_555
Co1A N5A 1_555 1_555
Co1A N6A 1_555 1_555
Co1A N7A 1_555 1_555
Fe1A N10A 1_555 1_555
Fe1A N12A 1_555 1_555
N8A N9A 1_555 1_555
N10A N11A 1_555 1_555
N12A N13A 1_555 1_555
C44A N15A 1_555 1_555
C50A N17A 1_555 1_555
C55A N18A 1_555 1_555
C62A N19A 1_555 1_555
C67A N20A 1_555 1_555
C73A N22A 1_555 1_555
C78A N24A 1_555 1_555
C83A N26A 1_555 1_555
Co2A N14A 1_555 1_555
Co2A N17A 1_555 1_555
Co2A N18A 1_555 1_555
Co2A N19A 1_555 1_555
Co2A N20A 1_555 1_555
Fe2A N23A 1_555 1_555
Fe2A N25A 1_555 1_555
N21A N22A 1_555 1_555
N23A N24A 1_555 1_555
N25A N26A 1_555 1_555

#END
