
#######################################################################
#
#                 Cambridge Crystallographic Data Centre
#                                CCDC 
#
#######################################################################
#
# If this CIF has been generated from an entry in the Cambridge 
# Structural Database, then it will include bibliographic, chemical, 
# crystal, experimental, refinement or atomic coordinate data resulting 
# from the CCDC's data processing and validation procedures.
#
#######################################################################

data_DAPGUZ02
_chemical_formula_moiety         
'C84 H92 B2 Co2 Fe2 N26 2+,2(C7 H5 N1 O1),8(C7 H5 N1),2(F6 P1 1-)'
_chemical_name_systematic        
"tetrakis(\m-cyano)-bis(cyano)-tetrakis(4,4'-dimethyl-2,2'-bipyridine)-bis(hydrogen tris(3,5-dimethylpyrazolyl)borate)-di-cobalt-di-iron bis(hexafluorophosphate) bis(4-cyanophenol) benzonitrile solvate"
_symmetry_cell_setting           triclinic
_symmetry_space_group_name_H-M   'P -1'
_symmetry_Int_Tables_number      2
_space_group_name_Hall           '-P 1'
loop_
_symmetry_equiv_pos_site_id
_symmetry_equiv_pos_as_xyz
1 x,y,z
2 -x,-y,-z
_cell_length_a                   18.546(6)
_cell_length_b                   20.250(7)
_cell_length_c                   23.523(7)
_cell_angle_alpha                74.441(4)
_cell_angle_beta                 89.411(4)
_cell_angle_gamma                66.243(4)
_cell_volume                     7741.28
_exptl_crystal_colour            'dark green'
_exptl_crystal_description       plate
_cell_formula_units_Z            2
loop_
_atom_site_label
_atom_site_type_symbol
_atom_site_fract_x
_atom_site_fract_y
_atom_site_fract_z
B1 B 0.6980(5) 0.6617(4) 0.1460(3)
H1 H 0.7141 0.6147 0.1784
C1 C 0.6261(4) 0.9048(3) 0.0565(2)
C2 C 0.5538(4) 0.8537(3) -0.0115(3)
C3 C 0.7005(4) 0.8349(4) -0.0217(3)
C4 C 0.5567(4) 1.1645(4) 0.1749(3)
H2 H 0.5201 1.1454 0.1895
C5 C 0.5615(5) 1.2210(4) 0.1948(3)
H3 H 0.5304 1.2374 0.2237
C6 C 0.6117(5) 1.2526(4) 0.1722(3)
C7 C 0.6577(4) 1.2249(4) 0.1300(3)
H4 H 0.6917 1.2461 0.1129
C8 C 0.6537(4) 1.1667(3) 0.1136(3)
C9 C 0.7009(4) 1.1337(3) 0.0688(3)
C10 C 0.7584(4) 1.1551(4) 0.0430(3)
H5 H 0.7690 1.1915 0.0537
C11 C 0.8008(5) 1.1224(5) 0.0007(3)
C12 C 0.7805(5) 1.0691(5) -0.0137(3)
H6 H 0.8063 1.0462 -0.0419
C13 C 0.7232(4) 1.0504(4) 0.0131(3)
H7 H 0.7111 1.0147 0.0025
C14 C 0.6159(6) 1.3165(5) 0.1918(5)
H8 H 0.5637 1.3560 0.1871
H9 H 0.6495 1.3356 0.1681
H10 H 0.6373 1.2982 0.2328
C15 C 0.8618(6) 1.1459(6) -0.0293(4)
H11 H 0.8606 1.1889 -0.0188
H12 H 0.8505 1.1586 -0.0715
H13 H 0.9134 1.1052 -0.0168
C16 C 0.4575(5) 1.0413(4) 0.1682(3)
H14 H 0.4285 1.0863 0.1392
C17 C 0.4181(5) 1.0082(5) 0.2071(3)
H15 H 0.3631 1.0317 0.2046
C18 C 0.4576(5) 0.9422(5) 0.2491(3)
C19 C 0.5399(5) 0.9116(4) 0.2527(3)
H16 H 0.5698 0.8667 0.2816
C20 C 0.5773(4) 0.9476(4) 0.2137(3)
C21 C 0.6645(4) 0.9204(4) 0.2169(3)
C22 C 0.7165(5) 0.8608(4) 0.2615(3)
H17 H 0.6970 0.8332 0.2907
C23 C 0.7985(5) 0.8409(4) 0.2638(3)
C24 C 0.8244(4) 0.8851(4) 0.2205(3)
H18 H 0.8780 0.8752 0.2207
C25 C 0.7686(4) 0.9445(4) 0.1768(3)
H19 H 0.7868 0.9733 0.1475
C26 C 0.8553(6) 0.7764(5) 0.3123(4)
H20 H 0.8610 0.7938 0.3454
H21 H 0.9059 0.7557 0.2980
H22 H 0.8355 0.7382 0.3246
C27 C 0.4143(6) 0.9015(5) 0.2905(4)
H23 H 0.4145 0.9107 0.3284
H24 H 0.4407 0.8483 0.2955
H25 H 0.3606 0.9199 0.2734
C28 C 0.6533(5) 0.7235(4) -0.0743(3)
H26 H 0.6834 0.7533 -0.0832
H27 H 0.5977 0.7560 -0.0818
H28 H 0.6659 0.6903 -0.0990
C29 C 0.6728(4) 0.6789(4) -0.0118(3)
C30 C 0.6968(4) 0.6017(4) 0.0113(4)
H29 H 0.7031 0.5681 -0.0106
C31 C 0.7093(4) 0.5836(4) 0.0718(4)
C32 C 0.7342(5) 0.5093(4) 0.1170(4)
H30 H 0.7254 0.4748 0.0998
H31 H 0.7037 0.5149 0.1500
H32 H 0.7895 0.4900 0.1304
C33 C 0.8209(4) 0.8413(4) 0.0709(3)
H33 H 0.8639 0.8462 0.0890
H34 H 0.7741 0.8876 0.0636
H35 H 0.8345 0.8303 0.0339
C34 C 0.8058(4) 0.7801(4) 0.1106(3)
C35 C 0.8544(5) 0.7273(4) 0.1618(3)
H36 H 0.9006 0.7261 0.1779
C36 C 0.8203(5) 0.6773(4) 0.1839(3)
C37 C 0.8470(6) 0.6104(5) 0.2375(4)
H37 H 0.9017 0.5957 0.2503
H38 H 0.8411 0.5695 0.2279
H39 H 0.8154 0.6230 0.2688
C38 C 0.4575(4) 0.9060(4) 0.0928(3)
H40 H 0.4338 0.9045 0.0574
H41 H 0.4858 0.9374 0.0823
H42 H 0.4168 0.9263 0.1168
C39 C 0.5141(4) 0.8276(4) 0.1272(3)
C40 C 0.5007(5) 0.7836(5) 0.1793(3)
H43 H 0.4564 0.7973 0.1998
C41 C 0.5658(5) 0.7163(5) 0.1944(3)
C42 C 0.5849(6) 0.6472(5) 0.2461(4)
H44 H 0.5529 0.6604 0.2770
H45 H 0.6399 0.6265 0.2607
H46 H 0.5741 0.6105 0.2334
Co1 Co 0.60230(5) 1.04682(4) 0.10445(3)
Fe1 Fe 0.64743(5) 0.80803(4) 0.04428(4)
N1 N 0.6163(3) 0.9601(3) 0.0665(2)
N2 N 0.4973(3) 0.8817(3) -0.0457(2)
N3 N 0.7313(4) 0.8544(4) -0.0626(3)
N4 N 0.6030(3) 1.1361(3) 0.1354(2)
N5 N 0.6835(3) 1.0812(3) 0.0541(2)
N6 N 0.5364(3) 1.0107(3) 0.1705(2)
N7 N 0.6909(3) 0.9631(3) 0.1740(2)
N8 N 0.6713(3) 0.7076(3) 0.0345(2)
N9 N 0.6936(3) 0.6475(3) 0.0865(2)
N10 N 0.7456(3) 0.7619(3) 0.1015(2)
N11 N 0.7569(3) 0.6979(3) 0.1467(2)
N12 N 0.5835(3) 0.7885(3) 0.1108(2)
N13 N 0.6148(3) 0.7200(3) 0.1527(2)
B1A B 0.3020(5) 1.3383(4) -0.1460(3)
H1A H 0.2859 1.3853 -0.1784
C1A C 0.3739(4) 1.0952(3) -0.0565(2)
C2A C 0.4462(4) 1.1463(3) 0.0115(3)
C3A C 0.2995(4) 1.1651(4) 0.0217(3)
C4A C 0.4433(4) 0.8355(4) -0.1749(3)
H2A H 0.4799 0.8546 -0.1895
C5A C 0.4385(5) 0.7790(4) -0.1948(3)
H3A H 0.4696 0.7626 -0.2237
C6A C 0.3883(5) 0.7474(4) -0.1722(3)
C7A C 0.3423(4) 0.7751(4) -0.1300(3)
H4A H 0.3083 0.7539 -0.1129
C8A C 0.3463(4) 0.8333(3) -0.1136(3)
C9A C 0.2991(4) 0.8663(3) -0.0688(3)
C10A C 0.2416(4) 0.8449(4) -0.0430(3)
H5A H 0.2310 0.8085 -0.0537
C11A C 0.1992(5) 0.8776(5) -0.0007(3)
C12A C 0.2195(5) 0.9309(5) 0.0137(3)
H6A H 0.1937 0.9538 0.0419
C13A C 0.2768(4) 0.9496(4) -0.0131(3)
H7A H 0.2889 0.9853 -0.0025
C14A C 0.3841(6) 0.6835(5) -0.1918(5)
H8A H 0.4363 0.6440 -0.1871
H9A H 0.3505 0.6644 -0.1681
H10A H 0.3627 0.7018 -0.2328
C15A C 0.1382(6) 0.8541(6) 0.0293(4)
H11A H 0.1394 0.8111 0.0188
H12A H 0.1495 0.8414 0.0715
H13A H 0.0866 0.8948 0.0168
C16A C 0.5425(5) 0.9587(4) -0.1682(3)
H14A H 0.5715 0.9137 -0.1392
C17A C 0.5819(5) 0.9918(5) -0.2071(3)
H15A H 0.6369 0.9683 -0.2046
C18A C 0.5424(5) 1.0578(5) -0.2491(3)
C19A C 0.4601(5) 1.0884(4) -0.2527(3)
H16A H 0.4302 1.1333 -0.2816
C20A C 0.4227(4) 1.0524(4) -0.2137(3)
C21A C 0.3355(4) 1.0796(4) -0.2169(3)
C22A C 0.2835(5) 1.1392(4) -0.2615(3)
H17A H 0.3030 1.1668 -0.2907
C23A C 0.2015(5) 1.1591(4) -0.2638(3)
C24A C 0.1756(4) 1.1149(4) -0.2205(3)
H18A H 0.1220 1.1248 -0.2207
C25A C 0.2314(4) 1.0555(4) -0.1768(3)
H19A H 0.2132 1.0267 -0.1475
C26A C 0.1447(6) 1.2236(5) -0.3123(4)
H20A H 0.1390 1.2062 -0.3454
H21A H 0.0941 1.2443 -0.2980
H22A H 0.1645 1.2618 -0.3246
C27A C 0.5857(6) 1.0985(5) -0.2905(4)
H23A H 0.5855 1.0893 -0.3284
H24A H 0.5593 1.1517 -0.2955
H25A H 0.6394 1.0801 -0.2734
C28A C 0.3467(5) 1.2765(4) 0.0743(3)
H26A H 0.3166 1.2467 0.0832
H27A H 0.4023 1.2440 0.0818
H28A H 0.3341 1.3097 0.0990
C29A C 0.3272(4) 1.3211(4) 0.0118(3)
C30A C 0.3032(4) 1.3983(4) -0.0113(4)
H29A H 0.2969 1.4319 0.0106
C31A C 0.2907(4) 1.4164(4) -0.0718(4)
C32A C 0.2658(5) 1.4907(4) -0.1170(4)
H30A H 0.2746 1.5252 -0.0998
H31A H 0.2963 1.4851 -0.1500
H32A H 0.2105 1.5100 -0.1304
C33A C 0.1791(4) 1.1587(4) -0.0709(3)
H33A H 0.1361 1.1538 -0.0890
H34A H 0.2259 1.1124 -0.0636
H35A H 0.1655 1.1697 -0.0339
C34A C 0.1942(4) 1.2199(4) -0.1106(3)
C35A C 0.1456(5) 1.2727(4) -0.1618(3)
H36A H 0.0994 1.2739 -0.1779
C36A C 0.1797(5) 1.3227(4) -0.1839(3)
C37A C 0.1530(6) 1.3896(5) -0.2375(4)
H37A H 0.0983 1.4043 -0.2503
H38A H 0.1589 1.4305 -0.2279
H39A H 0.1846 1.3770 -0.2688
C38A C 0.5425(4) 1.0940(4) -0.0928(3)
H40A H 0.5662 1.0955 -0.0574
H41A H 0.5142 1.0626 -0.0823
H42A H 0.5832 1.0737 -0.1168
C39A C 0.4859(4) 1.1724(4) -0.1272(3)
C40A C 0.4993(5) 1.2164(5) -0.1793(3)
H43A H 0.5436 1.2027 -0.1998
C41A C 0.4342(5) 1.2837(5) -0.1944(3)
C42A C 0.4151(6) 1.3528(5) -0.2461(4)
H44A H 0.4471 1.3396 -0.2770
H45A H 0.3601 1.3735 -0.2607
H46A H 0.4259 1.3895 -0.2334
Co1A Co 0.39770(5) 0.95318(4) -0.10445(3)
Fe1A Fe 0.35257(5) 1.19197(4) -0.04428(4)
N1A N 0.3837(3) 1.0399(3) -0.0665(2)
N2A N 0.5027(3) 1.1183(3) 0.0457(2)
N3A N 0.2687(4) 1.1456(4) 0.0626(3)
N4A N 0.3970(3) 0.8639(3) -0.1354(2)
N5A N 0.3165(3) 0.9188(3) -0.0541(2)
N6A N 0.4636(3) 0.9893(3) -0.1705(2)
N7A N 0.3091(3) 1.0369(3) -0.1740(2)
N8A N 0.3287(3) 1.2924(3) -0.0345(2)
N9A N 0.3064(3) 1.3525(3) -0.0865(2)
N10A N 0.2544(3) 1.2381(3) -0.1015(2)
N11A N 0.2431(3) 1.3021(3) -0.1467(2)
N12A N 0.4165(3) 1.2115(3) -0.1108(2)
N13A N 0.3852(3) 1.2800(3) -0.1527(2)
B2 B 0.9020(6) 0.3319(5) 0.3503(4)
H47 H 0.8783 0.3791 0.3181
C43 C 0.9221(4) 0.1394(3) 0.5077(3)
C44 C 1.0378(4) 0.0921(4) 0.4381(2)
C45 C 1.0523(4) 0.1591(4) 0.5181(3)
C46 C 0.7732(4) -0.0423(4) 0.6656(3)
H48 H 0.7318 -0.0142 0.6352
C47 C 0.7682(5) -0.0999(4) 0.7111(3)
H49 H 0.7228 -0.1087 0.7110
C48 C 0.8295(5) -0.1448(4) 0.7567(3)
C49 C 0.8943(4) -0.1271(4) 0.7550(3)
H50 H 0.9366 -0.1550 0.7847
C50 C 0.8972(4) -0.0682(3) 0.7096(3)
C51 C 0.9616(4) -0.0427(3) 0.7077(3)
C52 C 1.0255(4) -0.0736(4) 0.7489(3)
H51 H 1.0324 -0.1158 0.7802
C53 C 1.0807(4) -0.0430(4) 0.7448(3)
C54 C 1.0658(4) 0.0202(4) 0.6982(3)
H52 H 1.0997 0.0442 0.6953
C55 C 1.0015(4) 0.0491(4) 0.6553(3)
H53 H 0.9941 0.0906 0.6232
C56 C 0.8241(6) -0.2075(5) 0.8045(3)
H54 H 0.7917 -0.1874 0.8331
H55 H 0.8762 -0.2420 0.8236
H56 H 0.8009 -0.2335 0.7875
C57 C 1.1533(5) -0.0787(5) 0.7896(4)
H57 H 1.1668 -0.1317 0.8054
H58 H 1.1424 -0.0557 0.8213
H59 H 1.1967 -0.0715 0.7706
C58 C 0.7593(4) 0.0404(4) 0.5093(3)
H60 H 0.8047 0.0042 0.5008
C59 C 0.6869(5) 0.0597(5) 0.4790(3)
H61 H 0.6842 0.0355 0.4511
C60 C 0.6208(5) 0.1125(6) 0.4894(4)
C61 C 0.6268(5) 0.1478(5) 0.5320(4)
H62 H 0.5819 0.1844 0.5407
C62 C 0.6999(4) 0.1273(4) 0.5605(3)
C63 C 0.7138(4) 0.1610(4) 0.6054(3)
C64 C 0.6566(5) 0.2183(5) 0.6219(3)
H63 H 0.6043 0.2379 0.6053
C65 C 0.6767(5) 0.2480(5) 0.6642(3)
C66 C 0.7549(5) 0.2159(4) 0.6872(3)
H64 H 0.7710 0.2340 0.7148
C67 C 0.8091(4) 0.1578(4) 0.6701(3)
H65 H 0.8615 0.1372 0.6867
C68 C 0.5408(6) 0.1309(8) 0.4598(5)
H66 H 0.5456 0.1280 0.4197
H67 H 0.5048 0.1809 0.4594
H68 H 0.5209 0.0954 0.4812
C69 C 0.6126(6) 0.3134(6) 0.6817(5)
H69 H 0.5713 0.3426 0.6493
H70 H 0.6356 0.3447 0.6907
H71 H 0.5908 0.2937 0.7159
C70 C 1.1796(5) 0.1579(4) 0.4270(3)
H72 H 1.1737 0.1114 0.4347
H73 H 1.1824 0.1696 0.4636
H74 H 1.2273 0.1530 0.4088
C71 C 1.1114(5) 0.2186(4) 0.3870(3)
C72 C 1.1143(5) 0.2719(4) 0.3361(3)
H75 H 1.1599 0.2735 0.3203
C73 C 1.0401(6) 0.3199(4) 0.3144(3)
C74 C 1.0070(6) 0.3887(5) 0.2594(4)
H76 H 1.0501 0.3953 0.2394
H77 H 0.9764 0.4328 0.2713
H78 H 0.9739 0.3810 0.2330
C75 C 0.9017(6) 0.2746(4) 0.5697(3)
H79 H 0.9573 0.2566 0.5815
H80 H 0.8879 0.2325 0.5755
H81 H 0.8718 0.3061 0.5933
C76 C 0.8833(5) 0.3189(4) 0.5059(3)
C77 C 0.8372(5) 0.3950(4) 0.4838(4)
H82 H 0.8127 0.4284 0.5057
C78 C 0.8347(5) 0.4118(4) 0.4237(4)
C79 C 0.7926(6) 0.4859(4) 0.3760(4)
H83 H 0.7554 0.5221 0.3931
H84 H 0.7649 0.4785 0.3456
H85 H 0.8307 0.5040 0.3589
C80 C 0.8689(4) 0.0928(4) 0.4028(3)
H86 H 0.8381 0.0761 0.3823
H87 H 0.8497 0.0963 0.4404
H88 H 0.9235 0.0573 0.4091
C81 C 0.8620(4) 0.1679(4) 0.3665(3)
C82 C 0.8185(5) 0.2102(5) 0.3115(3)
H89 H 0.7895 0.1958 0.2892
C83 C 0.8262(5) 0.2762(5) 0.2964(3)
C84 C 0.7932(6) 0.3443(6) 0.2409(4)
H90 H 0.7828 0.3285 0.2080
H91 H 0.8312 0.3656 0.2317
H92 H 0.7448 0.3815 0.2481
Co2 Co 0.86061(5) 0.04536(4) 0.60224(3)
Fe2 Fe 0.97633(6) 0.18420(5) 0.45334(4)
N14 N 0.8923(3) 0.1112(3) 0.5441(2)
N15 N 1.0770(3) 0.0375(3) 0.4269(2)
N16 N 1.0989(4) 0.1404(4) 0.5587(3)
N17 N 0.8374(3) -0.0265(3) 0.6650(2)
N18 N 0.9499(3) 0.0171(3) 0.6603(2)
N19 N 0.7652(3) 0.0731(3) 0.5506(2)
N20 N 0.7903(3) 0.1290(3) 0.6303(2)
N21 N 1.0358(3) 0.2338(3) 0.3954(2)
N22 N 0.9907(4) 0.2980(3) 0.3508(2)
N23 N 0.9102(3) 0.2881(3) 0.4617(2)
N24 N 0.8802(4) 0.3470(3) 0.4107(2)
N25 N 0.8969(3) 0.2060(3) 0.3849(2)
N26 N 0.8711(3) 0.2752(3) 0.3410(2)
B2A B 1.0980(6) -0.3319(5) 0.6497(4)
H47A H 1.1217 -0.3791 0.6819
C43A C 1.0779(4) -0.1394(3) 0.4923(3)
C44A C 0.9622(4) -0.0921(4) 0.5619(2)
C45A C 0.9477(4) -0.1591(4) 0.4819(3)
C46A C 1.2268(4) 0.0423(4) 0.3344(3)
H48A H 1.2682 0.0142 0.3648
C47A C 1.2318(5) 0.0999(4) 0.2889(3)
H49A H 1.2772 0.1087 0.2890
C48A C 1.1705(5) 0.1448(4) 0.2433(3)
C49A C 1.1057(4) 0.1271(4) 0.2450(3)
H50A H 1.0634 0.1550 0.2153
C50A C 1.1028(4) 0.0682(3) 0.2904(3)
C51A C 1.0384(4) 0.0427(3) 0.2923(3)
C52A C 0.9745(4) 0.0736(4) 0.2511(3)
H51A H 0.9676 0.1158 0.2198
C53A C 0.9193(4) 0.0430(4) 0.2552(3)
C54A C 0.9342(4) -0.0202(4) 0.3018(3)
H52A H 0.9003 -0.0442 0.3047
C55A C 0.9985(4) -0.0491(4) 0.3447(3)
H53A H 1.0059 -0.0906 0.3768
C56A C 1.1759(6) 0.2075(5) 0.1955(3)
H54A H 1.2083 0.1874 0.1669
H55A H 1.1238 0.2420 0.1764
H56A H 1.1991 0.2335 0.2125
C57A C 0.8467(5) 0.0787(5) 0.2104(4)
H57A H 0.8332 0.1317 0.1946
H58A H 0.8576 0.0557 0.1787
H59A H 0.8033 0.0715 0.2294
C58A C 1.2407(4) -0.0404(4) 0.4907(3)
H60A H 1.1953 -0.0042 0.4992
C59A C 1.3131(5) -0.0597(5) 0.5210(3)
H61A H 1.3158 -0.0355 0.5489
C60A C 1.3792(5) -0.1125(6) 0.5106(4)
C61A C 1.3732(5) -0.1478(5) 0.4680(4)
H62A H 1.4181 -0.1844 0.4593
C62A C 1.3001(4) -0.1273(4) 0.4395(3)
C63A C 1.2862(4) -0.1610(4) 0.3946(3)
C64A C 1.3434(5) -0.2183(5) 0.3781(3)
H63A H 1.3957 -0.2379 0.3947
C65A C 1.3233(5) -0.2480(5) 0.3358(3)
C66A C 1.2451(5) -0.2159(4) 0.3128(3)
H64A H 1.2290 -0.2340 0.2852
C67A C 1.1909(4) -0.1578(4) 0.3299(3)
H65A H 1.1385 -0.1372 0.3133
C68A C 1.4592(6) -0.1309(8) 0.5402(5)
H66A H 1.4544 -0.1280 0.5803
H67A H 1.4952 -0.1809 0.5406
H68A H 1.4791 -0.0954 0.5188
C69A C 1.3874(6) -0.3134(6) 0.3183(5)
H69A H 1.4287 -0.3426 0.3507
H70A H 1.3644 -0.3447 0.3093
H71A H 1.4092 -0.2937 0.2841
C70A C 0.8204(5) -0.1579(4) 0.5730(3)
H72A H 0.8263 -0.1114 0.5653
H73A H 0.8176 -0.1696 0.5364
H74A H 0.7727 -0.1530 0.5912
C71A C 0.8886(5) -0.2186(4) 0.6130(3)
C72A C 0.8857(5) -0.2719(4) 0.6639(3)
H75A H 0.8401 -0.2735 0.6797
C73A C 0.9599(6) -0.3199(4) 0.6856(3)
C74A C 0.9930(6) -0.3887(5) 0.7406(4)
H76A H 0.9499 -0.3953 0.7606
H77A H 1.0236 -0.4328 0.7287
H78A H 1.0261 -0.3810 0.7670
C75A C 1.0983(6) -0.2746(4) 0.4303(3)
H79A H 1.0427 -0.2566 0.4185
H80A H 1.1121 -0.2325 0.4245
H81A H 1.1282 -0.3061 0.4067
C76A C 1.1167(5) -0.3189(4) 0.4941(3)
C77A C 1.1628(5) -0.3950(4) 0.5162(4)
H82A H 1.1873 -0.4284 0.4943
C78A C 1.1653(5) -0.4118(4) 0.5763(4)
C79A C 1.2074(6) -0.4859(4) 0.6240(4)
H83A H 1.2446 -0.5221 0.6069
H84A H 1.2351 -0.4785 0.6544
H85A H 1.1693 -0.5040 0.6411
C80A C 1.1311(4) -0.0928(4) 0.5972(3)
H86A H 1.1619 -0.0761 0.6177
H87A H 1.1503 -0.0963 0.5596
H88A H 1.0765 -0.0573 0.5909
C81A C 1.1380(4) -0.1679(4) 0.6335(3)
C82A C 1.1815(5) -0.2102(5) 0.6885(3)
H89A H 1.2105 -0.1958 0.7108
C83A C 1.1738(5) -0.2762(5) 0.7036(3)
C84A C 1.2068(6) -0.3443(6) 0.7591(4)
H90A H 1.2172 -0.3285 0.7920
H91A H 1.1688 -0.3656 0.7683
H92A H 1.2552 -0.3815 0.7519
Co2A Co 1.13939(5) -0.04536(4) 0.39776(3)
Fe2A Fe 1.02367(6) -0.18420(5) 0.54666(4)
N14A N 1.1077(3) -0.1112(3) 0.4559(2)
N15A N 0.9230(3) -0.0375(3) 0.5731(2)
N16A N 0.9011(4) -0.1404(4) 0.4413(3)
N17A N 1.1626(3) 0.0265(3) 0.3350(2)
N18A N 1.0501(3) -0.0171(3) 0.3397(2)
N19A N 1.2348(3) -0.0731(3) 0.4494(2)
N20A N 1.2097(3) -0.1290(3) 0.3697(2)
N21A N 0.9642(3) -0.2338(3) 0.6046(2)
N22A N 1.0093(4) -0.2980(3) 0.6492(2)
N23A N 1.0898(3) -0.2881(3) 0.5383(2)
N24A N 1.1198(4) -0.3470(3) 0.5893(2)
N25A N 1.1031(3) -0.2060(3) 0.6151(2)
N26A N 1.1289(3) -0.2752(3) 0.6590(2)
C85 C 1.0077(6) 0.0290(6) 0.8757(5)
C86 C 0.9396(6) 0.0116(6) 0.8705(4)
C87 C 0.8733(6) 0.0661(6) 0.8330(4)
H93 H 0.8728 0.1121 0.8114
C88 C 0.8085(6) 0.0507(6) 0.8284(4)
H94 H 0.7630 0.0870 0.8040
C89 C 0.8103(6) -0.0188(5) 0.8602(3)
C90 C 0.8752(6) -0.0706(5) 0.8958(4)
H95 H 0.8759 -0.1168 0.9171
C91 C 0.9414(5) -0.0565(5) 0.9014(4)
H96 H 0.9866 -0.0930 0.9260
N27 N 1.0613(5) 0.0417(5) 0.8836(4)
O1 O 0.7460(4) -0.0311(5) 0.8528(3)
H97 H 0.7349 -0.0496 0.8853
C92 C 0.5262(7) -0.0032(6) 0.6180(5)
C93 C 0.4457(6) 0.0109(6) 0.6256(4)
C94 C 0.4276(6) -0.0390(6) 0.6683(4)
H98 H 0.4679 -0.0815 0.6933
C95 C 0.3499(6) -0.0263(6) 0.6741(4)
H99 H 0.3377 -0.0607 0.7029
C96 C 0.2912(5) 0.0351(5) 0.6386(3)
C97 C 0.3068(5) 0.0879(5) 0.5952(4)
H100 H 0.2661 0.1303 0.5704
C98 C 0.3855(6) 0.0747(6) 0.5906(5)
H101 H 0.3979 0.1100 0.5630
N28 N 0.5912(6) -0.0150(6) 0.6137(4)
O2 O 0.2145(4) 0.0443(4) 0.6441(2)
H102 H 0.1862 0.0747 0.6139
F1 F 0.4507(11) 0.3160(11) 0.6070(9)
F2 F 0.3408(7) 0.2782(9) 0.6265(5)
F3 F 0.4481(14) 0.2078(13) 0.6052(9)
F4 F 0.4449(8) 0.3115(8) 0.5362(6)
F5 F 0.3430(9) 0.3815(5) 0.5670(8)
F6 F 0.3441(10) 0.3018(13) 0.5332(7)
P1 P 0.3927(2) 0.2934(2) 0.58231(15)
P2 P 0.9003(2) 0.28099(16) 0.08754(13)
F9 F 0.9332(10) 0.2329(8) 0.1490(7)
F10 F 0.8969(9) 0.3412(7) 0.1143(7)
F11 F 0.9871(7) 0.2502(10) 0.0815(10)
F12 F 0.8135(7) 0.2987(9) 0.1048(6)
F13 F 0.8892(12) 0.3449(8) 0.0318(5)
F14 F 0.9099(15) 0.2274(12) 0.0511(9)
C99 C 0.1177(5) 0.4244(4) 1.0394(3)
C100 C 0.0867(6) 0.4315(6) 0.9224(4)
H103 H 0.0763 0.4336 0.8832
C101 C 0.1238(6) 0.3598(4) 1.0256(4)
H104 H 0.1388 0.3142 1.0551
C102 C 0.1328(6) 0.4219(5) 1.0998(3)
C103 C 0.0967(5) 0.4919(4) 0.9945(3)
H105 H 0.0927 0.5348 1.0040
C104 C 0.0818(5) 0.4957(5) 0.9366(3)
H106 H 0.0685 0.5408 0.9068
C105 C 0.1070(7) 0.3645(5) 0.9671(4)
H107 H 0.1095 0.3220 0.9577
N29 N 0.1472(7) 0.4172(6) 1.1484(3)
C106 C 0.3212(5) 0.2696(5) 0.3074(3)
C107 C 0.3407(6) 0.2352(5) 0.3687(3)
H108 H 0.3763 0.1850 0.3831
C108 C 0.3572(5) 0.2248(5) 0.2685(4)
C109 C 0.3066(7) 0.2764(7) 0.4076(4)
H109 H 0.3196 0.2540 0.4483
N30 N 0.3874(6) 0.1890(6) 0.2379(5)
C110 C 0.2640(5) 0.3431(5) 0.2858(4)
H110 H 0.2495 0.3652 0.2451
C111 C 0.2286(6) 0.3835(5) 0.3257(5)
H111 H 0.1888 0.4320 0.3119
C112 C 0.2533(7) 0.3507(6) 0.3862(5)
H112 H 0.2336 0.3792 0.4125
N31 N 0.9392(5) 0.2006(5) 0.7338(4)
C113 C 0.9397(5) 0.2824(4) 0.8015(3)
C114 C 0.9386(5) 0.2376(5) 0.7637(3)
C115 C 0.9395(6) 0.3681(6) 0.8757(4)
H113 H 0.9376 0.3974 0.9006
C116 C 0.9533(5) 0.2500(5) 0.8629(3)
H114 H 0.9626 0.1997 0.8791
C117 C 0.9530(6) 0.2934(6) 0.8997(4)
H115 H 0.9618 0.2721 0.9407
C118 C 0.9270(5) 0.3573(4) 0.7774(3)
H116 H 0.9171 0.3792 0.7365
C119 C 0.9291(6) 0.3995(5) 0.8150(5)
H117 H 0.9234 0.4488 0.7991
C120 C 0.0362(8) 0.4158(6) 0.4299(5)
H118 H 0.0027 0.4262 0.3964
C121 C 0.0623(8) 0.4690(5) 0.4366(5)
C122 C 0.1102(8) 0.4543(6) 0.4877(5)
H119 H 0.1269 0.4902 0.4926
C123 C 0.1330(8) 0.3858(6) 0.5313(4)
H120 H 0.1645 0.3757 0.5658
C124 C 0.0364(9) 0.5392(5) 0.3902(5)
N32 N 0.0381(8) 0.5959(5) 0.3610(5)
C125 C 0.0594(8) 0.3491(6) 0.4721(5)
H121 H 0.0423 0.3136 0.4668
C126 C 0.1078(8) 0.3319(6) 0.5228(5)
H122 H 0.1236 0.2852 0.5511
C127 C 0.6041(6) 0.2601(4) 0.9204(4)
H123 H 0.6364 0.2087 0.9315
N33 N 0.7463(7) 0.2608(10) 0.8212(5)
C128 C 0.6203(6) 0.3087(5) 0.8733(4)
C129 C 0.5051(6) 0.4127(5) 0.8850(5)
H124 H 0.4711 0.4636 0.8730
C130 C 0.4916(6) 0.3640(6) 0.9343(4)
H125 H 0.4498 0.3826 0.9560
C131 C 0.5690(6) 0.3851(5) 0.8546(4)
H126 H 0.5780 0.4172 0.8217
C132 C 0.5407(7) 0.2881(6) 0.9502(5)
H127 H 0.5303 0.2554 0.9819
C133 C 0.6897(6) 0.2802(6) 0.8443(5)
C134 C 0.6406(8) 0.4670(7) 0.9545(6)
C135 C 0.5937(6) 0.5377(6) 0.9152(5)
H128 H 0.5434 0.5661 0.9235
C136 C 0.6153(9) 0.4441(9) 1.0112(5)
C137 C 0.7123(7) 0.4216(6) 0.9398(5)
H129 H 0.7433 0.3748 0.9660
C138 C 0.7379(7) 0.4460(7) 0.8859(6)
H130 H 0.7847 0.4146 0.8747
N34 N 0.5895(9) 0.4153(8) 1.0506(6)
C139 C 0.6225(8) 0.5646(6) 0.8646(6)
H131 H 0.5950 0.6140 0.8410
C140 C 0.6932(9) 0.5176(8) 0.8487(6)
H132 H 0.7106 0.5345 0.8128
C141 C 0.3903(12) 0.4342(9) 0.3358(7)
C142 C 0.2861(11) 0.5608(9) 0.3086(8)
H133 H 0.2545 0.6048 0.2795
C143 C 0.3293(13) 0.4916(11) 0.4116(6)
H134 H 0.3305 0.4921 0.4510
C144 C 0.3446(12) 0.5017(9) 0.2928(6)
H135 H 0.3534 0.5072 0.2531
C145 C 0.3813(12) 0.4287(9) 0.3957(6)
H136 H 0.4098 0.3836 0.4248
C146 C 0.2754(11) 0.5536(10) 0.3682(9)
H137 H 0.2325 0.5900 0.3790
N35 N 0.4903(11) 0.3076(8) 0.3205(9)
C147 C 0.4429(13) 0.3694(9) 0.3182(10)
C148 C 0.6996(11) 0.3024(8) 0.4456(8)
H138 H 0.7431 0.2561 0.4536
C149 C 0.6132(12) 0.4186(8) 0.3739(6)
C150 C 0.6609(12) 0.3407(8) 0.3885(7)
H139 H 0.6664 0.3150 0.3603
C151 C 0.5668(12) 0.4563(12) 0.3159(7)
C152 C 0.5946(12) 0.4558(8) 0.4172(8)
H140 H 0.5604 0.5066 0.4078
C153 C 0.6708(13) 0.3361(11) 0.4899(6)
H141 H 0.6791 0.3065 0.5291
N36 N 0.5562(12) 0.4685(11) 0.2644(6)
C154 C 0.6291(13) 0.4145(11) 0.4761(7)
H142 H 0.6243 0.4389 0.5052
loop_
_geom_bond_atom_site_label_1
_geom_bond_atom_site_label_2
_geom_bond_site_symmetry_1
_geom_bond_site_symmetry_2
B1 H1 1_555 1_555
C1 Fe1 1_555 1_555
C2 Fe1 1_555 1_555
C3 Fe1 1_555 1_555
C4 H2 1_555 1_555
C5 C4 1_555 1_555
H3 C5 1_555 1_555
C6 C5 1_555 1_555
C7 C6 1_555 1_555
H4 C7 1_555 1_555
C8 C7 1_555 1_555
C9 C8 1_555 1_555
C10 C9 1_555 1_555
H5 C10 1_555 1_555
C11 C10 1_555 1_555
C12 C11 1_555 1_555
H6 C12 1_555 1_555
C13 C12 1_555 1_555
H7 C13 1_555 1_555
C14 C6 1_555 1_555
H8 C14 1_555 1_555
H9 C14 1_555 1_555
H10 C14 1_555 1_555
C15 C11 1_555 1_555
H11 C15 1_555 1_555
H12 C15 1_555 1_555
H13 C15 1_555 1_555
C16 H14 1_555 1_555
C17 C16 1_555 1_555
H15 C17 1_555 1_555
C18 C17 1_555 1_555
C19 C18 1_555 1_555
H16 C19 1_555 1_555
C20 C19 1_555 1_555
C21 C20 1_555 1_555
C22 C21 1_555 1_555
H17 C22 1_555 1_555
C23 C22 1_555 1_555
C24 C23 1_555 1_555
H18 C24 1_555 1_555
C25 C24 1_555 1_555
H19 C25 1_555 1_555
C26 C23 1_555 1_555
H20 C26 1_555 1_555
H21 C26 1_555 1_555
H22 C26 1_555 1_555
C27 C18 1_555 1_555
H23 C27 1_555 1_555
H24 C27 1_555 1_555
H25 C27 1_555 1_555
C28 H26 1_555 1_555
H27 C28 1_555 1_555
H28 C28 1_555 1_555
C29 C28 1_555 1_555
C30 C29 1_555 1_555
H29 C30 1_555 1_555
C31 C30 1_555 1_555
C32 C31 1_555 1_555
H30 C32 1_555 1_555
H31 C32 1_555 1_555
H32 C32 1_555 1_555
C33 H33 1_555 1_555
H34 C33 1_555 1_555
H35 C33 1_555 1_555
C34 C33 1_555 1_555
C35 C34 1_555 1_555
H36 C35 1_555 1_555
C36 C35 1_555 1_555
C37 C36 1_555 1_555
H37 C37 1_555 1_555
H38 C37 1_555 1_555
H39 C37 1_555 1_555
C38 H40 1_555 1_555
H41 C38 1_555 1_555
H42 C38 1_555 1_555
C39 C38 1_555 1_555
C40 C39 1_555 1_555
H43 C40 1_555 1_555
C41 C40 1_555 1_555
C42 C41 1_555 1_555
H44 C42 1_555 1_555
H45 C42 1_555 1_555
H46 C42 1_555 1_555
Co1 N1 1_555 1_555
Fe1 N8 1_555 1_555
N1 C1 1_555 1_555
N2 C2 1_555 1_555
N3 C3 1_555 1_555
N4 C4 1_555 1_555
N5 C9 1_555 1_555
N6 C16 1_555 1_555
N7 C21 1_555 1_555
N8 C29 1_555 1_555
N9 B1 1_555 1_555
N10 C34 1_555 1_555
N11 B1 1_555 1_555
N12 C39 1_555 1_555
N13 B1 1_555 1_555
B2 H47 1_555 1_555
C43 Fe2 1_555 1_555
C44 Fe2 1_555 1_555
C45 Fe2 1_555 1_555
C46 H48 1_555 1_555
C47 C46 1_555 1_555
H49 C47 1_555 1_555
C48 C47 1_555 1_555
C49 C48 1_555 1_555
H50 C49 1_555 1_555
C50 C49 1_555 1_555
C51 C50 1_555 1_555
C52 C51 1_555 1_555
H51 C52 1_555 1_555
C53 C52 1_555 1_555
C54 C53 1_555 1_555
H52 C54 1_555 1_555
C55 C54 1_555 1_555
H53 C55 1_555 1_555
C56 C48 1_555 1_555
H54 C56 1_555 1_555
H55 C56 1_555 1_555
H56 C56 1_555 1_555
C57 C53 1_555 1_555
H57 C57 1_555 1_555
H58 C57 1_555 1_555
H59 C57 1_555 1_555
C58 H60 1_555 1_555
C59 C58 1_555 1_555
H61 C59 1_555 1_555
C60 C59 1_555 1_555
C61 C60 1_555 1_555
H62 C61 1_555 1_555
C62 C61 1_555 1_555
C63 C62 1_555 1_555
C64 C63 1_555 1_555
H63 C64 1_555 1_555
C65 C64 1_555 1_555
C66 C65 1_555 1_555
H64 C66 1_555 1_555
C67 C66 1_555 1_555
H65 C67 1_555 1_555
C68 C60 1_555 1_555
H66 C68 1_555 1_555
H67 C68 1_555 1_555
H68 C68 1_555 1_555
C69 C65 1_555 1_555
H69 C69 1_555 1_555
H70 C69 1_555 1_555
H71 C69 1_555 1_555
C70 H72 1_555 1_555
H73 C70 1_555 1_555
H74 C70 1_555 1_555
C71 C70 1_555 1_555
C72 C71 1_555 1_555
H75 C72 1_555 1_555
C73 C72 1_555 1_555
C74 C73 1_555 1_555
H76 C74 1_555 1_555
H77 C74 1_555 1_555
H78 C74 1_555 1_555
C75 H79 1_555 1_555
H80 C75 1_555 1_555
H81 C75 1_555 1_555
C76 C75 1_555 1_555
C77 C76 1_555 1_555
H82 C77 1_555 1_555
C78 C77 1_555 1_555
C79 C78 1_555 1_555
H83 C79 1_555 1_555
H84 C79 1_555 1_555
H85 C79 1_555 1_555
C80 H86 1_555 1_555
H87 C80 1_555 1_555
H88 C80 1_555 1_555
C81 C80 1_555 1_555
C82 C81 1_555 1_555
H89 C82 1_555 1_555
C83 C82 1_555 1_555
C84 C83 1_555 1_555
H90 C84 1_555 1_555
H91 C84 1_555 1_555
H92 C84 1_555 1_555
Co2 N14 1_555 1_555
Fe2 N21 1_555 1_555
N14 C43 1_555 1_555
N15 C44 1_555 1_555
N16 C45 1_555 1_555
N17 C46 1_555 1_555
N18 C51 1_555 1_555
N19 C58 1_555 1_555
N20 C63 1_555 1_555
N21 C71 1_555 1_555
N22 B2 1_555 1_555
N23 C76 1_555 1_555
N24 B2 1_555 1_555
N25 C81 1_555 1_555
N26 B2 1_555 1_555
C85 C86 1_555 1_555
C86 C87 1_555 1_555
C87 H93 1_555 1_555
C88 C87 1_555 1_555
H94 C88 1_555 1_555
C89 C88 1_555 1_555
C90 C89 1_555 1_555
H95 C90 1_555 1_555
C91 C86 1_555 1_555
H96 C91 1_555 1_555
N27 C85 1_555 1_555
O1 C89 1_555 1_555
H97 O1 1_555 1_555
C92 C93 1_555 1_555
C93 C94 1_555 1_555
C94 H98 1_555 1_555
C95 C94 1_555 1_555
H99 C95 1_555 1_555
C96 C95 1_555 1_555
C97 C96 1_555 1_555
H100 C97 1_555 1_555
C98 C93 1_555 1_555
H101 C98 1_555 1_555
N28 C92 1_555 1_555
O2 C96 1_555 1_555
H102 O2 1_555 1_555
F1 P1 1_555 1_555
F2 P1 1_555 1_555
F3 P1 1_555 1_555
F4 P1 1_555 1_555
F5 P1 1_555 1_555
F6 P1 1_555 1_555
P2 F9 1_555 1_555
F10 P2 1_555 1_555
F11 P2 1_555 1_555
F12 P2 1_555 1_555
F13 P2 1_555 1_555
F14 P2 1_555 1_555
C99 C101 1_555 1_555
C100 H103 1_555 1_555
C101 H104 1_555 1_555
C102 C99 1_555 1_555
C103 C99 1_555 1_555
H105 C103 1_555 1_555
C104 C100 1_555 1_555
H106 C104 1_555 1_555
C105 C100 1_555 1_555
H107 C105 1_555 1_555
N29 C102 1_555 1_555
C106 C107 1_555 1_555
C107 H108 1_555 1_555
C108 C106 1_555 1_555
C109 C107 1_555 1_555
H109 C109 1_555 1_555
N30 C108 1_555 1_555
C110 C106 1_555 1_555
H110 C110 1_555 1_555
C111 C110 1_555 1_555
H111 C111 1_555 1_555
C112 C109 1_555 1_555
H112 C112 1_555 1_555
N31 C114 1_555 1_555
C113 C114 1_555 1_555
C115 H113 1_555 1_555
C116 C113 1_555 1_555
H114 C116 1_555 1_555
C117 C115 1_555 1_555
H115 C117 1_555 1_555
C118 C113 1_555 1_555
H116 C118 1_555 1_555
C119 C115 1_555 1_555
H117 C119 1_555 1_555
C120 H118 1_555 1_555
C121 C120 1_555 1_555
C122 C121 1_555 1_555
H119 C122 1_555 1_555
C123 C122 1_555 1_555
H120 C123 1_555 1_555
C124 C121 1_555 1_555
N32 C124 1_555 1_555
C125 C120 1_555 1_555
H121 C125 1_555 1_555
C126 C123 1_555 1_555
H122 C126 1_555 1_555
C127 H123 1_555 1_555
N33 C133 1_555 1_555
C128 C127 1_555 1_555
C129 H124 1_555 1_555
C130 C129 1_555 1_555
H125 C130 1_555 1_555
C131 C128 1_555 1_555
H126 C131 1_555 1_555
C132 C127 1_555 1_555
H127 C132 1_555 1_555
C133 C128 1_555 1_555
C134 C135 1_555 1_555
C135 H128 1_555 1_555
C136 C134 1_555 1_555
C137 C134 1_555 1_555
H129 C137 1_555 1_555
C138 C137 1_555 1_555
H130 C138 1_555 1_555
N34 C136 1_555 1_555
C139 C135 1_555 1_555
H131 C139 1_555 1_555
C140 C138 1_555 1_555
H132 C140 1_555 1_555
C141 C144 1_555 1_555
C142 H133 1_555 1_555
C143 H134 1_555 1_555
C144 C142 1_555 1_555
H135 C144 1_555 1_555
C145 C141 1_555 1_555
H136 C145 1_555 1_555
C146 C142 1_555 1_555
H137 C146 1_555 1_555
N35 C147 1_555 1_555
C147 C141 1_555 1_555
C148 H138 1_555 1_555
C149 C150 1_555 1_555
C150 C148 1_555 1_555
H139 C150 1_555 1_555
C151 C149 1_555 1_555
C152 C149 1_555 1_555
H140 C152 1_555 1_555
C153 C148 1_555 1_555
H141 C153 1_555 1_555
N36 C151 1_555 1_555
C154 C152 1_555 1_555
H142 C154 1_555 1_555
B1A H1A 1_555 1_555
C1A Fe1A 1_555 1_555
C2A Fe1A 1_555 1_555
C3A Fe1A 1_555 1_555
C4A H2A 1_555 1_555
C5A C4A 1_555 1_555
H3A C5A 1_555 1_555
C6A C5A 1_555 1_555
C7A C6A 1_555 1_555
H4A C7A 1_555 1_555
C8A C7A 1_555 1_555
C9A C8A 1_555 1_555
C10A C9A 1_555 1_555
H5A C10A 1_555 1_555
C11A C10A 1_555 1_555
C12A C11A 1_555 1_555
H6A C12A 1_555 1_555
C13A C12A 1_555 1_555
H7A C13A 1_555 1_555
C14A C6A 1_555 1_555
H8A C14A 1_555 1_555
H9A C14A 1_555 1_555
H10A C14A 1_555 1_555
C15A C11A 1_555 1_555
H11A C15A 1_555 1_555
H12A C15A 1_555 1_555
H13A C15A 1_555 1_555
C16A H14A 1_555 1_555
C17A C16A 1_555 1_555
H15A C17A 1_555 1_555
C18A C17A 1_555 1_555
C19A C18A 1_555 1_555
H16A C19A 1_555 1_555
C20A C19A 1_555 1_555
C21A C20A 1_555 1_555
C22A C21A 1_555 1_555
H17A C22A 1_555 1_555
C23A C22A 1_555 1_555
C24A C23A 1_555 1_555
H18A C24A 1_555 1_555
C25A C24A 1_555 1_555
H19A C25A 1_555 1_555
C26A C23A 1_555 1_555
H20A C26A 1_555 1_555
H21A C26A 1_555 1_555
H22A C26A 1_555 1_555
C27A C18A 1_555 1_555
H23A C27A 1_555 1_555
H24A C27A 1_555 1_555
H25A C27A 1_555 1_555
C28A H26A 1_555 1_555
H27A C28A 1_555 1_555
H28A C28A 1_555 1_555
C29A C28A 1_555 1_555
C30A C29A 1_555 1_555
H29A C30A 1_555 1_555
C31A C30A 1_555 1_555
C32A C31A 1_555 1_555
H30A C32A 1_555 1_555
H31A C32A 1_555 1_555
H32A C32A 1_555 1_555
C33A H33A 1_555 1_555
H34A C33A 1_555 1_555
H35A C33A 1_555 1_555
C34A C33A 1_555 1_555
C35A C34A 1_555 1_555
H36A C35A 1_555 1_555
C36A C35A 1_555 1_555
C37A C36A 1_555 1_555
H37A C37A 1_555 1_555
H38A C37A 1_555 1_555
H39A C37A 1_555 1_555
C38A H40A 1_555 1_555
H41A C38A 1_555 1_555
H42A C38A 1_555 1_555
C39A C38A 1_555 1_555
C40A C39A 1_555 1_555
H43A C40A 1_555 1_555
C41A C40A 1_555 1_555
C42A C41A 1_555 1_555
H44A C42A 1_555 1_555
H45A C42A 1_555 1_555
H46A C42A 1_555 1_555
Co1A N2 1_555 1_555
Fe1A N8A 1_555 1_555
N1A C1A 1_555 1_555
N2A Co1 1_555 1_555
N3A C3A 1_555 1_555
N4A C4A 1_555 1_555
N5A C9A 1_555 1_555
N6A C16A 1_555 1_555
N7A C21A 1_555 1_555
N8A C29A 1_555 1_555
N9A B1A 1_555 1_555
N10A C34A 1_555 1_555
N11A B1A 1_555 1_555
N12A C39A 1_555 1_555
N13A B1A 1_555 1_555
B2A H47A 1_555 1_555
C43A Fe2A 1_555 1_555
C44A Fe2A 1_555 1_555
C45A Fe2A 1_555 1_555
C46A H48A 1_555 1_555
C47A C46A 1_555 1_555
H49A C47A 1_555 1_555
C48A C47A 1_555 1_555
C49A C48A 1_555 1_555
H50A C49A 1_555 1_555
C50A C49A 1_555 1_555
C51A C50A 1_555 1_555
C52A C51A 1_555 1_555
H51A C52A 1_555 1_555
C53A C52A 1_555 1_555
C54A C53A 1_555 1_555
H52A C54A 1_555 1_555
C55A C54A 1_555 1_555
H53A C55A 1_555 1_555
C56A C48A 1_555 1_555
H54A C56A 1_555 1_555
H55A C56A 1_555 1_555
H56A C56A 1_555 1_555
C57A C53A 1_555 1_555
H57A C57A 1_555 1_555
H58A C57A 1_555 1_555
H59A C57A 1_555 1_555
C58A H60A 1_555 1_555
C59A C58A 1_555 1_555
H61A C59A 1_555 1_555
C60A C59A 1_555 1_555
C61A C60A 1_555 1_555
H62A C61A 1_555 1_555
C62A C61A 1_555 1_555
C63A C62A 1_555 1_555
C64A C63A 1_555 1_555
H63A C64A 1_555 1_555
C65A C64A 1_555 1_555
C66A C65A 1_555 1_555
H64A C66A 1_555 1_555
C67A C66A 1_555 1_555
H65A C67A 1_555 1_555
C68A C60A 1_555 1_555
H66A C68A 1_555 1_555
H67A C68A 1_555 1_555
H68A C68A 1_555 1_555
C69A C65A 1_555 1_555
H69A C69A 1_555 1_555
H70A C69A 1_555 1_555
H71A C69A 1_555 1_555
C70A H72A 1_555 1_555
H73A C70A 1_555 1_555
H74A C70A 1_555 1_555
C71A C70A 1_555 1_555
C72A C71A 1_555 1_555
H75A C72A 1_555 1_555
C73A C72A 1_555 1_555
C74A C73A 1_555 1_555
H76A C74A 1_555 1_555
H77A C74A 1_555 1_555
H78A C74A 1_555 1_555
C75A H79A 1_555 1_555
H80A C75A 1_555 1_555
H81A C75A 1_555 1_555
C76A C75A 1_555 1_555
C77A C76A 1_555 1_555
H82A C77A 1_555 1_555
C78A C77A 1_555 1_555
C79A C78A 1_555 1_555
H83A C79A 1_555 1_555
H84A C79A 1_555 1_555
H85A C79A 1_555 1_555
C80A H86A 1_555 1_555
H87A C80A 1_555 1_555
H88A C80A 1_555 1_555
C81A C80A 1_555 1_555
C82A C81A 1_555 1_555
H89A C82A 1_555 1_555
C83A C82A 1_555 1_555
C84A C83A 1_555 1_555
H90A C84A 1_555 1_555
H91A C84A 1_555 1_555
H92A C84A 1_555 1_555
Co2A N15 1_555 1_555
Fe2A N21A 1_555 1_555
N14A C43A 1_555 1_555
N15A Co2 1_555 1_555
N16A C45A 1_555 1_555
N17A C46A 1_555 1_555
N18A C51A 1_555 1_555
N19A C58A 1_555 1_555
N20A C63A 1_555 1_555
N21A C71A 1_555 1_555
N22A B2A 1_555 1_555
N23A C76A 1_555 1_555
N24A B2A 1_555 1_555
N25A C81A 1_555 1_555
N26A B2A 1_555 1_555
C8 N4 1_555 1_555
C13 N5 1_555 1_555
C20 N6 1_555 1_555
C25 N7 1_555 1_555
C31 N9 1_555 1_555
C36 N11 1_555 1_555
C41 N13 1_555 1_555
Co1 N4 1_555 1_555
Co1 N5 1_555 1_555
Co1 N6 1_555 1_555
Co1 N7 1_555 1_555
Fe1 N10 1_555 1_555
Fe1 N12 1_555 1_555
N8 N9 1_555 1_555
N10 N11 1_555 1_555
N12 N13 1_555 1_555
C50 N17 1_555 1_555
C55 N18 1_555 1_555
C62 N19 1_555 1_555
C67 N20 1_555 1_555
C73 N22 1_555 1_555
C78 N24 1_555 1_555
C83 N26 1_555 1_555
Co2 N17 1_555 1_555
Co2 N18 1_555 1_555
Co2 N19 1_555 1_555
Co2 N20 1_555 1_555
Fe2 N23 1_555 1_555
Fe2 N25 1_555 1_555
N21 N22 1_555 1_555
N23 N24 1_555 1_555
N25 N26 1_555 1_555
C90 C91 1_555 1_555
C97 C98 1_555 1_555
C101 C105 1_555 1_555
C103 C104 1_555 1_555
C111 C112 1_555 1_555
C116 C117 1_555 1_555
C118 C119 1_555 1_555
C125 C126 1_555 1_555
C129 C131 1_555 1_555
C130 C132 1_555 1_555
C139 C140 1_555 1_555
C143 C145 1_555 1_555
C143 C146 1_555 1_555
C153 C154 1_555 1_555
C2A N2A 1_555 1_555
C8A N4A 1_555 1_555
C13A N5A 1_555 1_555
C20A N6A 1_555 1_555
C25A N7A 1_555 1_555
C31A N9A 1_555 1_555
C36A N11A 1_555 1_555
C41A N13A 1_555 1_555
Co1A N1A 1_555 1_555
Co1A N4A 1_555 1_555
Co1A N5A 1_555 1_555
Co1A N6A 1_555 1_555
Co1A N7A 1_555 1_555
Fe1A N10A 1_555 1_555
Fe1A N12A 1_555 1_555
N8A N9A 1_555 1_555
N10A N11A 1_555 1_555
N12A N13A 1_555 1_555
C44A N15A 1_555 1_555
C50A N17A 1_555 1_555
C55A N18A 1_555 1_555
C62A N19A 1_555 1_555
C67A N20A 1_555 1_555
C73A N22A 1_555 1_555
C78A N24A 1_555 1_555
C83A N26A 1_555 1_555
Co2A N14A 1_555 1_555
Co2A N17A 1_555 1_555
Co2A N18A 1_555 1_555
Co2A N19A 1_555 1_555
Co2A N20A 1_555 1_555
Fe2A N23A 1_555 1_555
Fe2A N25A 1_555 1_555
N21A N22A 1_555 1_555
N23A N24A 1_555 1_555
N25A N26A 1_555 1_555

#END
