
#######################################################################
#
#                 Cambridge Crystallographic Data Centre
#                                CCDC 
#
#######################################################################
#
# If this CIF has been generated from an entry in the Cambridge 
# Structural Database, then it will include bibliographic, chemical, 
# crystal, experimental, refinement or atomic coordinate data resulting 
# from the CCDC's data processing and validation procedures.
#
#######################################################################

data_DAPGUZ01
_chemical_formula_moiety         
'C84 H92 B2 Co2 Fe2 N26 2+,2(C7 H5 N1 O1),8(C7 H5 N1),2(F6 P1 1-)'
_chemical_name_systematic        
"tetrakis(\m-cyano)-bis(cyano)-tetrakis(4,4'-dimethyl-2,2'-bipyridine)-bis(hydrogen tris(3,5-dimethylpyrazolyl)borate)-di-cobalt-di-iron bis(hexafluorophosphate) bis(4-cyanophenol) benzonitrile solvate"
_symmetry_cell_setting           triclinic
_symmetry_space_group_name_H-M   'P -1'
_symmetry_Int_Tables_number      2
_space_group_name_Hall           '-P 1'
loop_
_symmetry_equiv_pos_site_id
_symmetry_equiv_pos_as_xyz
1 x,y,z
2 -x,-y,-z
_cell_length_a                   20.062(4)
_cell_length_b                   23.390(5)
_cell_length_c                   34.288(7)
_cell_angle_alpha                81.577(3)
_cell_angle_beta                 80.642(3)
_cell_angle_gamma                74.453(3)
_cell_volume                     15204.8
_exptl_crystal_colour            'dark green'
_exptl_crystal_description       plate
_cell_formula_units_Z            4
loop_
_atom_site_label
_atom_site_type_symbol
_atom_site_fract_x
_atom_site_fract_y
_atom_site_fract_z
B1 B -0.0453(6) 0.6477(6) 0.2017(3)
H1 H -0.0817 0.6810 0.1900
B2 B 0.5193(6) 0.3475(5) 0.3001(4)
H2 H 0.5543 0.3140 0.3128
C1 C 0.1256(5) 0.5584(3) 0.2680(2)
C2 C 0.1371(5) 0.4898(4) 0.2100(2)
C3 C 0.0535(5) 0.4790(4) 0.2745(3)
C4 C 0.3515(5) 0.4365(3) 0.2294(2)
C5 C 0.3398(5) 0.5063(4) 0.2872(2)
C6 C 0.4269(5) 0.5162(5) 0.2239(3)
C7 C 0.2999(5) 0.6722(4) 0.3385(3)
H3 H 0.3055 0.6876 0.3113
C8 C 0.3330(5) 0.6913(4) 0.3653(3)
H4 H 0.3609 0.7187 0.3561
C9 C 0.3251(5) 0.6703(4) 0.4048(3)
C10 C 0.2855(5) 0.6305(4) 0.4157(3)
H5 H 0.2793 0.6152 0.4429
C11 C 0.2536(5) 0.6112(4) 0.3892(3)
C12 C 0.2121(5) 0.5665(4) 0.3986(3)
C13 C 0.1946(5) 0.5405(4) 0.4358(3)
H6 H 0.2086 0.5517 0.4582
C14 C 0.1566(5) 0.4982(4) 0.4412(3)
C15 C 0.1399(5) 0.4825(4) 0.4069(3)
H7 H 0.1156 0.4522 0.4090
C16 C 0.1583(5) 0.5102(4) 0.3704(3)
H8 H 0.1459 0.4987 0.3476
C17 C 0.3603(7) 0.6904(5) 0.4337(3)
H9 H 0.4107 0.6727 0.4292
H10 H 0.3419 0.6776 0.4609
H11 H 0.3513 0.7340 0.4300
C18 C 0.1325(6) 0.4710(5) 0.4823(3)
H12 H 0.1588 0.4293 0.4865
H13 H 0.0826 0.4730 0.4847
H14 H 0.1406 0.4933 0.5025
C19 C 0.2870(6) 0.6542(4) 0.2454(3)
H15 H 0.3250 0.6205 0.2493
C20 C 0.2949(6) 0.6955(4) 0.2133(3)
H16 H 0.3383 0.6922 0.1967
C21 C 0.2374(6) 0.7421(5) 0.2059(3)
C22 C 0.1780(6) 0.7473(4) 0.2332(3)
H17 H 0.1387 0.7798 0.2290
C23 C 0.1740(5) 0.7070(4) 0.2661(3)
C24 C 0.1172(6) 0.7097(4) 0.2981(3)
C25 C 0.0564(5) 0.7548(4) 0.2997(3)
H18 H 0.0492 0.7852 0.2781
C26 C 0.0055(6) 0.7561(4) 0.3327(3)
C27 C 0.0187(5) 0.7108(5) 0.3635(3)
H19 H -0.0143 0.7107 0.3867
C28 C 0.0800(5) 0.6655(4) 0.3606(3)
H20 H 0.0873 0.6343 0.3818
C29 C 0.2396(6) 0.7883(5) 0.1698(3)
H21 H 0.2445 0.8252 0.1780
H22 H 0.1963 0.7964 0.1579
H23 H 0.2795 0.7728 0.1502
C30 C -0.0601(6) 0.8051(5) 0.3351(4)
H24 H -0.0495 0.8431 0.3238
H25 H -0.0806 0.8075 0.3629
H26 H -0.0933 0.7966 0.3200
C31 C 0.0133(6) 0.4261(5) 0.2003(4)
H27 H -0.0147 0.4010 0.1941
H28 H 0.0191 0.4180 0.2286
H29 H 0.0592 0.4173 0.1843
C32 C -0.0242(5) 0.4926(5) 0.1909(3)
C33 C -0.0781(6) 0.5152(5) 0.1685(4)
H30 H -0.1008 0.4931 0.1562
C34 C -0.0926(6) 0.5758(5) 0.1674(3)
C35 C -0.1450(7) 0.6240(5) 0.1470(4)
H31 H -0.1670 0.6064 0.1299
H32 H -0.1217 0.6529 0.1308
H33 H -0.1807 0.6443 0.1670
C36 C 0.2126(5) 0.5960(4) 0.1812(3)
H34 H 0.2444 0.6194 0.1666
H35 H 0.2202 0.5589 0.1691
H36 H 0.2215 0.5864 0.2089
C37 C 0.1389(6) 0.6313(4) 0.1795(3)
C38 C 0.1159(7) 0.6878(5) 0.1576(3)
H37 H 0.1445 0.7113 0.1418
C39 C 0.0460(7) 0.7014(5) 0.1633(3)
C40 C -0.0054(8) 0.7573(5) 0.1472(4)
H38 H 0.0183 0.7896 0.1390
H39 H -0.0445 0.7695 0.1679
H40 H -0.0230 0.7487 0.1242
C41 C -0.0105(5) 0.5672(4) 0.3410(3)
H41 H -0.0221 0.5883 0.3648
H42 H 0.0403 0.5531 0.3351
H43 H -0.0313 0.5329 0.3456
C42 C -0.0382(6) 0.6080(5) 0.3069(3)
C43 C -0.0930(5) 0.6593(5) 0.3088(3)
H44 H -0.1172 0.6757 0.3325
C44 C -0.1059(5) 0.6815(4) 0.2720(3)
C45 C -0.1608(7) 0.7361(5) 0.2578(4)
H45 H -0.1943 0.7233 0.2454
H46 H -0.1381 0.7623 0.2383
H47 H -0.1852 0.7578 0.2804
C46 C 0.3990(6) 0.3350(5) 0.1348(3)
H48 H 0.3908 0.3665 0.1139
C47 C 0.4616(6) 0.2914(5) 0.1312(3)
H49 H 0.4949 0.2932 0.1082
C48 C 0.4750(6) 0.2453(5) 0.1616(4)
C49 C 0.4249(6) 0.2452(5) 0.1941(3)
H50 H 0.4327 0.2142 0.2153
C50 C 0.3630(5) 0.2896(4) 0.1965(3)
C51 C 0.3047(5) 0.2917(4) 0.2276(3)
C52 C 0.3031(6) 0.2488(4) 0.2607(3)
H51 H 0.3434 0.2175 0.2652
C53 C 0.2412(6) 0.2529(4) 0.2870(3)
C54 C 0.1833(6) 0.2982(5) 0.2800(3)
H52 H 0.1399 0.3000 0.2963
C55 C 0.1904(6) 0.3427(5) 0.2470(3)
H53 H 0.1521 0.3762 0.2434
C56 C 0.5422(6) 0.1985(5) 0.1585(4)
H54 H 0.5524 0.1852 0.1319
H55 H 0.5385 0.1644 0.1784
H56 H 0.5799 0.2150 0.1633
C57 C 0.2402(7) 0.2080(4) 0.3234(3)
H57 H 0.2273 0.1733 0.3169
H58 H 0.2061 0.2263 0.3448
H59 H 0.2866 0.1953 0.3321
C58 C 0.1811(5) 0.3293(4) 0.1511(3)
H60 H 0.1757 0.3112 0.1778
C59 C 0.1497(6) 0.3119(4) 0.1229(3)
H61 H 0.1246 0.2820 0.1302
C60 C 0.1554(6) 0.3384(5) 0.0842(3)
C61 C 0.1935(6) 0.3808(5) 0.0750(3)
H62 H 0.1987 0.3998 0.0486
C62 C 0.2247(5) 0.3957(4) 0.1049(3)
C63 C 0.2642(5) 0.4421(4) 0.0973(3)
C64 C 0.2809(6) 0.4716(5) 0.0618(3)
H63 H 0.2665 0.4633 0.0386
C65 C 0.3185(7) 0.5136(5) 0.0587(3)
C66 C 0.3387(6) 0.5232(4) 0.0934(3)
H64 H 0.3643 0.5522 0.0927
C67 C 0.3224(5) 0.4916(4) 0.1285(3)
H65 H 0.3362 0.4995 0.1520
C68 C 0.1211(8) 0.3223(6) 0.0515(3)
H66 H 0.1084 0.2843 0.0602
H67 H 0.1540 0.3185 0.0270
H68 H 0.0790 0.3538 0.0465
C69 C 0.2626(5) 0.4005(5) 0.3139(3)
H69 H 0.2303 0.3747 0.3218
H70 H 0.2582 0.4188 0.2865
H71 H 0.2513 0.4318 0.3317
C70 C 0.3355(6) 0.3642(4) 0.3164(3)
C71 C 0.3583(7) 0.3071(4) 0.3378(3)
H72 H 0.3290 0.2832 0.3522
C72 C 0.4274(6) 0.2931(5) 0.3343(3)
C73 C 0.4788(7) 0.2371(5) 0.3510(4)
H73 H 0.4985 0.2468 0.3728
H74 H 0.5165 0.2229 0.3300
H75 H 0.4542 0.2058 0.3610
C74 C 0.4614(6) 0.5684(4) 0.3006(3)
H76 H 0.4724 0.5795 0.2720
H77 H 0.4791 0.5925 0.3156
H78 H 0.4107 0.5755 0.3076
C75 C 0.4951(6) 0.5036(4) 0.3106(3)
C76 C 0.6146(7) 0.3721(5) 0.3575(4)
H79 H 0.5911 0.3414 0.3708
H80 H 0.6317 0.3889 0.3773
H81 H 0.6540 0.3541 0.3385
C77 C 0.4909(6) 0.4273(5) 0.1593(3)
H82 H 0.5173 0.4137 0.1342
H83 H 0.4949 0.4675 0.1614
H84 H 0.4417 0.4279 0.1598
C78 C 0.5195(5) 0.3858(5) 0.1931(3)
C79 C 0.5736(6) 0.3358(5) 0.1923(3)
H85 H 0.5992 0.3192 0.1690
C80 C 0.5849(5) 0.3139(5) 0.2300(3)
C81 C 0.6376(7) 0.2599(5) 0.2464(4)
H86 H 0.6598 0.2346 0.2251
H87 H 0.6138 0.2372 0.2679
H88 H 0.6732 0.2731 0.2567
Co1 Co 0.21276(7) 0.60257(5) 0.31695(3)
Co2 Co 0.26584(7) 0.39705(5) 0.17800(3)
Fe1 Fe 0.06510(7) 0.54365(6) 0.23760(4)
Fe2 Fe 0.41221(7) 0.45180(6) 0.26086(4)
N1 N 0.1621(4) 0.5713(3) 0.2873(2)
N2 N 0.2937(4) 0.5443(3) 0.30133(19)
N3 N 0.0493(5) 0.4367(4) 0.2979(3)
N4 N 0.3156(4) 0.4256(3) 0.2099(2)
N5 N 0.1834(4) 0.4542(3) 0.1945(2)
N6 N 0.4344(5) 0.5575(4) 0.2000(3)
N7 N 0.2609(4) 0.6333(3) 0.3500(2)
N8 N 0.1929(4) 0.5528(3) 0.3652(2)
N9 N 0.2294(4) 0.6584(3) 0.2713(2)
N10 N 0.1295(4) 0.6646(3) 0.3286(2)
N11 N -0.0064(4) 0.5364(3) 0.2042(2)
N12 N -0.0507(4) 0.5888(3) 0.1906(2)
N13 N -0.0146(4) 0.6011(3) 0.2682(2)
N14 N -0.0571(4) 0.6463(3) 0.2469(2)
N15 N 0.0822(5) 0.6131(3) 0.1976(2)
N16 N 0.0245(5) 0.6575(3) 0.1869(2)
N17 N 0.2174(4) 0.3693(3) 0.1427(2)
N18 N 0.2876(4) 0.4500(3) 0.1310(2)
N19 N 0.3500(4) 0.3351(3) 0.1658(2)
N20 N 0.2481(4) 0.3390(3) 0.2217(2)
N21 N 0.4817(4) 0.4596(3) 0.2958(2)
N22 N 0.5246(4) 0.4070(3) 0.3113(2)
N23 N 0.4921(4) 0.3942(3) 0.2318(2)
N24 N 0.5367(4) 0.3501(3) 0.2539(2)
N25 N 0.3936(4) 0.3831(3) 0.3008(2)
N26 N 0.4477(5) 0.3385(4) 0.3130(2)
C82 C 0.5627(6) 0.4220(6) 0.3352(3)
C83 C 0.5475(6) 0.4812(5) 0.3358(3)
H89 H 0.5675 0.5031 0.3499
C84 C 0.3385(8) 0.5470(6) 0.0191(3)
H90 H 0.3172 0.5362 -0.0016
H91 H 0.3893 0.5364 0.0125
H92 H 0.3218 0.5901 0.0209
B3 B 0.2665(6) 1.1425(5) -0.1025(4)
H93 H 0.2268 1.1752 -0.1116
C85 C 0.3829(5) 0.9876(4) -0.0284(3)
C86 C 0.4723(5) 1.0552(4) -0.0635(3)
C87 C 0.4445(5) 0.9764(4) -0.1024(3)
C88 C 0.4150(6) 0.8254(4) 0.1345(3)
H94 H 0.3771 0.8565 0.1438
C89 C 0.4454(6) 0.7807(5) 0.1619(3)
H95 H 0.4256 0.7791 0.1891
C90 C 0.5053(6) 0.7378(5) 0.1495(3)
C91 C 0.5275(6) 0.7398(4) 0.1091(3)
H96 H 0.5663 0.7098 0.0994
C92 C 0.4948(5) 0.7839(4) 0.0832(3)
C93 C 0.5128(5) 0.7870(4) 0.0392(3)
C94 C 0.5702(6) 0.7478(5) 0.0211(3)
H97 H 0.6005 0.7187 0.0368
C95 C 0.5839(6) 0.7511(4) -0.0210(3)
C96 C 0.5368(6) 0.7922(5) -0.0415(3)
H98 H 0.5416 0.7940 -0.0697
C97 C 0.4808(6) 0.8324(5) -0.0214(3)
H99 H 0.4495 0.8614 -0.0366
C98 C 0.5401(7) 0.6903(5) 0.1783(3)
H100 H 0.5059 0.6699 0.1938
H101 H 0.5603 0.7080 0.1963
H102 H 0.5772 0.6614 0.1640
C99 C 0.6457(7) 0.7099(5) -0.0413(4)
H103 H 0.6418 0.7136 -0.0697
H104 H 0.6476 0.6687 -0.0297
H105 H 0.6884 0.7203 -0.0378
C100 C 0.3326(5) 0.9890(4) 0.1092(3)
H106 H 0.3760 0.9994 0.1036
C101 C 0.2609(5) 0.9338(4) 0.0989(3)
C102 C 0.5117(5) 1.0680(5) -0.1612(3)
H107 H 0.5403 1.0873 -0.1822
H108 H 0.5089 1.0303 -0.1692
H109 H 0.5330 1.0602 -0.1366
C103 C 0.4406(6) 1.1078(4) -0.1547(3)
C104 C 0.2825(7) 1.0177(4) 0.1378(3)
H110 H 0.2915 1.0476 0.1507
C105 C 0.2466(6) 0.8036(4) 0.0309(3)
H111 H 0.2469 0.7733 0.0152
C106 C 0.1914(6) 0.8695(4) 0.0785(3)
H112 H 0.1523 0.8863 0.0965
C107 C 0.2485(6) 1.1944(5) -0.0370(3)
C108 C 0.1204(7) 0.8056(5) 0.0584(4)
H113 H 0.1294 0.7632 0.0685
H114 H 0.1048 0.8115 0.0322
H115 H 0.0841 0.8289 0.0768
C109 C 0.1883(6) 1.2463(5) -0.0469(4)
H116 H 0.1741 1.2715 -0.0251
H117 H 0.1489 1.2313 -0.0508
H118 H 0.2027 1.2699 -0.0714
C110 C 0.2822(6) 1.1809(5) -0.0042(3)
H119 H 0.2725 1.2035 0.0178
C111 C 0.2203(6) 1.0027(5) 0.1471(3)
C112 C 0.2097(6) 0.9597(4) 0.1270(3)
H120 H 0.1670 0.9481 0.1327
C113 C 0.4131(6) 1.1589(4) -0.1800(3)
H121 H 0.4370 1.1749 -0.2035
C114 C 0.1875(6) 0.8263(5) 0.0550(3)
C115 C 0.1661(8) 1.0325(5) 0.1787(4)
H122 H 0.1523 1.0756 0.1707
H123 H 0.1856 1.0253 0.2039
H124 H 0.1252 1.0161 0.1820
C116 C 0.3341(5) 1.1273(4) -0.0088(3)
C117 C 0.3054(5) 0.8228(4) 0.0286(3)
H125 H 0.3445 0.8063 0.0104
C118 C 0.3814(6) 1.0933(5) 0.0203(3)
H126 H 0.3726 1.0537 0.0281
H127 H 0.3728 1.1148 0.0439
H128 H 0.4300 1.0890 0.0082
C119 C 0.1317(6) 1.1139(5) -0.1216(4)
H129 H 0.0918 1.0960 -0.1161
H130 H 0.1399 1.1264 -0.1502
H131 H 0.1219 1.1488 -0.1069
C120 C 0.1949(5) 1.0694(5) -0.1091(3)
C121 C 0.2043(6) 1.0085(6) -0.1028(3)
H132 H 0.1726 0.9863 -0.1059
C122 C 0.2712(5) 0.9863(4) -0.0908(3)
C123 C 0.3058(6) 0.9205(4) -0.0783(3)
H133 H 0.2797 0.8950 -0.0861
H134 H 0.3058 0.9142 -0.0494
H135 H 0.3540 0.9104 -0.0915
C124 C 0.2912(7) 1.2348(5) -0.1787(4)
H136 H 0.3056 1.2482 -0.2065
H137 H 0.2859 1.2671 -0.1623
H138 H 0.2466 1.2242 -0.1766
C125 C 0.3461(7) 1.1808(5) -0.1646(3)
C126 C 0.2525(5) 0.8876(4) 0.0751(3)
Co3 Co 0.39963(7) 0.89557(5) 0.05044(4)
Fe3 Fe 0.38598(7) 1.04247(6) -0.07518(4)
N27 N 0.3801(4) 0.9535(3) 0.0003(2)
N28 N 0.5214(4) 1.0662(3) -0.0578(2)
N29 N 0.4778(5) 0.9354(4) -0.1164(3)
N30 N 0.4366(4) 0.8267(3) 0.0956(2)
N31 N 0.4700(4) 0.8314(3) 0.0177(2)
N32 N 0.3232(4) 0.9477(3) 0.0893(2)
N33 N 0.3111(4) 0.8640(3) 0.0505(2)
N34 N 0.3913(4) 1.0982(3) -0.1248(2)
N35 N 0.3309(5) 1.1441(4) -0.1304(3)
N36 N 0.2977(4) 1.0326(3) -0.0884(2)
N37 N 0.2494(4) 1.0832(3) -0.1006(2)
N38 N 0.3303(4) 1.1096(3) -0.0435(2)
N39 N 0.2796(4) 1.1524(3) -0.0612(2)
B3A B 0.7335(6) 0.8575(5) 0.1025(4)
H93A H 0.7732 0.8248 0.1116
C85A C 0.6171(5) 1.0124(4) 0.0284(3)
C86A C 0.5277(5) 0.9448(4) 0.0635(3)
C87A C 0.5555(5) 1.0236(4) 0.1024(3)
C88A C 0.5850(6) 1.1746(4) -0.1345(3)
H94A H 0.6229 1.1435 -0.1438
C89A C 0.5546(6) 1.2193(5) -0.1619(3)
H95A H 0.5744 1.2209 -0.1891
C90A C 0.4947(6) 1.2622(5) -0.1495(3)
C91A C 0.4725(6) 1.2602(4) -0.1091(3)
H96A H 0.4337 1.2902 -0.0994
C92A C 0.5052(5) 1.2161(4) -0.0832(3)
C93A C 0.4872(5) 1.2130(4) -0.0392(3)
C94A C 0.4298(6) 1.2522(5) -0.0211(3)
H97A H 0.3995 1.2813 -0.0368
C95A C 0.4161(6) 1.2489(4) 0.0210(3)
C96A C 0.4632(6) 1.2078(5) 0.0415(3)
H98A H 0.4584 1.2060 0.0697
C97A C 0.5192(6) 1.1676(5) 0.0214(3)
H99A H 0.5505 1.1386 0.0366
C98A C 0.4599(7) 1.3097(5) -0.1783(3)
H100A H 0.4941 1.3301 -0.1938
H101A H 0.4397 1.2920 -0.1963
H102A H 0.4228 1.3386 -0.1640
C99A C 0.3543(7) 1.2901(5) 0.0413(4)
H103A H 0.3582 1.2864 0.0697
H104A H 0.3524 1.3313 0.0297
H105A H 0.3116 1.2797 0.0378
C100A C 0.6674(5) 1.0110(4) -0.1092(3)
H106A H 0.6240 1.0006 -0.1036
C101A C 0.7391(5) 1.0662(4) -0.0989(3)
C102A C 0.4883(5) 0.9320(5) 0.1612(3)
H107A H 0.4597 0.9127 0.1822
H108A H 0.4911 0.9697 0.1692
H109A H 0.4670 0.9398 0.1366
C103A C 0.5594(6) 0.8922(4) 0.1547(3)
C104A C 0.7175(7) 0.9823(4) -0.1378(3)
H110A H 0.7085 0.9524 -0.1507
C105A C 0.7534(6) 1.1964(4) -0.0309(3)
H111A H 0.7531 1.2267 -0.0152
C106A C 0.8086(6) 1.1305(4) -0.0785(3)
H112A H 0.8477 1.1137 -0.0965
C107A C 0.7515(6) 0.8056(5) 0.0370(3)
C108A C 0.8796(7) 1.1944(5) -0.0584(4)
H113A H 0.8706 1.2368 -0.0685
H114A H 0.8952 1.1885 -0.0322
H115A H 0.9159 1.1711 -0.0768
C109A C 0.8117(6) 0.7537(5) 0.0469(4)
H116A H 0.8259 0.7285 0.0251
H117A H 0.8511 0.7687 0.0508
H118A H 0.7973 0.7301 0.0714
C110A C 0.7178(6) 0.8191(5) 0.0042(3)
H119A H 0.7275 0.7965 -0.0178
C111A C 0.7797(6) 0.9973(5) -0.1471(3)
C112A C 0.7903(6) 1.0403(4) -0.1270(3)
H120A H 0.8330 1.0519 -0.1327
C113A C 0.5869(6) 0.8411(4) 0.1800(3)
H121A H 0.5630 0.8251 0.2035
C114A C 0.8125(6) 1.1737(5) -0.0550(3)
C115A C 0.8339(8) 0.9675(5) -0.1787(4)
H122A H 0.8477 0.9244 -0.1707
H123A H 0.8144 0.9747 -0.2039
H124A H 0.8748 0.9839 -0.1820
C116A C 0.6659(5) 0.8727(4) 0.0088(3)
C117A C 0.6946(5) 1.1772(4) -0.0286(3)
H125A H 0.6555 1.1937 -0.0104
C118A C 0.6186(6) 0.9067(5) -0.0203(3)
H126A H 0.6274 0.9463 -0.0281
H127A H 0.6272 0.8852 -0.0439
H128A H 0.5700 0.9110 -0.0082
C119A C 0.8683(6) 0.8861(5) 0.1216(4)
H129A H 0.9082 0.9040 0.1161
H130A H 0.8601 0.8736 0.1502
H131A H 0.8781 0.8512 0.1069
C120A C 0.8051(5) 0.9306(5) 0.1091(3)
C121A C 0.7957(6) 0.9915(6) 0.1028(3)
H132A H 0.8274 1.0137 0.1059
C122A C 0.7288(5) 1.0137(4) 0.0908(3)
C123A C 0.6942(6) 1.0795(4) 0.0783(3)
H133A H 0.7203 1.1050 0.0861
H134A H 0.6942 1.0858 0.0494
H135A H 0.6460 1.0896 0.0915
C124A C 0.7088(7) 0.7652(5) 0.1787(4)
H136A H 0.6944 0.7518 0.2065
H137A H 0.7141 0.7329 0.1623
H138A H 0.7534 0.7758 0.1766
C125A C 0.6539(7) 0.8192(5) 0.1646(3)
C126A C 0.7475(5) 1.1124(4) -0.0751(3)
Co3A Co 0.60037(7) 1.10443(5) -0.05044(4)
Fe3A Fe 0.61402(7) 0.95753(6) 0.07518(4)
N27A N 0.6199(4) 1.0465(3) -0.0003(2)
N28A N 0.4786(4) 0.9338(3) 0.0578(2)
N29A N 0.5222(5) 1.0646(4) 0.1164(3)
N30A N 0.5634(4) 1.1733(3) -0.0956(2)
N31A N 0.5300(4) 1.1686(3) -0.0177(2)
N32A N 0.6768(4) 1.0523(3) -0.0893(2)
N33A N 0.6889(4) 1.1360(3) -0.0505(2)
N34A N 0.6087(4) 0.9018(3) 0.1248(2)
N35A N 0.6691(5) 0.8559(4) 0.1304(3)
N36A N 0.7023(4) 0.9674(3) 0.0884(2)
N37A N 0.7506(4) 0.9168(3) 0.1006(2)
N38A N 0.6697(4) 0.8904(3) 0.0435(2)
N39A N 0.7204(4) 0.8476(3) 0.0612(2)
B4 B 0.7529(6) 0.1454(5) 0.4091(4)
H139 H 0.7123 0.1780 0.4010
C127 C 0.9619(5) 0.0594(3) 0.4410(2)
C128 C 1.1199(5) 0.0104(4) 0.5196(3)
C129 C 1.1841(6) -0.0177(4) 0.3624(3)
H140 H 1.1728 -0.0482 0.3513
C130 C 1.2619(5) 0.0416(4) 0.3675(3)
H141 H 1.3045 0.0531 0.3594
C131 C 0.8912(6) 0.1597(4) 0.3266(3)
H142 H 0.9129 0.1761 0.3024
C132 C 1.2125(5) 0.0674(3) 0.3987(2)
C133 C 0.9505(6) 0.3051(5) 0.3236(3)
H143 H 0.9693 0.3398 0.3230
H144 H 0.9000 0.3161 0.3315
H145 H 0.9604 0.2914 0.2971
C134 C 1.2254(5) 0.1126(4) 0.4209(3)
C135 C 0.9759(6) 0.1980(4) 0.5434(3)
H146 H 0.9741 0.1943 0.5715
C136 C 1.2862(5) 0.1297(4) 0.4166(3)
H147 H 1.3239 0.1141 0.3973
C137 C 1.2954(7) -0.0283(5) 0.3142(3)
H148 H 1.2789 -0.0079 0.2892
H149 H 1.2981 -0.0710 0.3156
H150 H 1.3417 -0.0228 0.3154
C138 C 1.2926(5) 0.1713(4) 0.4415(3)
C139 C 1.2450(6) -0.0022(4) 0.3490(3)
C140 C 1.2362(6) 0.1913(4) 0.4687(3)
H151 H 1.2390 0.2177 0.4867
C141 C 0.9913(5) 0.0685(4) 0.3420(3)
H152 H 1.0164 0.0858 0.3182
H153 H 0.9866 0.0295 0.3374
H154 H 1.0173 0.0637 0.3646
C142 C 1.1760(6) 0.1737(4) 0.4704(3)
H155 H 1.1370 0.1898 0.4888
C143 C 1.1387(5) 0.0109(4) 0.3922(2)
H156 H 1.0954 0.0007 0.4002
C144 C 0.9298(5) -0.0207(4) 0.4044(2)
C145 C 0.8288(5) 0.1335(4) 0.4988(3)
C146 C 0.9841(6) 0.2558(4) 0.3529(3)
C147 C 0.7712(7) 0.2355(5) 0.3307(4)
H157 H 0.7844 0.2486 0.3027
H158 H 0.7681 0.2676 0.3470
H159 H 0.7258 0.2260 0.3339
C148 C 0.7541(5) -0.0107(4) 0.4255(3)
C149 C 0.9361(5) 0.2488(4) 0.4831(3)
H160 H 0.9051 0.2801 0.4692
C150 C 1.0742(5) 0.1669(4) 0.3660(3)
H161 H 1.1120 0.1361 0.3561
C151 C 1.0002(5) 0.2103(4) 0.4193(3)
C152 C 0.6757(6) 0.0730(5) 0.4074(3)
C153 C 0.7458(6) 0.2013(5) 0.4716(3)
C154 C 1.0238(5) 0.1570(4) 0.5214(3)
H162 H 1.0551 0.1252 0.5348
C155 C 0.9304(5) 0.2450(4) 0.5240(3)
C156 C 0.9864(5) 0.2074(4) 0.4622(3)
C157 C 0.9663(6) 0.2543(4) 0.3933(3)
H163 H 0.9290 0.2851 0.4037
C158 C 1.0421(6) 0.2112(4) 0.3390(3)
H164 H 1.0589 0.2117 0.3115
C159 C 0.8726(6) 0.2878(4) 0.5480(3)
H165 H 0.8792 0.3283 0.5417
H166 H 0.8743 0.2753 0.5764
H167 H 0.8271 0.2872 0.5412
C160 C 0.7897(6) -0.0754(4) 0.4363(3)
H168 H 0.7680 -0.1009 0.4249
H169 H 0.7850 -0.0844 0.4653
H170 H 0.8393 -0.0829 0.4256
C161 C 0.6856(6) 0.0117(6) 0.4156(3)
H171 H 0.6529 -0.0107 0.4147
C162 C 0.6118(6) 0.1164(5) 0.3958(4)
H172 H 0.5788 0.0950 0.3907
H173 H 0.6238 0.1417 0.3717
H174 H 0.5904 0.1414 0.4174
C163 C 0.9216(6) 0.1085(4) 0.3507(3)
C164 C 0.8249(6) 0.1815(5) 0.3439(3)
C165 C 0.8786(5) 0.0973(4) 0.5273(3)
H175 H 0.8674 0.0588 0.5362
H176 H 0.8742 0.1190 0.5503
H177 H 0.9266 0.0905 0.5137
C166 C 0.7810(6) 0.1870(5) 0.5040(3)
H178 H 0.7739 0.2097 0.5258
C167 C 0.6880(7) 0.2543(5) 0.4600(4)
H179 H 0.6845 0.2864 0.4762
H180 H 0.6437 0.2426 0.4644
H181 H 0.6982 0.2683 0.4318
C168 C 1.3591(6) 0.1894(5) 0.4382(4)
H182 H 1.3540 0.2293 0.4237
H183 H 1.3966 0.1609 0.4239
H184 H 1.3703 0.1899 0.4649
Co4 Co 1.08902(7) 0.10315(5) 0.44763(3)
Fe4 Fe 0.87671(7) 0.04361(6) 0.43412(4)
N40 N 1.0124(4) 0.0704(3) 0.4448(2)
N41 N 1.1161(4) 0.0452(3) 0.4913(2)
N42 N 0.9607(5) -0.0622(4) 0.3888(2)
N43 N 1.1698(4) 0.1346(3) 0.4471(2)
N44 N 1.1523(4) 0.0526(3) 0.4107(2)
N45 N 1.0278(3) 0.1602(3) 0.48166(19)
N46 N 1.0550(4) 0.1649(3) 0.4056(2)
N47 N 0.7825(4) 0.0341(3) 0.4252(2)
N48 N 0.7341(4) 0.0853(3) 0.4141(2)
N49 N 0.8758(4) 0.1011(3) 0.3820(2)
N50 N 0.8154(5) 0.1454(3) 0.3781(3)
N51 N 0.8215(4) 0.1129(3) 0.4660(2)
N52 N 0.7713(4) 0.1564(3) 0.4484(2)
B4A B 1.2471(6) -0.1454(5) 0.5909(4)
H139A H 1.2877 -0.1780 0.5990
C127A C 1.0381(5) -0.0594(3) 0.5590(2)
C128A C 0.8801(5) -0.0104(4) 0.4804(3)
C129A C 0.8159(6) 0.0177(4) 0.6376(3)
H140A H 0.8272 0.0482 0.6487
C130A C 0.7381(5) -0.0416(4) 0.6325(3)
H141A H 0.6955 -0.0531 0.6406
C131A C 1.1088(6) -0.1597(4) 0.6734(3)
H142A H 1.0871 -0.1761 0.6976
C132A C 0.7875(5) -0.0674(3) 0.6013(2)
C133A C 1.0495(6) -0.3051(5) 0.6764(3)
H143A H 1.0307 -0.3398 0.6770
H144A H 1.1000 -0.3161 0.6685
H145A H 1.0396 -0.2914 0.7029
C134A C 0.7746(5) -0.1126(4) 0.5791(3)
C135A C 1.0241(6) -0.1980(4) 0.4566(3)
H146A H 1.0259 -0.1943 0.4285
C136A C 0.7138(5) -0.1297(4) 0.5834(3)
H147A H 0.6761 -0.1141 0.6027
C137A C 0.7046(7) 0.0283(5) 0.6858(3)
H148A H 0.7211 0.0079 0.7108
H149A H 0.7019 0.0710 0.6844
H150A H 0.6583 0.0228 0.6846
C138A C 0.7074(5) -0.1713(4) 0.5585(3)
C139A C 0.7550(6) 0.0022(4) 0.6510(3)
C140A C 0.7638(6) -0.1913(4) 0.5313(3)
H151A H 0.7610 -0.2177 0.5133
C141A C 1.0087(5) -0.0685(4) 0.6580(3)
H152A H 0.9836 -0.0858 0.6818
H153A H 1.0134 -0.0295 0.6626
H154A H 0.9827 -0.0637 0.6354
C142A C 0.8240(6) -0.1737(4) 0.5296(3)
H155A H 0.8630 -0.1898 0.5112
C143A C 0.8613(5) -0.0109(4) 0.6078(2)
H156A H 0.9046 -0.0007 0.5998
C144A C 1.0702(5) 0.0207(4) 0.5956(2)
C145A C 1.1712(5) -0.1335(4) 0.5012(3)
C146A C 1.0159(6) -0.2558(4) 0.6471(3)
C147A C 1.2288(7) -0.2355(5) 0.6693(4)
H157A H 1.2156 -0.2486 0.6973
H158A H 1.2319 -0.2676 0.6530
H159A H 1.2742 -0.2260 0.6661
C148A C 1.2459(5) 0.0107(4) 0.5745(3)
C149A C 1.0639(5) -0.2488(4) 0.5169(3)
H160A H 1.0949 -0.2801 0.5308
C150A C 0.9258(5) -0.1669(4) 0.6340(3)
H161A H 0.8880 -0.1361 0.6439
C151A C 0.9998(5) -0.2103(4) 0.5807(3)
C152A C 1.3243(6) -0.0730(5) 0.5926(3)
C153A C 1.2542(6) -0.2013(5) 0.5284(3)
C154A C 0.9762(5) -0.1570(4) 0.4786(3)
H162A H 0.9449 -0.1252 0.4652
C155A C 1.0696(5) -0.2450(4) 0.4760(3)
C156A C 1.0136(5) -0.2074(4) 0.5378(3)
C157A C 1.0337(6) -0.2543(4) 0.6067(3)
H163A H 1.0710 -0.2851 0.5963
C158A C 0.9579(6) -0.2112(4) 0.6610(3)
H164A H 0.9411 -0.2117 0.6885
C159A C 1.1274(6) -0.2878(4) 0.4520(3)
H165A H 1.1208 -0.3283 0.4583
H166A H 1.1257 -0.2753 0.4236
H167A H 1.1729 -0.2872 0.4588
C160A C 1.2103(6) 0.0754(4) 0.5637(3)
H168A H 1.2320 0.1009 0.5751
H169A H 1.2150 0.0844 0.5347
H170A H 1.1607 0.0829 0.5744
C161A C 1.3144(6) -0.0117(6) 0.5844(3)
H171A H 1.3471 0.0107 0.5853
C162A C 1.3882(6) -0.1164(5) 0.6042(4)
H172A H 1.4212 -0.0950 0.6093
H173A H 1.3762 -0.1417 0.6283
H174A H 1.4096 -0.1414 0.5826
C163A C 1.0784(6) -0.1085(4) 0.6493(3)
C164A C 1.1751(6) -0.1815(5) 0.6561(3)
C165A C 1.1214(5) -0.0973(4) 0.4727(3)
H175A H 1.1326 -0.0588 0.4638
H176A H 1.1258 -0.1190 0.4497
H177A H 1.0734 -0.0905 0.4863
C166A C 1.2190(6) -0.1870(5) 0.4960(3)
H178A H 1.2261 -0.2097 0.4742
C167A C 1.3120(7) -0.2543(5) 0.5400(4)
H179A H 1.3155 -0.2864 0.5238
H180A H 1.3563 -0.2426 0.5356
H181A H 1.3018 -0.2683 0.5682
C168A C 0.6409(6) -0.1894(5) 0.5618(4)
H182A H 0.6460 -0.2293 0.5763
H183A H 0.6034 -0.1609 0.5761
H184A H 0.6297 -0.1899 0.5351
Co4A Co 0.91098(7) -0.10315(5) 0.55237(3)
Fe4A Fe 1.12329(7) -0.04361(6) 0.56588(4)
N40A N 0.9876(4) -0.0704(3) 0.5552(2)
N41A N 0.8839(4) -0.0452(3) 0.5087(2)
N42A N 1.0393(5) 0.0622(4) 0.6112(2)
N43A N 0.8302(4) -0.1346(3) 0.5529(2)
N44A N 0.8477(4) -0.0526(3) 0.5893(2)
N45A N 0.9722(3) -0.1602(3) 0.51834(19)
N46A N 0.9450(4) -0.1649(3) 0.5944(2)
N47A N 1.2175(4) -0.0341(3) 0.5748(2)
N48A N 1.2659(4) -0.0853(3) 0.5859(2)
N49A N 1.1242(4) -0.1011(3) 0.6180(2)
N50A N 1.1846(5) -0.1454(3) 0.6219(3)
N51A N 1.1785(4) -0.1129(3) 0.5340(2)
N52A N 1.2287(4) -0.1564(3) 0.5516(2)
C169 C 0.0719(11) 0.6010(8) 0.0860(6)
H185 H 0.0943 0.6278 0.0937
C170 C 0.0256(10) 0.6212(5) 0.0578(5)
C171 C -0.0079(11) 0.5890(8) 0.0403(6)
H186 H -0.0376 0.6053 0.0203
C172 C 0.0082(11) 0.5287(7) 0.0561(5)
H187 H -0.0106 0.5008 0.0469
C173 C 0.0520(10) 0.5103(6) 0.0856(5)
H188 H 0.0601 0.4692 0.0954
C174 C 0.0855(11) 0.5427(8) 0.1029(5)
H189 H 0.1139 0.5269 0.1235
N53 N 0.0047(9) 0.7312(6) 0.0311(6)
C175 C 0.0109(11) 0.6813(6) 0.0392(8)
C176 C 0.0836(9) 0.1147(7) -0.0022(5)
H190 H 0.0515 0.1294 -0.0211
C177 C 0.1251(11) 0.1545(7) 0.0886(5)
C178 C 0.1896(9) 0.0474(7) 0.0144(5)
H191 H 0.2289 0.0155 0.0079
C179 C 0.1293(9) 0.1247(7) 0.0551(5)
C180 C 0.0766(8) 0.1455(7) 0.0307(4)
H192 H 0.0383 0.1786 0.0361
C181 C 0.1869(8) 0.0772(7) 0.0465(4)
H193 H 0.2237 0.0658 0.0626
C182 C 0.1363(9) 0.0633(7) -0.0082(5)
H194 H 0.1351 0.0392 -0.0280
N54 N 0.1172(8) 0.1773(5) 0.1168(4)
C183 C 0.3640(11) 0.9931(8) 0.4620(5)
H195 H 0.3671 1.0212 0.4787
C184 C 0.4064(10) 0.9887(8) 0.4256(6)
H196 H 0.4365 1.0146 0.4169
C185 C 0.3601(13) 0.8606(8) 0.3930(6)
C186 C 0.3171(10) 0.9576(9) 0.4748(5)
H197 H 0.2881 0.9617 0.4996
C187 C 0.4040(10) 0.9458(8) 0.4020(5)
H198 H 0.4327 0.9417 0.3771
C188 C 0.3137(10) 0.9166(8) 0.4508(5)
H199 H 0.2805 0.8934 0.4584
C189 C 0.3587(11) 0.9089(8) 0.4155(5)
N55 N 0.3591(11) 0.8286(8) 0.3719(5)
C190 C -0.0001(7) 0.3794(5) 0.5130(3)
C191 C 0.0229(6) 0.3699(5) 0.4724(3)
C192 C 0.0832(6) 0.3298(5) 0.4613(3)
H200 H 0.1094 0.3053 0.4810
C193 C 0.1074(7) 0.3242(5) 0.4207(3)
H201 H 0.1512 0.2979 0.4130
C194 C 0.0672(6) 0.3569(4) 0.3927(3)
C195 C 0.0036(6) 0.3971(5) 0.4035(3)
H202 H -0.0236 0.4205 0.3839
C196 C -0.0190(6) 0.4021(5) 0.4435(3)
H203 H -0.0632 0.4276 0.4514
N56 N -0.0166(6) 0.3844(4) 0.5460(3)
O1 O 0.0925(4) 0.3504(3) 0.3545(2)
H204 H 0.0748 0.3813 0.3401
C197 C 0.5151(8) 0.6129(6) -0.0145(4)
C198 C 0.4878(7) 0.6229(6) 0.0257(3)
C199 C 0.4296(8) 0.6665(5) 0.0352(3)
H205 H 0.4077 0.6933 0.0147
C200 C 0.4026(8) 0.6722(5) 0.0740(4)
H206 H 0.3616 0.7029 0.0798
C201 C 0.4323(7) 0.6351(5) 0.1051(3)
C202 C 0.4926(7) 0.5897(5) 0.0959(3)
H207 H 0.5148 0.5629 0.1163
C203 C 0.5182(7) 0.5852(6) 0.0568(4)
H208 H 0.5590 0.5547 0.0504
N57 N 0.5366(8) 0.6079(6) -0.0471(4)
O2 O 0.4027(5) 0.6437(3) 0.1420(2)
H209 H 0.4169 0.6129 0.1574
C204 C 0.4416(7) 0.7669(6) 0.2767(3)
C205 C 0.4844(8) 0.8037(6) 0.2822(3)
C206 C 0.4593(8) 0.8634(6) 0.2755(4)
H210 H 0.4142 0.8796 0.2676
C207 C 0.4986(11) 0.9001(7) 0.2803(5)
H211 H 0.4800 0.9421 0.2766
C208 C 0.5642(12) 0.8779(9) 0.2902(6)
H212 H 0.5915 0.9040 0.2933
C209 C 0.5920(11) 0.8131(10) 0.2962(5)
H213 H 0.6387 0.7971 0.3019
C210 C 0.5520(9) 0.7758(8) 0.2938(5)
H214 H 0.5678 0.7337 0.2995
N58 N 0.4065(7) 0.7363(5) 0.2734(3)
C211 C 1.0309(9) 0.2322(7) 0.2180(4)
C212 C 0.9849(6) 0.1947(5) 0.2202(3)
C213 C 1.0102(7) 0.1338(5) 0.2278(3)
H215 H 1.0578 0.1171 0.2314
C214 C 0.9658(8) 0.0977(6) 0.2301(4)
H216 H 0.9830 0.0558 0.2358
C215 C 0.8972(8) 0.1203(6) 0.2244(4)
H217 H 0.8676 0.0943 0.2255
C216 C 0.8713(8) 0.1817(6) 0.2170(4)
H218 H 0.8236 0.1980 0.2137
C217 C 0.9151(6) 0.2187(5) 0.2143(3)
H219 H 0.8980 0.2606 0.2085
N59 N 1.0687(7) 0.2618(5) 0.2167(3)
C218 C 0.2047(8) 0.1206(6) 0.2544(4)
C219 C 0.2554(7) 0.1294(5) 0.2219(4)
C220 C 0.2378(7) 0.1671(5) 0.1872(4)
H220 H 0.1904 0.1880 0.1860
C221 C 0.2864(7) 0.1746(5) 0.1551(4)
H221 H 0.2725 0.2007 0.1322
C222 C 0.3565(8) 0.1440(5) 0.1559(4)
C223 C 0.3747(7) 0.1071(5) 0.1888(4)
H222 H 0.4218 0.0849 0.1894
C224 C 0.3263(8) 0.1010(5) 0.2213(4)
H223 H 0.3416 0.0764 0.2444
N60 N 0.1636(6) 0.1142(5) 0.2802(3)
O3 O 0.4014(5) 0.1502(4) 0.1234(3)
H224 H 0.4403 0.1263 0.1263
C225 C 0.2655(8) 0.8816(6) 0.2407(4)
C226 C 0.2154(8) 0.8741(6) 0.2735(4)
C227 C 0.2322(7) 0.8330(5) 0.3062(4)
H225 H 0.2787 0.8090 0.3061
C228 C 0.1846(7) 0.8259(5) 0.3383(4)
H226 H 0.1983 0.7976 0.3603
C229 C 0.1158(7) 0.8597(5) 0.3393(3)
C230 C 0.0981(7) 0.9023(5) 0.3070(3)
H227 H 0.0524 0.9278 0.3074
C231 C 0.1471(8) 0.9068(6) 0.2752(4)
H228 H 0.1334 0.9340 0.2527
N61 N 0.3086(7) 0.8877(5) 0.2146(3)
O4 O 0.0730(5) 0.8520(4) 0.3716(3)
H229 H 0.0332 0.8745 0.3690
C232 C 0.2867(11) 0.3576(8) 0.4690(6)
C233 C 0.3223(10) 0.4027(9) 0.4503(6)
C234 C 0.3491(10) 0.4055(8) 0.4097(6)
H230 H 0.3426 0.3780 0.3937
C235 C 0.3851(10) 0.4482(7) 0.3929(6)
H231 H 0.4029 0.4492 0.3654
C236 C 0.3958(10) 0.4893(8) 0.4149(6)
H232 H 0.4212 0.5180 0.4035
C237 C 0.3676(10) 0.4863(8) 0.4545(6)
H233 H 0.3733 0.5148 0.4699
C238 C 0.3314(9) 0.4447(8) 0.4735(6)
H234 H 0.3135 0.4446 0.5009
N62 N 0.2586(8) 0.3196(6) 0.4863(5)
C239 C 0.8424(7) 0.7295(6) 0.4320(4)
C240 C 0.8093(6) 0.6902(5) 0.4159(3)
C241 C 0.8357(7) 0.6295(5) 0.4232(4)
H235 H 0.8739 0.6145 0.4382
C242 C 0.8073(8) 0.5901(6) 0.4090(5)
H236 H 0.8252 0.5483 0.4147
C243 C 0.7532(9) 0.6117(7) 0.3867(5)
H237 H 0.7326 0.5849 0.3775
C244 C 0.7292(8) 0.6719(6) 0.3779(5)
H238 H 0.6933 0.6864 0.3613
C245 C 0.7554(7) 0.7123(6) 0.3922(4)
H239 H 0.7374 0.7541 0.3861
N63 N 0.8645(5) 0.7608(4) 0.4448(3)
C246 C 0.6501(10) 0.2691(9) 0.0716(6)
C247 C 0.6781(9) 0.3059(7) 0.0918(5)
C248 C 0.6562(8) 0.3671(7) 0.0821(5)
H240 H 0.6233 0.3829 0.0638
C249 C 0.6824(8) 0.4051(6) 0.0993(5)
H241 H 0.6684 0.4470 0.0924
C250 C 0.7294(9) 0.3815(6) 0.1268(5)
H242 H 0.7493 0.4073 0.1376
C251 C 0.7474(8) 0.3208(6) 0.1384(5)
H243 H 0.7753 0.3056 0.1593
C252 C 0.7246(8) 0.2819(6) 0.1195(5)
H244 H 0.7404 0.2399 0.1255
N64 N 0.6289(7) 0.2415(7) 0.0558(4)
C253 C 0.7436(11) -0.0996(9) 0.3279(6)
C254 C 0.7475(5) -0.0393(5) 0.3193(4)
C255 C 0.6914(7) 0.0060(5) 0.3071(4)
H245 H 0.6481 -0.0018 0.3051
C256 C 0.7019(7) 0.0628(6) 0.2980(4)
H246 H 0.6652 0.0941 0.2885
C257 C 0.7629(7) 0.0758(6) 0.3021(4)
H247 H 0.7682 0.1154 0.2964
C258 C 0.8163(8) 0.0298(6) 0.3148(4)
H248 H 0.8595 0.0381 0.3166
C259 C 0.8094(6) -0.0277(6) 0.3248(4)
H249 H 0.8458 -0.0584 0.3352
N65 N 0.7333(8) -0.1452(7) 0.3359(5)
C260 C 0.7266(9) 1.0924(9) 0.1870(5)
C261 C 0.7214(7) 1.0351(6) 0.1969(3)
C262 C 0.7810(8) 0.9909(6) 0.2083(4)
H250 H 0.8241 1.0004 0.2086
C263 C 0.7736(9) 0.9335(7) 0.2191(5)
H251 H 0.8115 0.9036 0.2287
C264 C 0.7144(11) 0.9185(7) 0.2165(4)
H252 H 0.7127 0.8779 0.2220
C265 C 0.6548(9) 0.9621(7) 0.2058(5)
H253 H 0.6117 0.9521 0.2063
C266 C 0.6612(7) 1.0225(6) 0.1941(4)
H254 H 0.6234 1.0527 0.1846
N66 N 0.7342(7) 1.1420(6) 0.1771(4)
C267 C 0.1633(8) 0.6727(7) 0.9759(5)
N67 N 0.1945(7) 0.6808(7) 0.9997(4)
C268 C 0.1223(9) 0.6622(6) 0.9485(4)
C269 C 0.1282(8) 0.6034(6) 0.9420(4)
H255 H 0.1556 0.5711 0.9573
C270 C 0.0591(9) 0.6402(6) 0.8882(4)
H256 H 0.0410 0.6325 0.8661
C271 C 0.0939(9) 0.5926(6) 0.9130(5)
H257 H 0.0939 0.5528 0.9100
C272 C 0.0839(8) 0.7101(6) 0.9249(4)
H258 H 0.0807 0.7500 0.9290
C273 C 0.0508(8) 0.6984(6) 0.8956(4)
H259 H 0.0224 0.7304 0.8806
F1 F 0.5300(5) 0.1076(5) 0.3077(4)
F2 F 0.5222(10) 0.0489(8) 0.2722(6)
F3 F 0.4287(6) 0.1396(4) 0.2843(4)
P1 P 0.4659(2) 0.08351(17) 0.30612(12)
F4 F 0.4484(10) 0.0958(8) 0.3525(6)
F5 F 0.4062(6) 0.0534(5) 0.3066(4)
F6 F 0.5060(8) 0.0220(5) 0.3279(4)
F7 F 0.2039(14) 0.5499(10) 0.5905(8)
F8 F 0.1915(7) 0.6500(5) 0.5563(5)
F9 F 0.2830(7) 0.5928(7) 0.5840(4)
F10 F 0.2832(7) 0.6095(6) 0.5174(3)
P2 P 0.2330(2) 0.58990(17) 0.55093(11)
F11 F 0.1780(9) 0.5992(8) 0.5204(5)
F12 F 0.2658(15) 0.5325(12) 0.5347(8)
P3 P 0.2577(3) 0.42068(19) 0.94667(13)
F13 F 0.3170(7) 0.4024(7) 0.9728(4)
F14 F 0.1909(12) 0.4265(9) 0.9252(7)
F15 F 0.1969(11) 0.4622(9) 0.9787(6)
F16 F 0.3187(12) 0.3769(10) 0.9199(7)
F17 F 0.2892(16) 0.4729(12) 0.9290(9)
F18 F 0.2480(14) 0.3621(11) 0.9732(8)
C274 C 0.0373(11) 0.9524(8) 0.9301(5)
C275 C 0.0869(9) 0.9113(7) 0.9514(4)
H260 H 0.0918 0.9173 0.9775
C276 C -0.0059(11) 1.0061(8) 0.9452(6)
C277 C 0.1290(10) 0.8617(8) 0.9338(5)
H261 H 0.1688 0.8380 0.9453
C278 C 0.0278(9) 0.9408(7) 0.8928(5)
H262 H -0.0031 0.9699 0.8772
C279 C 0.1125(11) 0.8469(8) 0.8993(6)
H263 H 0.1350 0.8092 0.8902
C280 C 0.0634(11) 0.8871(8) 0.8784(5)
H264 H 0.0539 0.8779 0.8541
N68 N -0.0380(10) 1.0499(7) 0.9585(5)
C281 C 0.4832(9) 0.3459(7) 0.4951(5)
C282 C 0.4826(10) 0.3051(8) 0.4693(6)
N69 N 0.4907(8) 0.2656(6) 0.4502(5)
C283 C 0.5254(9) 0.4303(7) 0.5018(5)
H265 H 0.5534 0.4575 0.4919
C284 C 0.4512(9) 0.3916(7) 0.5571(4)
H266 H 0.4364 0.3884 0.5849
C285 C 0.5279(9) 0.3846(7) 0.4797(5)
H267 H 0.5580 0.3791 0.4553
C286 C 0.4423(9) 0.3503(7) 0.5333(5)
H268 H 0.4102 0.3263 0.5424
C287 C 0.4827(9) 0.4376(7) 0.5384(5)
H269 H 0.4750 0.4732 0.5505
C288 C 0.2542(9) 0.4320(7) 0.7178(6)
C289 C 0.1823(10) 0.4416(8) 0.7267(5)
H270 H 0.1623 0.4124 0.7431
C290 C 0.2847(8) 0.4738(9) 0.6942(6)
H271 H 0.3341 0.4669 0.6890
C291 C 0.1404(8) 0.4942(9) 0.7114(6)
H272 H 0.0911 0.5018 0.7173
C292 C 0.2423(10) 0.5255(8) 0.6784(5)
H273 H 0.2621 0.5542 0.6613
C293 C 0.1704(10) 0.5360(8) 0.6874(6)
H274 H 0.1414 0.5722 0.6769
C294 C 0.3073(10) 0.3805(8) 0.7294(7)
N70 N 0.3599(8) 0.3502(7) 0.7385(6)
C295 C 0.4073(10) 0.1322(9) 0.5679(5)
H275 H 0.3730 0.1099 0.5732
C296 C 0.4488(10) 0.1341(7) 0.5311(4)
C297 C 0.5069(10) 0.1589(9) 0.5220(5)
H276 H 0.5407 0.1498 0.4994
C298 C 0.4180(11) 0.1642(9) 0.5968(4)
H277 H 0.3935 0.1624 0.6229
C299 C 0.4674(11) 0.1998(9) 0.5851(5)
H278 H 0.4706 0.2259 0.6031
C300 C 0.5121(10) 0.1984(9) 0.5483(6)
H279 H 0.5440 0.2229 0.5418
C301 C 0.4736(9) 0.0921(7) 0.5022(5)
N71 N 0.4869(9) 0.0606(6) 0.4775(4)
C302 C 0.7422(9) 0.4369(7) 0.2224(6)
C303 C 0.6190(8) 0.4715(9) 0.2219(6)
H280 H 0.5738 0.4651 0.2301
C304 C 0.6259(9) 0.5224(7) 0.1993(6)
H281 H 0.5858 0.5518 0.1919
C305 C 0.6770(11) 0.4283(7) 0.2333(6)
H282 H 0.6711 0.3925 0.2488
C306 C 0.7503(9) 0.4864(8) 0.1993(6)
H283 H 0.7961 0.4913 0.1911
C307 C 0.6934(11) 0.5318(7) 0.1867(6)
H284 H 0.7000 0.5669 0.1704
C308 C 0.7950(9) 0.3884(8) 0.2372(7)
N72 N 0.8486(8) 0.3541(6) 0.2408(5)
loop_
_geom_bond_atom_site_label_1
_geom_bond_atom_site_label_2
_geom_bond_site_symmetry_1
_geom_bond_site_symmetry_2
B1 H1 1_555 1_555
B2 H2 1_555 1_555
C1 Fe1 1_555 1_555
C2 Fe1 1_555 1_555
C3 Fe1 1_555 1_555
C4 Fe2 1_555 1_555
C5 Fe2 1_555 1_555
C6 Fe2 1_555 1_555
C7 H3 1_555 1_555
C8 C7 1_555 1_555
H4 C8 1_555 1_555
C9 C8 1_555 1_555
C10 C9 1_555 1_555
H5 C10 1_555 1_555
C11 C10 1_555 1_555
C12 C11 1_555 1_555
C13 C12 1_555 1_555
H6 C13 1_555 1_555
C14 C13 1_555 1_555
C15 C14 1_555 1_555
H7 C15 1_555 1_555
C16 C15 1_555 1_555
H8 C16 1_555 1_555
C17 C9 1_555 1_555
H9 C17 1_555 1_555
H10 C17 1_555 1_555
H11 C17 1_555 1_555
C18 C14 1_555 1_555
H12 C18 1_555 1_555
H13 C18 1_555 1_555
H14 C18 1_555 1_555
C19 H15 1_555 1_555
C20 C19 1_555 1_555
H16 C20 1_555 1_555
C21 C20 1_555 1_555
C22 C21 1_555 1_555
H17 C22 1_555 1_555
C23 C22 1_555 1_555
C24 C23 1_555 1_555
C25 C24 1_555 1_555
H18 C25 1_555 1_555
C26 C25 1_555 1_555
C27 C26 1_555 1_555
H19 C27 1_555 1_555
C28 C27 1_555 1_555
H20 C28 1_555 1_555
C29 C21 1_555 1_555
H21 C29 1_555 1_555
H22 C29 1_555 1_555
H23 C29 1_555 1_555
C30 C26 1_555 1_555
H24 C30 1_555 1_555
H25 C30 1_555 1_555
H26 C30 1_555 1_555
C31 H27 1_555 1_555
H28 C31 1_555 1_555
H29 C31 1_555 1_555
C32 C31 1_555 1_555
C33 C32 1_555 1_555
H30 C33 1_555 1_555
C34 C33 1_555 1_555
C35 C34 1_555 1_555
H31 C35 1_555 1_555
H32 C35 1_555 1_555
H33 C35 1_555 1_555
C36 H34 1_555 1_555
H35 C36 1_555 1_555
H36 C36 1_555 1_555
C37 C36 1_555 1_555
C38 C37 1_555 1_555
H37 C38 1_555 1_555
C39 C38 1_555 1_555
C40 C39 1_555 1_555
H38 C40 1_555 1_555
H39 C40 1_555 1_555
H40 C40 1_555 1_555
C41 H41 1_555 1_555
H42 C41 1_555 1_555
H43 C41 1_555 1_555
C42 C41 1_555 1_555
C43 C42 1_555 1_555
H44 C43 1_555 1_555
C44 C43 1_555 1_555
C45 C44 1_555 1_555
H45 C45 1_555 1_555
H46 C45 1_555 1_555
H47 C45 1_555 1_555
C46 H48 1_555 1_555
C47 C46 1_555 1_555
H49 C47 1_555 1_555
C48 C47 1_555 1_555
C49 C48 1_555 1_555
H50 C49 1_555 1_555
C50 C49 1_555 1_555
C51 C50 1_555 1_555
C52 C51 1_555 1_555
H51 C52 1_555 1_555
C53 C52 1_555 1_555
C54 C53 1_555 1_555
H52 C54 1_555 1_555
C55 C54 1_555 1_555
H53 C55 1_555 1_555
C56 C48 1_555 1_555
H54 C56 1_555 1_555
H55 C56 1_555 1_555
H56 C56 1_555 1_555
C57 C53 1_555 1_555
H57 C57 1_555 1_555
H58 C57 1_555 1_555
H59 C57 1_555 1_555
C58 H60 1_555 1_555
C59 C58 1_555 1_555
H61 C59 1_555 1_555
C60 C59 1_555 1_555
C61 C60 1_555 1_555
H62 C61 1_555 1_555
C62 C61 1_555 1_555
C63 C62 1_555 1_555
C64 C63 1_555 1_555
H63 C64 1_555 1_555
C65 C64 1_555 1_555
C66 C65 1_555 1_555
H64 C66 1_555 1_555
C67 C66 1_555 1_555
H65 C67 1_555 1_555
C68 C60 1_555 1_555
H66 C68 1_555 1_555
H67 C68 1_555 1_555
H68 C68 1_555 1_555
C69 H69 1_555 1_555
H70 C69 1_555 1_555
H71 C69 1_555 1_555
C70 C69 1_555 1_555
C71 C70 1_555 1_555
H72 C71 1_555 1_555
C72 C71 1_555 1_555
C73 C72 1_555 1_555
H73 C73 1_555 1_555
H74 C73 1_555 1_555
H75 C73 1_555 1_555
C74 H76 1_555 1_555
H77 C74 1_555 1_555
H78 C74 1_555 1_555
C75 C74 1_555 1_555
C76 H79 1_555 1_555
H80 C76 1_555 1_555
H81 C76 1_555 1_555
C77 H82 1_555 1_555
H83 C77 1_555 1_555
H84 C77 1_555 1_555
C78 C77 1_555 1_555
C79 C78 1_555 1_555
H85 C79 1_555 1_555
C80 C79 1_555 1_555
C81 C80 1_555 1_555
H86 C81 1_555 1_555
H87 C81 1_555 1_555
H88 C81 1_555 1_555
Co1 N1 1_555 1_555
Co2 N4 1_555 1_555
Fe1 N11 1_555 1_555
Fe2 N21 1_555 1_555
N1 C1 1_555 1_555
N2 C5 1_555 1_555
N3 C3 1_555 1_555
N4 C4 1_555 1_555
N5 C2 1_555 1_555
N6 C6 1_555 1_555
N7 C7 1_555 1_555
N8 C12 1_555 1_555
N9 C19 1_555 1_555
N10 C24 1_555 1_555
N11 C32 1_555 1_555
N12 B1 1_555 1_555
N13 C42 1_555 1_555
N14 B1 1_555 1_555
N15 C37 1_555 1_555
N16 B1 1_555 1_555
N17 C58 1_555 1_555
N18 C63 1_555 1_555
N19 C46 1_555 1_555
N20 C51 1_555 1_555
N21 C75 1_555 1_555
N22 B2 1_555 1_555
N23 C78 1_555 1_555
N24 B2 1_555 1_555
N25 C70 1_555 1_555
N26 B2 1_555 1_555
C82 C76 1_555 1_555
C83 C75 1_555 1_555
H89 C83 1_555 1_555
C84 C65 1_555 1_555
H90 C84 1_555 1_555
H91 C84 1_555 1_555
H92 C84 1_555 1_555
B3 H93 1_555 1_555
C85 Fe3 1_555 1_555
C86 Fe3 1_555 1_555
C87 Fe3 1_555 1_555
C88 H94 1_555 1_555
C89 C88 1_555 1_555
H95 C89 1_555 1_555
C90 C89 1_555 1_555
C91 C90 1_555 1_555
H96 C91 1_555 1_555
C92 C91 1_555 1_555
C93 C92 1_555 1_555
C94 C93 1_555 1_555
H97 C94 1_555 1_555
C95 C94 1_555 1_555
C96 C95 1_555 1_555
H98 C96 1_555 1_555
C97 C96 1_555 1_555
H99 C97 1_555 1_555
C98 C90 1_555 1_555
H100 C98 1_555 1_555
H101 C98 1_555 1_555
H102 C98 1_555 1_555
C99 C95 1_555 1_555
H103 C99 1_555 1_555
H104 C99 1_555 1_555
H105 C99 1_555 1_555
C100 H106 1_555 1_555
C101 C112 1_555 1_555
C102 H107 1_555 1_555
H108 C102 1_555 1_555
H109 C102 1_555 1_555
C103 C102 1_555 1_555
C104 C100 1_555 1_555
H110 C104 1_555 1_555
C105 H111 1_555 1_555
C106 H112 1_555 1_555
C107 C109 1_555 1_555
C108 H113 1_555 1_555
H114 C108 1_555 1_555
H115 C108 1_555 1_555
C109 H116 1_555 1_555
H117 C109 1_555 1_555
H118 C109 1_555 1_555
C110 C107 1_555 1_555
H119 C110 1_555 1_555
C111 C104 1_555 1_555
C112 C111 1_555 1_555
H120 C112 1_555 1_555
C113 C103 1_555 1_555
H121 C113 1_555 1_555
C114 C105 1_555 1_555
C115 C111 1_555 1_555
H122 C115 1_555 1_555
H123 C115 1_555 1_555
H124 C115 1_555 1_555
C116 C110 1_555 1_555
C117 C105 1_555 1_555
H125 C117 1_555 1_555
C118 C116 1_555 1_555
H126 C118 1_555 1_555
H127 C118 1_555 1_555
H128 C118 1_555 1_555
C119 H129 1_555 1_555
H130 C119 1_555 1_555
H131 C119 1_555 1_555
C120 C119 1_555 1_555
C121 C120 1_555 1_555
H132 C121 1_555 1_555
C122 C121 1_555 1_555
C123 C122 1_555 1_555
H133 C123 1_555 1_555
H134 C123 1_555 1_555
H135 C123 1_555 1_555
C124 H136 1_555 1_555
H137 C124 1_555 1_555
H138 C124 1_555 1_555
C125 C113 1_555 1_555
C126 C101 1_555 1_555
Co3 N27 1_555 1_555
Fe3 N34 1_555 1_555
N27 C85 1_555 1_555
N28 C86 1_555 1_555
N29 C87 1_555 1_555
N30 C88 1_555 1_555
N31 C93 1_555 1_555
N32 C100 1_555 1_555
N33 C117 1_555 1_555
N34 C103 1_555 1_555
N35 B3 1_555 1_555
N36 C122 1_555 1_555
N37 B3 1_555 1_555
N38 C116 1_555 1_555
N39 B3 1_555 1_555
B4 H139 1_555 1_555
C127 Fe4 1_555 1_555
C128 N41 1_555 1_555
C129 H140 1_555 1_555
C130 H141 1_555 1_555
C131 H142 1_555 1_555
C132 C130 1_555 1_555
C133 H143 1_555 1_555
H144 C133 1_555 1_555
H145 C133 1_555 1_555
C134 C132 1_555 1_555
C135 H146 1_555 1_555
C136 C134 1_555 1_555
H147 C136 1_555 1_555
C137 H148 1_555 1_555
H149 C137 1_555 1_555
H150 C137 1_555 1_555
C138 C136 1_555 1_555
C139 C129 1_555 1_555
C140 C138 1_555 1_555
H151 C140 1_555 1_555
C141 H152 1_555 1_555
H153 C141 1_555 1_555
H154 C141 1_555 1_555
C142 C140 1_555 1_555
H155 C142 1_555 1_555
C143 C129 1_555 1_555
H156 C143 1_555 1_555
C144 Fe4 1_555 1_555
C145 C165 1_555 1_555
C146 C133 1_555 1_555
C147 H157 1_555 1_555
H158 C147 1_555 1_555
H159 C147 1_555 1_555
C148 C160 1_555 1_555
C149 H160 1_555 1_555
C150 H161 1_555 1_555
C151 C156 1_555 1_555
C152 C161 1_555 1_555
C153 C166 1_555 1_555
C154 C135 1_555 1_555
H162 C154 1_555 1_555
C155 C135 1_555 1_555
C156 C149 1_555 1_555
C157 C146 1_555 1_555
H163 C157 1_555 1_555
C158 C146 1_555 1_555
H164 C158 1_555 1_555
C159 C155 1_555 1_555
H165 C159 1_555 1_555
H166 C159 1_555 1_555
H167 C159 1_555 1_555
C160 H168 1_555 1_555
H169 C160 1_555 1_555
H170 C160 1_555 1_555
C161 C148 1_555 1_555
H171 C161 1_555 1_555
C162 C152 1_555 1_555
H172 C162 1_555 1_555
H173 C162 1_555 1_555
H174 C162 1_555 1_555
C163 C131 1_555 1_555
C164 C131 1_555 1_555
C165 H175 1_555 1_555
H176 C165 1_555 1_555
H177 C165 1_555 1_555
C166 C145 1_555 1_555
H178 C166 1_555 1_555
C167 C153 1_555 1_555
H179 C167 1_555 1_555
H180 C167 1_555 1_555
H181 C167 1_555 1_555
C168 C138 1_555 1_555
H182 C168 1_555 1_555
H183 C168 1_555 1_555
H184 C168 1_555 1_555
Co4 N40 1_555 1_555
Fe4 N47 1_555 1_555
N40 C127 1_555 1_555
N41 Co4 1_555 1_555
N42 C144 1_555 1_555
N43 C134 1_555 1_555
N44 C132 1_555 1_555
N45 C154 1_555 1_555
N46 C150 1_555 1_555
N47 C148 1_555 1_555
N48 B4 1_555 1_555
N49 C163 1_555 1_555
N50 B4 1_555 1_555
N51 C145 1_555 1_555
N52 B4 1_555 1_555
C169 H185 1_555 1_555
C170 C169 1_555 1_555
C171 C170 1_555 1_555
H186 C171 1_555 1_555
C172 C171 1_555 1_555
H187 C172 1_555 1_555
C173 C172 1_555 1_555
H188 C173 1_555 1_555
C174 C169 1_555 1_555
H189 C174 1_555 1_555
N53 C175 1_555 1_555
C175 C170 1_555 1_555
C176 H190 1_555 1_555
C177 C179 1_555 1_555
C178 H191 1_555 1_555
C179 C180 1_555 1_555
C180 C176 1_555 1_555
H192 C180 1_555 1_555
C181 C178 1_555 1_555
H193 C181 1_555 1_555
C182 C176 1_555 1_555
H194 C182 1_555 1_555
N54 C177 1_555 1_555
C183 H195 1_555 1_555
C184 C183 1_555 1_555
H196 C184 1_555 1_555
C185 C189 1_555 1_555
C186 C183 1_555 1_555
H197 C186 1_555 1_555
C187 C184 1_555 1_555
H198 C187 1_555 1_555
C188 C186 1_555 1_555
H199 C188 1_555 1_555
C189 C187 1_555 1_555
N55 C185 1_555 1_555
C190 C191 1_555 1_555
C191 C192 1_555 1_555
C192 H200 1_555 1_555
C193 C192 1_555 1_555
H201 C193 1_555 1_555
C194 C193 1_555 1_555
C195 C194 1_555 1_555
H202 C195 1_555 1_555
C196 C191 1_555 1_555
H203 C196 1_555 1_555
N56 C190 1_555 1_555
O1 C194 1_555 1_555
H204 O1 1_555 1_555
C197 C198 1_555 1_555
C198 C199 1_555 1_555
C199 H205 1_555 1_555
C200 C199 1_555 1_555
H206 C200 1_555 1_555
C201 C200 1_555 1_555
C202 C201 1_555 1_555
H207 C202 1_555 1_555
C203 C198 1_555 1_555
H208 C203 1_555 1_555
N57 C197 1_555 1_555
O2 C201 1_555 1_555
H209 O2 1_555 1_555
C204 C205 1_555 1_555
C205 C206 1_555 1_555
C206 H210 1_555 1_555
C207 C206 1_555 1_555
H211 C207 1_555 1_555
C208 C207 1_555 1_555
H212 C208 1_555 1_555
C209 C208 1_555 1_555
H213 C209 1_555 1_555
C210 C205 1_555 1_555
H214 C210 1_555 1_555
N58 C204 1_555 1_555
C211 C212 1_555 1_555
C212 C213 1_555 1_555
C213 H215 1_555 1_555
C214 C213 1_555 1_555
H216 C214 1_555 1_555
C215 C214 1_555 1_555
H217 C215 1_555 1_555
C216 C215 1_555 1_555
H218 C216 1_555 1_555
C217 C212 1_555 1_555
H219 C217 1_555 1_555
N59 C211 1_555 1_555
C218 C219 1_555 1_555
C219 C220 1_555 1_555
C220 H220 1_555 1_555
C221 C220 1_555 1_555
H221 C221 1_555 1_555
C222 C221 1_555 1_555
C223 C222 1_555 1_555
H222 C223 1_555 1_555
C224 C219 1_555 1_555
H223 C224 1_555 1_555
N60 C218 1_555 1_555
O3 C222 1_555 1_555
H224 O3 1_555 1_555
C225 C226 1_555 1_555
C226 C227 1_555 1_555
C227 H225 1_555 1_555
C228 C227 1_555 1_555
H226 C228 1_555 1_555
C229 C228 1_555 1_555
C230 C229 1_555 1_555
H227 C230 1_555 1_555
C231 C226 1_555 1_555
H228 C231 1_555 1_555
N61 C225 1_555 1_555
O4 C229 1_555 1_555
H229 O4 1_555 1_555
C232 C233 1_555 1_555
C233 C234 1_555 1_555
C234 H230 1_555 1_555
C235 C234 1_555 1_555
H231 C235 1_555 1_555
C236 C235 1_555 1_555
H232 C236 1_555 1_555
C237 C236 1_555 1_555
H233 C237 1_555 1_555
C238 C233 1_555 1_555
H234 C238 1_555 1_555
N62 C232 1_555 1_555
C239 C240 1_555 1_555
C240 C241 1_555 1_555
C241 H235 1_555 1_555
C242 C241 1_555 1_555
H236 C242 1_555 1_555
C243 C242 1_555 1_555
H237 C243 1_555 1_555
C244 C243 1_555 1_555
H238 C244 1_555 1_555
C245 C240 1_555 1_555
H239 C245 1_555 1_555
N63 C239 1_555 1_555
C246 C247 1_555 1_555
C247 C248 1_555 1_555
C248 H240 1_555 1_555
C249 C248 1_555 1_555
H241 C249 1_555 1_555
C250 C249 1_555 1_555
H242 C250 1_555 1_555
C251 C250 1_555 1_555
H243 C251 1_555 1_555
C252 C247 1_555 1_555
H244 C252 1_555 1_555
N64 C246 1_555 1_555
C253 C254 1_555 1_555
C254 C255 1_555 1_555
C255 H245 1_555 1_555
C256 C255 1_555 1_555
H246 C256 1_555 1_555
C257 C256 1_555 1_555
H247 C257 1_555 1_555
C258 C257 1_555 1_555
H248 C258 1_555 1_555
C259 C254 1_555 1_555
H249 C259 1_555 1_555
N65 C253 1_555 1_555
C260 C261 1_555 1_555
C261 C262 1_555 1_555
C262 H250 1_555 1_555
C263 C262 1_555 1_555
H251 C263 1_555 1_555
C264 C263 1_555 1_555
H252 C264 1_555 1_555
C265 C264 1_555 1_555
H253 C265 1_555 1_555
C266 C261 1_555 1_555
H254 C266 1_555 1_555
N66 C260 1_555 1_555
C267 N67 1_555 1_555
C268 C267 1_555 1_555
C269 C268 1_555 1_555
H255 C269 1_555 1_555
C270 H256 1_555 1_555
C271 C269 1_555 1_555
H257 C271 1_555 1_555
C272 C268 1_555 1_555
H258 C272 1_555 1_555
C273 C270 1_555 1_555
H259 C273 1_555 1_555
F1 P1 1_555 1_555
F2 P1 1_555 1_555
F3 P1 1_555 1_555
P1 F4 1_555 1_555
F5 P1 1_555 1_555
F6 P1 1_555 1_555
F7 P2 1_555 1_555
F8 P2 1_555 1_555
F9 P2 1_555 1_555
F10 P2 1_555 1_555
P2 F11 1_555 1_555
F12 P2 1_555 1_555
P3 F13 1_555 1_555
F14 P3 1_555 1_555
F15 P3 1_555 1_555
F16 P3 1_555 1_555
F17 P3 1_555 1_555
F18 P3 1_555 1_555
C274 C275 1_555 1_555
C275 H260 1_555 1_555
C276 C274 1_555 1_555
C277 C275 1_555 1_555
H261 C277 1_555 1_555
C278 C274 1_555 1_555
H262 C278 1_555 1_555
C279 C277 1_555 1_555
H263 C279 1_555 1_555
C280 C278 1_555 1_555
H264 C280 1_555 1_555
N68 C276 1_555 1_555
C281 C282 1_555 1_555
C282 N69 1_555 1_555
C283 H265 1_555 1_555
C284 H266 1_555 1_555
C285 C281 1_555 1_555
H267 C285 1_555 1_555
C286 C281 1_555 1_555
H268 C286 1_555 1_555
C287 C283 1_555 1_555
H269 C287 1_555 1_555
C288 C289 1_555 1_555
C289 H270 1_555 1_555
C290 C288 1_555 1_555
H271 C290 1_555 1_555
C291 C289 1_555 1_555
H272 C291 1_555 1_555
C292 C290 1_555 1_555
H273 C292 1_555 1_555
C293 C291 1_555 1_555
H274 C293 1_555 1_555
C294 C288 1_555 1_555
N70 C294 1_555 1_555
C295 H275 1_555 1_555
C296 C295 1_555 1_555
C297 C296 1_555 1_555
H276 C297 1_555 1_555
C298 C295 1_555 1_555
H277 C298 1_555 1_555
C299 C298 1_555 1_555
H278 C299 1_555 1_555
C300 C297 1_555 1_555
H279 C300 1_555 1_555
C301 C296 1_555 1_555
N71 C301 1_555 1_555
C302 C305 1_555 1_555
C303 H280 1_555 1_555
C304 C303 1_555 1_555
H281 C304 1_555 1_555
C305 C303 1_555 1_555
H282 C305 1_555 1_555
C306 C302 1_555 1_555
H283 C306 1_555 1_555
C307 C304 1_555 1_555
H284 C307 1_555 1_555
C308 C302 1_555 1_555
N72 C308 1_555 1_555
B3A H93A 1_555 1_555
C85A Fe3A 1_555 1_555
C86A Fe3A 1_555 1_555
C87A Fe3A 1_555 1_555
C88A H94A 1_555 1_555
C89A C88A 1_555 1_555
H95A C89A 1_555 1_555
C90A C89A 1_555 1_555
C91A C90A 1_555 1_555
H96A C91A 1_555 1_555
C92A C91A 1_555 1_555
C93A C92A 1_555 1_555
C94A C93A 1_555 1_555
H97A C94A 1_555 1_555
C95A C94A 1_555 1_555
C96A C95A 1_555 1_555
H98A C96A 1_555 1_555
C97A C96A 1_555 1_555
H99A C97A 1_555 1_555
C98A C90A 1_555 1_555
H100A C98A 1_555 1_555
H101A C98A 1_555 1_555
H102A C98A 1_555 1_555
C99A C95A 1_555 1_555
H103A C99A 1_555 1_555
H104A C99A 1_555 1_555
H105A C99A 1_555 1_555
C100A H106A 1_555 1_555
C101A C112A 1_555 1_555
C102A H107A 1_555 1_555
H108A C102A 1_555 1_555
H109A C102A 1_555 1_555
C103A C102A 1_555 1_555
C104A C100A 1_555 1_555
H110A C104A 1_555 1_555
C105A H111A 1_555 1_555
C106A H112A 1_555 1_555
C107A C109A 1_555 1_555
C108A H113A 1_555 1_555
H114A C108A 1_555 1_555
H115A C108A 1_555 1_555
C109A H116A 1_555 1_555
H117A C109A 1_555 1_555
H118A C109A 1_555 1_555
C110A C107A 1_555 1_555
H119A C110A 1_555 1_555
C111A C104A 1_555 1_555
C112A C111A 1_555 1_555
H120A C112A 1_555 1_555
C113A C103A 1_555 1_555
H121A C113A 1_555 1_555
C114A C105A 1_555 1_555
C115A C111A 1_555 1_555
H122A C115A 1_555 1_555
H123A C115A 1_555 1_555
H124A C115A 1_555 1_555
C116A C110A 1_555 1_555
C117A C105A 1_555 1_555
H125A C117A 1_555 1_555
C118A C116A 1_555 1_555
H126A C118A 1_555 1_555
H127A C118A 1_555 1_555
H128A C118A 1_555 1_555
C119A H129A 1_555 1_555
H130A C119A 1_555 1_555
H131A C119A 1_555 1_555
C120A C119A 1_555 1_555
C121A C120A 1_555 1_555
H132A C121A 1_555 1_555
C122A C121A 1_555 1_555
C123A C122A 1_555 1_555
H133A C123A 1_555 1_555
H134A C123A 1_555 1_555
H135A C123A 1_555 1_555
C124A H136A 1_555 1_555
H137A C124A 1_555 1_555
H138A C124A 1_555 1_555
C125A C113A 1_555 1_555
C126A C101A 1_555 1_555
Co3A N28 1_555 1_555
Fe3A N34A 1_555 1_555
N27A C85A 1_555 1_555
N28A Co3 1_555 1_555
N29A C87A 1_555 1_555
N30A C88A 1_555 1_555
N31A C93A 1_555 1_555
N32A C100A 1_555 1_555
N33A C117A 1_555 1_555
N34A C103A 1_555 1_555
N35A B3A 1_555 1_555
N36A C122A 1_555 1_555
N37A B3A 1_555 1_555
N38A C116A 1_555 1_555
N39A B3A 1_555 1_555
B4A H139A 1_555 1_555
C127A Fe4A 1_555 1_555
C128A Fe4 1_555 1_555
C129A H140A 1_555 1_555
C130A H141A 1_555 1_555
C131A H142A 1_555 1_555
C132A C130A 1_555 1_555
C133A H143A 1_555 1_555
H144A C133A 1_555 1_555
H145A C133A 1_555 1_555
C134A C132A 1_555 1_555
C135A H146A 1_555 1_555
C136A C134A 1_555 1_555
H147A C136A 1_555 1_555
C137A H148A 1_555 1_555
H149A C137A 1_555 1_555
H150A C137A 1_555 1_555
C138A C136A 1_555 1_555
C139A C129A 1_555 1_555
C140A C138A 1_555 1_555
H151A C140A 1_555 1_555
C141A H152A 1_555 1_555
H153A C141A 1_555 1_555
H154A C141A 1_555 1_555
C142A C140A 1_555 1_555
H155A C142A 1_555 1_555
C143A C129A 1_555 1_555
H156A C143A 1_555 1_555
C144A Fe4A 1_555 1_555
C145A C165A 1_555 1_555
C146A C133A 1_555 1_555
C147A H157A 1_555 1_555
H158A C147A 1_555 1_555
H159A C147A 1_555 1_555
C148A C160A 1_555 1_555
C149A H160A 1_555 1_555
C150A H161A 1_555 1_555
C151A C156A 1_555 1_555
C152A C161A 1_555 1_555
C153A C166A 1_555 1_555
C154A C135A 1_555 1_555
H162A C154A 1_555 1_555
C155A C135A 1_555 1_555
C156A C149A 1_555 1_555
C157A C146A 1_555 1_555
H163A C157A 1_555 1_555
C158A C146A 1_555 1_555
H164A C158A 1_555 1_555
C159A C155A 1_555 1_555
H165A C159A 1_555 1_555
H166A C159A 1_555 1_555
H167A C159A 1_555 1_555
C160A H168A 1_555 1_555
H169A C160A 1_555 1_555
H170A C160A 1_555 1_555
C161A C148A 1_555 1_555
H171A C161A 1_555 1_555
C162A C152A 1_555 1_555
H172A C162A 1_555 1_555
H173A C162A 1_555 1_555
H174A C162A 1_555 1_555
C163A C131A 1_555 1_555
C164A C131A 1_555 1_555
C165A H175A 1_555 1_555
H176A C165A 1_555 1_555
H177A C165A 1_555 1_555
C166A C145A 1_555 1_555
H178A C166A 1_555 1_555
C167A C153A 1_555 1_555
H179A C167A 1_555 1_555
H180A C167A 1_555 1_555
H181A C167A 1_555 1_555
C168A C138A 1_555 1_555
H182A C168A 1_555 1_555
H183A C168A 1_555 1_555
H184A C168A 1_555 1_555
Co4A N40A 1_555 1_555
Fe4A C128 1_555 1_555
N40A C127A 1_555 1_555
N41A C128A 1_555 1_555
N42A C144A 1_555 1_555
N43A C134A 1_555 1_555
N44A C132A 1_555 1_555
N45A C154A 1_555 1_555
N46A C150A 1_555 1_555
N47A C148A 1_555 1_555
N48A B4A 1_555 1_555
N49A C163A 1_555 1_555
N50A B4A 1_555 1_555
N51A C145A 1_555 1_555
N52A B4A 1_555 1_555
C11 N7 1_555 1_555
C16 N8 1_555 1_555
C23 N9 1_555 1_555
C28 N10 1_555 1_555
C34 N12 1_555 1_555
C39 N16 1_555 1_555
C44 N14 1_555 1_555
C50 N19 1_555 1_555
C55 N20 1_555 1_555
C62 N17 1_555 1_555
C67 N18 1_555 1_555
C72 N26 1_555 1_555
C80 N24 1_555 1_555
Co1 N2 1_555 1_555
Co1 N7 1_555 1_555
Co1 N8 1_555 1_555
Co1 N9 1_555 1_555
Co1 N10 1_555 1_555
Co2 N5 1_555 1_555
Co2 N17 1_555 1_555
Co2 N18 1_555 1_555
Co2 N19 1_555 1_555
Co2 N20 1_555 1_555
Fe1 N13 1_555 1_555
Fe1 N15 1_555 1_555
Fe2 N23 1_555 1_555
Fe2 N25 1_555 1_555
N11 N12 1_555 1_555
N13 N14 1_555 1_555
N15 N16 1_555 1_555
N21 N22 1_555 1_555
N22 C82 1_555 1_555
N23 N24 1_555 1_555
N25 N26 1_555 1_555
C82 C83 1_555 1_555
C92 N30 1_555 1_555
C97 N31 1_555 1_555
C101 N32 1_555 1_555
C106 C114 1_555 1_555
C106 C126 1_555 1_555
C107 N39 1_555 1_555
C108 C114 1_555 1_555
C120 N37 1_555 1_555
C124 C125 1_555 1_555
C125 N35 1_555 1_555
C126 N33 1_555 1_555
Co3 N30 1_555 1_555
Co3 N31 1_555 1_555
Co3 N32 1_555 1_555
Co3 N33 1_555 1_555
Fe3 N36 1_555 1_555
Fe3 N38 1_555 1_555
N34 N35 1_555 1_555
N36 N37 1_555 1_555
N38 N39 1_555 1_555
C130 C139 1_555 1_555
C137 C139 1_555 1_555
C141 C163 1_555 1_555
C142 N43 1_555 1_555
C143 N44 1_555 1_555
C147 C164 1_555 1_555
C149 C155 1_555 1_555
C150 C158 1_555 1_555
C151 C157 1_555 1_555
C151 N46 1_555 1_555
C152 N48 1_555 1_555
C153 N52 1_555 1_555
C156 N45 1_555 1_555
C164 N50 1_555 1_555
Co4 N43 1_555 1_555
Co4 N44 1_555 1_555
Co4 N45 1_555 1_555
Co4 N46 1_555 1_555
Fe4 N49 1_555 1_555
Fe4 N51 1_555 1_555
N47 N48 1_555 1_555
N49 N50 1_555 1_555
N51 N52 1_555 1_555
C173 C174 1_555 1_555
C178 C182 1_555 1_555
C179 C181 1_555 1_555
C188 C189 1_555 1_555
C195 C196 1_555 1_555
C202 C203 1_555 1_555
C209 C210 1_555 1_555
C216 C217 1_555 1_555
C223 C224 1_555 1_555
C230 C231 1_555 1_555
C237 C238 1_555 1_555
C244 C245 1_555 1_555
C251 C252 1_555 1_555
C258 C259 1_555 1_555
C265 C266 1_555 1_555
C270 C271 1_555 1_555
C272 C273 1_555 1_555
C279 C280 1_555 1_555
C283 C285 1_555 1_555
C284 C286 1_555 1_555
C284 C287 1_555 1_555
C292 C293 1_555 1_555
C299 C300 1_555 1_555
C306 C307 1_555 1_555
C86A N28A 1_555 1_555
C92A N30A 1_555 1_555
C97A N31A 1_555 1_555
C101A N32A 1_555 1_555
C106A C114A 1_555 1_555
C106A C126A 1_555 1_555
C107A N39A 1_555 1_555
C108A C114A 1_555 1_555
C120A N37A 1_555 1_555
C124A C125A 1_555 1_555
C125A N35A 1_555 1_555
C126A N33A 1_555 1_555
Co3A N27A 1_555 1_555
Co3A N30A 1_555 1_555
Co3A N31A 1_555 1_555
Co3A N32A 1_555 1_555
Co3A N33A 1_555 1_555
Fe3A N36A 1_555 1_555
Fe3A N38A 1_555 1_555
N34A N35A 1_555 1_555
N36A N37A 1_555 1_555
N38A N39A 1_555 1_555
C130A C139A 1_555 1_555
C137A C139A 1_555 1_555
C141A C163A 1_555 1_555
C142A N43A 1_555 1_555
C143A N44A 1_555 1_555
C147A C164A 1_555 1_555
C149A C155A 1_555 1_555
C150A C158A 1_555 1_555
C151A C157A 1_555 1_555
C151A N46A 1_555 1_555
C152A N48A 1_555 1_555
C153A N52A 1_555 1_555
C156A N45A 1_555 1_555
C164A N50A 1_555 1_555
Co4A N41A 1_555 1_555
Co4A N43A 1_555 1_555
Co4A N44A 1_555 1_555
Co4A N45A 1_555 1_555
Co4A N46A 1_555 1_555
Fe4A N47A 1_555 1_555
Fe4A N49A 1_555 1_555
Fe4A N51A 1_555 1_555
N47A N48A 1_555 1_555
N49A N50A 1_555 1_555
N51A N52A 1_555 1_555

#END
