
#######################################################################
#
#                 Cambridge Crystallographic Data Centre
#                                CCDC 
#
#######################################################################
#
# If this CIF has been generated from an entry in the Cambridge 
# Structural Database, then it will include bibliographic, chemical, 
# crystal, experimental, refinement or atomic coordinate data resulting 
# from the CCDC's data processing and validation procedures.
#
#######################################################################

data_DAQVUP
_chemical_formula_moiety         
'C188 H190 Fe2 N8 O16 Ru8 8+,4(C4 H10 O1),8(C1 F3 O3 S1 1-)'
_chemical_name_systematic        
"bis(\m-4,4',4'',4'''-(cyclobuta-1,3-diene-1,2,3,4-tetrayl)tetrapyridine)-tetrakis(\m-5,8-dioxo-5,8-dihydronaphthalene-1,4-bis(olato))-octakis(p-cymene)-bis(\h^5^-pentamethylcyclopentadienyl)-di-iron-octa-ruthenium octakis(trifluoromethanesulfonate) diethyl ether solvate"
_symmetry_cell_setting           triclinic
_symmetry_space_group_name_H-M   'P -1'
_symmetry_Int_Tables_number      2
_space_group_name_Hall           '-P 1'
loop_
_symmetry_equiv_pos_site_id
_symmetry_equiv_pos_as_xyz
1 x,y,z
2 -x,-y,-z
_cell_length_a                   17.6318(11)
_cell_length_b                   25.9397(14)
_cell_length_c                   25.9596(13)
_cell_angle_alpha                90.018(3)
_cell_angle_beta                 90.011(4)
_cell_angle_gamma                90.044(4)
_cell_volume                     11873
_exptl_crystal_description       block
_cell_formula_units_Z            2
loop_
_atom_site_label
_atom_site_type_symbol
_atom_site_fract_x
_atom_site_fract_y
_atom_site_fract_z
F1 F 0.6982(17) 0.8655(11) 0.9809(11)
F2 F 0.6914(14) 0.8525(11) 1.0521(12)
S1 S 0.5733(5) 0.8142(2) 1.0089(3)
O1 O 0.5453(8) 0.8625(5) 1.0224(5)
O2 O 0.5596(14) 0.8019(9) 0.9571(10)
O3 O 0.5598(10) 0.7754(7) 1.0465(7)
C1 C 0.659(2) 0.8331(12) 1.0097(13)
F3 F 0.7163(12) 0.8036(9) 1.0139(8)
Ru1 Ru 0.45075(13) 0.88136(6) 0.50246(6)
Ru2 Ru 0.04896(13) 0.49742(6) 0.11869(6)
Ru3 Ru 0.45089(14) 0.61868(6) -0.00257(6)
Ru4 Ru 0.04909(13) 1.00268(6) 0.38137(6)
Ru5 Ru 0.45107(13) 1.00268(6) 0.11871(6)
Ru6 Ru 0.04920(13) 0.88127(6) -0.00258(6)
Ru7 Ru 0.04901(13) 0.61868(6) 0.50248(6)
Ru8 Ru 0.45082(14) 0.49734(6) 0.38136(6)
Fe1 Fe 0.5517(2) 0.74980(12) 0.25021(12)
Fe2 Fe -0.0516(2) 0.74996(12) 0.25010(12)
O4 O 0.4196(8) 0.9566(4) 0.0579(4)
O5 O 0.0802(8) 0.5440(4) 0.0578(4)
O6 O 0.4241(8) 0.9420(4) 0.4568(4)
O7 O 0.4203(8) 0.5440(4) 0.4426(4)
C2 C 0.4561(11) 0.7134(7) 0.2685(7)
O8 O 0.3387(8) 0.6348(5) -0.0080(5)
O9 O 0.1629(8) 0.4922(5) 0.1340(5)
O10 O 0.1619(8) 0.8651(5) -0.0084(5)
O11 O 0.0792(8) 0.9420(4) 0.0434(4)
O12 O 0.0793(8) 0.5577(4) 0.4561(4)
O13 O 0.3378(8) 1.0087(5) 0.1346(5)
O14 O 0.4204(8) 0.5581(4) 0.0436(4)
O15 O 0.0774(8) 0.9562(4) 0.4418(4)
O16 O 0.1617(9) 0.6347(5) 0.5081(5)
O17 O 0.3372(9) 0.4920(5) 0.3650(5)
N1 N 0.0551(9) 0.5686(5) 0.1574(6)
C3 C 0.4531(11) 0.7664(6) 0.2852(7)
N2 N 0.4449(10) 0.5690(6) 0.3424(6)
O18 O 0.1616(8) 1.0084(5) 0.3648(5)
C4 C 0.4535(12) 0.7849(7) 0.2322(7)
C5 C 0.4478(12) 0.7932(7) 0.3360(7)
N3 N 0.4458(9) 0.9319(5) 0.1563(6)
C6 C 0.4501(11) 0.6648(6) 0.2941(7)
N4 N 0.4458(10) 0.8430(6) 0.4309(6)
C7 C -0.0701(13) 0.4834(8) 0.0949(8)
C8 C 0.2062(13) 1.0068(7) 0.1270(7)
C9 C 0.0504(11) 0.7062(7) 0.3354(7)
C10 C 0.2988(13) 0.6253(7) 0.5060(7)
N5 N 0.0533(9) 0.9314(6) 0.3430(6)
C11 C 0.0500(11) 0.7862(7) 0.2680(7)
C12 C 0.0857(12) 0.7695(7) 0.1209(7)
C13 C 0.2038(14) 0.6247(7) -0.0061(8)
C14 C -0.0119(15) 0.4540(9) 0.1761(9)
C15 C 0.0484(11) 0.7688(6) 0.2133(7)
C16 C 0.0868(12) 0.5744(7) 0.2050(7)
C17 C 0.3653(14) 0.6039(8) 0.4905(8)
C18 C 0.4683(15) 0.8496(9) 0.5782(9)
C19 C 0.0361(13) 0.4178(8) 0.0929(8)
C20 C 0.0484(12) 0.7147(7) 0.2306(7)
C21 C 0.2198(13) 0.9514(7) 0.4329(7)
C22 C 0.1366(12) 0.5109(7) 0.3972(7)
C23 C 0.2980(14) 0.8737(8) -0.0062(8)
N6 N 0.0597(9) 0.8432(6) 0.0684(5)
C24 C 0.4700(15) 1.0789(9) 0.1504(9)
C25 C 0.1443(12) 0.5473(6) 0.4387(7)
C26 C 0.2973(14) 1.0056(7) 0.3749(8)
C27 C 0.5136(13) 0.8232(8) 0.5465(8)
C28 C 0.4811(12) 0.6581(7) 0.3430(7)
C29 C 0.0866(11) 0.7951(6) 0.0734(7)
C30 C 0.1391(13) 0.9903(7) 0.1048(8)
C31 C 0.0865(12) 0.7308(7) 0.3781(7)
C32 C 0.2837(12) 0.9517(6) 0.0672(7)
C33 C 0.4496(12) 0.8358(7) 0.2058(7)
C34 C 0.0876(11) 0.7043(7) 0.4265(7)
C35 C 0.4488(11) 0.7062(7) 0.1644(7)
C36 C -0.0617(13) 1.0139(8) 0.3471(8)
C37 C 0.5111(15) 0.4541(9) 0.3240(9)
C38 C 0.4144(12) 0.6218(7) 0.2699(7)
C39 C 0.3619(13) 0.9903(7) 0.3959(7)
C40 C 0.3638(13) 0.5094(7) 0.1038(8)
C41 C 0.4675(13) 1.0814(8) 0.0928(8)
C42 C 0.0522(11) 0.8354(7) 0.2935(7)
C43 C 0.0324(14) 0.8491(9) -0.0803(9)
C44 C 0.1453(12) 0.9522(6) 0.0616(7)
C45 C 0.3549(12) 0.9386(6) 0.0483(7)
C46 C 0.0460(12) 0.7328(7) 0.2849(8)
C47 C 0.0523(12) 0.7938(7) 0.1635(7)
C48 C 0.0301(13) 0.6516(8) 0.5789(8)
C49 C 0.4518(11) 0.7308(7) 0.2155(7)
C50 C 0.5637(14) 0.8482(9) 0.5152(9)
C51 C 0.3529(13) 0.5488(6) 0.0602(7)
C52 C -0.0698(12) 0.9061(7) -0.0162(7)
C53 C 0.0523(11) 0.6641(7) 0.2060(7)
C54 C 0.4689(14) 0.4212(8) 0.3492(8)
C55 C 0.2007(13) 0.4951(7) 0.3755(7)
C56 C 0.0181(12) 0.6569(7) 0.3421(7)
C57 C 0.4115(12) 0.5727(7) 0.2956(7)
N7 N 0.4448(9) 0.6568(6) 0.0679(6)
C58 C -0.0093(14) 0.8237(8) -0.0453(8)
C59 C 0.4147(12) 0.7957(7) 0.4272(7)
C60 C 0.2804(13) 0.5675(7) 0.0485(7)
C61 C 0.4634(13) 0.9062(8) 0.5823(8)
C62 C 0.1382(13) 0.6035(8) 0.0093(8)
C63 C 0.5647(13) 1.0145(8) 0.1532(8)
N8 N 0.0558(9) 0.6571(5) 0.4317(6)
C64 C 0.2808(13) 0.9904(7) 0.1102(7)
C65 C -0.0638(14) 0.8492(8) -0.0158(8)
C66 C 0.2203(14) 0.6121(7) 0.4921(7)
C67 C 0.0844(12) 0.8773(7) 0.2695(7)
C68 C 0.4860(13) 0.8434(8) 0.3411(8)
C69 C 0.0164(13) 0.8425(8) 0.1573(8)
C70 C 0.4132(12) 0.9271(7) 0.2047(7)
C71 C 0.2203(13) 0.5100(7) 0.1097(7)
C72 C 0.2817(13) 0.5091(7) 0.3880(7)
C73 C 0.0873(12) 0.6223(7) 0.2306(7)
C74 C 0.0877(11) 0.9267(7) 0.2960(7)
C75 C 0.4163(12) 0.7691(7) 0.3782(7)
C76 C 0.0344(13) 0.9064(8) -0.0833(8)
C77 C 0.0348(14) 1.0833(8) 0.4059(9)
C78 C 0.2812(13) 0.9330(7) 0.4518(7)
C79 C -0.0687(13) 0.5953(8) 0.5166(8)
C80 C 0.2963(13) 0.4941(7) 0.1266(7)
C81 C 0.3619(12) 0.8962(7) 0.0107(7)
C82 C 0.5132(14) 1.0446(8) 0.1753(8)
C83 C 0.0321(13) 0.4207(8) 0.1503(8)
C84 C -0.0636(14) 0.4837(8) 0.1532(8)
C85 C 0.5701(12) 0.9062(7) 0.5152(7)
C86 C 0.2181(12) 0.8897(7) 0.0085(7)
C87 C 0.4799(12) 0.8893(7) 0.1340(7)
C88 C 0.0180(13) 0.8422(7) 0.3429(8)
C89 C 0.5099(15) 0.6751(9) -0.0451(9)
C90 C -0.0131(15) 1.0467(9) 0.3235(9)
C91 C 0.0334(14) 1.0792(8) 0.3495(9)
C92 C 0.3522(13) 0.5606(7) 0.4513(7)
C93 C 0.2184(12) 0.9917(7) 0.3894(7)
C94 C 0.5632(14) 0.4853(8) 0.3465(8)
C95 C 0.4135(12) 0.8774(7) 0.2299(7)
C96 C 0.2792(13) 0.5488(7) 0.4329(7)
C97 C 0.2208(13) 0.5491(6) 0.0665(7)
C98 C -0.0223(14) 0.9310(8) -0.0495(8)
C99 C 0.5721(12) 0.4830(7) 0.4060(8)
C100 C 0.4641(13) 0.4175(7) 0.4060(8)
C101 C 0.0184(12) 0.6583(7) 0.1580(8)
C102 C 0.5683(12) 1.0163(7) 0.0934(7)
C103 C 0.4806(12) 0.8428(7) 0.1569(7)
C104 C -0.1283(14) 0.9312(8) 0.0217(8)
C105 C -0.0686(12) 1.0157(7) 0.4058(7)
C106 C 0.4129(12) 0.7303(7) 0.1208(7)
C107 C 0.2199(12) 0.9322(6) 0.0489(6)
C108 C -0.0235(14) 0.4502(8) 0.0680(8)
C109 C 0.0216(12) 0.8661(7) 0.1102(7)
C110 C 0.4008(17) 1.1144(11) 0.1745(11)
C111 C 0.4821(13) 0.6106(8) 0.3657(8)
C112 C 0.2151(12) 0.5676(7) 0.4516(7)
C113 C 0.0944(18) 0.8274(11) -0.1120(11)
C114 C 0.4796(12) 0.6570(7) 0.1578(7)
C115 C 0.4735(12) 0.8668(7) 0.3887(8)
C116 C 0.5219(13) 0.9323(8) 0.5495(8)
C117 C 0.0182(12) 0.6351(7) 0.3905(8)
C118 C -0.0599(14) 0.6527(8) 0.5156(8)
C119 C 0.0606(17) 0.3288(10) 0.1835(10)
C120 C 0.4019(18) 0.3876(11) 0.3270(11)
C121 C 0.0215(13) 0.6100(8) 0.1337(8)
C122 C -0.1245(15) 0.5225(9) 0.0678(9)
C123 C 0.4442(18) 1.1707(11) 0.1838(11)
C124 C 0.2823(13) 0.6111(7) 0.0091(7)
C125 C -0.1275(14) 0.5680(9) 0.4780(9)
C126 C 0.0252(13) 0.8896(8) 0.3665(8)
C127 C 0.3760(18) 1.0909(11) 0.2299(12)
C128 C 0.5215(13) 1.0484(7) 0.0673(7)
O19 O 0.3372(8) 0.8654(5) 0.5080(5)
C129 C 0.2810(13) 0.8890(7) 0.4915(7)
C130 C 0.2044(14) 0.8749(8) 0.5065(8)
C131 C 0.1442(13) 0.9396(7) 0.4517(7)
C132 C 0.1467(13) 0.5608(6) 0.0491(7)
C133 C 0.4672(13) 0.6511(8) -0.0780(8)
C134 C 0.4130(11) 0.7044(7) 0.0727(7)
C135 C 0.5675(13) 0.5935(7) -0.0170(8)
C136 C 0.4774(13) 0.6344(7) 0.1108(8)
C137 C 0.5228(14) 0.5681(8) -0.0490(8)
C138 C 0.6254(15) 0.9787(9) 0.0666(9)
C139 C 0.1373(12) 0.8952(7) 0.4899(7)
C140 C 0.4653(14) 0.5933(8) -0.0829(8)
C141 C 0.3753(18) 0.7302(11) -0.0909(11)
C142 C 0.5627(13) 0.6526(8) -0.0159(8)
C143 C 0.4416(18) 0.6827(11) -0.1712(11)
C144 C -0.1233(14) 0.9769(9) 0.4322(9)
C145 C 0.3808(17) 0.4100(10) 0.2683(11)
C146 C 0.6251(15) 0.5678(9) 0.0224(9)
C147 C 0.6268(15) 0.5230(9) 0.4324(9)
C148 C 0.6256(14) 0.9338(8) 0.4775(9)
C149 C 0.5209(14) 0.4503(8) 0.4336(8)
C150 C -0.0210(14) 0.5684(8) 0.5487(8)
C151 C 0.0358(15) 0.5917(9) 0.5824(9)
C152 C 0.4392(17) 0.3300(11) 0.3168(11)
C153 C 0.0982(18) 0.6727(11) 0.6143(11)
C154 C 0.3561(13) 0.9512(6) 0.4402(7)
C155 C 0.6492(11) 0.8003(6) 0.2497(7)
C156 C 0.6512(9) 0.7628(6) 0.2895(6)
C157 C 0.6515(9) 0.7133(6) 0.2661(7)
C158 C 0.6497(11) 0.7202(8) 0.2119(6)
C159 C 0.6483(12) 0.7740(8) 0.2017(6)
C160 C 0.6483(18) 0.8580(6) 0.2570(12)
C161 C 0.6527(17) 0.7736(10) 0.3466(6)
C162 C 0.6533(17) 0.6622(6) 0.2940(10)
C163 C 0.6493(19) 0.6778(10) 0.1720(9)
C164 C 0.646(2) 0.7988(12) 0.1491(7)
C165 C -0.0211(14) 1.0496(8) 0.4322(8)
C166 C -0.1496(11) 0.7491(8) 0.2978(6)
C167 C -0.1501(9) 0.7893(6) 0.2607(6)
C168 C -0.1495(9) 0.7663(7) 0.2110(6)
C169 C -0.1486(11) 0.7120(6) 0.2175(8)
C170 C -0.1486(12) 0.7013(6) 0.2711(9)
C171 C -0.1499(19) 0.7560(12) 0.3556(6)
C172 C -0.1512(17) 0.8463(6) 0.2720(10)
C173 C -0.1498(17) 0.7948(10) 0.1603(6)
C174 C -0.148(2) 0.6725(9) 0.1748(11)
C175 C -0.148(2) 0.6485(8) 0.2955(13)
C176 C 0.0602(17) 0.6839(11) 0.6696(11)
C177 C 0.1194(17) 0.7677(11) -0.0893(10)
C178 C 0.0579(18) 0.8167(11) -0.1705(12)
C179 C 0.4026(18) 0.6727(11) -0.1141(12)
C180 C 0.0972(17) 0.3861(11) 0.1750(11)
C181 C 0.1189(16) 0.4090(10) 0.2315(10)
C182 C -0.0121(14) 0.6762(8) 0.5449(8)
C183 C 0.4423(17) 0.8160(11) 0.6707(11)
C184 C 0.3815(18) 0.7652(11) 0.5889(11)
C185 C 0.1197(17) 1.0896(10) 0.2672(10)
C186 C 0.1022(19) 1.1130(12) 0.3276(12)
C187 C 0.0553(19) 1.1704(12) 0.3189(12)
C188 C 0.4027(17) 0.8257(10) 0.6129(11)
C189 C 0.1216(19) 0.7300(12) 0.5902(12)
S2 S 0.9285(6) 0.8139(2) 0.4908(3)
O20 O 0.9556(10) 0.8620(5) 0.4777(6)
O21 O 0.9374(14) 0.7769(6) 0.4540(7)
O22 O 0.9487(14) 0.8018(8) 0.5415(10)
F4 F 0.7851(12) 0.8029(7) 0.4847(8)
F5 F 0.8052(15) 0.8724(10) 0.5182(10)
F6 F 0.8051(16) 0.8512(10) 0.4437(10)
C190 C 0.8333(12) 0.8397(11) 0.4875(13)
S3 S 0.9263(5) 0.5092(3) 0.3143(3)
O23 O 0.9449(14) 0.4581(9) 0.3025(9)
O24 O 0.9576(9) 0.5216(5) 0.3640(6)
O25 O 0.9412(11) 0.5476(7) 0.2747(7)
F7 F 0.8055(17) 0.4768(11) 0.3694(11)
F8 F 0.7862(13) 0.5150(8) 0.3006(9)
F9 F 0.8055(18) 0.5583(12) 0.3511(12)
C191 C 0.8300(12) 0.5126(14) 0.3392(12)
S4 S 0.0732(4) 0.0094(3) 0.8137(3)
O26 O 0.0433(9) 0.0230(5) 0.8628(6)
O27 O 0.0588(11) 0.0476(7) 0.7748(7)
O28 O 0.0478(15) -0.0399(10) 0.8015(10)
F10 F 0.1954(17) -0.0206(11) 0.8685(11)
F11 F 0.2151(13) 0.0146(8) 0.8008(8)
C192 C 0.1697(12) 0.0157(12) 0.8394(11)
F12 F 0.1954(16) 0.0607(10) 0.8530(11)
S5 S 0.5734(5) 0.9910(3) 0.3139(3)
O29 O 0.5414(9) 0.9774(5) 0.3637(6)
O30 O 0.5480(14) 1.0415(9) 0.3007(9)
O31 O 0.5567(11) 0.9521(7) 0.2744(7)
C193 C 0.6683(12) 0.9847(12) 0.3411(11)
F13 F 0.7135(12) 0.9854(8) 0.3025(8)
F14 F 0.6992(15) 0.9415(10) 0.3540(10)
F15 F 0.6971(16) 1.0190(10) 0.3709(10)
S6 S 0.9261(6) 0.6860(2) 1.0091(3)
O32 O 0.9546(9) 0.6382(6) 1.0225(6)
O33 O 0.9375(11) 0.7236(7) 1.0470(7)
O34 O 0.9413(14) 0.6990(9) 0.9574(10)
F16 F 0.7874(12) 0.7014(8) 1.0127(7)
F17 F 0.8021(16) 0.6334(11) 0.9780(11)
C194 C 0.824(2) 0.6605(12) 1.0180(13)
F18 F 0.8048(17) 0.6451(10) 1.0635(12)
S7 S 0.5754(5) 0.6860(3) 0.4907(3)
O35 O 0.5433(9) 0.6370(6) 0.4772(6)
O36 O 0.5582(11) 0.7247(7) 0.4515(7)
O37 O 0.5489(15) 0.6988(9) 0.5387(10)
F19 F 0.7123(12) 0.6982(8) 0.4849(8)
F20 F 0.6960(17) 0.6333(11) 0.5175(11)
F21 F 0.6925(16) 0.6470(10) 0.4409(10)
C195 C 0.6614(19) 0.6623(13) 0.4839(13)
O38 O 0.250(2) 0.2515(13) 0.1518(11)
C196 C 0.188(3) 0.171(2) 0.152(2)
C197 C 0.311(3) 0.328(2) 0.151(2)
C198 C 0.217(4) 0.215(3) 0.135(2)
C199 C 0.283(3) 0.286(2) 0.130(2)
O39 O 0.247(2) 0.2513(14) 0.3480(12)
C200 C 0.318(4) 0.172(2) 0.350(2)
C201 C 0.182(3) 0.3313(19) 0.3530(18)
C202 C 0.213(4) 0.287(3) 0.369(2)
C203 C 0.280(4) 0.215(3) 0.362(3)
O40 O 0.248(2) 0.6517(12) 0.7500(13)
C204 C 0.319(3) 0.650(2) 0.671(2)
C205 C 0.185(4) 0.648(3) 0.825(3)
C206 C 0.283(4) 0.631(2) 0.711(3)
C207 C 0.220(4) 0.631(2) 0.786(3)
O41 O 0.747(2) 0.1538(12) 0.2495(13)
C208 C 0.816(3) 0.153(2) 0.326(2)
C209 C 0.686(3) 0.146(2) 0.169(2)
C210 C 0.781(4) 0.133(2) 0.286(3)
C211 C 0.713(3) 0.125(2) 0.213(2)
O42? O 0.750(2) 0.3514(13) 0.7533(13)
C212? C 0.839(5) 0.807(3) 0.532(3)
S8? S 0.5720(5) 0.5086(3) 0.1865(3)
O43? O 0.5420(9) 0.5229(5) 0.1367(6)
O44? O 0.5592(11) 0.5482(7) 0.2251(7)
O45? O 0.5479(15) 0.4583(10) 0.1993(9)
F22? F 0.7178(13) 0.5156(8) 0.1990(8)
F23? F 0.6939(17) 0.5592(11) 0.1465(11)
C213? C 0.6547(19) 0.529(4) 0.178(3)
F24? F 0.6930(19) 0.4790(12) 0.1340(12)
C214? C 0.7529(17) 0.1967(11) 0.8035(11)
C215? C 0.7505(18) 0.1536(11) 0.8468(11)
C216? C 0.7510(18) 0.3064(11) 0.6966(12)
C217? C 0.7517(18) 0.3460(11) 0.6518(11)
C218? C 0.7497(19) 0.3460(11) 0.8471(12)
O46? O 0.752(2) 0.2528(12) 0.8505(12)
C219? C 0.7519(18) 0.3030(11) 0.8029(11)
C220? C 0.7498(19) 0.1936(12) 0.6976(12)
O47? O 0.750(2) 0.1504(12) 0.7510(12)
C221? C 0.7491(18) 0.1529(11) 0.6525(11)
O48? O 0.750(2) 0.2511(13) 0.6490(13)
loop_
_geom_bond_atom_site_label_1
_geom_bond_atom_site_label_2
_geom_bond_site_symmetry_1
_geom_bond_site_symmetry_2
F1 C1 1_555 1_555
F2 C1 1_555 1_555
S1 O1 1_555 1_555
O2 S1 1_555 1_555
O3 S1 1_555 1_555
C1 S1 1_555 1_555
F3 C1 1_555 1_555
Ru1 O6 1_555 1_555
Ru2 O5 1_555 1_555
Ru3 O8 1_555 1_555
Ru4 O15 1_555 1_555
Ru5 O4 1_555 1_555
Ru6 O10 1_555 1_555
Ru7 O12 1_555 1_555
Ru8 O7 1_555 1_555
Fe1 C2 1_555 1_555
Fe2 C11 1_555 1_555
O4 C45 1_555 1_555
O5 C132 1_555 1_555
O6 C154 1_555 1_555
O7 C92 1_555 1_555
C2 C3 1_555 1_555
O8 C124 1_555 1_555
O9 Ru2 1_555 1_555
O10 C86 1_555 1_555
O11 Ru6 1_555 1_555
O12 C25 1_555 1_555
O13 Ru5 1_555 1_555
O14 Ru3 1_555 1_555
O15 C131 1_555 1_555
O16 Ru7 1_555 1_555
O17 Ru8 1_555 1_555
N1 Ru2 1_555 1_555
C3 Fe1 1_555 1_555
N2 Ru8 1_555 1_555
O18 Ru4 1_555 1_555
C4 Fe1 1_555 1_555
C5 C3 1_555 1_555
N3 Ru5 1_555 1_555
C6 C2 1_555 1_555
N4 Ru1 1_555 1_555
C7 Ru2 1_555 1_555
C8 C30 1_555 1_555
C9 C31 1_555 1_555
C10 C17 1_555 1_555
N5 Ru4 1_555 1_555
C11 C15 1_555 1_555
C12 C29 1_555 1_555
C13 C62 1_555 1_555
C14 Ru2 1_555 1_555
C15 Fe2 1_555 1_555
C16 N1 1_555 1_555
C17 C92 1_555 1_555
C18 Ru1 1_555 1_555
C19 Ru2 1_555 1_555
C20 Fe2 1_555 1_555
C21 C78 1_555 1_555
C22 C25 1_555 1_555
C23 C81 1_555 1_555
N6 Ru6 1_555 1_555
C24 Ru5 1_555 1_555
C25 C112 1_555 1_555
C26 C39 1_555 1_555
C27 Ru1 1_555 1_555
C28 C6 1_555 1_555
C29 N6 1_555 1_555
C30 C44 1_555 1_555
C31 C34 1_555 1_555
C32 C45 1_555 1_555
C33 C4 1_555 1_555
C34 N8 1_555 1_555
C35 C49 1_555 1_555
C36 Ru4 1_555 1_555
C37 Ru8 1_555 1_555
C38 C6 1_555 1_555
C39 C154 1_555 1_555
C40 C51 1_555 1_555
C41 Ru5 1_555 1_555
C42 C11 1_555 1_555
C43 Ru6 1_555 1_555
C44 O11 1_555 1_555
C45 C81 1_555 1_555
C46 Fe2 1_555 1_555
C47 C12 1_555 1_555
C48 Ru7 1_555 1_555
C49 Fe1 1_555 1_555
C50 Ru1 1_555 1_555
C51 O14 1_555 1_555
C52 Ru6 1_555 1_555
C53 C20 1_555 1_555
C54 Ru8 1_555 1_555
C55 C22 1_555 1_555
C56 C9 1_555 1_555
C57 N2 1_555 1_555
N7 Ru3 1_555 1_555
C58 Ru6 1_555 1_555
C59 N4 1_555 1_555
C60 C51 1_555 1_555
C61 Ru1 1_555 1_555
C62 C132 1_555 1_555
C63 Ru5 1_555 1_555
N8 Ru7 1_555 1_555
C64 O13 1_555 1_555
C65 Ru6 1_555 1_555
C66 O16 1_555 1_555
C67 C42 1_555 1_555
C68 C5 1_555 1_555
C69 C47 1_555 1_555
C70 N3 1_555 1_555
C71 O9 1_555 1_555
C72 O17 1_555 1_555
C73 C16 1_555 1_555
C74 N5 1_555 1_555
C75 C5 1_555 1_555
C76 Ru6 1_555 1_555
C77 Ru4 1_555 1_555
C78 C129 1_555 1_555
C79 Ru7 1_555 1_555
C80 C40 1_555 1_555
C82 Ru5 1_555 1_555
C83 Ru2 1_555 1_555
C84 Ru2 1_555 1_555
C85 Ru1 1_555 1_555
C86 C23 1_555 1_555
C87 N3 1_555 1_555
C88 C42 1_555 1_555
C89 Ru3 1_555 1_555
C90 Ru4 1_555 1_555
C91 Ru4 1_555 1_555
C92 C96 1_555 1_555
C93 O18 1_555 1_555
C94 Ru8 1_555 1_555
C95 C33 1_555 1_555
C96 C72 1_555 1_555
C97 C60 1_555 1_555
C98 Ru6 1_555 1_555
C99 Ru8 1_555 1_555
C100 Ru8 1_555 1_555
C101 C53 1_555 1_555
C102 Ru5 1_555 1_555
C103 C33 1_555 1_555
C104 C52 1_555 1_555
C105 Ru4 1_555 1_555
C106 C35 1_555 1_555
C107 C32 1_555 1_555
C108 Ru2 1_555 1_555
C109 N6 1_555 1_555
C110 C24 1_555 1_555
C111 N2 1_555 1_555
C112 C66 1_555 1_555
C113 C43 1_555 1_555
C114 C35 1_555 1_555
C115 N4 1_555 1_555
C116 Ru1 1_555 1_555
C117 C56 1_555 1_555
C118 Ru7 1_555 1_555
C119 C180 1_555 1_555
C120 C54 1_555 1_555
C121 N1 1_555 1_555
C122 C7 1_555 1_555
C123 C110 1_555 1_555
C124 C13 1_555 1_555
C125 C79 1_555 1_555
C126 N5 1_555 1_555
C127 C110 1_555 1_555
C128 Ru5 1_555 1_555
O19 Ru1 1_555 1_555
C129 O19 1_555 1_555
C130 C129 1_555 1_555
C131 C21 1_555 1_555
C132 C97 1_555 1_555
C133 Ru3 1_555 1_555
C134 N7 1_555 1_555
C135 Ru3 1_555 1_555
C136 N7 1_555 1_555
C137 Ru3 1_555 1_555
C138 C102 1_555 1_555
C139 C130 1_555 1_555
C140 Ru3 1_555 1_555
C141 C179 1_555 1_555
C142 Ru3 1_555 1_555
C143 C179 1_555 1_555
C144 C105 1_555 1_555
C145 C120 1_555 1_555
C146 C135 1_555 1_555
C147 C99 1_555 1_555
C148 C85 1_555 1_555
C149 Ru8 1_555 1_555
C150 Ru7 1_555 1_555
C151 Ru7 1_555 1_555
C152 C120 1_555 1_555
C153 C48 1_555 1_555
C154 C78 1_555 1_555
C155 Fe1 1_555 1_555
C156 Fe1 1_555 1_555
C157 Fe1 1_555 1_555
C158 Fe1 1_555 1_555
C159 Fe1 1_555 1_555
C160 C155 1_555 1_555
C161 C156 1_555 1_555
C162 C157 1_555 1_555
C163 C158 1_555 1_555
C164 C159 1_555 1_555
C165 Ru4 1_555 1_555
C166 Fe2 1_555 1_555
C167 Fe2 1_555 1_555
C168 Fe2 1_555 1_555
C169 Fe2 1_555 1_555
C170 Fe2 1_555 1_555
C171 C166 1_555 1_555
C172 C167 1_555 1_555
C173 C168 1_555 1_555
C174 C169 1_555 1_555
C175 C170 1_555 1_555
C176 C153 1_555 1_555
C177 C113 1_555 1_555
C178 C113 1_555 1_555
C179 C133 1_555 1_555
C180 C83 1_555 1_555
C181 C180 1_555 1_555
C182 Ru7 1_555 1_555
C183 C188 1_555 1_555
C184 C188 1_555 1_555
C185 C186 1_555 1_555
C186 C91 1_555 1_555
C187 C186 1_555 1_555
C188 C18 1_555 1_555
C189 C153 1_555 1_555
S2 O20 1_555 1_555
O21 S2 1_555 1_555
O22 S2 1_555 1_555
F4 C190 1_555 1_555
F5 C190 1_555 1_555
F6 C190 1_555 1_555
C190 S2 1_555 1_555
S3 O23 1_555 1_555
O24 S3 1_555 1_555
O25 S3 1_555 1_555
F7 C191 1_555 1_555
F8 C191 1_555 1_555
F9 C191 1_555 1_555
C191 S3 1_555 1_555
S4 O26 1_555 1_555
O27 S4 1_555 1_555
O28 S4 1_555 1_555
F10 C192 1_555 1_555
F11 C192 1_555 1_555
C192 S4 1_555 1_555
F12 C192 1_555 1_555
S5 O29 1_555 1_555
O30 S5 1_555 1_555
O31 S5 1_555 1_555
C193 S5 1_555 1_555
F13 C193 1_555 1_555
F14 C193 1_555 1_555
F15 C193 1_555 1_555
S6 O32 1_555 1_555
O33 S6 1_555 1_555
O34 S6 1_555 1_555
F16 C194 1_555 1_555
F17 C194 1_555 1_555
C194 S6 1_555 1_555
F18 C194 1_555 1_555
S7 O35 1_555 1_555
O36 S7 1_555 1_555
O37 S7 1_555 1_555
F19 C195 1_555 1_555
F20 C195 1_555 1_555
F21 C195 1_555 1_555
C195 S7 1_555 1_555
O38 C198 1_555 1_555
C196 C198 1_555 1_555
C197 C199 1_555 1_555
C199 O38 1_555 1_555
O39 C202 1_555 1_555
C200 C203 1_555 1_555
C201 C202 1_555 1_555
C203 O39 1_555 1_555
O40 C206 1_555 1_555
C204 C206 1_555 1_555
C205 C207 1_555 1_555
C207 O40 1_555 1_555
O41 C210 1_555 1_555
C208 C210 1_555 1_555
C209 C211 1_555 1_555
C211 O41 1_555 1_555
C2 C49 1_555 1_555
C3 C4 1_555 1_555
C4 C49 1_555 1_555
C7 C84 1_555 1_555
C7 C108 1_555 1_555
C8 C64 1_555 1_555
C9 C46 1_555 1_555
C10 C66 1_555 1_555
C11 C46 1_555 1_555
C14 C83 1_555 1_555
C14 C84 1_555 1_555
C15 C20 1_555 1_555
C15 C47 1_555 1_555
C18 C27 1_555 1_555
C18 C61 1_555 1_555
C19 C83 1_555 1_555
C19 C108 1_555 1_555
C20 C46 1_555 1_555
C21 C93 1_555 1_555
C24 C41 1_555 1_555
C24 C82 1_555 1_555
C26 C93 1_555 1_555
C27 C50 1_555 1_555
C28 C111 1_555 1_555
C32 C64 1_555 1_555
C36 C90 1_555 1_555
C36 C105 1_555 1_555
C37 C54 1_555 1_555
C37 C94 1_555 1_555
C38 C57 1_555 1_555
C41 C128 1_555 1_555
C43 C58 1_555 1_555
C43 C76 1_555 1_555
C44 C107 1_555 1_555
C48 C151 1_555 1_555
C48 C182 1_555 1_555
C50 C85 1_555 1_555
C52 C65 1_555 1_555
C52 C98 1_555 1_555
C53 C73 1_555 1_555
C54 C100 1_555 1_555
C55 C72 1_555 1_555
C58 C65 1_555 1_555
C59 C75 1_555 1_555
C60 C124 1_555 1_555
C61 C116 1_555 1_555
C63 C82 1_555 1_555
C63 C102 1_555 1_555
N8 C117 1_555 1_555
C67 C74 1_555 1_555
C68 C115 1_555 1_555
C69 C109 1_555 1_555
C70 C95 1_555 1_555
C71 C80 1_555 1_555
C71 C97 1_555 1_555
C76 C98 1_555 1_555
C77 C91 1_555 1_555
C77 C165 1_555 1_555
C79 C118 1_555 1_555
C79 C150 1_555 1_555
C85 C116 1_555 1_555
C86 C107 1_555 1_555
C87 C103 1_555 1_555
C88 C126 1_555 1_555
C89 C133 1_555 1_555
C89 C142 1_555 1_555
C90 C91 1_555 1_555
C94 C99 1_555 1_555
C96 C112 1_555 1_555
C99 C149 1_555 1_555
C100 C149 1_555 1_555
C101 C121 1_555 1_555
C102 C128 1_555 1_555
C105 C165 1_555 1_555
C106 C134 1_555 1_555
C114 C136 1_555 1_555
C118 C182 1_555 1_555
C131 C139 1_555 1_555
C133 C140 1_555 1_555
C135 C137 1_555 1_555
C135 C142 1_555 1_555
C137 C140 1_555 1_555
C150 C151 1_555 1_555
C155 C156 1_555 1_555
C155 C159 1_555 1_555
C156 C157 1_555 1_555
C157 C158 1_555 1_555
C158 C159 1_555 1_555
C166 C167 1_555 1_555
C166 C170 1_555 1_555
C167 C168 1_555 1_555
C168 C169 1_555 1_555
C169 C170 1_555 1_555

#END
