# generated using pymatgen
data_Co2H153Ru8C181S11N8Cl20(O28F15)2
_symmetry_space_group_name_H-M   'P 1'
_cell_length_a   21.42270000
_cell_length_b   29.92720000
_cell_length_c   33.87300000
_cell_angle_alpha   93.14970000
_cell_angle_beta   90.00000000
_cell_angle_gamma   90.00000000
_symmetry_Int_Tables_number   1
_chemical_formula_structural   Co2H153Ru8C181S11N8Cl20(O28F15)2
_chemical_formula_sum   'Co8 H612 Ru32 C724 S44 N32 Cl80 O224 F120'
_cell_volume   21683.90053305
_cell_formula_units_Z   4
loop_
 _symmetry_equiv_pos_site_id
 _symmetry_equiv_pos_as_xyz
  1  'x, y, z'
loop_
 _atom_site_type_symbol
 _atom_site_label
 _atom_site_symmetry_multiplicity
 _atom_site_fract_x
 _atom_site_fract_y
 _atom_site_fract_z
 _atom_site_occupancy
  Co  Co1  1  0.154880  0.840950  0.748190  1
  Co  Co2  1  0.654880  0.159050  0.751810  1
  Co  Co3  1  0.845120  0.159050  0.251810  1
  Co  Co4  1  0.345120  0.840950  0.248190  1
  Co  Co5  1  0.919660  0.654850  0.701360  1
  Co  Co6  1  0.419660  0.345150  0.798640  1
  Co  Co7  1  0.080340  0.345150  0.298640  1
  Co  Co8  1  0.580340  0.654850  0.201360  1
  H  H9  1  0.234500  0.870300  0.489600  1
  H  H10  1  0.734500  0.129700  0.010400  1
  H  H11  1  0.765500  0.129700  0.510400  1
  H  H12  1  0.265500  0.870300  0.989600  1
  H  H13  1  0.055700  0.938100  0.546200  1
  H  H14  1  0.555700  0.061900  0.953800  1
  H  H15  1  0.944300  0.061900  0.453800  1
  H  H16  1  0.444300  0.938100  0.046200  1
  H  H17  1  0.146400  0.933500  0.583200  1
  H  H18  1  0.646400  0.066500  0.916800  1
  H  H19  1  0.853600  0.066500  0.416800  1
  H  H20  1  0.353600  0.933500  0.083200  1
  H  H21  1  0.149000  0.880900  0.451900  1
  H  H22  1  0.649000  0.119100  0.048100  1
  H  H23  1  0.851000  0.119100  0.548100  1
  H  H24  1  0.351000  0.880900  0.951900  1
  H  H25  1  0.972500  0.606700  0.512000  1
  H  H26  1  0.472500  0.393300  0.988000  1
  H  H27  1  0.027500  0.393300  0.488000  1
  H  H28  1  0.527500  0.606700  0.012000  1
  H  H29  1  0.074800  0.593700  0.507900  1
  H  H30  1  0.574800  0.406300  0.992100  1
  H  H31  1  0.925200  0.406300  0.492100  1
  H  H32  1  0.425200  0.593700  0.007900  1
  H  H33  1  0.088300  0.674400  0.413400  1
  H  H34  1  0.588300  0.325600  0.086600  1
  H  H35  1  0.911700  0.325600  0.586600  1
  H  H36  1  0.411700  0.674400  0.913400  1
  H  H37  1  0.881900  0.649200  0.496800  1
  H  H38  1  0.381900  0.350800  0.003200  1
  H  H39  1  0.118100  0.350800  0.503200  1
  H  H40  1  0.618100  0.649200  0.996800  1
  H  H41  1  0.980500  0.687800  0.420700  1
  H  H42  1  0.480500  0.312200  0.079300  1
  H  H43  1  0.019500  0.312200  0.579300  1
  H  H44  1  0.519500  0.687800  0.920700  1
  H  H45  1  0.188000  0.653800  0.459500  1
  H  H46  1  0.688000  0.346200  0.040500  1
  H  H47  1  0.812000  0.346200  0.540500  1
  H  H48  1  0.312000  0.653800  0.959500  1
  H  H49  1  0.179700  0.600800  0.452300  1
  H  H50  1  0.679700  0.399200  0.047700  1
  H  H51  1  0.820300  0.399200  0.547700  1
  H  H52  1  0.320300  0.600800  0.952300  1
  H  H53  1  0.177000  0.623300  0.496200  1
  H  H54  1  0.677000  0.376700  0.003800  1
  H  H55  1  0.823000  0.376700  0.503800  1
  H  H56  1  0.323000  0.623300  0.996200  1
  H  H57  1  0.198000  0.795600  0.657300  1
  H  H58  1  0.698000  0.204400  0.842700  1
  H  H59  1  0.802000  0.204400  0.342700  1
  H  H60  1  0.302000  0.795600  0.157300  1
  H  H61  1  0.199300  0.813900  0.592500  1
  H  H62  1  0.699300  0.186100  0.907500  1
  H  H63  1  0.800700  0.186100  0.407500  1
  H  H64  1  0.300700  0.813900  0.092500  1
  H  H65  1  0.013800  0.826900  0.659900  1
  H  H66  1  0.513800  0.173100  0.840100  1
  H  H67  1  0.986200  0.173100  0.340100  1
  H  H68  1  0.486200  0.826900  0.159900  1
  H  H69  1  0.021500  0.846900  0.595800  1
  H  H70  1  0.521500  0.153100  0.904200  1
  H  H71  1  0.978500  0.153100  0.404200  1
  H  H72  1  0.478500  0.846900  0.095800  1
  H  H73  1  0.933000  0.704400  0.551500  1
  H  H74  1  0.433000  0.295600  0.948500  1
  H  H75  1  0.067000  0.295600  0.448500  1
  H  H76  1  0.567000  0.704400  0.051500  1
  H  H77  1  0.908000  0.706600  0.616600  1
  H  H78  1  0.408000  0.293400  0.883400  1
  H  H79  1  0.092000  0.293400  0.383400  1
  H  H80  1  0.592000  0.706600  0.116600  1
  H  H81  1  0.089900  0.688500  0.642400  1
  H  H82  1  0.589900  0.311500  0.857600  1
  H  H83  1  0.910100  0.311500  0.357600  1
  H  H84  1  0.410100  0.688500  0.142400  1
  H  H85  1  0.110700  0.683700  0.575600  1
  H  H86  1  0.610700  0.316300  0.924400  1
  H  H87  1  0.889300  0.316300  0.424400  1
  H  H88  1  0.389300  0.683700  0.075600  1
  H  H89  1  0.803000  0.057500  0.740900  1
  H  H90  1  0.303000  0.942500  0.759100  1
  H  H91  1  0.197000  0.942500  0.259100  1
  H  H92  1  0.697000  0.057500  0.240900  1
  H  H93  1  0.755600  0.029800  0.794800  1
  H  H94  1  0.255600  0.970200  0.705200  1
  H  H95  1  0.244400  0.970200  0.205200  1
  H  H96  1  0.744400  0.029800  0.294800  1
  H  H97  1  0.916300  0.988000  0.838900  1
  H  H98  1  0.416300  0.012000  0.661100  1
  H  H99  1  0.083700  0.012000  0.161100  1
  H  H100  1  0.583700  0.988000  0.338900  1
  H  H101  1  0.971300  0.015900  0.783300  1
  H  H102  1  0.471300  0.984100  0.716700  1
  H  H103  1  0.028700  0.984100  0.216700  1
  H  H104  1  0.528700  0.015900  0.283300  1
  H  H105  1  0.622900  0.916800  0.647600  1
  H  H106  1  0.122900  0.083200  0.852400  1
  H  H107  1  0.377100  0.083200  0.352400  1
  H  H108  1  0.877100  0.916800  0.147600  1
  H  H109  1  0.681500  0.766300  0.646800  1
  H  H110  1  0.181500  0.233700  0.853200  1
  H  H111  1  0.318500  0.233700  0.353200  1
  H  H112  1  0.818500  0.766300  0.146800  1
  H  H113  1  0.587100  0.871000  0.698000  1
  H  H114  1  0.087100  0.129000  0.802000  1
  H  H115  1  0.412900  0.129000  0.302000  1
  H  H116  1  0.912900  0.871000  0.198000  1
  H  H117  1  0.718400  0.808900  0.597300  1
  H  H118  1  0.218400  0.191100  0.902700  1
  H  H119  1  0.281600  0.191100  0.402700  1
  H  H120  1  0.781600  0.808900  0.097300  1
  H  H121  1  0.062900  0.857500  0.826200  1
  H  H122  1  0.562900  0.142500  0.673800  1
  H  H123  1  0.937100  0.142500  0.173800  1
  H  H124  1  0.437100  0.857500  0.326200  1
  H  H125  1  0.058300  0.853100  0.893700  1
  H  H126  1  0.558300  0.146900  0.606300  1
  H  H127  1  0.941700  0.146900  0.106300  1
  H  H128  1  0.441700  0.853100  0.393700  1
  H  H129  1  0.115900  0.727600  0.816400  1
  H  H130  1  0.615900  0.272400  0.683600  1
  H  H131  1  0.884100  0.272400  0.183600  1
  H  H132  1  0.384100  0.727600  0.316400  1
  H  H133  1  0.111100  0.726300  0.884500  1
  H  H134  1  0.611100  0.273700  0.615500  1
  H  H135  1  0.888900  0.273700  0.115500  1
  H  H136  1  0.388900  0.726300  0.384500  1
  H  H137  1  0.946400  0.637500  0.857600  1
  H  H138  1  0.446400  0.362500  0.642400  1
  H  H139  1  0.053600  0.362500  0.142400  1
  H  H140  1  0.553600  0.637500  0.357600  1
  H  H141  1  0.884600  0.760800  0.852800  1
  H  H142  1  0.384600  0.239200  0.647200  1
  H  H143  1  0.115400  0.239200  0.147200  1
  H  H144  1  0.615400  0.760800  0.352800  1
  H  H145  1  0.973600  0.634900  0.792400  1
  H  H146  1  0.473600  0.365100  0.707600  1
  H  H147  1  0.026400  0.365100  0.207600  1
  H  H148  1  0.526400  0.634900  0.292400  1
  H  H149  1  0.915200  0.763700  0.788900  1
  H  H150  1  0.415200  0.236300  0.711100  1
  H  H151  1  0.084800  0.236300  0.211100  1
  H  H152  1  0.584800  0.763700  0.288900  1
  H  H153  1  0.888600  0.885100  0.794800  1
  H  H154  1  0.388600  0.114900  0.705200  1
  H  H155  1  0.111400  0.114900  0.205200  1
  H  H156  1  0.611400  0.885100  0.294800  1
  H  H157  1  0.042700  0.897100  0.700900  1
  H  H158  1  0.542700  0.102900  0.799100  1
  H  H159  1  0.957300  0.102900  0.299100  1
  H  H160  1  0.457300  0.897100  0.200900  1
  H  H161  1  0.965400  0.830500  0.789400  1
  H  H162  1  0.465400  0.169500  0.710600  1
  H  H163  1  0.034600  0.169500  0.210600  1
  H  H164  1  0.534600  0.830500  0.289400  1
  H  H165  1  0.965700  0.949900  0.709800  1
  H  H166  1  0.465700  0.050100  0.790200  1
  H  H167  1  0.034300  0.050100  0.290200  1
  H  H168  1  0.534300  0.949900  0.209800  1
  H  H169  1  0.830300  0.738100  0.745400  1
  H  H170  1  0.330300  0.261900  0.754600  1
  H  H171  1  0.169700  0.261900  0.254600  1
  H  H172  1  0.669700  0.738100  0.245400  1
  H  H173  1  0.752800  0.789200  0.733400  1
  H  H174  1  0.252800  0.210800  0.766600  1
  H  H175  1  0.247200  0.210800  0.266600  1
  H  H176  1  0.747200  0.789200  0.233400  1
  H  H177  1  0.847500  0.833600  0.643600  1
  H  H178  1  0.347500  0.166400  0.856400  1
  H  H179  1  0.152500  0.166400  0.356400  1
  H  H180  1  0.652500  0.833600  0.143600  1
  H  H181  1  0.926700  0.783000  0.652900  1
  H  H182  1  0.426700  0.217000  0.847100  1
  H  H183  1  0.073300  0.217000  0.347100  1
  H  H184  1  0.573300  0.783000  0.152900  1
  H  H185  1  0.479700  0.596300  0.698800  1
  H  H186  1  0.979700  0.403700  0.801200  1
  H  H187  1  0.520300  0.403700  0.301200  1
  H  H188  1  0.020300  0.596300  0.198800  1
  H  H189  1  0.411000  0.716900  0.669700  1
  H  H190  1  0.911000  0.283100  0.830300  1
  H  H191  1  0.589000  0.283100  0.330300  1
  H  H192  1  0.089000  0.716900  0.169700  1
  H  H193  1  0.411200  0.740500  0.735300  1
  H  H194  1  0.911200  0.259500  0.764700  1
  H  H195  1  0.588800  0.259500  0.264700  1
  H  H196  1  0.088800  0.740500  0.235300  1
  H  H197  1  0.433700  0.602700  0.633300  1
  H  H198  1  0.933700  0.397300  0.866700  1
  H  H199  1  0.566300  0.397300  0.366700  1
  H  H200  1  0.066300  0.602700  0.133300  1
  H  H201  1  0.483900  0.706400  0.811300  1
  H  H202  1  0.983900  0.293600  0.688700  1
  H  H203  1  0.516100  0.293600  0.188700  1
  H  H204  1  0.016100  0.706400  0.311300  1
  H  H205  1  0.429400  0.670600  0.816300  1
  H  H206  1  0.929400  0.329400  0.683700  1
  H  H207  1  0.570600  0.329400  0.183700  1
  H  H208  1  0.070600  0.670600  0.316300  1
  H  H209  1  0.412500  0.721200  0.807500  1
  H  H210  1  0.912500  0.278800  0.692500  1
  H  H211  1  0.587500  0.278800  0.192500  1
  H  H212  1  0.087500  0.721200  0.307500  1
  H  H213  1  0.482600  0.619800  0.765100  1
  H  H214  1  0.982600  0.380200  0.734900  1
  H  H215  1  0.517400  0.380200  0.234900  1
  H  H216  1  0.017400  0.619800  0.265100  1
  H  H217  1  0.092100  0.476900  0.699400  1
  H  H218  1  0.592100  0.523100  0.800600  1
  H  H219  1  0.907900  0.523100  0.300600  1
  H  H220  1  0.407900  0.476900  0.199400  1
  H  H221  1  0.082100  0.490800  0.765600  1
  H  H222  1  0.582100  0.509200  0.734400  1
  H  H223  1  0.917900  0.509200  0.234400  1
  H  H224  1  0.417900  0.490800  0.265600  1
  H  H225  1  0.271100  0.438600  0.713900  1
  H  H226  1  0.771100  0.561400  0.786100  1
  H  H227  1  0.728900  0.561400  0.286100  1
  H  H228  1  0.228900  0.438600  0.213900  1
  H  H229  1  0.149600  0.602200  0.783900  1
  H  H230  1  0.649600  0.397800  0.716100  1
  H  H231  1  0.850400  0.397800  0.216100  1
  H  H232  1  0.350400  0.602200  0.283900  1
  H  H233  1  0.129500  0.560500  0.671700  1
  H  H234  1  0.629500  0.439500  0.828300  1
  H  H235  1  0.870500  0.439500  0.328300  1
  H  H236  1  0.370500  0.560500  0.171700  1
  H  H237  1  0.078800  0.659000  0.776500  1
  H  H238  1  0.578800  0.341000  0.723500  1
  H  H239  1  0.921200  0.341000  0.223500  1
  H  H240  1  0.421200  0.659000  0.276500  1
  H  H241  1  0.055800  0.614700  0.662500  1
  H  H242  1  0.555800  0.385300  0.837500  1
  H  H243  1  0.944200  0.385300  0.337500  1
  H  H244  1  0.444200  0.614700  0.162500  1
  H  H245  1  0.261200  0.678400  0.672000  1
  H  H246  1  0.761200  0.321600  0.828000  1
  H  H247  1  0.738800  0.321600  0.328000  1
  H  H248  1  0.238800  0.678400  0.172000  1
  H  H249  1  0.172100  0.722000  0.677600  1
  H  H250  1  0.672100  0.278000  0.822400  1
  H  H251  1  0.827900  0.278000  0.322400  1
  H  H252  1  0.327900  0.722000  0.177600  1
  H  H253  1  0.215900  0.750400  0.792400  1
  H  H254  1  0.715900  0.249600  0.707600  1
  H  H255  1  0.784100  0.249600  0.207600  1
  H  H256  1  0.284100  0.750400  0.292400  1
  H  H257  1  0.297100  0.700700  0.785000  1
  H  H258  1  0.797100  0.299300  0.715000  1
  H  H259  1  0.702900  0.299300  0.215000  1
  H  H260  1  0.202900  0.700700  0.285000  1
  H  H261  1  0.212800  0.887000  0.693600  1
  H  H262  1  0.712800  0.113000  0.806400  1
  H  H263  1  0.787200  0.113000  0.306400  1
  H  H264  1  0.287200  0.887000  0.193600  1
  H  H265  1  0.278000  0.836000  0.730400  1
  H  H266  1  0.778000  0.164000  0.769600  1
  H  H267  1  0.722000  0.164000  0.269600  1
  H  H268  1  0.222000  0.836000  0.230400  1
  H  H269  1  0.246900  0.845500  0.802600  1
  H  H270  1  0.746900  0.154500  0.697400  1
  H  H271  1  0.753100  0.154500  0.197400  1
  H  H272  1  0.253100  0.845500  0.302600  1
  H  H273  1  0.143000  0.928200  0.739500  1
  H  H274  1  0.643000  0.071800  0.760500  1
  H  H275  1  0.857000  0.071800  0.260500  1
  H  H276  1  0.357000  0.928200  0.239500  1
  H  H277  1  0.859100  0.627500  0.633500  1
  H  H278  1  0.359100  0.372500  0.866500  1
  H  H279  1  0.140900  0.372500  0.366500  1
  H  H280  1  0.640900  0.627500  0.133500  1
  H  H281  1  0.795600  0.660000  0.689300  1
  H  H282  1  0.295600  0.340000  0.810700  1
  H  H283  1  0.204400  0.340000  0.310700  1
  H  H284  1  0.704400  0.660000  0.189300  1
  H  H285  1  0.920200  0.575500  0.734600  1
  H  H286  1  0.420200  0.424500  0.765400  1
  H  H287  1  0.079800  0.424500  0.265400  1
  H  H288  1  0.579800  0.575500  0.234600  1
  H  H289  1  0.830900  0.628000  0.751100  1
  H  H290  1  0.330900  0.372000  0.748900  1
  H  H291  1  0.169100  0.372000  0.248900  1
  H  H292  1  0.669100  0.628000  0.251100  1
  H  H293  1  0.936900  0.576200  0.660800  1
  H  H294  1  0.436900  0.423800  0.839200  1
  H  H295  1  0.063100  0.423800  0.339200  1
  H  H296  1  0.563100  0.576200  0.160800  1
  H  H297  1  0.164500  0.904100  0.807900  1
  H  H298  1  0.664500  0.095900  0.692100  1
  H  H299  1  0.835500  0.095900  0.192100  1
  H  H300  1  0.335500  0.904100  0.307900  1
  H  H301  1  0.210500  0.807500  0.940500  1
  H  H302  1  0.710500  0.192500  0.559500  1
  H  H303  1  0.789500  0.192500  0.059500  1
  H  H304  1  0.289500  0.807500  0.440500  1
  H  H305  1  0.153600  0.870100  0.944400  1
  H  H306  1  0.653600  0.129900  0.555600  1
  H  H307  1  0.846400  0.129900  0.055600  1
  H  H308  1  0.346400  0.870100  0.444400  1
  H  H309  1  0.109900  0.764100  0.038000  1
  H  H310  1  0.609900  0.235900  0.462000  1
  H  H311  1  0.890100  0.235900  0.962000  1
  H  H312  1  0.390100  0.764100  0.538000  1
  H  H313  1  0.845900  0.652900  0.990400  1
  H  H314  1  0.345900  0.347100  0.509600  1
  H  H315  1  0.154100  0.347100  0.009600  1
  H  H316  1  0.654100  0.652900  0.490400  1
  H  H317  1  0.798100  0.721500  0.988400  1
  H  H318  1  0.298100  0.278500  0.511600  1
  H  H319  1  0.201900  0.278500  0.011600  1
  H  H320  1  0.701900  0.721500  0.488400  1
  H  H321  1  0.803300  0.626000  0.874500  1
  H  H322  1  0.303300  0.374000  0.625500  1
  H  H323  1  0.196700  0.374000  0.125500  1
  H  H324  1  0.696700  0.626000  0.374500  1
  H  H325  1  0.758100  0.694800  0.873100  1
  H  H326  1  0.258100  0.305200  0.626900  1
  H  H327  1  0.241900  0.305200  0.126900  1
  H  H328  1  0.741900  0.694800  0.373100  1
  H  H329  1  0.215200  0.726600  0.951600  1
  H  H330  1  0.715200  0.273400  0.548400  1
  H  H331  1  0.784800  0.273400  0.048400  1
  H  H332  1  0.284800  0.726600  0.451600  1
  H  H333  1  0.181100  0.706500  0.988700  1
  H  H334  1  0.681100  0.293500  0.511300  1
  H  H335  1  0.818900  0.293500  0.011300  1
  H  H336  1  0.318900  0.706500  0.488700  1
  H  H337  1  0.245000  0.733800  0.994800  1
  H  H338  1  0.745000  0.266200  0.505200  1
  H  H339  1  0.755000  0.266200  0.005200  1
  H  H340  1  0.255000  0.733800  0.494800  1
  H  H341  1  0.058100  0.907800  0.959000  1
  H  H342  1  0.558100  0.092200  0.541000  1
  H  H343  1  0.941900  0.092200  0.041000  1
  H  H344  1  0.441900  0.907800  0.459000  1
  H  H345  1  0.737700  0.883100  0.575300  1
  H  H346  1  0.237700  0.116900  0.924700  1
  H  H347  1  0.262300  0.116900  0.424700  1
  H  H348  1  0.762300  0.883100  0.075300  1
  H  H349  1  0.708400  0.926500  0.597900  1
  H  H350  1  0.208400  0.073500  0.902100  1
  H  H351  1  0.291600  0.073500  0.402100  1
  H  H352  1  0.791600  0.926500  0.097900  1
  H  H353  1  0.668600  0.899000  0.564800  1
  H  H354  1  0.168600  0.101000  0.935200  1
  H  H355  1  0.331400  0.101000  0.435200  1
  H  H356  1  0.831400  0.899000  0.064800  1
  H  H357  1  0.648200  0.761800  0.716600  1
  H  H358  1  0.148200  0.238200  0.783400  1
  H  H359  1  0.351800  0.238200  0.283400  1
  H  H360  1  0.851800  0.761800  0.216600  1
  H  H361  1  0.054300  0.828600  0.035400  1
  H  H362  1  0.554300  0.171400  0.464600  1
  H  H363  1  0.945700  0.171400  0.964600  1
  H  H364  1  0.445700  0.828600  0.535400  1
  H  H365  1  0.878900  0.578200  0.905300  1
  H  H366  1  0.378900  0.421800  0.594700  1
  H  H367  1  0.121100  0.421800  0.094700  1
  H  H368  1  0.621100  0.578200  0.405300  1
  H  H369  1  0.949400  0.601400  0.951600  1
  H  H370  1  0.449400  0.398600  0.548400  1
  H  H371  1  0.050600  0.398600  0.048400  1
  H  H372  1  0.550600  0.601400  0.451600  1
  H  H373  1  0.928200  0.551700  0.960500  1
  H  H374  1  0.428200  0.448300  0.539500  1
  H  H375  1  0.071800  0.448300  0.039500  1
  H  H376  1  0.571800  0.551700  0.460500  1
  H  H377  1  0.901200  0.593500  0.986600  1
  H  H378  1  0.401200  0.406500  0.513400  1
  H  H379  1  0.098800  0.406500  0.013400  1
  H  H380  1  0.598800  0.593500  0.486600  1
  H  H381  1  0.129800  0.500200  0.828400  1
  H  H382  1  0.629800  0.499800  0.671600  1
  H  H383  1  0.870200  0.499800  0.171600  1
  H  H384  1  0.370200  0.500200  0.328400  1
  H  H385  1  0.768800  0.784300  0.944900  1
  H  H386  1  0.268800  0.215700  0.555100  1
  H  H387  1  0.231200  0.215700  0.055100  1
  H  H388  1  0.731200  0.784300  0.444900  1
  H  H389  1  0.704400  0.763400  0.928600  1
  H  H390  1  0.204400  0.236600  0.571400  1
  H  H391  1  0.295600  0.236600  0.071400  1
  H  H392  1  0.795600  0.763400  0.428600  1
  H  H393  1  0.759300  0.774000  0.898500  1
  H  H394  1  0.259300  0.226000  0.601500  1
  H  H395  1  0.240700  0.226000  0.101500  1
  H  H396  1  0.740700  0.774000  0.398500  1
  H  H397  1  0.799900  0.555600  0.970400  1
  H  H398  1  0.299900  0.444400  0.529600  1
  H  H399  1  0.200100  0.444400  0.029600  1
  H  H400  1  0.700100  0.555600  0.470400  1
  H  H401  1  0.830100  0.520600  0.938400  1
  H  H402  1  0.330100  0.479400  0.561600  1
  H  H403  1  0.169900  0.479400  0.061600  1
  H  H404  1  0.669900  0.520600  0.438400  1
  H  H405  1  0.776100  0.553700  0.925500  1
  H  H406  1  0.276100  0.446300  0.574500  1
  H  H407  1  0.223900  0.446300  0.074500  1
  H  H408  1  0.723900  0.553700  0.425500  1
  H  H409  1  0.819400  0.953000  0.858200  1
  H  H410  1  0.319400  0.047000  0.641800  1
  H  H411  1  0.180600  0.047000  0.141800  1
  H  H412  1  0.680600  0.953000  0.358200  1
  H  H413  1  0.755700  0.976600  0.846200  1
  H  H414  1  0.255700  0.023400  0.653800  1
  H  H415  1  0.244300  0.023400  0.153800  1
  H  H416  1  0.744300  0.976600  0.346200  1
  H  H417  1  0.800500  0.000500  0.878800  1
  H  H418  1  0.300500  0.999500  0.621200  1
  H  H419  1  0.199500  0.999500  0.121200  1
  H  H420  1  0.699500  0.000500  0.378800  1
  H  H421  1  0.970500  0.041600  0.718000  1
  H  H422  1  0.470500  0.958400  0.782000  1
  H  H423  1  0.029500  0.958400  0.282000  1
  H  H424  1  0.529500  0.041600  0.218000  1
  H  H425  1  0.880100  0.028700  0.679100  1
  H  H426  1  0.380100  0.971300  0.820900  1
  H  H427  1  0.119900  0.971300  0.320900  1
  H  H428  1  0.619900  0.028700  0.179100  1
  H  H429  1  0.924100  0.067500  0.664100  1
  H  H430  1  0.424100  0.932500  0.835900  1
  H  H431  1  0.075900  0.932500  0.335900  1
  H  H432  1  0.575900  0.067500  0.164100  1
  H  H433  1  0.861700  0.080100  0.688200  1
  H  H434  1  0.361700  0.919900  0.811800  1
  H  H435  1  0.138300  0.919900  0.311800  1
  H  H436  1  0.638300  0.080100  0.188200  1
  H  H437  1  0.263600  0.452200  0.781200  1
  H  H438  1  0.763600  0.547800  0.718800  1
  H  H439  1  0.736400  0.547800  0.218800  1
  H  H440  1  0.236400  0.452200  0.281200  1
  H  H441  1  0.147600  0.433400  0.868600  1
  H  H442  1  0.647600  0.566600  0.631400  1
  H  H443  1  0.852400  0.566600  0.131400  1
  H  H444  1  0.352400  0.433400  0.368600  1
  H  H445  1  0.169400  0.409800  0.827300  1
  H  H446  1  0.669400  0.590200  0.672700  1
  H  H447  1  0.830600  0.590200  0.172700  1
  H  H448  1  0.330600  0.409800  0.327300  1
  H  H449  1  0.100200  0.429600  0.832000  1
  H  H450  1  0.600200  0.570400  0.668000  1
  H  H451  1  0.899800  0.570400  0.168000  1
  H  H452  1  0.399800  0.429600  0.332000  1
  H  H453  1  0.889300  0.721100  0.490600  1
  H  H454  1  0.389300  0.278900  0.009400  1
  H  H455  1  0.110700  0.278900  0.509400  1
  H  H456  1  0.610700  0.721100  0.990600  1
  H  H457  1  0.828500  0.703600  0.467100  1
  H  H458  1  0.328500  0.296400  0.032900  1
  H  H459  1  0.171500  0.296400  0.532900  1
  H  H460  1  0.671500  0.703600  0.967100  1
  H  H461  1  0.890500  0.715200  0.443400  1
  H  H462  1  0.390500  0.284800  0.056600  1
  H  H463  1  0.109500  0.284800  0.556600  1
  H  H464  1  0.609500  0.715200  0.943400  1
  H  H465  1  0.817400  0.638300  0.437000  1
  H  H466  1  0.317400  0.361700  0.063000  1
  H  H467  1  0.182600  0.361700  0.563000  1
  H  H468  1  0.682600  0.638300  0.937000  1
  H  H469  1  0.857500  0.596900  0.451000  1
  H  H470  1  0.357500  0.403100  0.049000  1
  H  H471  1  0.142500  0.403100  0.549000  1
  H  H472  1  0.642500  0.596900  0.951000  1
  H  H473  1  0.881700  0.625200  0.415300  1
  H  H474  1  0.381700  0.374800  0.084700  1
  H  H475  1  0.118300  0.374800  0.584700  1
  H  H476  1  0.618300  0.625200  0.915300  1
  H  H477  1  0.580900  0.796200  0.771000  1
  H  H478  1  0.080900  0.203800  0.729000  1
  H  H479  1  0.419100  0.203800  0.229000  1
  H  H480  1  0.919100  0.796200  0.271000  1
  H  H481  1  0.566700  0.837600  0.744400  1
  H  H482  1  0.066700  0.162400  0.755600  1
  H  H483  1  0.433300  0.162400  0.255600  1
  H  H484  1  0.933300  0.837600  0.244400  1
  H  H485  1  0.635700  0.830100  0.760900  1
  H  H486  1  0.135700  0.169900  0.739100  1
  H  H487  1  0.364300  0.169900  0.239100  1
  H  H488  1  0.864300  0.830100  0.260900  1
  H  H489  1  0.519600  0.777900  0.704400  1
  H  H490  1  0.019600  0.222100  0.795600  1
  H  H491  1  0.480400  0.222100  0.295600  1
  H  H492  1  0.980400  0.777900  0.204400  1
  H  H493  1  0.553100  0.731200  0.711300  1
  H  H494  1  0.053100  0.268800  0.788700  1
  H  H495  1  0.446900  0.268800  0.288700  1
  H  H496  1  0.946900  0.731200  0.211300  1
  H  H497  1  0.557300  0.752600  0.669100  1
  H  H498  1  0.057300  0.247400  0.830900  1
  H  H499  1  0.442700  0.247400  0.330900  1
  H  H500  1  0.942700  0.752600  0.169100  1
  H  H501  1  0.981600  0.929500  0.008500  1
  H  H502  1  0.481600  0.070500  0.491500  1
  H  H503  1  0.018400  0.070500  0.991500  1
  H  H504  1  0.518400  0.929500  0.508500  1
  H  H505  1  0.993000  0.880500  0.023900  1
  H  H506  1  0.493000  0.119500  0.476100  1
  H  H507  1  0.007000  0.119500  0.976100  1
  H  H508  1  0.507000  0.880500  0.523900  1
  H  H509  1  0.968500  0.886200  0.979800  1
  H  H510  1  0.468500  0.113800  0.520200  1
  H  H511  1  0.031500  0.113800  0.020200  1
  H  H512  1  0.531500  0.886200  0.479800  1
  H  H513  1  0.063100  0.964600  0.011500  1
  H  H514  1  0.563100  0.035400  0.488500  1
  H  H515  1  0.936900  0.035400  0.988500  1
  H  H516  1  0.436900  0.964600  0.511500  1
  H  H517  1  0.130200  0.943400  0.001400  1
  H  H518  1  0.630200  0.056600  0.498600  1
  H  H519  1  0.869800  0.056600  0.998600  1
  H  H520  1  0.369800  0.943400  0.501400  1
  H  H521  1  0.092600  0.928700  0.039400  1
  H  H522  1  0.592600  0.071300  0.460600  1
  H  H523  1  0.907400  0.071300  0.960600  1
  H  H524  1  0.407400  0.928700  0.539400  1
  H  H525  1  0.351500  0.654600  0.622900  1
  H  H526  1  0.851500  0.345400  0.877100  1
  H  H527  1  0.648500  0.345400  0.377100  1
  H  H528  1  0.148500  0.654600  0.122900  1
  H  H529  1  0.390200  0.643100  0.583200  1
  H  H530  1  0.890200  0.356900  0.916800  1
  H  H531  1  0.609800  0.356900  0.416800  1
  H  H532  1  0.109800  0.643100  0.083200  1
  H  H533  1  0.401800  0.689400  0.608000  1
  H  H534  1  0.901800  0.310600  0.892000  1
  H  H535  1  0.598200  0.310600  0.392000  1
  H  H536  1  0.098200  0.689400  0.108000  1
  H  H537  1  0.518500  0.674600  0.619100  1
  H  H538  1  0.018500  0.325400  0.880900  1
  H  H539  1  0.481500  0.325400  0.380900  1
  H  H540  1  0.981500  0.674600  0.119100  1
  H  H541  1  0.507900  0.632900  0.588300  1
  H  H542  1  0.007900  0.367100  0.911700  1
  H  H543  1  0.492100  0.367100  0.411700  1
  H  H544  1  0.992100  0.632900  0.088300  1
  H  H545  1  0.538400  0.625400  0.630500  1
  H  H546  1  0.038400  0.374600  0.869500  1
  H  H547  1  0.461600  0.374600  0.369500  1
  H  H548  1  0.961600  0.625400  0.130500  1
  H  H549  1  0.039700  0.949300  0.414500  1
  H  H550  1  0.539700  0.050700  0.085500  1
  H  H551  1  0.960300  0.050700  0.585500  1
  H  H552  1  0.460300  0.949300  0.914500  1
  H  H553  1  0.091200  0.961000  0.447700  1
  H  H554  1  0.591200  0.039000  0.052300  1
  H  H555  1  0.908800  0.039000  0.552300  1
  H  H556  1  0.408800  0.961000  0.947700  1
  H  H557  1  0.020500  0.976700  0.454600  1
  H  H558  1  0.520500  0.023300  0.045400  1
  H  H559  1  0.979500  0.023300  0.545400  1
  H  H560  1  0.479500  0.976700  0.954600  1
  H  H561  1  0.244900  0.913000  0.594300  1
  H  H562  1  0.744900  0.087000  0.905700  1
  H  H563  1  0.755100  0.087000  0.405700  1
  H  H564  1  0.255100  0.913000  0.094300  1
  H  H565  1  0.291100  0.914000  0.557200  1
  H  H566  1  0.791100  0.086000  0.942800  1
  H  H567  1  0.708900  0.086000  0.442800  1
  H  H568  1  0.208900  0.914000  0.057200  1
  H  H569  1  0.265500  0.867300  0.571300  1
  H  H570  1  0.765500  0.132700  0.928700  1
  H  H571  1  0.734500  0.132700  0.428700  1
  H  H572  1  0.234500  0.867300  0.071300  1
  H  H573  1  0.997600  0.933700  0.514100  1
  H  H574  1  0.497600  0.066300  0.985900  1
  H  H575  1  0.002400  0.066300  0.485900  1
  H  H576  1  0.502400  0.933700  0.014100  1
  H  H577  1  0.967100  0.886600  0.500400  1
  H  H578  1  0.467100  0.113400  0.999600  1
  H  H579  1  0.032900  0.113400  0.499600  1
  H  H580  1  0.532900  0.886600  0.000400  1
  H  H581  1  0.947700  0.930900  0.478900  1
  H  H582  1  0.447700  0.069100  0.021100  1
  H  H583  1  0.052300  0.069100  0.521100  1
  H  H584  1  0.552300  0.930900  0.978900  1
  H  H585  1  0.180200  0.421600  0.644400  1
  H  H586  1  0.680200  0.578400  0.855600  1
  H  H587  1  0.819800  0.578400  0.355600  1
  H  H588  1  0.319800  0.421600  0.144400  1
  H  H589  1  0.237600  0.455800  0.648200  1
  H  H590  1  0.737600  0.544200  0.851800  1
  H  H591  1  0.762400  0.544200  0.351800  1
  H  H592  1  0.262400  0.455800  0.148200  1
  H  H593  1  0.168700  0.474000  0.640400  1
  H  H594  1  0.668700  0.526000  0.859600  1
  H  H595  1  0.831300  0.526000  0.359600  1
  H  H596  1  0.331300  0.474000  0.140400  1
  H  H597  1  0.200300  0.537300  0.848300  1
  H  H598  1  0.700300  0.462700  0.651700  1
  H  H599  1  0.799700  0.462700  0.151700  1
  H  H600  1  0.299700  0.537300  0.348300  1
  H  H601  1  0.252600  0.500400  0.837700  1
  H  H602  1  0.752600  0.499600  0.662300  1
  H  H603  1  0.747400  0.499600  0.162300  1
  H  H604  1  0.247400  0.500400  0.337700  1
  H  H605  1  0.209000  0.495800  0.875600  1
  H  H606  1  0.709000  0.504200  0.624400  1
  H  H607  1  0.791000  0.504200  0.124400  1
  H  H608  1  0.291000  0.495800  0.375600  1
  H  H609  1  0.990800  0.115200  0.727300  1
  H  H610  1  0.490800  0.884800  0.772700  1
  H  H611  1  0.009200  0.884800  0.272700  1
  H  H612  1  0.509200  0.115200  0.227300  1
  H  H613  1  0.944100  0.113100  0.764000  1
  H  H614  1  0.444100  0.886900  0.736000  1
  H  H615  1  0.055900  0.886900  0.236000  1
  H  H616  1  0.555900  0.113100  0.264000  1
  H  H617  1  0.919100  0.129100  0.722600  1
  H  H618  1  0.419100  0.870900  0.777400  1
  H  H619  1  0.080900  0.870900  0.277400  1
  H  H620  1  0.580900  0.129100  0.222600  1
  Ru  Ru621  1  0.373160  0.650080  0.722360  1
  Ru  Ru622  1  0.873160  0.349920  0.777640  1
  Ru  Ru623  1  0.626840  0.349920  0.277640  1
  Ru  Ru624  1  0.126840  0.650080  0.222360  1
  Ru  Ru625  1  0.121970  0.857210  0.531430  1
  Ru  Ru626  1  0.621970  0.142790  0.968570  1
  Ru  Ru627  1  0.878030  0.142790  0.468570  1
  Ru  Ru628  1  0.378030  0.857210  0.031430  1
  Ru  Ru629  1  0.871170  0.695190  0.918040  1
  Ru  Ru630  1  0.371170  0.304810  0.581960  1
  Ru  Ru631  1  0.128830  0.304810  0.081960  1
  Ru  Ru632  1  0.628830  0.695190  0.418040  1
  Ru  Ru633  1  0.042290  0.685330  0.495270  1
  Ru  Ru634  1  0.542290  0.314670  0.004730  1
  Ru  Ru635  1  0.957710  0.314670  0.504730  1
  Ru  Ru636  1  0.457710  0.685330  0.995270  1
  Ru  Ru637  1  0.083890  0.790880  0.957460  1
  Ru  Ru638  1  0.583890  0.209120  0.542540  1
  Ru  Ru639  1  0.916110  0.209120  0.042540  1
  Ru  Ru640  1  0.416110  0.790880  0.457460  1
  Ru  Ru641  1  0.856720  0.975470  0.762370  1
  Ru  Ru642  1  0.356720  0.024530  0.737630  1
  Ru  Ru643  1  0.143280  0.024530  0.237630  1
  Ru  Ru644  1  0.643280  0.975470  0.262370  1
  Ru  Ru645  1  0.715060  0.855360  0.673710  1
  Ru  Ru646  1  0.215060  0.144640  0.826290  1
  Ru  Ru647  1  0.284940  0.144640  0.326290  1
  Ru  Ru648  1  0.784940  0.855360  0.173710  1
  Ru  Ru649  1  0.199570  0.517590  0.736360  1
  Ru  Ru650  1  0.699570  0.482410  0.763640  1
  Ru  Ru651  1  0.800430  0.482410  0.263640  1
  Ru  Ru652  1  0.300430  0.517590  0.236360  1
  C  C653  1  0.707900  0.664900  0.594100  1
  C  C654  1  0.207900  0.335100  0.905900  1
  C  C655  1  0.292100  0.335100  0.405900  1
  C  C656  1  0.792100  0.664900  0.094100  1
  C  C657  1  0.199100  0.885300  0.500900  1
  C  C658  1  0.699100  0.114700  0.999100  1
  C  C659  1  0.800900  0.114700  0.499100  1
  C  C660  1  0.300900  0.885300  0.000900  1
  C  C661  1  0.093000  0.910400  0.494100  1
  C  C662  1  0.593000  0.089600  0.005900  1
  C  C663  1  0.907000  0.089600  0.505900  1
  C  C664  1  0.407000  0.910400  0.994100  1
  C  C665  1  0.092500  0.925600  0.534400  1
  C  C666  1  0.592500  0.074400  0.965600  1
  C  C667  1  0.907500  0.074400  0.465600  1
  C  C668  1  0.407500  0.925600  0.034400  1
  C  C669  1  0.146300  0.921900  0.556500  1
  C  C670  1  0.646300  0.078100  0.943500  1
  C  C671  1  0.853700  0.078100  0.443500  1
  C  C672  1  0.353700  0.921900  0.056500  1
  C  C673  1  0.148000  0.890800  0.479000  1
  C  C674  1  0.648000  0.109200  0.021000  1
  C  C675  1  0.852000  0.109200  0.521000  1
  C  C676  1  0.352000  0.890800  0.979000  1
  C  C677  1  0.200400  0.902000  0.541300  1
  C  C678  1  0.700400  0.098000  0.958700  1
  C  C679  1  0.799600  0.098000  0.458700  1
  C  C680  1  0.299600  0.902000  0.041300  1
  C  C681  1  0.032300  0.907400  0.462900  1
  C  C682  1  0.532300  0.092600  0.037100  1
  C  C683  1  0.967700  0.092600  0.537100  1
  C  C684  1  0.467700  0.907400  0.962900  1
  C  C685  1  0.096300  0.633500  0.464500  1
  C  C686  1  0.596300  0.366500  0.035500  1
  C  C687  1  0.903700  0.366500  0.535500  1
  C  C688  1  0.403700  0.633500  0.964500  1
  C  C689  1  0.995800  0.621100  0.492500  1
  C  C690  1  0.495800  0.378900  0.007500  1
  C  C691  1  0.004200  0.378900  0.507500  1
  C  C692  1  0.504200  0.621100  0.992500  1
  C  C693  1  0.057100  0.613900  0.490300  1
  C  C694  1  0.557100  0.386100  0.009700  1
  C  C695  1  0.942900  0.386100  0.509700  1
  C  C696  1  0.442900  0.613900  0.990300  1
  C  C697  1  0.964600  0.648700  0.467800  1
  C  C698  1  0.464600  0.351300  0.032200  1
  C  C699  1  0.035400  0.351300  0.532200  1
  C  C700  1  0.535400  0.648700  0.967800  1
  C  C701  1  0.065200  0.662000  0.434100  1
  C  C702  1  0.565200  0.338000  0.065900  1
  C  C703  1  0.934800  0.338000  0.565900  1
  C  C704  1  0.434800  0.662000  0.934100  1
  C  C705  1  0.895100  0.658200  0.470000  1
  C  C706  1  0.395100  0.341800  0.030000  1
  C  C707  1  0.104900  0.341800  0.530000  1
  C  C708  1  0.604900  0.658200  0.970000  1
  C  C709  1  0.000800  0.668900  0.438300  1
  C  C710  1  0.500800  0.331100  0.061700  1
  C  C711  1  0.999200  0.331100  0.561700  1
  C  C712  1  0.499200  0.668900  0.938300  1
  C  C713  1  0.166500  0.627300  0.468500  1
  C  C714  1  0.666500  0.372700  0.031500  1
  C  C715  1  0.833500  0.372700  0.531500  1
  C  C716  1  0.333500  0.627300  0.968500  1
  C  C717  1  0.161200  0.806400  0.645500  1
  C  C718  1  0.661200  0.193600  0.854500  1
  C  C719  1  0.838800  0.193600  0.354500  1
  C  C720  1  0.338800  0.806400  0.145500  1
  C  C721  1  0.105300  0.811300  0.667600  1
  C  C722  1  0.605300  0.188700  0.832400  1
  C  C723  1  0.894700  0.188700  0.332400  1
  C  C724  1  0.394700  0.811300  0.167600  1
  C  C725  1  0.161500  0.817300  0.607000  1
  C  C726  1  0.661500  0.182700  0.893000  1
  C  C727  1  0.838500  0.182700  0.393000  1
  C  C728  1  0.338500  0.817300  0.107000  1
  C  C729  1  0.053100  0.825200  0.647000  1
  C  C730  1  0.553100  0.174800  0.853000  1
  C  C731  1  0.946900  0.174800  0.353000  1
  C  C732  1  0.446900  0.825200  0.147000  1
  C  C733  1  0.057500  0.836300  0.608700  1
  C  C734  1  0.557500  0.163700  0.891300  1
  C  C735  1  0.942500  0.163700  0.391300  1
  C  C736  1  0.442500  0.836300  0.108700  1
  C  C737  1  0.996500  0.696200  0.637500  1
  C  C738  1  0.496500  0.303800  0.862500  1
  C  C739  1  0.003500  0.303800  0.362500  1
  C  C740  1  0.503500  0.696200  0.137500  1
  C  C741  1  0.965200  0.700200  0.570200  1
  C  C742  1  0.465200  0.299800  0.929800  1
  C  C743  1  0.034800  0.299800  0.429800  1
  C  C744  1  0.534800  0.700200  0.070200  1
  C  C745  1  0.950100  0.701700  0.608700  1
  C  C746  1  0.450100  0.298300  0.891300  1
  C  C747  1  0.049900  0.298300  0.391300  1
  C  C748  1  0.549900  0.701700  0.108700  1
  C  C749  1  0.056600  0.690800  0.624100  1
  C  C750  1  0.556600  0.309200  0.875900  1
  C  C751  1  0.943400  0.309200  0.375900  1
  C  C752  1  0.443400  0.690800  0.124100  1
  C  C753  1  0.068900  0.688500  0.584200  1
  C  C754  1  0.568900  0.311500  0.915800  1
  C  C755  1  0.931100  0.311500  0.415800  1
  C  C756  1  0.431100  0.688500  0.084200  1
  C  C757  1  0.116400  0.764000  0.512000  1
  C  C758  1  0.616400  0.236000  0.988000  1
  C  C759  1  0.883600  0.236000  0.488000  1
  C  C760  1  0.383600  0.764000  0.012000  1
  C  C761  1  0.049400  0.780600  0.508300  1
  C  C762  1  0.549400  0.219400  0.991700  1
  C  C763  1  0.950600  0.219400  0.491700  1
  C  C764  1  0.450600  0.780600  0.008300  1
  C  C765  1  0.996900  0.720400  0.941600  1
  C  C766  1  0.496900  0.279600  0.558400  1
  C  C767  1  0.003100  0.279600  0.058400  1
  C  C768  1  0.503100  0.720400  0.441600  1
  C  C769  1  0.958000  0.764200  0.938900  1
  C  C770  1  0.458000  0.235800  0.561100  1
  C  C771  1  0.042000  0.235800  0.061100  1
  C  C772  1  0.542000  0.764200  0.438900  1
  C  C773  1  0.292800  0.583500  0.752100  1
  C  C774  1  0.792800  0.416500  0.747900  1
  C  C775  1  0.707200  0.416500  0.247900  1
  C  C776  1  0.207200  0.583500  0.252100  1
  C  C777  1  0.768400  0.909900  0.737100  1
  C  C778  1  0.268400  0.090100  0.762900  1
  C  C779  1  0.231600  0.090100  0.262900  1
  C  C780  1  0.731600  0.909900  0.237100  1
  C  C781  1  0.796600  0.926700  0.699100  1
  C  C782  1  0.296600  0.073300  0.800900  1
  C  C783  1  0.203400  0.073300  0.300900  1
  C  C784  1  0.703400  0.926700  0.199100  1
  C  C785  1  0.289500  0.576800  0.707400  1
  C  C786  1  0.789500  0.423200  0.792600  1
  C  C787  1  0.710500  0.423200  0.292600  1
  C  C788  1  0.210500  0.576800  0.207400  1
  C  C789  1  0.827400  0.043900  0.760400  1
  C  C790  1  0.327400  0.956100  0.739600  1
  C  C791  1  0.172600  0.956100  0.239600  1
  C  C792  1  0.672600  0.043900  0.260400  1
  C  C793  1  0.799600  0.027100  0.792200  1
  C  C794  1  0.299600  0.972900  0.707800  1
  C  C795  1  0.200400  0.972900  0.207800  1
  C  C796  1  0.700400  0.027100  0.292200  1
  C  C797  1  0.893600  0.002000  0.818900  1
  C  C798  1  0.393600  0.998000  0.681100  1
  C  C799  1  0.106400  0.998000  0.181100  1
  C  C800  1  0.606400  0.002000  0.318900  1
  C  C801  1  0.833300  0.005300  0.821900  1
  C  C802  1  0.333300  0.994700  0.678100  1
  C  C803  1  0.166700  0.994700  0.178100  1
  C  C804  1  0.666700  0.005300  0.321900  1
  C  C805  1  0.895000  0.041100  0.756300  1
  C  C806  1  0.395000  0.958900  0.743700  1
  C  C807  1  0.105000  0.958900  0.243700  1
  C  C808  1  0.605000  0.041100  0.256300  1
  C  C809  1  0.927400  0.019400  0.785300  1
  C  C810  1  0.427400  0.980600  0.714700  1
  C  C811  1  0.072600  0.980600  0.214700  1
  C  C812  1  0.572600  0.019400  0.285300  1
  C  C813  1  0.673700  0.868500  0.616400  1
  C  C814  1  0.173700  0.131500  0.883600  1
  C  C815  1  0.326300  0.131500  0.383600  1
  C  C816  1  0.826300  0.868500  0.116400  1
  C  C817  1  0.635100  0.886200  0.647300  1
  C  C818  1  0.135100  0.113800  0.852700  1
  C  C819  1  0.364900  0.113800  0.352700  1
  C  C820  1  0.864900  0.886200  0.147300  1
  C  C821  1  0.635600  0.812200  0.677200  1
  C  C822  1  0.135600  0.187800  0.822800  1
  C  C823  1  0.364400  0.187800  0.322800  1
  C  C824  1  0.864400  0.812200  0.177200  1
  C  C825  1  0.670300  0.797100  0.647500  1
  C  C826  1  0.170300  0.202900  0.852500  1
  C  C827  1  0.329700  0.202900  0.352500  1
  C  C828  1  0.829700  0.797100  0.147500  1
  C  C829  1  0.614100  0.859200  0.677800  1
  C  C830  1  0.114100  0.140800  0.822200  1
  C  C831  1  0.385900  0.140800  0.322200  1
  C  C832  1  0.885900  0.859200  0.177800  1
  C  C833  1  0.692000  0.822000  0.617200  1
  C  C834  1  0.192000  0.178000  0.882800  1
  C  C835  1  0.308000  0.178000  0.382800  1
  C  C836  1  0.808000  0.822000  0.117200  1
  C  C837  1  0.092000  0.793000  0.813300  1
  C  C838  1  0.592000  0.207000  0.686700  1
  C  C839  1  0.908000  0.207000  0.186700  1
  C  C840  1  0.408000  0.793000  0.313300  1
  C  C841  1  0.073400  0.830200  0.837700  1
  C  C842  1  0.573400  0.169800  0.662300  1
  C  C843  1  0.926600  0.169800  0.162300  1
  C  C844  1  0.426600  0.830200  0.337700  1
  C  C845  1  0.070300  0.827500  0.877700  1
  C  C846  1  0.570300  0.172500  0.622300  1
  C  C847  1  0.929700  0.172500  0.122300  1
  C  C848  1  0.429700  0.827500  0.377700  1
  C  C849  1  0.104700  0.754000  0.831700  1
  C  C850  1  0.604700  0.246000  0.668300  1
  C  C851  1  0.895300  0.246000  0.168300  1
  C  C852  1  0.395300  0.754000  0.331700  1
  C  C853  1  0.101100  0.753300  0.872400  1
  C  C854  1  0.601100  0.246700  0.627600  1
  C  C855  1  0.898900  0.246700  0.127600  1
  C  C856  1  0.398900  0.753300  0.372400  1
  C  C857  1  0.945500  0.698600  0.781500  1
  C  C858  1  0.445500  0.301400  0.718500  1
  C  C859  1  0.054500  0.301400  0.218500  1
  C  C860  1  0.554500  0.698600  0.281500  1
  C  C861  1  0.938200  0.662900  0.842700  1
  C  C862  1  0.438200  0.337100  0.657300  1
  C  C863  1  0.061800  0.337100  0.157300  1
  C  C864  1  0.561800  0.662900  0.342700  1
  C  C865  1  0.903000  0.734900  0.840100  1
  C  C866  1  0.403000  0.265100  0.659900  1
  C  C867  1  0.097000  0.265100  0.159900  1
  C  C868  1  0.597000  0.734900  0.340100  1
  C  C869  1  0.955200  0.661300  0.804200  1
  C  C870  1  0.455200  0.338700  0.695800  1
  C  C871  1  0.044800  0.338700  0.195800  1
  C  C872  1  0.544800  0.661300  0.304200  1
  C  C873  1  0.920200  0.736600  0.802000  1
  C  C874  1  0.420200  0.263400  0.698000  1
  C  C875  1  0.079800  0.263400  0.198000  1
  C  C876  1  0.579800  0.736600  0.302000  1
  C  C877  1  0.920900  0.887900  0.775900  1
  C  C878  1  0.420900  0.112100  0.724100  1
  C  C879  1  0.079100  0.112100  0.224100  1
  C  C880  1  0.579100  0.887900  0.275900  1
  C  C881  1  0.014400  0.857300  0.745900  1
  C  C882  1  0.514400  0.142700  0.754100  1
  C  C883  1  0.985600  0.142700  0.254100  1
  C  C884  1  0.485600  0.857300  0.245900  1
  C  C885  1  0.012200  0.894200  0.721000  1
  C  C886  1  0.512200  0.105800  0.779000  1
  C  C887  1  0.987800  0.105800  0.279000  1
  C  C888  1  0.487800  0.894200  0.221000  1
  C  C889  1  0.967000  0.855000  0.772700  1
  C  C890  1  0.467000  0.145000  0.727300  1
  C  C891  1  0.033000  0.145000  0.227300  1
  C  C892  1  0.533000  0.855000  0.272700  1
  C  C893  1  0.965900  0.925200  0.726300  1
  C  C894  1  0.465900  0.074800  0.773700  1
  C  C895  1  0.034100  0.074800  0.273700  1
  C  C896  1  0.534100  0.925200  0.226300  1
  C  C897  1  0.834300  0.757000  0.723900  1
  C  C898  1  0.334300  0.243000  0.776100  1
  C  C899  1  0.165700  0.243000  0.276100  1
  C  C900  1  0.665700  0.757000  0.223900  1
  C  C901  1  0.788600  0.787800  0.716800  1
  C  C902  1  0.288600  0.212200  0.783200  1
  C  C903  1  0.211400  0.212200  0.283200  1
  C  C904  1  0.711400  0.787800  0.216800  1
  C  C905  1  0.886200  0.753800  0.699600  1
  C  C906  1  0.386200  0.246200  0.800400  1
  C  C907  1  0.113800  0.246200  0.300400  1
  C  C908  1  0.613800  0.753800  0.199600  1
  C  C909  1  0.843500  0.813700  0.664300  1
  C  C910  1  0.343500  0.186300  0.835700  1
  C  C911  1  0.156500  0.186300  0.335700  1
  C  C912  1  0.656500  0.813700  0.164300  1
  C  C913  1  0.891100  0.783500  0.669600  1
  C  C914  1  0.391100  0.216500  0.830400  1
  C  C915  1  0.108900  0.216500  0.330400  1
  C  C916  1  0.608900  0.783500  0.169600  1
  C  C917  1  0.443800  0.653900  0.676600  1
  C  C918  1  0.943800  0.346100  0.823400  1
  C  C919  1  0.556200  0.346100  0.323400  1
  C  C920  1  0.056200  0.653900  0.176600  1
  C  C921  1  0.465700  0.625600  0.706500  1
  C  C922  1  0.965700  0.374400  0.793500  1
  C  C923  1  0.534300  0.374400  0.293500  1
  C  C924  1  0.034300  0.625600  0.206500  1
  C  C925  1  0.424600  0.697000  0.688800  1
  C  C926  1  0.924600  0.303000  0.811200  1
  C  C927  1  0.575400  0.303000  0.311200  1
  C  C928  1  0.075400  0.697000  0.188800  1
  C  C929  1  0.425000  0.710900  0.728400  1
  C  C930  1  0.925000  0.289100  0.771600  1
  C  C931  1  0.575000  0.289100  0.271600  1
  C  C932  1  0.075000  0.710900  0.228400  1
  C  C933  1  0.442200  0.635600  0.633700  1
  C  C934  1  0.942200  0.364400  0.866300  1
  C  C935  1  0.557800  0.364400  0.366300  1
  C  C936  1  0.057800  0.635600  0.133700  1
  C  C937  1  0.444200  0.684900  0.758900  1
  C  C938  1  0.944200  0.315100  0.741100  1
  C  C939  1  0.555800  0.315100  0.241100  1
  C  C940  1  0.055800  0.684900  0.258900  1
  C  C941  1  0.442300  0.696800  0.802200  1
  C  C942  1  0.942300  0.303200  0.697800  1
  C  C943  1  0.557700  0.303200  0.197800  1
  C  C944  1  0.057700  0.696800  0.302200  1
  C  C945  1  0.467200  0.639300  0.746200  1
  C  C946  1  0.967200  0.360700  0.753800  1
  C  C947  1  0.532800  0.360700  0.253800  1
  C  C948  1  0.032800  0.639300  0.246200  1
  C  C949  1  0.127000  0.472300  0.716000  1
  C  C950  1  0.627000  0.527700  0.784000  1
  C  C951  1  0.873000  0.527700  0.284000  1
  C  C952  1  0.373000  0.472300  0.216000  1
  C  C953  1  0.121100  0.480500  0.755300  1
  C  C954  1  0.621100  0.519500  0.744700  1
  C  C955  1  0.878900  0.519500  0.244700  1
  C  C956  1  0.378900  0.480500  0.255300  1
  C  C957  1  0.232900  0.449700  0.724800  1
  C  C958  1  0.732900  0.550300  0.775200  1
  C  C959  1  0.767100  0.550300  0.275200  1
  C  C960  1  0.267100  0.449700  0.224800  1
  C  C961  1  0.182000  0.457600  0.699200  1
  C  C962  1  0.682000  0.542400  0.800800  1
  C  C963  1  0.818000  0.542400  0.300800  1
  C  C964  1  0.318000  0.457600  0.199200  1
  C  C965  1  0.129700  0.604400  0.759000  1
  C  C966  1  0.629700  0.395600  0.741000  1
  C  C967  1  0.870300  0.395600  0.241000  1
  C  C968  1  0.370300  0.604400  0.259000  1
  C  C969  1  0.055500  0.641800  0.719600  1
  C  C970  1  0.555500  0.358200  0.780400  1
  C  C971  1  0.944500  0.358200  0.280400  1
  C  C972  1  0.444500  0.641800  0.219600  1
  C  C973  1  0.117700  0.579900  0.693600  1
  C  C974  1  0.617700  0.420100  0.806400  1
  C  C975  1  0.882300  0.420100  0.306400  1
  C  C976  1  0.382300  0.579900  0.193600  1
  C  C977  1  0.086900  0.638100  0.754900  1
  C  C978  1  0.586900  0.361900  0.745100  1
  C  C979  1  0.913100  0.361900  0.245100  1
  C  C980  1  0.413100  0.638100  0.254900  1
  C  C981  1  0.073900  0.612200  0.687900  1
  C  C982  1  0.573900  0.387800  0.812100  1
  C  C983  1  0.926100  0.387800  0.312100  1
  C  C984  1  0.426100  0.612200  0.187900  1
  C  C985  1  0.251400  0.692800  0.696900  1
  C  C986  1  0.751400  0.307200  0.803100  1
  C  C987  1  0.748600  0.307200  0.303100  1
  C  C988  1  0.248600  0.692800  0.196900  1
  C  C989  1  0.199000  0.719800  0.699700  1
  C  C990  1  0.699000  0.280200  0.800300  1
  C  C991  1  0.801000  0.280200  0.300300  1
  C  C992  1  0.301000  0.719800  0.199700  1
  C  C993  1  0.185700  0.743800  0.735200  1
  C  C994  1  0.685700  0.256200  0.764800  1
  C  C995  1  0.814300  0.256200  0.264800  1
  C  C996  1  0.314300  0.743800  0.235200  1
  C  C997  1  0.223800  0.735800  0.767300  1
  C  C998  1  0.723800  0.264200  0.732700  1
  C  C999  1  0.776200  0.264200  0.232700  1
  C  C1000  1  0.276200  0.735800  0.267300  1
  C  C1001  1  0.272900  0.706600  0.762300  1
  C  C1002  1  0.772900  0.293400  0.737700  1
  C  C1003  1  0.727100  0.293400  0.237700  1
  C  C1004  1  0.227100  0.706600  0.262300  1
  C  C1005  1  0.211200  0.883800  0.721300  1
  C  C1006  1  0.711200  0.116200  0.778700  1
  C  C1007  1  0.788800  0.116200  0.278700  1
  C  C1008  1  0.288800  0.883800  0.221300  1
  C  C1009  1  0.247000  0.855700  0.741300  1
  C  C1010  1  0.747000  0.144300  0.758700  1
  C  C1011  1  0.753000  0.144300  0.258700  1
  C  C1012  1  0.253000  0.855700  0.241300  1
  C  C1013  1  0.229900  0.861200  0.781500  1
  C  C1014  1  0.729900  0.138800  0.718500  1
  C  C1015  1  0.770100  0.138800  0.218500  1
  C  C1016  1  0.270100  0.861200  0.281500  1
  C  C1017  1  0.173000  0.906500  0.746400  1
  C  C1018  1  0.673000  0.093500  0.753600  1
  C  C1019  1  0.827000  0.093500  0.253600  1
  C  C1020  1  0.327000  0.906500  0.246400  1
  C  C1021  1  0.103100  0.804800  0.709900  1
  C  C1022  1  0.603100  0.195200  0.790100  1
  C  C1023  1  0.896900  0.195200  0.290100  1
  C  C1024  1  0.396900  0.804800  0.209900  1
  C  C1025  1  0.135200  0.776800  0.738400  1
  C  C1026  1  0.635200  0.223200  0.761600  1
  C  C1027  1  0.864800  0.223200  0.261600  1
  C  C1028  1  0.364800  0.776800  0.238400  1
  C  C1029  1  0.097000  0.797000  0.770600  1
  C  C1030  1  0.597000  0.203000  0.729400  1
  C  C1031  1  0.903000  0.203000  0.229400  1
  C  C1032  1  0.403000  0.797000  0.270600  1
  C  C1033  1  0.066200  0.824900  0.742700  1
  C  C1034  1  0.566200  0.175100  0.757300  1
  C  C1035  1  0.933800  0.175100  0.257300  1
  C  C1036  1  0.433800  0.824900  0.242700  1
  C  C1037  1  0.863600  0.621200  0.660500  1
  C  C1038  1  0.363600  0.378800  0.839500  1
  C  C1039  1  0.136400  0.378800  0.339500  1
  C  C1040  1  0.636400  0.621200  0.160500  1
  C  C1041  1  0.828400  0.638900  0.691400  1
  C  C1042  1  0.328400  0.361100  0.808600  1
  C  C1043  1  0.171600  0.361100  0.308600  1
  C  C1044  1  0.671600  0.638900  0.191400  1
  C  C1045  1  0.897200  0.592400  0.716500  1
  C  C1046  1  0.397200  0.407600  0.783500  1
  C  C1047  1  0.102800  0.407600  0.283500  1
  C  C1048  1  0.602800  0.592400  0.216500  1
  C  C1049  1  0.847900  0.621500  0.725600  1
  C  C1050  1  0.347900  0.378500  0.774400  1
  C  C1051  1  0.152100  0.378500  0.274400  1
  C  C1052  1  0.652100  0.621500  0.225600  1
  C  C1053  1  0.906300  0.592800  0.675600  1
  C  C1054  1  0.406300  0.407200  0.824400  1
  C  C1055  1  0.093700  0.407200  0.324400  1
  C  C1056  1  0.593700  0.592800  0.175600  1
  C  C1057  1  0.980700  0.696700  0.679300  1
  C  C1058  1  0.480700  0.303300  0.820700  1
  C  C1059  1  0.019300  0.303300  0.320700  1
  C  C1060  1  0.519300  0.696700  0.179300  1
  C  C1061  1  0.935300  0.719600  0.705100  1
  C  C1062  1  0.435300  0.280400  0.794900  1
  C  C1063  1  0.064700  0.280400  0.294900  1
  C  C1064  1  0.564700  0.719600  0.205100  1
  C  C1065  1  0.960500  0.697700  0.739700  1
  C  C1066  1  0.460500  0.302300  0.760300  1
  C  C1067  1  0.039500  0.302300  0.260300  1
  C  C1068  1  0.539500  0.697700  0.239700  1
  C  C1069  1  0.005700  0.674400  0.713500  1
  C  C1070  1  0.505700  0.325600  0.786500  1
  C  C1071  1  0.994300  0.325600  0.286500  1
  C  C1072  1  0.494300  0.674400  0.213500  1
  C  C1073  1  0.184600  0.893100  0.784300  1
  C  C1074  1  0.684600  0.106900  0.715700  1
  C  C1075  1  0.815400  0.106900  0.215700  1
  C  C1076  1  0.315400  0.893100  0.284300  1
  C  C1077  1  0.179000  0.810300  0.960300  1
  C  C1078  1  0.679000  0.189700  0.539700  1
  C  C1079  1  0.821000  0.189700  0.039700  1
  C  C1080  1  0.321000  0.810300  0.460300  1
  C  C1081  1  0.145600  0.847700  0.962600  1
  C  C1082  1  0.645600  0.152300  0.537400  1
  C  C1083  1  0.854400  0.152300  0.037400  1
  C  C1084  1  0.354400  0.847700  0.462600  1
  C  C1085  1  0.118800  0.784300  0.018100  1
  C  C1086  1  0.618800  0.215700  0.481900  1
  C  C1087  1  0.881200  0.215700  0.981900  1
  C  C1088  1  0.381200  0.784300  0.518100  1
  C  C1089  1  0.098100  0.855100  0.991700  1
  C  C1090  1  0.598100  0.144900  0.508300  1
  C  C1091  1  0.901900  0.144900  0.008300  1
  C  C1092  1  0.401900  0.855100  0.491700  1
  C  C1093  1  0.828700  0.661500  0.966100  1
  C  C1094  1  0.328700  0.338500  0.533900  1
  C  C1095  1  0.171300  0.338500  0.033900  1
  C  C1096  1  0.671300  0.661500  0.466100  1
  C  C1097  1  0.833100  0.630600  0.931900  1
  C  C1098  1  0.333100  0.369400  0.568100  1
  C  C1099  1  0.166900  0.369400  0.068100  1
  C  C1100  1  0.666900  0.630600  0.431900  1
  C  C1101  1  0.800900  0.702500  0.965000  1
  C  C1102  1  0.300900  0.297500  0.535000  1
  C  C1103  1  0.199100  0.297500  0.035000  1
  C  C1104  1  0.699100  0.702500  0.465000  1
  C  C1105  1  0.776000  0.716600  0.928500  1
  C  C1106  1  0.276000  0.283400  0.571500  1
  C  C1107  1  0.224000  0.283400  0.071500  1
  C  C1108  1  0.724000  0.716600  0.428500  1
  C  C1109  1  0.804200  0.645300  0.897700  1
  C  C1110  1  0.304200  0.354700  0.602300  1
  C  C1111  1  0.195800  0.354700  0.102300  1
  C  C1112  1  0.695800  0.645300  0.397700  1
  C  C1113  1  0.777100  0.686600  0.897000  1
  C  C1114  1  0.277100  0.313400  0.603000  1
  C  C1115  1  0.222900  0.313400  0.103000  1
  C  C1116  1  0.722900  0.686600  0.397000  1
  C  C1117  1  0.170600  0.773100  0.986100  1
  C  C1118  1  0.670600  0.226900  0.513900  1
  C  C1119  1  0.829400  0.226900  0.013900  1
  C  C1120  1  0.329400  0.773100  0.486100  1
  C  C1121  1  0.205900  0.731600  0.979800  1
  C  C1122  1  0.705900  0.268400  0.520200  1
  C  C1123  1  0.794100  0.268400  0.020200  1
  C  C1124  1  0.294100  0.731600  0.479800  1
  C  C1125  1  0.057900  0.900000  0.987300  1
  C  C1126  1  0.557900  0.100000  0.512700  1
  C  C1127  1  0.942100  0.100000  0.012700  1
  C  C1128  1  0.442100  0.900000  0.487300  1
  C  C1129  1  0.699200  0.896600  0.586100  1
  C  C1130  1  0.199200  0.103400  0.913900  1
  C  C1131  1  0.300800  0.103400  0.413900  1
  C  C1132  1  0.800800  0.896600  0.086100  1
  C  C1133  1  0.614700  0.783800  0.710700  1
  C  C1134  1  0.114700  0.216200  0.789300  1
  C  C1135  1  0.385300  0.216200  0.289300  1
  C  C1136  1  0.885300  0.783800  0.210700  1
  C  C1137  1  0.087100  0.823400  0.016800  1
  C  C1138  1  0.587100  0.176600  0.483200  1
  C  C1139  1  0.912900  0.176600  0.983200  1
  C  C1140  1  0.412900  0.823400  0.516800  1
  C  C1141  1  0.862800  0.586200  0.932500  1
  C  C1142  1  0.362800  0.413800  0.567500  1
  C  C1143  1  0.137200  0.413800  0.067500  1
  C  C1144  1  0.637200  0.586200  0.432500  1
  C  C1145  1  0.914700  0.583000  0.960100  1
  C  C1146  1  0.414700  0.417000  0.539900  1
  C  C1147  1  0.085300  0.417000  0.039900  1
  C  C1148  1  0.585300  0.583000  0.460100  1
  C  C1149  1  0.168200  0.481300  0.825600  1
  C  C1150  1  0.668200  0.518700  0.674400  1
  C  C1151  1  0.831800  0.518700  0.174400  1
  C  C1152  1  0.331800  0.481300  0.325600  1
  C  C1153  1  0.173500  0.473900  0.783200  1
  C  C1154  1  0.673500  0.526100  0.716800  1
  C  C1155  1  0.826500  0.526100  0.216800  1
  C  C1156  1  0.326500  0.473900  0.283200  1
  C  C1157  1  0.749800  0.763800  0.924800  1
  C  C1158  1  0.249800  0.236200  0.575200  1
  C  C1159  1  0.250200  0.236200  0.075200  1
  C  C1160  1  0.750200  0.763800  0.424800  1
  C  C1161  1  0.812500  0.550700  0.942700  1
  C  C1162  1  0.312500  0.449300  0.557300  1
  C  C1163  1  0.187500  0.449300  0.057300  1
  C  C1164  1  0.687500  0.550700  0.442700  1
  C  C1165  1  0.799200  0.981800  0.854100  1
  C  C1166  1  0.299200  0.018200  0.645900  1
  C  C1167  1  0.200800  0.018200  0.145900  1
  C  C1168  1  0.700800  0.981800  0.354100  1
  C  C1169  1  0.931200  0.059200  0.722200  1
  C  C1170  1  0.431200  0.940800  0.777800  1
  C  C1171  1  0.068800  0.940800  0.277800  1
  C  C1172  1  0.568800  0.059200  0.222200  1
  C  C1173  1  0.896400  0.058800  0.685400  1
  C  C1174  1  0.396400  0.941200  0.814600  1
  C  C1175  1  0.103600  0.941200  0.314600  1
  C  C1176  1  0.603600  0.058800  0.185400  1
  C  C1177  1  0.228400  0.457800  0.765100  1
  C  C1178  1  0.728400  0.542200  0.734900  1
  C  C1179  1  0.771600  0.542200  0.234900  1
  C  C1180  1  0.271600  0.457800  0.265100  1
  C  C1181  1  0.144000  0.433900  0.839800  1
  C  C1182  1  0.644000  0.566100  0.660200  1
  C  C1183  1  0.856000  0.566100  0.160200  1
  C  C1184  1  0.356000  0.433900  0.339800  1
  C  C1185  1  0.874200  0.703000  0.467600  1
  C  C1186  1  0.374200  0.297000  0.032400  1
  C  C1187  1  0.125800  0.297000  0.532400  1
  C  C1188  1  0.625800  0.703000  0.967600  1
  C  C1189  1  0.859800  0.626800  0.440700  1
  C  C1190  1  0.359800  0.373200  0.059300  1
  C  C1191  1  0.140200  0.373200  0.559300  1
  C  C1192  1  0.640200  0.626800  0.940700  1
  C  C1193  1  0.597800  0.815100  0.750800  1
  C  C1194  1  0.097800  0.184900  0.749200  1
  C  C1195  1  0.402200  0.184900  0.249200  1
  C  C1196  1  0.902200  0.815100  0.250800  1
  C  C1197  1  0.556000  0.759200  0.697700  1
  C  C1198  1  0.056000  0.240800  0.802300  1
  C  C1199  1  0.444000  0.240800  0.302300  1
  C  C1200  1  0.944000  0.759200  0.197700  1
  C  C1201  1  0.995400  0.899000  0.000900  1
  C  C1202  1  0.495400  0.101000  0.499100  1
  C  C1203  1  0.004600  0.101000  0.999100  1
  C  C1204  1  0.504600  0.899000  0.500900  1
  C  C1205  1  0.088700  0.937500  0.012100  1
  C  C1206  1  0.588700  0.062500  0.487900  1
  C  C1207  1  0.911300  0.062500  0.987900  1
  C  C1208  1  0.411300  0.937500  0.512100  1
  C  C1209  1  0.391900  0.657600  0.609800  1
  C  C1210  1  0.891900  0.342400  0.890200  1
  C  C1211  1  0.608100  0.342400  0.390200  1
  C  C1212  1  0.108100  0.657600  0.109800  1
  C  C1213  1  0.507700  0.642800  0.616300  1
  C  C1214  1  0.007700  0.357200  0.883700  1
  C  C1215  1  0.492300  0.357200  0.383700  1
  C  C1216  1  0.992300  0.642800  0.116300  1
  C  C1217  1  0.047400  0.953000  0.443000  1
  C  C1218  1  0.547400  0.047000  0.057000  1
  C  C1219  1  0.952600  0.047000  0.557000  1
  C  C1220  1  0.452600  0.953000  0.943000  1
  C  C1221  1  0.255200  0.898800  0.568400  1
  C  C1222  1  0.755200  0.101200  0.931600  1
  C  C1223  1  0.744800  0.101200  0.431600  1
  C  C1224  1  0.244800  0.898800  0.068400  1
  C  C1225  1  0.982000  0.915300  0.491400  1
  C  C1226  1  0.482000  0.084700  0.008600  1
  C  C1227  1  0.018000  0.084700  0.508600  1
  C  C1228  1  0.518000  0.915300  0.991400  1
  C  C1229  1  0.193100  0.451700  0.653900  1
  C  C1230  1  0.693100  0.548300  0.846100  1
  C  C1231  1  0.806900  0.548300  0.346100  1
  C  C1232  1  0.306900  0.451700  0.153900  1
  C  C1233  1  0.210600  0.505400  0.848500  1
  C  C1234  1  0.710600  0.494600  0.651500  1
  C  C1235  1  0.789400  0.494600  0.151500  1
  C  C1236  1  0.289400  0.505400  0.348500  1
  C  C1237  1  0.947900  0.108800  0.735200  1
  C  C1238  1  0.447900  0.891200  0.764800  1
  C  C1239  1  0.052100  0.891200  0.264800  1
  C  C1240  1  0.552100  0.108800  0.235200  1
  C  C1241  1  0.634200  0.662600  0.786000  1
  C  C1242  1  0.134200  0.337400  0.714000  1
  C  C1243  1  0.365800  0.337400  0.214000  1
  C  C1244  1  0.865800  0.662600  0.286000  1
  C  C1245  1  0.399700  0.853400  0.648000  1
  C  C1246  1  0.899700  0.146600  0.852000  1
  C  C1247  1  0.600300  0.146600  0.352000  1
  C  C1248  1  0.100300  0.853400  0.148000  1
  C  C1249  1  0.269100  0.957500  0.400400  1
  C  C1250  1  0.769100  0.042500  0.099600  1
  C  C1251  1  0.730900  0.042500  0.599600  1
  C  C1252  1  0.230900  0.957500  0.900400  1
  C  C1253  1  0.470600  0.002900  0.399200  1
  C  C1254  1  0.970600  0.997100  0.100800  1
  C  C1255  1  0.529400  0.997100  0.600800  1
  C  C1256  1  0.029400  0.002900  0.899200  1
  C  C1257  1  0.584700  0.762600  0.557800  1
  C  C1258  1  0.084700  0.237400  0.942200  1
  C  C1259  1  0.415300  0.237400  0.442200  1
  C  C1260  1  0.915300  0.762600  0.057800  1
  C  C1261  1  0.394200  0.479700  0.681700  1
  C  C1262  1  0.894200  0.520300  0.818300  1
  C  C1263  1  0.605800  0.520300  0.318300  1
  C  C1264  1  0.105800  0.479700  0.181700  1
  C  C1265  1  0.104600  0.037100  0.641100  1
  C  C1266  1  0.604600  0.962900  0.858900  1
  C  C1267  1  0.895400  0.962900  0.358900  1
  C  C1268  1  0.395400  0.037100  0.141100  1
  C  C1269  1  0.899000  0.418600  0.010200  1
  C  C1270  1  0.399000  0.581400  0.489800  1
  C  C1271  1  0.101000  0.581400  0.989800  1
  C  C1272  1  0.601000  0.418600  0.510200  1
  C  C1273  1  0.958400  0.803000  0.401100  1
  C  C1274  1  0.458400  0.197000  0.098900  1
  C  C1275  1  0.041600  0.197000  0.598900  1
  C  C1276  1  0.541600  0.803000  0.901100  1
  C  C1277  1  0.901000  0.873800  0.884800  1
  C  C1278  1  0.401000  0.126200  0.615200  1
  C  C1279  1  0.099000  0.126200  0.115200  1
  C  C1280  1  0.599000  0.873800  0.384800  1
  C  C1281  1  0.094800  0.623700  0.871800  1
  C  C1282  1  0.594800  0.376300  0.628200  1
  C  C1283  1  0.905200  0.376300  0.128200  1
  C  C1284  1  0.405200  0.623700  0.371800  1
  C  C1285  1  0.246800  0.705800  0.581200  1
  C  C1286  1  0.746800  0.294200  0.918800  1
  C  C1287  1  0.753200  0.294200  0.418800  1
  C  C1288  1  0.253200  0.705800  0.081200  1
  C  C1289  1  0.250400  0.563700  0.591400  1
  C  C1290  1  0.750400  0.436300  0.908600  1
  C  C1291  1  0.749600  0.436300  0.408600  1
  C  C1292  1  0.249600  0.563700  0.091400  1
  C  C1293  1  0.661000  0.673100  0.750500  1
  C  C1294  1  0.161000  0.326900  0.749500  1
  C  C1295  1  0.339000  0.326900  0.249500  1
  C  C1296  1  0.839000  0.673100  0.250500  1
  C  C1297  1  0.449100  0.495500  0.640300  1
  C  C1298  1  0.949100  0.504500  0.859700  1
  C  C1299  1  0.550900  0.504500  0.359700  1
  C  C1300  1  0.050900  0.495500  0.140300  1
  C  C1301  1  0.128400  0.810100  0.354900  1
  C  C1302  1  0.628400  0.189900  0.145100  1
  C  C1303  1  0.871600  0.189900  0.645100  1
  C  C1304  1  0.371600  0.810100  0.854900  1
  C  C1305  1  0.189100  0.777900  0.339400  1
  C  C1306  1  0.689100  0.222100  0.160600  1
  C  C1307  1  0.810900  0.222100  0.660600  1
  C  C1308  1  0.310900  0.777900  0.839400  1
  C  C1309  1  0.658600  0.524500  0.048200  1
  C  C1310  1  0.158600  0.475500  0.451800  1
  C  C1311  1  0.341400  0.475500  0.951800  1
  C  C1312  1  0.841400  0.524500  0.548200  1
  C  C1313  1  0.449800  0.544500  0.840000  1
  C  C1314  1  0.949800  0.455500  0.660000  1
  C  C1315  1  0.550200  0.455500  0.160000  1
  C  C1316  1  0.050200  0.544500  0.340000  1
  C  C1317  1  0.385400  0.580500  0.854800  1
  C  C1318  1  0.885400  0.419500  0.645200  1
  C  C1319  1  0.614600  0.419500  0.145200  1
  C  C1320  1  0.114600  0.580500  0.354800  1
  C  C1321  1  0.541200  0.509500  0.939600  1
  C  C1322  1  0.041200  0.490500  0.560400  1
  C  C1323  1  0.458800  0.490500  0.060400  1
  C  C1324  1  0.958800  0.509500  0.439600  1
  C  C1325  1  0.545800  0.536600  0.941600  1
  C  C1326  1  0.045800  0.463400  0.558400  1
  C  C1327  1  0.454200  0.463400  0.058400  1
  C  C1328  1  0.954200  0.536600  0.441600  1
  C  C1329  1  0.237700  0.670800  0.869000  1
  C  C1330  1  0.737700  0.329200  0.631000  1
  C  C1331  1  0.762300  0.329200  0.131000  1
  C  C1332  1  0.262300  0.670800  0.369000  1
  C  C1333  1  0.274500  0.637000  0.858000  1
  C  C1334  1  0.774500  0.363000  0.642000  1
  C  C1335  1  0.725500  0.363000  0.142000  1
  C  C1336  1  0.225500  0.637000  0.358000  1
  C  C1337  1  0.897400  0.937400  0.606900  1
  C  C1338  1  0.397400  0.062600  0.893100  1
  C  C1339  1  0.102600  0.062600  0.393100  1
  C  C1340  1  0.602600  0.937400  0.106900  1
  C  C1341  1  0.954000  0.921100  0.606200  1
  C  C1342  1  0.454000  0.078900  0.893800  1
  C  C1343  1  0.046000  0.078900  0.393800  1
  C  C1344  1  0.546000  0.921100  0.106200  1
  C  C1345  1  0.849300  0.803400  0.542400  1
  C  C1346  1  0.349300  0.196600  0.957600  1
  C  C1347  1  0.150700  0.196600  0.457600  1
  C  C1348  1  0.650700  0.803400  0.042400  1
  C  C1349  1  0.782800  0.888300  0.432000  1
  C  C1350  1  0.282800  0.111700  0.068000  1
  C  C1351  1  0.217200  0.111700  0.568000  1
  C  C1352  1  0.717200  0.888300  0.932000  1
  C  C1353  1  0.762300  0.886400  0.479400  1
  C  C1354  1  0.262300  0.113600  0.020600  1
  C  C1355  1  0.237700  0.113600  0.520600  1
  C  C1356  1  0.737700  0.886400  0.979400  1
  C  C1357  1  0.687700  0.885500  0.470900  1
  C  C1358  1  0.187700  0.114500  0.029100  1
  C  C1359  1  0.312300  0.114500  0.529100  1
  C  C1360  1  0.812300  0.885500  0.970900  1
  C  C1361  1  0.768400  0.972100  0.456600  1
  C  C1362  1  0.268400  0.027900  0.043400  1
  C  C1363  1  0.231600  0.027900  0.543400  1
  C  C1364  1  0.731600  0.972100  0.956600  1
  C  C1365  1  0.804000  0.939700  0.500200  1
  C  C1366  1  0.304000  0.060300  0.999800  1
  C  C1367  1  0.196000  0.060300  0.499800  1
  C  C1368  1  0.696000  0.939700  0.000200  1
  C  C1369  1  0.763600  0.812000  0.828200  1
  C  C1370  1  0.263600  0.188000  0.671800  1
  C  C1371  1  0.236400  0.188000  0.171800  1
  C  C1372  1  0.736400  0.812000  0.328200  1
  C  C1373  1  0.717700  0.844900  0.831600  1
  C  C1374  1  0.217700  0.155100  0.668400  1
  C  C1375  1  0.282300  0.155100  0.168400  1
  C  C1376  1  0.782300  0.844900  0.331600  1
  S  S1377  1  0.763470  0.704640  0.580820  1
  S  S1378  1  0.263470  0.295360  0.919180  1
  S  S1379  1  0.236530  0.295360  0.419180  1
  S  S1380  1  0.736530  0.704640  0.080820  1
  S  S1381  1  0.710100  0.690000  0.791200  1
  S  S1382  1  0.210100  0.310000  0.708800  1
  S  S1383  1  0.289900  0.310000  0.208800  1
  S  S1384  1  0.789900  0.690000  0.291200  1
  S  S1385  1  0.354430  0.804630  0.640610  1
  S  S1386  1  0.854430  0.195370  0.859390  1
  S  S1387  1  0.645570  0.195370  0.359390  1
  S  S1388  1  0.145570  0.804630  0.140610  1
  S  S1389  1  0.431540  0.965710  0.363620  1
  S  S1390  1  0.931540  0.034290  0.136380  1
  S  S1391  1  0.568460  0.034290  0.636380  1
  S  S1392  1  0.068460  0.965710  0.863620  1
  S  S1393  1  0.479000  0.474020  0.678290  1
  S  S1394  1  0.979000  0.525980  0.821710  1
  S  S1395  1  0.521000  0.525980  0.321710  1
  S  S1396  1  0.021000  0.474020  0.178290  1
  S  S1397  1  0.090800  0.980090  0.656400  1
  S  S1398  1  0.590800  0.019910  0.843600  1
  S  S1399  1  0.909200  0.019910  0.343600  1
  S  S1400  1  0.409200  0.980090  0.156400  1
  S  S1401  1  0.703700  0.692400  0.791000  1
  S  S1402  1  0.203700  0.307600  0.709000  1
  S  S1403  1  0.296300  0.307600  0.209000  1
  S  S1404  1  0.796300  0.692400  0.291000  1
  S  S1405  1  0.429000  0.471400  0.686600  1
  S  S1406  1  0.929000  0.528600  0.813400  1
  S  S1407  1  0.571000  0.528600  0.313400  1
  S  S1408  1  0.071000  0.471400  0.186600  1
  S  S1409  1  0.146500  0.772500  0.402000  1
  S  S1410  1  0.646500  0.227500  0.098000  1
  S  S1411  1  0.853500  0.227500  0.598000  1
  S  S1412  1  0.353500  0.772500  0.902000  1
  S  S1413  1  0.180600  0.776100  0.378700  1
  S  S1414  1  0.680600  0.223900  0.121300  1
  S  S1415  1  0.819400  0.223900  0.621300  1
  S  S1416  1  0.319400  0.776100  0.878700  1
  S  S1417  1  0.538200  0.456780  0.908810  1
  S  S1418  1  0.038200  0.543220  0.591190  1
  S  S1419  1  0.461800  0.543220  0.091190  1
  S  S1420  1  0.961800  0.456780  0.408810  1
  N  N1421  1  0.024000  0.692900  0.556600  1
  N  N1422  1  0.524000  0.307100  0.943400  1
  N  N1423  1  0.976000  0.307100  0.443400  1
  N  N1424  1  0.476000  0.692900  0.056600  1
  N  N1425  1  0.111500  0.832600  0.588600  1
  N  N1426  1  0.611500  0.167400  0.911400  1
  N  N1427  1  0.888500  0.167400  0.411400  1
  N  N1428  1  0.388500  0.832600  0.088600  1
  N  N1429  1  0.289200  0.685900  0.727800  1
  N  N1430  1  0.789200  0.314100  0.772200  1
  N  N1431  1  0.710800  0.314100  0.272200  1
  N  N1432  1  0.210800  0.685900  0.227800  1
  N  N1433  1  0.920300  0.922800  0.753700  1
  N  N1434  1  0.420300  0.077200  0.746300  1
  N  N1435  1  0.079700  0.077200  0.246300  1
  N  N1436  1  0.579700  0.922800  0.253700  1
  N  N1437  1  0.792300  0.816500  0.686700  1
  N  N1438  1  0.292300  0.183500  0.813300  1
  N  N1439  1  0.207700  0.183500  0.313300  1
  N  N1440  1  0.707700  0.816500  0.186700  1
  N  N1441  1  0.084200  0.788800  0.895300  1
  N  N1442  1  0.584200  0.211200  0.604700  1
  N  N1443  1  0.915800  0.211200  0.104700  1
  N  N1444  1  0.415800  0.788800  0.395300  1
  N  N1445  1  0.144900  0.574300  0.729200  1
  N  N1446  1  0.644900  0.425700  0.770800  1
  N  N1447  1  0.855100  0.425700  0.270800  1
  N  N1448  1  0.355100  0.574300  0.229200  1
  N  N1449  1  0.910500  0.698400  0.861000  1
  N  N1450  1  0.410500  0.301600  0.639000  1
  N  N1451  1  0.089500  0.301600  0.139000  1
  N  N1452  1  0.589500  0.698400  0.361000  1
  Cl  Cl1453  1  0.247300  0.900880  0.393150  1
  Cl  Cl1454  1  0.747300  0.099120  0.106850  1
  Cl  Cl1455  1  0.752700  0.099120  0.606850  1
  Cl  Cl1456  1  0.252700  0.900880  0.893150  1
  Cl  Cl1457  1  0.228300  0.989800  0.367700  1
  Cl  Cl1458  1  0.728300  0.010200  0.132300  1
  Cl  Cl1459  1  0.771700  0.010200  0.632300  1
  Cl  Cl1460  1  0.271700  0.989800  0.867700  1
  Cl  Cl1461  1  0.262600  0.974580  0.449060  1
  Cl  Cl1462  1  0.762600  0.025420  0.050940  1
  Cl  Cl1463  1  0.737400  0.025420  0.550940  1
  Cl  Cl1464  1  0.237400  0.974580  0.949060  1
  Cl  Cl1465  1  0.531690  0.783900  0.591220  1
  Cl  Cl1466  1  0.031690  0.216100  0.908780  1
  Cl  Cl1467  1  0.468310  0.216100  0.408780  1
  Cl  Cl1468  1  0.968310  0.783900  0.091220  1
  Cl  Cl1469  1  0.554000  0.717220  0.529820  1
  Cl  Cl1470  1  0.054000  0.282780  0.970180  1
  Cl  Cl1471  1  0.446000  0.282780  0.470180  1
  Cl  Cl1472  1  0.946000  0.717220  0.029820  1
  Cl  Cl1473  1  0.612900  0.803350  0.526030  1
  Cl  Cl1474  1  0.112900  0.196650  0.973970  1
  Cl  Cl1475  1  0.387100  0.196650  0.473970  1
  Cl  Cl1476  1  0.887100  0.803350  0.026030  1
  Cl  Cl1477  1  0.922300  0.368900  0.008100  1
  Cl  Cl1478  1  0.422300  0.631100  0.491900  1
  Cl  Cl1479  1  0.077700  0.631100  0.991900  1
  Cl  Cl1480  1  0.577700  0.368900  0.508100  1
  Cl  Cl1481  1  0.927000  0.448000  0.969000  1
  Cl  Cl1482  1  0.427000  0.552000  0.531000  1
  Cl  Cl1483  1  0.073000  0.552000  0.031000  1
  Cl  Cl1484  1  0.573000  0.448000  0.469000  1
  Cl  Cl1485  1  0.826600  0.442700  0.022300  1
  Cl  Cl1486  1  0.326600  0.557300  0.477700  1
  Cl  Cl1487  1  0.173400  0.557300  0.977700  1
  Cl  Cl1488  1  0.673400  0.442700  0.522300  1
  Cl  Cl1489  1  0.921200  0.760700  0.370100  1
  Cl  Cl1490  1  0.421200  0.239300  0.129900  1
  Cl  Cl1491  1  0.078800  0.239300  0.629900  1
  Cl  Cl1492  1  0.578800  0.760700  0.870100  1
  Cl  Cl1493  1  0.909900  0.819400  0.442300  1
  Cl  Cl1494  1  0.409900  0.180600  0.057700  1
  Cl  Cl1495  1  0.090100  0.180600  0.557700  1
  Cl  Cl1496  1  0.590100  0.819400  0.942300  1
  Cl  Cl1497  1  0.963100  0.852800  0.374400  1
  Cl  Cl1498  1  0.463100  0.147200  0.125600  1
  Cl  Cl1499  1  0.036900  0.147200  0.625600  1
  Cl  Cl1500  1  0.536900  0.852800  0.874400  1
  Cl  Cl1501  1  0.818800  0.413500  0.000300  1
  Cl  Cl1502  1  0.318800  0.586500  0.499700  1
  Cl  Cl1503  1  0.181200  0.586500  0.999700  1
  Cl  Cl1504  1  0.681200  0.413500  0.500300  1
  Cl  Cl1505  1  0.673400  0.579100  0.048200  1
  Cl  Cl1506  1  0.173400  0.420900  0.451800  1
  Cl  Cl1507  1  0.326600  0.420900  0.951800  1
  Cl  Cl1508  1  0.826600  0.579100  0.548200  1
  Cl  Cl1509  1  0.674300  0.496100  0.003600  1
  Cl  Cl1510  1  0.174300  0.503900  0.496400  1
  Cl  Cl1511  1  0.325700  0.503900  0.996400  1
  Cl  Cl1512  1  0.825700  0.496100  0.503600  1
  Cl  Cl1513  1  0.663200  0.498600  0.088200  1
  Cl  Cl1514  1  0.163200  0.501400  0.411800  1
  Cl  Cl1515  1  0.336800  0.501400  0.911800  1
  Cl  Cl1516  1  0.836800  0.498600  0.588200  1
  Cl  Cl1517  1  0.752000  0.531900  0.044400  1
  Cl  Cl1518  1  0.252000  0.468100  0.455600  1
  Cl  Cl1519  1  0.248000  0.468100  0.955600  1
  Cl  Cl1520  1  0.748000  0.531900  0.544400  1
  Cl  Cl1521  1  0.370800  0.539700  0.847300  1
  Cl  Cl1522  1  0.870800  0.460300  0.652700  1
  Cl  Cl1523  1  0.629200  0.460300  0.152700  1
  Cl  Cl1524  1  0.129200  0.539700  0.347300  1
  Cl  Cl1525  1  0.453300  0.527860  0.791690  1
  Cl  Cl1526  1  0.953300  0.472140  0.708310  1
  Cl  Cl1527  1  0.546700  0.472140  0.208310  1
  Cl  Cl1528  1  0.046700  0.527860  0.291690  1
  Cl  Cl1529  1  0.500800  0.590200  0.849800  1
  Cl  Cl1530  1  0.000800  0.409800  0.650200  1
  Cl  Cl1531  1  0.499200  0.409800  0.150200  1
  Cl  Cl1532  1  0.999200  0.590200  0.349800  1
  O  O1533  1  0.783900  0.722600  0.618500  1
  O  O1534  1  0.283900  0.277400  0.881500  1
  O  O1535  1  0.216100  0.277400  0.381500  1
  O  O1536  1  0.716100  0.722600  0.118500  1
  O  O1537  1  0.810300  0.681200  0.560600  1
  O  O1538  1  0.310300  0.318800  0.939400  1
  O  O1539  1  0.189700  0.318800  0.439400  1
  O  O1540  1  0.689700  0.681200  0.060600  1
  O  O1541  1  0.725700  0.733500  0.559400  1
  O  O1542  1  0.225700  0.266500  0.940600  1
  O  O1543  1  0.274300  0.266500  0.440600  1
  O  O1544  1  0.774300  0.733500  0.059400  1
  O  O1545  1  0.835200  0.957200  0.702800  1
  O  O1546  1  0.335200  0.042800  0.797200  1
  O  O1547  1  0.164800  0.042800  0.297200  1
  O  O1548  1  0.664800  0.957200  0.202800  1
  O  O1549  1  0.125000  0.722400  0.508200  1
  O  O1550  1  0.625000  0.277600  0.991800  1
  O  O1551  1  0.875000  0.277600  0.491800  1
  O  O1552  1  0.375000  0.722400  0.008200  1
  O  O1553  1  0.009700  0.752200  0.497850  1
  O  O1554  1  0.509700  0.247800  0.002150  1
  O  O1555  1  0.990300  0.247800  0.502150  1
  O  O1556  1  0.490300  0.752200  0.997850  1
  O  O1557  1  0.158200  0.792500  0.519800  1
  O  O1558  1  0.658200  0.207500  0.980200  1
  O  O1559  1  0.841800  0.207500  0.480200  1
  O  O1560  1  0.341800  0.792500  0.019800  1
  O  O1561  1  0.040500  0.821000  0.517120  1
  O  O1562  1  0.540500  0.179000  0.982880  1
  O  O1563  1  0.959500  0.179000  0.482880  1
  O  O1564  1  0.459500  0.821000  0.017120  1
  O  O1565  1  0.322500  0.603000  0.687300  1
  O  O1566  1  0.822500  0.397000  0.812700  1
  O  O1567  1  0.677500  0.397000  0.312700  1
  O  O1568  1  0.177500  0.603000  0.187300  1
  O  O1569  1  0.330800  0.612300  0.765700  1
  O  O1570  1  0.830800  0.387700  0.734300  1
  O  O1571  1  0.669200  0.387700  0.234300  1
  O  O1572  1  0.169200  0.612300  0.265700  1
  O  O1573  1  0.254300  0.547000  0.693000  1
  O  O1574  1  0.754300  0.453000  0.807000  1
  O  O1575  1  0.745700  0.453000  0.307000  1
  O  O1576  1  0.245700  0.547000  0.193000  1
  O  O1577  1  0.257500  0.560200  0.771200  1
  O  O1578  1  0.757500  0.439800  0.728800  1
  O  O1579  1  0.742500  0.439800  0.228800  1
  O  O1580  1  0.242500  0.560200  0.271200  1
  O  O1581  1  0.987500  0.800200  0.948100  1
  O  O1582  1  0.487500  0.199800  0.551900  1
  O  O1583  1  0.012500  0.199800  0.051900  1
  O  O1584  1  0.512500  0.800200  0.448100  1
  O  O1585  1  0.051800  0.723900  0.950000  1
  O  O1586  1  0.551800  0.276100  0.550000  1
  O  O1587  1  0.948200  0.276100  0.050000  1
  O  O1588  1  0.448200  0.723900  0.450000  1
  O  O1589  1  0.903200  0.761700  0.928100  1
  O  O1590  1  0.403200  0.238300  0.571900  1
  O  O1591  1  0.096800  0.238300  0.071900  1
  O  O1592  1  0.596800  0.761700  0.428100  1
  O  O1593  1  0.966500  0.684500  0.934440  1
  O  O1594  1  0.466500  0.315500  0.565560  1
  O  O1595  1  0.033500  0.315500  0.065560  1
  O  O1596  1  0.533500  0.684500  0.434440  1
  O  O1597  1  0.727400  0.879100  0.732700  1
  O  O1598  1  0.227400  0.120900  0.767300  1
  O  O1599  1  0.272600  0.120900  0.267300  1
  O  O1600  1  0.772600  0.879100  0.232700  1
  O  O1601  1  0.780000  0.906800  0.666600  1
  O  O1602  1  0.280000  0.093200  0.833400  1
  O  O1603  1  0.220000  0.093200  0.333400  1
  O  O1604  1  0.720000  0.906800  0.166600  1
  O  O1605  1  0.789500  0.925600  0.769200  1
  O  O1606  1  0.289500  0.074400  0.730800  1
  O  O1607  1  0.210500  0.074400  0.230800  1
  O  O1608  1  0.710500  0.925600  0.269200  1
  O  O1609  1  0.750700  0.653700  0.803200  1
  O  O1610  1  0.250700  0.346300  0.696800  1
  O  O1611  1  0.249300  0.346300  0.196800  1
  O  O1612  1  0.749300  0.653700  0.303200  1
  O  O1613  1  0.708600  0.727600  0.815400  1
  O  O1614  1  0.208600  0.272400  0.684600  1
  O  O1615  1  0.291400  0.272400  0.184600  1
  O  O1616  1  0.791400  0.727600  0.315400  1
  O  O1617  1  0.719800  0.700000  0.752200  1
  O  O1618  1  0.219800  0.300000  0.747800  1
  O  O1619  1  0.280200  0.300000  0.247800  1
  O  O1620  1  0.780200  0.700000  0.252200  1
  O  O1621  1  0.395000  0.775400  0.621000  1
  O  O1622  1  0.895000  0.224600  0.879000  1
  O  O1623  1  0.605000  0.224600  0.379000  1
  O  O1624  1  0.105000  0.775400  0.121000  1
  O  O1625  1  0.338100  0.790900  0.677400  1
  O  O1626  1  0.838100  0.209100  0.822600  1
  O  O1627  1  0.661900  0.209100  0.322600  1
  O  O1628  1  0.161900  0.790900  0.177400  1
  O  O1629  1  0.304900  0.816600  0.618100  1
  O  O1630  1  0.804900  0.183400  0.881900  1
  O  O1631  1  0.695100  0.183400  0.381900  1
  O  O1632  1  0.195100  0.816600  0.118100  1
  O  O1633  1  0.408800  0.931000  0.388100  1
  O  O1634  1  0.908800  0.069000  0.111900  1
  O  O1635  1  0.591200  0.069000  0.611900  1
  O  O1636  1  0.091200  0.931000  0.888100  1
  O  O1637  1  0.380700  0.994200  0.351200  1
  O  O1638  1  0.880700  0.005800  0.148800  1
  O  O1639  1  0.619300  0.005800  0.648800  1
  O  O1640  1  0.119300  0.994200  0.851200  1
  O  O1641  1  0.476300  0.951600  0.334800  1
  O  O1642  1  0.976300  0.048400  0.165200  1
  O  O1643  1  0.523700  0.048400  0.665200  1
  O  O1644  1  0.023700  0.951600  0.834800  1
  O  O1645  1  0.485200  0.447700  0.641100  1
  O  O1646  1  0.985200  0.552300  0.858900  1
  O  O1647  1  0.514800  0.552300  0.358900  1
  O  O1648  1  0.014800  0.447700  0.141100  1
  O  O1649  1  0.494100  0.452000  0.713700  1
  O  O1650  1  0.994100  0.548000  0.786300  1
  O  O1651  1  0.505900  0.548000  0.286300  1
  O  O1652  1  0.005900  0.452000  0.213700  1
  O  O1653  1  0.501000  0.520500  0.678900  1
  O  O1654  1  0.001000  0.479500  0.821100  1
  O  O1655  1  0.499000  0.479500  0.321100  1
  O  O1656  1  0.999000  0.520500  0.178900  1
  O  O1657  1  0.150000  0.961900  0.656200  1
  O  O1658  1  0.650000  0.038100  0.843800  1
  O  O1659  1  0.850000  0.038100  0.343800  1
  O  O1660  1  0.350000  0.961900  0.156200  1
  O  O1661  1  0.064900  0.987600  0.693000  1
  O  O1662  1  0.564900  0.012400  0.807000  1
  O  O1663  1  0.935100  0.012400  0.307000  1
  O  O1664  1  0.435100  0.987600  0.193000  1
  O  O1665  1  0.048000  0.956700  0.623400  1
  O  O1666  1  0.548000  0.043300  0.876600  1
  O  O1667  1  0.952000  0.043300  0.376600  1
  O  O1668  1  0.452000  0.956700  0.123400  1
  O  O1669  1  0.870900  0.838500  0.848400  1
  O  O1670  1  0.370900  0.161500  0.651600  1
  O  O1671  1  0.129100  0.161500  0.151600  1
  O  O1672  1  0.629100  0.838500  0.348400  1
  O  O1673  1  0.132300  0.649400  0.847100  1
  O  O1674  1  0.632300  0.350600  0.652900  1
  O  O1675  1  0.867700  0.350600  0.152900  1
  O  O1676  1  0.367700  0.649400  0.347100  1
  O  O1677  1  0.212700  0.679600  0.608700  1
  O  O1678  1  0.712700  0.320400  0.891300  1
  O  O1679  1  0.787300  0.320400  0.391300  1
  O  O1680  1  0.287300  0.679600  0.108700  1
  O  O1681  1  0.201300  0.594700  0.576700  1
  O  O1682  1  0.701300  0.405300  0.923300  1
  O  O1683  1  0.798700  0.405300  0.423300  1
  O  O1684  1  0.298700  0.594700  0.076700  1
  O  O1685  1  0.761600  0.669600  0.790400  1
  O  O1686  1  0.261600  0.330400  0.709600  1
  O  O1687  1  0.238400  0.330400  0.209600  1
  O  O1688  1  0.738400  0.669600  0.290400  1
  O  O1689  1  0.667000  0.691800  0.827400  1
  O  O1690  1  0.167000  0.308200  0.672600  1
  O  O1691  1  0.333000  0.308200  0.172600  1
  O  O1692  1  0.833000  0.691800  0.327400  1
  O  O1693  1  0.713800  0.735500  0.784300  1
  O  O1694  1  0.213800  0.264500  0.715700  1
  O  O1695  1  0.286200  0.264500  0.215700  1
  O  O1696  1  0.786200  0.735500  0.284300  1
  O  O1697  1  0.381000  0.439700  0.672500  1
  O  O1698  1  0.881000  0.560300  0.827500  1
  O  O1699  1  0.619000  0.560300  0.327500  1
  O  O1700  1  0.119000  0.439700  0.172500  1
  O  O1701  1  0.488100  0.452100  0.697600  1
  O  O1702  1  0.988100  0.547900  0.802400  1
  O  O1703  1  0.511900  0.547900  0.302400  1
  O  O1704  1  0.011900  0.452100  0.197600  1
  O  O1705  1  0.404500  0.509900  0.710700  1
  O  O1706  1  0.904500  0.490100  0.789300  1
  O  O1707  1  0.595500  0.490100  0.289300  1
  O  O1708  1  0.095500  0.509900  0.210700  1
  O  O1709  1  0.158300  0.730000  0.379600  1
  O  O1710  1  0.658300  0.270000  0.120400  1
  O  O1711  1  0.841700  0.270000  0.620400  1
  O  O1712  1  0.341700  0.730000  0.879600  1
  O  O1713  1  0.198200  0.799600  0.415500  1
  O  O1714  1  0.698200  0.200400  0.084500  1
  O  O1715  1  0.801800  0.200400  0.584500  1
  O  O1716  1  0.301800  0.799600  0.915500  1
  O  O1717  1  0.093500  0.786100  0.425900  1
  O  O1718  1  0.593500  0.213900  0.074100  1
  O  O1719  1  0.906500  0.213900  0.574100  1
  O  O1720  1  0.406500  0.786100  0.925900  1
  O  O1721  1  0.243800  0.796000  0.371000  1
  O  O1722  1  0.743800  0.204000  0.129000  1
  O  O1723  1  0.756200  0.204000  0.629000  1
  O  O1724  1  0.256200  0.796000  0.871000  1
  O  O1725  1  0.094000  0.744300  0.387100  1
  O  O1726  1  0.594000  0.255700  0.112900  1
  O  O1727  1  0.906000  0.255700  0.612900  1
  O  O1728  1  0.406000  0.744300  0.887100  1
  O  O1729  1  0.532300  0.470800  0.870800  1
  O  O1730  1  0.032300  0.529200  0.629200  1
  O  O1731  1  0.467700  0.529200  0.129200  1
  O  O1732  1  0.967700  0.470800  0.370800  1
  O  O1733  1  0.481100  0.436000  0.924000  1
  O  O1734  1  0.981100  0.564000  0.576000  1
  O  O1735  1  0.518900  0.564000  0.076000  1
  O  O1736  1  0.018900  0.436000  0.424000  1
  O  O1737  1  0.584300  0.428700  0.918200  1
  O  O1738  1  0.084300  0.571300  0.581800  1
  O  O1739  1  0.415700  0.571300  0.081800  1
  O  O1740  1  0.915700  0.428700  0.418200  1
  O  O1741  1  0.689200  0.977900  0.715100  1
  O  O1742  1  0.189200  0.022100  0.784900  1
  O  O1743  1  0.310800  0.022100  0.284900  1
  O  O1744  1  0.810800  0.977900  0.215100  1
  O  O1745  1  0.633100  0.970300  0.735500  1
  O  O1746  1  0.133100  0.029700  0.764500  1
  O  O1747  1  0.366900  0.029700  0.264500  1
  O  O1748  1  0.866900  0.970300  0.235500  1
  O  O1749  1  0.894200  0.856700  0.561200  1
  O  O1750  1  0.394200  0.143300  0.938800  1
  O  O1751  1  0.105800  0.143300  0.438800  1
  O  O1752  1  0.605800  0.856700  0.061200  1
  O  O1753  1  0.668100  0.936300  0.477200  1
  O  O1754  1  0.168100  0.063700  0.022800  1
  O  O1755  1  0.331900  0.063700  0.522800  1
  O  O1756  1  0.831900  0.936300  0.977200  1
  F  F1757  1  0.681300  0.643000  0.563000  1
  F  F1758  1  0.181300  0.357000  0.937000  1
  F  F1759  1  0.318700  0.357000  0.437000  1
  F  F1760  1  0.818700  0.643000  0.063000  1
  F  F1761  1  0.660300  0.682400  0.615700  1
  F  F1762  1  0.160300  0.317600  0.884300  1
  F  F1763  1  0.339700  0.317600  0.384300  1
  F  F1764  1  0.839700  0.682400  0.115700  1
  F  F1765  1  0.730600  0.632700  0.614900  1
  F  F1766  1  0.230600  0.367300  0.885100  1
  F  F1767  1  0.269400  0.367300  0.385100  1
  F  F1768  1  0.769400  0.632700  0.114900  1
  F  F1769  1  0.593500  0.696500  0.784500  1
  F  F1770  1  0.093500  0.303500  0.715500  1
  F  F1771  1  0.406500  0.303500  0.215500  1
  F  F1772  1  0.906500  0.696500  0.284500  1
  F  F1773  1  0.637700  0.633700  0.752900  1
  F  F1774  1  0.137700  0.366300  0.747100  1
  F  F1775  1  0.362300  0.366300  0.247100  1
  F  F1776  1  0.862300  0.633700  0.252900  1
  F  F1777  1  0.626500  0.653000  0.823100  1
  F  F1778  1  0.126500  0.347000  0.676900  1
  F  F1779  1  0.373500  0.347000  0.176900  1
  F  F1780  1  0.873500  0.653000  0.323100  1
  F  F1781  1  0.414300  0.869500  0.612200  1
  F  F1782  1  0.914300  0.130500  0.887800  1
  F  F1783  1  0.585700  0.130500  0.387800  1
  F  F1784  1  0.085700  0.869500  0.112200  1
  F  F1785  1  0.370300  0.885400  0.666900  1
  F  F1786  1  0.870300  0.114600  0.833100  1
  F  F1787  1  0.629700  0.114600  0.333100  1
  F  F1788  1  0.129700  0.885400  0.166900  1
  F  F1789  1  0.449700  0.848200  0.664900  1
  F  F1790  1  0.949700  0.151800  0.835100  1
  F  F1791  1  0.550300  0.151800  0.335100  1
  F  F1792  1  0.050300  0.848200  0.164900  1
  F  F1793  1  0.494100  0.037700  0.380900  1
  F  F1794  1  0.994100  0.962300  0.119100  1
  F  F1795  1  0.505900  0.962300  0.619100  1
  F  F1796  1  0.005900  0.037700  0.880900  1
  F  F1797  1  0.520300  0.983700  0.412600  1
  F  F1798  1  0.020300  0.016300  0.087400  1
  F  F1799  1  0.479700  0.016300  0.587400  1
  F  F1800  1  0.979700  0.983700  0.912600  1
  F  F1801  1  0.435300  0.016900  0.427500  1
  F  F1802  1  0.935300  0.983100  0.072500  1
  F  F1803  1  0.564700  0.983100  0.572500  1
  F  F1804  1  0.064700  0.016900  0.927500  1
  F  F1805  1  0.371100  0.501500  0.652100  1
  F  F1806  1  0.871100  0.498500  0.847900  1
  F  F1807  1  0.628900  0.498500  0.347900  1
  F  F1808  1  0.128900  0.501500  0.152100  1
  F  F1809  1  0.378900  0.503000  0.714000  1
  F  F1810  1  0.878900  0.497000  0.786000  1
  F  F1811  1  0.621100  0.497000  0.286000  1
  F  F1812  1  0.121100  0.503000  0.214000  1
  F  F1813  1  0.369000  0.440300  0.682200  1
  F  F1814  1  0.869000  0.559700  0.817800  1
  F  F1815  1  0.631000  0.559700  0.317800  1
  F  F1816  1  0.131000  0.440300  0.182200  1
  F  F1817  1  0.124000  0.031800  0.604700  1
  F  F1818  1  0.624000  0.968200  0.895300  1
  F  F1819  1  0.876000  0.968200  0.395300  1
  F  F1820  1  0.376000  0.031800  0.104700  1
  F  F1821  1  0.146300  0.058300  0.662900  1
  F  F1822  1  0.646300  0.941700  0.837100  1
  F  F1823  1  0.853700  0.941700  0.337100  1
  F  F1824  1  0.353700  0.058300  0.162900  1
  F  F1825  1  0.050900  0.058500  0.642800  1
  F  F1826  1  0.550900  0.941500  0.857200  1
  F  F1827  1  0.949100  0.941500  0.357200  1
  F  F1828  1  0.449100  0.058500  0.142800  1
  F  F1829  1  0.599500  0.695900  0.753300  1
  F  F1830  1  0.099500  0.304100  0.746700  1
  F  F1831  1  0.400500  0.304100  0.246700  1
  F  F1832  1  0.900500  0.695900  0.253300  1
  F  F1833  1  0.622400  0.629800  0.779500  1
  F  F1834  1  0.122400  0.370200  0.720500  1
  F  F1835  1  0.377600  0.370200  0.220500  1
  F  F1836  1  0.877600  0.629800  0.279500  1
  F  F1837  1  0.686000  0.682600  0.716900  1
  F  F1838  1  0.186000  0.317400  0.783100  1
  F  F1839  1  0.314000  0.317400  0.283100  1
  F  F1840  1  0.814000  0.682600  0.216900  1
  F  F1841  1  0.491700  0.527400  0.646700  1
  F  F1842  1  0.991700  0.472600  0.853300  1
  F  F1843  1  0.508300  0.472600  0.353300  1
  F  F1844  1  0.008300  0.527400  0.146700  1
  F  F1845  1  0.472600  0.464800  0.616300  1
  F  F1846  1  0.972600  0.535200  0.883700  1
  F  F1847  1  0.527400  0.535200  0.383700  1
  F  F1848  1  0.027400  0.464800  0.116300  1
  F  F1849  1  0.400000  0.512800  0.625000  1
  F  F1850  1  0.900000  0.487200  0.875000  1
  F  F1851  1  0.600000  0.487200  0.375000  1
  F  F1852  1  0.100000  0.512800  0.125000  1
  F  F1853  1  0.148100  0.796700  0.320600  1
  F  F1854  1  0.648100  0.203300  0.179400  1
  F  F1855  1  0.851900  0.203300  0.679400  1
  F  F1856  1  0.351900  0.796700  0.820600  1
  F  F1857  1  0.128100  0.845100  0.360100  1
  F  F1858  1  0.628100  0.154900  0.139900  1
  F  F1859  1  0.871900  0.154900  0.639900  1
  F  F1860  1  0.371900  0.845100  0.860100  1
  F  F1861  1  0.068000  0.793400  0.350700  1
  F  F1862  1  0.568000  0.206600  0.149300  1
  F  F1863  1  0.932000  0.206600  0.649300  1
  F  F1864  1  0.432000  0.793400  0.850700  1
  F  F1865  1  0.150000  0.795900  0.430500  1
  F  F1866  1  0.650000  0.204100  0.069500  1
  F  F1867  1  0.850000  0.204100  0.569500  1
  F  F1868  1  0.350000  0.795900  0.930500  1
  F  F1869  1  0.538000  0.492900  0.974400  1
  F  F1870  1  0.038000  0.507100  0.525600  1
  F  F1871  1  0.462000  0.507100  0.025600  1
  F  F1872  1  0.962000  0.492900  0.474400  1
  F  F1873  1  0.483400  0.524200  0.936200  1
  F  F1874  1  0.983400  0.475800  0.563800  1
  F  F1875  1  0.516600  0.475800  0.063800  1
  F  F1876  1  0.016600  0.524200  0.436200  1
