
#######################################################################
#
#                 Cambridge Crystallographic Data Centre
#                                CCDC 
#
#######################################################################
#
# If this CIF has been generated from an entry in the Cambridge 
# Structural Database, then it will include bibliographic, chemical, 
# crystal, experimental, refinement or atomic coordinate data resulting 
# from the CCDC's data processing and validation procedures.
#
#######################################################################

data_DAQWAW
_chemical_formula_moiety         
'C146 H154 Co2 N8 O16 Ru8 8+,8(C1 F3 O3 S1 1-),4.5(C1 H1 Cl3),6(C1 H4 O1)'
_chemical_name_systematic        
"bis(\m-4,4',4'',4'''-(cyclobuta-1,3-diene-1,2,3,4-tetrayl)tetrapyridine)-tetrakis(\m-oxalato)-octakis(p-cymene)-bis(\h^5^-cyclopentadienyl)-di-cobalt-octa-ruthenium octakis(trifluoromethanesulfonate) chloroform methanol solvate"
_symmetry_cell_setting           monoclinic
_symmetry_space_group_name_H-M   'P 21/c'
_symmetry_Int_Tables_number      14
_space_group_name_Hall           '-P 2ybc'
loop_
_symmetry_equiv_pos_site_id
_symmetry_equiv_pos_as_xyz
1 x,y,z
2 -x,1/2+y,1/2-z
3 -x,-y,-z
4 x,1/2-y,1/2+z
_cell_length_a                   29.9272(11)
_cell_length_b                   21.4227(8)
_cell_length_c                   33.8730(12)
_cell_angle_alpha                90
_cell_angle_beta                 93.1497(19)
_cell_angle_gamma                90
_cell_volume                     21683.9
_exptl_crystal_description       block
_cell_formula_units_Z            4
loop_
_atom_site_label
_atom_site_type_symbol
_atom_site_fract_x
_atom_site_fract_y
_atom_site_fract_z
S1 S 0.29536(12) 0.23653(15) 0.41918(11)
O1 O 0.2774(4) 0.2161(5) 0.3815(3)
O2 O 0.3188(4) 0.1897(5) 0.4394(4)
O3 O 0.2665(4) 0.2743(4) 0.4406(3)
F1 F 0.3570(3) 0.3187(5) 0.4370(3)
F2 F 0.3176(4) 0.3397(4) 0.3843(3)
C1 C 0.3351(5) 0.2921(7) 0.4059(4)
F3 F 0.3673(4) 0.2694(5) 0.3851(4)
Ru1 Ru 0.34992(3) 0.62684(4) 0.27764(3)
Ru2 Ru 0.14279(3) 0.87803(4) 0.46857(3)
Ru3 Ru 0.30481(3) 1.12883(4) 0.08196(3)
Ru4 Ru 0.31467(3) 0.95771(4) 0.50473(3)
Ru5 Ru 0.20912(3) 0.91611(5) 0.04254(3)
Ru6 Ru 0.02453(3) 1.14328(4) 0.23763(3)
Ru7 Ru 0.14464(3) 1.28494(4) 0.32629(3)
Ru8 Ru 0.48241(3) 0.80043(5) 0.26364(4)
Co1 Co 0.15905(4) 0.84512(6) 0.25181(4)
Co2 Co 0.34515(4) 1.08034(6) 0.29864(4)
O4 O 0.0428(2) 1.1648(3) 0.2972(2)
C2 C 0.1147(6) 0.8009(11) 0.4991(10)
H1 H 0.1297 0.7655 0.5104
C3 C 0.0896(4) 0.9070(7) 0.5059(5)
C4 C 0.0744(4) 0.9075(7) 0.4656(5)
H2 H 0.0619 0.9443 0.4538
C5 C 0.0781(5) 0.8537(12) 0.4435(5)
H3 H 0.0665 0.8536 0.4168
C6 C 0.1092(5) 0.8520(11) 0.5210(5)
H4 H 0.1191 0.8510 0.5481
C7 C 0.0980(6) 0.7996(10) 0.4587(9)
C8 C 0.0926(9) 0.9677(13) 0.5371(8)
C9 C 0.3665(5) 0.9037(7) 0.5355(5)
C10 C 0.3789(4) 1.0042(7) 0.5075(5)
H5 H 0.3933 1.0275 0.4880
C11 C 0.3861(4) 0.9429(6) 0.5097(4)
H6 H 0.4063 0.9252 0.4921
C12 C 0.3513(5) 1.0354(7) 0.5322(5)
C13 C 0.3380(5) 0.9348(9) 0.5659(4)
H7 H 0.3256 0.9117 0.5866
C14 C 0.3418(6) 1.1049(9) 0.5300(8)
H8 H 0.3508 1.1181 0.5032
C15 C 0.3311(5) 0.9992(9) 0.5617(4)
H9 H 0.3122 1.0195 0.5793
C16 C 0.3727(7) 0.8335(8) 0.5315(7)
H10 H 0.3462 0.8120 0.5405
H11 H 0.3992 0.8203 0.5477
H12 H 0.3767 0.8230 0.5038
N1 N 0.3071(2) 0.9760(3) 0.4434(2)
N2 N 0.1674(2) 0.8885(4) 0.4114(2)
C17 C 0.1936(3) 0.8388(4) 0.3545(3)
H13 H 0.2044 0.8020 0.3427
C18 C 0.1887(3) 0.8947(4) 0.3324(3)
C19 C 0.1827(3) 0.8385(5) 0.3930(3)
H14 H 0.1861 0.8007 0.4075
C20 C 0.1748(3) 0.9469(4) 0.3530(3)
H15 H 0.1731 0.9862 0.3401
C21 C 0.1637(3) 0.9425(4) 0.3913(3)
H16 H 0.1531 0.9785 0.4042
C22 C 0.3038(3) 1.0035(4) 0.3625(3)
C23 C 0.2998(3) 1.0348(4) 0.4298(3)
H17 H 0.2956 1.0670 0.4485
C24 C 0.2983(3) 1.0499(4) 0.3913(3)
H18 H 0.2934 1.0920 0.3834
C25 C 0.3092(3) 0.9434(4) 0.3759(3)
H19 H 0.3115 0.9101 0.3576
C26 C 0.3115(3) 0.9311(4) 0.4158(3)
H20 H 0.3163 0.8893 0.4244
O5 O 0.2776(2) 0.8750(3) 0.4918(2)
O6 O 0.2478(2) 0.9903(3) 0.50215(19)
O7 O 0.2075(2) 0.8418(3) 0.4802(2)
O8 O 0.1790(2) 0.9595(3) 0.48288(19)
C27 C 0.2360(3) 0.8836(4) 0.4880(3)
C28 C 0.2194(3) 0.9506(5) 0.4917(3)
C29 C 0.2796(3) 1.0031(5) 0.0584(3)
C30 C 0.2358(3) 1.0420(5) 0.0611(3)
C31 C 0.4165(3) 0.7072(5) 0.2479(4)
C32 C 0.0901(3) 1.2316(5) 0.2629(4)
C33 C 0.0733(3) 1.2034(5) 0.3009(4)
C34 C 0.4232(3) 0.7105(5) 0.2926(4)
C35 C -0.0439(3) 1.1726(6) 0.2396(4)
H21 H -0.0575 1.1970 0.2591
C36 C -0.0271(4) 1.2004(6) 0.2078(4)
H22 H -0.0298 1.2444 0.2052
C37 C -0.0020(6) 1.1064(10) 0.1811(6)
H23 H 0.0120 1.0837 0.1611
C38 C -0.0053(4) 1.1667(9) 0.1781(5)
C39 C -0.0411(4) 1.1050(7) 0.2437(5)
C40 C -0.0194(4) 1.0726(6) 0.2147(6)
H24 H -0.0159 1.0287 0.2167
C41 C 0.1315(5) 1.3263(7) 0.3836(5)
C42 C 0.1138(5) 1.3649(7) 0.3527(5)
H25 H 0.0832 1.3771 0.3524
C43 C 0.1878(5) 1.3644(6) 0.3228(5)
C44 C 0.2029(4) 1.3297(7) 0.3525(5)
H26 H 0.2337 1.3185 0.3532
C45 C 0.1408(6) 1.3859(5) 0.3222(6)
H27 H 0.1290 1.4129 0.3020
C46 C 0.1780(4) 1.3080(6) 0.3828(4)
H28 H 0.1911 1.2816 0.4027
N3 N 0.3141(2) 0.7108(4) 0.2722(3)
N4 N 0.0772(3) 1.0797(4) 0.2463(3)
N5 N 0.1835(2) 1.2077(4) 0.3133(3)
N6 N 0.2112(3) 0.9158(4) 0.1047(3)
N7 N 0.4257(3) 0.8551(4) 0.2708(3)
N8 N 0.3016(3) 1.0895(4) 0.1390(3)
C47 C 0.2070(3) 0.9080(4) 0.1867(3)
C48 C 0.1698(3) 0.9266(5) 0.1623(3)
H29 H 0.1425 0.9371 0.1738
C49 C 0.1725(3) 0.9297(5) 0.1223(3)
H30 H 0.1469 0.9417 0.1063
C50 C 0.2460(3) 0.8953(4) 0.1683(3)
H31 H 0.2724 0.8841 0.1836
C51 C 0.2467(3) 0.8989(5) 0.1276(3)
H32 H 0.2737 0.8889 0.1155
C52 C 0.3014(3) 1.0545(4) 0.2185(3)
C53 C 0.3371(3) 1.0618(5) 0.1573(3)
H33 H 0.3625 1.0536 0.1424
C54 C 0.2651(3) 1.0970(5) 0.1599(3)
H34 H 0.2392 1.1154 0.1472
C55 C 0.3387(3) 1.0448(5) 0.1958(3)
H35 H 0.3651 1.0264 0.2076
C56 C 0.2634(3) 1.0798(5) 0.1980(3)
H36 H 0.2363 1.0848 0.2111
C57 C 0.1121(3) 1.0791(5) 0.2241(3)
H37 H 0.1149 1.1114 0.2052
C58 C 0.1427(3) 0.9856(4) 0.2541(3)
C59 C 0.1058(3) 0.9878(5) 0.2790(3)
H38 H 0.1029 0.9573 0.2991
C60 C 0.1450(3) 1.0330(5) 0.2273(3)
H39 H 0.1695 1.0346 0.2106
C61 C 0.0748(3) 1.0341(5) 0.2737(3)
H40 H 0.0501 1.0343 0.2902
C62 C 0.2430(3) 1.1657(4) 0.2761(3)
H41 H 0.2619 1.1697 0.2546
C63 C 0.2122(3) 1.2114(5) 0.2832(3)
H42 H 0.2108 1.2472 0.2666
C64 C 0.2462(3) 1.1138(4) 0.3004(3)
C65 C 0.1863(3) 1.1565(5) 0.3357(3)
H43 H 0.1664 1.1525 0.3564
C66 C 0.2165(3) 1.1089(4) 0.3304(3)
H44 H 0.2170 1.0733 0.3471
C67 C 0.3461(4) 0.5562(5) 0.3234(4)
C68 C 0.3744(4) 0.5343(5) 0.2935(4)
H45 H 0.4037 0.5203 0.3012
C69 C 0.3030(4) 0.5754(6) 0.3112(6)
H46 H 0.2831 0.5890 0.3303
C70 C 0.2891(5) 0.5750(7) 0.2716(7)
H47 H 0.2595 0.5888 0.2647
C71 C 0.3644(5) 0.5578(6) 0.3663(4)
H48 H 0.3973 0.5663 0.3667
C72 C 0.3151(6) 0.5558(5) 0.2411(5)
C73 C 0.3032(7) 0.5577(7) 0.1978(5)
H49 H 0.2936 0.5161 0.1887
H50 H 0.3294 0.5706 0.1837
H51 H 0.2788 0.5875 0.1925
C74 C 0.3607(4) 0.5328(5) 0.2538(4)
H52 H 0.3802 0.5174 0.2349
C75 C 0.5277(5) 0.8730(9) 0.2840(7)
H53 H 0.5231 0.9079 0.3006
C76 C 0.5195(5) 0.8789(9) 0.2447(7)
H54 H 0.5092 0.9179 0.2344
C77 C 0.5503(5) 0.7671(10) 0.2752(9)
H55 H 0.5614 0.7289 0.2861
C78 C 0.5424(4) 0.8180(12) 0.3008(8)
C79 C 0.3956(3) 0.8703(5) 0.2410(4)
H56 H 0.3978 0.8504 0.2161
C80 C 0.3582(3) 0.9445(4) 0.2804(3)
C81 C 0.4201(3) 0.8823(5) 0.3064(4)
H57 H 0.4395 0.8705 0.3283
C82 C 0.3619(3) 0.9131(4) 0.2451(3)
H58 H 0.3410 0.9212 0.2235
C83 C 0.3878(3) 0.9261(5) 0.3121(3)
H59 H 0.3853 0.9442 0.3375
C84 C 0.3072(3) 0.7486(4) 0.3031(3)
H60 H 0.3216 0.7388 0.3280
C85 C 0.2802(3) 0.8010(4) 0.3003(3)
H61 H 0.2780 0.8279 0.3224
C86 C 0.2562(3) 0.8143(4) 0.2648(3)
C87 C 0.2642(3) 0.7762(4) 0.2327(3)
H62 H 0.2496 0.7841 0.2076
C88 C 0.2934(3) 0.7271(5) 0.2377(3)
H63 H 0.2993 0.7029 0.2150
O9 O 0.3970(2) 0.6775(3) 0.3127(2)
O10 O 0.3877(2) 0.6692(3) 0.2343(2)
O11 O 0.4530(2) 0.7457(3) 0.3070(3)
O12 O 0.4398(2) 0.7425(3) 0.2288(3)
O13 O 0.1998(2) 1.0125(4) 0.0519(2)
O14 O 0.2761(2) 0.9482(3) 0.0500(2)
O15 O 0.2383(2) 1.0968(3) 0.0719(2)
O16 O 0.3155(2) 1.0335(3) 0.06556(19)
O17 O 0.1209(2) 1.2726(4) 0.2673(2)
O18 O 0.0932(2) 1.2200(3) 0.3334(2)
O19 O 0.0744(2) 1.2105(4) 0.2308(3)
C89 C 0.1162(5) 0.7888(8) 0.2787(4)
H64 H 0.1130 0.7872 0.3064
C90 C 0.1443(5) 0.7530(7) 0.2587(8)
H65 H 0.1640 0.7220 0.2696
C91 C 0.1388(5) 0.7701(7) 0.2185(5)
H66 H 0.1545 0.7531 0.1974
C92 C 0.0935(4) 0.8270(7) 0.2536(7)
H67 H 0.0718 0.8570 0.2605
C93 C 0.1952(3) 0.8969(4) 0.2901(3)
C94 C 0.2232(3) 0.8648(4) 0.2616(3)
C95 C 0.2030(2) 0.9030(4) 0.2294(3)
C96 C 0.1751(3) 0.9338(4) 0.2573(3)
C97 C 0.3788(4) 1.1364(6) 0.3395(4)
H68 H 0.3725 1.1409 0.3665
C98 C 0.3611(4) 1.1716(6) 0.3086(5)
H69 H 0.3400 1.2044 0.3107
C99 C 0.4076(3) 1.1028(6) 0.2835(4)
H70 H 0.4245 1.0798 0.2654
C100 C 0.3785(4) 1.1521(6) 0.2744(4)
H71 H 0.3720 1.1691 0.2489
C101 C 0.4072(4) 1.0937(6) 0.3244(4)
H72 H 0.4238 1.0631 0.3392
C102 C 0.3033(3) 1.0193(4) 0.3207(3)
C103 C 0.2804(3) 1.0647(4) 0.2949(3)
C104 C 0.3023(3) 1.0395(4) 0.2603(3)
C105 C 0.3256(3) 0.9943(4) 0.2865(3)
C106 C 0.1069(6) 0.8154(9) 0.2157(5)
H73 H 0.0959 0.8355 0.1921
C107 C 0.1897(5) 0.8210(8) 0.0397(4)
H74 H 0.1925 0.7895 0.0595
C108 C 0.1523(5) 0.8544(7) 0.0374(4)
H75 H 0.1299 0.8464 0.0556
C109 C 0.2157(7) 0.8812(10) -0.0181(5)
H76 H 0.2359 0.8901 -0.0380
C110 C 0.1449(5) 0.9019(8) 0.0083(4)
C111 C 0.3385(5) 1.1713(6) 0.0339(4)
H77 H 0.3471 1.1541 0.0096
C112 C 0.3694(5) 1.1669(6) 0.0681(5)
C113 C 0.2975(5) 1.1991(7) 0.0350(5)
H78 H 0.2785 1.2019 0.0116
C114 C 0.2834(6) 1.2240(7) 0.0715(6)
C115 C 0.3547(6) 1.1958(7) 0.1023(4)
H79 H 0.3740 1.1967 0.1255
C116 C 0.3134(7) 1.2229(7) 0.1030(5)
H80 H 0.3052 1.2419 0.1269
C117 C 0.2269(5) 0.8294(8) 0.0139(5)
C118 C 0.2684(7) 0.7941(9) 0.0202(7)
H81 H 0.2734 0.7848 0.0484
H82 H 0.2935 0.8189 0.0113
H83 H 0.2662 0.7550 0.0052
C119 C 0.1000(6) 0.9421(10) 0.0127(7)
H84 H 0.0922 0.9419 0.0410
C120 C 0.1034(6) 1.3008(9) 0.4139(5)
H85 H 0.1169 1.2623 0.4247
H86 H 0.0735 1.2916 0.4021
H87 H 0.1010 1.3314 0.4352
C121 C 0.2162(9) 1.3853(10) 0.2893(8)
H88 H 0.2382 1.3518 0.2834
C122 C 0.1766(6) 0.9129(8) -0.0168(4)
H89 H 0.1714 0.9457 -0.0354
C123 C 0.4138(5) 1.1372(9) 0.0675(6)
H90 H 0.4218 1.1211 0.0947
C124 C 0.4170(6) 1.0853(10) 0.0399(9)
H91 H 0.3986 1.0506 0.0484
H92 H 0.4483 1.0718 0.0395
H93 H 0.4065 1.0988 0.0134
C125 C 0.5187(8) 0.8318(17) 0.1744(8)
H94 H 0.4998 0.8702 0.1716
C126 C 0.5261(5) 0.8265(10) 0.2168(7)
C127 C 0.2362(7) 1.2502(8) 0.0752(7)
H95 H 0.2157 1.2312 0.0551
H96 H 0.2366 1.2956 0.0714
H97 H 0.2260 1.2407 0.1015
C128 C 0.4493(7) 1.1875(11) 0.0573(9)
H98 H 0.4444 1.2001 0.0296
H99 H 0.4794 1.1699 0.0616
H100 H 0.4463 1.2239 0.0745
C129 C 0.0182(6) 1.2008(11) 0.1459(5)
H101 H 0.0470 1.1806 0.1418
H102 H 0.0234 1.2443 0.1538
H103 H -0.0005 1.1995 0.1212
C130 C -0.0592(5) 1.0688(11) 0.2778(7)
H104 H -0.0416 1.0295 0.2820
C131 C -0.0588(5) 1.1036(11) 0.3146(6)
H105 H -0.0287 1.1199 0.3209
H106 H -0.0675 1.0759 0.3359
H107 H -0.0801 1.1383 0.3118
C132 C 0.5422(6) 0.7716(10) 0.2349(10)
H108 H 0.5478 0.7364 0.2188
C133 C 0.5661(9) 0.8560(13) 0.1602(9)
H109 H 0.5666 0.8524 0.1314
H110 H 0.5902 0.8306 0.1727
H111 H 0.5704 0.8998 0.1680
C134 C 0.2970(6) 1.1258(9) 0.5324(7)
H112 H 0.2789 1.1107 0.5094
H113 H 0.2964 1.1715 0.5329
H114 H 0.2848 1.1095 0.5566
C135 C 0.3732(9) 1.1402(12) 0.5593(8)
H115 H 0.3617 1.1826 0.5630
H116 H 0.4031 1.1425 0.5490
H117 H 0.3748 1.1183 0.5847
C136 C 0.1849(13) 1.4022(13) 0.2492(8)
H118 H 0.2038 1.4191 0.2290
H119 H 0.1624 1.4333 0.2556
H120 H 0.1699 1.3643 0.2391
C137 C 0.2408(15) 1.4440(11) 0.3023(10)
H121 H 0.2221 1.4804 0.2956
H122 H 0.2688 1.4469 0.2887
H123 H 0.2474 1.4427 0.3309
C138 C 0.1010(10) 1.0046(15) -0.0009(10)
H124 H 0.0705 1.0184 -0.0085
H125 H 0.1195 1.0070 -0.0239
H126 H 0.1138 1.0315 0.0202
C139 C 0.0625(7) 0.9113(14) -0.0121(7)
H127 H 0.0354 0.9369 -0.0115
H128 H 0.0566 0.8698 -0.0014
H129 H 0.0713 0.9074 -0.0394
C140 C 0.3424(7) 0.6081(7) 0.3902(5)
H130 H 0.3454 0.6485 0.3771
H131 H 0.3569 0.6098 0.4168
H132 H 0.3106 0.5982 0.3920
C141 C 0.3572(7) 0.4923(7) 0.3837(5)
H133 H 0.3254 0.4815 0.3809
H134 H 0.3671 0.4921 0.4117
H135 H 0.3746 0.4616 0.3695
C142 C 0.0470(10) 0.9526(17) 0.5570(10)
H136 H 0.0507 0.9603 0.5855
H137 H 0.0390 0.9088 0.5523
H138 H 0.0233 0.9795 0.5454
C143 C 0.1012(9) 0.7448(12) 0.4316(11)
H139 H 0.0870 0.7551 0.4057
H140 H 0.0860 0.7089 0.4428
H141 H 0.1327 0.7345 0.4287
C144 C 0.0847(12) 1.0180(15) 0.5086(10)
H142 H 0.0663 1.0024 0.4859
H143 H 0.1134 1.0329 0.4996
H144 H 0.0691 1.0523 0.5211
C145 C 0.5483(6) 0.8069(12) 0.3461(8)
H145 H 0.5784 0.8198 0.3556
H146 H 0.5442 0.7624 0.3518
H147 H 0.5260 0.8313 0.3596
C146 C 0.4946(13) 0.7894(19) 0.1515(12)
H148 H 0.4627 0.7997 0.1517
H149 H 0.4996 0.7474 0.1623
H150 H 0.5042 0.7910 0.1244
C147 C -0.1088(9) 1.0521(13) 0.2648(8)
H151 H -0.1152 1.0092 0.2727
H152 H -0.1131 1.0559 0.2360
H153 H -0.1291 1.0809 0.2774
S2 S 0.3100(2) 0.2899(3) 0.2088(3)
F4 F 0.3035(5) 0.4065(7) 0.2155(5)
F5 F 0.3663(6) 0.3623(8) 0.2471(6)
F6 F 0.3470(8) 0.3735(11) 0.1769(7)
C148 C 0.3374(8) 0.3658(13) 0.2140(6)
O20 O 0.3463(5) 0.2493(7) 0.1968(5)
O21 O 0.2724(7) 0.2914(9) 0.1846(7)
O22 O 0.3000(6) 0.2802(9) 0.2478(6)
S3 S 0.19537(12) 0.64557(16) 0.35939(14)
C149 C 0.1466(7) 0.6003(10) 0.3520(6)
O23 O 0.2246(3) 0.6050(6) 0.3790(4)
O24 O 0.2091(4) 0.6619(9) 0.3226(5)
F7 F 0.1305(3) 0.5857(6) 0.3878(4)
F8 F 0.1146(4) 0.6297(10) 0.3331(5)
F9 F 0.1518(7) 0.5503(9) 0.3351(6)
O25 O 0.1834(6) 0.6951(7) 0.3819(8)
Cl1 Cl 0.09912(13) 0.7527(2) 0.60685(12)
C150 C 0.0425(5) 0.7309(8) 0.5996(5)
Cl2 Cl 0.0102(2) 0.7717(3) 0.6323(2)
Cl3 Cl 0.02542(19) 0.7374(4) 0.55094(17)
S4 S 0.03429(11) 0.56846(18) 0.63638(12)
O26 O 0.0690(3) 0.5912(5) 0.6119(4)
O27 O 0.0058(4) 0.6193(6) 0.6488(4)
O28 O 0.0484(4) 0.5237(6) 0.6652(4)
F10 F -0.0377(3) 0.5059(5) 0.6191(4)
F11 F 0.0163(5) 0.4797(7) 0.5874(4)
C151 C -0.0029(6) 0.5294(9) 0.6008(6)
F12 F -0.0169(4) 0.5647(7) 0.5725(4)
Cl4 Cl 0.2161(2) 0.46831(19) 0.40878(12)
Cl5 Cl 0.28278(17) 0.4460(2) 0.47018(11)
Cl6 Cl 0.19665(17) 0.3871(2) 0.47397(13)
C152 C 0.2374(6) 0.4153(7) 0.4422(4)
S5 S 0.52598(15) 0.5210(3) 0.32171(18)
O29 O 0.5523(5) 0.5148(7) 0.3589(5)
O30 O 0.5480(5) 0.5059(7) 0.2863(5)
O31 O 0.4795(5) 0.4990(7) 0.3211(5)
C153 C 0.5203(6) 0.6058(10) 0.3183(5)
F13 F 0.4985(5) 0.6289(7) 0.3479(4)
F14 F 0.4970(6) 0.6211(10) 0.2860(5)
F15 F 0.5597(7) 0.6310(11) 0.3178(9)
S6 S 1.01991(19) 0.9092(3) 0.3436(2)
C154 C 0.9629(9) 0.8954(10) 0.3589(6)
O32 O 1.0381(5) 0.8500(7) 0.3438(4)
O33 O 1.0124(6) 0.9351(10) 0.3070(7)
O34 O 1.0433(10) 0.9520(12) 0.3766(8)
F16 F 0.9682(6) 0.8760(9) 0.3953(5)
F17 F 0.9417(6) 0.8537(11) 0.3371(7)
F18 F 0.9415(7) 0.9491(11) 0.3572(8)
Cl7 Cl 0.6311(2) 0.0777(5) 0.9919(3)
Cl8 Cl 0.5520(3) 0.0730(6) 1.0310(3)
Cl9 Cl 0.5573(7) 0.1734(10) 0.9777(6)
C155 C 0.5814(14) 0.101(2) 0.9898(12)
Cl10 Cl 0.2393(3) 0.0788(4) 0.6299(3)
Cl11 Cl 0.1806(4) 0.0901(6) 0.5577(4)
Cl12 Cl 0.1472(4) 0.0369(6) 0.6256(4)
C156 C 0.1970(6) 0.0416(17) 0.5989(6)
O35 O 0.1615(7) 0.1291(9) 0.1516(6)
C157 C 0.1262(9) 0.0990(13) 0.1152(8)
O36 O 0.3506(5) 0.8677(6) 0.1529(4)
C158 C 0.3763(8) 0.9052(11) 0.1282(7)
C159 C 0.2942(5) 0.7532(8) 0.4188(5)
O37 O 0.3204(3) 0.7873(5) 0.3913(3)
O38 O 0.4053(6) 0.7987(9) 0.4233(6)
C160 C 0.4363(8) 0.7496(12) 0.4086(8)
loop_
_geom_bond_atom_site_label_1
_geom_bond_atom_site_label_2
_geom_bond_site_symmetry_1
_geom_bond_site_symmetry_2
S1 O1 1_555 1_555
O2 S1 1_555 1_555
O3 S1 1_555 1_555
F1 C1 1_555 1_555
F2 C1 1_555 1_555
C1 S1 1_555 1_555
F3 C1 1_555 1_555
Ru1 N3 1_555 1_555
Ru2 C2 1_555 1_555
Ru3 N8 1_555 1_555
Ru4 C9 1_555 1_555
Ru5 N6 1_555 1_555
Ru6 O4 1_555 1_555
Ru7 C41 1_555 1_555
Ru8 N7 1_555 1_555
Co1 C89 1_555 1_555
Co2 C97 1_555 1_555
O4 C33 1_555 1_555
C2 H1 1_555 1_555
C3 Ru2 1_555 1_555
C4 Ru2 1_555 1_555
H2 C4 1_555 1_555
C5 Ru2 1_555 1_555
H3 C5 1_555 1_555
C6 Ru2 1_555 1_555
H4 C6 1_555 1_555
C7 Ru2 1_555 1_555
C8 C3 1_555 1_555
C9 C11 1_555 1_555
C10 Ru4 1_555 1_555
H5 C10 1_555 1_555
C11 Ru4 1_555 1_555
H6 C11 1_555 1_555
C12 Ru4 1_555 1_555
C13 Ru4 1_555 1_555
H7 C13 1_555 1_555
C14 C12 1_555 1_555
H8 C14 1_555 1_555
C15 Ru4 1_555 1_555
H9 C15 1_555 1_555
C16 C9 1_555 1_555
H10 C16 1_555 1_555
H11 C16 1_555 1_555
H12 C16 1_555 1_555
N1 Ru4 1_555 1_555
N2 Ru2 1_555 1_555
C17 H13 1_555 1_555
C18 C17 1_555 1_555
C19 N2 1_555 1_555
H14 C19 1_555 1_555
C20 C18 1_555 1_555
H15 C20 1_555 1_555
C21 N2 1_555 1_555
H16 C21 1_555 1_555
C22 C24 1_555 1_555
C23 N1 1_555 1_555
H17 C23 1_555 1_555
C24 C23 1_555 1_555
H18 C24 1_555 1_555
C25 C22 1_555 1_555
H19 C25 1_555 1_555
C26 N1 1_555 1_555
H20 C26 1_555 1_555
O5 Ru4 1_555 1_555
O6 Ru4 1_555 1_555
O7 Ru2 1_555 1_555
O8 Ru2 1_555 1_555
C27 O5 1_555 1_555
C28 O6 1_555 1_555
C29 C30 1_555 1_555
C30 O13 1_555 1_555
C31 C34 1_555 1_555
C32 C33 1_555 1_555
C33 O18 1_555 1_555
C34 O9 1_555 1_555
C35 Ru6 1_555 1_555
H21 C35 1_555 1_555
C36 Ru6 1_555 1_555
H22 C36 1_555 1_555
C37 Ru6 1_555 1_555
H23 C37 1_555 1_555
C38 Ru6 1_555 1_555
C39 Ru6 1_555 1_555
C40 Ru6 1_555 1_555
H24 C40 1_555 1_555
C41 C42 1_555 1_555
C42 Ru7 1_555 1_555
H25 C42 1_555 1_555
C43 Ru7 1_555 1_555
C44 Ru7 1_555 1_555
H26 C44 1_555 1_555
C45 Ru7 1_555 1_555
H27 C45 1_555 1_555
C46 Ru7 1_555 1_555
H28 C46 1_555 1_555
N3 C84 1_555 1_555
N4 Ru6 1_555 1_555
N5 Ru7 1_555 1_555
N6 C49 1_555 1_555
N7 C79 1_555 1_555
N8 C53 1_555 1_555
C47 C48 1_555 1_555
C48 H29 1_555 1_555
C49 C48 1_555 1_555
H30 C49 1_555 1_555
C50 C47 1_555 1_555
H31 C50 1_555 1_555
C51 N6 1_555 1_555
H32 C51 1_555 1_555
C52 C55 1_555 1_555
C53 H33 1_555 1_555
C54 N8 1_555 1_555
H34 C54 1_555 1_555
C55 C53 1_555 1_555
H35 C55 1_555 1_555
C56 C52 1_555 1_555
H36 C56 1_555 1_555
C57 N4 1_555 1_555
H37 C57 1_555 1_555
C58 C59 1_555 1_555
C59 H38 1_555 1_555
C60 C57 1_555 1_555
H39 C60 1_555 1_555
C61 N4 1_555 1_555
H40 C61 1_555 1_555
C62 H41 1_555 1_555
C63 N5 1_555 1_555
H42 C63 1_555 1_555
C64 C62 1_555 1_555
C65 N5 1_555 1_555
H43 C65 1_555 1_555
C66 C64 1_555 1_555
H44 C66 1_555 1_555
C67 Ru1 1_555 1_555
C68 Ru1 1_555 1_555
H45 C68 1_555 1_555
C69 Ru1 1_555 1_555
H46 C69 1_555 1_555
C70 Ru1 1_555 1_555
H47 C70 1_555 1_555
C71 C67 1_555 1_555
H48 C71 1_555 1_555
C72 Ru1 1_555 1_555
C73 C72 1_555 1_555
H49 C73 1_555 1_555
H50 C73 1_555 1_555
H51 C73 1_555 1_555
C74 Ru1 1_555 1_555
H52 C74 1_555 1_555
C75 Ru8 1_555 1_555
H53 C75 1_555 1_555
C76 Ru8 1_555 1_555
H54 C76 1_555 1_555
C77 Ru8 1_555 1_555
H55 C77 1_555 1_555
C78 Ru8 1_555 1_555
C79 H56 1_555 1_555
C80 C82 1_555 1_555
C81 N7 1_555 1_555
H57 C81 1_555 1_555
C82 C79 1_555 1_555
H58 C82 1_555 1_555
C83 C80 1_555 1_555
H59 C83 1_555 1_555
C84 H60 1_555 1_555
C85 C84 1_555 1_555
H61 C85 1_555 1_555
C86 C85 1_555 1_555
C87 C86 1_555 1_555
H62 C87 1_555 1_555
C88 N3 1_555 1_555
H63 C88 1_555 1_555
O9 Ru1 1_555 1_555
O10 Ru1 1_555 1_555
O11 Ru8 1_555 1_555
O12 Ru8 1_555 1_555
O13 Ru5 1_555 1_555
O14 Ru5 1_555 1_555
O15 Ru3 1_555 1_555
O16 Ru3 1_555 1_555
O17 Ru7 1_555 1_555
O18 Ru7 1_555 1_555
O19 Ru6 1_555 1_555
C89 H64 1_555 1_555
C90 Co1 1_555 1_555
H65 C90 1_555 1_555
C91 Co1 1_555 1_555
H66 C91 1_555 1_555
C92 Co1 1_555 1_555
H67 C92 1_555 1_555
C93 Co1 1_555 1_555
C94 Co1 1_555 1_555
C95 Co1 1_555 1_555
C96 Co1 1_555 1_555
C97 H68 1_555 1_555
C98 Co2 1_555 1_555
H69 C98 1_555 1_555
C99 Co2 1_555 1_555
H70 C99 1_555 1_555
C100 Co2 1_555 1_555
H71 C100 1_555 1_555
C101 Co2 1_555 1_555
H72 C101 1_555 1_555
C102 Co2 1_555 1_555
C103 Co2 1_555 1_555
C104 Co2 1_555 1_555
C105 Co2 1_555 1_555
C106 Co1 1_555 1_555
H73 C106 1_555 1_555
C107 Ru5 1_555 1_555
H74 C107 1_555 1_555
C108 Ru5 1_555 1_555
H75 C108 1_555 1_555
C109 Ru5 1_555 1_555
H76 C109 1_555 1_555
C110 Ru5 1_555 1_555
C111 Ru3 1_555 1_555
H77 C111 1_555 1_555
C112 Ru3 1_555 1_555
C113 Ru3 1_555 1_555
H78 C113 1_555 1_555
C114 Ru3 1_555 1_555
C115 Ru3 1_555 1_555
H79 C115 1_555 1_555
C116 Ru3 1_555 1_555
H80 C116 1_555 1_555
C117 Ru5 1_555 1_555
C118 C117 1_555 1_555
H81 C118 1_555 1_555
H82 C118 1_555 1_555
H83 C118 1_555 1_555
C119 C110 1_555 1_555
H84 C119 1_555 1_555
C120 C41 1_555 1_555
H85 C120 1_555 1_555
H86 C120 1_555 1_555
H87 C120 1_555 1_555
C121 C43 1_555 1_555
H88 C121 1_555 1_555
C122 Ru5 1_555 1_555
H89 C122 1_555 1_555
C123 C112 1_555 1_555
H90 C123 1_555 1_555
C124 C123 1_555 1_555
H91 C124 1_555 1_555
H92 C124 1_555 1_555
H93 C124 1_555 1_555
C125 H94 1_555 1_555
C126 Ru8 1_555 1_555
C127 C114 1_555 1_555
H95 C127 1_555 1_555
H96 C127 1_555 1_555
H97 C127 1_555 1_555
C128 C123 1_555 1_555
H98 C128 1_555 1_555
H99 C128 1_555 1_555
H100 C128 1_555 1_555
C129 C38 1_555 1_555
H101 C129 1_555 1_555
H102 C129 1_555 1_555
H103 C129 1_555 1_555
C130 C39 1_555 1_555
H104 C130 1_555 1_555
C131 C130 1_555 1_555
H105 C131 1_555 1_555
H106 C131 1_555 1_555
H107 C131 1_555 1_555
C132 Ru8 1_555 1_555
H108 C132 1_555 1_555
C133 C125 1_555 1_555
H109 C133 1_555 1_555
H110 C133 1_555 1_555
H111 C133 1_555 1_555
C134 C14 1_555 1_555
H112 C134 1_555 1_555
H113 C134 1_555 1_555
H114 C134 1_555 1_555
C135 C14 1_555 1_555
H115 C135 1_555 1_555
H116 C135 1_555 1_555
H117 C135 1_555 1_555
C136 C121 1_555 1_555
H118 C136 1_555 1_555
H119 C136 1_555 1_555
H120 C136 1_555 1_555
C137 C121 1_555 1_555
H121 C137 1_555 1_555
H122 C137 1_555 1_555
H123 C137 1_555 1_555
C138 C119 1_555 1_555
H124 C138 1_555 1_555
H125 C138 1_555 1_555
H126 C138 1_555 1_555
C139 C119 1_555 1_555
H127 C139 1_555 1_555
H128 C139 1_555 1_555
H129 C139 1_555 1_555
C140 C71 1_555 1_555
H130 C140 1_555 1_555
H131 C140 1_555 1_555
H132 C140 1_555 1_555
C141 C71 1_555 1_555
H133 C141 1_555 1_555
H134 C141 1_555 1_555
H135 C141 1_555 1_555
C142 C8 1_555 1_555
H136 C142 1_555 1_555
H137 C142 1_555 1_555
H138 C142 1_555 1_555
C143 C7 1_555 1_555
H139 C143 1_555 1_555
H140 C143 1_555 1_555
H141 C143 1_555 1_555
C144 C8 1_555 1_555
H142 C144 1_555 1_555
H143 C144 1_555 1_555
H144 C144 1_555 1_555
C145 C78 1_555 1_555
H145 C145 1_555 1_555
H146 C145 1_555 1_555
H147 C145 1_555 1_555
C146 C125 1_555 1_555
H148 C146 1_555 1_555
H149 C146 1_555 1_555
H150 C146 1_555 1_555
C147 C130 1_555 1_555
H151 C147 1_555 1_555
H152 C147 1_555 1_555
H153 C147 1_555 1_555
S2 C148 1_555 1_555
F4 C148 1_555 1_555
F5 C148 1_555 1_555
F6 C148 1_555 1_555
O20 S2 1_555 1_555
O21 S2 1_555 1_555
O22 S2 1_555 1_555
S3 C149 1_555 1_555
C149 F7 1_555 1_555
O23 S3 1_555 1_555
O24 S3 1_555 1_555
F8 C149 1_555 1_555
F9 C149 1_555 1_555
O25 S3 1_555 1_555
Cl1 C150 1_555 1_555
C150 Cl2 1_555 1_555
Cl3 C150 1_555 1_555
S4 O26 1_555 1_555
O27 S4 1_555 1_555
O28 S4 1_555 1_555
F10 C151 1_555 1_555
F11 C151 1_555 1_555
C151 S4 1_555 1_555
F12 C151 1_555 1_555
Cl4 C152 1_555 1_555
Cl5 C152 1_555 1_555
Cl6 C152 1_555 1_555
S5 O29 1_555 1_555
O30 S5 1_555 1_555
O31 S5 1_555 1_555
C153 S5 1_555 1_555
F13 C153 1_555 1_555
F14 C153 1_555 1_555
F15 C153 1_555 1_555
S6 C154 1_555 1_555
C154 F16 1_555 1_555
O32 S6 1_555 1_555
O33 S6 1_555 1_555
O34 S6 1_555 1_555
F17 C154 1_555 1_555
F18 C154 1_555 1_555
Cl7 C155 1_555 1_555
Cl8 C155 1_555 1_555
Cl9 C155 1_555 1_555
Cl10 C156 1_555 1_555
Cl11 C156 1_555 1_555
Cl12 C156 1_555 1_555
O35 C157 1_555 1_555
O36 C158 1_555 1_555
C159 O37 1_555 1_555
O38 C160 1_555 1_555
C2 C6 1_555 1_555
C2 C7 1_555 1_555
C3 C4 1_555 1_555
C3 C6 1_555 1_555
C4 C5 1_555 1_555
C5 C7 1_555 1_555
C9 C13 1_555 1_555
C10 C11 1_555 1_555
C10 C12 1_555 1_555
C12 C15 1_555 1_555
C13 C15 1_555 1_555
C17 C19 1_555 1_555
C18 C93 1_555 1_555
C20 C21 1_555 1_555
C22 C102 1_555 1_555
C25 C26 1_555 1_555
O7 C27 1_555 1_555
O8 C28 1_555 1_555
C27 C28 1_555 1_555
C29 O14 1_555 1_555
C29 O16 1_555 1_555
C30 O15 1_555 1_555
C31 O10 1_555 1_555
C31 O12 1_555 1_555
C32 O17 1_555 1_555
C32 O19 1_555 1_555
C34 O11 1_555 1_555
C35 C36 1_555 1_555
C35 C39 1_555 1_555
C36 C38 1_555 1_555
C37 C38 1_555 1_555
C37 C40 1_555 1_555
C39 C40 1_555 1_555
C41 C46 1_555 1_555
C42 C45 1_555 1_555
C43 C44 1_555 1_555
C43 C45 1_555 1_555
C44 C46 1_555 1_555
C47 C95 1_555 1_555
C50 C51 1_555 1_555
C52 C104 1_555 1_555
C54 C56 1_555 1_555
C58 C60 1_555 1_555
C58 C96 1_555 1_555
C59 C61 1_555 1_555
C62 C63 1_555 1_555
C64 C103 1_555 1_555
C65 C66 1_555 1_555
C67 C68 1_555 1_555
C67 C69 1_555 1_555
C68 C74 1_555 1_555
C69 C70 1_555 1_555
C70 C72 1_555 1_555
C72 C74 1_555 1_555
C75 C76 1_555 1_555
C75 C78 1_555 1_555
C76 C126 1_555 1_555
C77 C78 1_555 1_555
C77 C132 1_555 1_555
C80 C105 1_555 1_555
C81 C83 1_555 1_555
C86 C94 1_555 1_555
C87 C88 1_555 1_555
C89 C90 1_555 1_555
C89 C92 1_555 1_555
C90 C91 1_555 1_555
C91 C106 1_555 1_555
C92 C106 1_555 1_555
C93 C94 1_555 1_555
C93 C96 1_555 1_555
C94 C95 1_555 1_555
C95 C96 1_555 1_555
C97 C98 1_555 1_555
C97 C101 1_555 1_555
C98 C100 1_555 1_555
C99 C100 1_555 1_555
C99 C101 1_555 1_555
C102 C103 1_555 1_555
C102 C105 1_555 1_555
C103 C104 1_555 1_555
C104 C105 1_555 1_555
C107 C108 1_555 1_555
C107 C117 1_555 1_555
C108 C110 1_555 1_555
C109 C117 1_555 1_555
C109 C122 1_555 1_555
C110 C122 1_555 1_555
C111 C112 1_555 1_555
C111 C113 1_555 1_555
C112 C115 1_555 1_555
C113 C114 1_555 1_555
C114 C116 1_555 1_555
C115 C116 1_555 1_555
C125 C126 1_555 1_555
C126 C132 1_555 1_555

#END
