
#######################################################################
#
#                 Cambridge Crystallographic Data Centre
#                                CCDC 
#
#######################################################################
#
# If this CIF has been generated from an entry in the Cambridge 
# Structural Database, then it will include bibliographic, chemical, 
# crystal, experimental, refinement or atomic coordinate data resulting 
# from the CCDC's data processing and validation procedures.
#
#######################################################################

data_DARKUE
_chemical_formula_moiety         
'C68 H52 Ir2 N8 2+,2(C1 F3 O3 S1 1-),3.5(H2 O1)'
_chemical_name_systematic        
"bis(\m~2~-4,4'-ethene-1,2-diylbispyridine)-tetrakis(2-(pyridin-2-yl)phenyl)-di-iridium bis(trifluoromethanesulfonate) hydrate"
_symmetry_cell_setting           monoclinic
_symmetry_space_group_name_H-M   'P 21/c'
_symmetry_Int_Tables_number      14
_space_group_name_Hall           '-P 2ybc'
loop_
_symmetry_equiv_pos_site_id
_symmetry_equiv_pos_as_xyz
1 x,y,z
2 -x,1/2+y,1/2-z
3 -x,-y,-z
4 x,1/2-y,1/2+z
_cell_length_a                   19.2549(15)
_cell_length_b                   42.139(3)
_cell_length_c                   10.8346(9)
_cell_angle_alpha                90
_cell_angle_beta                 103.904(2)
_cell_angle_gamma                90
_cell_volume                     8533.42
_exptl_crystal_colour            yellow
_exptl_crystal_description       block
_cell_formula_units_Z            4
loop_
_atom_site_label
_atom_site_type_symbol
_atom_site_fract_x
_atom_site_fract_y
_atom_site_fract_z
Ir1 Ir 0.60038(4) 0.172682(19) -0.13429(8)
Ir2 Ir 0.78243(4) -0.02628(2) 0.33791(8)
N1 N 0.8063(9) 0.0246(4) 0.3657(15)
N2 N 0.6535(10) 0.1567(5) -0.2627(16)
N3 N 0.5455(9) 0.1927(4) -0.0195(15)
N4 N 0.6987(8) -0.0167(4) 0.1685(16)
N5 N 0.6865(8) 0.1645(3) 0.0308(14)
N6 N 0.8665(9) -0.0273(4) 0.2531(14)
N7 N 0.7024(8) -0.0301(5) 0.4352(17)
N8 N 0.5681(8) 0.1229(4) -0.1288(14)
C1 C 0.6276(11) -0.0328(5) -0.040(2)
H1 H 0.6162 -0.0483 -0.1049
C2 C 0.6042(10) 0.0170(5) 0.0512(19)
H2 H 0.5767 0.0358 0.0461
C3 C 0.5913(10) -0.0042(5) -0.0487(19)
C4 C 0.8117(11) 0.0435(5) 0.2717(18)
H3 H 0.8014 0.0347 0.1887
C5 C 0.8600(12) 0.1468(6) 0.358(2)
H4 H 0.8897 0.1647 0.3852
C6 C 0.8404(12) 0.0683(7) 0.501(2)
H5 H 0.8520 0.0758 0.5860
C7 C 0.8185(12) 0.0384(5) 0.4765(19)
H6 H 0.8113 0.0261 0.5458
C8 C 0.8781(11) 0.1198(6) 0.4272(19)
H7 H 0.9165 0.1217 0.5006
C9 C 0.6825(11) -0.0375(5) 0.071(2)
H8 H 0.7096 -0.0565 0.0775
C10 C 0.6563(11) 0.0107(5) 0.1566(19)
H9 H 0.6645 0.0254 0.2250
C11 C 0.4698(13) 0.1952(7) 0.127(2)
H10 H 0.4422 0.1829 0.1709
C12 C 0.5106(15) 0.1796(7) 0.049(2)
H11 H 0.5108 0.1571 0.0504
C13 C 0.8304(10) 0.0738(6) 0.283(2)
H12 H 0.8331 0.0857 0.2096
C14 C 0.5515(13) 0.2255(6) -0.008(2)
C15 C 0.5307(9) -0.0003(5) -0.1617(19)
H13 H 0.5107 -0.0193 -0.2023
C16 C 0.8460(10) 0.0881(5) 0.4033(18)
C17 C 0.5002(11) 0.0271(5) -0.214(2)
H14 H 0.4581 0.0248 -0.2803
C18 C 0.5205(11) 0.1796(4) -0.2917(18)
C19 C 0.5155(18) 0.2436(7) 0.063(3)
H15 H 0.5188 0.2660 0.0654
C20 C 0.7190(15) 0.1417(6) -0.455(3)
H16 H 0.7411 0.1372 -0.5230
C21 C 0.7569(14) 0.1398(6) -0.332(3)
H17 H 0.8063 0.1348 -0.3036
C22 C 0.6312(12) 0.2185(4) -0.1463(19)
C23 C 0.8607(10) -0.0358(4) 0.4929(18)
C24 C 0.710(2) 0.1466(6) -0.257(4)
H18 H 0.7315 0.1410 -0.1710
C25 C 0.6141(14) 0.1563(5) -0.382(2)
C26 C 0.6487(16) 0.1501(7) -0.480(3)
H19 H 0.6223 0.1519 -0.5661
C27 C 0.7988(11) 0.1519(4) 0.2430(18)
C28 C 0.4705(19) 0.2256(7) 0.137(3)
H20 H 0.4442 0.2363 0.1884
C29 C 0.6150(8) 0.1001(4) -0.1228(15)
H21 H 0.6645 0.1050 -0.0990
C30 C 0.6274(13) -0.0673(8) 0.513(2)
H22 H 0.6104 -0.0882 0.5209
C31 C 0.4238(15) 0.1807(6) -0.524(2)
H23 H 0.3916 0.1810 -0.6056
C32 C 0.7131(11) -0.0849(6) 0.378(2)
C33 C 0.9197(11) -0.0244(5) 0.0762(18)
H24 H 0.9139 -0.0211 -0.0124
C34 C 0.5241(10) 0.0602(4) -0.1819(17)
C35 C 0.6803(11) 0.1425(4) 0.1209(18)
H25 H 0.6368 0.1310 0.1101
C36 C 0.6900(14) -0.1165(7) 0.369(3)
H26 H 0.6533 -0.1232 0.4076
C37 C 0.4728(10) 0.0847(5) -0.1856(19)
H27 H 0.4231 0.0800 -0.2044
C38 C 0.7500(13) 0.1804(5) 0.052(2)
H28 H 0.7556 0.1965 -0.0057
C39 C 0.8572(12) -0.0413(6) 0.616(2)
H29 H 0.8121 -0.0406 0.6372
C40 C 0.9314(11) -0.0373(5) 0.466(2)
C41 C 0.9845(12) -0.0498(6) 0.688(2)
H30 H 1.0252 -0.0553 0.7536
C42 C 0.7638(10) -0.0727(5) 0.320(2)
C43 C 0.8058(13) 0.1742(5) 0.154(2)
H31 H 0.8497 0.1853 0.1633
C44 C 0.8638(9) -0.0227(4) 0.1305(17)
H32 H 0.8184 -0.0177 0.0766
C45 C 0.9857(13) -0.0311(6) 0.155(2)
H33 H 1.0272 -0.0324 0.1219
C46 C 0.4965(12) 0.1148(5) -0.162(2)
H34 H 0.4621 0.1313 -0.1679
C47 C 0.4930(19) 0.1682(5) -0.516(3)
H35 H 0.5066 0.1607 -0.5892
C48 C 0.3993(15) 0.1923(5) -0.424(3)
H36 H 0.3533 0.2014 -0.4323
C49 C 0.7754(15) -0.1272(6) 0.251(3)
H37 H 0.8009 -0.1425 0.2147
C50 C 0.5944(10) 0.0688(4) -0.1501(17)
H38 H 0.6300 0.0530 -0.1467
C51 C 0.6874(16) 0.2614(6) -0.222(3)
H39 H 0.7184 0.2689 -0.2720
C52 C 0.6809(12) -0.0622(7) 0.440(2)
C53 C 0.6759(13) 0.2279(6) -0.2219(19)
H40 H 0.6971 0.2135 -0.2693
C54 C 0.7334(11) 0.1367(5) 0.2238(18)
H41 H 0.7259 0.1217 0.2850
C55 C 0.5386(15) 0.1672(5) -0.402(2)
C56 C 0.6178(15) 0.2726(7) -0.091(2)
H42 H 0.5991 0.2878 -0.0433
C57 C 0.6769(12) -0.0070(7) 0.486(2)
H43 H 0.6935 0.0139 0.4767
C58 C 0.9315(11) -0.0334(5) 0.3344(19)
C59 C 0.4562(12) 0.1889(5) -0.295(3)
H44 H 0.4433 0.1937 -0.2180
C60 C 0.7934(13) -0.0953(7) 0.249(3)
H45 H 0.8257 -0.0886 0.2006
C61 C 0.9168(13) -0.0477(5) 0.709(2)
H46 H 0.9115 -0.0510 0.7927
C62 C 0.9888(11) -0.0428(6) 0.560(2)
H47 H 1.0347 -0.0421 0.5422
C63 C 0.9902(11) -0.0359(6) 0.284(2)
H48 H 1.0351 -0.0411 0.3389
C64 C 0.5990(15) 0.2401(6) -0.084(2)
C65 C 0.6023(15) -0.0434(10) 0.568(3)
H49 H 0.5684 -0.0475 0.6166
C66 C 0.6600(15) 0.2822(6) -0.162(3)
H50 H 0.6700 0.3041 -0.1686
C67 C 0.7205(16) -0.1368(7) 0.305(3)
H51 H 0.7045 -0.1582 0.2954
C68 C 0.6245(13) -0.0118(8) 0.555(2)
H52 H 0.6049 0.0054 0.5918
S1 S 0.8385(3) 0.07055(16) 0.9164(6)
F1 F 0.8273(7) 0.0172(3) 0.7943(13)
F2 F 0.7370(7) 0.0490(4) 0.7306(12)
F3 F 0.7510(8) 0.0244(4) 0.9122(14)
O1 O 0.8708(8) 0.0844(4) 0.8223(13)
O2 O 0.7883(8) 0.0906(4) 0.9559(13)
O3 O 0.8893(8) 0.0557(4) 1.0184(14)
C69 C 0.7884(8) 0.0410(4) 0.8366(15)
S2 S 0.5319(5) 0.09364(19) 0.2456(7)
F4 F 0.5649(10) 0.0887(4) 0.4937(14)
F5 F 0.6528(9) 0.0808(4) 0.392(2)
F6 F 0.5720(8) 0.0446(4) 0.3847(19)
O4 O 0.5459(10) 0.1267(4) 0.2546(18)
O5 O 0.4599(10) 0.0876(5) 0.244(2)
O6 O 0.5579(12) 0.0809(5) 0.148(2)
C70 C 0.5820(10) 0.0765(5) 0.386(3)
O7 O 0.7766(9) -0.0834(4) -0.1313(17)
O8 O 0.9622(13) 0.1349(6) 0.121(2)
O9 O 0.6575(14) -0.1240(6) -0.032(3)
O10 O 1.0579(14) 0.1561(6) 0.546(2)
loop_
_geom_bond_atom_site_label_1
_geom_bond_atom_site_label_2
_geom_bond_site_symmetry_1
_geom_bond_site_symmetry_2
Ir1 N2 1_555 1_555
Ir2 N1 1_555 1_555
N1 C4 1_555 1_555
N2 C24 1_555 1_555
N3 Ir1 1_555 1_555
N4 Ir2 1_555 1_555
N5 Ir1 1_555 1_555
N6 Ir2 1_555 1_555
N7 Ir2 1_555 1_555
N8 Ir1 1_555 1_555
C1 H1 1_555 1_555
C2 H2 1_555 1_555
C3 C1 1_555 1_555
C4 H3 1_555 1_555
C5 H4 1_555 1_555
C6 H5 1_555 1_555
C7 N1 1_555 1_555
H6 C7 1_555 1_555
C8 C5 1_555 1_555
H7 C8 1_555 1_555
C9 N4 1_555 1_555
H8 C9 1_555 1_555
C10 N4 1_555 1_555
H9 C10 1_555 1_555
C11 H10 1_555 1_555
C12 N3 1_555 1_555
H11 C12 1_555 1_555
C13 C4 1_555 1_555
H12 C13 1_555 1_555
C14 N3 1_555 1_555
C15 C3 1_555 1_555
H13 C15 1_555 1_555
C16 C6 1_555 1_555
C17 C15 1_555 1_555
H14 C17 1_555 1_555
C18 Ir1 1_555 1_555
C19 C14 1_555 1_555
H15 C19 1_555 1_555
C20 H16 1_555 1_555
C21 C20 1_555 1_555
H17 C21 1_555 1_555
C22 Ir1 1_555 1_555
C23 Ir2 1_555 1_555
C24 C21 1_555 1_555
H18 C24 1_555 1_555
C25 N2 1_555 1_555
C26 C20 1_555 1_555
H19 C26 1_555 1_555
C27 C5 1_555 1_555
C28 C11 1_555 1_555
H20 C28 1_555 1_555
C29 N8 1_555 1_555
H21 C29 1_555 1_555
C30 H22 1_555 1_555
C31 H23 1_555 1_555
C32 C36 1_555 1_555
C33 H24 1_555 1_555
C34 C17 1_555 1_555
C35 N5 1_555 1_555
H25 C35 1_555 1_555
C36 H26 1_555 1_555
C37 C34 1_555 1_555
H27 C37 1_555 1_555
C38 N5 1_555 1_555
H28 C38 1_555 1_555
C39 C23 1_555 1_555
H29 C39 1_555 1_555
C40 C23 1_555 1_555
C41 H30 1_555 1_555
C42 Ir2 1_555 1_555
C43 C27 1_555 1_555
H31 C43 1_555 1_555
C44 N6 1_555 1_555
H32 C44 1_555 1_555
C45 C33 1_555 1_555
H33 C45 1_555 1_555
C46 N8 1_555 1_555
H34 C46 1_555 1_555
C47 C31 1_555 1_555
H35 C47 1_555 1_555
C48 C31 1_555 1_555
H36 C48 1_555 1_555
C49 H37 1_555 1_555
C50 C29 1_555 1_555
H38 C50 1_555 1_555
C51 H39 1_555 1_555
C52 N7 1_555 1_555
C53 C22 1_555 1_555
H40 C53 1_555 1_555
C54 C27 1_555 1_555
H41 C54 1_555 1_555
C55 C18 1_555 1_555
C56 H42 1_555 1_555
C57 N7 1_555 1_555
H43 C57 1_555 1_555
C58 N6 1_555 1_555
C59 C18 1_555 1_555
H44 C59 1_555 1_555
C60 C42 1_555 1_555
H45 C60 1_555 1_555
C61 C39 1_555 1_555
H46 C61 1_555 1_555
C62 C40 1_555 1_555
H47 C62 1_555 1_555
C63 C45 1_555 1_555
H48 C63 1_555 1_555
C64 C14 1_555 1_555
C65 C30 1_555 1_555
H49 C65 1_555 1_555
C66 C51 1_555 1_555
H50 C66 1_555 1_555
C67 C36 1_555 1_555
H51 C67 1_555 1_555
C68 C57 1_555 1_555
H52 C68 1_555 1_555
S1 O1 1_555 1_555
F1 C69 1_555 1_555
F2 C69 1_555 1_555
F3 C69 1_555 1_555
O2 S1 1_555 1_555
O3 S1 1_555 1_555
C69 S1 1_555 1_555
S2 O4 1_555 1_555
F4 C70 1_555 1_555
F5 C70 1_555 1_555
F6 C70 1_555 1_555
O5 S2 1_555 1_555
O6 S2 1_555 1_555
C70 S2 1_555 1_555
C1 C9 1_555 1_555
C2 C3 1_555 1_555
C2 C10 1_555 1_555
C6 C7 1_555 1_555
C8 C16 1_555 1_555
C11 C12 1_555 1_555
C13 C16 1_555 1_555
C19 C28 1_555 1_555
C22 C64 1_555 1_555
C25 C26 1_555 1_555
C25 C55 1_555 1_555
C30 C52 1_555 1_555
C32 C42 1_555 1_555
C32 C52 1_555 1_555
C33 C44 1_555 1_555
C34 C50 1_555 1_555
C35 C54 1_555 1_555
C37 C46 1_555 1_555
C38 C43 1_555 1_555
C40 C58 1_555 1_555
C41 C61 1_555 1_555
C41 C62 1_555 1_555
C47 C55 1_555 1_555
C48 C59 1_555 1_555
C49 C60 1_555 1_555
C49 C67 1_555 1_555
C51 C53 1_555 1_555
C56 C64 1_555 1_555
C56 C66 1_555 1_555
C58 C63 1_555 1_555
C65 C68 1_555 1_555

#END
