
#######################################################################
#
#                 Cambridge Crystallographic Data Centre
#                                CCDC 
#
#######################################################################
#
# If this CIF has been generated from an entry in the Cambridge 
# Structural Database, then it will include bibliographic, chemical, 
# crystal, experimental, refinement or atomic coordinate data resulting 
# from the CCDC's data processing and validation procedures.
#
#######################################################################

data_DARKOY
_chemical_formula_moiety         
'C68 H56 Ir2 N8 2+,2(C1 F3 O3 S1 1-),4(C2 H3 N1)'
_chemical_name_systematic        
"bis(\m~2~-4,4'-ethane-1,2-diylbispyridine)-tetrakis(2-(pyridin-2-yl)phenyl)-di-iridium bis(trifluoromethanesulfonate) acetonitrile solvate"
_symmetry_cell_setting           monoclinic
_symmetry_space_group_name_H-M   'C 2/c'
_symmetry_Int_Tables_number      15
_space_group_name_Hall           '-C 2yn'
loop_
_symmetry_equiv_pos_site_id
_symmetry_equiv_pos_as_xyz
1 x,y,z
2 -x,y,1/2-z
3 1/2+x,1/2+y,z
4 1/2-x,1/2+y,1/2-z
5 -x,-y,-z
6 x,-y,1/2+z
7 1/2-x,1/2-y,-z
8 1/2+x,1/2-y,1/2+z
_cell_length_a                   21.1749(17)
_cell_length_b                   19.4858(17)
_cell_length_c                   19.0358(17)
_cell_angle_alpha                90
_cell_angle_beta                 97.544(2)
_cell_angle_gamma                90
_cell_volume                     7786.37
_exptl_crystal_colour            yellow
_exptl_crystal_description       block
_cell_formula_units_Z            4
loop_
_atom_site_label
_atom_site_type_symbol
_atom_site_fract_x
_atom_site_fract_y
_atom_site_fract_z
Ir1 Ir 0.276700(10) 0.075236(11) 0.635677(11)
C1 C 0.2121(2) 0.1468(3) 0.5993(3)
N1 N 0.34656(19) -0.0018(2) 0.6741(2)
C2 C 0.2101(2) 0.0033(3) 0.6089(3)
N2 N 0.34817(19) 0.1538(2) 0.6657(2)
N3 N 0.2965(2) 0.0844(2) 0.5332(2)
C3 C 0.4383(2) 0.2590(3) 0.6941(3)
N4 N 0.2427(2) 0.0643(2) 0.7315(2)
C4 C 0.1472(3) -0.0806(3) 0.5342(3)
H1 H 0.1387 -0.1035 0.4900
C5 C 0.1685(3) 0.2126(3) 0.4944(3)
H2 H 0.1678 0.2218 0.4453
C6 C 0.4538(2) 0.1976(3) 0.6657(3)
H3 H 0.4960 0.1899 0.6558
C7 C 0.1733(2) -0.0138(3) 0.6637(3)
C8 C 0.2603(3) 0.1299(3) 0.4178(3)
H4 H 0.2316 0.1581 0.3880
C9 C 0.2100(2) 0.1636(3) 0.5273(3)
C10 C 0.1963(3) -0.0313(3) 0.5452(3)
H5 H 0.2205 -0.0216 0.5079
C11 C 0.3423(3) 0.0498(3) 0.5044(3)
H6 H 0.3712 0.0220 0.5345
C12 C 0.1291(3) 0.2321(3) 0.6051(3)
H7 H 0.1012 0.2557 0.6320
C13 C 0.1115(3) -0.0954(3) 0.5885(3)
H8 H 0.0782 -0.1283 0.5814
C14 C 0.1244(3) -0.0623(3) 0.6525(3)
H9 H 0.0999 -0.0726 0.6895
C15 C 0.4854(2) 0.3159(3) 0.7107(3)
H10 H 0.4640 0.3604 0.6992
H11 H 0.5199 0.3110 0.6806
C16 C 0.4237(3) -0.0463(3) 0.7665(3)
H12 H 0.4493 -0.0384 0.8106
C17 C 0.2390(3) 0.0871(3) 0.8539(3)
H13 H 0.2564 0.1103 0.8959
C18 C 0.2561(2) 0.1256(3) 0.4899(3)
C19 C 0.3497(2) -0.0632(3) 0.6410(3)
H14 H 0.3239 -0.0700 0.5969
C20 C 0.3759(2) 0.2670(3) 0.7084(3)
H15 H 0.3631 0.3087 0.7283
C21 C 0.2649(3) 0.0959(3) 0.7922(3)
H16 H 0.3004 0.1259 0.7926
C22 C 0.1699(3) 0.1828(3) 0.6375(3)
H17 H 0.1696 0.1730 0.6863
C23 C 0.1283(3) 0.2478(3) 0.5332(3)
H18 H 0.1004 0.2821 0.5114
C24 C 0.1875(3) 0.0440(3) 0.8539(3)
H19 H 0.1686 0.0371 0.8959
C25 C 0.1921(2) 0.0205(3) 0.7305(3)
C26 C 0.1638(3) 0.0110(3) 0.7919(3)
H20 H 0.1279 -0.0183 0.7910
C27 C 0.3842(2) 0.0050(3) 0.7355(3)
H21 H 0.3839 0.0477 0.7595
C28 C 0.3486(3) 0.0531(3) 0.4339(3)
H22 H 0.3815 0.0283 0.4156
C29 C 0.4083(2) 0.1470(3) 0.6515(3)
H23 H 0.4201 0.1053 0.6307
C30 C 0.3328(3) 0.2144(3) 0.6936(3)
H24 H 0.2904 0.2210 0.7034
C31 C 0.3065(3) 0.0930(3) 0.3897(3)
H25 H 0.3095 0.0949 0.3404
C33 C 0.3888(2) -0.1163(3) 0.6685(3)
H26 H 0.3901 -0.1579 0.6427
C34 C 0.4257(2) -0.1088(3) 0.7332(3)
C35 C 0.4675(2) -0.1671(3) 0.7637(3)
H27 H 0.4457 -0.2112 0.7510
H28 H 0.4740 -0.1633 0.8160
Ir1A Ir 0.723300(10) 0.075236(11) 0.864323(11)
C1A C 0.7879(2) 0.1468(3) 0.9007(3)
N1A N 0.65344(19) -0.0018(2) 0.8259(2)
C2A C 0.7899(2) 0.0033(3) 0.8911(3)
N2A N 0.65183(19) 0.1538(2) 0.8343(2)
N3A N 0.7035(2) 0.0844(2) 0.9668(2)
C3A C 0.5617(2) 0.2590(3) 0.8059(3)
N4A N 0.7573(2) 0.0643(2) 0.7685(2)
C4A C 0.8528(3) -0.0806(3) 0.9658(3)
H1A H 0.8613 -0.1035 1.0100
C5A C 0.8315(3) 0.2126(3) 1.0056(3)
H2A H 0.8322 0.2218 1.0547
C6A C 0.5462(2) 0.1976(3) 0.8343(3)
H3A H 0.5040 0.1899 0.8442
C7A C 0.8267(2) -0.0138(3) 0.8363(3)
C8A C 0.7397(3) 0.1299(3) 1.0822(3)
H4A H 0.7684 0.1581 1.1120
C9A C 0.7900(2) 0.1636(3) 0.9727(3)
C10A C 0.8037(3) -0.0313(3) 0.9548(3)
H5A H 0.7795 -0.0216 0.9921
C11A C 0.6577(3) 0.0498(3) 0.9956(3)
H6A H 0.6288 0.0220 0.9655
C12A C 0.8709(3) 0.2321(3) 0.8949(3)
H7A H 0.8988 0.2557 0.8680
C13A C 0.8885(3) -0.0954(3) 0.9115(3)
H8A H 0.9218 -0.1283 0.9186
C14A C 0.8756(3) -0.0623(3) 0.8475(3)
H9A H 0.9001 -0.0726 0.8105
C15A C 0.5146(2) 0.3159(3) 0.7893(3)
H10A H 0.5360 0.3604 0.8008
H11A H 0.4801 0.3110 0.8194
C16A C 0.5763(3) -0.0463(3) 0.7335(3)
H12A H 0.5507 -0.0384 0.6894
C17A C 0.7610(3) 0.0871(3) 0.6461(3)
H13A H 0.7436 0.1103 0.6041
C18A C 0.7439(2) 0.1256(3) 1.0101(3)
C19A C 0.6503(2) -0.0632(3) 0.8590(3)
H14A H 0.6761 -0.0700 0.9031
C20A C 0.6241(2) 0.2670(3) 0.7916(3)
H15A H 0.6369 0.3087 0.7717
C21A C 0.7351(3) 0.0959(3) 0.7078(3)
H16A H 0.6996 0.1259 0.7074
C22A C 0.8301(3) 0.1828(3) 0.8625(3)
H17A H 0.8304 0.1730 0.8137
C23A C 0.8717(3) 0.2478(3) 0.9668(3)
H18A H 0.8996 0.2821 0.9886
C24A C 0.8125(3) 0.0440(3) 0.6461(3)
H19A H 0.8314 0.0371 0.6041
C25A C 0.8079(2) 0.0205(3) 0.7695(3)
C26A C 0.8362(3) 0.0110(3) 0.7081(3)
H20A H 0.8721 -0.0183 0.7090
C27A C 0.6158(2) 0.0050(3) 0.7645(3)
H21A H 0.6161 0.0477 0.7405
C28A C 0.6514(3) 0.0531(3) 1.0661(3)
H22A H 0.6185 0.0283 1.0844
C29A C 0.5917(2) 0.1470(3) 0.8485(3)
H23A H 0.5799 0.1053 0.8693
C30A C 0.6672(3) 0.2144(3) 0.8064(3)
H24A H 0.7096 0.2210 0.7966
C31A C 0.6935(3) 0.0930(3) 1.1103(3)
H25A H 0.6905 0.0949 1.1596
C33A C 0.6112(2) -0.1163(3) 0.8315(3)
H26A H 0.6099 -0.1579 0.8573
C34A C 0.5743(2) -0.1088(3) 0.7668(3)
C35A C 0.5325(2) -0.1671(3) 0.7363(3)
H27A H 0.5543 -0.2112 0.7490
H28A H 0.5260 -0.1633 0.6840
S1 S 0.40332(8) 0.15072(9) 0.95126(9)
F1 F 0.47933(17) 0.25681(19) 0.96547(18)
F2 F 0.39488(19) 0.2677(2) 1.0154(2)
O1 O 0.3859(2) 0.1772(3) 0.8823(2)
F3 F 0.47117(19) 0.2040(3) 1.0630(2)
O2 O 0.3513(2) 0.1328(2) 0.9899(2)
C32 C 0.4387(3) 0.2226(4) 1.0003(4)
O3 O 0.4552(3) 0.1020(3) 0.9586(4)
C36 C 0.2537(3) -0.1975(4) 0.6737(5)
N6 N 0.2545(3) -0.1776(4) 0.7302(4)
C38 C 0.2559(4) -0.2243(4) 0.6056(5)
H32 H 0.2908 -0.2576 0.6072
H33 H 0.2631 -0.1869 0.5731
H34 H 0.2155 -0.2471 0.5889
C37 C 0.0521(3) -0.0792(3) 1.0246(3)
H29 H 0.0737 -0.0448 1.0568
H30 H 0.0724 -0.1240 1.0343
H31 H 0.0071 -0.0820 1.0318
N5 N 0.0593(3) -0.0423(4) 0.8947(4)
C39 C 0.0565(3) -0.0595(3) 0.9518(4)
loop_
_geom_bond_atom_site_label_1
_geom_bond_atom_site_label_2
_geom_bond_site_symmetry_1
_geom_bond_site_symmetry_2
Ir1 C1 1_555 1_555
C1 C9 1_555 1_555
N1 Ir1 1_555 1_555
C2 Ir1 1_555 1_555
N2 Ir1 1_555 1_555
N3 Ir1 1_555 1_555
C3 C6 1_555 1_555
N4 Ir1 1_555 1_555
C4 H1 1_555 1_555
C5 H2 1_555 1_555
C6 H3 1_555 1_555
C7 C2 1_555 1_555
C8 H4 1_555 1_555
C9 C5 1_555 1_555
C10 C2 1_555 1_555
H5 C10 1_555 1_555
C11 N3 1_555 1_555
H6 C11 1_555 1_555
C12 H7 1_555 1_555
C13 C4 1_555 1_555
H8 C13 1_555 1_555
C14 C7 1_555 1_555
H9 C14 1_555 1_555
C15 C3 1_555 1_555
H10 C15 1_555 1_555
H11 C15 1_555 1_555
C16 H12 1_555 1_555
C17 H13 1_555 1_555
C18 N3 1_555 1_555
C19 N1 1_555 1_555
H14 C19 1_555 1_555
C20 C3 1_555 1_555
H15 C20 1_555 1_555
C21 N4 1_555 1_555
H16 C21 1_555 1_555
C22 C1 1_555 1_555
H17 C22 1_555 1_555
C23 C5 1_555 1_555
H18 C23 1_555 1_555
C24 C17 1_555 1_555
H19 C24 1_555 1_555
C25 N4 1_555 1_555
C26 C24 1_555 1_555
H20 C26 1_555 1_555
C27 N1 1_555 1_555
H21 C27 1_555 1_555
C28 C11 1_555 1_555
H22 C28 1_555 1_555
C29 N2 1_555 1_555
H23 C29 1_555 1_555
C30 N2 1_555 1_555
H24 C30 1_555 1_555
C31 C8 1_555 1_555
H25 C31 1_555 1_555
S1 O1 1_555 1_555
F1 C32 1_555 1_555
F2 C32 1_555 1_555
F3 C32 1_555 1_555
O2 S1 1_555 1_555
C32 S1 1_555 1_555
C33 C19 1_555 1_555
H26 C33 1_555 1_555
C34 C16 1_555 1_555
C35 C34 1_555 1_555
H27 C35 1_555 1_555
H28 C35 1_555 1_555
O3 S1 1_555 1_555
C36 N6 1_555 1_555
C37 H29 1_555 1_555
H30 C37 1_555 1_555
H31 C37 1_555 1_555
N5 C39 1_555 1_555
C38 C36 1_555 1_555
H32 C38 1_555 1_555
H33 C38 1_555 1_555
H34 C38 1_555 1_555
C39 C37 1_555 1_555
Ir1A C1A 1_555 1_555
C1A C9A 1_555 1_555
N1A Ir1A 1_555 1_555
C2A Ir1A 1_555 1_555
N2A Ir1A 1_555 1_555
N3A Ir1A 1_555 1_555
C3A C6A 1_555 1_555
N4A Ir1A 1_555 1_555
C4A H1A 1_555 1_555
C5A H2A 1_555 1_555
C6A H3A 1_555 1_555
C7A C2A 1_555 1_555
C8A H4A 1_555 1_555
C9A C5A 1_555 1_555
C10A C2A 1_555 1_555
H5A C10A 1_555 1_555
C11A N3A 1_555 1_555
H6A C11A 1_555 1_555
C12A H7A 1_555 1_555
C13A C4A 1_555 1_555
H8A C13A 1_555 1_555
C14A C7A 1_555 1_555
H9A C14A 1_555 1_555
C15A C15 1_555 1_555
H10A C15A 1_555 1_555
H11A C15A 1_555 1_555
C16A H12A 1_555 1_555
C17A H13A 1_555 1_555
C18A N3A 1_555 1_555
C19A N1A 1_555 1_555
H14A C19A 1_555 1_555
C20A C3A 1_555 1_555
H15A C20A 1_555 1_555
C21A N4A 1_555 1_555
H16A C21A 1_555 1_555
C22A C1A 1_555 1_555
H17A C22A 1_555 1_555
C23A C5A 1_555 1_555
H18A C23A 1_555 1_555
C24A C17A 1_555 1_555
H19A C24A 1_555 1_555
C25A N4A 1_555 1_555
C26A C24A 1_555 1_555
H20A C26A 1_555 1_555
C27A N1A 1_555 1_555
H21A C27A 1_555 1_555
C28A C11A 1_555 1_555
H22A C28A 1_555 1_555
C29A N2A 1_555 1_555
H23A C29A 1_555 1_555
C30A N2A 1_555 1_555
H24A C30A 1_555 1_555
C31A C8A 1_555 1_555
H25A C31A 1_555 1_555
C33A C19A 1_555 1_555
H26A C33A 1_555 1_555
C34A C16A 1_555 1_555
C35A C35 1_555 1_555
H27A C35A 1_555 1_555
H28A C35A 1_555 1_555
C4 C10 1_555 1_555
C6 C29 1_555 1_555
C7 C25 1_555 1_555
C8 C18 1_555 1_555
C9 C18 1_555 1_555
C12 C22 1_555 1_555
C12 C23 1_555 1_555
C13 C14 1_555 1_555
C16 C27 1_555 1_555
C17 C21 1_555 1_555
C20 C30 1_555 1_555
C25 C26 1_555 1_555
C28 C31 1_555 1_555
C33 C34 1_555 1_555
C3A C15A 1_555 1_555
C4A C10A 1_555 1_555
C6A C29A 1_555 1_555
C7A C25A 1_555 1_555
C8A C18A 1_555 1_555
C9A C18A 1_555 1_555
C12A C22A 1_555 1_555
C12A C23A 1_555 1_555
C13A C14A 1_555 1_555
C16A C27A 1_555 1_555
C17A C21A 1_555 1_555
C20A C30A 1_555 1_555
C25A C26A 1_555 1_555
C28A C31A 1_555 1_555
C33A C34A 1_555 1_555
C34A C35A 1_555 1_555

#END
