
#######################################################################
#
#                 Cambridge Crystallographic Data Centre
#                                CCDC 
#
#######################################################################
#
# If this CIF has been generated from an entry in the Cambridge 
# Structural Database, then it will include bibliographic, chemical, 
# crystal, experimental, refinement or atomic coordinate data resulting 
# from the CCDC's data processing and validation procedures.
#
#######################################################################

data_DATZUU
_chemical_formula_moiety         'C57 H48 Fe1 N4 O1,C1 H4 O1'
_chemical_name_systematic        
'5,10-bis(2,4,6-Trimethylphenyl)-19-(4-ferrocenylphenyl)-25-oxasmaragdyrin methanol clathrate'
_symmetry_cell_setting           monoclinic
_symmetry_space_group_name_H-M   'P 21/c'
_symmetry_Int_Tables_number      14
_space_group_name_Hall           '-P 2ybc'
loop_
_symmetry_equiv_pos_site_id
_symmetry_equiv_pos_as_xyz
1 x,y,z
2 -x,1/2+y,1/2-z
3 -x,-y,-z
4 x,1/2-y,1/2+z
_cell_length_a                   15.9431(7)
_cell_length_b                   12.5532(8)
_cell_length_c                   22.1151(10)
_cell_angle_alpha                90
_cell_angle_beta                 92.716(4)
_cell_angle_gamma                90
_cell_volume                     4421.08
_exptl_crystal_colour            blue
_exptl_crystal_description       prism
_chemical_melting_point          'decomposes above 320 deg.C'
_cell_formula_units_Z            4
_exptl_crystal_recrystallization_method dichloromethane/methanol
loop_
_atom_site_label
_atom_site_type_symbol
_atom_site_fract_x
_atom_site_fract_y
_atom_site_fract_z
C1 C 0.48482(17) 1.2256(2) 0.66548(11)
C2 C 0.43832(17) 1.2688(2) 0.70969(11)
C3 C 0.4528(2) 1.3638(2) 0.74220(12)
H1 H 0.4982(18) 1.405(2) 0.7373(11)
C4 C 0.39170(19) 1.3756(2) 0.78210(12)
H2 H 0.3898(17) 1.429(2) 0.8099(12)
C5 C 0.33650(18) 1.2888(2) 0.77647(11)
C6 C 0.26626(17) 1.2697(2) 0.80867(11)
C7 C 0.21007(16) 1.18185(19) 0.80584(10)
C8 C 0.13287(16) 1.1728(2) 0.83244(11)
H3 H 0.1099(18) 1.224(2) 0.8560(13)
C9 C 0.09777(17) 1.0761(2) 0.81673(11)
H4 H 0.0417(18) 1.0522(19) 0.8270(11)
C10 C 0.15255(16) 1.02214(19) 0.78013(10)
C11 C 0.14133(16) 0.92107(19) 0.75215(10)
C12 C 0.07707(17) 0.8461(2) 0.75948(12)
H5 H 0.0355(19) 0.853(2) 0.7846(13)
C13 C 0.09141(17) 0.7608(2) 0.72248(12)
H6 H 0.0601(17) 0.700(2) 0.7175(11)
C14 C 0.16499(16) 0.78147(18) 0.69158(11)
C15 C 0.20849(17) 0.72060(19) 0.64888(11)
C16 C 0.28359(17) 0.75655(19) 0.62601(11)
C17 C 0.33326(18) 0.7074(2) 0.58108(12)
H7 H 0.3233(16) 0.643(2) 0.5627(11)
C18 C 0.39784(18) 0.7742(2) 0.57110(12)
H8 H 0.4398(19) 0.762(2) 0.5456(13)
C19 C 0.38747(17) 0.8647(2) 0.60954(11)
C20 C 0.43616(17) 0.9584(2) 0.61097(11)
C21 C 0.50252(17) 0.9856(2) 0.57519(12)
H9 H 0.5246(18) 0.940(2) 0.5457(12)
C22 C 0.52743(18) 1.0873(2) 0.59027(11)
H10 H 0.5696(19) 1.126(2) 0.5766(12)
C23 C 0.47728(16) 1.1251(2) 0.63599(11)
C24 C 0.55658(17) 1.2913(2) 0.64380(11)
C25 C 0.63826(17) 1.2728(2) 0.66683(11)
C26 C 0.65625(19) 1.1949(2) 0.71753(13)
H11 H 0.6345 1.2223 0.7542
H12 H 0.7158 1.1849 0.7231
H13 H 0.6299 1.1280 0.7077
C27 C 0.70447(19) 1.3272(2) 0.64150(13)
H14 H 0.7593(19) 1.311(2) 0.6576(12)
C28 C 0.6912(2) 1.3979(2) 0.59354(12)
C29 C 0.7646(2) 1.4518(3) 0.56478(15)
H15 H 0.7449 1.5131 0.5424
H16 H 0.7903 1.4027 0.5379
H17 H 0.8052 1.4736 0.5958
C30 C 0.6109(2) 1.4150(3) 0.57265(13)
H18 H 0.601(2) 1.464(2) 0.5426(14)
C31 C 0.54160(19) 1.3635(2) 0.59647(12)
C32 C 0.4540(2) 1.3838(3) 0.57033(17)
H19 H 0.4201 1.3216 0.5757
H20 H 0.4562 1.3994 0.5279
H21 H 0.4300 1.4431 0.5907
C33 C 0.24853(17) 1.35768(19) 0.85265(11)
C34 C 0.19797(17) 1.4445(2) 0.83463(11)
C35 C 0.1525(2) 1.4477(3) 0.77343(13)
H22 H 0.1270 1.5163 0.7673
H23 H 0.1098 1.3937 0.7714
H24 H 0.1916 1.4350 0.7426
C36 C 0.19137(19) 1.5302(2) 0.87377(13)
H25 H 0.158(2) 1.589(2) 0.8618(13)
C37 C 0.23284(18) 1.5328(2) 0.93039(12)
C38 C 0.2296(2) 1.6304(2) 0.97009(14)
H26 H 0.2392 1.6101 1.0117
H27 H 0.1754 1.6633 0.9648
H28 H 0.2722 1.6799 0.9590
C39 C 0.27951(19) 1.4448(2) 0.94851(13)
H29 H 0.3093(19) 1.446(2) 0.9870(13)
C40 C 0.28848(17) 1.3567(2) 0.91075(11)
C41 C 0.3426(2) 1.2654(2) 0.93140(13)
H30 H 0.3938 1.2663 0.9102
H31 H 0.3134 1.1997 0.9231
H32 H 0.3553 1.2714 0.9741
C42 C 0.17318(17) 0.61786(18) 0.62633(11)
C43 C 0.09170(18) 0.6104(2) 0.60163(11)
H33 H 0.0577(16) 0.673(2) 0.6021(11)
C44 C 0.06185(19) 0.5168(2) 0.57534(12)
H34 H 0.007(2) 0.516(2) 0.5570(13)
C45 C 0.11281(17) 0.42711(19) 0.57244(11)
C46 C 0.19340(19) 0.4335(2) 0.59877(12)
H35 H 0.2266(18) 0.375(2) 0.5998(12)
C47 C 0.2227(2) 0.5262(2) 0.62546(13)
H36 H 0.2729(17) 0.5321(18) 0.6416(11)
C48 C 0.08316(17) 0.3302(2) 0.54001(10)
C49 C 0.00113(19) 0.2861(2) 0.53678(12)
H37 H -0.0503(18) 0.313(2) 0.5579(12)
C50 C 0.0015(2) 0.1936(2) 0.49938(13)
H38 H -0.049(2) 0.146(3) 0.4898(16)
C51 C 0.08278(19) 0.1802(2) 0.47903(11)
H39 H 0.1042(18) 0.118(2) 0.4529(13)
C52 C 0.1334(2) 0.2639(2) 0.50364(11)
H40 H 0.196(2) 0.276(2) 0.4984(13)
C53 C 0.1267(3) 0.1832(3) 0.65870(14)
H41 H 0.136(2) 0.240(3) 0.6771(15)
C54 C 0.0486(3) 0.1347(3) 0.65532(14)
H42 H -0.006(2) 0.165(3) 0.6708(17)
C55 C 0.0528(3) 0.0445(3) 0.61869(15)
H43 H 0.010(2) -0.003(3) 0.6080(16)
C56 C 0.1343(3) 0.0353(3) 0.59983(15)
H44 H 0.156(2) -0.021(3) 0.5730(16)
C57 C 0.1815(3) 0.1217(3) 0.62412(18)
H45 H 0.235(2) 0.136(2) 0.6179(14)
Fe1 Fe 0.08468(3) 0.17722(3) 0.571297(16)
N1 N 0.42209(14) 1.04501(17) 0.64720(10)
H46 H 0.3915(18) 1.044(2) 0.6735(13)
N2 N 0.22066(14) 1.08814(16) 0.77429(9)
H47 H 0.2645(17) 1.0730(19) 0.7585(11)
N3 N 0.19309(14) 0.87934(16) 0.71165(9)
H48 H 0.2349(18) 0.906(2) 0.6989(12)
N4 N 0.31942(14) 0.85341(15) 0.64263(9)
O1 O 0.36486(11) 1.22149(14) 0.73076(7)
C58 C 0.4692(4) 1.0912(4) 0.8228(2)
O2 O 0.4000(2) 1.0282(2) 0.79165(15)
loop_
_geom_bond_atom_site_label_1
_geom_bond_atom_site_label_2
_geom_bond_site_symmetry_1
_geom_bond_site_symmetry_2
C1 C2 1_555 1_555
C2 C3 1_555 1_555
C3 H1 1_555 1_555
C4 C3 1_555 1_555
H2 C4 1_555 1_555
C5 C4 1_555 1_555
C6 C5 1_555 1_555
C7 C6 1_555 1_555
C8 C7 1_555 1_555
H3 C8 1_555 1_555
C9 C8 1_555 1_555
H4 C9 1_555 1_555
C10 C9 1_555 1_555
C11 C10 1_555 1_555
C12 C11 1_555 1_555
H5 C12 1_555 1_555
C13 C12 1_555 1_555
H6 C13 1_555 1_555
C14 C13 1_555 1_555
C15 C14 1_555 1_555
C16 C15 1_555 1_555
C17 C16 1_555 1_555
H7 C17 1_555 1_555
C18 C17 1_555 1_555
H8 C18 1_555 1_555
C19 C18 1_555 1_555
C20 C19 1_555 1_555
C21 C20 1_555 1_555
H9 C21 1_555 1_555
C22 C21 1_555 1_555
H10 C22 1_555 1_555
C23 C1 1_555 1_555
C24 C1 1_555 1_555
C25 C24 1_555 1_555
C26 C25 1_555 1_555
H11 C26 1_555 1_555
H12 C26 1_555 1_555
H13 C26 1_555 1_555
C27 C25 1_555 1_555
H14 C27 1_555 1_555
C28 C27 1_555 1_555
C29 C28 1_555 1_555
H15 C29 1_555 1_555
H16 C29 1_555 1_555
H17 C29 1_555 1_555
C30 C28 1_555 1_555
H18 C30 1_555 1_555
C31 C24 1_555 1_555
C32 C31 1_555 1_555
H19 C32 1_555 1_555
H20 C32 1_555 1_555
H21 C32 1_555 1_555
C33 C6 1_555 1_555
C34 C33 1_555 1_555
C35 C34 1_555 1_555
H22 C35 1_555 1_555
H23 C35 1_555 1_555
H24 C35 1_555 1_555
C36 C34 1_555 1_555
H25 C36 1_555 1_555
C37 C36 1_555 1_555
C38 C37 1_555 1_555
H26 C38 1_555 1_555
H27 C38 1_555 1_555
H28 C38 1_555 1_555
C39 C37 1_555 1_555
H29 C39 1_555 1_555
C40 C33 1_555 1_555
C41 C40 1_555 1_555
H30 C41 1_555 1_555
H31 C41 1_555 1_555
H32 C41 1_555 1_555
C42 C15 1_555 1_555
C43 C42 1_555 1_555
H33 C43 1_555 1_555
C44 C43 1_555 1_555
H34 C44 1_555 1_555
C45 C44 1_555 1_555
C46 C45 1_555 1_555
H35 C46 1_555 1_555
C47 C42 1_555 1_555
H36 C47 1_555 1_555
C48 C45 1_555 1_555
C49 C48 1_555 1_555
H37 C49 1_555 1_555
C50 C49 1_555 1_555
H38 C50 1_555 1_555
C51 C50 1_555 1_555
H39 C51 1_555 1_555
C52 C48 1_555 1_555
H40 C52 1_555 1_555
C53 H41 1_555 1_555
C54 C53 1_555 1_555
H42 C54 1_555 1_555
C55 C54 1_555 1_555
H43 C55 1_555 1_555
C56 C55 1_555 1_555
H44 C56 1_555 1_555
C57 C53 1_555 1_555
H45 C57 1_555 1_555
C58 O2 1_555 1_555
Fe1 C48 1_555 1_555
N1 C20 1_555 1_555
H46 N1 1_555 1_555
N2 C7 1_555 1_555
H47 N2 1_555 1_555
N3 C11 1_555 1_555
H48 N3 1_555 1_555
N4 C16 1_555 1_555
O1 C2 1_555 1_555
C5 O1 1_555 1_555
C10 N2 1_555 1_555
C14 N3 1_555 1_555
C19 N4 1_555 1_555
C22 C23 1_555 1_555
C23 N1 1_555 1_555
C30 C31 1_555 1_555
C39 C40 1_555 1_555
C46 C47 1_555 1_555
C49 Fe1 1_555 1_555
C50 Fe1 1_555 1_555
C51 C52 1_555 1_555
C51 Fe1 1_555 1_555
C52 Fe1 1_555 1_555
C53 Fe1 1_555 1_555
C54 Fe1 1_555 1_555
C55 Fe1 1_555 1_555
C56 C57 1_555 1_555
C56 Fe1 1_555 1_555
C57 Fe1 1_555 1_555

#END
