# generated using pymatgen
data_Co6H8C217N55ClO6
_symmetry_space_group_name_H-M   'P 1'
_cell_length_a   26.23800000
_cell_length_b   29.10800000
_cell_length_c   37.67100000
_cell_angle_alpha   91.36900000
_cell_angle_beta   90.00000000
_cell_angle_gamma   90.00000000
_symmetry_Int_Tables_number   1
_chemical_formula_structural   Co6H8C217N55ClO6
_chemical_formula_sum   'Co24 H32 C868 N220 Cl4 O24'
_cell_volume   28762.47547325
_cell_formula_units_Z   4
loop_
 _symmetry_equiv_pos_site_id
 _symmetry_equiv_pos_as_xyz
  1  'x, y, z'
loop_
 _atom_site_type_symbol
 _atom_site_label
 _atom_site_symmetry_multiplicity
 _atom_site_fract_x
 _atom_site_fract_y
 _atom_site_fract_z
 _atom_site_occupancy
  Co  Co1  1  0.199680  0.714690  0.001280  1.0
  Co  Co2  1  0.199680  0.785310  0.498720  1.0
  Co  Co3  1  0.800320  0.285310  0.998720  1.0
  Co  Co4  1  0.800320  0.214690  0.501280  1.0
  Co  Co5  1  0.157420  0.437190  0.133820  1.0
  Co  Co6  1  0.157420  0.062810  0.366180  1.0
  Co  Co7  1  0.842580  0.562810  0.866180  1.0
  Co  Co8  1  0.842580  0.937190  0.633820  1.0
  Co  Co9  1  0.989880  0.884050  0.170190  1.0
  Co  Co10  1  0.989880  0.615950  0.329810  1.0
  Co  Co11  1  0.010120  0.115950  0.829810  1.0
  Co  Co12  1  0.010120  0.384050  0.670190  1.0
  Co  Co13  1  0.680710  0.672350  0.505830  1.0
  Co  Co14  1  0.680710  0.827650  0.994170  1.0
  Co  Co15  1  0.319290  0.327650  0.494170  1.0
  Co  Co16  1  0.319290  0.172350  0.005830  1.0
  Co  Co17  1  0.672940  0.437040  0.319150  1.0
  Co  Co18  1  0.672940  0.062960  0.180850  1.0
  Co  Co19  1  0.327060  0.562960  0.680850  1.0
  Co  Co20  1  0.327060  0.937040  0.819150  1.0
  Co  Co21  1  0.503700  0.877310  0.350080  1.0
  Co  Co22  1  0.503700  0.622690  0.149920  1.0
  Co  Co23  1  0.496300  0.122690  0.649920  1.0
  Co  Co24  1  0.496300  0.377310  0.850080  1.0
  H  H25  1  0.443500  0.033100  0.520100  1
  H  H26  1  0.443500  0.466900  0.979900  1
  H  H27  1  0.556500  0.966900  0.479900  1
  H  H28  1  0.556500  0.533100  0.020100  1
  H  H29  1  0.416400  0.989800  0.537400  1
  H  H30  1  0.416400  0.510200  0.962600  1
  H  H31  1  0.583600  0.010200  0.462600  1
  H  H32  1  0.583600  0.489800  0.037400  1
  H  H33  1  0.405800  0.040400  0.553100  1
  H  H34  1  0.405800  0.459600  0.946900  1
  H  H35  1  0.594200  0.959600  0.446900  1
  H  H36  1  0.594200  0.540400  0.053100  1
  H  H37  1  0.150700  0.603800  0.903600  1
  H  H38  1  0.150700  0.896200  0.596400  1
  H  H39  1  0.849300  0.396200  0.096400  1
  H  H40  1  0.849300  0.103800  0.403600  1
  H  H41  1  0.570200  0.024900  0.230000  1
  H  H42  1  0.570200  0.475100  0.270000  1
  H  H43  1  0.429800  0.975100  0.770000  1
  H  H44  1  0.429800  0.524900  0.730000  1
  H  H45  1  0.547800  0.036200  0.268700  1
  H  H46  1  0.547800  0.463800  0.231300  1
  H  H47  1  0.452200  0.963800  0.731300  1
  H  H48  1  0.452200  0.536200  0.768700  1
  H  H49  1  0.577300  0.118300  0.298900  1
  H  H50  1  0.577300  0.381700  0.201100  1
  H  H51  1  0.422700  0.881700  0.701100  1
  H  H52  1  0.422700  0.618300  0.798900  1
  H  H53  1  0.644400  0.176900  0.282600  1
  H  H54  1  0.644400  0.323100  0.217400  1
  H  H55  1  0.355600  0.823100  0.717400  1
  H  H56  1  0.355600  0.676900  0.782600  1
  C  C57  1  0.010000  0.750000  0.250000  1
  C  C58  1  0.990000  0.250000  0.750000  1
  C  C59  1  0.907500  0.750000  0.250000  1
  C  C60  1  0.092500  0.250000  0.750000  1
  C  C61  1  0.521000  0.750000  0.250000  1
  C  C62  1  0.479000  0.250000  0.750000  1
  C  C63  1  0.419300  0.750000  0.250000  1
  C  C64  1  0.580700  0.250000  0.750000  1
  C  C65  1  0.412300  0.022100  0.531400  1
  C  C66  1  0.412300  0.477900  0.968600  1
  C  C67  1  0.587700  0.977900  0.468600  1
  C  C68  1  0.587700  0.522100  0.031400  1
  C  C69  1  0.164000  0.648500  0.945000  1.0
  C  C70  1  0.164000  0.851500  0.555000  1.0
  C  C71  1  0.836000  0.351500  0.055000  1.0
  C  C72  1  0.836000  0.148500  0.445000  1.0
  C  C73  1  0.142700  0.633500  0.913000  1.0
  C  C74  1  0.142700  0.866500  0.587000  1.0
  C  C75  1  0.857300  0.366500  0.087000  1.0
  C  C76  1  0.857300  0.133500  0.413000  1.0
  C  C77  1  0.109600  0.661900  0.894860  1.0
  C  C78  1  0.109600  0.838100  0.605140  1.0
  C  C79  1  0.890400  0.338100  0.105140  1.0
  C  C80  1  0.890400  0.161900  0.394860  1.0
  C  C81  1  0.097800  0.705300  0.908700  1.0
  C  C82  1  0.097800  0.794700  0.591300  1.0
  C  C83  1  0.902200  0.294700  0.091300  1.0
  C  C84  1  0.902200  0.205300  0.408700  1.0
  C  C85  1  0.119100  0.720300  0.940700  1.0
  C  C86  1  0.119100  0.779700  0.559300  1.0
  C  C87  1  0.880900  0.279700  0.059300  1.0
  C  C88  1  0.880900  0.220300  0.440700  1.0
  C  C89  1  0.256600  0.573400  0.986700  1.0
  C  C90  1  0.256600  0.926600  0.513300  1.0
  C  C91  1  0.743400  0.426600  0.013300  1.0
  C  C92  1  0.743400  0.073400  0.486700  1.0
  C  C93  1  0.218900  0.579300  0.960200  1.0
  C  C94  1  0.218900  0.920700  0.539800  1.0
  C  C95  1  0.781100  0.420700  0.039800  1.0
  C  C96  1  0.781100  0.079300  0.460200  1.0
  C  C97  1  0.198500  0.624200  0.964500  1.0
  C  C98  1  0.198500  0.875800  0.535500  1.0
  C  C99  1  0.801500  0.375800  0.035500  1.0
  C  C100  1  0.801500  0.124200  0.464500  1.0
  C  C101  1  0.293300  0.626100  0.033900  1.0
  C  C102  1  0.293300  0.873900  0.466100  1.0
  C  C103  1  0.706700  0.373900  0.966100  1.0
  C  C104  1  0.706700  0.126100  0.533900  1.0
  C  C105  1  0.290300  0.593700  0.066200  1.0
  C  C106  1  0.290300  0.906300  0.433800  1.0
  C  C107  1  0.709700  0.406300  0.933800  1.0
  C  C108  1  0.709700  0.093700  0.566200  1.0
  C  C109  1  0.244500  0.592000  0.084600  1.0
  C  C110  1  0.244500  0.908000  0.415400  1.0
  C  C111  1  0.755500  0.408000  0.915400  1.0
  C  C112  1  0.755500  0.092000  0.584600  1.0
  C  C113  1  0.239900  0.564500  0.114100  1.0
  C  C114  1  0.239900  0.935500  0.385900  1.0
  C  C115  1  0.760100  0.435500  0.885900  1.0
  C  C116  1  0.760100  0.064500  0.614100  1.0
  C  C117  1  0.281200  0.538500  0.125100  1.0
  C  C118  1  0.281200  0.961500  0.374900  1.0
  C  C119  1  0.718800  0.461500  0.874900  1.0
  C  C120  1  0.718800  0.038500  0.625100  1.0
  C  C121  1  0.327000  0.540100  0.106600  1.0
  C  C122  1  0.327000  0.959900  0.393400  1.0
  C  C123  1  0.673000  0.459900  0.893400  1.0
  C  C124  1  0.673000  0.040100  0.606600  1.0
  C  C125  1  0.331600  0.567700  0.077200  1.0
  C  C126  1  0.331600  0.932300  0.422800  1.0
  C  C127  1  0.668400  0.432300  0.922800  1.0
  C  C128  1  0.668400  0.067700  0.577200  1.0
  C  C129  1  0.189000  0.563300  0.134700  1.0
  C  C130  1  0.189000  0.936700  0.365300  1.0
  C  C131  1  0.811000  0.436700  0.865300  1.0
  C  C132  1  0.811000  0.063300  0.634700  1.0
  C  C133  1  0.210900  0.554400  0.198900  1.0
  C  C134  1  0.210900  0.945600  0.301100  1.0
  C  C135  1  0.789100  0.445600  0.801100  1.0
  C  C136  1  0.789100  0.054400  0.698900  1.0
  C  C137  1  0.207100  0.516300  0.221550  1.0
  C  C138  1  0.207100  0.983700  0.278450  1.0
  C  C139  1  0.792900  0.483700  0.778450  1.0
  C  C140  1  0.792900  0.016300  0.721550  1.0
  C  C141  1  0.185000  0.479200  0.201800  1.0
  C  C142  1  0.185000  0.020800  0.298200  1.0
  C  C143  1  0.815000  0.520800  0.798200  1.0
  C  C144  1  0.815000  0.979200  0.701800  1.0
  C  C145  1  0.169300  0.437400  0.210100  1.0
  C  C146  1  0.169300  0.062600  0.289900  1.0
  C  C147  1  0.830700  0.562600  0.789900  1.0
  C  C148  1  0.830700  0.937400  0.710100  1.0
  C  C149  1  0.168300  0.422400  0.244800  1.0
  C  C150  1  0.168300  0.077600  0.255200  1.0
  C  C151  1  0.831700  0.577600  0.755200  1.0
  C  C152  1  0.831700  0.922400  0.744800  1.0
  C  C153  1  0.151400  0.378300  0.252000  1.0
  C  C154  1  0.151400  0.121700  0.248000  1.0
  C  C155  1  0.848600  0.621700  0.748000  1.0
  C  C156  1  0.848600  0.878300  0.752000  1.0
  C  C157  1  0.135600  0.349200  0.224300  1.0
  C  C158  1  0.135600  0.150800  0.275700  1.0
  C  C159  1  0.864400  0.650800  0.775700  1.0
  C  C160  1  0.864400  0.849200  0.724300  1.0
  C  C161  1  0.136600  0.364200  0.189600  1.0
  C  C162  1  0.136600  0.135800  0.310400  1.0
  C  C163  1  0.863400  0.635800  0.810400  1.0
  C  C164  1  0.863400  0.864200  0.689600  1.0
  C  C165  1  0.228100  0.721400  0.076200  1.0
  C  C166  1  0.228100  0.778600  0.423800  1.0
  C  C167  1  0.771900  0.278600  0.923800  1.0
  C  C168  1  0.771900  0.221400  0.576200  1.0
  C  C169  1  0.255600  0.730200  0.107200  1.0
  C  C170  1  0.255600  0.769800  0.392800  1.0
  C  C171  1  0.744400  0.269800  0.892800  1.0
  C  C172  1  0.744400  0.230200  0.607200  1.0
  C  C173  1  0.301800  0.753400  0.105700  1.0
  C  C174  1  0.301800  0.746600  0.394300  1.0
  C  C175  1  0.698200  0.246600  0.894300  1.0
  C  C176  1  0.698200  0.253400  0.605700  1.0
  C  C177  1  0.320400  0.767900  0.073300  1.0
  C  C178  1  0.320400  0.732100  0.426700  1.0
  C  C179  1  0.679600  0.232100  0.926700  1.0
  C  C180  1  0.679600  0.267900  0.573300  1.0
  C  C181  1  0.292900  0.759100  0.042400  1.0
  C  C182  1  0.292900  0.740900  0.457600  1.0
  C  C183  1  0.707100  0.240900  0.957600  1.0
  C  C184  1  0.707100  0.259100  0.542400  1.0
  C  C185  1  0.104100  0.670700  0.090500  1.0
  C  C186  1  0.104100  0.829300  0.409500  1.0
  C  C187  1  0.895900  0.329300  0.909500  1.0
  C  C188  1  0.895900  0.170700  0.590500  1.0
  C  C189  1  0.148800  0.690300  0.105900  1.0
  C  C190  1  0.148800  0.809700  0.394100  1.0
  C  C191  1  0.851200  0.309700  0.894100  1.0
  C  C192  1  0.851200  0.190300  0.605900  1.0
  C  C193  1  0.180200  0.705800  0.077900  1.0
  C  C194  1  0.180200  0.794200  0.422100  1.0
  C  C195  1  0.819800  0.294200  0.922100  1.0
  C  C196  1  0.819800  0.205800  0.577900  1.0
  C  C197  1  0.077200  0.661400  0.027200  1.0
  C  C198  1  0.077200  0.838600  0.472800  1.0
  C  C199  1  0.922800  0.338600  0.972800  1.0
  C  C200  1  0.922800  0.161400  0.527200  1.0
  C  C201  1  0.074700  0.611200  0.014300  1.0
  C  C202  1  0.074700  0.888800  0.485700  1.0
  C  C203  1  0.925300  0.388800  0.985700  1.0
  C  C204  1  0.925300  0.111200  0.514300  1.0
  C  C205  1  0.088500  0.578900  0.039100  1.0
  C  C206  1  0.088500  0.921100  0.460900  1.0
  C  C207  1  0.911500  0.421100  0.960900  1.0
  C  C208  1  0.911500  0.078900  0.539100  1.0
  C  C209  1  0.085600  0.532200  0.030400  1.0
  C  C210  1  0.085600  0.967800  0.469600  1.0
  C  C211  1  0.914400  0.467800  0.969600  1.0
  C  C212  1  0.914400  0.032200  0.530400  1.0
  C  C213  1  0.069000  0.518000  0.996900  1.0
  C  C214  1  0.069000  0.982000  0.503100  1.0
  C  C215  1  0.931000  0.482000  0.003100  1.0
  C  C216  1  0.931000  0.018000  0.496900  1.0
  C  C217  1  0.055200  0.550300  0.972100  1.0
  C  C218  1  0.055200  0.949700  0.527900  1.0
  C  C219  1  0.944800  0.449700  0.027900  1.0
  C  C220  1  0.944800  0.050300  0.472100  1.0
  C  C221  1  0.058100  0.596900  0.980800  1.0
  C  C222  1  0.058100  0.903100  0.519200  1.0
  C  C223  1  0.941900  0.403100  0.019200  1.0
  C  C224  1  0.941900  0.096900  0.480800  1.0
  C  C225  1  0.097600  0.498300  0.059100  1.0
  C  C226  1  0.097600  0.001700  0.440900  1.0
  C  C227  1  0.902400  0.501700  0.940900  1.0
  C  C228  1  0.902400  0.998300  0.559100  1.0
  C  C229  1  0.188300  0.493700  0.028300  1.0
  C  C230  1  0.188300  0.006300  0.471700  1.0
  C  C231  1  0.811700  0.506300  0.971700  1.0
  C  C232  1  0.811700  0.993700  0.528300  1.0
  C  C233  1  0.235200  0.475100  0.040200  1.0
  C  C234  1  0.235200  0.024900  0.459800  1.0
  C  C235  1  0.764800  0.524900  0.959800  1.0
  C  C236  1  0.764800  0.975100  0.540200  1.0
  C  C237  1  0.227600  0.459000  0.075100  1.0
  C  C238  1  0.227600  0.041000  0.424900  1.0
  C  C239  1  0.772400  0.541000  0.924900  1.0
  C  C240  1  0.772400  0.959000  0.575100  1.0
  C  C241  1  0.260600  0.438500  0.097400  1.0
  C  C242  1  0.260600  0.061500  0.402600  1.0
  C  C243  1  0.739400  0.561500  0.902600  1.0
  C  C244  1  0.739400  0.938500  0.597400  1.0
  C  C245  1  0.312000  0.430500  0.090700  1.0
  C  C246  1  0.312000  0.069500  0.409300  1.0
  C  C247  1  0.688000  0.569500  0.909300  1.0
  C  C248  1  0.688000  0.930500  0.590700  1.0
  C  C249  1  0.341800  0.408200  0.115500  1.0
  C  C250  1  0.341800  0.091800  0.384500  1.0
  C  C251  1  0.658200  0.591800  0.884500  1.0
  C  C252  1  0.658200  0.908200  0.615500  1.0
  C  C253  1  0.320200  0.393900  0.147000  1.0
  C  C254  1  0.320200  0.106100  0.353000  1.0
  C  C255  1  0.679800  0.606100  0.853000  1.0
  C  C256  1  0.679800  0.893900  0.647000  1.0
  C  C257  1  0.268800  0.401800  0.153800  1.0
  C  C258  1  0.268800  0.098200  0.346200  1.0
  C  C259  1  0.731200  0.598200  0.846200  1.0
  C  C260  1  0.731200  0.901800  0.653800  1.0
  C  C261  1  0.233100  0.781400  0.946800  1.0
  C  C262  1  0.233100  0.718600  0.553200  1.0
  C  C263  1  0.766900  0.218600  0.053200  1.0
  C  C264  1  0.766900  0.281400  0.446800  1.0
  C  C265  1  0.252900  0.796100  0.914800  1.0
  C  C266  1  0.252900  0.703900  0.585200  1.0
  C  C267  1  0.747100  0.203900  0.085200  1.0
  C  C268  1  0.747100  0.296100  0.414800  1.0
  C  C269  1  0.286700  0.768300  0.895680  1.0
  C  C270  1  0.286700  0.731700  0.604320  1.0
  C  C271  1  0.713300  0.231700  0.104320  1.0
  C  C272  1  0.713300  0.268300  0.395680  1.0
  C  C273  1  0.300800  0.725800  0.908600  1.0
  C  C274  1  0.300800  0.774200  0.591400  1.0
  C  C275  1  0.699200  0.274200  0.091400  1.0
  C  C276  1  0.699200  0.225800  0.408600  1.0
  C  C277  1  0.281000  0.711100  0.940600  1.0
  C  C278  1  0.281000  0.788900  0.559400  1.0
  C  C279  1  0.719000  0.288900  0.059400  1.0
  C  C280  1  0.719000  0.211100  0.440600  1.0
  C  C281  1  0.143400  0.857200  0.991100  1.0
  C  C282  1  0.143400  0.642800  0.508900  1.0
  C  C283  1  0.856600  0.142800  0.008900  1.0
  C  C284  1  0.856600  0.357200  0.491100  1.0
  C  C285  1  0.178800  0.850400  0.962900  1.0
  C  C286  1  0.178800  0.649600  0.537100  1.0
  C  C287  1  0.821200  0.149600  0.037100  1.0
  C  C288  1  0.821200  0.350400  0.462900  1.0
  C  C289  1  0.199200  0.805400  0.965400  1.0
  C  C290  1  0.199200  0.694600  0.534600  1.0
  C  C291  1  0.800800  0.194600  0.034600  1.0
  C  C292  1  0.800800  0.305400  0.465400  1.0
  C  C293  1  0.112600  0.803700  0.041200  1.0
  C  C294  1  0.112600  0.696300  0.458800  1.0
  C  C295  1  0.887400  0.196300  0.958800  1.0
  C  C296  1  0.887400  0.303700  0.541200  1.0
  C  C297  1  0.136900  0.819500  0.075300  1.0
  C  C298  1  0.136900  0.680500  0.424700  1.0
  C  C299  1  0.863100  0.180500  0.924700  1.0
  C  C300  1  0.863100  0.319500  0.575300  1.0
  C  C301  1  0.111700  0.806100  0.105800  1.0
  C  C302  1  0.111700  0.693900  0.394200  1.0
  C  C303  1  0.888300  0.193900  0.894200  1.0
  C  C304  1  0.888300  0.306100  0.605800  1.0
  C  C305  1  0.129800  0.820200  0.139000  1.0
  C  C306  1  0.129800  0.679800  0.361000  1.0
  C  C307  1  0.870200  0.179800  0.861000  1.0
  C  C308  1  0.870200  0.320200  0.639000  1.0
  C  C309  1  0.173000  0.847700  0.141600  1.0
  C  C310  1  0.173000  0.652300  0.358400  1.0
  C  C311  1  0.827000  0.152300  0.858400  1.0
  C  C312  1  0.827000  0.347700  0.641600  1.0
  C  C313  1  0.198200  0.861100  0.111100  1.0
  C  C314  1  0.198200  0.638900  0.388900  1.0
  C  C315  1  0.801800  0.138900  0.888900  1.0
  C  C316  1  0.801800  0.361100  0.611100  1.0
  C  C317  1  0.180100  0.847000  0.077900  1.0
  C  C318  1  0.180100  0.653000  0.422100  1.0
  C  C319  1  0.819900  0.153000  0.922100  1.0
  C  C320  1  0.819900  0.347000  0.577900  1.0
  C  C321  1  0.108100  0.807500  0.175600  1.0
  C  C322  1  0.108100  0.692500  0.324400  1.0
  C  C323  1  0.891900  0.192500  0.824400  1.0
  C  C324  1  0.891900  0.307500  0.675600  1.0
  C  C325  1  0.044100  0.740900  0.162300  1.0
  C  C326  1  0.044100  0.759100  0.337700  1.0
  C  C327  1  0.955900  0.259100  0.837700  1.0
  C  C328  1  0.955900  0.240900  0.662300  1.0
  C  C329  1  0.990200  0.738800  0.159200  1.0
  C  C330  1  0.990200  0.761200  0.340800  1.0
  C  C331  1  0.009800  0.261200  0.840800  1.0
  C  C332  1  0.009800  0.238800  0.659200  1.0
  C  C333  1  0.970700  0.784000  0.164100  1.0
  C  C334  1  0.970700  0.716000  0.335900  1.0
  C  C335  1  0.029300  0.216000  0.835900  1.0
  C  C336  1  0.029300  0.284000  0.664100  1.0
  C  C337  1  0.921800  0.799900  0.165300  1.0
  C  C338  1  0.921800  0.700100  0.334700  1.0
  C  C339  1  0.078200  0.200100  0.834700  1.0
  C  C340  1  0.078200  0.299900  0.665300  1.0
  C  C341  1  0.877500  0.773700  0.164300  1.0
  C  C342  1  0.877500  0.726300  0.335700  1.0
  C  C343  1  0.122500  0.226300  0.835700  1.0
  C  C344  1  0.122500  0.273700  0.664300  1.0
  C  C345  1  0.830200  0.795100  0.166700  1.0
  C  C346  1  0.830200  0.704900  0.333300  1.0
  C  C347  1  0.169800  0.204900  0.833300  1.0
  C  C348  1  0.169800  0.295100  0.666700  1.0
  C  C349  1  0.827200  0.842700  0.170200  1.0
  C  C350  1  0.827200  0.657300  0.329800  1.0
  C  C351  1  0.172800  0.157300  0.829800  1.0
  C  C352  1  0.172800  0.342700  0.670200  1.0
  C  C353  1  0.871600  0.868900  0.171200  1.0
  C  C354  1  0.871600  0.631100  0.328800  1.0
  C  C355  1  0.128400  0.131100  0.828800  1.0
  C  C356  1  0.128400  0.368900  0.671200  1.0
  C  C357  1  0.034600  0.907400  0.099800  1.0
  C  C358  1  0.034600  0.592600  0.400200  1.0
  C  C359  1  0.965400  0.092600  0.900200  1.0
  C  C360  1  0.965400  0.407400  0.599800  1.0
  C  C361  1  0.040300  0.909900  0.063200  1.0
  C  C362  1  0.040300  0.590100  0.436800  1.0
  C  C363  1  0.959700  0.090100  0.936800  1.0
  C  C364  1  0.959700  0.409900  0.563200  1.0
  C  C365  1  0.007200  0.885800  0.040760  1.0
  C  C366  1  0.007200  0.614200  0.459240  1.0
  C  C367  1  0.992800  0.114200  0.959240  1.0
  C  C368  1  0.992800  0.385800  0.540760  1.0
  C  C369  1  0.968500  0.859200  0.054900  1.0
  C  C370  1  0.968500  0.640800  0.445100  1.0
  C  C371  1  0.031500  0.140800  0.945100  1.0
  C  C372  1  0.031500  0.359200  0.554900  1.0
  C  C373  1  0.962900  0.856800  0.091500  1.0
  C  C374  1  0.962900  0.643200  0.408500  1.0
  C  C375  1  0.037100  0.143200  0.908500  1.0
  C  C376  1  0.037100  0.356800  0.591500  1.0
  C  C377  1  0.127100  0.966400  0.155600  1.0
  C  C378  1  0.127100  0.533600  0.344400  1.0
  C  C379  1  0.872900  0.033600  0.844400  1.0
  C  C380  1  0.872900  0.466400  0.655600  1.0
  C  C381  1  0.107200  0.958500  0.121000  1.0
  C  C382  1  0.107200  0.541500  0.379000  1.0
  C  C383  1  0.892800  0.041500  0.879000  1.0
  C  C384  1  0.892800  0.458500  0.621000  1.0
  C  C385  1  0.066100  0.927100  0.123500  1.0
  C  C386  1  0.066100  0.572900  0.376500  1.0
  C  C387  1  0.933900  0.072900  0.876500  1.0
  C  C388  1  0.933900  0.427100  0.623500  1.0
  C  C389  1  0.104300  0.934100  0.218000  1.0
  C  C390  1  0.104300  0.565900  0.282000  1.0
  C  C391  1  0.895700  0.065900  0.782000  1.0
  C  C392  1  0.895700  0.434100  0.718000  1.0
  C  C393  1  0.079000  0.974600  0.238000  1.0
  C  C394  1  0.079000  0.525400  0.262000  1.0
  C  C395  1  0.921000  0.025400  0.762000  1.0
  C  C396  1  0.921000  0.474600  0.738000  1.0
  C  C397  1  0.077400  0.969100  0.274500  1.0
  C  C398  1  0.077400  0.530900  0.225500  1.0
  C  C399  1  0.922600  0.030900  0.725500  1.0
  C  C400  1  0.922600  0.469100  0.774500  1.0
  C  C401  1  0.054800  0.002600  0.296200  1.0
  C  C402  1  0.054800  0.497400  0.203800  1.0
  C  C403  1  0.945200  0.997400  0.703800  1.0
  C  C404  1  0.945200  0.502600  0.796200  1.0
  C  C405  1  0.033700  0.041500  0.281400  1.0
  C  C406  1  0.033700  0.458500  0.218600  1.0
  C  C407  1  0.966300  0.958500  0.718600  1.0
  C  C408  1  0.966300  0.541500  0.781400  1.0
  C  C409  1  0.035300  0.047000  0.244800  1.0
  C  C410  1  0.035300  0.453000  0.255200  1.0
  C  C411  1  0.964700  0.953000  0.755200  1.0
  C  C412  1  0.964700  0.547000  0.744800  1.0
  C  C413  1  0.057900  0.013500  0.223120  1.0
  C  C414  1  0.057900  0.486500  0.276880  1.0
  C  C415  1  0.942100  0.986500  0.776880  1.0
  C  C416  1  0.942100  0.513500  0.723120  1.0
  C  C417  1  0.049000  0.988300  0.337100  1.0
  C  C418  1  0.049000  0.511700  0.162900  1.0
  C  C419  1  0.951000  0.011700  0.662900  1.0
  C  C420  1  0.951000  0.488300  0.837100  1.0
  C  C421  1  0.993000  0.042300  0.368600  1.0
  C  C422  1  0.993000  0.457700  0.131400  1.0
  C  C423  1  0.007000  0.957700  0.631400  1.0
  C  C424  1  0.007000  0.542300  0.868600  1.0
  C  C425  1  0.002000  0.084500  0.387200  1.0
  C  C426  1  0.002000  0.415500  0.112800  1.0
  C  C427  1  0.998000  0.915500  0.612800  1.0
  C  C428  1  0.998000  0.584500  0.887200  1.0
  C  C429  1  0.055300  0.407000  0.113000  1.0
  C  C430  1  0.055300  0.093000  0.387000  1.0
  C  C431  1  0.944700  0.593000  0.887000  1.0
  C  C432  1  0.944700  0.907000  0.613000  1.0
  C  C433  1  0.085400  0.374400  0.098300  1.0
  C  C434  1  0.085400  0.125600  0.401700  1.0
  C  C435  1  0.914600  0.625600  0.901700  1.0
  C  C436  1  0.914600  0.874400  0.598300  1.0
  C  C437  1  0.065900  0.344000  0.072800  1.0
  C  C438  1  0.065900  0.156000  0.427200  1.0
  C  C439  1  0.934100  0.656000  0.927200  1.0
  C  C440  1  0.934100  0.844000  0.572800  1.0
  C  C441  1  0.098700  0.316200  0.052800  1.0
  C  C442  1  0.098700  0.183800  0.447200  1.0
  C  C443  1  0.901300  0.683800  0.947200  1.0
  C  C444  1  0.901300  0.816200  0.552800  1.0
  C  C445  1  0.151000  0.319000  0.058300  1.0
  C  C446  1  0.151000  0.181000  0.441700  1.0
  C  C447  1  0.849000  0.681000  0.941700  1.0
  C  C448  1  0.849000  0.819000  0.558300  1.0
  C  C449  1  0.170600  0.349400  0.083800  1.0
  C  C450  1  0.170600  0.150600  0.416200  1.0
  C  C451  1  0.829400  0.650600  0.916200  1.0
  C  C452  1  0.829400  0.849400  0.583800  1.0
  C  C453  1  0.941600  0.965700  0.205940  1.0
  C  C454  1  0.941600  0.534300  0.294060  1.0
  C  C455  1  0.058400  0.034300  0.794060  1.0
  C  C456  1  0.058400  0.465700  0.705940  1.0
  C  C457  1  0.920500  0.009200  0.210640  1.0
  C  C458  1  0.920500  0.490800  0.289360  1.0
  C  C459  1  0.079500  0.990800  0.789360  1.0
  C  C460  1  0.079500  0.509200  0.710640  1.0
  C  C461  1  0.912300  0.036700  0.181500  1.0
  C  C462  1  0.912300  0.463300  0.318500  1.0
  C  C463  1  0.087700  0.963300  0.818500  1.0
  C  C464  1  0.087700  0.536700  0.681500  1.0
  C  C465  1  0.925300  0.020600  0.147600  1.0
  C  C466  1  0.925300  0.479400  0.352400  1.0
  C  C467  1  0.074700  0.979400  0.852400  1.0
  C  C468  1  0.074700  0.520600  0.647600  1.0
  C  C469  1  0.946400  0.977100  0.142940  1.0
  C  C470  1  0.946400  0.522900  0.357060  1.0
  C  C471  1  0.053600  0.022900  0.857060  1.0
  C  C472  1  0.053600  0.477100  0.642940  1.0
  C  C473  1  0.965200  0.900000  0.284720  1.0
  C  C474  1  0.965200  0.600000  0.215280  1.0
  C  C475  1  0.034800  0.100000  0.715280  1.0
  C  C476  1  0.034800  0.400000  0.784720  1.0
  C  C477  1  0.943700  0.939900  0.269800  1.0
  C  C478  1  0.943700  0.560100  0.230200  1.0
  C  C479  1  0.056300  0.060100  0.730200  1.0
  C  C480  1  0.056300  0.439900  0.769800  1.0
  C  C481  1  0.954300  0.938700  0.232800  1.0
  C  C482  1  0.954300  0.561300  0.267200  1.0
  C  C483  1  0.045700  0.061300  0.767200  1.0
  C  C484  1  0.045700  0.438700  0.732800  1.0
  C  C485  1  0.016500  0.834000  0.261200  1.0
  C  C486  1  0.016500  0.666000  0.238800  1.0
  C  C487  1  0.983500  0.166000  0.738800  1.0
  C  C488  1  0.983500  0.334000  0.761200  1.0
  C  C489  1  0.989500  0.792500  0.254700  1.0
  C  C490  1  0.989500  0.707500  0.245300  1.0
  C  C491  1  0.010500  0.207500  0.745300  1.0
  C  C492  1  0.010500  0.292500  0.754700  1.0
  C  C493  1  0.936600  0.793000  0.253600  1.0
  C  C494  1  0.936600  0.707000  0.246400  1.0
  C  C495  1  0.063400  0.207000  0.746400  1.0
  C  C496  1  0.063400  0.293000  0.753600  1.0
  C  C497  1  0.779300  0.617300  0.504600  1.0
  C  C498  1  0.779300  0.882700  0.995400  1.0
  C  C499  1  0.220700  0.382700  0.495400  1.0
  C  C500  1  0.220700  0.117300  0.004600  1.0
  C  C501  1  0.831100  0.608200  0.507900  1.0
  C  C502  1  0.831100  0.891800  0.992100  1.0
  C  C503  1  0.168900  0.391800  0.492100  1.0
  C  C504  1  0.168900  0.108200  0.007900  1.0
  C  C505  1  0.864200  0.642700  0.519400  1.0
  C  C506  1  0.864200  0.857300  0.980600  1.0
  C  C507  1  0.135800  0.357300  0.480600  1.0
  C  C508  1  0.135800  0.142700  0.019400  1.0
  C  C509  1  0.845500  0.686400  0.527700  1.0
  C  C510  1  0.845500  0.813600  0.972300  1.0
  C  C511  1  0.154500  0.313600  0.472300  1.0
  C  C512  1  0.154500  0.186400  0.027700  1.0
  C  C513  1  0.793700  0.695500  0.524400  1.0
  C  C514  1  0.793700  0.804500  0.975600  1.0
  C  C515  1  0.206300  0.304500  0.475600  1.0
  C  C516  1  0.206300  0.195500  0.024400  1.0
  C  C517  1  0.693200  0.526000  0.473000  1.0
  C  C518  1  0.693200  0.974000  0.027000  1.0
  C  C519  1  0.306800  0.474000  0.527000  1.0
  C  C520  1  0.306800  0.026000  0.973000  1.0
  C  C521  1  0.743000  0.540200  0.483100  1.0
  C  C522  1  0.743000  0.959800  0.016900  1.0
  C  C523  1  0.257000  0.459800  0.516900  1.0
  C  C524  1  0.257000  0.040200  0.983100  1.0
  C  C525  1  0.740600  0.587100  0.494100  1.0
  C  C526  1  0.740600  0.912900  0.005900  1.0
  C  C527  1  0.259400  0.412900  0.505900  1.0
  C  C528  1  0.259400  0.087100  0.994100  1.0
  C  C529  1  0.604500  0.569100  0.475000  1.0
  C  C530  1  0.604500  0.930900  0.025000  1.0
  C  C531  1  0.395500  0.430900  0.525000  1.0
  C  C532  1  0.395500  0.069100  0.975000  1.0
  C  C533  1  0.585000  0.525600  0.455800  1.0
  C  C534  1  0.585000  0.974400  0.044200  1.0
  C  C535  1  0.415000  0.474400  0.544200  1.0
  C  C536  1  0.415000  0.025600  0.955800  1.0
  C  C537  1  0.585200  0.526600  0.418900  1.0
  C  C538  1  0.585200  0.973400  0.081100  1.0
  C  C539  1  0.414800  0.473400  0.581100  1.0
  C  C540  1  0.414800  0.026600  0.918900  1.0
  C  C541  1  0.561800  0.491600  0.399220  1.0
  C  C542  1  0.561800  0.008400  0.100780  1.0
  C  C543  1  0.438200  0.508400  0.600780  1.0
  C  C544  1  0.438200  0.991600  0.899220  1.0
  C  C545  1  0.538100  0.455600  0.416400  1.0
  C  C546  1  0.538100  0.044400  0.083600  1.0
  C  C547  1  0.461900  0.544400  0.583600  1.0
  C  C548  1  0.461900  0.955600  0.916400  1.0
  C  C549  1  0.538000  0.454700  0.453300  1.0
  C  C550  1  0.538000  0.045300  0.046700  1.0
  C  C551  1  0.462000  0.545300  0.546700  1.0
  C  C552  1  0.462000  0.954700  0.953300  1.0
  C  C553  1  0.561400  0.489700  0.472970  1.0
  C  C554  1  0.561400  0.010300  0.027030  1.0
  C  C555  1  0.438600  0.510300  0.527030  1.0
  C  C556  1  0.438600  0.989700  0.972970  1.0
  C  C557  1  0.557400  0.491700  0.360700  1.0
  C  C558  1  0.557400  0.008300  0.139300  1.0
  C  C559  1  0.442600  0.508300  0.639300  1.0
  C  C560  1  0.442600  0.991700  0.860700  1.0
  C  C561  1  0.594100  0.569000  0.337400  1.0
  C  C562  1  0.594100  0.931000  0.162600  1.0
  C  C563  1  0.405900  0.431000  0.662600  1.0
  C  C564  1  0.405900  0.069000  0.837400  1.0
  C  C565  1  0.638300  0.580200  0.317600  1.0
  C  C566  1  0.638300  0.919800  0.182400  1.0
  C  C567  1  0.361700  0.419800  0.682400  1.0
  C  C568  1  0.361700  0.080200  0.817600  1.0
  C  C569  1  0.665500  0.538800  0.310400  1.0
  C  C570  1  0.665500  0.961200  0.189600  1.0
  C  C571  1  0.334500  0.461200  0.689600  1.0
  C  C572  1  0.334500  0.038800  0.810400  1.0
  C  C573  1  0.709300  0.530100  0.294800  1.0
  C  C574  1  0.709300  0.969900  0.205200  1.0
  C  C575  1  0.290700  0.469900  0.705200  1.0
  C  C576  1  0.290700  0.030100  0.794800  1.0
  C  C577  1  0.741300  0.561900  0.279200  1.0
  C  C578  1  0.741300  0.938100  0.220800  1.0
  C  C579  1  0.258700  0.438100  0.720800  1.0
  C  C580  1  0.258700  0.061900  0.779200  1.0
  C  C581  1  0.783500  0.546900  0.259800  1.0
  C  C582  1  0.783500  0.953100  0.240200  1.0
  C  C583  1  0.216500  0.453100  0.740200  1.0
  C  C584  1  0.216500  0.046900  0.759800  1.0
  C  C585  1  0.793700  0.500200  0.256000  1.0
  C  C586  1  0.793700  0.999800  0.244000  1.0
  C  C587  1  0.206300  0.499800  0.744000  1.0
  C  C588  1  0.206300  0.000200  0.756000  1.0
  C  C589  1  0.761700  0.468400  0.271600  1.0
  C  C590  1  0.761700  0.031600  0.228400  1.0
  C  C591  1  0.238300  0.531600  0.728400  1.0
  C  C592  1  0.238300  0.968400  0.771600  1.0
  C  C593  1  0.703700  0.768600  0.491400  1.0
  C  C594  1  0.703700  0.731400  0.008600  1.0
  C  C595  1  0.296300  0.231400  0.508600  1.0
  C  C596  1  0.296300  0.268600  0.991400  1.0
  C  C597  1  0.712900  0.815400  0.495900  1.0
  C  C598  1  0.712900  0.684600  0.004100  1.0
  C  C599  1  0.287100  0.184600  0.504100  1.0
  C  C600  1  0.287100  0.315400  0.995900  1.0
  C  C601  1  0.704700  0.836900  0.528800  1.0
  C  C602  1  0.704700  0.663100  0.971200  1.0
  C  C603  1  0.295300  0.163100  0.471200  1.0
  C  C604  1  0.295300  0.336900  0.028800  1.0
  C  C605  1  0.687400  0.811500  0.557100  1.0
  C  C606  1  0.687400  0.688500  0.942900  1.0
  C  C607  1  0.312600  0.188500  0.442900  1.0
  C  C608  1  0.312600  0.311500  0.057100  1.0
  C  C609  1  0.678100  0.764700  0.552600  1.0
  C  C610  1  0.678100  0.735300  0.947400  1.0
  C  C611  1  0.321900  0.235300  0.447400  1.0
  C  C612  1  0.321900  0.264700  0.052600  1.0
  C  C613  1  0.719600  0.724100  0.398550  1.0
  C  C614  1  0.719600  0.775900  0.101450  1.0
  C  C615  1  0.280400  0.275900  0.601450  1.0
  C  C616  1  0.280400  0.224100  0.898550  1.0
  C  C617  1  0.727200  0.761700  0.422800  1.0
  C  C618  1  0.727200  0.738300  0.077200  1.0
  C  C619  1  0.272800  0.238300  0.577200  1.0
  C  C620  1  0.272800  0.261700  0.922800  1.0
  C  C621  1  0.713200  0.747200  0.457100  1.0
  C  C622  1  0.713200  0.752800  0.042900  1.0
  C  C623  1  0.286800  0.252800  0.542900  1.0
  C  C624  1  0.286800  0.247200  0.957100  1.0
  C  C625  1  0.691200  0.642300  0.407900  1.0
  C  C626  1  0.691200  0.857700  0.092100  1.0
  C  C627  1  0.308800  0.357700  0.592100  1.0
  C  C628  1  0.308800  0.142300  0.907900  1.0
  C  C629  1  0.740200  0.610900  0.405500  1.0
  C  C630  1  0.740200  0.889100  0.094500  1.0
  C  C631  1  0.259800  0.389100  0.594500  1.0
  C  C632  1  0.259800  0.110900  0.905500  1.0
  C  C633  1  0.737000  0.567300  0.389800  1.0
  C  C634  1  0.737000  0.932700  0.110200  1.0
  C  C635  1  0.263000  0.432700  0.610200  1.0
  C  C636  1  0.263000  0.067300  0.889800  1.0
  C  C637  1  0.780000  0.539600  0.387500  1.0
  C  C638  1  0.780000  0.960400  0.112500  1.0
  C  C639  1  0.220000  0.460400  0.612500  1.0
  C  C640  1  0.220000  0.039600  0.887500  1.0
  C  C641  1  0.826300  0.555500  0.400900  1.0
  C  C642  1  0.826300  0.944500  0.099100  1.0
  C  C643  1  0.173700  0.444500  0.599100  1.0
  C  C644  1  0.173700  0.055500  0.900900  1.0
  C  C645  1  0.829500  0.599100  0.416600  1.0
  C  C646  1  0.829500  0.900900  0.083400  1.0
  C  C647  1  0.170500  0.400900  0.583400  1.0
  C  C648  1  0.170500  0.099100  0.916600  1.0
  C  C649  1  0.786500  0.626800  0.418900  1.0
  C  C650  1  0.786500  0.873200  0.081100  1.0
  C  C651  1  0.213500  0.373200  0.581100  1.0
  C  C652  1  0.213500  0.126800  0.918900  1.0
  C  C653  1  0.780200  0.496700  0.368600  1.0
  C  C654  1  0.780200  0.003300  0.131400  1.0
  C  C655  1  0.219800  0.503300  0.631400  1.0
  C  C656  1  0.219800  0.996700  0.868600  1.0
  C  C657  1  0.753500  0.447100  0.422500  1.0
  C  C658  1  0.753500  0.052900  0.077500  1.0
  C  C659  1  0.246500  0.552900  0.577500  1.0
  C  C660  1  0.246500  0.947100  0.922500  1.0
  C  C661  1  0.713400  0.414900  0.426600  1.0
  C  C662  1  0.713400  0.085100  0.073400  1.0
  C  C663  1  0.286600  0.585100  0.573400  1.0
  C  C664  1  0.286600  0.914900  0.926600  1.0
  C  C665  1  0.684600  0.413300  0.394700  1.0
  C  C666  1  0.684600  0.086700  0.105300  1.0
  C  C667  1  0.315400  0.586700  0.605300  1.0
  C  C668  1  0.315400  0.913300  0.894700  1.0
  C  C669  1  0.643900  0.388800  0.385200  1.0
  C  C670  1  0.643900  0.111200  0.114800  1.0
  C  C671  1  0.356100  0.611200  0.614800  1.0
  C  C672  1  0.356100  0.888800  0.885200  1.0
  C  C673  1  0.619100  0.357900  0.406810  1.0
  C  C674  1  0.619100  0.142100  0.093190  1.0
  C  C675  1  0.380900  0.642100  0.593190  1.0
  C  C676  1  0.380900  0.857900  0.906810  1.0
  C  C677  1  0.578000  0.332600  0.393700  1.0
  C  C678  1  0.578000  0.167400  0.106300  1.0
  C  C679  1  0.422000  0.667400  0.606300  1.0
  C  C680  1  0.422000  0.832600  0.893700  1.0
  C  C681  1  0.561700  0.338200  0.359000  1.0
  C  C682  1  0.561700  0.161800  0.141000  1.0
  C  C683  1  0.438300  0.661800  0.641000  1.0
  C  C684  1  0.438300  0.838200  0.859000  1.0
  C  C685  1  0.586500  0.369100  0.337330  1.0
  C  C686  1  0.586500  0.130900  0.162670  1.0
  C  C687  1  0.413500  0.630900  0.662670  1.0
  C  C688  1  0.413500  0.869100  0.837330  1.0
  C  C689  1  0.618200  0.649800  0.570100  1.0
  C  C690  1  0.618200  0.850200  0.929900  1.0
  C  C691  1  0.381800  0.350200  0.429900  1.0
  C  C692  1  0.381800  0.149800  0.070100  1.0
  C  C693  1  0.606200  0.636200  0.604200  1.0
  C  C694  1  0.606200  0.863800  0.895800  1.0
  C  C695  1  0.393800  0.363800  0.395800  1.0
  C  C696  1  0.393800  0.136200  0.104200  1.0
  C  C697  1  0.644800  0.627200  0.628300  1.0
  C  C698  1  0.644800  0.872800  0.871700  1.0
  C  C699  1  0.355200  0.372800  0.371700  1.0
  C  C700  1  0.355200  0.127200  0.128300  1.0
  C  C701  1  0.695500  0.631800  0.618300  1.0
  C  C702  1  0.695500  0.868200  0.881700  1.0
  C  C703  1  0.304500  0.368200  0.381700  1.0
  C  C704  1  0.304500  0.131800  0.118300  1.0
  C  C705  1  0.707600  0.645300  0.584200  1.0
  C  C706  1  0.707600  0.854700  0.915800  1.0
  C  C707  1  0.292400  0.354700  0.415800  1.0
  C  C708  1  0.292400  0.145300  0.084200  1.0
  C  C709  1  0.512900  0.668500  0.505200  1.0
  C  C710  1  0.512900  0.831500  0.994800  1.0
  C  C711  1  0.487100  0.331500  0.494800  1.0
  C  C712  1  0.487100  0.168500  0.005200  1.0
  C  C713  1  0.527000  0.659200  0.540700  1.0
  C  C714  1  0.527000  0.840800  0.959300  1.0
  C  C715  1  0.473000  0.340800  0.459300  1.0
  C  C716  1  0.473000  0.159200  0.040700  1.0
  C  C717  1  0.581000  0.661700  0.543000  1.0
  C  C718  1  0.581000  0.838300  0.957000  1.0
  C  C719  1  0.419000  0.338300  0.457000  1.0
  C  C720  1  0.419000  0.161700  0.043000  1.0
  C  C721  1  0.567000  0.693400  0.449600  1.0
  C  C722  1  0.567000  0.806600  0.050400  1.0
  C  C723  1  0.433000  0.306600  0.550400  1.0
  C  C724  1  0.433000  0.193400  0.949600  1.0
  C  C725  1  0.575500  0.745700  0.451600  1.0
  C  C726  1  0.575500  0.754300  0.048400  1.0
  C  C727  1  0.424500  0.254300  0.548400  1.0
  C  C728  1  0.424500  0.245700  0.951600  1.0
  C  C729  1  0.594500  0.763800  0.420500  1.0
  C  C730  1  0.594500  0.736200  0.079500  1.0
  C  C731  1  0.405500  0.236200  0.579500  1.0
  C  C732  1  0.405500  0.263800  0.920500  1.0
  C  C733  1  0.605200  0.810400  0.418900  1.0
  C  C734  1  0.605200  0.689600  0.081100  1.0
  C  C735  1  0.394800  0.189600  0.581100  1.0
  C  C736  1  0.394800  0.310400  0.918900  1.0
  C  C737  1  0.597000  0.839000  0.448400  1.0
  C  C738  1  0.597000  0.661000  0.051600  1.0
  C  C739  1  0.403000  0.161000  0.551600  1.0
  C  C740  1  0.403000  0.339000  0.948400  1.0
  C  C741  1  0.578000  0.820900  0.479600  1.0
  C  C742  1  0.578000  0.679100  0.020400  1.0
  C  C743  1  0.422000  0.179100  0.520400  1.0
  C  C744  1  0.422000  0.320900  0.979600  1.0
  C  C745  1  0.567300  0.774200  0.481200  1.0
  C  C746  1  0.567300  0.725800  0.018800  1.0
  C  C747  1  0.432700  0.225800  0.518800  1.0
  C  C748  1  0.432700  0.274200  0.981200  1.0
  C  C749  1  0.630000  0.826400  0.384400  1.0
  C  C750  1  0.630000  0.673600  0.115600  1.0
  C  C751  1  0.370000  0.173600  0.615600  1.0
  C  C752  1  0.370000  0.326400  0.884400  1.0
  C  C753  1  0.658900  0.908800  0.390400  1.0
  C  C754  1  0.658900  0.591200  0.109600  1.0
  C  C755  1  0.341100  0.091200  0.609600  1.0
  C  C756  1  0.341100  0.408800  0.890400  1.0
  C  C757  1  0.636100  0.952000  0.383800  1.0
  C  C758  1  0.636100  0.548000  0.116200  1.0
  C  C759  1  0.363900  0.048000  0.616200  1.0
  C  C760  1  0.363900  0.452000  0.883800  1.0
  C  C761  1  0.587000  0.943700  0.369000  1.0
  C  C762  1  0.587000  0.556300  0.131000  1.0
  C  C763  1  0.413000  0.056300  0.631000  1.0
  C  C764  1  0.413000  0.443700  0.869000  1.0
  C  C765  1  0.547400  0.974100  0.356600  1.0
  C  C766  1  0.547400  0.525900  0.143400  1.0
  C  C767  1  0.452600  0.025900  0.643400  1.0
  C  C768  1  0.452600  0.474100  0.856600  1.0
  C  C769  1  0.550300  0.021800  0.355500  1.0
  C  C770  1  0.550300  0.478200  0.144500  1.0
  C  C771  1  0.449700  0.978200  0.644500  1.0
  C  C772  1  0.449700  0.521800  0.855500  1.0
  C  C773  1  0.510100  0.046700  0.341700  1.0
  C  C774  1  0.510100  0.453300  0.158300  1.0
  C  C775  1  0.489900  0.953300  0.658300  1.0
  C  C776  1  0.489900  0.546700  0.841700  1.0
  C  C777  1  0.466800  0.024100  0.329100  1.0
  C  C778  1  0.466800  0.475900  0.170900  1.0
  C  C779  1  0.533200  0.975900  0.670900  1.0
  C  C780  1  0.533200  0.524100  0.829100  1.0
  C  C781  1  0.463900  0.976500  0.330300  1.0
  C  C782  1  0.463900  0.523500  0.169700  1.0
  C  C783  1  0.536100  0.023500  0.669700  1.0
  C  C784  1  0.536100  0.476500  0.830300  1.0
  C  C785  1  0.424300  0.864300  0.293200  1.0
  C  C786  1  0.424300  0.635700  0.206800  1.0
  C  C787  1  0.575700  0.135700  0.706800  1.0
  C  C788  1  0.575700  0.364300  0.793200  1.0
  C  C789  1  0.377100  0.858100  0.277130  1.0
  C  C790  1  0.377100  0.641900  0.222870  1.0
  C  C791  1  0.622900  0.141900  0.722870  1.0
  C  C792  1  0.622900  0.358100  0.777130  1.0
  C  C793  1  0.333333  0.855700  0.297800  1.0
  C  C794  1  0.333333  0.644300  0.202200  1.0
  C  C795  1  0.666667  0.144300  0.702200  1.0
  C  C796  1  0.666667  0.355700  0.797800  1.0
  C  C797  1  0.336800  0.859600  0.334600  1.0
  C  C798  1  0.336800  0.640400  0.165400  1.0
  C  C799  1  0.663200  0.140400  0.665400  1.0
  C  C800  1  0.663200  0.359600  0.834600  1.0
  C  C801  1  0.384100  0.865900  0.350660  1.0
  C  C802  1  0.384100  0.634100  0.149340  1.0
  C  C803  1  0.615900  0.134100  0.649340  1.0
  C  C804  1  0.615900  0.365900  0.850660  1.0
  C  C805  1  0.537200  0.860000  0.235530  1.0
  C  C806  1  0.537200  0.640000  0.264470  1.0
  C  C807  1  0.462800  0.140000  0.764470  1.0
  C  C808  1  0.462800  0.360000  0.735530  1.0
  C  C809  1  0.483200  0.861900  0.237400  1.0
  C  C810  1  0.483200  0.638100  0.262600  1.0
  C  C811  1  0.516800  0.138100  0.762600  1.0
  C  C812  1  0.516800  0.361900  0.737400  1.0
  C  C813  1  0.469100  0.866200  0.273700  1.0
  C  C814  1  0.469100  0.633800  0.226300  1.0
  C  C815  1  0.530900  0.133800  0.726300  1.0
  C  C816  1  0.530900  0.366200  0.773700  1.0
  C  C817  1  0.605000  0.871000  0.282900  1.0
  C  C818  1  0.605000  0.629000  0.217100  1.0
  C  C819  1  0.395000  0.129000  0.717100  1.0
  C  C820  1  0.395000  0.371000  0.782900  1.0
  C  C821  1  0.622200  0.919600  0.281200  1.0
  C  C822  1  0.622200  0.580400  0.218800  1.0
  C  C823  1  0.377800  0.080400  0.718800  1.0
  C  C824  1  0.377800  0.419600  0.781200  1.0
  C  C825  1  0.595500  0.955100  0.265700  1.0
  C  C826  1  0.595500  0.544900  0.234300  1.0
  C  C827  1  0.404500  0.044900  0.734300  1.0
  C  C828  1  0.404500  0.455100  0.765700  1.0
  C  C829  1  0.613000  0.000100  0.269300  1.0
  C  C830  1  0.613000  0.499900  0.230700  1.0
  C  C831  1  0.387000  0.999900  0.730700  1.0
  C  C832  1  0.387000  0.500100  0.769300  1.0
  C  C833  1  0.657200  0.009400  0.288600  1.0
  C  C834  1  0.657200  0.490600  0.211400  1.0
  C  C835  1  0.342800  0.990600  0.711400  1.0
  C  C836  1  0.342800  0.509400  0.788600  1.0
  C  C837  1  0.683800  0.973900  0.304200  1.0
  C  C838  1  0.683800  0.526100  0.195800  1.0
  C  C839  1  0.316200  0.026100  0.695800  1.0
  C  C840  1  0.316200  0.473900  0.804200  1.0
  C  C841  1  0.666300  0.929000  0.300500  1.0
  C  C842  1  0.666300  0.571000  0.199500  1.0
  C  C843  1  0.333700  0.071000  0.699500  1.0
  C  C844  1  0.333700  0.429000  0.800500  1.0
  C  C845  1  0.579500  0.034500  0.254500  1.0
  C  C846  1  0.579500  0.465500  0.245500  1.0
  C  C847  1  0.420500  0.965500  0.745500  1.0
  C  C848  1  0.420500  0.534500  0.754500  1.0
  C  C849  1  0.600000  0.115900  0.279300  1.0
  C  C850  1  0.600000  0.384100  0.220700  1.0
  C  C851  1  0.400000  0.884100  0.720700  1.0
  C  C852  1  0.400000  0.615900  0.779300  1.0
  C  C853  1  0.637500  0.148700  0.270200  1.0
  C  C854  1  0.637500  0.351300  0.229800  1.0
  C  C855  1  0.362500  0.851300  0.729800  1.0
  C  C856  1  0.362500  0.648700  0.770200  1.0
  C  C857  1  0.663100  0.367900  0.260800  1.0
  C  C858  1  0.663100  0.132100  0.239200  1.0
  C  C859  1  0.336900  0.632100  0.739200  1.0
  C  C860  1  0.336900  0.867900  0.760800  1.0
  C  C861  1  0.701300  0.351900  0.279800  1.0
  C  C862  1  0.701300  0.148100  0.220200  1.0
  C  C863  1  0.298700  0.648100  0.720200  1.0
  C  C864  1  0.298700  0.851900  0.779800  1.0
  C  C865  1  0.725900  0.311200  0.270300  1.0
  C  C866  1  0.725900  0.188800  0.229700  1.0
  C  C867  1  0.274100  0.688800  0.729700  1.0
  C  C868  1  0.274100  0.811200  0.770300  1.0
  C  C869  1  0.766500  0.295700  0.290500  1.0
  C  C870  1  0.766500  0.204300  0.209500  1.0
  C  C871  1  0.233500  0.704300  0.709500  1.0
  C  C872  1  0.233500  0.795700  0.790500  1.0
  C  C873  1  0.782400  0.321100  0.320300  1.0
  C  C874  1  0.782400  0.178900  0.179700  1.0
  C  C875  1  0.217600  0.678900  0.679700  1.0
  C  C876  1  0.217600  0.821100  0.820300  1.0
  C  C877  1  0.757800  0.361800  0.329700  1.0
  C  C878  1  0.757800  0.138200  0.170300  1.0
  C  C879  1  0.242200  0.638200  0.670300  1.0
  C  C880  1  0.242200  0.861800  0.829700  1.0
  C  C881  1  0.466800  0.838400  0.417400  1.0
  C  C882  1  0.466800  0.661600  0.082600  1.0
  C  C883  1  0.533200  0.161600  0.582600  1.0
  C  C884  1  0.533200  0.338400  0.917400  1.0
  C  C885  1  0.450200  0.835500  0.452300  1.0
  C  C886  1  0.450200  0.664500  0.047700  1.0
  C  C887  1  0.549800  0.164500  0.547700  1.0
  C  C888  1  0.549800  0.335500  0.952300  1.0
  C  C889  1  0.446500  0.875000  0.473650  1.0
  C  C890  1  0.446500  0.625000  0.026350  1.0
  C  C891  1  0.553500  0.125000  0.526350  1.0
  C  C892  1  0.553500  0.375000  0.973650  1.0
  C  C893  1  0.459300  0.917400  0.460000  1.0
  C  C894  1  0.459300  0.582600  0.040000  1.0
  C  C895  1  0.540700  0.082600  0.540000  1.0
  C  C896  1  0.540700  0.417400  0.960000  1.0
  C  C897  1  0.475900  0.920300  0.425100  1.0
  C  C898  1  0.475900  0.579700  0.074900  1.0
  C  C899  1  0.524100  0.079700  0.574900  1.0
  C  C900  1  0.524100  0.420300  0.925100  1.0
  C  C901  1  0.481900  0.730200  0.369700  1.0
  C  C902  1  0.481900  0.769800  0.130300  1.0
  C  C903  1  0.518100  0.269800  0.630300  1.0
  C  C904  1  0.518100  0.230200  0.869700  1.0
  C  C905  1  0.463800  0.753400  0.400800  1.0
  C  C906  1  0.463800  0.746600  0.099200  1.0
  C  C907  1  0.536200  0.246600  0.599200  1.0
  C  C908  1  0.536200  0.253400  0.900800  1.0
  C  C909  1  0.473500  0.801000  0.397300  1.0
  C  C910  1  0.473500  0.699000  0.102700  1.0
  C  C911  1  0.526500  0.199000  0.602700  1.0
  C  C912  1  0.526500  0.301000  0.897300  1.0
  C  C913  1  0.529100  0.751600  0.314700  1.0
  C  C914  1  0.529100  0.748400  0.185300  1.0
  C  C915  1  0.470900  0.248400  0.685300  1.0
  C  C916  1  0.470900  0.251600  0.814700  1.0
  C  C917  1  0.495500  0.752800  0.282900  1.0
  C  C918  1  0.495500  0.747200  0.217100  1.0
  C  C919  1  0.504500  0.247200  0.717100  1.0
  C  C920  1  0.504500  0.252800  0.782900  1.0
  C  C921  1  0.444100  0.752000  0.281100  1.0
  C  C922  1  0.444100  0.748000  0.218900  1.0
  C  C923  1  0.555900  0.248000  0.718900  1.0
  C  C924  1  0.555900  0.252000  0.781100  1.0
  N  N925  1  0.369200  0.026900  0.506900  1
  N  N926  1  0.369200  0.473100  0.993100  1
  N  N927  1  0.630800  0.973100  0.493100  1
  N  N928  1  0.630800  0.526900  0.006900  1
  N  N929  1  0.152200  0.691900  0.958870  1.0
  N  N930  1  0.152200  0.808100  0.541130  1.0
  N  N931  1  0.847800  0.308100  0.041130  1.0
  N  N932  1  0.847800  0.191900  0.458870  1.0
  N  N933  1  0.223500  0.646100  0.993700  1.0
  N  N934  1  0.223500  0.853900  0.506300  1.0
  N  N935  1  0.776500  0.353900  0.006300  1.0
  N  N936  1  0.776500  0.146100  0.493700  1.0
  N  N937  1  0.259400  0.614700  0.007400  1.0
  N  N938  1  0.259400  0.885300  0.492600  1.0
  N  N939  1  0.740600  0.385300  0.992600  1.0
  N  N940  1  0.740600  0.114700  0.507400  1.0
  N  N941  1  0.175100  0.494400  0.167000  1.0
  N  N942  1  0.175100  0.005600  0.333000  1.0
  N  N943  1  0.824900  0.505600  0.833000  1.0
  N  N944  1  0.824900  0.994400  0.667000  1.0
  N  N945  1  0.191100  0.540900  0.165130  1.0
  N  N946  1  0.191100  0.959100  0.334870  1.0
  N  N947  1  0.808900  0.459100  0.834870  1.0
  N  N948  1  0.808900  0.040900  0.665130  1.0
  N  N949  1  0.153500  0.408300  0.182450  1.0
  N  N950  1  0.153500  0.091700  0.317550  1.0
  N  N951  1  0.846500  0.591700  0.817550  1.0
  N  N952  1  0.846500  0.908300  0.682450  1.0
  N  N953  1  0.246700  0.735900  0.043800  1.0
  N  N954  1  0.246700  0.764100  0.456200  1.0
  N  N955  1  0.753300  0.264100  0.956200  1.0
  N  N956  1  0.753300  0.235900  0.543800  1.0
  N  N957  1  0.155000  0.695900  0.045300  1.0
  N  N958  1  0.155000  0.804100  0.454700  1.0
  N  N959  1  0.845000  0.304100  0.954700  1.0
  N  N960  1  0.845000  0.195900  0.545300  1.0
  N  N961  1  0.108000  0.674200  0.053000  1.0
  N  N962  1  0.108000  0.825800  0.447000  1.0
  N  N963  1  0.892000  0.325800  0.947000  1.0
  N  N964  1  0.892000  0.174200  0.553000  1.0
  N  N965  1  0.176100  0.467600  0.084700  1.0
  N  N966  1  0.176100  0.032400  0.415300  1.0
  N  N967  1  0.823900  0.532400  0.915300  1.0
  N  N968  1  0.823900  0.967600  0.584700  1.0
  N  N969  1  0.151800  0.489100  0.055800  1.0
  N  N970  1  0.151800  0.010900  0.444200  1.0
  N  N971  1  0.848200  0.510900  0.944200  1.0
  N  N972  1  0.848200  0.989100  0.555800  1.0
  N  N973  1  0.239000  0.424100  0.129000  1.0
  N  N974  1  0.239000  0.075900  0.371000  1.0
  N  N975  1  0.761000  0.575900  0.871000  1.0
  N  N976  1  0.761000  0.924100  0.629000  1.0
  N  N977  1  0.247200  0.738900  0.959720  1.0
  N  N978  1  0.247200  0.761100  0.540280  1.0
  N  N979  1  0.752800  0.261100  0.040280  1.0
  N  N980  1  0.752800  0.238900  0.459720  1.0
  N  N981  1  0.176400  0.784400  0.995100  1.0
  N  N982  1  0.176400  0.715600  0.504900  1.0
  N  N983  1  0.823600  0.215600  0.004900  1.0
  N  N984  1  0.823600  0.284400  0.495100  1.0
  N  N985  1  0.141900  0.816400  0.010990  1.0
  N  N986  1  0.141900  0.683600  0.489010  1.0
  N  N987  1  0.858100  0.183600  0.989010  1.0
  N  N988  1  0.858100  0.316400  0.510990  1.0
  N  N989  1  0.012600  0.814100  0.170100  1.0
  N  N990  1  0.012600  0.685900  0.329900  1.0
  N  N991  1  0.987400  0.185900  0.829900  1.0
  N  N992  1  0.987400  0.314100  0.670100  1.0
  N  N993  1  0.057900  0.787500  0.169000  1.0
  N  N994  1  0.057900  0.712500  0.331000  1.0
  N  N995  1  0.942100  0.212500  0.831000  1.0
  N  N996  1  0.942100  0.287500  0.669000  1.0
  N  N997  1  0.918800  0.847500  0.168700  1.0
  N  N998  1  0.918800  0.652500  0.331300  1.0
  N  N999  1  0.081200  0.152500  0.831300  1.0
  N  N1000  1  0.081200  0.347500  0.668700  1.0
  N  N1001  1  0.995900  0.880900  0.113950  1.0
  N  N1002  1  0.995900  0.619100  0.386050  1.0
  N  N1003  1  0.004100  0.119100  0.886050  1.0
  N  N1004  1  0.004100  0.380900  0.613950  1.0
  N  N1005  1  0.060600  0.915500  0.159700  1.0
  N  N1006  1  0.060600  0.584500  0.340300  1.0
  N  N1007  1  0.939400  0.084500  0.840300  1.0
  N  N1008  1  0.939400  0.415500  0.659700  1.0
  N  N1009  1  0.098300  0.939900  0.179540  1.0
  N  N1010  1  0.098300  0.560100  0.320460  1.0
  N  N1011  1  0.901700  0.060100  0.820460  1.0
  N  N1012  1  0.901700  0.439900  0.679540  1.0
  N  N1013  1  0.079200  0.444100  0.131700  1.0
  N  N1014  1  0.079200  0.055900  0.368300  1.0
  N  N1015  1  0.920800  0.555900  0.868300  1.0
  N  N1016  1  0.920800  0.944100  0.631700  1.0
  N  N1017  1  0.040700  0.024600  0.356900  1.0
  N  N1018  1  0.040700  0.475400  0.143100  1.0
  N  N1019  1  0.959300  0.975400  0.643100  1.0
  N  N1020  1  0.959300  0.524600  0.856900  1.0
  N  N1021  1  0.137700  0.377200  0.103800  1.0
  N  N1022  1  0.137700  0.122800  0.396200  1.0
  N  N1023  1  0.862300  0.622800  0.896200  1.0
  N  N1024  1  0.862300  0.877200  0.603800  1.0
  N  N1025  1  0.954500  0.949600  0.172100  1.0
  N  N1026  1  0.954500  0.550400  0.327900  1.0
  N  N1027  1  0.045500  0.050400  0.827900  1.0
  N  N1028  1  0.045500  0.449600  0.672100  1.0
  N  N1029  1  0.982400  0.898000  0.224900  1.0
  N  N1030  1  0.982400  0.602000  0.275100  1.0
  N  N1031  1  0.017600  0.102000  0.775100  1.0
  N  N1032  1  0.017600  0.398000  0.724900  1.0
  N  N1033  1  0.989100  0.874100  0.257000  1.0
  N  N1034  1  0.989100  0.625900  0.243000  1.0
  N  N1035  1  0.010900  0.125900  0.743000  1.0
  N  N1036  1  0.010900  0.374100  0.757000  1.0
  N  N1037  1  0.760600  0.660900  0.512900  1.0
  N  N1038  1  0.760600  0.839100  0.987100  1.0
  N  N1039  1  0.239400  0.339100  0.487100  1.0
  N  N1040  1  0.239400  0.160900  0.012900  1.0
  N  N1041  1  0.689300  0.601900  0.490900  1.0
  N  N1042  1  0.689300  0.898100  0.009100  1.0
  N  N1043  1  0.310700  0.398100  0.509100  1.0
  N  N1044  1  0.310700  0.101900  0.990900  1.0
  N  N1045  1  0.660000  0.564200  0.477800  1.0
  N  N1046  1  0.660000  0.935800  0.022200  1.0
  N  N1047  1  0.340000  0.435800  0.522200  1.0
  N  N1048  1  0.340000  0.064200  0.977800  1.0
  N  N1049  1  0.638100  0.502200  0.325700  1.0
  N  N1050  1  0.638100  0.997800  0.174300  1.0
  N  N1051  1  0.361900  0.497800  0.674300  1.0
  N  N1052  1  0.361900  0.002200  0.825700  1.0
  N  N1053  1  0.594000  0.520800  0.342300  1.0
  N  N1054  1  0.594000  0.979200  0.157700  1.0
  N  N1055  1  0.406000  0.479200  0.657700  1.0
  N  N1056  1  0.406000  0.020800  0.842300  1.0
  N  N1057  1  0.719500  0.483400  0.291000  1.0
  N  N1058  1  0.719500  0.016600  0.209000  1.0
  N  N1059  1  0.280500  0.516600  0.709000  1.0
  N  N1060  1  0.280500  0.983400  0.791000  1.0
  N  N1061  1  0.686300  0.743300  0.519700  1.0
  N  N1062  1  0.686300  0.756700  0.980300  1.0
  N  N1063  1  0.313700  0.256700  0.480300  1.0
  N  N1064  1  0.313700  0.243300  0.019700  1.0
  N  N1065  1  0.696900  0.700700  0.454200  1.0
  N  N1066  1  0.696900  0.799300  0.045800  1.0
  N  N1067  1  0.303100  0.299300  0.545800  1.0
  N  N1068  1  0.303100  0.200700  0.954200  1.0
  N  N1069  1  0.700900  0.686500  0.418000  1.0
  N  N1070  1  0.700900  0.813500  0.082000  1.0
  N  N1071  1  0.299100  0.313500  0.582000  1.0
  N  N1072  1  0.299100  0.186500  0.918000  1.0
  N  N1073  1  0.707000  0.444600  0.370830  1.0
  N  N1074  1  0.707000  0.055400  0.129170  1.0
  N  N1075  1  0.293000  0.555400  0.629170  1.0
  N  N1076  1  0.293000  0.944600  0.870830  1.0
  N  N1077  1  0.749500  0.465500  0.388000  1.0
  N  N1078  1  0.749500  0.034500  0.112000  1.0
  N  N1079  1  0.250500  0.534500  0.612000  1.0
  N  N1080  1  0.250500  0.965500  0.888000  1.0
  N  N1081  1  0.627600  0.394400  0.350400  1.0
  N  N1082  1  0.627600  0.105600  0.149600  1.0
  N  N1083  1  0.372400  0.605600  0.649600  1.0
  N  N1084  1  0.372400  0.894400  0.850400  1.0
  N  N1085  1  0.668900  0.654300  0.560120  1.0
  N  N1086  1  0.668900  0.845700  0.939880  1.0
  N  N1087  1  0.331100  0.345700  0.439880  1.0
  N  N1088  1  0.331100  0.154300  0.060120  1.0
  N  N1089  1  0.600100  0.672600  0.509000  1.0
  N  N1090  1  0.600100  0.827400  0.991000  1.0
  N  N1091  1  0.399900  0.327400  0.491000  1.0
  N  N1092  1  0.399900  0.172600  0.009000  1.0
  N  N1093  1  0.558000  0.676800  0.485630  1.0
  N  N1094  1  0.558000  0.823200  0.014370  1.0
  N  N1095  1  0.442000  0.323200  0.514370  1.0
  N  N1096  1  0.442000  0.176800  0.985630  1.0
  N  N1097  1  0.579600  0.895400  0.366600  1.0
  N  N1098  1  0.579600  0.604600  0.133400  1.0
  N  N1099  1  0.420400  0.104600  0.633400  1.0
  N  N1100  1  0.420400  0.395400  0.866600  1.0
  N  N1101  1  0.624000  0.873900  0.379800  1.0
  N  N1102  1  0.624000  0.626100  0.120200  1.0
  N  N1103  1  0.376000  0.126100  0.620200  1.0
  N  N1104  1  0.376000  0.373900  0.879800  1.0
  N  N1105  1  0.504100  0.951500  0.344000  1.0
  N  N1106  1  0.504100  0.548500  0.156000  1.0
  N  N1107  1  0.495900  0.048500  0.656000  1.0
  N  N1108  1  0.495900  0.451500  0.844000  1.0
  N  N1109  1  0.427900  0.868200  0.330000  1.0
  N  N1110  1  0.427900  0.631800  0.170000  1.0
  N  N1111  1  0.572100  0.131800  0.670000  1.0
  N  N1112  1  0.572100  0.368200  0.830000  1.0
  N  N1113  1  0.514500  0.867000  0.294310  1.0
  N  N1114  1  0.514500  0.633000  0.205690  1.0
  N  N1115  1  0.485500  0.133000  0.705690  1.0
  N  N1116  1  0.485500  0.367000  0.794310  1.0
  N  N1117  1  0.556500  0.863100  0.270700  1.0
  N  N1118  1  0.556500  0.636900  0.229300  1.0
  N  N1119  1  0.443500  0.136900  0.729300  1.0
  N  N1120  1  0.443500  0.363100  0.770700  1.0
  N  N1121  1  0.641300  0.411000  0.270800  1.0
  N  N1122  1  0.641300  0.089000  0.229200  1.0
  N  N1123  1  0.358700  0.589000  0.729200  1.0
  N  N1124  1  0.358700  0.911000  0.770800  1.0
  N  N1125  1  0.602300  0.079100  0.254000  1.0
  N  N1126  1  0.602300  0.420900  0.246000  1.0
  N  N1127  1  0.397700  0.920900  0.746000  1.0
  N  N1128  1  0.397700  0.579100  0.754000  1.0
  N  N1129  1  0.717200  0.377300  0.309500  1.0
  N  N1130  1  0.717200  0.122700  0.190500  1.0
  N  N1131  1  0.282800  0.622700  0.690500  1.0
  N  N1132  1  0.282800  0.877300  0.809500  1.0
  N  N1133  1  0.479600  0.880800  0.403810  1.0
  N  N1134  1  0.479600  0.619200  0.096190  1.0
  N  N1135  1  0.520400  0.119200  0.596190  1.0
  N  N1136  1  0.520400  0.380800  0.903810  1.0
  N  N1137  1  0.497600  0.807300  0.364000  1.0
  N  N1138  1  0.497600  0.692700  0.136000  1.0
  N  N1139  1  0.502400  0.192700  0.636000  1.0
  N  N1140  1  0.502400  0.307300  0.864000  1.0
  N  N1141  1  0.502800  0.763500  0.346940  1.0
  N  N1142  1  0.502800  0.736500  0.153060  1.0
  N  N1143  1  0.497200  0.236500  0.653060  1.0
  N  N1144  1  0.497200  0.263500  0.846940  1.0
  Cl  Cl1145  1  0.999600  0.265700  0.487090  1
  Cl  Cl1146  1  0.999600  0.234300  0.012910  1
  Cl  Cl1147  1  0.000400  0.734300  0.512910  1
  Cl  Cl1148  1  0.000400  0.765700  0.987090  1
  O  O1149  1  0.051500  0.280700  0.488400  1
  O  O1150  1  0.051500  0.219300  0.011600  1
  O  O1151  1  0.948500  0.719300  0.511600  1
  O  O1152  1  0.948500  0.780700  0.988400  1
  O  O1153  1  0.996300  0.219100  0.469800  1
  O  O1154  1  0.996300  0.280900  0.030200  1
  O  O1155  1  0.003700  0.780900  0.530200  1
  O  O1156  1  0.003700  0.719100  0.969800  1
  O  O1157  1  0.992200  0.257100  0.526000  1
  O  O1158  1  0.992200  0.242900  0.974000  1
  O  O1159  1  0.007800  0.742900  0.474000  1
  O  O1160  1  0.007800  0.757100  0.026000  1
  O  O1161  1  0.963800  0.300400  0.475900  1
  O  O1162  1  0.963800  0.199600  0.024100  1
  O  O1163  1  0.036200  0.699600  0.524100  1
  O  O1164  1  0.036200  0.800400  0.975900  1
  O  O1165  1  0.356100  0.994300  0.488400  1
  O  O1166  1  0.356100  0.505700  0.011600  1
  O  O1167  1  0.643900  0.005700  0.511600  1
  O  O1168  1  0.643900  0.494300  0.988400  1
  O  O1169  1  0.339500  0.055100  0.520500  1
  O  O1170  1  0.339500  0.444900  0.979500  1
  O  O1171  1  0.660500  0.944900  0.479500  1
  O  O1172  1  0.660500  0.555100  0.020500  1
