
#######################################################################
#
#                 Cambridge Crystallographic Data Centre
#                                CCDC 
#
#######################################################################
#
# If this CIF has been generated from an entry in the Cambridge 
# Structural Database, then it will include bibliographic, chemical, 
# crystal, experimental, refinement or atomic coordinate data resulting 
# from the CCDC's data processing and validation procedures.
#
#######################################################################

data_DEBLOM
_chemical_formula_moiety         
'C288 H240 N72 Zn8 16+,16(B1 F4 1-),20(C2 H3 N1),C4 H10 O1'
_chemical_name_systematic        
'dodecakis(\m~2~-1,3-bis(3-(2-Pyridyl)imidazolylmethyl)benzene)-octa-zinc(ii) hexadecakis(tetrafluoroborate) acetonitrile diethyl ether solvate'
_symmetry_cell_setting           triclinic
_symmetry_space_group_name_H-M   'P -1'
_symmetry_Int_Tables_number      2
_space_group_name_Hall           '-P 1'
loop_
_symmetry_equiv_pos_site_id
_symmetry_equiv_pos_as_xyz
1 x,y,z
2 -x,-y,-z
_cell_length_a                   19.440(3)
_cell_length_b                   21.855(4)
_cell_length_c                   23.828(4)
_cell_angle_alpha                106.286(3)
_cell_angle_beta                 105.450(3)
_cell_angle_gamma                107.424(3)
_cell_volume                     8566.17
_exptl_crystal_colour            colorless
_exptl_crystal_description       block
_cell_formula_units_Z            1
loop_
_atom_site_label
_atom_site_type_symbol
_atom_site_fract_x
_atom_site_fract_y
_atom_site_fract_z
B1 B 0.4689(8) 0.3687(7) 0.4474(6)
F1 F 0.4109(7) 0.3544(6) 0.3920(5)
F2 F 0.4787(5) 0.3122(4) 0.4544(4)
F3 F 0.5376(4) 0.4206(4) 0.4611(4)
F4 F 0.4499(7) 0.3939(6) 0.4996(5)
N37 N 0.081(2) 0.0436(17) 0.6035(16)
C145 C 0.104(2) 0.057(2) 0.5622(16)
C146 C 0.0861(17) 0.0456(16) 0.4909(13)
H1 H 0.1347 0.0688 0.4863
H2 H 0.0489 0.0654 0.4772
H3 H 0.0639 -0.0044 0.4647
C1 C 0.8413(5) 0.5269(5) 0.6763(4)
C2 C 0.8727(5) 0.5968(5) 0.7308(4)
C3 C 0.4426(5) 0.6181(5) 0.7679(4)
Zn1 Zn 0.52075(6) 0.92217(6) 0.67608(5)
Zn2 Zn 0.73922(6) 0.54159(6) 0.28806(5)
Zn3 Zn 1.01248(6) 0.87330(6) 0.73123(5)
Zn4 Zn 0.23468(6) 0.58707(6) 0.23244(5)
N1 N 0.4817(5) 0.9486(4) 0.7561(3)
C4 C 0.4935(5) 0.9146(5) 0.7937(4)
C5 C 0.4750(5) 0.9266(5) 0.8473(4)
C6 C 0.4466(6) 0.9779(5) 0.8619(5)
C7 C 0.4364(6) 1.0144(6) 0.8246(5)
C8 C 0.4548(6) 0.9988(6) 0.7709(5)
N2 N 0.5533(4) 0.8643(4) 0.7286(3)
N3 N 0.5891(4) 0.8178(4) 0.7258(3)
C9 C 0.5919(5) 0.7965(5) 0.7739(4)
C10 C 0.5549(5) 0.8263(5) 0.8082(4)
C11 C 0.5325(5) 0.8674(5) 0.7789(4)
C12 C 0.6347(5) 0.8132(5) 0.6867(4)
C13 C 0.7140(5) 0.8759(5) 0.7175(4)
C14 C 0.7589(5) 0.8866(5) 0.6800(4)
C15 C 0.8301(5) 0.9391(5) 0.7045(4)
C16 C 0.8617(6) 0.9851(5) 0.7686(4)
C17 C 0.8170(6) 0.9745(5) 0.8052(5)
C18 C 0.7455(6) 0.9211(5) 0.7800(4)
C19 C 0.8748(5) 0.9501(5) 0.6626(4)
N4 N 1.0073(4) 0.9710(4) 0.7283(3)
N5 N 0.9566(4) 0.9951(4) 0.6975(3)
C20 C 0.9935(6) 1.0644(5) 0.7143(4)
C21 C 1.0681(6) 1.0887(6) 0.7561(5)
C22 C 1.0735(6) 1.0282(5) 0.7631(4)
N6 N 1.1304(4) 0.9517(4) 0.7908(3)
C23 C 1.1431(6) 1.0202(5) 0.8012(4)
C24 C 1.2091(6) 1.0767(6) 0.8449(5)
C25 C 1.2713(6) 1.0649(6) 0.8792(5)
C26 C 1.2591(6) 0.9953(5) 0.8676(5)
C27 C 1.1907(5) 0.9412(5) 0.8235(4)
N7 N 0.9808(5) 0.8835(4) 0.8121(4)
C28 C 0.9067(5) 0.8448(5) 0.8003(4)
C29 C 0.8776(6) 0.8518(5) 0.8491(4)
C30 C 0.9268(6) 0.8975(6) 0.9092(5)
C31 C 1.0013(6) 0.9369(6) 0.9215(5)
C32 C 1.0279(6) 0.9291(6) 0.8717(5)
N8 N 0.8866(4) 0.8035(4) 0.6904(4)
N9 N 0.8277(5) 0.7537(4) 0.6349(4)
C33 C 0.7672(6) 0.7183(5) 0.6452(4)
C34 C 0.7849(6) 0.7438(5) 0.7089(4)
C35 C 0.8591(5) 0.7962(5) 0.7362(4)
C36 C 0.8342(5) 0.7445(5) 0.5739(4)
C37 C 0.8738(5) 0.6967(5) 0.5550(4)
C38 C 0.8885(5) 0.6922(5) 0.4995(4)
C39 C 0.9252(5) 0.6496(5) 0.4789(4)
C40 C 0.9469(5) 0.6123(5) 0.5133(4)
C41 C 0.9333(5) 0.6162(5) 0.5679(4)
C42 C 0.8972(5) 0.6600(5) 0.5891(4)
C43 C 0.9444(5) 0.6463(5) 0.4210(4)
N10 N 0.8288(4) 0.6466(4) 0.3480(3)
N11 N 0.9074(5) 0.6786(4) 0.3835(3)
C44 C 0.9384(7) 0.7446(6) 0.3865(5)
C45 C 0.8790(6) 0.7556(6) 0.3515(5)
C46 C 0.8129(6) 0.6953(5) 0.3287(4)
N12 N 0.6881(4) 0.6065(5) 0.2576(3)
C47 C 0.7333(6) 0.6761(6) 0.2857(5)
C48 C 0.7055(6) 0.7252(6) 0.2733(5)
C49 C 0.6305(7) 0.6987(6) 0.2288(5)
C50 C 0.5868(6) 0.6317(6) 0.1988(5)
C51 C 0.6143(6) 0.5833(6) 0.2137(4)
N13 N 0.7951(4) 0.4866(4) 0.3284(3)
C52 C 0.7839(5) 0.4769(5) 0.3794(4)
C53 C 0.8223(5) 0.4449(5) 0.4106(4)
C54 C 0.8732(6) 0.4222(5) 0.3900(5)
C55 C 0.8850(6) 0.4315(5) 0.3386(4)
C56 C 0.8442(5) 0.4622(5) 0.3068(4)
N14 N 0.6942(4) 0.5322(4) 0.3642(3)
N15 N 0.6526(4) 0.5562(4) 0.3969(3)
C57 C 0.6623(5) 0.5422(5) 0.4489(4)
C58 C 0.7133(5) 0.5088(5) 0.4529(4)
C59 C 0.7307(5) 0.5053(5) 0.3987(4)
C60 C 0.5990(5) 0.5863(5) 0.3726(4)
C61 C 0.5194(5) 0.5330(5) 0.3253(4)
C62 C 0.4821(5) 0.5451(5) 0.2743(4)
C63 C 0.4074(5) 0.4971(5) 0.2291(4)
C64 C 0.3721(5) 0.4362(5) 0.2354(4)
C65 C 0.4077(5) 0.4250(5) 0.2877(4)
C66 C 0.4817(5) 0.4732(5) 0.3330(4)
C67 C 0.3732(5) 0.5138(5) 0.1734(4)
N16 N 0.2390(4) 0.4965(4) 0.1670(3)
N17 N 0.2887(4) 0.4778(4) 0.1408(3)
C68 C 0.2484(6) 0.4225(5) 0.0836(5)
C69 C 0.1699(6) 0.4039(5) 0.0718(4)
C70 C 0.1674(5) 0.4514(5) 0.1249(4)
N18 N 0.1171(4) 0.5135(4) 0.1907(3)
C71 C 0.0993(5) 0.4546(5) 0.1393(4)
C72 C 0.0254(5) 0.4034(5) 0.1066(4)
C73 C -0.0348(6) 0.4106(5) 0.1255(4)
C74 C -0.0167(6) 0.4706(5) 0.1770(4)
C75 C 0.0561(5) 0.5191(5) 0.2071(4)
N19 N 0.2116(4) 0.6228(4) 0.1545(3)
C76 C 0.1726(5) 0.6651(5) 0.1587(4)
C77 C 0.1492(5) 0.6885(5) 0.1116(4)
C78 C 0.1665(5) 0.6699(5) 0.0589(4)
C79 C 0.2071(5) 0.6261(5) 0.0540(4)
C80 C 0.2278(5) 0.6047(5) 0.1025(4)
N20 N 0.1984(4) 0.6723(4) 0.2660(3)
N21 N 0.1762(4) 0.6976(4) 0.3140(3)
C81 C 0.1253(6) 0.7268(5) 0.2964(4)
C82 C 0.1122(6) 0.7180(5) 0.2342(4)
C83 C 0.1593(5) 0.6844(5) 0.2172(4)
C84 C 0.2200(5) 0.7074(5) 0.3781(4)
C85 C 0.2980(5) 0.7686(5) 0.4084(4)
C86 C 0.3636(5) 0.7629(5) 0.4438(4)
C87 C 0.4351(5) 0.8183(5) 0.4752(4)
C88 C 0.4443(6) 0.8830(5) 0.4724(4)
C89 C 0.3791(5) 0.8887(5) 0.4353(4)
C90 C 0.3080(5) 0.8334(5) 0.4044(4)
C91 C 0.5043(5) 0.8080(5) 0.5148(4)
N22 N 0.5824(4) 0.9143(4) 0.6115(3)
N23 N 0.5726(4) 0.8724(4) 0.5536(3)
C92 C 0.6324(5) 0.9033(5) 0.5377(4)
C93 C 0.6822(5) 0.9643(5) 0.5853(4)
C94 C 0.6494(5) 0.9700(5) 0.6313(4)
N24 N 0.6320(4) 1.0096(4) 0.7279(3)
C95 C 0.6790(5) 1.0223(5) 0.6953(4)
C96 C 0.7508(6) 1.0760(5) 0.7213(5)
C97 C 0.7801(7) 1.1204(6) 0.7850(5)
C98 C 0.7335(6) 1.1083(6) 0.8196(5)
C99 C 0.6609(6) 1.0535(6) 0.7891(5)
N25 N 0.4598(4) 0.9740(4) 0.6323(3)
C100 C 0.3856(5) 0.9379(5) 0.5979(4)
C101 C 0.3344(6) 0.9670(5) 0.5725(4)
C102 C 0.3681(6) 1.0375(6) 0.5861(5)
C103 C 0.4433(6) 1.0756(6) 0.6194(5)
C104 C 0.4909(6) 1.0430(6) 0.6434(5)
N26 N 0.4060(4) 0.8369(4) 0.6103(3)
N27 N 0.3545(5) 0.8628(6) 0.5847(4)
C105 C 0.2813(6) 0.8089(6) 0.5484(5)
C106 C 0.2886(6) 0.7502(6) 0.5522(4)
C107 C 0.3628(5) 0.7681(4) 0.5887(4)
C108 C 0.3951(5) 0.7228(5) 0.6081(4)
C109 C 0.3840(5) 0.7131(5) 0.6657(4)
C110 C 0.4119(5) 0.6697(5) 0.6881(4)
C111 C 0.4048(5) 0.6603(5) 0.7424(4)
C112 C 0.3658(5) 0.6951(5) 0.7731(5)
C113 C 0.3371(6) 0.7368(5) 0.7497(4)
C114 C 0.3453(5) 0.7471(5) 0.6966(4)
N28 N 0.6560(5) 0.4524(4) 0.2050(4)
N29 N 0.4158(5) 0.5987(4) 0.8147(4)
C115 C 0.4479(6) 0.6348(6) 0.8786(5)
C116 C 0.3948(5) 0.6042(5) 0.9006(5)
C117 C 0.6676(5) 0.4481(5) 0.1504(4)
N30 N 0.7926(5) 0.5431(4) 0.2147(4)
C118 C 0.7419(5) 0.4968(5) 0.1555(4)
C119 C 0.7592(6) 0.4977(5) 0.1029(5)
C120 C 0.8299(6) 0.5462(5) 0.1121(5)
C121 C 0.8820(6) 0.5921(6) 0.1712(5)
C122 C 0.8609(6) 0.5893(5) 0.2232(5)
N31 N 1.0355(4) 0.8526(4) 0.6458(3)
C123 C 1.0733(5) 0.8090(5) 0.6386(4)
C124 C 1.0982(5) 0.7956(5) 0.5876(4)
C125 C 1.0850(5) 0.8262(5) 0.5463(5)
C126 C 1.0473(5) 0.8715(5) 0.5531(4)
C127 C 1.0237(6) 0.8820(5) 0.6049(5)
N32 N 1.0576(4) 0.7915(4) 0.7305(3)
N33 N 1.0861(5) 0.7631(4) 0.7700(4)
C128 C 1.1316(6) 0.7324(5) 0.7485(5)
C129 C 1.1353(5) 0.7438(5) 0.6971(4)
C130 C 1.0881(5) 0.7810(5) 0.6852(4)
C131 C 1.0617(5) 0.7591(5) 0.8218(4)
C132 C 0.9811(5) 0.7074(5) 0.8019(4)
C133 C 0.9465(6) 0.6434(5) 0.7490(4)
C134 C 0.8272(5) 0.6125(5) 0.7651(4)
C135 C 0.8600(6) 0.6750(5) 0.8174(5)
C136 C 0.9354(6) 0.7205(5) 0.8370(5)
N34 N 0.2678(4) 0.5607(4) 0.3180(3)
N35 N 0.7593(5) 0.4842(4) 0.6552(3)
C137 C 0.6998(6) 0.4841(5) 0.6101(5)
C138 C 0.6317(6) 0.4373(5) 0.6050(5)
C139 C 0.3457(5) 0.5895(5) 0.3488(4)
N36 N 0.3544(5) 0.6489(4) 0.2792(3)
C140 C 0.3924(5) 0.6415(5) 0.3312(4)
C141 C 0.4722(6) 0.6795(5) 0.3648(5)
C142 C 0.5129(6) 0.7259(5) 0.3443(5)
C143 C 0.4748(6) 0.7339(5) 0.2911(5)
C144 C 0.3949(6) 0.6954(5) 0.2605(5)
C1A C 0.1587(5) 0.4731(5) 0.3237(4)
C2A C 0.1273(5) 0.4032(5) 0.2692(4)
C3A C 0.5574(5) 0.3819(5) 0.2321(4)
Zn1A Zn 0.47925(6) 0.07783(6) 0.32392(5)
Zn2A Zn 0.26078(6) 0.45841(6) 0.71194(5)
Zn3A Zn -0.01248(6) 0.12670(6) 0.26877(5)
Zn4A Zn 0.76532(6) 0.41293(6) 0.76756(5)
N1A N 0.5183(5) 0.0514(4) 0.2439(3)
C4A C 0.5065(5) 0.0854(5) 0.2063(4)
C5A C 0.5250(5) 0.0734(5) 0.1527(4)
C6A C 0.5534(6) 0.0221(5) 0.1381(5)
C7A C 0.5636(6) -0.0144(6) 0.1754(5)
C8A C 0.5452(6) 0.0012(6) 0.2291(5)
N2A N 0.4467(4) 0.1357(4) 0.2714(3)
N3A N 0.4109(4) 0.1822(4) 0.2742(3)
C9A C 0.4081(5) 0.2035(5) 0.2261(4)
C10A C 0.4451(5) 0.1737(5) 0.1918(4)
C11A C 0.4675(5) 0.1326(5) 0.2211(4)
C12A C 0.3653(5) 0.1868(5) 0.3133(4)
C13A C 0.2860(5) 0.1241(5) 0.2825(4)
C14A C 0.2411(5) 0.1134(5) 0.3200(4)
C15A C 0.1699(5) 0.0609(5) 0.2955(4)
C16A C 0.1383(6) 0.0149(5) 0.2314(4)
C17A C 0.1830(6) 0.0255(5) 0.1948(5)
C18A C 0.2545(6) 0.0789(5) 0.2200(4)
C19A C 0.1252(5) 0.0499(5) 0.3374(4)
N4A N -0.0073(4) 0.0290(4) 0.2717(3)
N5A N 0.0434(4) 0.0049(4) 0.3025(3)
C20A C 0.0065(6) -0.0644(5) 0.2857(4)
C21A C -0.0681(6) -0.0887(6) 0.2439(5)
C22A C -0.0735(6) -0.0282(5) 0.2369(4)
N6A N -0.1304(4) 0.0483(4) 0.2092(3)
C23A C -0.1431(6) -0.0202(5) 0.1988(4)
C24A C -0.2091(6) -0.0767(6) 0.1551(5)
C25A C -0.2713(6) -0.0649(6) 0.1208(5)
C26A C -0.2591(6) 0.0047(5) 0.1324(5)
C27A C -0.1907(5) 0.0588(5) 0.1765(4)
N7A N 0.0192(5) 0.1165(4) 0.1879(4)
C28A C 0.0933(5) 0.1552(5) 0.1997(4)
C29A C 0.1224(6) 0.1482(5) 0.1509(4)
C30A C 0.0732(6) 0.1025(6) 0.0908(5)
C31A C -0.0013(6) 0.0631(6) 0.0785(5)
C32A C -0.0279(6) 0.0709(6) 0.1283(5)
N8A N 0.1134(4) 0.1965(4) 0.3096(4)
N9A N 0.1723(5) 0.2463(4) 0.3651(4)
C33A C 0.2328(6) 0.2817(5) 0.3548(4)
C34A C 0.2151(6) 0.2562(5) 0.2911(4)
C35A C 0.1409(5) 0.2038(5) 0.2638(4)
C36A C 0.1658(5) 0.2555(5) 0.4261(4)
C37A C 0.1262(5) 0.3033(5) 0.4450(4)
C38A C 0.1115(5) 0.3078(5) 0.5005(4)
C39A C 0.0748(5) 0.3504(5) 0.5211(4)
C40A C 0.0531(5) 0.3877(5) 0.4867(4)
C41A C 0.0667(5) 0.3838(5) 0.4321(4)
C42A C 0.1028(5) 0.3400(5) 0.4109(4)
C43A C 0.0556(5) 0.3537(5) 0.5790(4)
N10A N 0.1712(4) 0.3534(4) 0.6520(3)
N11A N 0.0926(5) 0.3214(4) 0.6165(3)
C44A C 0.0616(7) 0.2554(6) 0.6135(5)
C45A C 0.1210(6) 0.2444(6) 0.6485(5)
C46A C 0.1871(6) 0.3047(5) 0.6713(4)
N12A N 0.3119(4) 0.3935(5) 0.7424(3)
C47A C 0.2667(6) 0.3239(6) 0.7143(5)
C48A C 0.2945(6) 0.2748(6) 0.7267(5)
C49A C 0.3695(7) 0.3013(6) 0.7712(5)
C50A C 0.4132(6) 0.3683(6) 0.8012(5)
C51A C 0.3857(6) 0.4167(6) 0.7863(4)
N13A N 0.2049(4) 0.5134(4) 0.6716(3)
C52A C 0.2161(5) 0.5231(5) 0.6206(4)
C53A C 0.1777(5) 0.5551(5) 0.5894(4)
C54A C 0.1268(6) 0.5778(5) 0.6100(5)
C55A C 0.1150(6) 0.5685(5) 0.6614(4)
C56A C 0.1558(5) 0.5378(5) 0.6932(4)
N14A N 0.3058(4) 0.4678(4) 0.6358(3)
N15A N 0.3474(4) 0.4438(4) 0.6031(3)
C57A C 0.3377(5) 0.4578(5) 0.5511(4)
C58A C 0.2867(5) 0.4912(5) 0.5471(4)
C59A C 0.2693(5) 0.4947(5) 0.6013(4)
C60A C 0.4010(5) 0.4137(5) 0.6274(4)
C61A C 0.4806(5) 0.4670(5) 0.6747(4)
C62A C 0.5179(5) 0.4549(5) 0.7257(4)
C63A C 0.5926(5) 0.5029(5) 0.7709(4)
C64A C 0.6279(5) 0.5638(5) 0.7646(4)
C65A C 0.5923(5) 0.5750(5) 0.7123(4)
C66A C 0.5183(5) 0.5268(5) 0.6670(4)
C67A C 0.6268(5) 0.4862(5) 0.8266(4)
N16A N 0.7610(4) 0.5035(4) 0.8330(3)
N17A N 0.7113(4) 0.5222(4) 0.8592(3)
C68A C 0.7516(6) 0.5775(5) 0.9164(5)
C69A C 0.8301(6) 0.5961(5) 0.9282(4)
C70A C 0.8326(5) 0.5486(5) 0.8751(4)
N18A N 0.8829(4) 0.4865(4) 0.8093(3)
C71A C 0.9007(5) 0.5454(5) 0.8607(4)
C72A C 0.9746(5) 0.5966(5) 0.8934(4)
C73A C 1.0348(6) 0.5894(5) 0.8745(4)
C74A C 1.0167(6) 0.5294(5) 0.8230(4)
C75A C 0.9439(5) 0.4809(5) 0.7929(4)
N19A N 0.7884(4) 0.3772(4) 0.8455(3)
C76A C 0.8274(5) 0.3349(5) 0.8413(4)
C77A C 0.8508(5) 0.3115(5) 0.8884(4)
C78A C 0.8335(5) 0.3301(5) 0.9411(4)
C79A C 0.7929(5) 0.3739(5) 0.9460(4)
C80A C 0.7722(5) 0.3953(5) 0.8975(4)
N20A N 0.8016(4) 0.3277(4) 0.7340(3)
N21A N 0.8238(4) 0.3024(4) 0.6860(3)
C81A C 0.8747(6) 0.2732(5) 0.7036(4)
C82A C 0.8878(6) 0.2820(5) 0.7658(4)
C83A C 0.8407(5) 0.3156(5) 0.7828(4)
C84A C 0.7800(5) 0.2926(5) 0.6219(4)
C85A C 0.7020(5) 0.2314(5) 0.5916(4)
C86A C 0.6364(5) 0.2371(5) 0.5562(4)
C87A C 0.5649(5) 0.1817(5) 0.5248(4)
C88A C 0.5557(6) 0.1170(5) 0.5276(4)
C89A C 0.6209(5) 0.1113(5) 0.5647(4)
C90A C 0.6920(5) 0.1666(5) 0.5956(4)
C91A C 0.4957(5) 0.1920(5) 0.4852(4)
N22A N 0.4176(4) 0.0857(4) 0.3885(3)
N23A N 0.4274(4) 0.1276(4) 0.4464(3)
C92A C 0.3676(5) 0.0967(5) 0.4623(4)
C93A C 0.3178(5) 0.0357(5) 0.4147(4)
C94A C 0.3506(5) 0.0300(5) 0.3687(4)
N24A N 0.3680(4) -0.0096(4) 0.2721(3)
C95A C 0.3210(5) -0.0223(5) 0.3047(4)
C96A C 0.2492(6) -0.0760(5) 0.2787(5)
C97A C 0.2199(7) -0.1204(6) 0.2150(5)
C98A C 0.2665(6) -0.1083(6) 0.1804(5)
C99A C 0.3391(6) -0.0535(6) 0.2109(5)
N25A N 0.5402(4) 0.0260(4) 0.3677(3)
C100A C 0.6144(5) 0.0621(5) 0.4021(4)
C101A C 0.6656(6) 0.0330(5) 0.4275(4)
C102A C 0.6319(6) -0.0375(6) 0.4139(5)
C103A C 0.5567(6) -0.0756(6) 0.3806(5)
C104A C 0.5091(6) -0.0430(6) 0.3566(5)
N26A N 0.5940(4) 0.1631(4) 0.3897(3)
N27A N 0.6455(5) 0.1372(6) 0.4153(4)
C105A C 0.7187(6) 0.1911(6) 0.4516(5)
C106A C 0.7114(6) 0.2498(6) 0.4478(4)
C107A C 0.6372(5) 0.2319(4) 0.4113(4)
C108A C 0.6049(5) 0.2772(5) 0.3919(4)
C109A C 0.6160(5) 0.2869(5) 0.3343(4)
C110A C 0.5881(5) 0.3303(5) 0.3119(4)
C111A C 0.5952(5) 0.3397(5) 0.2576(4)
C112A C 0.6342(5) 0.3049(5) 0.2269(5)
C113A C 0.6629(6) 0.2632(5) 0.2503(4)
C114A C 0.6547(5) 0.2529(5) 0.3034(4)
N28A N 0.3440(5) 0.5476(4) 0.7950(4)
N29A N 0.5842(5) 0.4013(4) 0.1853(4)
C115A C 0.5521(6) 0.3652(6) 0.1214(5)
C116A C 0.6052(5) 0.3958(5) 0.0994(5)
C117A C 0.3324(5) 0.5519(5) 0.8496(4)
N30A N 0.2074(5) 0.4569(4) 0.7853(4)
C118A C 0.2581(5) 0.5032(5) 0.8445(4)
C119A C 0.2408(6) 0.5023(5) 0.8971(5)
C120A C 0.1701(6) 0.4538(5) 0.8879(5)
C121A C 0.1180(6) 0.4079(6) 0.8288(5)
C122A C 0.1391(6) 0.4107(5) 0.7768(5)
N31A N -0.0355(4) 0.1474(4) 0.3542(3)
C123A C -0.0733(5) 0.1910(5) 0.3614(4)
C124A C -0.0982(5) 0.2044(5) 0.4124(4)
C125A C -0.0850(5) 0.1738(5) 0.4537(5)
C126A C -0.0473(5) 0.1285(5) 0.4469(4)
C127A C -0.0237(6) 0.1180(5) 0.3951(5)
N32A N -0.0576(4) 0.2085(4) 0.2695(3)
N33A N -0.0861(5) 0.2369(4) 0.2300(4)
C128A C -0.1316(6) 0.2676(5) 0.2515(5)
C129A C -0.1353(5) 0.2562(5) 0.3029(4)
C130A C -0.0881(5) 0.2190(5) 0.3148(4)
C131A C -0.0617(5) 0.2409(5) 0.1782(4)
C132A C 0.0189(5) 0.2926(5) 0.1981(4)
C133A C 0.0535(6) 0.3566(5) 0.2510(4)
C134A C 0.1728(5) 0.3875(5) 0.2349(4)
C135A C 0.1400(6) 0.3250(5) 0.1826(5)
C136A C 0.0646(6) 0.2795(5) 0.1630(5)
N34A N 0.7322(4) 0.4393(4) 0.6820(3)
N35A N 0.2407(5) 0.5158(4) 0.3448(3)
C137A C 0.3002(6) 0.5159(5) 0.3899(5)
C138A C 0.3683(6) 0.5627(5) 0.3950(5)
C139A C 0.6543(5) 0.4105(5) 0.6512(4)
N36A N 0.6456(5) 0.3511(4) 0.7208(3)
C140A C 0.6076(5) 0.3585(5) 0.6688(4)
C141A C 0.5278(6) 0.3205(5) 0.6352(5)
C142A C 0.4871(6) 0.2741(5) 0.6557(5)
C143A C 0.5252(6) 0.2661(5) 0.7089(5)
C144A C 0.6051(6) 0.3046(5) 0.7395(5)
loop_
_geom_bond_atom_site_label_1
_geom_bond_atom_site_label_2
_geom_bond_site_symmetry_1
_geom_bond_site_symmetry_2
C1 C2 1_555 1_555
C2 C133 1_555 1_555
C3 C111 1_555 1_555
Zn1 N1 1_555 1_555
Zn2 N10 1_555 1_555
Zn3 N4 1_555 1_555
Zn4 N16 1_555 1_555
N1 C4 1_555 1_555
C4 C5 1_555 1_555
C5 C6 1_555 1_555
C6 C7 1_555 1_555
C7 C8 1_555 1_555
C8 N1 1_555 1_555
N2 Zn1 1_555 1_555
N3 N2 1_555 1_555
C9 N3 1_555 1_555
C10 C9 1_555 1_555
C11 C4 1_555 1_555
C12 N3 1_555 1_555
C13 C12 1_555 1_555
C14 C13 1_555 1_555
C15 C14 1_555 1_555
C16 C15 1_555 1_555
C17 C16 1_555 1_555
C18 C13 1_555 1_555
C19 C15 1_555 1_555
N4 N5 1_555 1_555
N5 C19 1_555 1_555
C20 N5 1_555 1_555
C21 C20 1_555 1_555
C22 N4 1_555 1_555
N6 Zn3 1_555 1_555
C23 C22 1_555 1_555
C24 C23 1_555 1_555
C25 C24 1_555 1_555
C26 C25 1_555 1_555
C27 N6 1_555 1_555
N7 Zn3 1_555 1_555
C28 N7 1_555 1_555
C29 C28 1_555 1_555
C30 C29 1_555 1_555
C31 C30 1_555 1_555
C32 N7 1_555 1_555
N8 Zn3 1_555 1_555
N9 N8 1_555 1_555
C33 N9 1_555 1_555
C34 C33 1_555 1_555
C35 C28 1_555 1_555
C36 N9 1_555 1_555
C37 C36 1_555 1_555
C38 C37 1_555 1_555
C39 C38 1_555 1_555
C40 C39 1_555 1_555
C41 C40 1_555 1_555
C42 C37 1_555 1_555
C43 C39 1_555 1_555
N10 N11 1_555 1_555
N11 C43 1_555 1_555
C44 N11 1_555 1_555
C45 C44 1_555 1_555
C46 N10 1_555 1_555
N12 Zn2 1_555 1_555
C47 C46 1_555 1_555
C48 C47 1_555 1_555
C49 C48 1_555 1_555
C50 C49 1_555 1_555
C51 N12 1_555 1_555
N13 Zn2 1_555 1_555
C52 N13 1_555 1_555
C53 C52 1_555 1_555
C54 C53 1_555 1_555
C55 C54 1_555 1_555
C56 N13 1_555 1_555
N14 Zn2 1_555 1_555
N15 N14 1_555 1_555
C57 N15 1_555 1_555
C58 C57 1_555 1_555
C59 C52 1_555 1_555
C60 N15 1_555 1_555
C61 C60 1_555 1_555
C62 C61 1_555 1_555
C63 C62 1_555 1_555
C64 C63 1_555 1_555
C65 C64 1_555 1_555
C66 C61 1_555 1_555
C67 C63 1_555 1_555
N16 N17 1_555 1_555
N17 C67 1_555 1_555
C68 N17 1_555 1_555
C69 C68 1_555 1_555
C70 N16 1_555 1_555
N18 Zn4 1_555 1_555
C71 C70 1_555 1_555
C72 C71 1_555 1_555
C73 C72 1_555 1_555
C74 C73 1_555 1_555
C75 N18 1_555 1_555
N19 Zn4 1_555 1_555
C76 N19 1_555 1_555
C77 C76 1_555 1_555
C78 C77 1_555 1_555
C79 C78 1_555 1_555
C80 N19 1_555 1_555
N20 Zn4 1_555 1_555
N21 N20 1_555 1_555
C81 N21 1_555 1_555
C82 C81 1_555 1_555
C83 C76 1_555 1_555
C84 N21 1_555 1_555
C85 C84 1_555 1_555
C86 C85 1_555 1_555
C87 C86 1_555 1_555
C88 C87 1_555 1_555
C89 C88 1_555 1_555
C90 C85 1_555 1_555
C91 C87 1_555 1_555
N22 Zn1 1_555 1_555
N23 C91 1_555 1_555
C92 N23 1_555 1_555
C93 C92 1_555 1_555
C94 N22 1_555 1_555
N24 Zn1 1_555 1_555
C95 C94 1_555 1_555
C96 C95 1_555 1_555
C97 C96 1_555 1_555
C98 C97 1_555 1_555
C99 N24 1_555 1_555
N25 Zn1 1_555 1_555
C100 N25 1_555 1_555
C101 C100 1_555 1_555
C102 C101 1_555 1_555
C103 C102 1_555 1_555
C104 N25 1_555 1_555
N26 Zn1 1_555 1_555
N27 C100 1_555 1_555
C105 N27 1_555 1_555
C106 C105 1_555 1_555
C107 N26 1_555 1_555
C108 C107 1_555 1_555
C109 C108 1_555 1_555
C110 C109 1_555 1_555
C111 C110 1_555 1_555
C112 C111 1_555 1_555
C113 C112 1_555 1_555
C114 C109 1_555 1_555
N28 Zn2 1_555 1_555
N29 C3 1_555 1_555
C115 N29 1_555 1_555
C116 C115 1_555 1_555
C117 N28 1_555 1_555
N30 Zn2 1_555 1_555
C118 C117 1_555 1_555
C119 C118 1_555 1_555
C120 C119 1_555 1_555
C121 C120 1_555 1_555
C122 N30 1_555 1_555
N31 Zn3 1_555 1_555
C123 N31 1_555 1_555
C124 C123 1_555 1_555
C125 C124 1_555 1_555
C126 C125 1_555 1_555
C127 N31 1_555 1_555
N32 Zn3 1_555 1_555
N33 N32 1_555 1_555
C128 N33 1_555 1_555
C129 C128 1_555 1_555
C130 C123 1_555 1_555
C131 N33 1_555 1_555
C132 C131 1_555 1_555
C133 C132 1_555 1_555
C134 C2 1_555 1_555
C135 C134 1_555 1_555
C136 C132 1_555 1_555
N34 Zn4 1_555 1_555
N35 C1 1_555 1_555
C137 N35 1_555 1_555
C138 C137 1_555 1_555
C139 N34 1_555 1_555
N36 Zn4 1_555 1_555
C140 C139 1_555 1_555
C141 C140 1_555 1_555
C142 C141 1_555 1_555
C143 C142 1_555 1_555
C144 N36 1_555 1_555
B1 F1 1_555 1_555
F2 B1 1_555 1_555
F3 B1 1_555 1_555
F4 B1 1_555 1_555
N37 C145 1_555 1_555
C145 C146 1_555 1_555
C146 H1 1_555 1_555
H2 C146 1_555 1_555
H3 C146 1_555 1_555
C1A C2A 1_555 1_555
C2A C133A 1_555 1_555
C3A C111A 1_555 1_555
Zn1A N1A 1_555 1_555
Zn2A N10A 1_555 1_555
Zn3A N4A 1_555 1_555
Zn4A N16A 1_555 1_555
N1A C4A 1_555 1_555
C4A C5A 1_555 1_555
C5A C6A 1_555 1_555
C6A C7A 1_555 1_555
C7A C8A 1_555 1_555
C8A N1A 1_555 1_555
N2A Zn1A 1_555 1_555
N3A N2A 1_555 1_555
C9A N3A 1_555 1_555
C10A C9A 1_555 1_555
C11A C4A 1_555 1_555
C12A N3A 1_555 1_555
C13A C12A 1_555 1_555
C14A C13A 1_555 1_555
C15A C14A 1_555 1_555
C16A C15A 1_555 1_555
C17A C16A 1_555 1_555
C18A C13A 1_555 1_555
C19A C15A 1_555 1_555
N4A N5A 1_555 1_555
N5A C19A 1_555 1_555
C20A N5A 1_555 1_555
C21A C20A 1_555 1_555
C22A N4A 1_555 1_555
N6A Zn3A 1_555 1_555
C23A C22A 1_555 1_555
C24A C23A 1_555 1_555
C25A C24A 1_555 1_555
C26A C25A 1_555 1_555
C27A N6A 1_555 1_555
N7A Zn3A 1_555 1_555
C28A N7A 1_555 1_555
C29A C28A 1_555 1_555
C30A C29A 1_555 1_555
C31A C30A 1_555 1_555
C32A N7A 1_555 1_555
N8A Zn3A 1_555 1_555
N9A N8A 1_555 1_555
C33A N9A 1_555 1_555
C34A C33A 1_555 1_555
C35A C28A 1_555 1_555
C36A N9A 1_555 1_555
C37A C36A 1_555 1_555
C38A C37A 1_555 1_555
C39A C38A 1_555 1_555
C40A C39A 1_555 1_555
C41A C40A 1_555 1_555
C42A C37A 1_555 1_555
C43A C39A 1_555 1_555
N10A N11A 1_555 1_555
N11A C43A 1_555 1_555
C44A N11A 1_555 1_555
C45A C44A 1_555 1_555
C46A N10A 1_555 1_555
N12A Zn2A 1_555 1_555
C47A C46A 1_555 1_555
C48A C47A 1_555 1_555
C49A C48A 1_555 1_555
C50A C49A 1_555 1_555
C51A N12A 1_555 1_555
N13A Zn2A 1_555 1_555
C52A N13A 1_555 1_555
C53A C52A 1_555 1_555
C54A C53A 1_555 1_555
C55A C54A 1_555 1_555
C56A N13A 1_555 1_555
N14A Zn2A 1_555 1_555
N15A N14A 1_555 1_555
C57A N15A 1_555 1_555
C58A C57A 1_555 1_555
C59A C52A 1_555 1_555
C60A N15A 1_555 1_555
C61A C60A 1_555 1_555
C62A C61A 1_555 1_555
C63A C62A 1_555 1_555
C64A C63A 1_555 1_555
C65A C64A 1_555 1_555
C66A C61A 1_555 1_555
C67A C63A 1_555 1_555
N16A N17A 1_555 1_555
N17A C67A 1_555 1_555
C68A N17A 1_555 1_555
C69A C68A 1_555 1_555
C70A N16A 1_555 1_555
N18A Zn4A 1_555 1_555
C71A C70A 1_555 1_555
C72A C71A 1_555 1_555
C73A C72A 1_555 1_555
C74A C73A 1_555 1_555
C75A N18A 1_555 1_555
N19A Zn4A 1_555 1_555
C76A N19A 1_555 1_555
C77A C76A 1_555 1_555
C78A C77A 1_555 1_555
C79A C78A 1_555 1_555
C80A N19A 1_555 1_555
N20A Zn4A 1_555 1_555
N21A N20A 1_555 1_555
C81A N21A 1_555 1_555
C82A C81A 1_555 1_555
C83A C76A 1_555 1_555
C84A N21A 1_555 1_555
C85A C84A 1_555 1_555
C86A C85A 1_555 1_555
C87A C86A 1_555 1_555
C88A C87A 1_555 1_555
C89A C88A 1_555 1_555
C90A C85A 1_555 1_555
C91A C87A 1_555 1_555
N22A Zn1A 1_555 1_555
N23A C91A 1_555 1_555
C92A N23A 1_555 1_555
C93A C92A 1_555 1_555
C94A N22A 1_555 1_555
N24A Zn1A 1_555 1_555
C95A C94A 1_555 1_555
C96A C95A 1_555 1_555
C97A C96A 1_555 1_555
C98A C97A 1_555 1_555
C99A N24A 1_555 1_555
N25A Zn1A 1_555 1_555
C100A N25A 1_555 1_555
C101A C100A 1_555 1_555
C102A C101A 1_555 1_555
C103A C102A 1_555 1_555
C104A N25A 1_555 1_555
N26A Zn1A 1_555 1_555
N27A C100A 1_555 1_555
C105A N27A 1_555 1_555
C106A C105A 1_555 1_555
C107A N26A 1_555 1_555
C108A C107A 1_555 1_555
C109A C108A 1_555 1_555
C110A C109A 1_555 1_555
C111A C110A 1_555 1_555
C112A C111A 1_555 1_555
C113A C112A 1_555 1_555
C114A C109A 1_555 1_555
N28A N29 1_555 1_555
N29A N28 1_555 1_555
C115A N29A 1_555 1_555
C116A C117 1_555 1_555
C117A C116 1_555 1_555
N30A Zn2A 1_555 1_555
C118A C117A 1_555 1_555
C119A C118A 1_555 1_555
C120A C119A 1_555 1_555
C121A C120A 1_555 1_555
C122A N30A 1_555 1_555
N31A Zn3A 1_555 1_555
C123A N31A 1_555 1_555
C124A C123A 1_555 1_555
C125A C124A 1_555 1_555
C126A C125A 1_555 1_555
C127A N31A 1_555 1_555
N32A Zn3A 1_555 1_555
N33A N32A 1_555 1_555
C128A N33A 1_555 1_555
C129A C128A 1_555 1_555
C130A C123A 1_555 1_555
C131A N33A 1_555 1_555
C132A C131A 1_555 1_555
C133A C132A 1_555 1_555
C134A C2A 1_555 1_555
C135A C134A 1_555 1_555
C136A C132A 1_555 1_555
N34A N35 1_555 1_555
N35A N34 1_555 1_555
C137A N35A 1_555 1_555
C138A C139 1_555 1_555
C139A C138 1_555 1_555
N36A Zn4A 1_555 1_555
C140A C139A 1_555 1_555
C141A C140A 1_555 1_555
C142A C141A 1_555 1_555
C143A C142A 1_555 1_555
C144A N36A 1_555 1_555
N2 C11 1_555 1_555
C10 C11 1_555 1_555
C17 C18 1_555 1_555
C21 C22 1_555 1_555
N6 C23 1_555 1_555
C26 C27 1_555 1_555
C31 C32 1_555 1_555
N8 C35 1_555 1_555
C34 C35 1_555 1_555
C41 C42 1_555 1_555
C45 C46 1_555 1_555
N12 C47 1_555 1_555
C50 C51 1_555 1_555
C55 C56 1_555 1_555
N14 C59 1_555 1_555
C58 C59 1_555 1_555
C65 C66 1_555 1_555
C69 C70 1_555 1_555
N18 C71 1_555 1_555
C74 C75 1_555 1_555
C79 C80 1_555 1_555
N20 C83 1_555 1_555
C82 C83 1_555 1_555
C89 C90 1_555 1_555
N22 N23 1_555 1_555
C93 C94 1_555 1_555
N24 C95 1_555 1_555
C98 C99 1_555 1_555
C103 C104 1_555 1_555
N26 N27 1_555 1_555
C106 C107 1_555 1_555
C113 C114 1_555 1_555
N30 C118 1_555 1_555
C121 C122 1_555 1_555
C126 C127 1_555 1_555
N32 C130 1_555 1_555
C129 C130 1_555 1_555
C135 C136 1_555 1_555
N36 C140 1_555 1_555
C143 C144 1_555 1_555
C1A N35A 1_555 1_555
C3A N29A 1_555 1_555
Zn2A N28A 1_555 1_555
Zn4A N34A 1_555 1_555
N2A C11A 1_555 1_555
C10A C11A 1_555 1_555
C17A C18A 1_555 1_555
C21A C22A 1_555 1_555
N6A C23A 1_555 1_555
C26A C27A 1_555 1_555
C31A C32A 1_555 1_555
N8A C35A 1_555 1_555
C34A C35A 1_555 1_555
C41A C42A 1_555 1_555
C45A C46A 1_555 1_555
N12A C47A 1_555 1_555
C50A C51A 1_555 1_555
C55A C56A 1_555 1_555
N14A C59A 1_555 1_555
C58A C59A 1_555 1_555
C65A C66A 1_555 1_555
C69A C70A 1_555 1_555
N18A C71A 1_555 1_555
C74A C75A 1_555 1_555
C79A C80A 1_555 1_555
N20A C83A 1_555 1_555
C82A C83A 1_555 1_555
C89A C90A 1_555 1_555
N22A N23A 1_555 1_555
C93A C94A 1_555 1_555
N24A C95A 1_555 1_555
C98A C99A 1_555 1_555
C103A C104A 1_555 1_555
N26A N27A 1_555 1_555
C106A C107A 1_555 1_555
C113A C114A 1_555 1_555
N28A C117A 1_555 1_555
C115A C116A 1_555 1_555
N30A C118A 1_555 1_555
C121A C122A 1_555 1_555
C126A C127A 1_555 1_555
N32A C130A 1_555 1_555
C129A C130A 1_555 1_555
C135A C136A 1_555 1_555
N34A C139A 1_555 1_555
C137A C138A 1_555 1_555
N36A C140A 1_555 1_555
C143A C144A 1_555 1_555

#END
