
#######################################################################
#
#                 Cambridge Crystallographic Data Centre
#                                CCDC 
#
#######################################################################
#
# If this CIF has been generated from an entry in the Cambridge 
# Structural Database, then it will include bibliographic, chemical, 
# crystal, experimental, refinement or atomic coordinate data resulting 
# from the CCDC's data processing and validation procedures.
#
#######################################################################

data_DEBLUS
_chemical_formula_moiety         
'C216 H180 Co6 N54 12+,12(Cl1 O4 1-),9.5(C1 H3 N1 O2)'
_chemical_name_systematic        
'nonakis(\m~2~-1,3-bis(3-(2-Pyridyl)imidazolylmethyl)benzene)-hexa-cobalt(ii) dodecaperchlorate nitromethane solvate'
_symmetry_cell_setting           monoclinic
_symmetry_space_group_name_H-M   'P 2/n'
_symmetry_Int_Tables_number      13
_space_group_name_Hall           '-P 2yac'
loop_
_symmetry_equiv_pos_site_id
_symmetry_equiv_pos_as_xyz
1 x,y,z
2 1/2-x,y,1/2-z
3 -x,-y,-z
4 1/2+x,-y,1/2+z
_cell_length_a                   29.108(5)
_cell_length_b                   26.238(4)
_cell_length_c                   37.671(6)
_cell_angle_alpha                90
_cell_angle_beta                 91.369(4)
_cell_angle_gamma                90
_cell_volume                     28762.5
_exptl_crystal_colour            salmon
_exptl_crystal_description       block
_cell_formula_units_Z            4
loop_
_atom_site_label
_atom_site_type_symbol
_atom_site_fract_x
_atom_site_fract_y
_atom_site_fract_z
Co1 Co 0.28531(8) 0.80032(8) 0.99872(6)
Co2 Co 0.56281(8) 0.84258(8) 0.86618(6)
Co3 Co 0.11595(7) 1.01012(7) 0.82981(5)
N1 N 0.3081(3) 0.8478(3) 1.04113(18)
C1 C 0.3515(3) 0.8360(3) 1.0550(3)
C2 C 0.3665(3) 0.8573(4) 1.0870(3)
C3 C 0.3381(4) 0.8904(3) 1.10514(19)
C4 C 0.2947(3) 0.9022(3) 1.0913(2)
C5 C 0.2797(2) 0.8809(3) 1.0593(2)
N2 N 0.3539(2) 0.7765(4) 1.0063(3)
N3 N 0.3853(4) 0.7406(3) 0.9926(2)
C6 C 0.4266(3) 0.7434(4) 1.0133(3)
C7 C 0.4207(3) 0.7811(4) 1.0398(2)
C8 C 0.3758(3) 0.8015(3) 1.0355(2)
C9 C 0.3739(5) 0.7067(6) 0.9661(4)
C10 C 0.4063(3) 0.7097(4) 0.9338(2)
C11 C 0.4080(3) 0.7555(3) 0.9154(3)
C12 C 0.4355(3) 0.7601(3) 0.8859(3)
C13 C 0.4615(3) 0.7188(4) 0.8749(2)
C14 C 0.4599(3) 0.6730(3) 0.8934(3)
C15 C 0.4323(4) 0.6684(3) 0.9228(3)
C16 C 0.4367(6) 0.8110(6) 0.8653(4)
N4 N 0.5056(3) 0.8249(3) 0.8330(2)
N5 N 0.4591(3) 0.8089(3) 0.83487(19)
C17 C 0.4456(2) 0.7891(3) 0.8011(2)
C18 C 0.4837(3) 0.7929(4) 0.77845(17)
C19 C 0.5208(2) 0.8150(4) 0.7982(2)
N6 N 0.5917(4) 0.8465(3) 0.81755(19)
C20 C 0.5626(3) 0.8307(3) 0.7899(3)
C21 C 0.5776(4) 0.8317(4) 0.7552(2)
C22 C 0.6217(4) 0.8486(4) 0.7480(2)
C23 C 0.6508(3) 0.8644(4) 0.7757(3)
C24 C 0.6358(3) 0.8634(3) 0.8104(3)
N7 N 0.2641(3) 0.7533(4) 0.9562(2)
C25 C 0.2786(3) 0.7719(3) 0.9238(3)
C26 C 0.2698(3) 0.7444(4) 0.8928(2)
C27 C 0.2466(4) 0.6982(4) 0.8943(2)
C28 C 0.2321(3) 0.6796(3) 0.9267(3)
C29 C 0.2409(3) 0.7071(4) 0.9576(2)
N8 N 0.3041(3) 0.8450(4) 0.9547(2)
N9 N 0.3258(4) 0.8920(4) 0.9470(3)
C30 C 0.3293(4) 0.8959(4) 0.9095(3)
C31 C 0.3097(4) 0.8512(5) 0.8941(2)
C32 C 0.2942(3) 0.8198(3) 0.9221(3)
C33 C 0.3386(6) 0.9228(7) 0.9728(5)
C34 C 0.3888(3) 0.9253(4) 0.9857(3)
C35 C 0.4211(4) 0.9115(4) 0.9609(2)
C36 C 0.4678(4) 0.9144(4) 0.9696(3)
C37 C 0.4820(3) 0.9310(4) 1.0031(3)
C38 C 0.4497(4) 0.9448(4) 1.0279(2)
C39 C 0.4031(4) 0.9419(4) 1.0192(3)
C40 C 0.5017(5) 0.9024(6) 0.9409(4)
N10 N 0.5324(3) 0.8239(4) 0.9153(2)
N11 N 0.5109(3) 0.8482(3) 0.9442(3)
C41 C 0.5063(3) 0.8117(4) 0.9717(2)
C42 C 0.5249(4) 0.7648(3) 0.9598(3)
C43 C 0.5410(3) 0.7724(3) 0.9249(3)
N12 N 0.5759(3) 0.7610(3) 0.8710(3)
C44 C 0.5615(3) 0.7394(4) 0.9026(3)
C45 C 0.5695(3) 0.6880(4) 0.9093(2)
C46 C 0.5918(3) 0.6582(3) 0.8845(3)
C47 C 0.6061(3) 0.6798(4) 0.8530(3)
C48 C 0.5982(3) 0.7312(4) 0.8462(2)
N13 N 0.2611(3) 0.7528(3) 1.04028(18)
C49 C 0.2186(3) 0.7669(3) 1.0532(2)
C50 C 0.2039(3) 0.7471(4) 1.0852(3)
C51 C 0.2317(4) 0.7133(4) 1.10432(19)
C52 C 0.2742(3) 0.6992(3) 1.0914(2)
C53 C 0.2889(2) 0.7190(3) 1.0594(2)
N14 N 0.2156(2) 0.8236(3) 1.0049(2)
N15 N 0.1836(3) 0.8581(3) 0.98901(19)
C54 C 0.1428(3) 0.8566(3) 1.0089(3)
C55 C 0.1496(3) 0.8212(4) 1.0371(2)
C56 C 0.1946(3) 0.8008(3) 1.0346(2)
C57 C 0.1963(5) 0.8874(5) 0.9588(3)
C58 C 0.1805(3) 0.8631(4) 0.9247(2)
C59 C 0.1939(3) 0.8883(3) 0.8942(3)
C60 C 0.1798(3) 0.8702(4) 0.8610(2)
C61 C 0.1523(3) 0.8270(4) 0.8584(2)
C62 C 0.1389(3) 0.8018(3) 0.8889(3)
C63 C 0.1530(3) 0.8199(4) 0.9221(2)
C64 C 0.1925(5) 0.8919(5) 0.8244(4)
N16 N 0.1859(2) 0.9874(4) 0.8299(2)
N17 N 0.2125(3) 0.9421(2) 0.8310(2)
C65 C 0.2591(3) 0.9559(3) 0.8377(2)
C66 C 0.2612(3) 1.0098(3) 0.8408(2)
C67 C 0.2160(3) 1.0293(2) 0.8359(2)
N18 N 0.1525(3) 1.0812(3) 0.8313(2)
C68 C 0.2001(3) 1.0782(3) 0.8347(2)
C69 C 0.2263(2) 1.1225(4) 0.8357(2)
C70 C 0.2049(3) 1.1698(3) 0.8333(2)
C71 C 0.1573(3) 1.1728(3) 0.8298(2)
C72 C 0.1311(2) 1.1284(3) 0.8288(2)
N19 N 0.1191(3) 1.0041(3) 0.88605(16)
C73 C 0.0926(3) 0.9654(3) 0.9002(3)
C74 C 0.0901(3) 0.9597(3) 0.9368(3)
C75 C 0.1142(3) 0.9928(4) 0.95924(17)
C76 C 0.1408(3) 1.0315(3) 0.9451(2)
C77 C 0.1432(3) 1.0371(3) 0.9085(2)
N20 N 0.0845(3) 0.9394(3) 0.8403(2)
N21 N 0.0601(3) 0.9017(4) 0.82046(18)
C78 C 0.0336(3) 0.8729(3) 0.8444(3)
C79 C 0.0415(3) 0.8928(4) 0.8790(2)
C80 C 0.0729(3) 0.9339(4) 0.8765(2)
C81 C 0.0659(5) 0.8957(6) 0.7820(4)
C82 C 0.0254(3) 0.9210(3) 0.7620(2)
C83 C 0.0309(3) 0.9226(3) 0.7255(3)
C84 C -0.0026(4) 0.9452(4) 0.70380(18)
C85 C -0.0415(3) 0.9663(3) 0.7186(3)
C86 C -0.0470(3) 0.9647(3) 0.7552(3)
C87 C -0.0135(4) 0.9421(4) 0.77688(18)
C88 C 0.0117(5) 0.9510(5) 0.6629(3)
N22 N 0.5559(3) 0.9208(3) 0.8683(2)
N23 N -0.0246(3) 0.9593(4) 0.6431(2)
C89 C -0.0423(4) 1.0070(3) 0.6314(3)
C90 C -0.0845(3) 0.9980(4) 0.6128(3)
C91 C 0.5930(3) 0.9447(4) 0.8870(2)
N24 N 0.6228(4) 0.8623(6) 0.8962(3)
C92 C 0.6256(5) 0.9146(5) 0.9017(4)
C93 C 0.6560(6) 0.9341(4) 0.9272(4)
C94 C 0.6838(4) 0.9013(8) 0.9472(3)
C95 C 0.6810(4) 0.8490(7) 0.9417(3)
C96 C 0.6506(5) 0.8294(4) 0.9162(4)
N25 N 0.0504(2) 1.0455(3) 0.8279(2)
C97 C 0.0343(3) 1.0584(3) 0.79406(19)
C98 C -0.0092(3) 1.0795(3) 0.78936(18)
C99 C -0.0367(2) 1.0877(3) 0.8185(3)
C100 C -0.0206(3) 1.0747(3) 0.8524(2)
C101 C 0.0229(3) 1.0536(3) 0.85706(17)
N26 N 0.1020(3) 1.0176(3) 0.77510(18)
N27 N 0.1259(2) 1.0109(3) 0.7430(2)
C102 C 0.1000(3) 1.0348(4) 0.71528(17)
C103 C 0.0601(3) 1.0563(3) 0.7302(3)
C104 C 0.0613(3) 1.0457(4) 0.7672(2)
C105 C 0.1660(4) 0.9835(5) 0.7388(4)
C106 C 0.2500 0.9900(8) 0.7500
C107 C 0.2075(4) 1.0105(5) 0.7453(3)
C108 C 0.2070(5) 1.0634(5) 0.7464(3)
C109 C 0.2500 1.0925(9) 0.7500
Co1A Co 0.21469(8) 0.80032(8) 0.50128(6)
Co2A Co -0.06281(8) 0.84258(8) 0.63382(6)
Co3A Co 0.38405(7) 1.01012(7) 0.67019(5)
N1A N 0.1919(3) 0.8478(3) 0.45887(18)
C1A C 0.1485(3) 0.8360(3) 0.4450(3)
C2A C 0.1335(3) 0.8573(4) 0.4130(3)
C3A C 0.1619(4) 0.8904(3) 0.39486(19)
C4A C 0.2053(3) 0.9022(3) 0.4087(2)
C5A C 0.2203(2) 0.8809(3) 0.4407(2)
N2A N 0.1461(2) 0.7765(4) 0.4937(3)
N3A N 0.1147(4) 0.7406(3) 0.5074(2)
C6A C 0.0734(3) 0.7434(4) 0.4867(3)
C7A C 0.0793(3) 0.7811(4) 0.4602(2)
C8A C 0.1242(3) 0.8015(3) 0.4645(2)
C9A C 0.1261(5) 0.7067(6) 0.5339(4)
C10A C 0.0937(3) 0.7097(4) 0.5662(2)
C11A C 0.0920(3) 0.7555(3) 0.5846(3)
C12A C 0.0645(3) 0.7601(3) 0.6141(3)
C13A C 0.0385(3) 0.7188(4) 0.6251(2)
C14A C 0.0401(3) 0.6730(3) 0.6066(3)
C15A C 0.0677(4) 0.6684(3) 0.5772(3)
C16A C 0.0633(6) 0.8110(6) 0.6347(4)
N4A N -0.0056(3) 0.8249(3) 0.6670(2)
N5A N 0.0409(3) 0.8089(3) 0.66513(19)
C17A C 0.0544(2) 0.7891(3) 0.6989(2)
C18A C 0.0163(3) 0.7929(4) 0.72155(17)
C19A C -0.0208(2) 0.8150(4) 0.7018(2)
N6A N -0.0917(4) 0.8465(3) 0.68245(19)
C20A C -0.0626(3) 0.8307(3) 0.7101(3)
C21A C -0.0776(4) 0.8317(4) 0.7448(2)
C22A C -0.1217(4) 0.8486(4) 0.7520(2)
C23A C -0.1508(3) 0.8644(4) 0.7243(3)
C24A C -0.1358(3) 0.8634(3) 0.6896(3)
N7A N 0.2359(3) 0.7533(4) 0.5438(2)
C25A C 0.2214(3) 0.7719(3) 0.5762(3)
C26A C 0.2302(3) 0.7444(4) 0.6072(2)
C27A C 0.2534(4) 0.6982(4) 0.6057(2)
C28A C 0.2679(3) 0.6796(3) 0.5733(3)
C29A C 0.2591(3) 0.7071(4) 0.5424(2)
N8A N 0.1959(3) 0.8450(4) 0.5453(2)
N9A N 0.1742(4) 0.8920(4) 0.5530(3)
C30A C 0.1707(4) 0.8959(4) 0.5905(3)
C31A C 0.1903(4) 0.8512(5) 0.6059(2)
C32A C 0.2058(3) 0.8198(3) 0.5779(3)
C33A C 0.1614(6) 0.9228(7) 0.5272(5)
C34A C 0.1112(3) 0.9253(4) 0.5143(3)
C35A C 0.0789(4) 0.9115(4) 0.5391(2)
C36A C 0.0322(4) 0.9144(4) 0.5304(3)
C37A C 0.0180(3) 0.9310(4) 0.4969(3)
C38A C 0.0503(4) 0.9448(4) 0.4721(2)
C39A C 0.0969(4) 0.9419(4) 0.4808(3)
C40A C -0.0017(5) 0.9024(6) 0.5591(4)
N10A N -0.0324(3) 0.8239(4) 0.5847(2)
N11A N -0.0109(3) 0.8482(3) 0.5558(3)
C41A C -0.0063(3) 0.8117(4) 0.5283(2)
C42A C -0.0249(4) 0.7648(3) 0.5402(3)
C43A C -0.0410(3) 0.7724(3) 0.5751(3)
N12A N -0.0759(3) 0.7610(3) 0.6290(3)
C44A C -0.0615(3) 0.7394(4) 0.5974(3)
C45A C -0.0695(3) 0.6880(4) 0.5907(2)
C46A C -0.0918(3) 0.6582(3) 0.6155(3)
C47A C -0.1061(3) 0.6798(4) 0.6470(3)
C48A C -0.0982(3) 0.7312(4) 0.6538(2)
N13A N 0.2389(3) 0.7528(3) 0.45972(18)
C49A C 0.2814(3) 0.7669(3) 0.4468(2)
C50A C 0.2961(3) 0.7471(4) 0.4148(3)
C51A C 0.2683(4) 0.7133(4) 0.39568(19)
C52A C 0.2258(3) 0.6992(3) 0.4086(2)
C53A C 0.2111(2) 0.7190(3) 0.4406(2)
N14A N 0.2844(2) 0.8236(3) 0.4951(2)
N15A N 0.3164(3) 0.8581(3) 0.51099(19)
C54A C 0.3572(3) 0.8566(3) 0.4911(3)
C55A C 0.3504(3) 0.8212(4) 0.4629(2)
C56A C 0.3054(3) 0.8008(3) 0.4654(2)
C57A C 0.3037(5) 0.8874(5) 0.5412(3)
C58A C 0.3195(3) 0.8631(4) 0.5753(2)
C59A C 0.3061(3) 0.8883(3) 0.6058(3)
C60A C 0.3202(3) 0.8702(4) 0.6390(2)
C61A C 0.3477(3) 0.8270(4) 0.6416(2)
C62A C 0.3611(3) 0.8018(3) 0.6111(3)
C63A C 0.3470(3) 0.8199(4) 0.5779(2)
C64A C 0.3075(5) 0.8919(5) 0.6756(4)
N16A N 0.3141(2) 0.9874(4) 0.6701(2)
N17A N 0.2875(3) 0.9421(2) 0.6690(2)
C65A C 0.2409(3) 0.9559(3) 0.6623(2)
C66A C 0.2388(3) 1.0098(3) 0.6592(2)
C67A C 0.2840(3) 1.0293(2) 0.6641(2)
N18A N 0.3475(3) 1.0812(3) 0.6687(2)
C68A C 0.2999(3) 1.0782(3) 0.6653(2)
C69A C 0.2737(2) 1.1225(4) 0.6643(2)
C70A C 0.2951(3) 1.1698(3) 0.6667(2)
C71A C 0.3427(3) 1.1728(3) 0.6702(2)
C72A C 0.3689(2) 1.1284(3) 0.6712(2)
N19A N 0.3809(3) 1.0041(3) 0.61395(16)
C73A C 0.4074(3) 0.9654(3) 0.5998(3)
C74A C 0.4099(3) 0.9597(3) 0.5632(3)
C75A C 0.3858(3) 0.9928(4) 0.54076(17)
C76A C 0.3592(3) 1.0315(3) 0.5549(2)
C77A C 0.3568(3) 1.0371(3) 0.5915(2)
N20A N 0.4155(3) 0.9394(3) 0.6597(2)
N21A N 0.4399(3) 0.9017(4) 0.67954(18)
C78A C 0.4664(3) 0.8729(3) 0.6556(3)
C79A C 0.4585(3) 0.8928(4) 0.6210(2)
C80A C 0.4271(3) 0.9339(4) 0.6235(2)
C81A C 0.4341(5) 0.8957(6) 0.7180(4)
C82A C 0.4746(3) 0.9210(3) 0.7380(2)
C83A C 0.4691(3) 0.9226(3) 0.7745(3)
C84A C 0.5026(4) 0.9452(4) 0.79620(18)
C85A C 0.5415(3) 0.9663(3) 0.7814(3)
C86A C 0.5470(3) 0.9647(3) 0.7448(3)
C87A C 0.5135(4) 0.9421(4) 0.72312(18)
C88A C 0.4883(5) 0.9510(5) 0.8371(3)
N22A N -0.0559(3) 0.9208(3) 0.6317(2)
N23A N 0.5246(3) 0.9593(4) 0.8569(2)
C89A C 0.5423(4) 1.0070(3) 0.8686(3)
C90A C 0.5845(3) 0.9980(4) 0.8872(3)
C91A C -0.0930(3) 0.9447(4) 0.6130(2)
N24A N -0.1228(4) 0.8623(6) 0.6038(3)
C92A C -0.1256(5) 0.9146(5) 0.5983(4)
C93A C -0.1560(6) 0.9341(4) 0.5728(4)
C94A C -0.1838(4) 0.9013(8) 0.5528(3)
C95A C -0.1810(4) 0.8490(7) 0.5583(3)
C96A C -0.1506(5) 0.8294(4) 0.5838(4)
N25A N 0.4496(2) 1.0455(3) 0.6721(2)
C97A C 0.4657(3) 1.0584(3) 0.70594(19)
C98A C 0.5092(3) 1.0795(3) 0.71064(18)
C99A C 0.5367(2) 1.0877(3) 0.6815(3)
C100A C 0.5206(3) 1.0747(3) 0.6476(2)
C101A C 0.4771(3) 1.0536(3) 0.64294(17)
N26A N 0.3980(3) 1.0176(3) 0.72490(18)
N27A N 0.3741(2) 1.0109(3) 0.7570(2)
C102A C 0.4000(3) 1.0348(4) 0.78472(17)
C103A C 0.4399(3) 1.0563(3) 0.7698(3)
C104A C 0.4387(3) 1.0457(4) 0.7328(2)
C105A C 0.3340(4) 0.9835(5) 0.7612(4)
C107A C 0.2925(4) 1.0105(5) 0.7547(3)
C108A C 0.2930(5) 1.0634(5) 0.7536(3)
Co4 Co 0.32765(7) 0.31929(7) 0.49417(6)
Co5 Co 0.56296(7) 0.32706(8) 0.68085(6)
Co6 Co 0.12269(7) 0.49630(8) 0.64992(6)
N28 N 0.3391(3) 0.2394(3) 0.4871(2)
C110 C 0.3827(3) 0.2207(3) 0.4954(2)
C111 C 0.3918(3) 0.1689(4) 0.4921(2)
C112 C 0.3573(4) 0.1358(3) 0.4806(2)
C113 C 0.3136(3) 0.1545(3) 0.4723(2)
C114 C 0.3045(2) 0.2063(4) 0.4756(2)
N29 N 0.3981(2) 0.3107(3) 0.5091(2)
N30 N 0.4358(3) 0.3400(2) 0.5222(2)
C115 C 0.4740(2) 0.3068(4) 0.5270(2)
C116 C 0.4598(3) 0.2570(3) 0.5169(2)
C117 C 0.4129(3) 0.2594(3) 0.5059(2)
C118 C 0.4309(4) 0.3955(5) 0.5250(3)
C119 C 0.4744(3) 0.4150(3) 0.5442(2)
C120 C 0.4734(3) 0.4148(3) 0.5811(2)
C121 C 0.5084(3) 0.4382(3) 0.60078(17)
C122 C 0.5444(3) 0.4619(3) 0.5836(3)
C123 C 0.5453(3) 0.4620(3) 0.5467(3)
C124 C 0.5103(4) 0.4386(4) 0.52703(17)
C125 C 0.5083(5) 0.4426(6) 0.6393(4)
N31 N 0.4978(2) 0.3619(3) 0.6743(2)
N32 N 0.4792(3) 0.4060(3) 0.6577(2)
C126 C 0.4310(3) 0.4059(3) 0.6626(2)
C127 C 0.4198(3) 0.3617(4) 0.6824(3)
C128 C 0.4612(4) 0.3345(3) 0.6896(2)
N33 N 0.5166(3) 0.2805(3) 0.7090(2)
C129 C 0.4699(3) 0.2907(3) 0.7052(2)
C130 C 0.4381(2) 0.2587(4) 0.7208(2)
C131 C 0.4531(3) 0.2165(3) 0.7402(2)
C132 C 0.4998(4) 0.2063(3) 0.7440(2)
C133 C 0.5316(2) 0.2383(4) 0.7284(3)
N34 N 0.2567(2) 0.3137(3) 0.4803(3)
C134 C 0.2314(4) 0.2963(3) 0.5086(2)
C135 C 0.1846(3) 0.2871(3) 0.5041(2)
C136 C 0.1631(2) 0.2953(4) 0.4712(3)
C137 C 0.1885(4) 0.3126(4) 0.4429(2)
C138 C 0.2353(3) 0.3219(3) 0.4474(2)
N35 N 0.2993(3) 0.3031(3) 0.5458(2)
N36 N 0.3135(2) 0.2991(3) 0.5820(2)
C139 C 0.2759(3) 0.2804(3) 0.60145(18)
C140 C 0.2383(2) 0.2728(4) 0.5772(3)
C141 C 0.2528(3) 0.2868(4) 0.5429(2)
C142 C 0.3577(4) 0.3088(5) 0.5921(3)
C143 C 0.3891(3) 0.2598(3) 0.5945(3)
C144 C 0.4327(4) 0.2630(3) 0.6102(2)
C145 C 0.4604(2) 0.2200(4) 0.6125(2)
C146 C 0.4445(3) 0.1737(3) 0.5991(2)
C147 C 0.4009(3) 0.1705(3) 0.5834(2)
C148 C 0.3732(2) 0.2135(4) 0.5811(2)
C149 C 0.5033(4) 0.2198(5) 0.6314(4)
N37 N 0.5554(3) 0.2930(4) 0.62917(19)
N38 N 0.5345(3) 0.2505(3) 0.6120(3)
C150 C 0.5529(3) 0.2465(3) 0.5775(2)
C151 C 0.5851(3) 0.2866(4) 0.5734(2)
C152 C 0.5867(3) 0.3154(3) 0.6053(3)
N39 N 0.6056(3) 0.3724(3) 0.6496(2)
C153 C 0.6112(3) 0.3561(3) 0.6148(3)
C154 C 0.6421(3) 0.3809(4) 0.59319(18)
C155 C 0.6674(3) 0.4220(4) 0.6063(3)
C156 C 0.6618(3) 0.4383(3) 0.6410(3)
C157 C 0.6309(3) 0.4135(4) 0.66267(18)
N40 N 0.3457(3) 0.3311(4) 0.43988(19)
C158 C 0.3502(3) 0.3818(3) 0.4299(3)
C159 C 0.3638(4) 0.3938(3) 0.3958(3)
C160 C 0.3728(3) 0.3552(5) 0.3717(2)
C161 C 0.3682(3) 0.3045(4) 0.3817(3)
C162 C 0.3547(3) 0.2924(3) 0.4158(3)
N41 N 0.3274(3) 0.3999(3) 0.4910(3)
N42 N 0.3232(3) 0.4420(4) 0.51437(19)
C163 C 0.3315(3) 0.4871(3) 0.4948(3)
C164 C 0.3408(3) 0.4730(4) 0.4593(2)
C165 C 0.3383(4) 0.4190(4) 0.4570(2)
C166 C 0.3066(5) 0.4330(6) 0.5504(4)
C167 C 0.2543(2) 0.4245(3) 0.5484(3)
C168 C 0.2362(3) 0.4055(3) 0.5795(2)
C169 C 0.1896(3) 0.3948(3) 0.5811(2)
C170 C 0.1610(2) 0.4030(3) 0.5516(3)
C171 C 0.1791(3) 0.4220(3) 0.5204(2)
C172 C 0.2258(3) 0.4327(3) 0.5188(2)
C173 C 0.1736(4) 0.3700(5) 0.6156(3)
N43 N 0.1046(3) 0.4204(3) 0.6334(2)
N44 N 0.1261(2) 0.3760(4) 0.6202(2)
C174 C 0.0912(4) 0.3411(3) 0.6096(2)
C175 C 0.0480(3) 0.3639(4) 0.6162(3)
C176 C 0.0563(3) 0.4130(4) 0.6310(3)
N45 N 0.0485(2) 0.4959(4) 0.6560(2)
C177 C 0.0259(4) 0.4526(3) 0.6434(2)
C178 C -0.0218(4) 0.4497(3) 0.6445(2)
C179 C -0.0467(2) 0.4899(4) 0.6583(3)
C180 C -0.0241(3) 0.5332(3) 0.6709(2)
C181 C 0.0235(4) 0.5361(3) 0.6697(2)
N46 N 0.1318(3) 0.5721(3) 0.6700(3)
C182 C 0.1357(3) 0.5757(3) 0.7068(2)
C183 C 0.1419(3) 0.6229(4) 0.72287(18)
C184 C 0.1443(3) 0.6667(3) 0.7022(3)
C185 C 0.1404(3) 0.6632(3) 0.6654(3)
C186 C 0.1341(3) 0.6159(4) 0.64934(18)
N47 N 0.1330(3) 0.4855(4) 0.70569(17)
N48 N 0.1369(3) 0.4435(3) 0.7293(2)
C187 C 0.1400(3) 0.4628(4) 0.76447(19)
C188 C 0.1381(3) 0.5168(4) 0.7626(2)
C189 C 0.1338(3) 0.5309(3) 0.7263(3)
C190 C 0.1290(5) 0.3950(5) 0.7171(4)
C191 C 0.0804(3) 0.3778(4) 0.7188(2)
C192 C 0.0449(4) 0.4045(3) 0.7343(3)
C193 C -0.0001(3) 0.3870(4) 0.7307(2)
C194 C -0.0094(2) 0.3428(4) 0.7114(3)
C195 C 0.0261(4) 0.3162(3) 0.6958(2)
C196 C 0.0710(3) 0.3337(3) 0.6995(2)
C197 C -0.0345(5) 0.4205(6) 0.7455(4)
N49 N 0.5890(3) 0.3587(4) 0.7292(2)
N50 N -0.0791(3) 0.3977(3) 0.7460(3)
C198 C -0.1159(4) 0.4000(4) 0.7207(2)
C199 C -0.1487(3) 0.3625(5) 0.7298(3)
C200 C 0.6321(4) 0.3369(4) 0.7392(3)
N51 N 0.6227(3) 0.2828(4) 0.6905(3)
C201 C 0.6481(4) 0.2987(3) 0.7202(3)
C202 C 0.6888(4) 0.2741(5) 0.7297(2)
C203 C 0.7043(3) 0.2335(4) 0.7095(3)
C204 C 0.6789(4) 0.2176(3) 0.6797(3)
C205 C 0.6382(4) 0.2422(4) 0.6703(2)
N52 N 0.1192(3) 0.5204(3) 0.59619(16)
C206 C 0.1616(3) 0.5332(3) 0.5826(2)
C207 C 0.1645(3) 0.5498(3) 0.5477(3)
C208 C 0.1250(4) 0.5535(3) 0.52635(17)
C209 C 0.0826(3) 0.5407(3) 0.5400(2)
C210 C 0.0797(2) 0.5241(3) 0.5749(2)
N53 N 0.1927(2) 0.5024(3) 0.6360(2)
N54 N 0.2365(3) 0.4972(3) 0.65306(18)
C211 C 0.2698(2) 0.5181(4) 0.6303(3)
C212 C 0.2466(3) 0.5362(3) 0.5992(2)
C213 C 0.1990(3) 0.5265(3) 0.6027(2)
C214 C 0.2484(5) 0.4709(5) 0.6853(3)
C215 C 0.2472(5) 0.5045(6) 0.7171(4)
C216 C 0.2500 0.4790(7) 0.7500
C217 C 0.2480(4) 0.5559(5) 0.7189(4)
C218 C 0.2500 0.5807(7) 0.7500
Co4A Co 0.17235(7) 0.31929(7) 1.00583(6)
Co5A Co -0.06296(7) 0.32706(8) 0.81915(6)
Co6A Co 0.37731(7) 0.49630(8) 0.85008(6)
N28A N 0.1609(3) 0.2394(3) 1.0129(2)
C110A C 0.1173(3) 0.2207(3) 1.0046(2)
C111A C 0.1082(3) 0.1689(4) 1.0079(2)
C112A C 0.1427(4) 0.1358(3) 1.0194(2)
C113A C 0.1864(3) 0.1545(3) 1.0277(2)
C114A C 0.1955(2) 0.2063(4) 1.0244(2)
N29A N 0.1019(2) 0.3107(3) 0.9909(2)
N30A N 0.0642(3) 0.3400(2) 0.9778(2)
C115A C 0.0260(2) 0.3068(4) 0.9730(2)
C116A C 0.0402(3) 0.2570(3) 0.9831(2)
C117A C 0.0871(3) 0.2594(3) 0.9941(2)
C118A C 0.0691(4) 0.3955(5) 0.9750(3)
C119A C 0.0256(3) 0.4150(3) 0.9558(2)
C120A C 0.0266(3) 0.4148(3) 0.9189(2)
C121A C -0.0084(3) 0.4382(3) 0.89922(17)
C122A C -0.0444(3) 0.4619(3) 0.9164(3)
C123A C -0.0453(3) 0.4620(3) 0.9533(3)
C124A C -0.0103(4) 0.4386(4) 0.97297(17)
C125A C -0.0083(5) 0.4426(6) 0.8607(4)
N31A N 0.0022(2) 0.3619(3) 0.8257(2)
N32A N 0.0208(3) 0.4060(3) 0.8423(2)
C126A C 0.0690(3) 0.4059(3) 0.8374(2)
C127A C 0.0802(3) 0.3617(4) 0.8176(3)
C128A C 0.0388(4) 0.3345(3) 0.8104(2)
N33A N -0.0166(3) 0.2805(3) 0.7910(2)
C129A C 0.0301(3) 0.2907(3) 0.7948(2)
C130A C 0.0619(2) 0.2587(4) 0.7792(2)
C131A C 0.0469(3) 0.2165(3) 0.7598(2)
C132A C 0.0002(4) 0.2063(3) 0.7560(2)
C133A C -0.0316(2) 0.2383(4) 0.7716(3)
N34A N 0.2433(2) 0.3137(3) 1.0197(3)
C134A C 0.2686(4) 0.2963(3) 0.9914(2)
C135A C 0.3154(3) 0.2871(3) 0.9959(2)
C136A C 0.3369(2) 0.2953(4) 1.0288(3)
C137A C 0.3115(4) 0.3126(4) 1.0571(2)
C138A C 0.2647(3) 0.3219(3) 1.0526(2)
N35A N 0.2007(3) 0.3031(3) 0.9542(2)
N36A N 0.1865(2) 0.2991(3) 0.9180(2)
C139A C 0.2241(3) 0.2804(3) 0.89855(18)
C140A C 0.2617(2) 0.2728(4) 0.9228(3)
C141A C 0.2472(3) 0.2868(4) 0.9571(2)
C142A C 0.1423(4) 0.3088(5) 0.9079(3)
C143A C 0.1109(3) 0.2598(3) 0.9055(3)
C144A C 0.0673(4) 0.2630(3) 0.8898(2)
C145A C 0.0396(2) 0.2200(4) 0.8875(2)
C146A C 0.0555(3) 0.1737(3) 0.9009(2)
C147A C 0.0991(3) 0.1705(3) 0.9166(2)
C148A C 0.1268(2) 0.2135(4) 0.9189(2)
C149A C -0.0033(4) 0.2198(5) 0.8686(4)
N37A N -0.0554(3) 0.2930(4) 0.87083(19)
N38A N -0.0345(3) 0.2505(3) 0.8880(3)
C150A C -0.0529(3) 0.2465(3) 0.9225(2)
C151A C -0.0851(3) 0.2866(4) 0.9266(2)
C152A C -0.0867(3) 0.3154(3) 0.8947(3)
N39A N -0.1056(3) 0.3724(3) 0.8504(2)
C153A C -0.1112(3) 0.3561(3) 0.8852(3)
C154A C -0.1421(3) 0.3809(4) 0.90681(18)
C155A C -0.1674(3) 0.4220(4) 0.8937(3)
C156A C -0.1618(3) 0.4383(3) 0.8590(3)
C157A C -0.1309(3) 0.4135(4) 0.83733(18)
N40A N 0.1543(3) 0.3311(4) 1.06012(19)
C158A C 0.1498(3) 0.3818(3) 1.0701(3)
C159A C 0.1362(4) 0.3938(3) 1.1042(3)
C160A C 0.1272(3) 0.3552(5) 1.1283(2)
C161A C 0.1318(3) 0.3045(4) 1.1183(3)
C162A C 0.1453(3) 0.2924(3) 1.0842(3)
N41A N 0.1726(3) 0.3999(3) 1.0090(3)
N42A N 0.1768(3) 0.4420(4) 0.98563(19)
C163A C 0.1685(3) 0.4871(3) 1.0052(3)
C164A C 0.1592(3) 0.4730(4) 1.0407(2)
C165A C 0.1617(4) 0.4190(4) 1.0430(2)
C166A C 0.1934(5) 0.4330(6) 0.9496(4)
C167A C 0.2457(2) 0.4245(3) 0.9516(3)
C168A C 0.2638(3) 0.4055(3) 0.9205(2)
C169A C 0.3104(3) 0.3948(3) 0.9189(2)
C170A C 0.3390(2) 0.4030(3) 0.9484(3)
C171A C 0.3209(3) 0.4220(3) 0.9796(2)
C172A C 0.2742(3) 0.4327(3) 0.9812(2)
C173A C 0.3264(4) 0.3700(5) 0.8844(3)
N43A N 0.3954(3) 0.4204(3) 0.8666(2)
N44A N 0.3739(2) 0.3760(4) 0.8798(2)
C174A C 0.4088(4) 0.3411(3) 0.8904(2)
C175A C 0.4520(3) 0.3639(4) 0.8838(3)
C176A C 0.4437(3) 0.4130(4) 0.8690(3)
N45A N 0.4515(2) 0.4959(4) 0.8440(2)
C177A C 0.4741(4) 0.4526(3) 0.8566(2)
C178A C 0.5218(4) 0.4497(3) 0.8555(2)
C179A C 0.5467(2) 0.4899(4) 0.8417(3)
C180A C 0.5241(3) 0.5332(3) 0.8291(2)
C181A C 0.4765(4) 0.5361(3) 0.8303(2)
N46A N 0.3682(3) 0.5721(3) 0.8300(3)
C182A C 0.3643(3) 0.5757(3) 0.7932(2)
C183A C 0.3581(3) 0.6229(4) 0.77713(18)
C184A C 0.3557(3) 0.6667(3) 0.7978(3)
C185A C 0.3596(3) 0.6632(3) 0.8346(3)
C186A C 0.3659(3) 0.6159(4) 0.85066(18)
N47A N 0.3670(3) 0.4855(4) 0.79431(17)
N48A N 0.3631(3) 0.4435(3) 0.7707(2)
C187A C 0.3600(3) 0.4628(4) 0.73553(19)
C188A C 0.3619(3) 0.5168(4) 0.7374(2)
C189A C 0.3662(3) 0.5309(3) 0.7737(3)
C190A C 0.3710(5) 0.3950(5) 0.7829(4)
C191A C 0.4196(3) 0.3778(4) 0.7812(2)
C192A C 0.4551(4) 0.4045(3) 0.7657(3)
C193A C 0.5001(3) 0.3870(4) 0.7693(2)
C194A C 0.5094(2) 0.3428(4) 0.7886(3)
C195A C 0.4739(4) 0.3162(3) 0.8042(2)
C196A C 0.4290(3) 0.3337(3) 0.8005(2)
C197A C 0.5345(5) 0.4205(6) 0.7545(4)
N49A N -0.0890(3) 0.3587(4) 0.7708(2)
N50A N 0.5791(3) 0.3977(3) 0.7540(3)
C198A C 0.6159(4) 0.4000(4) 0.7793(2)
C199A C 0.6487(3) 0.3625(5) 0.7702(3)
C200A C -0.1321(4) 0.3369(4) 0.7608(3)
N51A N -0.1227(3) 0.2828(4) 0.8095(3)
C201A C -0.1481(4) 0.2987(3) 0.7798(3)
C202A C -0.1888(4) 0.2741(5) 0.7703(2)
C203A C -0.2043(3) 0.2335(4) 0.7905(3)
C204A C -0.1789(4) 0.2176(3) 0.8203(3)
C205A C -0.1382(4) 0.2422(4) 0.8297(2)
N52A N 0.3808(3) 0.5204(3) 0.90381(16)
C206A C 0.3384(3) 0.5332(3) 0.9174(2)
C207A C 0.3355(3) 0.5498(3) 0.9523(3)
C208A C 0.3750(4) 0.5535(3) 0.97365(17)
C209A C 0.4174(3) 0.5407(3) 0.9600(2)
C210A C 0.4203(2) 0.5241(3) 0.9251(2)
N53A N 0.3073(2) 0.5024(3) 0.8640(2)
N54A N 0.2635(3) 0.4972(3) 0.84694(18)
C211A C 0.2302(2) 0.5181(4) 0.8697(3)
C212A C 0.2534(3) 0.5362(3) 0.9008(2)
C213A C 0.3010(3) 0.5265(3) 0.8973(2)
C214A C 0.2516(5) 0.4709(5) 0.8147(3)
C215A C 0.2528(5) 0.5045(6) 0.7829(4)
C217A C 0.2520(4) 0.5559(5) 0.7811(4)
Cl1 Cl 0.7343(2) 1.0004(3) 0.51291(17)
O1 O 0.7193(5) 0.9485(4) 0.5116(4)
O2 O 0.7809(4) 1.0037(5) 0.5302(3)
O3 O 0.7429(5) 1.0078(6) 0.4740(3)
O4 O 0.6996(4) 1.0362(5) 0.5241(3)
C219 C 0.9779(6) 0.5877(6) 0.4686(5)
H6 H 0.9669 0.5565 0.4799
H7 H 1.0102 0.5836 0.4626
H8 H 0.9596 0.5942 0.4469
N55 N 0.9731(6) 0.6308(7) 0.4931(5)
O5 O 1.0057(6) 0.6439(6) 0.5116(4)
O6 O 0.9449(6) 0.6605(6) 0.4795(5)
H1? H 0.3962 0.8493 1.0964
H2? H -0.0249 0.4298 0.7700
H3? H -0.0362 0.4522 0.7313
H4? H -0.1183 0.4227 0.7011
H5? H -0.1769 0.3556 0.7174
loop_
_geom_bond_atom_site_label_1
_geom_bond_atom_site_label_2
_geom_bond_site_symmetry_1
_geom_bond_site_symmetry_2
Co1 N1 1_555 1_555
Co2 N4 1_555 1_555
Co3 N16 1_555 1_555
Co4 N28 1_555 1_555
Co5 N31 1_555 1_555
Co6 N43 1_555 1_555
N1 C1 1_555 1_555
C1 C2 1_555 1_555
C2 C3 1_555 1_555
C3 C4 1_555 1_555
C4 C5 1_555 1_555
C5 N1 1_555 1_555
N2 Co1 1_555 1_555
N3 N2 1_555 1_555
C6 N3 1_555 1_555
C7 C6 1_555 1_555
C8 C1 1_555 1_555
C9 N3 1_555 1_555
C10 C9 1_555 1_555
C11 C10 1_555 1_555
C12 C11 1_555 1_555
C13 C12 1_555 1_555
C14 C13 1_555 1_555
C15 C10 1_555 1_555
C16 C12 1_555 1_555
N4 N5 1_555 1_555
N5 C16 1_555 1_555
C17 N5 1_555 1_555
C18 C17 1_555 1_555
C19 N4 1_555 1_555
N6 Co2 1_555 1_555
C20 C19 1_555 1_555
C21 C20 1_555 1_555
C22 C21 1_555 1_555
C23 C22 1_555 1_555
C24 N6 1_555 1_555
N7 Co1 1_555 1_555
C25 N7 1_555 1_555
C26 C25 1_555 1_555
C27 C26 1_555 1_555
C28 C27 1_555 1_555
C29 N7 1_555 1_555
N8 Co1 1_555 1_555
N9 N8 1_555 1_555
C30 N9 1_555 1_555
C31 C30 1_555 1_555
C32 C25 1_555 1_555
C33 N9 1_555 1_555
C34 C33 1_555 1_555
C35 C34 1_555 1_555
C36 C35 1_555 1_555
C37 C36 1_555 1_555
C38 C37 1_555 1_555
C39 C34 1_555 1_555
C40 C36 1_555 1_555
N10 Co2 1_555 1_555
N11 C40 1_555 1_555
C41 N11 1_555 1_555
C42 C41 1_555 1_555
C43 N10 1_555 1_555
N12 Co2 1_555 1_555
C44 C43 1_555 1_555
C45 C44 1_555 1_555
C46 C45 1_555 1_555
C47 C46 1_555 1_555
C48 N12 1_555 1_555
N13 Co1 1_555 1_555
C49 N13 1_555 1_555
C50 C49 1_555 1_555
C51 C50 1_555 1_555
C52 C51 1_555 1_555
C53 N13 1_555 1_555
N14 Co1 1_555 1_555
N15 N14 1_555 1_555
C54 N15 1_555 1_555
C55 C54 1_555 1_555
C56 C49 1_555 1_555
C57 N15 1_555 1_555
C58 C57 1_555 1_555
C59 C58 1_555 1_555
C60 C59 1_555 1_555
C61 C60 1_555 1_555
C62 C61 1_555 1_555
C63 C58 1_555 1_555
C64 C60 1_555 1_555
N16 N17 1_555 1_555
N17 C64 1_555 1_555
C65 N17 1_555 1_555
C66 C65 1_555 1_555
C67 N16 1_555 1_555
N18 Co3 1_555 1_555
C68 C67 1_555 1_555
C69 C68 1_555 1_555
C70 C69 1_555 1_555
C71 C70 1_555 1_555
C72 N18 1_555 1_555
N19 Co3 1_555 1_555
C73 N19 1_555 1_555
C74 C73 1_555 1_555
C75 C74 1_555 1_555
C76 C75 1_555 1_555
C77 N19 1_555 1_555
N20 Co3 1_555 1_555
N21 N20 1_555 1_555
C78 N21 1_555 1_555
C79 C78 1_555 1_555
C80 C73 1_555 1_555
C81 N21 1_555 1_555
C82 C81 1_555 1_555
C83 C82 1_555 1_555
C84 C83 1_555 1_555
C85 C84 1_555 1_555
C86 C85 1_555 1_555
C87 C82 1_555 1_555
C88 C84 1_555 1_555
N22 Co2 1_555 1_555
N23 C88 1_555 1_555
C89 N23 1_555 1_555
C90 C89 1_555 1_555
C91 N22 1_555 1_555
N24 Co2 1_555 1_555
C92 C91 1_555 1_555
C93 C92 1_555 1_555
C94 C93 1_555 1_555
C95 C94 1_555 1_555
C96 N24 1_555 1_555
N25 Co3 1_555 1_555
C97 N25 1_555 1_555
C98 C97 1_555 1_555
C99 C98 1_555 1_555
C100 C99 1_555 1_555
C101 N25 1_555 1_555
N26 Co3 1_555 1_555
N27 N26 1_555 1_555
C102 N27 1_555 1_555
C103 C102 1_555 1_555
C104 C97 1_555 1_555
C105 N27 1_555 1_555
C106 C107 1_555 1_555
C107 C105 1_555 1_555
C108 C107 1_555 1_555
C109 C108 1_555 1_555
N28 C110 1_555 1_555
C110 C111 1_555 1_555
C111 C112 1_555 1_555
C112 C113 1_555 1_555
C113 C114 1_555 1_555
C114 N28 1_555 1_555
N29 Co4 1_555 1_555
N30 N29 1_555 1_555
C115 N30 1_555 1_555
C116 C115 1_555 1_555
C117 C110 1_555 1_555
C118 N30 1_555 1_555
C119 C118 1_555 1_555
C120 C119 1_555 1_555
C121 C120 1_555 1_555
C122 C121 1_555 1_555
C123 C122 1_555 1_555
C124 C119 1_555 1_555
C125 C121 1_555 1_555
N31 N32 1_555 1_555
N32 C125 1_555 1_555
C126 N32 1_555 1_555
C127 C126 1_555 1_555
C128 N31 1_555 1_555
N33 Co5 1_555 1_555
C129 C128 1_555 1_555
C130 C129 1_555 1_555
C131 C130 1_555 1_555
C132 C131 1_555 1_555
C133 N33 1_555 1_555
N34 Co4 1_555 1_555
C134 N34 1_555 1_555
C135 C134 1_555 1_555
C136 C135 1_555 1_555
C137 C136 1_555 1_555
C138 N34 1_555 1_555
N35 Co4 1_555 1_555
N36 N35 1_555 1_555
C139 N36 1_555 1_555
C140 C139 1_555 1_555
C141 C134 1_555 1_555
C142 N36 1_555 1_555
C143 C142 1_555 1_555
C144 C143 1_555 1_555
C145 C144 1_555 1_555
C146 C145 1_555 1_555
C147 C146 1_555 1_555
C148 C143 1_555 1_555
C149 C145 1_555 1_555
N37 Co5 1_555 1_555
N38 C149 1_555 1_555
C150 N38 1_555 1_555
C151 C150 1_555 1_555
C152 N37 1_555 1_555
N39 Co5 1_555 1_555
C153 C152 1_555 1_555
C154 C153 1_555 1_555
C155 C154 1_555 1_555
C156 C155 1_555 1_555
C157 N39 1_555 1_555
N40 Co4 1_555 1_555
C158 N40 1_555 1_555
C159 C158 1_555 1_555
C160 C159 1_555 1_555
C161 C160 1_555 1_555
C162 N40 1_555 1_555
N41 Co4 1_555 1_555
N42 N41 1_555 1_555
C163 N42 1_555 1_555
C164 C163 1_555 1_555
C165 C158 1_555 1_555
C166 N42 1_555 1_555
C167 C166 1_555 1_555
C168 C167 1_555 1_555
C169 C168 1_555 1_555
C170 C169 1_555 1_555
C171 C170 1_555 1_555
C172 C167 1_555 1_555
C173 C169 1_555 1_555
N43 N44 1_555 1_555
N44 C173 1_555 1_555
C174 N44 1_555 1_555
C175 C174 1_555 1_555
C176 N43 1_555 1_555
N45 Co6 1_555 1_555
C177 C176 1_555 1_555
C178 C177 1_555 1_555
C179 C178 1_555 1_555
C180 C179 1_555 1_555
C181 N45 1_555 1_555
N46 Co6 1_555 1_555
C182 N46 1_555 1_555
C183 C182 1_555 1_555
C184 C183 1_555 1_555
C185 C184 1_555 1_555
C186 N46 1_555 1_555
N47 Co6 1_555 1_555
N48 N47 1_555 1_555
C187 N48 1_555 1_555
C188 C187 1_555 1_555
C189 C182 1_555 1_555
C190 N48 1_555 1_555
C191 C190 1_555 1_555
C192 C191 1_555 1_555
C193 C192 1_555 1_555
C194 C193 1_555 1_555
C195 C194 1_555 1_555
C196 C191 1_555 1_555
C197 C193 1_555 1_555
N49 Co5 1_555 1_555
N50 C197 1_555 1_555
C198 N50 1_555 1_555
C199 C198 1_555 1_555
C200 N49 1_555 1_555
N51 Co5 1_555 1_555
C201 C200 1_555 1_555
C202 C201 1_555 1_555
C203 C202 1_555 1_555
C204 C203 1_555 1_555
C205 N51 1_555 1_555
N52 Co6 1_555 1_555
C206 N52 1_555 1_555
C207 C206 1_555 1_555
C208 C207 1_555 1_555
C209 C208 1_555 1_555
C210 N52 1_555 1_555
N53 Co6 1_555 1_555
N54 N53 1_555 1_555
C211 N54 1_555 1_555
C212 C211 1_555 1_555
C213 C206 1_555 1_555
C214 N54 1_555 1_555
C215 C214 1_555 1_555
C216 C215 1_555 1_555
C217 C215 1_555 1_555
C218 C217 1_555 1_555
Cl1 O1 1_555 1_555
O2 Cl1 1_555 1_555
O3 Cl1 1_555 1_555
O4 Cl1 1_555 1_555
C219 H6 1_555 1_555
H7 C219 1_555 1_555
H8 C219 1_555 1_555
N55 C219 1_555 1_555
O5 N55 1_555 1_555
O6 N55 1_555 1_555
Co1A N1A 1_555 1_555
Co2A N4A 1_555 1_555
Co3A N16A 1_555 1_555
Co4A N28A 1_555 1_555
Co5A N31A 1_555 1_555
Co6A N43A 1_555 1_555
N1A C1A 1_555 1_555
C1A C2A 1_555 1_555
C2A C3A 1_555 1_555
C3A C4A 1_555 1_555
C4A C5A 1_555 1_555
C5A N1A 1_555 1_555
N2A Co1A 1_555 1_555
N3A N2A 1_555 1_555
C6A N3A 1_555 1_555
C7A C6A 1_555 1_555
C8A C1A 1_555 1_555
C9A N3A 1_555 1_555
C10A C9A 1_555 1_555
C11A C10A 1_555 1_555
C12A C11A 1_555 1_555
C13A C12A 1_555 1_555
C14A C13A 1_555 1_555
C15A C10A 1_555 1_555
C16A C12A 1_555 1_555
N4A N5A 1_555 1_555
N5A C16A 1_555 1_555
C17A N5A 1_555 1_555
C18A C17A 1_555 1_555
C19A N4A 1_555 1_555
N6A Co2A 1_555 1_555
C20A C19A 1_555 1_555
C21A C20A 1_555 1_555
C22A C21A 1_555 1_555
C23A C22A 1_555 1_555
C24A N6A 1_555 1_555
N7A Co1A 1_555 1_555
C25A N7A 1_555 1_555
C26A C25A 1_555 1_555
C27A C26A 1_555 1_555
C28A C27A 1_555 1_555
C29A N7A 1_555 1_555
N8A Co1A 1_555 1_555
N9A N8A 1_555 1_555
C30A N9A 1_555 1_555
C31A C30A 1_555 1_555
C32A C25A 1_555 1_555
C33A N9A 1_555 1_555
C34A C33A 1_555 1_555
C35A C34A 1_555 1_555
C36A C35A 1_555 1_555
C37A C36A 1_555 1_555
C38A C37A 1_555 1_555
C39A C34A 1_555 1_555
C40A C36A 1_555 1_555
N10A Co2A 1_555 1_555
N11A C40A 1_555 1_555
C41A N11A 1_555 1_555
C42A C41A 1_555 1_555
C43A N10A 1_555 1_555
N12A Co2A 1_555 1_555
C44A C43A 1_555 1_555
C45A C44A 1_555 1_555
C46A C45A 1_555 1_555
C47A C46A 1_555 1_555
C48A N12A 1_555 1_555
N13A Co1A 1_555 1_555
C49A N13A 1_555 1_555
C50A C49A 1_555 1_555
C51A C50A 1_555 1_555
C52A C51A 1_555 1_555
C53A N13A 1_555 1_555
N14A Co1A 1_555 1_555
N15A N14A 1_555 1_555
C54A N15A 1_555 1_555
C55A C54A 1_555 1_555
C56A C49A 1_555 1_555
C57A N15A 1_555 1_555
C58A C57A 1_555 1_555
C59A C58A 1_555 1_555
C60A C59A 1_555 1_555
C61A C60A 1_555 1_555
C62A C61A 1_555 1_555
C63A C58A 1_555 1_555
C64A C60A 1_555 1_555
N16A N17A 1_555 1_555
N17A C64A 1_555 1_555
C65A N17A 1_555 1_555
C66A C65A 1_555 1_555
C67A N16A 1_555 1_555
N18A Co3A 1_555 1_555
C68A C67A 1_555 1_555
C69A C68A 1_555 1_555
C70A C69A 1_555 1_555
C71A C70A 1_555 1_555
C72A N18A 1_555 1_555
N19A Co3A 1_555 1_555
C73A N19A 1_555 1_555
C74A C73A 1_555 1_555
C75A C74A 1_555 1_555
C76A C75A 1_555 1_555
C77A N19A 1_555 1_555
N20A Co3A 1_555 1_555
N21A N20A 1_555 1_555
C78A N21A 1_555 1_555
C79A C78A 1_555 1_555
C80A C73A 1_555 1_555
C81A N21A 1_555 1_555
C82A C81A 1_555 1_555
C83A C82A 1_555 1_555
C84A C83A 1_555 1_555
C85A C84A 1_555 1_555
C86A C85A 1_555 1_555
C87A C82A 1_555 1_555
C88A C84A 1_555 1_555
N22A N23 1_555 1_555
N23A N22 1_555 1_555
C89A N23A 1_555 1_555
C90A C91 1_555 1_555
C91A C90 1_555 1_555
N24A Co2A 1_555 1_555
C92A C91A 1_555 1_555
C93A C92A 1_555 1_555
C94A C93A 1_555 1_555
C95A C94A 1_555 1_555
C96A N24A 1_555 1_555
N25A Co3A 1_555 1_555
C97A N25A 1_555 1_555
C98A C97A 1_555 1_555
C99A C98A 1_555 1_555
C100A C99A 1_555 1_555
C101A N25A 1_555 1_555
N26A Co3A 1_555 1_555
N27A N26A 1_555 1_555
C102A N27A 1_555 1_555
C103A C102A 1_555 1_555
C104A C97A 1_555 1_555
C105A N27A 1_555 1_555
C107A C106 1_555 1_555
C108A C109 1_555 1_555
N28A C110A 1_555 1_555
C110A C111A 1_555 1_555
C111A C112A 1_555 1_555
C112A C113A 1_555 1_555
C113A C114A 1_555 1_555
C114A N28A 1_555 1_555
N29A Co4A 1_555 1_555
N30A N29A 1_555 1_555
C115A N30A 1_555 1_555
C116A C115A 1_555 1_555
C117A C110A 1_555 1_555
C118A N30A 1_555 1_555
C119A C118A 1_555 1_555
C120A C119A 1_555 1_555
C121A C120A 1_555 1_555
C122A C121A 1_555 1_555
C123A C122A 1_555 1_555
C124A C119A 1_555 1_555
C125A C121A 1_555 1_555
N31A N32A 1_555 1_555
N32A C125A 1_555 1_555
C126A N32A 1_555 1_555
C127A C126A 1_555 1_555
C128A N31A 1_555 1_555
N33A Co5A 1_555 1_555
C129A C128A 1_555 1_555
C130A C129A 1_555 1_555
C131A C130A 1_555 1_555
C132A C131A 1_555 1_555
C133A N33A 1_555 1_555
N34A Co4A 1_555 1_555
C134A N34A 1_555 1_555
C135A C134A 1_555 1_555
C136A C135A 1_555 1_555
C137A C136A 1_555 1_555
C138A N34A 1_555 1_555
N35A Co4A 1_555 1_555
N36A N35A 1_555 1_555
C139A N36A 1_555 1_555
C140A C139A 1_555 1_555
C141A C134A 1_555 1_555
C142A N36A 1_555 1_555
C143A C142A 1_555 1_555
C144A C143A 1_555 1_555
C145A C144A 1_555 1_555
C146A C145A 1_555 1_555
C147A C146A 1_555 1_555
C148A C143A 1_555 1_555
C149A C145A 1_555 1_555
N37A Co5A 1_555 1_555
N38A C149A 1_555 1_555
C150A N38A 1_555 1_555
C151A C150A 1_555 1_555
C152A N37A 1_555 1_555
N39A Co5A 1_555 1_555
C153A C152A 1_555 1_555
C154A C153A 1_555 1_555
C155A C154A 1_555 1_555
C156A C155A 1_555 1_555
C157A N39A 1_555 1_555
N40A Co4A 1_555 1_555
C158A N40A 1_555 1_555
C159A C158A 1_555 1_555
C160A C159A 1_555 1_555
C161A C160A 1_555 1_555
C162A N40A 1_555 1_555
N41A Co4A 1_555 1_555
N42A N41A 1_555 1_555
C163A N42A 1_555 1_555
C164A C163A 1_555 1_555
C165A C158A 1_555 1_555
C166A N42A 1_555 1_555
C167A C166A 1_555 1_555
C168A C167A 1_555 1_555
C169A C168A 1_555 1_555
C170A C169A 1_555 1_555
C171A C170A 1_555 1_555
C172A C167A 1_555 1_555
C173A C169A 1_555 1_555
N43A N44A 1_555 1_555
N44A C173A 1_555 1_555
C174A N44A 1_555 1_555
C175A C174A 1_555 1_555
C176A N43A 1_555 1_555
N45A Co6A 1_555 1_555
C177A C176A 1_555 1_555
C178A C177A 1_555 1_555
C179A C178A 1_555 1_555
C180A C179A 1_555 1_555
C181A N45A 1_555 1_555
N46A Co6A 1_555 1_555
C182A N46A 1_555 1_555
C183A C182A 1_555 1_555
C184A C183A 1_555 1_555
C185A C184A 1_555 1_555
C186A N46A 1_555 1_555
N47A Co6A 1_555 1_555
N48A N47A 1_555 1_555
C187A N48A 1_555 1_555
C188A C187A 1_555 1_555
C189A C182A 1_555 1_555
C190A N48A 1_555 1_555
C191A C190A 1_555 1_555
C192A C191A 1_555 1_555
C193A C192A 1_555 1_555
C194A C193A 1_555 1_555
C195A C194A 1_555 1_555
C196A C191A 1_555 1_555
C197A C193A 1_555 1_555
N49A N50 1_555 1_555
N50A N49 1_555 1_555
C198A N50A 1_555 1_555
C199A C200 1_555 1_555
C200A C199 1_555 1_555
N51A Co5A 1_555 1_555
C201A C200A 1_555 1_555
C202A C201A 1_555 1_555
C203A C202A 1_555 1_555
C204A C203A 1_555 1_555
C205A N51A 1_555 1_555
N52A Co6A 1_555 1_555
C206A N52A 1_555 1_555
C207A C206A 1_555 1_555
C208A C207A 1_555 1_555
C209A C208A 1_555 1_555
C210A N52A 1_555 1_555
N53A Co6A 1_555 1_555
N54A N53A 1_555 1_555
C211A N54A 1_555 1_555
C212A C211A 1_555 1_555
C213A C206A 1_555 1_555
C214A N54A 1_555 1_555
C215A C216 1_555 1_555
C217A C218 1_555 1_555
N2 C8 1_555 1_555
C7 C8 1_555 1_555
C14 C15 1_555 1_555
C18 C19 1_555 1_555
N6 C20 1_555 1_555
C23 C24 1_555 1_555
C28 C29 1_555 1_555
N8 C32 1_555 1_555
C31 C32 1_555 1_555
C38 C39 1_555 1_555
N10 N11 1_555 1_555
C42 C43 1_555 1_555
N12 C44 1_555 1_555
C47 C48 1_555 1_555
C52 C53 1_555 1_555
N14 C56 1_555 1_555
C55 C56 1_555 1_555
C62 C63 1_555 1_555
C66 C67 1_555 1_555
N18 C68 1_555 1_555
C71 C72 1_555 1_555
C76 C77 1_555 1_555
N20 C80 1_555 1_555
C79 C80 1_555 1_555
C86 C87 1_555 1_555
N24 C92 1_555 1_555
C95 C96 1_555 1_555
C100 C101 1_555 1_555
N26 C104 1_555 1_555
C103 C104 1_555 1_555
N29 C117 1_555 1_555
C116 C117 1_555 1_555
C123 C124 1_555 1_555
C127 C128 1_555 1_555
N33 C129 1_555 1_555
C132 C133 1_555 1_555
C137 C138 1_555 1_555
N35 C141 1_555 1_555
C140 C141 1_555 1_555
C147 C148 1_555 1_555
N37 N38 1_555 1_555
C151 C152 1_555 1_555
N39 C153 1_555 1_555
C156 C157 1_555 1_555
C161 C162 1_555 1_555
N41 C165 1_555 1_555
C164 C165 1_555 1_555
C171 C172 1_555 1_555
C175 C176 1_555 1_555
N45 C177 1_555 1_555
C180 C181 1_555 1_555
C185 C186 1_555 1_555
N47 C189 1_555 1_555
C188 C189 1_555 1_555
C195 C196 1_555 1_555
N51 C201 1_555 1_555
C204 C205 1_555 1_555
C209 C210 1_555 1_555
N53 C213 1_555 1_555
C212 C213 1_555 1_555
Co2A N22A 1_555 1_555
Co5A N49A 1_555 1_555
N2A C8A 1_555 1_555
C7A C8A 1_555 1_555
C14A C15A 1_555 1_555
C18A C19A 1_555 1_555
N6A C20A 1_555 1_555
C23A C24A 1_555 1_555
C28A C29A 1_555 1_555
N8A C32A 1_555 1_555
C31A C32A 1_555 1_555
C38A C39A 1_555 1_555
N10A N11A 1_555 1_555
C42A C43A 1_555 1_555
N12A C44A 1_555 1_555
C47A C48A 1_555 1_555
C52A C53A 1_555 1_555
N14A C56A 1_555 1_555
C55A C56A 1_555 1_555
C62A C63A 1_555 1_555
C66A C67A 1_555 1_555
N18A C68A 1_555 1_555
C71A C72A 1_555 1_555
C76A C77A 1_555 1_555
N20A C80A 1_555 1_555
C79A C80A 1_555 1_555
C86A C87A 1_555 1_555
C88A N23A 1_555 1_555
N22A C91A 1_555 1_555
C89A C90A 1_555 1_555
N24A C92A 1_555 1_555
C95A C96A 1_555 1_555
C100A C101A 1_555 1_555
N26A C104A 1_555 1_555
C103A C104A 1_555 1_555
C105A C107A 1_555 1_555
C107A C108A 1_555 1_555
N29A C117A 1_555 1_555
C116A C117A 1_555 1_555
C123A C124A 1_555 1_555
C127A C128A 1_555 1_555
N33A C129A 1_555 1_555
C132A C133A 1_555 1_555
C137A C138A 1_555 1_555
N35A C141A 1_555 1_555
C140A C141A 1_555 1_555
C147A C148A 1_555 1_555
N37A N38A 1_555 1_555
C151A C152A 1_555 1_555
N39A C153A 1_555 1_555
C156A C157A 1_555 1_555
C161A C162A 1_555 1_555
N41A C165A 1_555 1_555
C164A C165A 1_555 1_555
C171A C172A 1_555 1_555
C175A C176A 1_555 1_555
N45A C177A 1_555 1_555
C180A C181A 1_555 1_555
C185A C186A 1_555 1_555
N47A C189A 1_555 1_555
C188A C189A 1_555 1_555
C195A C196A 1_555 1_555
C197A N50A 1_555 1_555
N49A C200A 1_555 1_555
C198A C199A 1_555 1_555
N51A C201A 1_555 1_555
C204A C205A 1_555 1_555
C209A C210A 1_555 1_555
N53A C213A 1_555 1_555
C212A C213A 1_555 1_555
C214A C215A 1_555 1_555
C215A C217A 1_555 1_555

#END
