
#######################################################################
#
#                 Cambridge Crystallographic Data Centre
#                                CCDC 
#
#######################################################################
#
# If this CIF has been generated from an entry in the Cambridge 
# Structural Database, then it will include bibliographic, chemical, 
# crystal, experimental, refinement or atomic coordinate data resulting 
# from the CCDC's data processing and validation procedures.
#
#######################################################################

data_DEHDIF
_chemical_formula_moiety         
'10(Co1 2+),15(C26 H22 N4),Cl1 1-,7(F6 P1 1-),11(C2 F6 N1 O4 S2 1-),5(C2 H3 N1),C1 F3 O3 S1 1-'
_chemical_name_systematic        
"Deca-cobalt pentadecakis(6,6'-bis(p-tolyliminomethyl)-3,3'-bipyridine) chloride heptakis(hexafluorophosphate) undecakis(bis(trifluoromethylsulfonyl)amide) trifluoromethanesulfonate acetonitrile solvate"
_symmetry_cell_setting           orthorhombic
_symmetry_space_group_name_H-M   'F d d d'
_symmetry_Int_Tables_number      70
_space_group_name_Hall           '-F 2uv 2vw'
loop_
_symmetry_equiv_pos_site_id
_symmetry_equiv_pos_as_xyz
1 x,y,z
2 3/4-x,3/4-y,z
3 3/4-x,y,3/4-z
4 x,3/4-y,3/4-z
5 x,1/2+y,1/2+z
6 3/4-x,1/4-y,1/2+z
7 3/4-x,1/2+y,1/4-z
8 x,1/4-y,1/4-z
9 1/2+x,y,1/2+z
10 1/4-x,3/4-y,1/2+z
11 1/4-x,y,1/4-z
12 1/2+x,3/4-y,1/4-z
13 1/2+x,1/2+y,z
14 1/4-x,1/4-y,z
15 1/4-x,1/2+y,3/4-z
16 1/2+x,1/4-y,3/4-z
17 -x,-y,-z
18 1/4+x,1/4+y,-z
19 1/4+x,-y,1/4+z
20 -x,1/4+y,1/4+z
21 -x,1/2-y,1/2-z
22 1/4+x,3/4+y,1/2-z
23 1/4+x,1/2-y,3/4+z
24 -x,3/4+y,3/4+z
25 1/2-x,-y,1/2-z
26 3/4+x,1/4+y,1/2-z
27 3/4+x,-y,3/4+z
28 1/2-x,1/4+y,3/4+z
29 1/2-x,1/2-y,-z
30 3/4+x,3/4+y,-z
31 3/4+x,1/2-y,1/4+z
32 1/2-x,3/4+y,1/4+z
_cell_length_a                   70.759(3)
_cell_length_b                   79.508(2)
_cell_length_c                   81.130(2)
_cell_angle_alpha                90
_cell_angle_beta                 90
_cell_angle_gamma                90
_cell_volume                     456430
_exptl_crystal_colour            orange
_exptl_crystal_description       prism
_cell_formula_units_Z            32
loop_
_atom_site_label
_atom_site_type_symbol
_atom_site_fract_x
_atom_site_fract_y
_atom_site_fract_z
C391 C -0.1101(2) 0.0241(3) 0.0725(3)
C392 C -0.0876(5) 0.0811(4) 0.0932(4)
N61 N -0.1069(4) 0.0551(3) 0.0808(3)
F45 F -0.1277(2) 0.0261(2) 0.0659(2)
F46 F -0.1096(2) 0.00721(19) 0.0760(2)
F47 F -0.09868(18) 0.02529(17) 0.05898(17)
F48 F -0.1055(2) 0.0871(2) 0.0992(2)
F49 F -0.0823(2) 0.0713(2) 0.1060(2)
F50 F -0.0775(3) 0.0934(2) 0.0913(2)
S2 S -0.10270(13) 0.03741(9) 0.08830(10)
S3 S -0.09339(10) 0.06925(10) 0.07523(10)
O4 O -0.1188(3) 0.0323(2) 0.1016(2)
O5 O -0.0836(2) 0.0334(2) 0.0912(2)
O6 O -0.1028(3) 0.0806(2) 0.0651(2)
O7 O -0.0749(3) 0.0623(3) 0.0703(3)
C393 C 0.1548(3) 0.3417(2) 0.0027(2)
C394 C 0.1483(4) 0.3635(3) 0.0586(4)
N63 N 0.1469(3) 0.3410(3) 0.0326(3)
F51 F 0.1505(2) 0.34393(19) -0.01358(18)
F52 F 0.1596(2) 0.3250(2) 0.00321(19)
F53 F 0.1722(3) 0.3489(3) 0.0044(3)
F54 F 0.1597(3) 0.3703(3) 0.0696(3)
F55 F 0.1388(2) 0.3749(2) 0.0503(2)
F56 F 0.1361(3) 0.3538(2) 0.0665(2)
S4 S 0.13851(10) 0.34822(8) 0.01618(8)
S5 S 0.16241(13) 0.35051(13) 0.04443(13)
O8 O 0.1219(2) 0.3389(2) 0.0110(2)
O9 O 0.1364(2) 0.3659(2) 0.01488(18)
O10 O 0.1734(3) 0.3382(3) 0.0545(3)
O11 O 0.1742(4) 0.3628(3) 0.0362(3)
C395 C 0.0987(5) 0.1996(5) -0.0124(4)
C396 C 0.1186(5) 0.2042(5) -0.0061(5)
H74 H 0.1201 0.2003 0.0053
H75 H 0.1202 0.2164 -0.0065
H76 H 0.1281 0.1988 -0.0131
N66 N 0.0815(3) 0.1969(3) -0.0158(3)
C397 C -0.0809(4) 0.3244(3) -0.0048(3)
C398 C -0.1022(4) 0.3209(4) -0.0058(4)
H77 H -0.1071 0.3184 0.0052
H78 H -0.1045 0.3111 -0.0130
H79 H -0.1087 0.3307 -0.0103
N64 N -0.0658(3) 0.3271(2) -0.0030(2)
C399 C 0.1096(3) 0.3014(2) 0.0201(2)
C400 C 0.1295(3) 0.2978(3) 0.0218(3)
H80 H 0.1311 0.2872 0.0279
H81 H 0.1356 0.3069 0.0278
H82 H 0.1352 0.2967 0.0109
N62 N 0.0944(2) 0.30440(19) 0.01806(18)
C401 C 0.0889(10) 0.2011(7) 0.0496(7)
C402 C 0.1085(8) 0.2029(7) 0.0510(7)
H83 H 0.1129 0.1970 0.0608
H84 H 0.1116 0.2149 0.0519
H85 H 0.1147 0.1982 0.0412
N65 N 0.0718(4) 0.1970(3) 0.0552(3)
C403 C -0.0953(5) 0.2185(6) -0.0197(5)
C404 C -0.1167(5) 0.2217(10) -0.0188(9)
H86 H -0.1202 0.2249 -0.0075
H87 H -0.1235 0.2114 -0.0219
H88 H -0.1201 0.2308 -0.0264
N67 N -0.0809(4) 0.2151(3) -0.0221(3)
F1 F 0.02049(17) 0.27859(15) 0.09108(14)
F2 F 0.00047(18) 0.29620(16) 0.10549(15)
F3 F 0.01333(13) 0.30448(11) 0.08124(11)
F4 F 0.00165(14) 0.28121(13) 0.06958(12)
F5 F -0.01714(18) 0.29815(15) 0.08440(15)
F6 F -0.00973(12) 0.27283(11) 0.09386(11)
P2 P 0.00162(6) 0.28848(5) 0.08759(5)
F7 F 0.01449(12) 0.31900(11) 0.00776(11)
F8 F 0.03849(13) 0.33615(12) 0.01520(11)
F9 F 0.02195(14) 0.35842(13) 0.00468(12)
F10 F 0.02840(12) 0.33575(11) -0.01143(10)
F11 F 0.00896(12) 0.34161(10) 0.02387(10)
F12 F -0.00163(14) 0.34104(13) -0.00212(12)
P3 P 0.01855(6) 0.33879(5) 0.00631(5)
F13 F 0.02009(15) 0.18658(14) -0.03620(13)
F14 F -0.02425(15) 0.18532(14) -0.02683(13)
F15 F -0.00432(15) 0.16911(14) -0.04189(13)
F16 F -0.00652(14) 0.19684(13) -0.04775(12)
F17 F 0.00205(13) 0.17467(11) -0.01532(10)
F18 F 0.00051(13) 0.20305(11) -0.02109(11)
P5 P -0.00209(7) 0.18605(6) -0.03144(5)
F28 F 0.00891(14) 0.18575(12) 0.06077(12)
F29 F -0.01641(15) 0.17943(13) 0.07591(13)
F30 F -0.01998(12) 0.18299(10) 0.04909(10)
F31 F -0.00282(11) 0.20490(10) 0.07857(9)
F32 F -0.00664(12) 0.20906(11) 0.05110(11)
F33 F -0.03134(14) 0.20244(12) 0.06683(11)
P6 P -0.01120(6) 0.19420(5) 0.06362(5)
F34 F 0.01397(14) 0.27101(13) -0.04806(12)
F35 F 0.03797(15) 0.27944(13) -0.06385(12)
F36 F 0.01851(17) 0.27881(15) -0.08589(14)
F37 F 0.02163(13) 0.25554(12) -0.07043(11)
F38 F -0.00539(16) 0.27086(15) -0.06994(14)
F39 F 0.01103(13) 0.29426(11) -0.06350(11)
P4 P 0.01640(7) 0.27506(5) -0.06695(5)
F40 F -0.1017(4) 0.2702(3) 0.0031(3)
F41 F -0.0770(3) 0.2537(3) 0.0185(3)
F42 F -0.0557(3) 0.2645(3) 0.0058(3)
F43 F -0.0724(4) 0.2737(4) -0.0115(4)
F44 F -0.0764(6) 0.2515(6) -0.0047(5)
F57 F -0.0738(3) 0.2825(3) 0.0169(3)
P7 P -0.07592(7) 0.26787(7) 0.00593(8)
F58 F 0.0252(4) 0.3680(3) -0.1370(3)
F59 F 0.0061(3) 0.3916(2) -0.1375(2)
F60 F -0.0082(3) 0.3684(3) -0.1376(2)
P8 P 0.0079(2) 0.3750 -0.1250
F58C F 0.0252(4) 0.3820(3) -0.1130(3)
F59C F 0.0061(3) 0.3584(2) -0.1125(2)
F60C F -0.0082(3) 0.3816(3) -0.1124(2)
Cl1 Cl 0.00492(5) 0.25645(4) 0.01173(4)
S7 S -0.0478(2) 0.32434(18) 0.16129(19)
C407 C -0.0480(5) 0.3460(2) 0.1683(4)
O14 O -0.0297(3) 0.3227(5) 0.1537(4)
O15 O -0.0633(3) 0.3236(3) 0.1501(3)
O16 O -0.0502(6) 0.3151(4) 0.1763(3)
F64 F -0.0642(6) 0.3499(5) 0.1757(6)
F65 F -0.0345(6) 0.3490(4) 0.1791(5)
F66 F -0.0458(8) 0.3565(2) 0.1558(6)
F67 F 0.1179(4) 0.2991(4) -0.1277(4)
F68 F 0.1212(4) 0.3194(4) -0.1465(4)
F69 F 0.1132(3) 0.2926(3) -0.1528(3)
S8 S 0.0668(2) 0.28307(19) -0.14928(18)
S9 S 0.0872(2) 0.31060(18) -0.13936(18)
O17 O 0.0804(4) 0.3196(4) -0.1572(4)
O18 O 0.0877(4) 0.3212(4) -0.1255(4)
O19 O 0.0643(4) 0.2647(4) -0.1440(4)
O20 O 0.0800(6) 0.2820(5) -0.1680(5)
F70 F 0.0351(4) 0.2807(3) -0.1622(3)
C408 C 0.0448(3) 0.2878(5) -0.1494(4)
F71 F 0.0344(4) 0.2878(3) -0.1352(3)
C409 C 0.1107(6) 0.3057(4) -0.1420(4)
F72 F 0.0423(5) 0.3044(5) -0.1531(4)
N69 N 0.0780(4) 0.2924(4) -0.1351(4)
C1 C 0.0725(7) 0.0837(6) -0.0288(4)
C2 C 0.0665(3) 0.0949(2) -0.0142(2)
C3 C 0.0557(3) 0.09029(17) -0.0006(3)
C4 C 0.0523(2) 0.1019(2) 0.01193(19)
C5 C 0.0597(2) 0.11802(18) 0.01081(17)
C6 C 0.0705(2) 0.12259(19) -0.0028(2)
C7 C 0.0739(3) 0.1110(3) -0.01529(18)
C8 C 0.0566(2) 0.1256(2) 0.0387(2)
C9 C 0.0521(3) 0.1373(2) 0.0517(2)
C10 C 0.0430(2) 0.1643(2) 0.05822(19)
C11 C 0.0419(2) 0.16024(19) 0.07552(18)
C12 C 0.0446(3) 0.1435(2) 0.0800(2)
C13 C 0.0514(3) 0.1321(3) 0.0683(2)
C14 C 0.0346(2) 0.1718(2) 0.08795(19)
C15 C 0.0413(2) 0.1893(2) 0.0879(2)
C16 C 0.0209(2) 0.1954(2) 0.11034(19)
C17 C 0.0144(2) 0.1794(2) 0.11065(19)
C18 C 0.0224(2) 0.1673(2) 0.0994(2)
C19 C 0.0129(2) 0.2087(2) 0.11997(19)
C20 C 0.0129(3) 0.2365(2) 0.1304(2)
C21 C 0.0123(2) 0.2527(2) 0.1251(2)
C22 C 0.0062(2) 0.2658(2) 0.1356(2)
C23 C 0.0019(3) 0.2618(3) 0.1523(3)
C24 C 0.0015(3) 0.2447(3) 0.1582(3)
C25 C 0.0074(3) 0.2314(3) 0.1476(2)
C26 C -0.0060(4) 0.2771(3) 0.1631(3)
C27 C -0.0205(4) 0.1160(4) 0.0769(4)
C28 C -0.0113(3) 0.1217(3) 0.0618(3)
C29 C -0.0053(3) 0.1394(2) 0.0599(2)
C30 C 0.0034(2) 0.1458(2) 0.0461(2)
C31 C 0.0086(3) 0.1353(2) 0.0335(2)
C32 C 0.0034(3) 0.1168(2) 0.0347(2)
C33 C -0.0057(3) 0.1101(3) 0.0485(3)
C34 C 0.0142(2) 0.1364(2) 0.0053(2)
C35 C 0.0261(2) 0.1426(2) -0.00836(19)
C36 C 0.0497(3) 0.1603(2) -0.0168(2)
C37 C 0.0468(3) 0.1553(2) -0.0342(2)
C38 C 0.0336(3) 0.1440(2) -0.0372(2)
C39 C 0.0227(3) 0.1366(2) -0.0247(2)
C40 C 0.0577(2) 0.1642(2) -0.0474(2)
C41 C 0.0592(2) 0.1822(2) -0.0480(2)
C42 C 0.0759(3) 0.1799(3) -0.0725(3)
C43 C 0.0754(3) 0.1638(3) -0.0725(3)
C44 C 0.0658(3) 0.1552(3) -0.0604(3)
C45 C 0.0845(3) 0.1901(3) -0.0862(3)
C46 C 0.0913(3) 0.2170(3) -0.0974(2)
C47 C 0.1019(3) 0.2295(3) -0.0935(3)
C48 C 0.1089(3) 0.2414(3) -0.1062(3)
C49 C 0.1039(3) 0.2393(3) -0.1210(3)
C50 C 0.0940(3) 0.2257(3) -0.1261(3)
C51 C 0.0867(3) 0.2137(3) -0.1144(3)
C52 C 0.1079(4) 0.2528(3) -0.1352(3)
C53 C 0.1464(4) 0.1474(4) 0.0268(4)
C54 C 0.1245(2) 0.1515(2) 0.0249(3)
C55 C 0.1124(3) 0.1518(3) 0.0383(2)
C56 C 0.0942(3) 0.1583(3) 0.0366(2)
C57 C 0.0883(2) 0.1645(2) 0.0215(3)
C58 C 0.1004(3) 0.1642(3) 0.0080(2)
C59 C 0.1186(3) 0.1577(3) 0.0097(2)
C60 C 0.0651(2) 0.1865(3) 0.0189(2)
C61 C 0.04573(19) 0.1920(2) 0.01781(18)
C62 C 0.0142(2) 0.18377(18) 0.01888(17)
C63 C 0.00798(18) 0.19977(17) 0.01646(15)
C64 C 0.0211(2) 0.2116(2) 0.01383(17)
C65 C 0.0399(2) 0.2084(2) 0.01456(19)
C66 C -0.0124(2) 0.20379(19) 0.01496(17)
C67 C -0.0259(2) 0.1904(2) 0.01465(19)
C68 C -0.0510(2) 0.2092(2) 0.01382(18)
C69 C -0.0394(2) 0.2224(2) 0.0146(2)
C70 C -0.0200(2) 0.2192(2) 0.0148(2)
C71 C -0.0719(3) 0.2107(3) 0.0142(2)
C72 C -0.1024(2) 0.2016(3) 0.0177(3)
C73 C -0.1086(4) 0.2163(3) 0.0253(3)
C74 C -0.1278(4) 0.2196(2) 0.0266(3)
C75 C -0.1409(3) 0.2082(3) 0.0203(3)
C76 C -0.1347(3) 0.1936(3) 0.0127(2)
C77 C -0.1155(3) 0.1903(2) 0.0114(2)
C78 C -0.1615(3) 0.2131(6) 0.0245(6)
C79 C 0.0580(3) 0.1484(3) 0.1498(3)
C80 C 0.0568(3) 0.1663(2) 0.1426(3)
C81 C 0.0660(3) 0.1710(2) 0.1281(2)
C82 C 0.0669(3) 0.1878(3) 0.1237(2)
C83 C 0.0587(3) 0.2000(2) 0.1337(3)
C84 C 0.0496(3) 0.1954(2) 0.1481(2)
C85 C 0.0487(3) 0.1785(3) 0.1526(2)
C86 C 0.0623(3) 0.2290(2) 0.1366(3)
C87 C 0.0623(3) 0.2461(2) 0.1305(3)
C88 C 0.0538(2) 0.2630(2) 0.10899(19)
C89 C 0.0576(2) 0.2777(2) 0.1175(2)
C90 C 0.0626(3) 0.2759(3) 0.1339(3)
C91 C 0.0658(4) 0.2594(3) 0.1403(4)
C92 C 0.0543(2) 0.2951(2) 0.1113(2)
C93 C 0.0608(2) 0.2992(2) 0.0949(2)
C94 C 0.0464(2) 0.3261(2) 0.09750(18)
C95 C 0.0412(2) 0.3217(2) 0.1130(2)
C96 C 0.0448(3) 0.3070(2) 0.1205(2)
C97 C 0.0419(2) 0.34093(19) 0.08904(18)
C98 C 0.0449(2) 0.3591(2) 0.06666(19)
C99 C 0.0406(2) 0.3591(2) 0.0497(2)
C100 C 0.0380(3) 0.3751(2) 0.0419(2)
C101 C 0.0393(2) 0.3905(2) 0.0503(2)
C102 C 0.0433(3) 0.3897(3) 0.0665(3)
C103 C 0.0462(3) 0.3739(3) 0.0755(3)
C104 C 0.0361(4) 0.4068(3) 0.0416(3)
C105 C 0.1447(6) 0.2035(5) 0.1017(5)
C106 C 0.1245(2) 0.2105(3) 0.0992(3)
C107 C 0.1194(3) 0.2273(3) 0.1004(3)
C108 C 0.1012(3) 0.2323(2) 0.0964(3)
C109 C 0.0879(2) 0.2205(3) 0.0914(2)
C110 C 0.0930(3) 0.2036(2) 0.0902(3)
C111 C 0.1112(4) 0.1986(2) 0.0942(3)
C112 C 0.0642(2) 0.2305(2) 0.0736(2)
C113 C 0.0450(2) 0.23482(19) 0.06985(19)
C114 C 0.0145(2) 0.23840(17) 0.08007(17)
C115 C 0.00724(19) 0.24187(17) 0.06557(16)
C116 C 0.0191(2) 0.24230(19) 0.05192(19)
C117 C 0.0388(3) 0.2395(2) 0.0543(2)
C118 C -0.01333(18) 0.24609(16) 0.06264(15)
C119 C -0.0255(2) 0.24335(17) 0.07564(17)
C120 C -0.0512(2) 0.25214(19) 0.06050(19)
C121 C -0.0400(3) 0.2556(2) 0.0469(2)
C122 C -0.0202(2) 0.25175(18) 0.04858(18)
C123 C -0.0716(3) 0.2546(2) 0.0588(2)
C124 C -0.1026(3) 0.2527(3) 0.07448(18)
C125 C -0.1141(4) 0.2387(2) 0.0720(3)
C126 C -0.1336(3) 0.2405(3) 0.0721(3)
C127 C -0.1417(3) 0.2563(3) 0.0745(2)
C128 C -0.1302(4) 0.2702(3) 0.0769(3)
C129 C -0.1107(3) 0.2684(3) 0.0769(3)
C130 C -0.1636(3) 0.2582(5) 0.0745(3)
C131 C 0.1025(6) 0.3382(6) 0.1499(5)
C132 C 0.0961(4) 0.3366(4) 0.1302(3)
C133 C 0.0988(3) 0.3237(3) 0.1207(2)
C134 C 0.0964(2) 0.3252(2) 0.1046(2)
C135 C 0.0905(2) 0.3395(2) 0.0976(2)
C136 C 0.0849(3) 0.3519(3) 0.1076(3)
C137 C 0.0904(4) 0.3522(4) 0.1241(3)
C138 C 0.0925(2) 0.3535(2) 0.07222(13)
N1 N 0.08018(12) 0.34034(10) 0.04789(10)
C139 C 0.07629(13) 0.33990(10) 0.03110(10)
C140 C 0.08130(15) 0.35341(12) 0.02114(8)
C141 C 0.09019(16) 0.36736(11) 0.02796(11)
C142 C 0.09408(16) 0.36779(10) 0.04475(12)
C143 C 0.08907(14) 0.35429(12) 0.05471(8)
C144 C 0.0756(2) 0.3532(2) 0.00408(18)
C145 C 0.0773(2) 0.3387(2) -0.00562(19)
C146 C 0.0630(2) 0.3516(2) -0.02809(19)
C147 C 0.0606(2) 0.3665(2) -0.01921(19)
C148 C 0.0665(2) 0.3672(2) -0.00369(19)
C149 C 0.0561(2) 0.3486(2) -0.0447(2)
C150 C 0.0523(2) 0.3335(2) -0.0694(2)
C151 C 0.0464(2) 0.3190(2) -0.07545(19)
C152 C 0.0418(2) 0.3169(2) -0.09118(19)
C153 C 0.0423(2) 0.3300(2) -0.1020(2)
C154 C 0.0481(3) 0.3456(2) -0.0963(2)
C155 C 0.0537(2) 0.3476(2) -0.0812(2)
C156 C 0.0377(3) 0.3266(3) -0.1207(2)
C157 C 0.1639(4) 0.2905(4) 0.0766(4)
C158 C 0.14217(16) 0.29445(19) 0.07151(19)
C159 C 0.13698(15) 0.31000(16) 0.06512(17)
C160 C 0.11819(17) 0.31320(13) 0.06125(14)
C161 C 0.10458(14) 0.30086(16) 0.06378(16)
C162 C 0.1098(2) 0.28531(15) 0.07017(18)
C163 C 0.1286(2) 0.28210(15) 0.07403(19)
C164 C 0.0762(2) 0.2925(2) 0.05120(18)
C165 C 0.0567(2) 0.2953(2) 0.04725(18)
C166 C 0.0309(2) 0.31338(19) 0.04921(17)
C167 C 0.0190(2) 0.30155(18) 0.04149(17)
C168 C 0.0270(2) 0.2864(2) 0.03669(19)
C169 C 0.0453(2) 0.2830(2) 0.03925(17)
C170 C -0.0020(2) 0.30526(18) 0.03900(17)
C171 C -0.0101(2) 0.3190(2) 0.0469(2)
C172 C -0.0390(2) 0.3128(2) 0.03490(19)
C173 C -0.0315(2) 0.2994(2) 0.0269(2)
C174 C -0.0123(2) 0.29573(19) 0.02882(17)
C175 C -0.0585(3) 0.3177(2) 0.0337(2)
C176 C -0.0834(2) 0.3367(2) 0.0416(3)
C177 C -0.0922(3) 0.3460(2) 0.0292(2)
C178 C -0.1109(3) 0.3511(2) 0.0312(2)
C179 C -0.1207(2) 0.3469(3) 0.0454(3)
C180 C -0.1119(4) 0.3376(4) 0.0577(3)
C181 C -0.0932(4) 0.3325(3) 0.0558(2)
C182 C -0.1421(6) 0.3526(6) 0.0410(5)
C183 C 0.1058(3) 0.4025(2) -0.0263(2)
C184 C 0.1051(2) 0.3844(2) -0.0330(2)
C185 C 0.0985(2) 0.3824(2) -0.0489(2)
C186 C 0.0974(2) 0.3663(2) -0.0554(2)
C187 C 0.1022(2) 0.3526(2) -0.04632(19)
C188 C 0.1088(2) 0.3553(2) -0.0305(2)
C189 C 0.1100(3) 0.3709(2) -0.0234(2)
C190 C 0.1018(2) 0.33105(16) -0.0654(2)
C191 C 0.0956(2) 0.31512(18) -0.0720(2)
C192 C 0.0786(2) 0.2908(2) -0.0651(2)
C193 C 0.0814(3) 0.2843(2) -0.0808(2)
C194 C 0.0909(2) 0.2950(2) -0.0927(2)
C195 C 0.0979(2) 0.3095(2) -0.0885(2)
C196 C 0.0712(3) 0.2686(2) -0.0863(2)
C197 C 0.0716(2) 0.2539(2) -0.0755(2)
C198 C 0.0542(3) 0.2392(2) -0.0926(2)
C199 C 0.0526(3) 0.2521(3) -0.1051(3)
C200 C 0.0629(3) 0.2667(2) -0.1013(2)
C201 C 0.0428(3) 0.2240(2) -0.0965(2)
C202 C 0.0355(3) 0.1960(2) -0.0895(2)
C203 C 0.0265(3) 0.1869(2) -0.0764(2)
C204 C 0.0167(3) 0.1714(3) -0.0796(3)
C205 C 0.0183(3) 0.1649(3) -0.0959(3)
C206 C 0.0245(4) 0.1744(3) -0.1087(3)
C207 C 0.0340(4) 0.1888(3) -0.1062(3)
C208 C 0.0076(5) 0.1466(4) -0.0977(4)
C209 C 0.1741(3) 0.2889(3) -0.0227(3)
C210 C 0.1529(3) 0.2912(2) -0.0234(2)
C211 C 0.1413(3) 0.2795(2) -0.0180(2)
C212 C 0.1215(3) 0.2825(3) -0.0186(2)
C213 C 0.1137(2) 0.2970(2) -0.02456(18)
C214 C 0.1256(3) 0.3086(3) -0.0308(2)
C215 C 0.1462(3) 0.3062(3) -0.0302(3)
C216 C 0.0833(2) 0.2912(2) -0.0161(2)
C217 C 0.06273(19) 0.29392(18) -0.01731(17)
C218 C 0.0376(2) 0.30579(19) -0.03087(18)
C219 C 0.0248(2) 0.29738(19) -0.02158(18)
C220 C 0.0315(3) 0.2865(2) -0.0091(2)
C221 C 0.0509(2) 0.2849(2) -0.00714(19)
C222 C 0.0047(2) 0.29959(19) -0.02370(18)
C223 C -0.0037(2) 0.3125(2) -0.03350(19)
C224 C -0.0345(3) 0.3038(2) -0.0295(2)
C225 C -0.0278(3) 0.2905(2) -0.0196(2)
C226 C -0.0092(2) 0.2875(2) -0.0165(2)
C227 C -0.0539(3) 0.3063(2) -0.0341(2)
C228 C -0.0780(2) 0.3195(2) -0.0470(2)
C229 C -0.0853(2) 0.33576(19) -0.0476(2)
C230 C -0.1041(3) 0.3383(2) -0.0517(2)
C231 C -0.1157(2) 0.3247(3) -0.0552(3)
C232 C -0.1084(3) 0.3084(2) -0.0546(3)
C233 C -0.0896(3) 0.30587(18) -0.0505(2)
C234 C -0.1375(5) 0.3266(5) -0.0582(5)
C235 C 0.1657(4) 0.2203(4) -0.0453(4)
C236 C 0.1442(4) 0.2222(4) -0.0467(3)
C237 C 0.1327(4) 0.2096(4) -0.0521(3)
C238 C 0.1129(3) 0.2087(3) -0.0518(3)
C239 C 0.1042(3) 0.2235(3) -0.0474(2)
C240 C 0.1150(3) 0.2374(3) -0.0428(2)
C241 C 0.1353(4) 0.2364(3) -0.0421(3)
C242 C 0.0761(2) 0.2305(2) -0.0355(2)
C243 C 0.0551(2) 0.2311(2) -0.0351(2)
C244 C 0.0279(2) 0.22613(19) -0.04905(19)
C245 C 0.0164(2) 0.2345(2) -0.03725(19)
C246 C 0.0254(2) 0.2416(2) -0.0238(2)
C247 C 0.0456(2) 0.2395(2) -0.0225(2)
C248 C -0.0049(2) 0.23623(18) -0.03939(17)
C249 C -0.0138(2) 0.2335(2) -0.0534(2)
C250 C -0.0431(3) 0.2396(2) -0.0425(2)
C251 C -0.0349(3) 0.2427(3) -0.0273(3)
C252 C -0.0155(3) 0.2412(2) -0.0257(2)
C253 C -0.0632(3) 0.2408(3) -0.0456(3)
C254 C -0.0995(3) 0.2374(4) -0.0724(3)
C255 C -0.1182(3) 0.2426(5) -0.0738(4)
C256 C -0.1253(3) 0.2547(4) -0.0631(4)
C257 C -0.1137(4) 0.2617(4) -0.0511(5)
C258 C -0.0950(4) 0.2566(4) -0.0498(4)
C259 C -0.0879(2) 0.2445(3) -0.0604(2)
C260 C -0.1453(3) 0.2599(6) -0.0645(6)
C261 C -0.0267(3) 0.1117(3) -0.0361(3)
C262 C -0.0315(3) 0.1224(3) -0.0204(3)
C263 C -0.0299(3) 0.1392(2) -0.0199(2)
C264 C -0.0339(2) 0.1487(2) -0.0079(2)
C265 C -0.0410(3) 0.1415(2) 0.0061(2)
C266 C -0.0450(3) 0.1247(2) 0.0068(2)
C267 C -0.0391(3) 0.1157(3) -0.0061(3)
C268 C -0.0470(2) 0.1482(2) 0.0344(2)
C269 C -0.0540(2) 0.1582(2) 0.0472(2)
C270 C -0.0677(3) 0.1839(2) 0.0544(2)
C271 C -0.0671(2) 0.1804(2) 0.0713(2)
C272 C -0.0600(3) 0.1651(2) 0.0754(2)
C273 C -0.0530(3) 0.1537(2) 0.0634(2)
C274 C -0.0733(2) 0.1926(2) 0.0831(2)
C275 C -0.0701(2) 0.2100(2) 0.0817(2)
C276 C -0.0849(3) 0.2168(2) 0.1062(2)
C277 C -0.0889(3) 0.1991(3) 0.1090(3)
C278 C -0.0833(3) 0.1870(3) 0.0979(2)
C279 C -0.0900(3) 0.2303(3) 0.1158(3)
C280 C -0.0903(3) 0.2587(3) 0.1237(3)
C281 C -0.0972(3) 0.2731(3) 0.1170(3)
C282 C -0.1043(4) 0.2863(4) 0.1253(4)
C283 C -0.1015(5) 0.2855(5) 0.1402(5)
C284 C -0.0939(4) 0.2716(4) 0.1501(4)
C285 C -0.0877(4) 0.2572(3) 0.1405(3)
C286 C -0.1102(5) 0.3017(4) 0.1542(4)
C287 C -0.1114(3) 0.1259(3) 0.0791(2)
C288 C -0.1063(3) 0.1341(2) 0.0626(2)
C289 C -0.1066(2) 0.1502(2) 0.0604(2)
C290 C -0.1022(2) 0.1581(2) 0.0457(2)
C291 C -0.0943(3) 0.1482(2) 0.0341(2)
C292 C -0.0924(2) 0.1307(2) 0.0359(2)
C293 C -0.0975(3) 0.1243(3) 0.0504(2)
C294 C -0.0912(2) 0.1486(2) 0.0045(2)
C295 C -0.0829(3) 0.1558(3) -0.0107(2)
C296 C -0.0646(3) 0.1772(2) -0.0219(2)
C297 C -0.0658(3) 0.1702(3) -0.0376(3)
C298 C -0.0762(3) 0.1549(3) -0.0393(3)
C299 C -0.0856(3) 0.1484(2) -0.0257(2)
C300 C -0.0554(3) 0.1769(2) -0.0516(2)
C301 C -0.0569(3) 0.1946(2) -0.0544(2)
C302 C -0.0361(3) 0.1925(3) -0.0762(2)
C303 C -0.0355(3) 0.1754(2) -0.0741(2)
C304 C -0.0455(3) 0.1684(3) -0.0613(2)
C305 C -0.0240(3) 0.2009(3) -0.0893(3)
C306 C -0.0143(3) 0.2244(3) -0.1037(3)
C307 C -0.0074(3) 0.2407(2) -0.1001(2)
H1 H -0.0086 0.2452 -0.0893
C308 C 0.0012(3) 0.2502(3) -0.1126(2)
H2 H 0.0064 0.2610 -0.1108
C309 C 0.0015(4) 0.2428(4) -0.1269(4)
C310 C -0.0054(4) 0.2268(4) -0.1321(4)
H3 H -0.0034 0.2224 -0.1428
C311 C -0.0159(4) 0.2177(4) -0.1189(3)
H4 H -0.0231 0.2078 -0.1210
C312 C 0.0134(4) 0.2529(4) -0.1428(4)
H5 H 0.0270 0.2515 -0.1413
H6 H 0.0102 0.2649 -0.1428
H7 H 0.0097 0.2479 -0.1534
C313 C -0.0347(3) 0.1708(3) 0.1346(3)
H8 H -0.0409 0.1688 0.1452
H9 H -0.0212 0.1683 0.1355
H10 H -0.0404 0.1634 0.1262
C314 C -0.0374(3) 0.1891(2) 0.1295(2)
C315 C -0.0439(3) 0.2006(3) 0.1397(3)
H11 H -0.0477 0.1973 0.1505
C316 C -0.0453(3) 0.2177(2) 0.1349(2)
H12 H -0.0484 0.2261 0.1429
C317 C -0.0422(2) 0.2222(2) 0.1188(2)
C318 C -0.0360(2) 0.2098(2) 0.1080(2)
H13 H -0.0339 0.2127 0.0968
C319 C -0.0329(3) 0.1941(2) 0.1126(2)
H14 H -0.0279 0.1862 0.1051
C320 C -0.0402(3) 0.2517(3) 0.1232(3)
H15 H -0.0330 0.2501 0.1330
C321 C -0.0462(3) 0.2682(3) 0.1174(3)
C322 C -0.0572(3) 0.2846(3) 0.0976(2)
H16 H -0.0625 0.2856 0.0868
C323 C -0.0534(3) 0.3000(3) 0.1063(3)
C324 C -0.0455(3) 0.2995(3) 0.1213(3)
H17 H -0.0427 0.3093 0.1275
C325 C -0.0416(3) 0.2825(3) 0.1272(3)
H18 H -0.0358 0.2810 0.1377
C326 C -0.0564(3) 0.3166(3) 0.0980(3)
C327 C -0.0524(3) 0.3207(3) 0.0827(3)
H19 H -0.0482 0.3118 0.0758
C328 C -0.0618(4) 0.3474(4) 0.0842(4)
C329 C -0.0657(5) 0.3456(5) 0.1021(5)
H20 H -0.0714 0.3546 0.1079
C330 C -0.0607(4) 0.3299(3) 0.1110(3)
H21 H -0.0603 0.3284 0.1227
C331 C -0.0608(4) 0.3654(4) 0.0787(4)
H22 H -0.0631 0.3747 0.0858
C332 C -0.0553(2) 0.38284(19) 0.0559(2)
C333 C -0.0478(3) 0.3961(3) 0.06497(17)
H23 H -0.0439 0.3943 0.0761
C334 C -0.0458(3) 0.4119(2) 0.0578(3)
H24 H -0.0407 0.4209 0.0640
C335 C -0.0515(3) 0.41441(18) 0.0416(3)
C336 C -0.0590(3) 0.4012(2) 0.03252(18)
H25 H -0.0628 0.4029 0.0214
C337 C -0.0609(2) 0.38539(19) 0.03969(19)
H26 H -0.0661 0.3763 0.0335
C338 C -0.0505(6) 0.4312(5) 0.0330(5)
H27 H -0.0597 0.4389 0.0381
H28 H -0.0535 0.4298 0.0213
H29 H -0.0378 0.4359 0.0342
C339 C -0.0012(3) 0.3512(3) 0.1337(3)
H30 H -0.0135 0.3499 0.1391
H31 H 0.0051 0.3613 0.1379
H32 H 0.0066 0.3413 0.1361
C340 C -0.0039(3) 0.3527(3) 0.1159(3)
C341 C -0.0054(3) 0.3687(3) 0.1081(2)
H33 H -0.0033 0.3785 0.1146
C342 C -0.0097(3) 0.3708(3) 0.0912(3)
H34 H -0.0103 0.3817 0.0865
C343 C -0.0132(3) 0.3558(2) 0.0809(2)
C344 C -0.0112(3) 0.3404(2) 0.0882(2)
H35 H -0.0130 0.3307 0.0815
C345 C -0.0064(3) 0.3378(3) 0.1051(2)
H36 H -0.0049 0.3268 0.1093
C346 C -0.0116(2) 0.3679(2) 0.05517(14)
H37 H -0.0025 0.3754 0.0595
N2 N -0.03029(14) 0.35785(11) 0.03304(13)
C347 C -0.03634(15) 0.35770(13) 0.01674(14)
H38 H -0.0452 0.3495 0.0132
C348 C -0.02937(18) 0.36951(16) 0.00566(10)
C349 C -0.01636(17) 0.38148(14) 0.01089(12)
H39 H -0.0116 0.3895 0.0033
C350 C -0.01032(15) 0.38163(13) 0.02719(14)
H40 H -0.0014 0.3898 0.0308
C351 C -0.01728(16) 0.36982(14) 0.03827(10)
C352 C -0.0347(3) 0.3686(3) -0.0124(2)
C353 C -0.0356(2) 0.3531(2) -0.0211(2)
H41 H -0.0335 0.3429 -0.0153
C354 C -0.0436(3) 0.3673(3) -0.0448(3)
C355 C -0.0425(3) 0.3828(3) -0.0366(3)
H42 H -0.0445 0.3928 -0.0428
C356 C -0.0384(3) 0.3842(3) -0.0197(3)
H43 H -0.0382 0.3946 -0.0139
C357 C -0.0473(4) 0.3642(4) -0.0630(3)
H44 H -0.0498 0.3736 -0.0700
C358 C -0.0506(2) 0.3469(2) -0.08546(16)
C359 C -0.0425(2) 0.35718(19) -0.0974(2)
H45 H -0.0347 0.3663 -0.0942
C360 C -0.0459(3) 0.3541(2) -0.1140(2)
H46 H -0.0403 0.3611 -0.1221
C361 C -0.0573(3) 0.3407(3) -0.11868(15)
C362 C -0.0654(2) 0.3305(2) -0.1068(2)
H47 H -0.0733 0.3213 -0.1100
C363 C -0.0621(2) 0.33353(18) -0.09016(18)
H48 H -0.0676 0.3265 -0.0820
C364 C -0.0568(5) 0.3342(5) -0.1369(5)
H49 H -0.0529 0.3224 -0.1370
H50 H -0.0478 0.3409 -0.1433
H51 H -0.0694 0.3352 -0.1418
C365 C 0.0244(5) 0.4040(5) -0.0358(5)
H52 H 0.0351 0.4009 -0.0288
H53 H 0.0146 0.4094 -0.0291
H54 H 0.0286 0.4119 -0.0444
C366 C 0.0160(3) 0.38753(18) -0.0444(3)
C367 C 0.0108(3) 0.38650(19) -0.0608(2)
H55 H 0.0127 0.3958 -0.0679
C368 C 0.0027(2) 0.3718(2) -0.06694(15)
H56 H -0.0008 0.3711 -0.0782
C369 C -0.0001(2) 0.35813(18) -0.05655(17)
C370 C 0.0051(2) 0.35916(17) -0.04006(16)
H57 H 0.0032 0.3498 -0.0330
C371 C 0.0131(2) 0.3739(2) -0.03396(17)
H58 H 0.0167 0.3746 -0.0227
C372 C -0.0044(3) 0.3367(2) -0.0759(3)
H59 H 0.0053 0.3419 -0.0823
C373 C -0.0135(3) 0.3221(2) -0.0828(3)
C374 C -0.0355(2) 0.3013(2) -0.0769(2)
H60 H -0.0447 0.2962 -0.0700
C375 C -0.0310(3) 0.2939(2) -0.0919(2)
C376 C -0.0172(3) 0.3016(3) -0.1025(3)
H61 H -0.0144 0.2968 -0.1130
C377 C -0.0086(3) 0.3153(2) -0.0974(2)
H62 H 0.0010 0.3203 -0.1040
C378 C -0.0398(2) 0.27722(14) -0.09736(19)
C379 C -0.04105(19) 0.26458(17) -0.08557(14)
H63 H -0.0361 0.2664 -0.0748
N3 N -0.04953(19) 0.24932(15) -0.08951(15)
C380 C -0.05677(19) 0.24671(15) -0.10523(17)
C381 C -0.0555(2) 0.2594(2) -0.11701(13)
H64 H -0.0605 0.2576 -0.1278
C382 C -0.0471(2) 0.27461(17) -0.11308(17)
H65 H -0.0462 0.2832 -0.1211
C383 C -0.0648(2) 0.23037(19) -0.1084(3)
H66 H -0.0700 0.2279 -0.1189
C384 C -0.0710(4) 0.2030(3) -0.1005(4)
C385 C -0.0669(3) 0.1955(3) -0.1156(3)
H67 H -0.0592 0.2013 -0.1234
C386 C -0.0740(3) 0.1797(3) -0.1193(2)
H68 H -0.0712 0.1746 -0.1296
C387 C -0.0852(3) 0.1713(3) -0.1078(3)
C388 C -0.0893(3) 0.1787(3) -0.0928(3)
H69 H -0.0969 0.1730 -0.0850
C389 C -0.0822(4) 0.1946(3) -0.0891(3)
H70 H -0.0850 0.1997 -0.0788
C390 C -0.0830(5) 0.1523(3) -0.1075(4)
H71 H -0.0875 0.1475 -0.1179
H72 H -0.0904 0.1476 -0.0984
H73 H -0.0696 0.1494 -0.1060
N4 N 0.05590(19) 0.13064(19) 0.02403(17)
N5 N 0.04769(18) 0.15341(15) 0.04669(17)
N6 N 0.03432(18) 0.20065(15) 0.09915(15)
N7 N 0.01996(18) 0.22364(16) 0.11958(14)
N8 N 0.01842(18) 0.14162(18) 0.01969(15)
N9 N 0.03957(18) 0.15338(16) -0.00443(16)
N10 N 0.0672(2) 0.19071(17) -0.06011(15)
N11 N 0.0838(2) 0.2071(2) -0.08522(16)
N12 N 0.06917(18) 0.17065(18) 0.02032(18)
N13 N 0.03265(18) 0.17967(13) 0.01983(14)
N14 N -0.04510(15) 0.19277(16) 0.01408(14)
N15 N -0.08170(18) 0.1976(2) 0.0160(2)
N16 N 0.0577(2) 0.21727(17) 0.12696(17)
N17 N 0.05592(16) 0.24808(16) 0.11490(14)
N18 N 0.05690(16) 0.31401(14) 0.08867(16)
N19 N 0.04777(18) 0.34363(14) 0.07415(16)
N20 N 0.06854(15) 0.22533(16) 0.08750(17)
N21 N 0.03287(16) 0.23457(15) 0.08304(14)
N22 N -0.04441(17) 0.24698(16) 0.07466(15)
N23 N -0.08057(19) 0.2540(2) 0.0727(3)
N24 N 0.0872(2) 0.34087(16) 0.08006(16)
N25 N 0.07113(15) 0.33769(17) -0.02125(18)
N26 N 0.05820(18) 0.33541(16) -0.05288(16)
N27 N 0.08520(16) 0.30336(17) 0.05944(15)
N28 N 0.04922(15) 0.31071(13) 0.05238(14)
N29 N -0.02859(19) 0.32258(15) 0.04518(18)
N30 N -0.06434(18) 0.3319(2) 0.0407(2)
N31 N 0.09774(19) 0.33607(17) -0.05179(15)
N32 N 0.08574(16) 0.30558(13) -0.06070(14)
N33 N 0.0625(2) 0.24014(17) -0.07941(16)
N34 N 0.0445(2) 0.21149(18) -0.08617(17)
N35 N 0.09429(16) 0.30077(15) -0.02475(15)
N36 N 0.05655(16) 0.30388(13) -0.02893(13)
N37 N -0.02176(17) 0.31490(15) -0.03652(16)
N38 N -0.05832(18) 0.3179(2) -0.04314(19)
N39 N 0.0834(2) 0.22444(17) -0.04810(17)
N40 N 0.0461(2) 0.22442(16) -0.04840(15)
N41 N -0.0323(2) 0.23494(18) -0.05531(18)
N42 N -0.0690(2) 0.2362(3) -0.0598(2)
N43 N -0.0483(2) 0.15277(17) 0.01910(16)
N44 N -0.06149(17) 0.17362(17) 0.04255(17)
N45 N -0.0748(2) 0.2216(2) 0.09187(18)
N46 N -0.0855(2) 0.2455(2) 0.1128(2)
N47 N -0.08828(18) 0.15576(16) 0.01863(16)
N48 N -0.0713(2) 0.16951(17) -0.00835(18)
N49 N -0.0465(2) 0.2017(2) -0.06716(18)
N50 N -0.0248(3) 0.2163(2) -0.09013(16)
N51 N -0.04587(19) 0.2385(2) 0.11345(17)
N52 N -0.05430(19) 0.27021(19) 0.10279(18)
N53 N -0.0537(2) 0.33592(19) 0.0756(2)
N54 N -0.0564(2) 0.36687(18) 0.0629(3)
N55 N -0.0185(2) 0.35653(16) 0.06462(18)
N56 N -0.0390(2) 0.35226(18) -0.03643(18)
N57 N -0.0471(2) 0.3496(2) -0.0691(2)
N58 N -0.0081(2) 0.34284(19) -0.0626(2)
N59 N -0.0271(2) 0.3152(2) -0.07225(17)
N60 N -0.0651(3) 0.2193(2) -0.0972(2)
Co1 Co 0.04449(3) 0.15538(3) 0.02090(3)
Co2 Co 0.04542(3) 0.22480(3) 0.10468(3)
Co3 Co 0.06822(3) 0.32466(3) 0.06641(3)
Co4 Co 0.07810(3) 0.31918(3) -0.03951(3)
Co5 Co 0.06498(4) 0.21601(3) -0.06664(3)
Co6 Co -0.06675(3) 0.17494(3) 0.01682(3)
Co7 Co -0.06479(3) 0.24640(3) 0.09385(3)
Co8 Co -0.04215(3) 0.34466(3) 0.05339(4)
Co9 Co -0.03440(3) 0.33191(3) -0.05246(3)
Co10 Co -0.04859(4) 0.22690(4) -0.07604(3)
loop_
_geom_bond_atom_site_label_1
_geom_bond_atom_site_label_2
_geom_bond_site_symmetry_1
_geom_bond_site_symmetry_2
C1 C2 1_555 1_555
C2 C3 1_555 1_555
C3 C4 1_555 1_555
C4 C5 1_555 1_555
C5 C6 1_555 1_555
C6 C7 1_555 1_555
C7 C2 1_555 1_555
C8 C9 1_555 1_555
C9 C13 1_555 1_555
C10 C11 1_555 1_555
C11 C12 1_555 1_555
C12 C13 1_555 1_555
C14 C11 1_555 1_555
C15 C14 1_555 1_555
C16 C17 1_555 1_555
C17 C18 1_555 1_555
C18 C14 1_555 1_555
C19 C16 1_555 1_555
C20 C21 1_555 1_555
C21 C22 1_555 1_555
C22 C23 1_555 1_555
C23 C24 1_555 1_555
C24 C25 1_555 1_555
C25 C20 1_555 1_555
C26 C23 1_555 1_555
C27 C28 1_555 1_555
C28 C29 1_555 1_555
C29 C30 1_555 1_555
C30 C31 1_555 1_555
C31 C32 1_555 1_555
C32 C33 1_555 1_555
C33 C28 1_555 1_555
C34 C35 1_555 1_555
C35 C39 1_555 1_555
C36 C37 1_555 1_555
C37 C38 1_555 1_555
C38 C39 1_555 1_555
C40 C37 1_555 1_555
C41 C40 1_555 1_555
C42 C43 1_555 1_555
C43 C44 1_555 1_555
C44 C40 1_555 1_555
C45 C42 1_555 1_555
C46 C47 1_555 1_555
C47 C48 1_555 1_555
C48 C49 1_555 1_555
C49 C50 1_555 1_555
C50 C51 1_555 1_555
C51 C46 1_555 1_555
C52 C49 1_555 1_555
C53 C54 1_555 1_555
C54 C55 1_555 1_555
C55 C56 1_555 1_555
C56 C57 1_555 1_555
C57 C58 1_555 1_555
C58 C59 1_555 1_555
C59 C54 1_555 1_555
C60 C61 1_555 1_555
C61 C65 1_555 1_555
C62 C63 1_555 1_555
C63 C64 1_555 1_555
C64 C65 1_555 1_555
C66 C63 1_555 1_555
C67 C66 1_555 1_555
C68 C69 1_555 1_555
C69 C70 1_555 1_555
C70 C66 1_555 1_555
C71 C68 1_555 1_555
C72 C73 1_555 1_555
C73 C74 1_555 1_555
C74 C75 1_555 1_555
C75 C76 1_555 1_555
C76 C77 1_555 1_555
C77 C72 1_555 1_555
C78 C75 1_555 1_555
C79 C80 1_555 1_555
C80 C81 1_555 1_555
C81 C82 1_555 1_555
C82 C83 1_555 1_555
C83 C84 1_555 1_555
C84 C85 1_555 1_555
C85 C80 1_555 1_555
C86 C87 1_555 1_555
C87 C91 1_555 1_555
C88 C89 1_555 1_555
C89 C90 1_555 1_555
C90 C91 1_555 1_555
C92 C89 1_555 1_555
C93 C92 1_555 1_555
C94 C95 1_555 1_555
C95 C96 1_555 1_555
C96 C92 1_555 1_555
C97 C94 1_555 1_555
C98 C99 1_555 1_555
C99 C100 1_555 1_555
C100 C101 1_555 1_555
C101 C102 1_555 1_555
C102 C103 1_555 1_555
C103 C98 1_555 1_555
C104 C101 1_555 1_555
C105 C106 1_555 1_555
C106 C107 1_555 1_555
C107 C108 1_555 1_555
C108 C109 1_555 1_555
C109 C110 1_555 1_555
C110 C111 1_555 1_555
C111 C106 1_555 1_555
C112 C113 1_555 1_555
C113 C117 1_555 1_555
C114 C115 1_555 1_555
C115 C116 1_555 1_555
C116 C117 1_555 1_555
C118 C115 1_555 1_555
C119 C118 1_555 1_555
C120 C121 1_555 1_555
C121 C122 1_555 1_555
C122 C118 1_555 1_555
C123 C120 1_555 1_555
C124 C125 1_555 1_555
C125 C126 1_555 1_555
C126 C127 1_555 1_555
C127 C128 1_555 1_555
C128 C129 1_555 1_555
C129 C124 1_555 1_555
C130 C127 1_555 1_555
C131 C132 1_555 1_555
C132 C133 1_555 1_555
C133 C134 1_555 1_555
C134 C135 1_555 1_555
C135 C136 1_555 1_555
C136 C137 1_555 1_555
C137 C132 1_555 1_555
C138 C143 1_555 1_555
N1 C139 1_555 1_555
C139 C140 1_555 1_555
C140 C141 1_555 1_555
C141 C142 1_555 1_555
C142 C143 1_555 1_555
C143 N1 1_555 1_555
C144 C140 1_555 1_555
C145 C144 1_555 1_555
C146 C147 1_555 1_555
C147 C148 1_555 1_555
C148 C144 1_555 1_555
C149 C146 1_555 1_555
C150 C151 1_555 1_555
C151 C152 1_555 1_555
C152 C153 1_555 1_555
C153 C154 1_555 1_555
C154 C155 1_555 1_555
C155 C150 1_555 1_555
C156 C153 1_555 1_555
C157 C158 1_555 1_555
C158 C159 1_555 1_555
C159 C160 1_555 1_555
C160 C161 1_555 1_555
C161 C162 1_555 1_555
C162 C163 1_555 1_555
C163 C158 1_555 1_555
C164 C165 1_555 1_555
C165 C169 1_555 1_555
C166 C167 1_555 1_555
C167 C168 1_555 1_555
C168 C169 1_555 1_555
C170 C167 1_555 1_555
C171 C170 1_555 1_555
C172 C173 1_555 1_555
C173 C174 1_555 1_555
C174 C170 1_555 1_555
C175 C172 1_555 1_555
C176 C177 1_555 1_555
C177 C178 1_555 1_555
C178 C179 1_555 1_555
C179 C180 1_555 1_555
C180 C181 1_555 1_555
C181 C176 1_555 1_555
C182 C179 1_555 1_555
C183 C184 1_555 1_555
C184 C185 1_555 1_555
C185 C186 1_555 1_555
C186 C187 1_555 1_555
C187 C188 1_555 1_555
C188 C189 1_555 1_555
C189 C184 1_555 1_555
C190 C191 1_555 1_555
C191 C195 1_555 1_555
C192 C193 1_555 1_555
C193 C194 1_555 1_555
C194 C195 1_555 1_555
C196 C193 1_555 1_555
C197 C196 1_555 1_555
C198 C199 1_555 1_555
C199 C200 1_555 1_555
C200 C196 1_555 1_555
C201 C198 1_555 1_555
C202 C203 1_555 1_555
C203 C204 1_555 1_555
C204 C205 1_555 1_555
C205 C206 1_555 1_555
C206 C207 1_555 1_555
C207 C202 1_555 1_555
C208 C205 1_555 1_555
C209 C210 1_555 1_555
C210 C211 1_555 1_555
C211 C212 1_555 1_555
C212 C213 1_555 1_555
C213 C214 1_555 1_555
C214 C215 1_555 1_555
C215 C210 1_555 1_555
C216 C217 1_555 1_555
C217 C221 1_555 1_555
C218 C219 1_555 1_555
C219 C220 1_555 1_555
C220 C221 1_555 1_555
C222 C219 1_555 1_555
C223 C222 1_555 1_555
C224 C225 1_555 1_555
C225 C226 1_555 1_555
C226 C222 1_555 1_555
C227 C224 1_555 1_555
C228 C229 1_555 1_555
C229 C230 1_555 1_555
C230 C231 1_555 1_555
C231 C232 1_555 1_555
C232 C233 1_555 1_555
C233 C228 1_555 1_555
C234 C231 1_555 1_555
C235 C236 1_555 1_555
C236 C237 1_555 1_555
C237 C238 1_555 1_555
C238 C239 1_555 1_555
C239 C240 1_555 1_555
C240 C241 1_555 1_555
C241 C236 1_555 1_555
C242 C243 1_555 1_555
C243 C247 1_555 1_555
C244 C245 1_555 1_555
C245 C246 1_555 1_555
C246 C247 1_555 1_555
C248 C245 1_555 1_555
C249 C248 1_555 1_555
C250 C251 1_555 1_555
C251 C252 1_555 1_555
C252 C248 1_555 1_555
C253 C250 1_555 1_555
C254 C255 1_555 1_555
C255 C256 1_555 1_555
C256 C257 1_555 1_555
C257 C258 1_555 1_555
C258 C259 1_555 1_555
C259 C254 1_555 1_555
C260 C256 1_555 1_555
C261 C262 1_555 1_555
C262 C263 1_555 1_555
C263 C264 1_555 1_555
C264 C265 1_555 1_555
C265 C266 1_555 1_555
C266 C267 1_555 1_555
C267 C262 1_555 1_555
C268 C269 1_555 1_555
C269 C273 1_555 1_555
C270 C271 1_555 1_555
C271 C272 1_555 1_555
C272 C273 1_555 1_555
C274 C271 1_555 1_555
C275 C274 1_555 1_555
C276 C277 1_555 1_555
C277 C278 1_555 1_555
C278 C274 1_555 1_555
C279 C276 1_555 1_555
C280 C281 1_555 1_555
C281 C282 1_555 1_555
C282 C283 1_555 1_555
C283 C284 1_555 1_555
C284 C285 1_555 1_555
C285 C280 1_555 1_555
C286 C283 1_555 1_555
C287 C288 1_555 1_555
C288 C289 1_555 1_555
C289 C290 1_555 1_555
C290 C291 1_555 1_555
C291 C292 1_555 1_555
C292 C293 1_555 1_555
C293 C288 1_555 1_555
C294 C295 1_555 1_555
C295 C299 1_555 1_555
C296 C297 1_555 1_555
C297 C298 1_555 1_555
C298 C299 1_555 1_555
C300 C297 1_555 1_555
C301 C300 1_555 1_555
C302 C303 1_555 1_555
C303 C304 1_555 1_555
C304 C300 1_555 1_555
C305 C302 1_555 1_555
C306 C307 1_555 1_555
C307 H1 1_555 1_555
C308 C307 1_555 1_555
H2 C308 1_555 1_555
C309 C308 1_555 1_555
C310 C309 1_555 1_555
H3 C310 1_555 1_555
C311 C306 1_555 1_555
H4 C311 1_555 1_555
C312 C309 1_555 1_555
H5 C312 1_555 1_555
H6 C312 1_555 1_555
H7 C312 1_555 1_555
C313 H8 1_555 1_555
H9 C313 1_555 1_555
H10 C313 1_555 1_555
C314 C313 1_555 1_555
C315 C314 1_555 1_555
H11 C315 1_555 1_555
C316 C315 1_555 1_555
H12 C316 1_555 1_555
C317 C316 1_555 1_555
C318 C317 1_555 1_555
H13 C318 1_555 1_555
C319 C314 1_555 1_555
H14 C319 1_555 1_555
C320 H15 1_555 1_555
C321 C320 1_555 1_555
C322 H16 1_555 1_555
C323 C322 1_555 1_555
C324 C323 1_555 1_555
H17 C324 1_555 1_555
C325 C321 1_555 1_555
H18 C325 1_555 1_555
C326 C323 1_555 1_555
C327 C326 1_555 1_555
H19 C327 1_555 1_555
C328 C329 1_555 1_555
C329 H20 1_555 1_555
C330 C326 1_555 1_555
H21 C330 1_555 1_555
C331 C328 1_555 1_555
H22 C331 1_555 1_555
C332 C333 1_555 1_555
C333 H23 1_555 1_555
C334 C333 1_555 1_555
H24 C334 1_555 1_555
C335 C334 1_555 1_555
C336 C335 1_555 1_555
H25 C336 1_555 1_555
C337 C332 1_555 1_555
H26 C337 1_555 1_555
C338 C335 1_555 1_555
H27 C338 1_555 1_555
H28 C338 1_555 1_555
H29 C338 1_555 1_555
C339 H30 1_555 1_555
H31 C339 1_555 1_555
H32 C339 1_555 1_555
C340 C339 1_555 1_555
C341 C340 1_555 1_555
H33 C341 1_555 1_555
C342 C341 1_555 1_555
H34 C342 1_555 1_555
C343 C342 1_555 1_555
C344 C343 1_555 1_555
H35 C344 1_555 1_555
C345 C340 1_555 1_555
H36 C345 1_555 1_555
C346 H37 1_555 1_555
N2 C347 1_555 1_555
C347 H38 1_555 1_555
C348 C347 1_555 1_555
C349 C348 1_555 1_555
H39 C349 1_555 1_555
C350 C349 1_555 1_555
H40 C350 1_555 1_555
C351 C346 1_555 1_555
C352 C348 1_555 1_555
C353 C352 1_555 1_555
H41 C353 1_555 1_555
C354 C355 1_555 1_555
C355 H42 1_555 1_555
C356 C352 1_555 1_555
H43 C356 1_555 1_555
C357 C354 1_555 1_555
H44 C357 1_555 1_555
C358 C359 1_555 1_555
C359 H45 1_555 1_555
C360 C359 1_555 1_555
H46 C360 1_555 1_555
C361 C360 1_555 1_555
C362 C361 1_555 1_555
H47 C362 1_555 1_555
C363 C358 1_555 1_555
H48 C363 1_555 1_555
C364 C361 1_555 1_555
H49 C364 1_555 1_555
H50 C364 1_555 1_555
H51 C364 1_555 1_555
C365 H52 1_555 1_555
H53 C365 1_555 1_555
H54 C365 1_555 1_555
C366 C365 1_555 1_555
C367 C366 1_555 1_555
H55 C367 1_555 1_555
C368 C367 1_555 1_555
H56 C368 1_555 1_555
C369 C368 1_555 1_555
C370 C369 1_555 1_555
H57 C370 1_555 1_555
C371 C366 1_555 1_555
H58 C371 1_555 1_555
C372 H59 1_555 1_555
C373 C372 1_555 1_555
C374 H60 1_555 1_555
C375 C374 1_555 1_555
C376 C375 1_555 1_555
H61 C376 1_555 1_555
C377 C373 1_555 1_555
H62 C377 1_555 1_555
C378 C375 1_555 1_555
C379 C378 1_555 1_555
H63 C379 1_555 1_555
N3 C379 1_555 1_555
C380 N3 1_555 1_555
C381 C380 1_555 1_555
H64 C381 1_555 1_555
C382 C378 1_555 1_555
H65 C382 1_555 1_555
C383 C380 1_555 1_555
H66 C383 1_555 1_555
C384 C385 1_555 1_555
C385 H67 1_555 1_555
C386 C385 1_555 1_555
H68 C386 1_555 1_555
C387 C386 1_555 1_555
C388 C387 1_555 1_555
H69 C388 1_555 1_555
C389 C384 1_555 1_555
H70 C389 1_555 1_555
C390 C387 1_555 1_555
H71 C390 1_555 1_555
H72 C390 1_555 1_555
H73 C390 1_555 1_555
C391 F45 1_555 1_555
C392 F48 1_555 1_555
C393 F51 1_555 1_555
C394 F54 1_555 1_555
C395 C396 1_555 1_555
C396 H74 1_555 1_555
H75 C396 1_555 1_555
H76 C396 1_555 1_555
C397 C398 1_555 1_555
C398 H77 1_555 1_555
H78 C398 1_555 1_555
H79 C398 1_555 1_555
C399 C400 1_555 1_555
C400 H80 1_555 1_555
H81 C400 1_555 1_555
H82 C400 1_555 1_555
C401 C402 1_555 1_555
C402 H83 1_555 1_555
H84 C402 1_555 1_555
H85 C402 1_555 1_555
C403 C404 1_555 1_555
C404 H86 1_555 1_555
H87 C404 1_555 1_555
H88 C404 1_555 1_555
N4 C5 1_555 1_555
N5 C9 1_555 1_555
N6 C15 1_555 1_555
N7 C19 1_555 1_555
N8 C31 1_555 1_555
N9 C35 1_555 1_555
N10 C41 1_555 1_555
N11 C45 1_555 1_555
N12 C57 1_555 1_555
N13 C61 1_555 1_555
N14 C67 1_555 1_555
N15 C71 1_555 1_555
N16 C83 1_555 1_555
N17 C87 1_555 1_555
N18 C93 1_555 1_555
N19 C97 1_555 1_555
N20 C109 1_555 1_555
N21 C113 1_555 1_555
N22 C119 1_555 1_555
N23 C123 1_555 1_555
N24 C135 1_555 1_555
N25 C145 1_555 1_555
N26 C149 1_555 1_555
N27 C161 1_555 1_555
N28 C165 1_555 1_555
N29 C171 1_555 1_555
N30 C175 1_555 1_555
N31 C187 1_555 1_555
N32 C191 1_555 1_555
N33 C197 1_555 1_555
N34 C201 1_555 1_555
N35 C213 1_555 1_555
N36 C217 1_555 1_555
N37 C223 1_555 1_555
N38 C227 1_555 1_555
N39 C239 1_555 1_555
N40 C243 1_555 1_555
N41 C249 1_555 1_555
N42 C253 1_555 1_555
N43 C265 1_555 1_555
N44 C269 1_555 1_555
N45 C275 1_555 1_555
N46 C279 1_555 1_555
N47 C291 1_555 1_555
N48 C295 1_555 1_555
N49 C301 1_555 1_555
N50 C305 1_555 1_555
N51 C317 1_555 1_555
N52 C321 1_555 1_555
N53 C327 1_555 1_555
N54 C331 1_555 1_555
N55 C343 1_555 1_555
N56 C353 1_555 1_555
N57 C357 1_555 1_555
N58 C369 1_555 1_555
N59 C373 1_555 1_555
N60 C383 1_555 1_555
N61 S2 1_555 1_555
N62 C399 1_555 1_555
N63 S4 1_555 1_555
N64 C397 1_555 1_555
N65 C401 1_555 1_555
N66 C395 1_555 1_555
N67 C403 1_555 1_555
F1 P2 1_555 1_555
F2 P2 1_555 1_555
F3 P2 1_555 1_555
F4 P2 1_555 1_555
F5 P2 1_555 1_555
F6 P2 1_555 1_555
F7 P3 1_555 1_555
F8 P3 1_555 1_555
F9 P3 1_555 1_555
F10 P3 1_555 1_555
F11 P3 1_555 1_555
F12 P3 1_555 1_555
F13 P5 1_555 1_555
F14 P5 1_555 1_555
F15 P5 1_555 1_555
F16 P5 1_555 1_555
F17 P5 1_555 1_555
F18 P5 1_555 1_555
F28 P6 1_555 1_555
F29 P6 1_555 1_555
F30 P6 1_555 1_555
F31 P6 1_555 1_555
F32 P6 1_555 1_555
F33 P6 1_555 1_555
F34 P4 1_555 1_555
F35 P4 1_555 1_555
F36 P4 1_555 1_555
F37 P4 1_555 1_555
F38 P4 1_555 1_555
F39 P4 1_555 1_555
F40 P7 1_555 1_555
F41 P7 1_555 1_555
F42 P7 1_555 1_555
F43 P7 1_555 1_555
F44 P7 1_555 1_555
F46 C391 1_555 1_555
F47 C391 1_555 1_555
F49 C392 1_555 1_555
F50 C392 1_555 1_555
F52 C393 1_555 1_555
F53 C393 1_555 1_555
F55 C394 1_555 1_555
F56 C394 1_555 1_555
F57 P7 1_555 1_555
F58 P8 1_555 1_555
F59 P8 1_555 1_555
F60 P8 1_555 1_555
P8 F58C 1_555 1_555
Co1 N4 1_555 1_555
Co2 N6 1_555 1_555
Co3 N1 1_555 1_555
Co4 N25 1_555 1_555
Co5 N10 1_555 1_555
Co6 N14 1_555 1_555
Co7 N22 1_555 1_555
Co8 N2 1_555 1_555
Co9 N37 1_555 1_555
Co10 N3 1_555 1_555
S2 C391 1_555 1_555
S3 C392 1_555 1_555
S4 C393 1_555 1_555
S5 C394 1_555 1_555
O4 S2 1_555 1_555
O5 S2 1_555 1_555
O6 S3 1_555 1_555
O7 S3 1_555 1_555
O8 S4 1_555 1_555
O9 S4 1_555 1_555
O10 S5 1_555 1_555
O11 S5 1_555 1_555
S7 C407 1_555 1_555
C407 F64 1_555 1_555
O14 S7 1_555 1_555
O15 S7 1_555 1_555
O16 S7 1_555 1_555
F65 C407 1_555 1_555
F66 C407 1_555 1_555
F67 C409 1_555 1_555
F68 C409 1_555 1_555
F69 C409 1_555 1_555
S8 O19 1_555 1_555
S9 O17 1_555 1_555
O18 S9 1_555 1_555
O20 S8 1_555 1_555
F70 C408 1_555 1_555
C408 S8 1_555 1_555
F71 C408 1_555 1_555
C409 S9 1_555 1_555
F72 C408 1_555 1_555
N69 S8 1_555 1_555
F59C P8 1_555 1_555
F60C P8 1_555 1_555
C8 N4 1_555 1_555
C10 N5 1_555 1_555
C16 N6 1_555 1_555
C20 N7 1_555 1_555
C34 N8 1_555 1_555
C36 N9 1_555 1_555
C42 N10 1_555 1_555
C46 N11 1_555 1_555
C60 N12 1_555 1_555
C62 N13 1_555 1_555
C68 N14 1_555 1_555
C72 N15 1_555 1_555
C86 N16 1_555 1_555
C88 N17 1_555 1_555
C94 N18 1_555 1_555
C98 N19 1_555 1_555
C112 N20 1_555 1_555
C114 N21 1_555 1_555
C120 N22 1_555 1_555
C124 N23 1_555 1_555
C138 N24 1_555 1_555
C146 N25 1_555 1_555
C150 N26 1_555 1_555
C164 N27 1_555 1_555
C166 N28 1_555 1_555
C172 N29 1_555 1_555
C176 N30 1_555 1_555
C190 N31 1_555 1_555
C192 N32 1_555 1_555
C198 N33 1_555 1_555
C202 N34 1_555 1_555
C216 N35 1_555 1_555
C218 N36 1_555 1_555
C224 N37 1_555 1_555
C228 N38 1_555 1_555
C242 N39 1_555 1_555
C244 N40 1_555 1_555
C250 N41 1_555 1_555
C259 N42 1_555 1_555
C268 N43 1_555 1_555
C270 N44 1_555 1_555
C276 N45 1_555 1_555
C280 N46 1_555 1_555
C294 N47 1_555 1_555
C296 N48 1_555 1_555
C302 N49 1_555 1_555
C306 N50 1_555 1_555
C310 C311 1_555 1_555
C318 C319 1_555 1_555
C320 N51 1_555 1_555
C322 N52 1_555 1_555
C324 C325 1_555 1_555
C328 N53 1_555 1_555
C329 C330 1_555 1_555
C332 N54 1_555 1_555
C336 C337 1_555 1_555
C344 C345 1_555 1_555
C346 N55 1_555 1_555
N2 C351 1_555 1_555
C350 C351 1_555 1_555
C354 N56 1_555 1_555
C355 C356 1_555 1_555
C358 N57 1_555 1_555
C362 C363 1_555 1_555
C370 C371 1_555 1_555
C372 N58 1_555 1_555
C374 N59 1_555 1_555
C376 C377 1_555 1_555
C381 C382 1_555 1_555
C384 N60 1_555 1_555
C388 C389 1_555 1_555
N5 Co1 1_555 1_555
N7 Co2 1_555 1_555
N8 Co1 1_555 1_555
N9 Co1 1_555 1_555
N11 Co5 1_555 1_555
N12 Co1 1_555 1_555
N13 Co1 1_555 1_555
N15 Co6 1_555 1_555
N16 Co2 1_555 1_555
N17 Co2 1_555 1_555
N18 Co3 1_555 1_555
N19 Co3 1_555 1_555
N20 Co2 1_555 1_555
N21 Co2 1_555 1_555
N23 Co7 1_555 1_555
N24 Co3 1_555 1_555
N26 Co4 1_555 1_555
N27 Co3 1_555 1_555
N28 Co3 1_555 1_555
N29 Co8 1_555 1_555
N30 Co8 1_555 1_555
N31 Co4 1_555 1_555
N32 Co4 1_555 1_555
N33 Co5 1_555 1_555
N34 Co5 1_555 1_555
N35 Co4 1_555 1_555
N36 Co4 1_555 1_555
N38 Co9 1_555 1_555
N39 Co5 1_555 1_555
N40 Co5 1_555 1_555
N41 Co10 1_555 1_555
N42 Co10 1_555 1_555
N43 Co6 1_555 1_555
N44 Co6 1_555 1_555
N45 Co7 1_555 1_555
N46 Co7 1_555 1_555
N47 Co6 1_555 1_555
N48 Co6 1_555 1_555
N49 Co10 1_555 1_555
N50 Co10 1_555 1_555
N51 Co7 1_555 1_555
N52 Co7 1_555 1_555
N53 Co8 1_555 1_555
N54 Co8 1_555 1_555
N55 Co8 1_555 1_555
N56 Co9 1_555 1_555
N57 Co9 1_555 1_555
N58 Co9 1_555 1_555
N59 Co9 1_555 1_555
N60 Co10 1_555 1_555
N61 S3 1_555 1_555
N63 S5 1_555 1_555
S9 N69 1_555 1_555

#END
