# generated using pymatgen
data_Co20P15H176C818S18N138Cl2(O5F18)8
_symmetry_space_group_name_H-M   'P 1'
_cell_length_a   53.21738002
_cell_length_b   53.21738002
_cell_length_c   53.82590682
_cell_angle_alpha   115.91115765
_cell_angle_beta   115.91115765
_cell_angle_gamma   96.66434400
_symmetry_Int_Tables_number   1
_chemical_formula_structural   Co20P15H176C818S18N138Cl2(O5F18)8
_chemical_formula_sum   'Co80 P60 H704 C3272 S72 N552 Cl8 O160 F576'
_cell_volume   114107.45004659
_cell_formula_units_Z   4
loop_
 _symmetry_equiv_pos_site_id
 _symmetry_equiv_pos_as_xyz
  1  'x, y, z'
loop_
 _atom_site_type_symbol
 _atom_site_label
 _atom_site_symmetry_multiplicity
 _atom_site_fract_x
 _atom_site_fract_y
 _atom_site_fract_z
 _atom_site_occupancy
  C  C1  1  0.013500  0.061700  0.855000  1
  C  C2  1  0.341500  0.793300  0.855000  1
  C  C3  1  0.438300  0.486500  0.645000  1
  C  C4  1  0.706700  0.158500  0.645000  1
  C  C5  1  0.986500  0.938300  0.145000  1
  C  C6  1  0.658500  0.206700  0.145000  1
  C  C7  1  0.561700  0.513500  0.355000  1
  C  C8  1  0.293300  0.841500  0.355000  1
  C  C9  1  0.913300  0.075500  0.813600  1
  C  C10  1  0.400300  0.738100  0.813600  1
  C  C11  1  0.424500  0.586700  0.686400  1
  C  C12  1  0.761900  0.099700  0.686400  1
  C  C13  1  0.086700  0.924500  0.186400  1
  C  C14  1  0.599700  0.261900  0.186400  1
  C  C15  1  0.575500  0.413300  0.313600  1
  C  C16  1  0.238100  0.900300  0.313600  1
  C  C17  1  0.500800  0.184200  0.994600  1
  C  C18  1  0.993800  0.810400  0.994600  1
  C  C19  1  0.315800  0.999200  0.505400  1
  C  C20  1  0.689600  0.506200  0.505400  1
  C  C21  1  0.499200  0.815800  0.005400  1
  C  C22  1  0.006200  0.189600  0.005400  1
  C  C23  1  0.684200  0.000800  0.494600  1
  C  C24  1  0.310400  0.493800  0.494600  1
  C  C25  1  0.429600  0.156600  0.882800  1
  C  C26  1  0.953200  0.726200  0.882800  1
  C  C27  1  0.343400  0.070400  0.617200  1
  C  C28  1  0.773800  0.546800  0.617200  1
  C  C29  1  0.570400  0.843400  0.117200  1
  C  C30  1  0.046800  0.273800  0.117200  1
  C  C31  1  0.656600  0.929600  0.382800  1
  C  C32  1  0.226200  0.453200  0.382800  1
  C  C33  1  0.714100  0.113300  0.024800  1
  C  C34  1  0.810700  0.911500  0.024800  1
  C  C35  1  0.386700  0.785900  0.475200  1
  C  C36  1  0.588500  0.689300  0.475200  1
  C  C37  1  0.285900  0.886700  0.975200  1
  C  C38  1  0.189300  0.088500  0.975200  1
  C  C39  1  0.613300  0.214100  0.524800  1
  C  C40  1  0.411500  0.310700  0.524800  1
  C  C41  1  0.683300  0.091700  0.012200  1
  C  C42  1  0.828900  0.920500  0.012200  1
  C  C43  1  0.408300  0.816700  0.487800  1
  C  C44  1  0.579500  0.671100  0.487800  1
  C  C45  1  0.316700  0.908300  0.987800  1
  C  C46  1  0.171100  0.079500  0.987800  1
  C  C47  1  0.591700  0.183300  0.512200  1
  C  C48  1  0.420500  0.328900  0.512200  1
  C  C49  1  0.761300  0.410100  0.009600  1
  C  C50  1  0.748300  0.599500  0.009600  1
  C  C51  1  0.089900  0.738700  0.490400  1
  C  C52  1  0.900500  0.751700  0.490400  1
  C  C53  1  0.238700  0.589900  0.990400  1
  C  C54  1  0.251700  0.400500  0.990400  1
  C  C55  1  0.910100  0.261300  0.509600  1
  C  C56  1  0.099500  0.248300  0.509600  1
  C  C57  1  0.787100  0.428900  0.011600  1
  C  C58  1  0.724500  0.582700  0.011600  1
  C  C59  1  0.071100  0.712900  0.488400  1
  C  C60  1  0.917300  0.775500  0.488400  1
  C  C61  1  0.212900  0.571100  0.988400  1
  C  C62  1  0.275500  0.417300  0.988400  1
  C  C63  1  0.928900  0.287100  0.511600  1
  C  C64  1  0.082700  0.224500  0.511600  1
  C  C65  1  0.568900  0.171700  0.959800  1
  C  C66  1  0.890900  0.788100  0.959800  1
  C  C67  1  0.328300  0.931100  0.540200  1
  C  C68  1  0.711900  0.609100  0.540200  1
  C  C69  1  0.431100  0.828300  0.040200  1
  C  C70  1  0.109100  0.211900  0.040200  1
  C  C71  1  0.671700  0.068900  0.459800  1
  C  C72  1  0.288100  0.390900  0.459800  1
  C  C73  1  0.550900  0.146500  0.956400  1
  C  C74  1  0.905500  0.809900  0.956400  1
  C  C75  1  0.353500  0.949100  0.543600  1
  C  C76  1  0.690100  0.594500  0.543600  1
  C  C77  1  0.449100  0.853500  0.043600  1
  C  C78  1  0.094500  0.190100  0.043600  1
  C  C79  1  0.646500  0.050900  0.456400  1
  C  C80  1  0.309900  0.405500  0.456400  1
  C  C81  1  0.660400  0.062600  0.900800  1
  C  C82  1  0.740400  0.838200  0.900800  1
  C  C83  1  0.437400  0.839600  0.599200  1
  C  C84  1  0.661800  0.759600  0.599200  1
  C  C85  1  0.339600  0.937400  0.099200  1
  C  C86  1  0.259600  0.161800  0.099200  1
  C  C87  1  0.562600  0.160400  0.400800  1
  C  C88  1  0.338200  0.240400  0.400800  1
  C  C89  1  0.637600  0.043400  0.898000  1
  C  C90  1  0.760400  0.854600  0.898000  1
  C  C91  1  0.456600  0.862400  0.602000  1
  C  C92  1  0.645400  0.739600  0.602000  1
  C  C93  1  0.362400  0.956600  0.102000  1
  C  C94  1  0.239600  0.145400  0.102000  1
  C  C95  1  0.543400  0.137600  0.398000  1
  C  C96  1  0.354600  0.260400  0.398000  1
  C  C97  1  0.896500  0.333500  0.039400  1
  C  C98  1  0.642900  0.705900  0.039400  1
  C  C99  1  0.166500  0.603500  0.460600  1
  C  C100  1  0.794100  0.857100  0.460600  1
  C  C101  1  0.103500  0.666500  0.960600  1
  C  C102  1  0.357100  0.294100  0.960600  1
  C  C103  1  0.833500  0.396500  0.539400  1
  C  C104  1  0.205900  0.142900  0.539400  1
  C  C105  1  0.913800  0.357200  0.037600  1
  C  C106  1  0.623800  0.680400  0.037600  1
  C  C107  1  0.142800  0.586200  0.462400  1
  C  C108  1  0.819600  0.876200  0.462400  1
  C  C109  1  0.086200  0.642800  0.962400  1
  C  C110  1  0.376200  0.319600  0.962400  1
  C  C111  1  0.857200  0.413800  0.537600  1
  C  C112  1  0.180400  0.123800  0.537600  1
  C  C113  1  0.533700  0.225700  0.663400  1
  C  C114  1  0.629700  0.437700  0.663400  1
  C  C115  1  0.274300  0.966300  0.836600  1
  C  C116  1  0.062300  0.870300  0.836600  1
  C  C117  1  0.466300  0.774300  0.336600  1
  C  C118  1  0.370300  0.562300  0.336600  1
  C  C119  1  0.725700  0.033700  0.163400  1
  C  C120  1  0.937700  0.129700  0.163400  1
  C  C121  1  0.816800  0.392400  0.298800  1
  C  C122  1  0.982000  0.906400  0.298800  1
  C  C123  1  0.107600  0.683200  0.201200  1
  C  C124  1  0.593600  0.518000  0.201200  1
  C  C125  1  0.183200  0.607600  0.701200  1
  C  C126  1  0.018000  0.093600  0.701200  1
  C  C127  1  0.892400  0.316800  0.798800  1
  C  C128  1  0.406400  0.482000  0.798800  1
  C  C129  1  0.725600  0.337000  0.284000  1
  C  C130  1  0.058400  0.947000  0.284000  1
  C  C131  1  0.163000  0.774400  0.216000  1
  C  C132  1  0.553000  0.441600  0.216000  1
  C  C133  1  0.274400  0.663000  0.716000  1
  C  C134  1  0.941600  0.053000  0.716000  1
  C  C135  1  0.837000  0.225600  0.784000  1
  C  C136  1  0.447000  0.558400  0.784000  1
  C  C137  1  0.872600  0.040000  0.057600  1
  C  C138  1  0.685000  0.017600  0.057600  1
  C  C139  1  0.460000  0.627400  0.442400  1
  C  C140  1  0.482400  0.815000  0.442400  1
  C  C141  1  0.127400  0.960000  0.942400  1
  C  C142  1  0.315000  0.982400  0.942400  1
  C  C143  1  0.540000  0.372600  0.557600  1
  C  C144  1  0.517600  0.185000  0.557600  1
  C  C145  1  0.852800  0.042600  0.028400  1
  C  C146  1  0.675600  0.985800  0.028400  1
  C  C147  1  0.457400  0.647200  0.471600  1
  C  C148  1  0.514200  0.824400  0.471600  1
  C  C149  1  0.147200  0.957400  0.971600  1
  C  C150  1  0.324400  0.014200  0.971600  1
  C  C151  1  0.542600  0.352800  0.528400  1
  C  C152  1  0.485800  0.175600  0.528400  1
  C  C153  1  0.854610  0.035190  0.001200  1
  C  C154  1  0.646590  0.966010  0.001200  1
  C  C155  1  0.464810  0.645390  0.498800  1
  C  C156  1  0.533990  0.853410  0.498800  1
  C  C157  1  0.145390  0.964810  0.998800  1
  C  C158  1  0.353410  0.033990  0.998800  1
  C  C159  1  0.535190  0.354610  0.501200  1
  C  C160  1  0.466010  0.146590  0.501200  1
  C  C161  1  0.833870  0.037670  0.976140  1
  C  C162  1  0.642270  0.938470  0.976140  1
  C  C163  1  0.462330  0.666130  0.523860  1
  C  C164  1  0.561530  0.857730  0.523860  1
  C  C165  1  0.166130  0.962330  0.023860  1
  C  C166  1  0.357730  0.061530  0.023860  1
  C  C167  1  0.537670  0.333870  0.476140  1
  C  C168  1  0.438470  0.142270  0.476140  1
  C  C169  1  0.811470  0.047510  0.978380  1
  C  C170  1  0.666910  0.930870  0.978380  1
  C  C171  1  0.452490  0.688530  0.521620  1
  C  C172  1  0.569130  0.833090  0.521620  1
  C  C173  1  0.188530  0.952490  0.021620  1
  C  C174  1  0.333090  0.069130  0.021620  1
  C  C175  1  0.547510  0.311470  0.478380  1
  C  C176  1  0.430870  0.166910  0.478380  1
  C  C177  1  0.809710  0.054890  0.005600  1
  C  C178  1  0.695890  0.950710  0.005600  1
  C  C179  1  0.445110  0.690290  0.494400  1
  C  C180  1  0.549290  0.804110  0.494400  1
  C  C181  1  0.190290  0.945110  0.994400  1
  C  C182  1  0.304110  0.049290  0.994400  1
  C  C183  1  0.554890  0.309710  0.505600  1
  C  C184  1  0.450710  0.195890  0.505600  1
  C  C185  1  0.830390  0.052390  0.030580  1
  C  C186  1  0.700190  0.978190  0.030580  1
  C  C187  1  0.447610  0.669610  0.469420  1
  C  C188  1  0.521810  0.799810  0.469420  1
  C  C189  1  0.169610  0.947610  0.969420  1
  C  C190  1  0.299810  0.021810  0.969420  1
  C  C191  1  0.552390  0.330390  0.530580  1
  C  C192  1  0.478190  0.200190  0.530580  1
  C  C193  1  0.779100  0.030300  0.922600  1
  C  C194  1  0.643500  0.892300  0.922600  1
  C  C195  1  0.469700  0.720900  0.577400  1
  C  C196  1  0.607700  0.856500  0.577400  1
  C  C197  1  0.220900  0.969700  0.077400  1
  C  C198  1  0.356500  0.107700  0.077400  1
  C  C199  1  0.530300  0.279100  0.422600  1
  C  C200  1  0.392300  0.143500  0.422600  1
  C  C201  1  0.758900  0.033500  0.896600  1
  C  C202  1  0.637700  0.863100  0.896600  1
  C  C203  1  0.466500  0.741100  0.603400  1
  C  C204  1  0.636900  0.862300  0.603400  1
  C  C205  1  0.241100  0.966500  0.103400  1
  C  C206  1  0.362300  0.136900  0.103400  1
  C  C207  1  0.533500  0.258900  0.396600  1
  C  C208  1  0.363100  0.137700  0.396600  1
  C  C209  1  0.734480  0.063080  0.883560  1
  C  C210  1  0.649080  0.820480  0.883560  1
  C  C211  1  0.436920  0.765520  0.616440  1
  C  C212  1  0.679520  0.850920  0.616440  1
  C  C213  1  0.265520  0.936920  0.116440  1
  C  C214  1  0.350920  0.179520  0.116440  1
  C  C215  1  0.563080  0.234480  0.383560  1
  C  C216  1  0.320480  0.149080  0.383560  1
  C  C217  1  0.722340  0.042820  0.848960  1
  C  C218  1  0.626620  0.806140  0.848960  1
  C  C219  1  0.457180  0.777660  0.651040  1
  C  C220  1  0.693860  0.873380  0.651040  1
  C  C221  1  0.277660  0.957180  0.151040  1
  C  C222  1  0.373380  0.193860  0.151040  1
  C  C223  1  0.542820  0.222340  0.348960  1
  C  C224  1  0.306140  0.126620  0.348960  1
  C  C225  1  0.731900  0.018900  0.840000  1
  C  C226  1  0.608100  0.821100  0.840000  1
  C  C227  1  0.481100  0.768100  0.660000  1
  C  C228  1  0.678900  0.891900  0.660000  1
  C  C229  1  0.268100  0.981100  0.160000  1
  C  C230  1  0.391900  0.178900  0.160000  1
  C  C231  1  0.518900  0.231900  0.340000  1
  C  C232  1  0.321100  0.108100  0.340000  1
  C  C233  1  0.748200  0.012400  0.863400  1
  C  C234  1  0.615200  0.851000  0.863400  1
  C  C235  1  0.487600  0.751800  0.636600  1
  C  C236  1  0.649000  0.884800  0.636600  1
  C  C237  1  0.251800  0.987600  0.136600  1
  C  C238  1  0.384800  0.149000  0.136600  1
  C  C239  1  0.512400  0.248200  0.363400  1
  C  C240  1  0.351000  0.115200  0.363400  1
  C  C241  1  0.705650  0.049250  0.824100  1
  C  C242  1  0.618450  0.774850  0.824100  1
  C  C243  1  0.450750  0.794350  0.675900  1
  C  C244  1  0.725150  0.881550  0.675900  1
  C  C245  1  0.294350  0.950750  0.175900  1
  C  C246  1  0.381550  0.225150  0.175900  1
  C  C247  1  0.549250  0.205650  0.324100  1
  C  C248  1  0.274850  0.118450  0.324100  1
  C  C249  1  0.681500  0.060100  0.824200  1
  C  C250  1  0.642700  0.764100  0.824200  1
  C  C251  1  0.439900  0.818500  0.675800  1
  C  C252  1  0.735900  0.857300  0.675800  1
  C  C253  1  0.318500  0.939900  0.175800  1
  C  C254  1  0.357300  0.235900  0.175800  1
  C  C255  1  0.560100  0.181500  0.324200  1
  C  C256  1  0.264100  0.142700  0.324200  1
  C  C257  1  0.673360  0.064160  0.779320  1
  C  C258  1  0.605960  0.715160  0.779320  1
  C  C259  1  0.435840  0.826640  0.720680  1
  C  C260  1  0.784840  0.894040  0.720680  1
  C  C261  1  0.326640  0.935840  0.220680  1
  C  C262  1  0.394040  0.284840  0.220680  1
  C  C263  1  0.564160  0.173360  0.279320  1
  C  C264  1  0.215160  0.105960  0.279320  1
  C  C265  1  0.695550  0.054350  0.778700  1
  C  C266  1  0.583150  0.724350  0.778700  1
  C  C267  1  0.445650  0.804450  0.721300  1
  C  C268  1  0.775650  0.916850  0.721300  1
  C  C269  1  0.304450  0.945650  0.221300  1
  C  C270  1  0.416850  0.275650  0.221300  1
  C  C271  1  0.554350  0.195550  0.278700  1
  C  C272  1  0.224350  0.083150  0.278700  1
  C  C273  1  0.710900  0.045500  0.801200  1
  C  C274  1  0.590300  0.755700  0.801200  1
  C  C275  1  0.454500  0.789100  0.698800  1
  C  C276  1  0.744300  0.909700  0.698800  1
  C  C277  1  0.289100  0.954500  0.198800  1
  C  C278  1  0.409700  0.244300  0.198800  1
  C  C279  1  0.545500  0.210900  0.301200  1
  C  C280  1  0.255700  0.090300  0.301200  1
  C  C281  1  0.658430  0.075830  0.760060  1
  C  C282  1  0.601630  0.684230  0.760060  1
  C  C283  1  0.424170  0.841570  0.739940  1
  C  C284  1  0.815770  0.898370  0.739940  1
  C  C285  1  0.341570  0.924170  0.239940  1
  C  C286  1  0.398370  0.315770  0.239940  1
  C  C287  1  0.575830  0.158430  0.260060  1
  C  C288  1  0.184230  0.101630  0.260060  1
  C  C289  1  0.620200  0.093200  0.739200  1
  C  C290  1  0.619000  0.646000  0.739200  1
  C  C291  1  0.406800  0.879800  0.760800  1
  C  C292  1  0.854000  0.881000  0.760800  1
  C  C293  1  0.379800  0.906800  0.260800  1
  C  C294  1  0.381000  0.354000  0.260800  1
  C  C295  1  0.593200  0.120200  0.239200  1
  C  C296  1  0.146000  0.119000  0.239200  1
  C  C297  1  0.609900  0.115300  0.749800  1
  C  C298  1  0.639900  0.634500  0.749800  1
  C  C299  1  0.384700  0.890100  0.750200  1
  C  C300  1  0.865500  0.860100  0.750200  1
  C  C301  1  0.390100  0.884700  0.250200  1
  C  C302  1  0.360100  0.365500  0.250200  1
  C  C303  1  0.615300  0.109900  0.249800  1
  C  C304  1  0.134500  0.139900  0.249800  1
  C  C305  1  0.592400  0.124000  0.728800  1
  C  C306  1  0.636400  0.604800  0.728800  1
  C  C307  1  0.376000  0.907600  0.771200  1
  C  C308  1  0.895200  0.863600  0.771200  1
  C  C309  1  0.407600  0.876000  0.271200  1
  C  C310  1  0.363600  0.395200  0.271200  1
  C  C311  1  0.624000  0.092400  0.228800  1
  C  C312  1  0.104800  0.136400  0.228800  1
  C  C313  1  0.584000  0.107600  0.695400  1
  C  C314  1  0.611400  0.587800  0.695400  1
  C  C315  1  0.392400  0.916000  0.804600  1
  C  C316  1  0.912200  0.888600  0.804600  1
  C  C317  1  0.416000  0.892400  0.304600  1
  C  C318  1  0.388600  0.412200  0.304600  1
  C  C319  1  0.607600  0.084000  0.195400  1
  C  C320  1  0.087800  0.111400  0.195400  1
  C  C321  1  0.595600  0.085000  0.683600  1
  C  C322  1  0.588000  0.598600  0.683600  1
  C  C323  1  0.415000  0.904400  0.816400  1
  C  C324  1  0.901400  0.912000  0.816400  1
  C  C325  1  0.404400  0.915000  0.316400  1
  C  C326  1  0.412000  0.401400  0.316400  1
  C  C327  1  0.585000  0.095600  0.183600  1
  C  C328  1  0.098600  0.088000  0.183600  1
  C  C329  1  0.613600  0.076400  0.704800  1
  C  C330  1  0.591200  0.628400  0.704800  1
  C  C331  1  0.423600  0.886400  0.795200  1
  C  C332  1  0.871600  0.908800  0.795200  1
  C  C333  1  0.386400  0.923600  0.295200  1
  C  C334  1  0.408800  0.371600  0.295200  1
  C  C335  1  0.576400  0.113600  0.204800  1
  C  C336  1  0.128400  0.091200  0.204800  1
  C  C337  1  0.565800  0.120000  0.673800  1
  C  C338  1  0.608000  0.553800  0.673800  1
  C  C339  1  0.380000  0.934200  0.826200  1
  C  C340  1  0.946200  0.892000  0.826200  1
  C  C341  1  0.434200  0.880000  0.326200  1
  C  C342  1  0.392000  0.446200  0.326200  1
  C  C343  1  0.620000  0.065800  0.173800  1
  C  C344  1  0.053800  0.108000  0.173800  1
  C  C345  1  0.827600  0.059600  0.846200  1
  C  C346  1  0.518600  0.786600  0.846200  1
  C  C347  1  0.440400  0.672400  0.653800  1
  C  C348  1  0.713400  0.981400  0.653800  1
  C  C349  1  0.172400  0.940400  0.153800  1
  C  C350  1  0.481400  0.213400  0.153800  1
  C  C351  1  0.559600  0.327600  0.346200  1
  C  C352  1  0.286600  0.018600  0.346200  1
  C  C353  1  0.827800  0.071200  0.876400  1
  C  C354  1  0.548600  0.805200  0.876400  1
  C  C355  1  0.428800  0.672200  0.623600  1
  C  C356  1  0.694800  0.951400  0.623600  1
  C  C357  1  0.172200  0.928800  0.123600  1
  C  C358  1  0.451400  0.194800  0.123600  1
  C  C359  1  0.571200  0.327800  0.376400  1
  C  C360  1  0.305200  0.048600  0.376400  1
  C  C361  1  0.806000  0.084800  0.880200  1
  C  C362  1  0.574200  0.795400  0.880200  1
  C  C363  1  0.415200  0.694000  0.619800  1
  C  C364  1  0.704600  0.925800  0.619800  1
  C  C365  1  0.194000  0.915200  0.119800  1
  C  C366  1  0.425800  0.204600  0.119800  1
  C  C367  1  0.584800  0.306000  0.380200  1
  C  C368  1  0.295400  0.074200  0.380200  1
  C  C369  1  0.804700  0.096300  0.907800  1
  C  C370  1  0.603100  0.811500  0.907800  1
  C  C371  1  0.403700  0.695300  0.592200  1
  C  C372  1  0.688500  0.896900  0.592200  1
  C  C373  1  0.195300  0.903700  0.092200  1
  C  C374  1  0.396900  0.188500  0.092200  1
  C  C375  1  0.596300  0.304700  0.407800  1
  C  C376  1  0.311500  0.103100  0.407800  1
  C  C377  1  0.822600  0.093200  0.933000  1
  C  C378  1  0.610400  0.839800  0.933000  1
  C  C379  1  0.406800  0.677400  0.567000  1
  C  C380  1  0.660200  0.889600  0.567000  1
  C  C381  1  0.177400  0.906800  0.067000  1
  C  C382  1  0.389600  0.160200  0.067000  1
  C  C383  1  0.593200  0.322600  0.433000  1
  C  C384  1  0.339800  0.110400  0.433000  1
  C  C385  1  0.845100  0.078700  0.930600  1
  C  C386  1  0.585500  0.851900  0.930600  1
  C  C387  1  0.421300  0.654900  0.569400  1
  C  C388  1  0.648100  0.914500  0.569400  1
  C  C389  1  0.154900  0.921300  0.069400  1
  C  C390  1  0.414500  0.148100  0.069400  1
  C  C391  1  0.578700  0.345100  0.430600  1
  C  C392  1  0.351900  0.085500  0.430600  1
  C  C393  1  0.847100  0.067300  0.903000  1
  C  C394  1  0.555900  0.835700  0.903000  1
  C  C395  1  0.432700  0.652900  0.597000  1
  C  C396  1  0.664300  0.944100  0.597000  1
  C  C397  1  0.152900  0.932700  0.097000  1
  C  C398  1  0.444100  0.164300  0.097000  1
  C  C399  1  0.567300  0.347100  0.403000  1
  C  C400  1  0.335700  0.055900  0.403000  1
  C  C401  1  0.844100  0.116900  0.989400  1
  C  C402  1  0.645300  0.872500  0.989400  1
  C  C403  1  0.383100  0.655900  0.510600  1
  C  C404  1  0.627500  0.854700  0.510600  1
  C  C405  1  0.155900  0.883100  0.010600  1
  C  C406  1  0.354700  0.127500  0.010600  1
  C  C407  1  0.616900  0.344100  0.489400  1
  C  C408  1  0.372500  0.145300  0.489400  1
  C  C409  1  0.839660  0.124860  0.016720  1
  C  C410  1  0.677060  0.891860  0.016720  1
  C  C411  1  0.375140  0.660340  0.483280  1
  C  C412  1  0.608140  0.822940  0.483280  1
  C  C413  1  0.160340  0.875140  0.983280  1
  C  C414  1  0.322940  0.108140  0.983280  1
  C  C415  1  0.624860  0.339660  0.516720  1
  C  C416  1  0.391860  0.177060  0.516720  1
  C  C417  1  0.806800  0.127400  0.033600  1
  C  C418  1  0.726800  0.906200  0.033600  1
  C  C419  1  0.372600  0.693200  0.466400  1
  C  C420  1  0.593800  0.773200  0.466400  1
  C  C421  1  0.193200  0.872600  0.966400  1
  C  C422  1  0.273200  0.093800  0.966400  1
  C  C423  1  0.627400  0.306800  0.533600  1
  C  C424  1  0.406200  0.226800  0.533600  1
  C  C425  1  0.832100  0.142700  0.068400  1
  C  C426  1  0.736300  0.925700  0.068400  1
  C  C427  1  0.357300  0.667900  0.431600  1
  C  C428  1  0.574300  0.763700  0.431600  1
  C  C429  1  0.167900  0.857300  0.931600  1
  C  C430  1  0.263700  0.074300  0.931600  1
  C  C431  1  0.642700  0.332100  0.568400  1
  C  C432  1  0.425700  0.236300  0.568400  1
  C  C433  1  0.859600  0.147600  0.074400  1
  C  C434  1  0.714800  0.926800  0.074400  1
  C  C435  1  0.352400  0.640400  0.425600  1
  C  C436  1  0.573200  0.785200  0.425600  1
  C  C437  1  0.140400  0.852400  0.925600  1
  C  C438  1  0.285200  0.073200  0.925600  1
  C  C439  1  0.647600  0.359600  0.574400  1
  C  C440  1  0.426800  0.214800  0.574400  1
  C  C441  1  0.865400  0.138600  0.049400  1
  C  C442  1  0.684000  0.910800  0.049400  1
  C  C443  1  0.361400  0.634600  0.450600  1
  C  C444  1  0.589200  0.816000  0.450600  1
  C  C445  1  0.134600  0.861400  0.950600  1
  C  C446  1  0.316000  0.089200  0.950600  1
  C  C447  1  0.638600  0.365400  0.549400  1
  C  C448  1  0.410800  0.184000  0.549400  1
  C  C449  1  0.825500  0.153900  0.094800  1
  C  C450  1  0.769300  0.940900  0.094800  1
  C  C451  1  0.346100  0.674500  0.405200  1
  C  C452  1  0.559100  0.730700  0.405200  1
  C  C453  1  0.174500  0.846100  0.905200  1
  C  C454  1  0.230700  0.059100  0.905200  1
  C  C455  1  0.653900  0.325500  0.594800  1
  C  C456  1  0.440900  0.269300  0.594800  1
  C  C457  1  0.806600  0.171000  0.096000  1
  C  C458  1  0.789400  0.925000  0.096000  1
  C  C459  1  0.329000  0.693400  0.404000  1
  C  C460  1  0.575000  0.710600  0.404000  1
  C  C461  1  0.193400  0.829000  0.904000  1
  C  C462  1  0.210600  0.075000  0.904000  1
  C  C463  1  0.671000  0.306600  0.596000  1
  C  C464  1  0.425000  0.289400  0.596000  1
  C  C465  1  0.816700  0.176500  0.145000  1
  C  C466  1  0.828300  0.968500  0.145000  1
  C  C467  1  0.323500  0.683300  0.355000  1
  C  C468  1  0.531500  0.671700  0.355000  1
  C  C469  1  0.183300  0.823500  0.855000  1
  C  C470  1  0.171700  0.031500  0.855000  1
  C  C471  1  0.676500  0.316700  0.645000  1
  C  C472  1  0.468500  0.328300  0.645000  1
  C  C473  1  0.833300  0.160900  0.145000  1
  C  C474  1  0.811700  0.984100  0.145000  1
  C  C475  1  0.339100  0.666700  0.355000  1
  C  C476  1  0.515900  0.688300  0.355000  1
  C  C477  1  0.166700  0.839100  0.855000  1
  C  C478  1  0.188300  0.015900  0.855000  1
  C  C479  1  0.660900  0.333300  0.645000  1
  C  C480  1  0.484100  0.311700  0.645000  1
  C  C481  1  0.839400  0.149800  0.120800  1
  C  C482  1  0.781400  0.971000  0.120800  1
  C  C483  1  0.350200  0.660600  0.379200  1
  C  C484  1  0.529000  0.718600  0.379200  1
  C  C485  1  0.160600  0.850200  0.879200  1
  C  C486  1  0.218600  0.029000  0.879200  1
  C  C487  1  0.649800  0.339400  0.620800  1
  C  C488  1  0.471000  0.281400  0.620800  1
  C  C489  1  0.811600  0.191800  0.172400  1
  C  C490  1  0.860800  0.980600  0.172400  1
  C  C491  1  0.308200  0.688400  0.327600  1
  C  C492  1  0.519400  0.639200  0.327600  1
  C  C493  1  0.188400  0.808200  0.827600  1
  C  C494  1  0.139200  0.019400  0.827600  1
  C  C495  1  0.691800  0.311600  0.672400  1
  C  C496  1  0.480600  0.360800  0.672400  1
  C  C497  1  0.789100  0.223100  0.194800  1
  C  C498  1  0.905700  0.971700  0.194800  1
  C  C499  1  0.276900  0.710900  0.305200  1
  C  C500  1  0.528300  0.594300  0.305200  1
  C  C501  1  0.210900  0.776900  0.805200  1
  C  C502  1  0.094300  0.028300  0.805200  1
  C  C503  1  0.723100  0.289100  0.694800  1
  C  C504  1  0.471700  0.405700  0.694800  1
  C  C505  1  0.762100  0.221100  0.187000  1
  C  C506  1  0.924900  0.965900  0.187000  1
  C  C507  1  0.278900  0.737900  0.313000  1
  C  C508  1  0.534100  0.575100  0.313000  1
  C  C509  1  0.237900  0.778900  0.813000  1
  C  C510  1  0.075100  0.034100  0.813000  1
  C  C511  1  0.721100  0.262100  0.687000  1
  C  C512  1  0.465900  0.424900  0.687000  1
  C  C513  1  0.755900  0.238700  0.212400  1
  C  C514  1  0.956500  0.973700  0.212400  1
  C  C515  1  0.261300  0.744100  0.287600  1
  C  C516  1  0.526300  0.543500  0.287600  1
  C  C517  1  0.244100  0.761300  0.787600  1
  C  C518  1  0.043500  0.026300  0.787600  1
  C  C519  1  0.738700  0.255900  0.712400  1
  C  C520  1  0.473700  0.456500  0.712400  1
  C  C521  1  0.777800  0.256400  0.242000  1
  C  C522  1  0.964200  0.985600  0.242000  1
  C  C523  1  0.243600  0.722200  0.258000  1
  C  C524  1  0.514400  0.535800  0.258000  1
  C  C525  1  0.222200  0.743600  0.758000  1
  C  C526  1  0.035800  0.014400  0.758000  1
  C  C527  1  0.756400  0.277800  0.742000  1
  C  C528  1  0.485600  0.464200  0.742000  1
  C  C529  1  0.806400  0.257800  0.252200  1
  C  C530  1  0.945800  0.994400  0.252200  1
  C  C531  1  0.242200  0.693600  0.247800  1
  C  C532  1  0.505600  0.554200  0.247800  1
  C  C533  1  0.193600  0.742200  0.747800  1
  C  C534  1  0.054200  0.005600  0.747800  1
  C  C535  1  0.757800  0.306400  0.752200  1
  C  C536  1  0.494400  0.445800  0.752200  1
  C  C537  1  0.814000  0.241400  0.228800  1
  C  C538  1  0.914800  0.987400  0.228800  1
  C  C539  1  0.258600  0.686000  0.271200  1
  C  C540  1  0.512600  0.585200  0.271200  1
  C  C541  1  0.186000  0.758600  0.771200  1
  C  C542  1  0.085200  0.012600  0.771200  1
  C  C543  1  0.741400  0.314000  0.728800  1
  C  C544  1  0.487400  0.414800  0.728800  1
  C  C545  1  0.774500  0.280100  0.270400  1
  C  C546  1  0.995900  0.990300  0.270400  1
  C  C547  1  0.219900  0.725500  0.229600  1
  C  C548  1  0.509700  0.504100  0.229600  1
  C  C549  1  0.225500  0.719900  0.729600  1
  C  C550  1  0.004100  0.009700  0.729600  1
  C  C551  1  0.780100  0.274500  0.770400  1
  C  C552  1  0.490300  0.495900  0.770400  1
  C  C553  1  0.679400  0.974200  0.946400  1
  C  C554  1  0.767000  0.972200  0.946400  1
  C  C555  1  0.525800  0.820600  0.553600  1
  C  C556  1  0.527800  0.733000  0.553600  1
  C  C557  1  0.320600  0.025800  0.053600  1
  C  C558  1  0.233000  0.027800  0.053600  1
  C  C559  1  0.474200  0.179400  0.446400  1
  C  C560  1  0.472200  0.267000  0.446400  1
  C  C561  1  0.699100  0.002100  0.950200  1
  C  C562  1  0.751100  0.948100  0.950200  1
  C  C563  1  0.497900  0.800900  0.549800  1
  C  C564  1  0.551900  0.748900  0.549800  1
  C  C565  1  0.300900  0.997900  0.049800  1
  C  C566  1  0.248900  0.051900  0.049800  1
  C  C567  1  0.502100  0.199100  0.450200  1
  C  C568  1  0.448100  0.251100  0.450200  1
  C  C569  1  0.697500  0.001100  0.923400  1
  C  C570  1  0.725900  0.922300  0.923400  1
  C  C571  1  0.498900  0.802500  0.576600  1
  C  C572  1  0.577700  0.774100  0.576600  1
  C  C573  1  0.302500  0.998900  0.076600  1
  C  C574  1  0.274100  0.077700  0.076600  1
  C  C575  1  0.501100  0.197500  0.423400  1
  C  C576  1  0.422300  0.225900  0.423400  1
  C  C577  1  0.710900  0.027500  0.926800  1
  C  C578  1  0.715900  0.899300  0.926800  1
  C  C579  1  0.472500  0.789100  0.573200  1
  C  C580  1  0.600700  0.784100  0.573200  1
  C  C581  1  0.289100  0.972500  0.073200  1
  C  C582  1  0.284100  0.100700  0.073200  1
  C  C583  1  0.527500  0.210900  0.426800  1
  C  C584  1  0.399300  0.215900  0.426800  1
  C  C585  1  0.725700  0.054700  0.957000  1
  C  C586  1  0.731300  0.902300  0.957000  1
  C  C587  1  0.445300  0.774300  0.543000  1
  C  C588  1  0.597700  0.768700  0.543000  1
  C  C589  1  0.274300  0.945300  0.043000  1
  C  C590  1  0.268700  0.097700  0.043000  1
  C  C591  1  0.554700  0.225700  0.457000  1
  C  C592  1  0.402300  0.231300  0.457000  1
  C  C593  1  0.727400  0.055800  0.984000  1
  C  C594  1  0.756600  0.928200  0.984000  1
  C  C595  1  0.444200  0.772600  0.516000  1
  C  C596  1  0.571800  0.743400  0.516000  1
  C  C597  1  0.272600  0.944200  0.016000  1
  C  C598  1  0.243400  0.071800  0.016000  1
  C  C599  1  0.555800  0.227400  0.484000  1
  C  C600  1  0.428200  0.256600  0.484000  1
  C  C601  1  0.714000  0.029400  0.980600  1
  C  C602  1  0.766600  0.951200  0.980600  1
  C  C603  1  0.470600  0.786000  0.519400  1
  C  C604  1  0.548800  0.733400  0.519400  1
  C  C605  1  0.286000  0.970600  0.019400  1
  C  C606  1  0.233400  0.048800  0.019400  1
  C  C607  1  0.529400  0.214000  0.480600  1
  C  C608  1  0.451200  0.266600  0.480600  1
  C  C609  1  0.729500  0.102500  0.962200  1
  C  C610  1  0.732700  0.859700  0.962200  1
  C  C611  1  0.397500  0.770500  0.537800  1
  C  C612  1  0.640300  0.767300  0.537800  1
  C  C613  1  0.270500  0.897500  0.037800  1
  C  C614  1  0.267300  0.140300  0.037800  1
  C  C615  1  0.602500  0.229500  0.462200  1
  C  C616  1  0.359700  0.232700  0.462200  1
  C  C617  1  0.744460  0.128460  0.964380  1
  C  C618  1  0.719920  0.835920  0.964380  1
  C  C619  1  0.371540  0.755540  0.535620  1
  C  C620  1  0.664080  0.780080  0.535620  1
  C  C621  1  0.255540  0.871540  0.035620  1
  C  C622  1  0.280080  0.164080  0.035620  1
  C  C623  1  0.628460  0.244460  0.464380  1
  C  C624  1  0.335920  0.219920  0.464380  1
  C  C625  1  0.783150  0.150690  0.962240  1
  C  C626  1  0.679090  0.811550  0.962240  1
  C  C627  1  0.349310  0.716850  0.537760  1
  C  C628  1  0.688450  0.820910  0.537760  1
  C  C629  1  0.216850  0.849310  0.037760  1
  C  C630  1  0.320910  0.188450  0.037760  1
  C  C631  1  0.650690  0.283150  0.462240  1
  C  C632  1  0.311550  0.179090  0.462240  1
  C  C633  1  0.775790  0.175330  0.967080  1
  C  C634  1  0.691290  0.791750  0.967080  1
  C  C635  1  0.324670  0.724210  0.532920  1
  C  C636  1  0.708250  0.808710  0.532920  1
  C  C637  1  0.224210  0.824670  0.032920  1
  C  C638  1  0.308710  0.208250  0.032920  1
  C  C639  1  0.675330  0.275790  0.467080  1
  C  C640  1  0.291750  0.191290  0.467080  1
  C  C641  1  0.753470  0.176670  0.972340  1
  C  C642  1  0.718870  0.795670  0.972340  1
  C  C643  1  0.323330  0.746530  0.527660  1
  C  C644  1  0.704330  0.781130  0.527660  1
  C  C645  1  0.246530  0.823330  0.027660  1
  C  C646  1  0.281130  0.204330  0.027660  1
  C  C647  1  0.676670  0.253470  0.472340  1
  C  C648  1  0.295670  0.218870  0.472340  1
  C  C649  1  0.737140  0.153940  0.970880  1
  C  C650  1  0.733740  0.816940  0.970880  1
  C  C651  1  0.346060  0.762860  0.529120  1
  C  C652  1  0.683060  0.766260  0.529120  1
  C  C653  1  0.262860  0.846060  0.029120  1
  C  C654  1  0.266260  0.183060  0.029120  1
  C  C655  1  0.653940  0.237140  0.470880  1
  C  C656  1  0.316940  0.233740  0.470880  1
  C  C657  1  0.793650  0.201230  0.970080  1
  C  C658  1  0.676430  0.768850  0.970080  1
  C  C659  1  0.298770  0.706350  0.529920  1
  C  C660  1  0.731150  0.823570  0.529920  1
  C  C661  1  0.206350  0.798770  0.029920  1
  C  C662  1  0.323570  0.231150  0.029920  1
  C  C663  1  0.701230  0.293650  0.470080  1
  C  C664  1  0.268850  0.176430  0.470080  1
  C  C665  1  0.820850  0.201650  0.970700  1
  C  C666  1  0.649850  0.769050  0.970700  1
  C  C667  1  0.298350  0.679150  0.529300  1
  C  C668  1  0.730950  0.850150  0.529300  1
  C  C669  1  0.179150  0.798350  0.029300  1
  C  C670  1  0.350150  0.230950  0.029300  1
  C  C671  1  0.701650  0.320850  0.470700  1
  C  C672  1  0.269050  0.149850  0.470700  1
  C  C673  1  0.827980  0.246380  0.972360  1
  C  C674  1  0.644380  0.725980  0.972360  1
  C  C675  1  0.253620  0.672020  0.527640  1
  C  C676  1  0.774020  0.855620  0.527640  1
  C  C677  1  0.172020  0.753620  0.027640  1
  C  C678  1  0.355620  0.274020  0.027640  1
  C  C679  1  0.746380  0.327980  0.472360  1
  C  C680  1  0.225980  0.144380  0.472360  1
  C  C681  1  0.802400  0.247200  0.970800  1
  C  C682  1  0.668400  0.723600  0.970800  1
  C  C683  1  0.252800  0.697600  0.529200  1
  C  C684  1  0.776400  0.831600  0.529200  1
  C  C685  1  0.197600  0.752800  0.029200  1
  C  C686  1  0.331600  0.276400  0.029200  1
  C  C687  1  0.747200  0.302400  0.470800  1
  C  C688  1  0.223600  0.168400  0.470800  1
  C  C689  1  0.786000  0.224400  0.970400  1
  C  C690  1  0.684400  0.746000  0.970400  1
  C  C691  1  0.275600  0.714000  0.529600  1
  C  C692  1  0.754000  0.815600  0.529600  1
  C  C693  1  0.214000  0.775600  0.029600  1
  C  C694  1  0.315600  0.254000  0.029600  1
  C  C695  1  0.724400  0.286000  0.470400  1
  C  C696  1  0.246000  0.184400  0.470400  1
  C  C697  1  0.847000  0.268400  0.971600  1
  C  C698  1  0.624600  0.703200  0.971600  1
  C  C699  1  0.231600  0.653000  0.528400  1
  C  C700  1  0.796800  0.875400  0.528400  1
  C  C701  1  0.153000  0.731600  0.028400  1
  C  C702  1  0.375400  0.296800  0.028400  1
  C  C703  1  0.768400  0.347000  0.471600  1
  C  C704  1  0.203200  0.124600  0.471600  1
  C  C705  1  0.883100  0.286300  0.964600  1
  C  C706  1  0.581500  0.678300  0.964600  1
  C  C707  1  0.213700  0.616900  0.535400  1
  C  C708  1  0.821700  0.918500  0.535400  1
  C  C709  1  0.116900  0.713700  0.035400  1
  C  C710  1  0.418500  0.321700  0.035400  1
  C  C711  1  0.786300  0.383100  0.464600  1
  C  C712  1  0.178300  0.081500  0.464600  1
  C  C713  1  0.867000  0.299600  0.949400  1
  C  C714  1  0.582400  0.649800  0.949400  1
  C  C715  1  0.200400  0.633000  0.550600  1
  C  C716  1  0.850200  0.917600  0.550600  1
  C  C717  1  0.133000  0.700400  0.050600  1
  C  C718  1  0.417600  0.350200  0.050600  1
  C  C719  1  0.799600  0.367000  0.449400  1
  C  C720  1  0.149800  0.082400  0.449400  1
  C  C721  1  0.881600  0.320800  0.946800  1
  C  C722  1  0.565200  0.626000  0.946800  1
  C  C723  1  0.179200  0.618400  0.553200  1
  C  C724  1  0.874000  0.934800  0.553200  1
  C  C725  1  0.118400  0.679200  0.053200  1
  C  C726  1  0.434800  0.374000  0.053200  1
  C  C727  1  0.820800  0.381600  0.446800  1
  C  C728  1  0.126000  0.065200  0.446800  1
  C  C729  1  0.912400  0.328800  0.959400  1
  C  C730  1  0.547000  0.630600  0.959400  1
  C  C731  1  0.171200  0.587600  0.540600  1
  C  C732  1  0.869400  0.953000  0.540600  1
  C  C733  1  0.087600  0.671200  0.040600  1
  C  C734  1  0.453000  0.369400  0.040600  1
  C  C735  1  0.828800  0.412400  0.459400  1
  C  C736  1  0.130600  0.047000  0.459400  1
  C  C737  1  0.928400  0.315600  0.974600  1
  C  C738  1  0.546200  0.659000  0.974600  1
  C  C739  1  0.184400  0.571600  0.525400  1
  C  C740  1  0.841000  0.953800  0.525400  1
  C  C741  1  0.071600  0.684400  0.025400  1
  C  C742  1  0.453800  0.341000  0.025400  1
  C  C743  1  0.815600  0.428400  0.474600  1
  C  C744  1  0.159000  0.046200  0.474600  1
  C  C745  1  0.913800  0.294400  0.977200  1
  C  C746  1  0.563400  0.682800  0.977200  1
  C  C747  1  0.205600  0.586200  0.522800  1
  C  C748  1  0.817200  0.936600  0.522800  1
  C  C749  1  0.086200  0.705600  0.022800  1
  C  C750  1  0.436600  0.317200  0.022800  1
  C  C751  1  0.794400  0.413800  0.477200  1
  C  C752  1  0.182800  0.063400  0.477200  1
  C  C753  1  0.923900  0.350100  0.951000  1
  C  C754  1  0.527100  0.600900  0.951000  1
  C  C755  1  0.149900  0.576100  0.549000  1
  C  C756  1  0.899100  0.972900  0.549000  1
  C  C757  1  0.076100  0.649900  0.049000  1
  C  C758  1  0.472900  0.399100  0.049000  1
  C  C759  1  0.850100  0.423900  0.451000  1
  C  C760  1  0.100900  0.027100  0.451000  1
  C  C761  1  0.643800  0.940600  0.700400  1
  C  C762  1  0.556600  0.759800  0.700400  1
  C  C763  1  0.559400  0.856200  0.799600  1
  C  C764  1  0.740200  0.943400  0.799600  1
  C  C765  1  0.356200  0.059400  0.299600  1
  C  C766  1  0.443400  0.240200  0.299600  1
  C  C767  1  0.440600  0.143800  0.200400  1
  C  C768  1  0.259800  0.056600  0.200400  1
  C  C769  1  0.634300  0.966900  0.714800  1
  C  C770  1  0.580500  0.747900  0.714800  1
  C  C771  1  0.533100  0.865700  0.785200  1
  C  C772  1  0.752100  0.919500  0.785200  1
  C  C773  1  0.365700  0.033100  0.285200  1
  C  C774  1  0.419500  0.252100  0.285200  1
  C  C775  1  0.466900  0.134300  0.214800  1
  C  C776  1  0.247900  0.080500  0.214800  1
  C  C777  1  0.634900  0.976900  0.743800  1
  C  C778  1  0.608900  0.766900  0.743800  1
  C  C779  1  0.523100  0.865100  0.756200  1
  C  C780  1  0.733100  0.891100  0.756200  1
  C  C781  1  0.365100  0.023100  0.256200  1
  C  C782  1  0.391100  0.233100  0.256200  1
  C  C783  1  0.476900  0.134900  0.243800  1
  C  C784  1  0.266900  0.108900  0.243800  1
  C  C785  1  0.621600  0.997200  0.752600  1
  C  C786  1  0.631000  0.755400  0.752600  1
  C  C787  1  0.502800  0.878400  0.747400  1
  C  C788  1  0.744600  0.869000  0.747400  1
  C  C789  1  0.378400  0.002800  0.247400  1
  C  C790  1  0.369000  0.244600  0.247400  1
  C  C791  1  0.497200  0.121600  0.252600  1
  C  C792  1  0.255400  0.131000  0.252600  1
  C  C793  1  0.607600  0.007600  0.732600  1
  C  C794  1  0.625000  0.725000  0.732600  1
  C  C795  1  0.492400  0.892400  0.767400  1
  C  C796  1  0.775000  0.875000  0.767400  1
  C  C797  1  0.392400  0.992400  0.267400  1
  C  C798  1  0.375000  0.275000  0.267400  1
  C  C799  1  0.507600  0.107600  0.232600  1
  C  C800  1  0.225000  0.125000  0.232600  1
  C  C801  1  0.606900  0.997700  0.703800  1
  C  C802  1  0.596900  0.706100  0.703800  1
  C  C803  1  0.502300  0.893100  0.796200  1
  C  C804  1  0.793900  0.903100  0.796200  1
  C  C805  1  0.393100  0.002300  0.296200  1
  C  C806  1  0.403100  0.293900  0.296200  1
  C  C807  1  0.497700  0.106900  0.203800  1
  C  C808  1  0.206100  0.096900  0.203800  1
  C  C809  1  0.620200  0.977200  0.694800  1
  C  C810  1  0.574600  0.717600  0.694800  1
  C  C811  1  0.522800  0.879800  0.805200  1
  C  C812  1  0.782400  0.925400  0.805200  1
  C  C813  1  0.379800  0.022800  0.305200  1
  C  C814  1  0.425400  0.282400  0.305200  1
  C  C815  1  0.477200  0.120200  0.194800  1
  C  C816  1  0.217600  0.074600  0.194800  1
  C  C817  1  0.572100  0.030100  0.726800  1
  C  C818  1  0.654700  0.696700  0.726800  1
  C  C819  1  0.469900  0.927900  0.773200  1
  C  C820  1  0.803300  0.845300  0.773200  1
  C  C821  1  0.427900  0.969900  0.273200  1
  C  C822  1  0.345300  0.303300  0.273200  1
  C  C823  1  0.530100  0.072100  0.226800  1
  C  C824  1  0.196700  0.154700  0.226800  1
  C  C825  1  0.561100  0.053300  0.739000  1
  C  C826  1  0.677900  0.685700  0.739000  1
  C  C827  1  0.446700  0.938900  0.761000  1
  C  C828  1  0.814300  0.822100  0.761000  1
  C  C829  1  0.438900  0.946700  0.261000  1
  C  C830  1  0.322100  0.314300  0.261000  1
  C  C831  1  0.553300  0.061100  0.239000  1
  C  C832  1  0.185700  0.177900  0.239000  1
  C  C833  1  0.574210  0.100210  0.782020  1
  C  C834  1  0.707810  0.681810  0.782020  1
  C  C835  1  0.399790  0.925790  0.717980  1
  C  C836  1  0.818190  0.792190  0.717980  1
  C  C837  1  0.425790  0.899790  0.217980  1
  C  C838  1  0.292190  0.318190  0.217980  1
  C  C839  1  0.600210  0.074210  0.282020  1
  C  C840  1  0.181810  0.207810  0.282020  1
  C  C841  1  0.547200  0.102600  0.765000  1
  C  C842  1  0.717800  0.662400  0.765000  1
  C  C843  1  0.397400  0.952800  0.735000  1
  C  C844  1  0.837600  0.782200  0.735000  1
  C  C845  1  0.452800  0.897400  0.235000  1
  C  C846  1  0.282200  0.337600  0.235000  1
  C  C847  1  0.602600  0.047200  0.265000  1
  C  C848  1  0.162400  0.217800  0.265000  1
  C  C849  1  0.527600  0.079400  0.732200  1
  C  C850  1  0.704600  0.652800  0.732200  1
  C  C851  1  0.420600  0.972400  0.767800  1
  C  C852  1  0.847200  0.795400  0.767800  1
  C  C853  1  0.472400  0.920600  0.267800  1
  C  C854  1  0.295400  0.347200  0.267800  1
  C  C855  1  0.579400  0.027600  0.232200  1
  C  C856  1  0.152800  0.204600  0.232200  1
  C  C857  1  0.534500  0.053300  0.719400  1
  C  C858  1  0.684900  0.666100  0.719400  1
  C  C859  1  0.446700  0.965500  0.780600  1
  C  C860  1  0.833900  0.815100  0.780600  1
  C  C861  1  0.465500  0.946700  0.280600  1
  C  C862  1  0.315100  0.333900  0.280600  1
  C  C863  1  0.553300  0.034500  0.219400  1
  C  C864  1  0.166100  0.184900  0.219400  1
  C  C865  1  0.539300  0.129500  0.777400  1
  C  C866  1  0.738100  0.647900  0.777400  1
  C  C867  1  0.370500  0.960700  0.722600  1
  C  C868  1  0.852100  0.761900  0.722600  1
  C  C869  1  0.460700  0.870500  0.222600  1
  C  C870  1  0.261900  0.352100  0.222600  1
  C  C871  1  0.629500  0.039300  0.277400  1
  C  C872  1  0.147900  0.238100  0.277400  1
  C  C873  1  0.545100  0.143500  0.810200  1
  C  C874  1  0.765100  0.666700  0.810200  1
  C  C875  1  0.356500  0.954900  0.689800  1
  C  C876  1  0.833300  0.734900  0.689800  1
  C  C877  1  0.454900  0.856500  0.189800  1
  C  C878  1  0.234900  0.333300  0.189800  1
  C  C879  1  0.643500  0.045100  0.310200  1
  C  C880  1  0.166700  0.265100  0.310200  1
  C  C881  1  0.530000  0.182200  0.805000  1
  C  C882  1  0.775000  0.622800  0.805000  1
  C  C883  1  0.317800  0.970000  0.695000  1
  C  C884  1  0.877200  0.725000  0.695000  1
  C  C885  1  0.470000  0.817800  0.195000  1
  C  C886  1  0.225000  0.377200  0.195000  1
  C  C887  1  0.682200  0.030000  0.305000  1
  C  C888  1  0.122800  0.275000  0.305000  1
  C  C889  1  0.524100  0.167500  0.774000  1
  C  C890  1  0.749900  0.606500  0.774000  1
  C  C891  1  0.332500  0.975900  0.726000  1
  C  C892  1  0.893500  0.750100  0.726000  1
  C  C893  1  0.475900  0.832500  0.226000  1
  C  C894  1  0.250100  0.393500  0.226000  1
  C  C895  1  0.667500  0.024100  0.274000  1
  C  C896  1  0.106500  0.249900  0.274000  1
  C  C897  1  0.527700  0.141700  0.759000  1
  C  C898  1  0.731300  0.617300  0.759000  1
  C  C899  1  0.358300  0.972300  0.741000  1
  C  C900  1  0.882700  0.768700  0.741000  1
  C  C901  1  0.472300  0.858300  0.241000  1
  C  C902  1  0.268700  0.382700  0.241000  1
  C  C903  1  0.641700  0.027700  0.259000  1
  C  C904  1  0.117300  0.231300  0.259000  1
  C  C905  1  0.528130  0.209990  0.821920  1
  C  C906  1  0.793790  0.611930  0.821920  1
  C  C907  1  0.290010  0.971870  0.678080  1
  C  C908  1  0.888070  0.706210  0.678080  1
  C  C909  1  0.471870  0.790010  0.178080  1
  C  C910  1  0.206210  0.388070  0.178080  1
  C  C911  1  0.709990  0.028130  0.321920  1
  C  C912  1  0.111930  0.293790  0.321920  1
  C  C913  1  0.529340  0.247540  0.866680  1
  C  C914  1  0.837340  0.619140  0.866680  1
  C  C915  1  0.252460  0.970660  0.633320  1
  C  C916  1  0.880860  0.662660  0.633320  1
  C  C917  1  0.470660  0.752460  0.133320  1
  C  C918  1  0.162660  0.380860  0.133320  1
  C  C919  1  0.747540  0.029340  0.366680  1
  C  C920  1  0.119140  0.337340  0.366680  1
  C  C921  1  0.550600  0.268800  0.900600  1
  C  C922  1  0.850000  0.631800  0.900600  1
  C  C923  1  0.231200  0.949400  0.599400  1
  C  C924  1  0.868200  0.650000  0.599400  1
  C  C925  1  0.449400  0.731200  0.099400  1
  C  C926  1  0.150000  0.368200  0.099400  1
  C  C927  1  0.768800  0.050600  0.400600  1
  C  C928  1  0.131800  0.350000  0.400600  1
  C  C929  1  0.545000  0.295200  0.916200  1
  C  C930  1  0.871200  0.621000  0.916200  1
  C  C931  1  0.204800  0.955000  0.583800  1
  C  C932  1  0.879000  0.628800  0.583800  1
  C  C933  1  0.455000  0.704800  0.083800  1
  C  C934  1  0.128800  0.379000  0.083800  1
  C  C935  1  0.795200  0.045000  0.416200  1
  C  C936  1  0.121000  0.371200  0.416200  1
  C  C937  1  0.519900  0.300900  0.899400  1
  C  C938  1  0.879500  0.598500  0.899400  1
  C  C939  1  0.199100  0.980100  0.600600  1
  C  C940  1  0.901500  0.620500  0.600600  1
  C  C941  1  0.480100  0.699100  0.100600  1
  C  C942  1  0.120500  0.401500  0.100600  1
  C  C943  1  0.800900  0.019900  0.399400  1
  C  C944  1  0.098500  0.379500  0.399400  1
  C  C945  1  0.500500  0.279900  0.867000  1
  C  C946  1  0.866500  0.587100  0.867000  1
  C  C947  1  0.220100  0.999500  0.633000  1
  C  C948  1  0.912900  0.633500  0.633000  1
  C  C949  1  0.499500  0.720100  0.133000  1
  C  C950  1  0.133500  0.412900  0.133000  1
  C  C951  1  0.779900  0.000500  0.367000  1
  C  C952  1  0.087100  0.366500  0.367000  1
  C  C953  1  0.504400  0.252200  0.849000  1
  C  C954  1  0.844600  0.596800  0.849000  1
  C  C955  1  0.247800  0.995600  0.651000  1
  C  C956  1  0.903200  0.655400  0.651000  1
  C  C957  1  0.495600  0.747800  0.151000  1
  C  C958  1  0.155400  0.403200  0.151000  1
  C  C959  1  0.752200  0.004400  0.349000  1
  C  C960  1  0.096800  0.344600  0.349000  1
  C  C961  1  0.515500  0.329100  0.916800  1
  C  C962  1  0.901300  0.587700  0.916800  1
  C  C963  1  0.170900  0.984500  0.583200  1
  C  C964  1  0.912300  0.598700  0.583200  1
  C  C965  1  0.484500  0.670900  0.083200  1
  C  C966  1  0.098700  0.412300  0.083200  1
  C  C967  1  0.829100  0.015500  0.416800  1
  C  C968  1  0.087700  0.401300  0.416800  1
  C  C969  1  0.550100  0.957100  0.796600  1
  C  C970  1  0.746500  0.839500  0.796600  1
  C  C971  1  0.542900  0.949900  0.703400  1
  C  C972  1  0.660500  0.753500  0.703400  1
  C  C973  1  0.449900  0.042900  0.203400  1
  C  C974  1  0.253500  0.160500  0.203400  1
  C  C975  1  0.457100  0.050100  0.296600  1
  C  C976  1  0.339500  0.246500  0.296600  1
  C  C977  1  0.565800  0.986800  0.801600  1
  C  C978  1  0.735800  0.814800  0.801600  1
  C  C979  1  0.513200  0.934200  0.698400  1
  C  C980  1  0.685200  0.764200  0.698400  1
  C  C981  1  0.434200  0.013200  0.198400  1
  C  C982  1  0.264200  0.185200  0.198400  1
  C  C983  1  0.486800  0.065800  0.301600  1
  C  C984  1  0.314800  0.235800  0.301600  1
  C  C985  1  0.552900  0.007500  0.799200  1
  C  C986  1  0.746300  0.791700  0.799200  1
  C  C987  1  0.492500  0.947100  0.700800  1
  C  C988  1  0.708300  0.753700  0.700800  1
  C  C989  1  0.447100  0.992500  0.200800  1
  C  C990  1  0.253700  0.208300  0.200800  1
  C  C991  1  0.507500  0.052900  0.299200  1
  C  C992  1  0.291700  0.246300  0.299200  1
  C  C993  1  0.570100  0.034700  0.807200  1
  C  C994  1  0.737100  0.772500  0.807200  1
  C  C995  1  0.465300  0.929900  0.692800  1
  C  C996  1  0.727500  0.762900  0.692800  1
  C  C997  1  0.429900  0.965300  0.192800  1
  C  C998  1  0.262900  0.227500  0.192800  1
  C  C999  1  0.534700  0.070100  0.307200  1
  C  C1000  1  0.272500  0.237100  0.307200  1
  C  C1001  1  0.600200  0.041200  0.817200  1
  C  C1002  1  0.717000  0.776000  0.817200  1
  C  C1003  1  0.458800  0.899800  0.682800  1
  C  C1004  1  0.724000  0.783000  0.682800  1
  C  C1005  1  0.399800  0.958800  0.182800  1
  C  C1006  1  0.283000  0.224000  0.182800  1
  C  C1007  1  0.541200  0.100200  0.317200  1
  C  C1008  1  0.276000  0.217000  0.317200  1
  C  C1009  1  0.613200  0.020400  0.819600  1
  C  C1010  1  0.706400  0.799200  0.819600  1
  C  C1011  1  0.479600  0.886800  0.680400  1
  C  C1012  1  0.700800  0.793600  0.680400  1
  C  C1013  1  0.386800  0.979600  0.180400  1
  C  C1014  1  0.293600  0.200800  0.180400  1
  C  C1015  1  0.520400  0.113200  0.319600  1
  C  C1016  1  0.299200  0.206400  0.319600  1
  C  C1017  1  0.596000  0.993200  0.811600  1
  C  C1018  1  0.715600  0.818400  0.811600  1
  C  C1019  1  0.506800  0.904000  0.688400  1
  C  C1020  1  0.681600  0.784400  0.688400  1
  C  C1021  1  0.404000  0.006800  0.188400  1
  C  C1022  1  0.284400  0.181600  0.188400  1
  C  C1023  1  0.493200  0.096000  0.311600  1
  C  C1024  1  0.318400  0.215600  0.311600  1
  C  C1025  1  0.631700  0.092700  0.852800  1
  C  C1026  1  0.721100  0.760100  0.852800  1
  C  C1027  1  0.407300  0.868300  0.647200  1
  C  C1028  1  0.739900  0.778900  0.647200  1
  C  C1029  1  0.368300  0.907300  0.147200  1
  C  C1030  1  0.278900  0.239900  0.147200  1
  C  C1031  1  0.592700  0.131700  0.352800  1
  C  C1032  1  0.260100  0.221100  0.352800  1
  C  C1033  1  0.650330  0.119970  0.860300  1
  C  C1034  1  0.709970  0.740330  0.860300  1
  C  C1035  1  0.380030  0.849670  0.639700  1
  C  C1036  1  0.759670  0.790030  0.639700  1
  C  C1037  1  0.349670  0.880030  0.139700  1
  C  C1038  1  0.290030  0.259670  0.139700  1
  C  C1039  1  0.619970  0.150330  0.360300  1
  C  C1040  1  0.240330  0.209970  0.360300  1
  C  C1041  1  0.667030  0.143830  0.839860  1
  C  C1042  1  0.672830  0.696030  0.839860  1
  C  C1043  1  0.356170  0.832970  0.660140  1
  C  C1044  1  0.803970  0.827170  0.660140  1
  C  C1045  1  0.332970  0.856170  0.160140  1
  C  C1046  1  0.327170  0.303970  0.160140  1
  C  C1047  1  0.643830  0.167030  0.339860  1
  C  C1048  1  0.196030  0.172830  0.339860  1
  C  C1049  1  0.685320  0.169060  0.868860  1
  C  C1050  1  0.683540  0.699800  0.868860  1
  C  C1051  1  0.330940  0.814680  0.631140  1
  C  C1052  1  0.800200  0.816460  0.631140  1
  C  C1053  1  0.314680  0.830940  0.131140  1
  C  C1054  1  0.316460  0.300200  0.131140  1
  C  C1055  1  0.669060  0.185320  0.368860  1
  C  C1056  1  0.199800  0.183540  0.368860  1
  C  C1057  1  0.686680  0.171280  0.896160  1
  C  C1058  1  0.709480  0.724880  0.896160  1
  C  C1059  1  0.328720  0.813320  0.603840  1
  C  C1060  1  0.775120  0.790520  0.603840  1
  C  C1061  1  0.313320  0.828720  0.103840  1
  C  C1062  1  0.290520  0.275120  0.103840  1
  C  C1063  1  0.671280  0.186680  0.396160  1
  C  C1064  1  0.224880  0.209480  0.396160  1
  C  C1065  1  0.667400  0.146400  0.891400  1
  C  C1066  1  0.724000  0.745000  0.891400  1
  C  C1067  1  0.353600  0.832600  0.608600  1
  C  C1068  1  0.755000  0.776000  0.608600  1
  C  C1069  1  0.332600  0.853600  0.108600  1
  C  C1070  1  0.276000  0.255000  0.108600  1
  C  C1071  1  0.646400  0.167400  0.391400  1
  C  C1072  1  0.245000  0.224000  0.391400  1
  C  C1073  1  0.704600  0.196780  0.874720  1
  C  C1074  1  0.670120  0.677940  0.874720  1
  C  C1075  1  0.303220  0.795400  0.625280  1
  C  C1076  1  0.822060  0.829880  0.625280  1
  C  C1077  1  0.295400  0.803220  0.125280  1
  C  C1078  1  0.329880  0.322060  0.125280  1
  C  C1079  1  0.696780  0.204600  0.374720  1
  C  C1080  1  0.177940  0.170120  0.374720  1
  C  C1081  1  0.706510  0.193210  0.848720  1
  C  C1082  1  0.642210  0.655510  0.848720  1
  C  C1083  1  0.306790  0.793490  0.651280  1
  C  C1084  1  0.844490  0.857790  0.651280  1
  C  C1085  1  0.293490  0.806790  0.151280  1
  C  C1086  1  0.357790  0.344490  0.151280  1
  C  C1087  1  0.693210  0.206510  0.348720  1
  C  C1088  1  0.155510  0.142210  0.348720  1
  C  C1089  1  0.738560  0.242840  0.879000  1
  C  C1090  1  0.640440  0.636160  0.879000  1
  C  C1091  1  0.257160  0.761440  0.621000  1
  C  C1092  1  0.863840  0.859560  0.621000  1
  C  C1093  1  0.261440  0.757160  0.121000  1
  C  C1094  1  0.359560  0.363840  0.121000  1
  C  C1095  1  0.742840  0.238560  0.379000  1
  C  C1096  1  0.136160  0.140440  0.379000  1
  C  C1097  1  0.737500  0.248700  0.906200  1
  C  C1098  1  0.668700  0.657500  0.906200  1
  C  C1099  1  0.251300  0.762500  0.593800  1
  C  C1100  1  0.842500  0.831300  0.593800  1
  C  C1101  1  0.262500  0.751300  0.093800  1
  C  C1102  1  0.331300  0.342500  0.093800  1
  C  C1103  1  0.748700  0.237500  0.406200  1
  C  C1104  1  0.157500  0.168700  0.406200  1
  C  C1105  1  0.719870  0.223370  0.902840  1
  C  C1106  1  0.682970  0.679470  0.902840  1
  C  C1107  1  0.276630  0.780130  0.597160  1
  C  C1108  1  0.820530  0.817030  0.597160  1
  C  C1109  1  0.280130  0.776630  0.097160  1
  C  C1110  1  0.317030  0.320530  0.097160  1
  C  C1111  1  0.723370  0.219870  0.402840  1
  C  C1112  1  0.179470  0.182970  0.402840  1
  C  C1113  1  0.758200  0.267400  0.882400  1
  C  C1114  1  0.624200  0.615000  0.882400  1
  C  C1115  1  0.232600  0.741800  0.617600  1
  C  C1116  1  0.885000  0.875800  0.617600  1
  C  C1117  1  0.241800  0.732600  0.117600  1
  C  C1118  1  0.375800  0.385000  0.117600  1
  C  C1119  1  0.767400  0.258200  0.382400  1
  C  C1120  1  0.115000  0.124200  0.382400  1
  C  C1121  1  0.775420  0.280820  0.851040  1
  C  C1122  1  0.575620  0.570220  0.851040  1
  C  C1123  1  0.219180  0.724580  0.648960  1
  C  C1124  1  0.929780  0.924380  0.648960  1
  C  C1125  1  0.224580  0.719180  0.148960  1
  C  C1126  1  0.424380  0.429780  0.148960  1
  C  C1127  1  0.780820  0.275420  0.351040  1
  C  C1128  1  0.070220  0.075620  0.351040  1
  C  C1129  1  0.803400  0.280800  0.856000  1
  C  C1130  1  0.552600  0.575200  0.856000  1
  C  C1131  1  0.219200  0.696600  0.644000  1
  C  C1132  1  0.924800  0.947400  0.644000  1
  C  C1133  1  0.196600  0.719200  0.144000  1
  C  C1134  1  0.447400  0.424800  0.144000  1
  C  C1135  1  0.780800  0.303400  0.356000  1
  C  C1136  1  0.075200  0.052600  0.356000  1
  C  C1137  1  0.821000  0.302000  0.855800  1
  C  C1138  1  0.534800  0.553800  0.855800  1
  C  C1139  1  0.198000  0.679000  0.644200  1
  C  C1140  1  0.946200  0.965200  0.644200  1
  C  C1141  1  0.179000  0.698000  0.144200  1
  C  C1142  1  0.465200  0.446200  0.144200  1
  C  C1143  1  0.802000  0.321000  0.355800  1
  C  C1144  1  0.053800  0.034800  0.355800  1
  C  C1145  1  0.810900  0.323500  0.851000  1
  C  C1146  1  0.540100  0.527500  0.851000  1
  C  C1147  1  0.176500  0.689100  0.649000  1
  C  C1148  1  0.972500  0.959900  0.649000  1
  C  C1149  1  0.189100  0.676500  0.149000  1
  C  C1150  1  0.459900  0.472500  0.149000  1
  C  C1151  1  0.823500  0.310900  0.351000  1
  C  C1152  1  0.027500  0.040100  0.351000  1
  C  C1153  1  0.783100  0.323500  0.846200  1
  C  C1154  1  0.563100  0.522700  0.846200  1
  C  C1155  1  0.176500  0.716900  0.653800  1
  C  C1156  1  0.977300  0.936900  0.653800  1
  C  C1157  1  0.216900  0.676500  0.153800  1
  C  C1158  1  0.436900  0.477300  0.153800  1
  C  C1159  1  0.823500  0.283100  0.346200  1
  C  C1160  1  0.022700  0.063100  0.346200  1
  C  C1161  1  0.765400  0.302200  0.846200  1
  C  C1162  1  0.580800  0.544000  0.846200  1
  C  C1163  1  0.197800  0.734600  0.653800  1
  C  C1164  1  0.956000  0.919200  0.653800  1
  C  C1165  1  0.234600  0.697800  0.153800  1
  C  C1166  1  0.419200  0.456000  0.153800  1
  C  C1167  1  0.802200  0.265400  0.346200  1
  C  C1168  1  0.044000  0.080800  0.346200  1
  C  C1169  1  0.830900  0.347300  0.851000  1
  C  C1170  1  0.520100  0.503700  0.851000  1
  C  C1171  1  0.152700  0.669100  0.649000  1
  C  C1172  1  0.996300  0.979900  0.649000  1
  C  C1173  1  0.169100  0.652700  0.149000  1
  C  C1174  1  0.479900  0.496300  0.149000  1
  C  C1175  1  0.847300  0.330900  0.351000  1
  C  C1176  1  0.003700  0.020100  0.351000  1
  C  C1177  1  0.409400  0.085800  0.700200  1
  C  C1178  1  0.790800  0.614400  0.700200  1
  C  C1179  1  0.414200  0.090600  0.799800  1
  C  C1180  1  0.885600  0.709200  0.799800  1
  C  C1181  1  0.590600  0.914200  0.299800  1
  C  C1182  1  0.209200  0.385600  0.299800  1
  C  C1183  1  0.585800  0.909400  0.200200  1
  C  C1184  1  0.114400  0.290800  0.200200  1
  C  C1185  1  0.437100  0.110300  0.739600  1
  C  C1186  1  0.802500  0.629300  0.739600  1
  C  C1187  1  0.389700  0.062900  0.760400  1
  C  C1188  1  0.870700  0.697500  0.760400  1
  C  C1189  1  0.562900  0.889700  0.260400  1
  C  C1190  1  0.197500  0.370700  0.260400  1
  C  C1191  1  0.610300  0.937100  0.239600  1
  C  C1192  1  0.129300  0.302500  0.239600  1
  C  C1193  1  0.456800  0.104200  0.758600  1
  C  C1194  1  0.801800  0.654400  0.758600  1
  C  C1195  1  0.395800  0.043200  0.741400  1
  C  C1196  1  0.845600  0.698200  0.741400  1
  C  C1197  1  0.543200  0.895800  0.241400  1
  C  C1198  1  0.198200  0.345600  0.241400  1
  C  C1199  1  0.604200  0.956800  0.258600  1
  C  C1200  1  0.154400  0.301800  0.258600  1
  C  C1201  1  0.473800  0.124200  0.790800  1
  C  C1202  1  0.817000  0.666600  0.790800  1
  C  C1203  1  0.375800  0.026200  0.709200  1
  C  C1204  1  0.833400  0.683000  0.709200  1
  C  C1205  1  0.526200  0.875800  0.209200  1
  C  C1206  1  0.183000  0.333400  0.209200  1
  C  C1207  1  0.624200  0.973800  0.290800  1
  C  C1208  1  0.166600  0.317000  0.290800  1
  C  C1209  1  0.472400  0.151400  0.804800  1
  C  C1210  1  0.832400  0.653400  0.804800  1
  C  C1211  1  0.348600  0.027600  0.695200  1
  C  C1212  1  0.846600  0.667600  0.695200  1
  C  C1213  1  0.527600  0.848600  0.195200  1
  C  C1214  1  0.167600  0.346600  0.195200  1
  C  C1215  1  0.651400  0.972400  0.304800  1
  C  C1216  1  0.153400  0.332400  0.304800  1
  C  C1217  1  0.455600  0.159400  0.784800  1
  C  C1218  1  0.829200  0.625400  0.784800  1
  C  C1219  1  0.340600  0.044400  0.715200  1
  C  C1220  1  0.874600  0.670800  0.715200  1
  C  C1221  1  0.544400  0.840600  0.215200  1
  C  C1222  1  0.170800  0.374600  0.215200  1
  C  C1223  1  0.659400  0.955600  0.284800  1
  C  C1224  1  0.125400  0.329200  0.284800  1
  C  C1225  1  0.433300  0.137700  0.751800  1
  C  C1226  1  0.818500  0.614100  0.751800  1
  C  C1227  1  0.362300  0.066700  0.748200  1
  C  C1228  1  0.885900  0.681500  0.748200  1
  C  C1229  1  0.566700  0.862300  0.248200  1
  C  C1230  1  0.181500  0.385900  0.248200  1
  C  C1231  1  0.637700  0.933300  0.251800  1
  C  C1232  1  0.114100  0.318500  0.251800  1
  C  C1233  1  0.481780  0.188780  0.855560  1
  C  C1234  1  0.873780  0.666780  0.855560  1
  C  C1235  1  0.311220  0.018220  0.644440  1
  C  C1236  1  0.833220  0.626220  0.644440  1
  C  C1237  1  0.518220  0.811220  0.144440  1
  C  C1238  1  0.126220  0.333220  0.144440  1
  C  C1239  1  0.688780  0.981780  0.355560  1
  C  C1240  1  0.166780  0.373780  0.355560  1
  C  C1241  1  0.552710  0.232510  0.937800  1
  C  C1242  1  0.885090  0.705290  0.937800  1
  C  C1243  1  0.267490  0.947290  0.562200  1
  C  C1244  1  0.794710  0.614910  0.562200  1
  C  C1245  1  0.447290  0.767490  0.062200  1
  C  C1246  1  0.114910  0.294710  0.062200  1
  C  C1247  1  0.732510  0.052710  0.437800  1
  C  C1248  1  0.205290  0.385090  0.437800  1
  C  C1249  1  0.544150  0.250970  0.957720  1
  C  C1250  1  0.913570  0.706750  0.957720  1
  C  C1251  1  0.249030  0.955850  0.542280  1
  C  C1252  1  0.793250  0.586430  0.542280  1
  C  C1253  1  0.455850  0.749030  0.042280  1
  C  C1254  1  0.086430  0.293250  0.042280  1
  C  C1255  1  0.750970  0.044150  0.457720  1
  C  C1256  1  0.206750  0.413570  0.457720  1
  C  C1257  1  0.514490  0.249210  0.944080  1
  C  C1258  1  0.929590  0.694870  0.944080  1
  C  C1259  1  0.250790  0.985510  0.555920  1
  C  C1260  1  0.805130  0.570410  0.555920  1
  C  C1261  1  0.485510  0.750790  0.055920  1
  C  C1262  1  0.070410  0.305130  0.055920  1
  C  C1263  1  0.749210  0.014490  0.444080  1
  C  C1264  1  0.194870  0.429590  0.444080  1
  C  C1265  1  0.493380  0.228960  0.910500  1
  C  C1266  1  0.917120  0.681540  0.910500  1
  C  C1267  1  0.271040  0.006620  0.589500  1
  C  C1268  1  0.818460  0.582880  0.589500  1
  C  C1269  1  0.506620  0.771040  0.089500  1
  C  C1270  1  0.082880  0.318460  0.089500  1
  C  C1271  1  0.728960  0.993380  0.410500  1
  C  C1272  1  0.181540  0.417120  0.410500  1
  C  C1273  1  0.501930  0.210510  0.890580  1
  C  C1274  1  0.888650  0.680070  0.890580  1
  C  C1275  1  0.289490  0.998070  0.609420  1
  C  C1276  1  0.819930  0.611350  0.609420  1
  C  C1277  1  0.498070  0.789490  0.109420  1
  C  C1278  1  0.111350  0.319930  0.109420  1
  C  C1279  1  0.710510  0.001930  0.390580  1
  C  C1280  1  0.180070  0.388650  0.390580  1
  C  C1281  1  0.567120  0.273520  0.991840  1
  C  C1282  1  0.924720  0.718320  0.991840  1
  C  C1283  1  0.226480  0.932880  0.508160  1
  C  C1284  1  0.781680  0.575280  0.508160  1
  C  C1285  1  0.432880  0.726480  0.008160  1
  C  C1286  1  0.075280  0.281680  0.008160  1
  C  C1287  1  0.773520  0.067120  0.491840  1
  C  C1288  1  0.218320  0.424720  0.491840  1
  C  C1289  1  0.589620  0.267020  0.011240  1
  C  C1290  1  0.921620  0.744220  0.011240  1
  C  C1291  1  0.232980  0.910380  0.488760  1
  C  C1292  1  0.755780  0.578380  0.488760  1
  C  C1293  1  0.410380  0.732980  0.988760  1
  C  C1294  1  0.078380  0.255780  0.988760  1
  C  C1295  1  0.767020  0.089620  0.511240  1
  C  C1296  1  0.244220  0.421620  0.511240  1
  C  C1297  1  0.613490  0.316690  0.056180  1
  C  C1298  1  0.942690  0.739490  0.056180  1
  C  C1299  1  0.183310  0.886510  0.443820  1
  C  C1300  1  0.760510  0.557310  0.443820  1
  C  C1301  1  0.386510  0.683310  0.943820  1
  C  C1302  1  0.057310  0.260510  0.943820  1
  C  C1303  1  0.816690  0.113490  0.556180  1
  C  C1304  1  0.239490  0.442690  0.556180  1
  C  C1305  1  0.592110  0.325110  0.038420  1
  C  C1306  1  0.946310  0.713310  0.038420  1
  C  C1307  1  0.174890  0.907890  0.461580  1
  C  C1308  1  0.786690  0.553690  0.461580  1
  C  C1309  1  0.407890  0.674890  0.961580  1
  C  C1310  1  0.053690  0.286690  0.961580  1
  C  C1311  1  0.825110  0.092110  0.538420  1
  C  C1312  1  0.213310  0.446310  0.538420  1
  C  C1313  1  0.569990  0.304390  0.007380  1
  C  C1314  1  0.937390  0.702990  0.007380  1
  C  C1315  1  0.195610  0.930010  0.492620  1
  C  C1316  1  0.797010  0.562610  0.492620  1
  C  C1317  1  0.430010  0.695610  0.992620  1
  C  C1318  1  0.062610  0.297010  0.992620  1
  C  C1319  1  0.804390  0.069990  0.507380  1
  C  C1320  1  0.202990  0.437390  0.507380  1
  C  C1321  1  0.640000  0.337200  0.089400  1
  C  C1322  1  0.949400  0.752200  0.089400  1
  C  C1323  1  0.162800  0.860000  0.410600  1
  C  C1324  1  0.747800  0.550600  0.410600  1
  C  C1325  1  0.360000  0.662800  0.910600  1
  C  C1326  1  0.050600  0.247800  0.910600  1
  C  C1327  1  0.837200  0.140000  0.589400  1
  C  C1328  1  0.252200  0.449400  0.589400  1
  C  C1329  1  0.683600  0.350600  0.138800  1
  C  C1330  1  0.955200  0.788200  0.138800  1
  C  C1331  1  0.149400  0.816400  0.361200  1
  C  C1332  1  0.711800  0.544800  0.361200  1
  C  C1333  1  0.316400  0.649400  0.861200  1
  C  C1334  1  0.044800  0.211800  0.861200  1
  C  C1335  1  0.850600  0.183600  0.638800  1
  C  C1336  1  0.288200  0.455200  0.638800  1
  C  C1337  1  0.710050  0.348050  0.150900  1
  C  C1338  1  0.940850  0.802850  0.150900  1
  C  C1339  1  0.151950  0.789950  0.349100  1
  C  C1340  1  0.697150  0.559150  0.349100  1
  C  C1341  1  0.289950  0.651950  0.849100  1
  C  C1342  1  0.059150  0.197150  0.849100  1
  C  C1343  1  0.848050  0.210050  0.650900  1
  C  C1344  1  0.302850  0.440850  0.650900  1
  C  C1345  1  0.732480  0.366280  0.182360  1
  C  C1346  1  0.949880  0.816080  0.182360  1
  C  C1347  1  0.133720  0.767520  0.317640  1
  C  C1348  1  0.683920  0.550120  0.317640  1
  C  C1349  1  0.267520  0.633720  0.817640  1
  C  C1350  1  0.050120  0.183920  0.817640  1
  C  C1351  1  0.866280  0.232480  0.682360  1
  C  C1352  1  0.316080  0.449880  0.682360  1
  C  C1353  1  0.729700  0.389700  0.204000  1
  C  C1354  1  0.974300  0.814300  0.204000  1
  C  C1355  1  0.110300  0.770300  0.296000  1
  C  C1356  1  0.685700  0.525700  0.296000  1
  C  C1357  1  0.270300  0.610300  0.796000  1
  C  C1358  1  0.025700  0.185700  0.796000  1
  C  C1359  1  0.889700  0.229700  0.704000  1
  C  C1360  1  0.314300  0.474300  0.704000  1
  C  C1361  1  0.702600  0.393800  0.192600  1
  C  C1362  1  0.990000  0.798800  0.192600  1
  C  C1363  1  0.106200  0.797400  0.307400  1
  C  C1364  1  0.701200  0.510000  0.307400  1
  C  C1365  1  0.297400  0.606200  0.807400  1
  C  C1366  1  0.010000  0.201200  0.807400  1
  C  C1367  1  0.893800  0.202600  0.692600  1
  C  C1368  1  0.298800  0.490000  0.692600  1
  C  C1369  1  0.679900  0.375100  0.162400  1
  C  C1370  1  0.982500  0.787300  0.162400  1
  C  C1371  1  0.124900  0.820100  0.337600  1
  C  C1372  1  0.712700  0.517500  0.337600  1
  C  C1373  1  0.320100  0.624900  0.837600  1
  C  C1374  1  0.017500  0.212700  0.837600  1
  C  C1375  1  0.875100  0.179900  0.662400  1
  C  C1376  1  0.287300  0.482500  0.662400  1
  C  C1377  1  0.756400  0.409600  0.241400  1
  C  C1378  1  0.985000  0.831800  0.241400  1
  C  C1379  1  0.090400  0.743600  0.258600  1
  C  C1380  1  0.668200  0.515000  0.258600  1
  C  C1381  1  0.243600  0.590400  0.758600  1
  C  C1382  1  0.015000  0.168200  0.758600  1
  C  C1383  1  0.909600  0.256400  0.741400  1
  C  C1384  1  0.331800  0.485000  0.741400  1
  C  C1385  1  0.469000  0.050000  0.846800  1
  C  C1386  1  0.877800  0.796800  0.846800  1
  C  C1387  1  0.450000  0.031000  0.653200  1
  C  C1388  1  0.703200  0.622200  0.653200  1
  C  C1389  1  0.531000  0.950000  0.153200  1
  C  C1390  1  0.122200  0.203200  0.153200  1
  C  C1391  1  0.550000  0.969000  0.346800  1
  C  C1392  1  0.296800  0.377800  0.346800  1
  C  C1393  1  0.491870  0.080770  0.856980  1
  C  C1394  1  0.865110  0.776210  0.856980  1
  C  C1395  1  0.419230  0.008130  0.643020  1
  C  C1396  1  0.723790  0.634890  0.643020  1
  C  C1397  1  0.508130  0.919230  0.143020  1
  C  C1398  1  0.134890  0.223790  0.143020  1
  C  C1399  1  0.580770  0.991870  0.356980  1
  C  C1400  1  0.276210  0.365110  0.356980  1
  C  C1401  1  0.487900  0.107900  0.869760  1
  C  C1402  1  0.881860  0.761860  0.869760  1
  C  C1403  1  0.392100  0.012100  0.630240  1
  C  C1404  1  0.738140  0.618140  0.630240  1
  C  C1405  1  0.512100  0.892100  0.130240  1
  C  C1406  1  0.118140  0.238140  0.130240  1
  C  C1407  1  0.607900  0.987900  0.369760  1
  C  C1408  1  0.261860  0.381860  0.369760  1
  C  C1409  1  0.507360  0.133760  0.877500  1
  C  C1410  1  0.870140  0.743740  0.877500  1
  C  C1411  1  0.366240  0.992640  0.622500  1
  C  C1412  1  0.756260  0.629860  0.622500  1
  C  C1413  1  0.492640  0.866240  0.122500  1
  C  C1414  1  0.129860  0.256260  0.122500  1
  C  C1415  1  0.633760  0.007360  0.377500  1
  C  C1416  1  0.243740  0.370140  0.377500  1
  C  C1417  1  0.530780  0.132500  0.872440  1
  C  C1418  1  0.841660  0.739940  0.872440  1
  C  C1419  1  0.367500  0.969220  0.627560  1
  C  C1420  1  0.760060  0.658340  0.627560  1
  C  C1421  1  0.469220  0.867500  0.127560  1
  C  C1422  1  0.158340  0.260060  0.127560  1
  C  C1423  1  0.632500  0.030780  0.372440  1
  C  C1424  1  0.239940  0.341660  0.372440  1
  C  C1425  1  0.534720  0.105340  0.859660  1
  C  C1426  1  0.824940  0.754320  0.859660  1
  C  C1427  1  0.394660  0.965280  0.640340  1
  C  C1428  1  0.745680  0.675060  0.640340  1
  C  C1429  1  0.465280  0.894660  0.140340  1
  C  C1430  1  0.175060  0.245680  0.140340  1
  C  C1431  1  0.605340  0.034720  0.359660  1
  C  C1432  1  0.254320  0.324940  0.359660  1
  C  C1433  1  0.515270  0.079470  0.851940  1
  C  C1434  1  0.836670  0.772470  0.851940  1
  C  C1435  1  0.420530  0.984730  0.648060  1
  C  C1436  1  0.727530  0.663330  0.648060  1
  C  C1437  1  0.484730  0.920530  0.148060  1
  C  C1438  1  0.163330  0.227530  0.148060  1
  C  C1439  1  0.579470  0.015270  0.351940  1
  C  C1440  1  0.272470  0.336670  0.351940  1
  C  C1441  1  0.580100  0.165100  0.897600  1
  C  C1442  1  0.817500  0.732500  0.897600  1
  C  C1443  1  0.334900  0.919900  0.602400  1
  C  C1444  1  0.767500  0.682500  0.602400  1
  C  C1445  1  0.419900  0.834900  0.102400  1
  C  C1446  1  0.182500  0.267500  0.102400  1
  C  C1447  1  0.665100  0.080100  0.397600  1
  C  C1448  1  0.232500  0.317500  0.397600  1
  C  C1449  1  0.600750  0.191350  0.905500  1
  C  C1450  1  0.804750  0.714150  0.905500  1
  C  C1451  1  0.308650  0.899250  0.594500  1
  C  C1452  1  0.785850  0.695250  0.594500  1
  C  C1453  1  0.399250  0.808650  0.094500  1
  C  C1454  1  0.195250  0.285850  0.094500  1
  C  C1455  1  0.691350  0.100750  0.405500  1
  C  C1456  1  0.214150  0.304750  0.405500  1
  C  C1457  1  0.606510  0.233270  0.901580  1
  C  C1458  1  0.795070  0.668310  0.901580  1
  C  C1459  1  0.266730  0.893490  0.598420  1
  C  C1460  1  0.831690  0.704930  0.598420  1
  C  C1461  1  0.393490  0.766730  0.098420  1
  C  C1462  1  0.204930  0.331690  0.098420  1
  C  C1463  1  0.733270  0.106510  0.401580  1
  C  C1464  1  0.168310  0.295070  0.401580  1
  C  C1465  1  0.637960  0.241060  0.917020  1
  C  C1466  1  0.779060  0.675960  0.917020  1
  C  C1467  1  0.258940  0.862040  0.582980  1
  C  C1468  1  0.824040  0.720940  0.582980  1
  C  C1469  1  0.362040  0.758940  0.082980  1
  C  C1470  1  0.220940  0.324040  0.082980  1
  C  C1471  1  0.741060  0.137960  0.417020  1
  C  C1472  1  0.175960  0.279060  0.417020  1
  C  C1473  1  0.649910  0.222710  0.926620  1
  C  C1474  1  0.776710  0.703910  0.926620  1
  C  C1475  1  0.277290  0.850090  0.573380  1
  C  C1476  1  0.796090  0.723290  0.573380  1
  C  C1477  1  0.350090  0.777290  0.073380  1
  C  C1478  1  0.223290  0.296090  0.073380  1
  C  C1479  1  0.722710  0.149910  0.426620  1
  C  C1480  1  0.203910  0.276710  0.426620  1
  C  C1481  1  0.632450  0.198450  0.921500  1
  C  C1482  1  0.789050  0.723050  0.921500  1
  C  C1483  1  0.301550  0.867550  0.578500  1
  C  C1484  1  0.776950  0.710950  0.578500  1
  C  C1485  1  0.367550  0.801550  0.078500  1
  C  C1486  1  0.210950  0.276950  0.078500  1
  C  C1487  1  0.698450  0.132450  0.421500  1
  C  C1488  1  0.223050  0.289050  0.421500  1
  C  C1489  1  0.657740  0.268260  0.922000  1
  C  C1490  1  0.764260  0.653740  0.922000  1
  C  C1491  1  0.231740  0.842260  0.578000  1
  C  C1492  1  0.846260  0.735740  0.578000  1
  C  C1493  1  0.342260  0.731740  0.078000  1
  C  C1494  1  0.235740  0.346260  0.078000  1
  C  C1495  1  0.768260  0.157740  0.422000  1
  C  C1496  1  0.153740  0.264260  0.422000  1
  C  C1497  1  0.644200  0.282200  0.906200  1
  C  C1498  1  0.762000  0.624000  0.906200  1
  C  C1499  1  0.217800  0.855800  0.593800  1
  C  C1500  1  0.876000  0.738000  0.593800  1
  C  C1501  1  0.355800  0.717800  0.093800  1
  C  C1502  1  0.238000  0.376000  0.093800  1
  C  C1503  1  0.782200  0.144200  0.406200  1
  C  C1504  1  0.124000  0.262000  0.406200  1
  C  C1505  1  0.691300  0.316900  0.930200  1
  C  C1506  1  0.738900  0.613300  0.930200  1
  C  C1507  1  0.183100  0.808700  0.569800  1
  C  C1508  1  0.886700  0.761100  0.569800  1
  C  C1509  1  0.308700  0.683100  0.069800  1
  C  C1510  1  0.261100  0.386700  0.069800  1
  C  C1511  1  0.816900  0.191300  0.430200  1
  C  C1512  1  0.113300  0.238900  0.430200  1
  C  C1513  1  0.705200  0.304000  0.946200  1
  C  C1514  1  0.741000  0.642200  0.946200  1
  C  C1515  1  0.196000  0.794800  0.553800  1
  C  C1516  1  0.857800  0.759000  0.553800  1
  C  C1517  1  0.294800  0.696000  0.053800  1
  C  C1518  1  0.259000  0.357800  0.053800  1
  C  C1519  1  0.804000  0.205200  0.446200  1
  C  C1520  1  0.142200  0.241000  0.446200  1
  C  C1521  1  0.687750  0.279210  0.942360  1
  C  C1522  1  0.754610  0.663150  0.942360  1
  C  C1523  1  0.220790  0.812250  0.557640  1
  C  C1524  1  0.836850  0.745390  0.557640  1
  C  C1525  1  0.312250  0.720790  0.057640  1
  C  C1526  1  0.245390  0.336850  0.057640  1
  C  C1527  1  0.779210  0.187750  0.442360  1
  C  C1528  1  0.163150  0.254610  0.442360  1
  C  C1529  1  0.707100  0.342500  0.932600  1
  C  C1530  1  0.725500  0.590100  0.932600  1
  C  C1531  1  0.157500  0.792900  0.567400  1
  C  C1532  1  0.909900  0.774500  0.567400  1
  C  C1533  1  0.292900  0.657500  0.067400  1
  C  C1534  1  0.274500  0.409900  0.067400  1
  C  C1535  1  0.842500  0.207100  0.432600  1
  C  C1536  1  0.090100  0.225500  0.432600  1
  C  C1537  1  0.705100  0.378500  0.916800  1
  C  C1538  1  0.711700  0.538300  0.916800  1
  C  C1539  1  0.121500  0.794900  0.583200  1
  C  C1540  1  0.961700  0.788300  0.583200  1
  C  C1541  1  0.294900  0.621500  0.083200  1
  C  C1542  1  0.288300  0.461700  0.083200  1
  C  C1543  1  0.878500  0.205100  0.416800  1
  C  C1544  1  0.038300  0.211700  0.416800  1
  C  C1545  1  0.717000  0.409000  0.941600  1
  C  C1546  1  0.724600  0.532600  0.941600  1
  C  C1547  1  0.091000  0.783000  0.558400  1
  C  C1548  1  0.967400  0.775400  0.558400  1
  C  C1549  1  0.283000  0.591000  0.058400  1
  C  C1550  1  0.275400  0.467400  0.058400  1
  C  C1551  1  0.909000  0.217000  0.441600  1
  C  C1552  1  0.032600  0.224600  0.441600  1
  C  C1553  1  0.728600  0.430800  0.937600  1
  C  C1554  1  0.709000  0.506800  0.937600  1
  C  C1555  1  0.069200  0.771400  0.562400  1
  C  C1556  1  0.993200  0.791000  0.562400  1
  C  C1557  1  0.271400  0.569200  0.062400  1
  C  C1558  1  0.291000  0.493200  0.062400  1
  C  C1559  1  0.930800  0.228600  0.437600  1
  C  C1560  1  0.006800  0.209000  0.437600  1
  C  C1561  1  0.728400  0.422200  0.909200  1
  C  C1562  1  0.680800  0.487000  0.909200  1
  C  C1563  1  0.077800  0.771600  0.590800  1
  C  C1564  1  0.013000  0.819200  0.590800  1
  C  C1565  1  0.271600  0.577800  0.090800  1
  C  C1566  1  0.319200  0.513000  0.090800  1
  C  C1567  1  0.922200  0.228400  0.409200  1
  C  C1568  1  0.987000  0.180800  0.409200  1
  C  C1569  1  0.716600  0.391800  0.884600  1
  C  C1570  1  0.668000  0.492800  0.884600  1
  C  C1571  1  0.108200  0.783400  0.615400  1
  C  C1572  1  0.007200  0.832000  0.615400  1
  C  C1573  1  0.283400  0.608200  0.115400  1
  C  C1574  1  0.332000  0.507200  0.115400  1
  C  C1575  1  0.891800  0.216600  0.384600  1
  C  C1576  1  0.992800  0.168000  0.384600  1
  C  C1577  1  0.704900  0.369900  0.888400  1
  C  C1578  1  0.683500  0.518500  0.888400  1
  C  C1579  1  0.130100  0.795100  0.611600  1
  C  C1580  1  0.981500  0.816500  0.611600  1
  C  C1581  1  0.295100  0.630100  0.111600  1
  C  C1582  1  0.316500  0.481500  0.111600  1
  C  C1583  1  0.869900  0.204900  0.388400  1
  C  C1584  1  0.018500  0.183500  0.388400  1
  C  C1585  1  0.748500  0.453700  0.918000  1
  C  C1586  1  0.669500  0.464300  0.918000  1
  C  C1587  1  0.046300  0.751500  0.582000  1
  C  C1588  1  0.035700  0.830500  0.582000  1
  C  C1589  1  0.251500  0.546300  0.082000  1
  C  C1590  1  0.330500  0.535700  0.082000  1
  C  C1591  1  0.953700  0.248500  0.418000  1
  C  C1592  1  0.964300  0.169500  0.418000  1
  C  C1593  1  0.518000  0.323000  0.052600  1
  C  C1594  1  0.034600  0.729600  0.052600  1
  C  C1595  1  0.177000  0.982000  0.447400  1
  C  C1596  1  0.770400  0.465400  0.447400  1
  C  C1597  1  0.482000  0.677000  0.947400  1
  C  C1598  1  0.965400  0.270400  0.947400  1
  C  C1599  1  0.823000  0.018000  0.552600  1
  C  C1600  1  0.229600  0.534600  0.552600  1
  C  C1601  1  0.543500  0.312300  0.066000  1
  C  C1602  1  0.022500  0.753700  0.066000  1
  C  C1603  1  0.187700  0.956500  0.434000  1
  C  C1604  1  0.746300  0.477500  0.434000  1
  C  C1605  1  0.456500  0.687700  0.934000  1
  C  C1606  1  0.977500  0.246300  0.934000  1
  C  C1607  1  0.812300  0.043500  0.566000  1
  C  C1608  1  0.253700  0.522500  0.566000  1
  C  C1609  1  0.568000  0.332800  0.097800  1
  C  C1610  1  0.029800  0.765000  0.097800  1
  C  C1611  1  0.167200  0.932000  0.402200  1
  C  C1612  1  0.735000  0.470200  0.402200  1
  C  C1613  1  0.432000  0.667200  0.902200  1
  C  C1614  1  0.970200  0.235000  0.902200  1
  C  C1615  1  0.832800  0.068000  0.597800  1
  C  C1616  1  0.265000  0.529800  0.597800  1
  C  C1617  1  0.591700  0.324300  0.110800  1
  C  C1618  1  0.019100  0.786500  0.110800  1
  C  C1619  1  0.175700  0.908300  0.389200  1
  C  C1620  1  0.713500  0.480900  0.389200  1
  C  C1621  1  0.408300  0.675700  0.889200  1
  C  C1622  1  0.980900  0.213500  0.889200  1
  C  C1623  1  0.824300  0.091700  0.610800  1
  C  C1624  1  0.286500  0.519100  0.610800  1
  C  C1625  1  0.591520  0.296720  0.092640  1
  C  C1626  1  0.001120  0.795920  0.092640  1
  C  C1627  1  0.203280  0.908480  0.407360  1
  C  C1628  1  0.704080  0.498880  0.407360  1
  C  C1629  1  0.408480  0.703280  0.907360  1
  C  C1630  1  0.998880  0.204080  0.907360  1
  C  C1631  1  0.796720  0.091520  0.592640  1
  C  C1632  1  0.295920  0.501120  0.592640  1
  C  C1633  1  0.566400  0.277000  0.061000  1
  C  C1634  1  0.994600  0.784000  0.061000  1
  C  C1635  1  0.223000  0.933600  0.439000  1
  C  C1636  1  0.716000  0.505400  0.439000  1
  C  C1637  1  0.433600  0.723000  0.939000  1
  C  C1638  1  0.005400  0.216000  0.939000  1
  C  C1639  1  0.777000  0.066400  0.561000  1
  C  C1640  1  0.284000  0.494600  0.561000  1
  C  C1641  1  0.542500  0.284300  0.046800  1
  C  C1642  1  0.004300  0.762500  0.046800  1
  C  C1643  1  0.215700  0.957500  0.453200  1
  C  C1644  1  0.737500  0.495700  0.453200  1
  C  C1645  1  0.457500  0.715700  0.953200  1
  C  C1646  1  0.995700  0.237500  0.953200  1
  C  C1647  1  0.784300  0.042500  0.546800  1
  C  C1648  1  0.262500  0.504300  0.546800  1
  C  C1649  1  0.632550  0.294650  0.130800  1
  C  C1650  1  0.998250  0.836150  0.130800  1
  C  C1651  1  0.205350  0.867450  0.369200  1
  C  C1652  1  0.663850  0.501750  0.369200  1
  C  C1653  1  0.367450  0.705350  0.869200  1
  C  C1654  1  0.001750  0.163850  0.869200  1
  C  C1655  1  0.794650  0.132550  0.630800  1
  C  C1656  1  0.336150  0.498250  0.630800  1
  C  C1657  1  0.661280  0.291520  0.144000  1
  C  C1658  1  0.982720  0.852480  0.144000  1
  C  C1659  1  0.208480  0.838720  0.356000  1
  C  C1660  1  0.647520  0.517280  0.356000  1
  C  C1661  1  0.338720  0.708480  0.856000  1
  C  C1662  1  0.017280  0.147520  0.856000  1
  C  C1663  1  0.791520  0.161280  0.644000  1
  C  C1664  1  0.352480  0.482720  0.644000  1
  C  C1665  1  0.695700  0.277300  0.130200  1
  C  C1666  1  0.934500  0.852900  0.130200  1
  C  C1667  1  0.222700  0.804300  0.369800  1
  C  C1668  1  0.647100  0.565500  0.369800  1
  C  C1669  1  0.304300  0.722700  0.869800  1
  C  C1670  1  0.065500  0.147100  0.869800  1
  C  C1671  1  0.777300  0.195700  0.630200  1
  C  C1672  1  0.352900  0.434500  0.630200  1
  C  C1673  1  0.715100  0.283700  0.161600  1
  C  C1674  1  0.946500  0.877900  0.161600  1
  C  C1675  1  0.216300  0.784900  0.338400  1
  C  C1676  1  0.622100  0.553500  0.338400  1
  C  C1677  1  0.284900  0.716300  0.838400  1
  C  C1678  1  0.053500  0.122100  0.838400  1
  C  C1679  1  0.783700  0.215100  0.661600  1
  C  C1680  1  0.377900  0.446500  0.661600  1
  C  C1681  1  0.706800  0.296800  0.185400  1
  C  C1682  1  0.978600  0.888600  0.185400  1
  C  C1683  1  0.203200  0.793200  0.314600  1
  C  C1684  1  0.611400  0.521400  0.314600  1
  C  C1685  1  0.293200  0.703200  0.814600  1
  C  C1686  1  0.021400  0.111400  0.814600  1
  C  C1687  1  0.796800  0.206800  0.685400  1
  C  C1688  1  0.388600  0.478600  0.685400  1
  C  C1689  1  0.681100  0.300100  0.177000  1
  C  C1690  1  0.995900  0.876900  0.177000  1
  C  C1691  1  0.199900  0.818900  0.323000  1
  C  C1692  1  0.623100  0.504100  0.323000  1
  C  C1693  1  0.318900  0.699900  0.823000  1
  C  C1694  1  0.004100  0.123100  0.823000  1
  C  C1695  1  0.800100  0.181100  0.677000  1
  C  C1696  1  0.376900  0.495900  0.677000  1
  C  C1697  1  0.746500  0.283700  0.172600  1
  C  C1698  1  0.926100  0.888900  0.172600  1
  C  C1699  1  0.216300  0.753500  0.327400  1
  C  C1700  1  0.611100  0.573900  0.327400  1
  C  C1701  1  0.253500  0.716300  0.827400  1
  C  C1702  1  0.073900  0.111100  0.827400  1
  C  C1703  1  0.783700  0.246500  0.672600  1
  C  C1704  1  0.388900  0.426100  0.672600  1
  C  C1705  1  0.750000  0.257800  0.151000  1
  C  C1706  1  0.901000  0.893200  0.151000  1
  C  C1707  1  0.242200  0.750000  0.349000  1
  C  C1708  1  0.606800  0.599000  0.349000  1
  C  C1709  1  0.250000  0.742200  0.849000  1
  C  C1710  1  0.099000  0.106800  0.849000  1
  C  C1711  1  0.757800  0.250000  0.651000  1
  C  C1712  1  0.393200  0.401000  0.651000  1
  C  C1713  1  0.799200  0.277600  0.185200  1
  C  C1714  1  0.886000  0.907600  0.185200  1
  C  C1715  1  0.222400  0.700800  0.314800  1
  C  C1716  1  0.592400  0.614000  0.314800  1
  C  C1717  1  0.200800  0.722400  0.814800  1
  C  C1718  1  0.114000  0.092400  0.814800  1
  C  C1719  1  0.777600  0.299200  0.685200  1
  C  C1720  1  0.407600  0.386000  0.685200  1
  C  C1721  1  0.800400  0.304600  0.210200  1
  C  C1722  1  0.909800  0.905600  0.210200  1
  C  C1723  1  0.195400  0.699600  0.289800  1
  C  C1724  1  0.594400  0.590200  0.289800  1
  C  C1725  1  0.199600  0.695400  0.789800  1
  C  C1726  1  0.090200  0.094400  0.789800  1
  C  C1727  1  0.804600  0.300400  0.710200  1
  C  C1728  1  0.405600  0.409800  0.710200  1
  C  C1729  1  0.771700  0.305100  0.202600  1
  C  C1730  1  0.930900  0.897500  0.202600  1
  C  C1731  1  0.194900  0.728300  0.297400  1
  C  C1732  1  0.602500  0.569100  0.297400  1
  C  C1733  1  0.228300  0.694900  0.797400  1
  C  C1734  1  0.069100  0.102500  0.797400  1
  C  C1735  1  0.805100  0.271700  0.702600  1
  C  C1736  1  0.397500  0.430900  0.702600  1
  C  C1737  1  0.829700  0.277700  0.193000  1
  C  C1738  1  0.863300  0.915300  0.193000  1
  C  C1739  1  0.222300  0.670300  0.307000  1
  C  C1740  1  0.584700  0.636700  0.307000  1
  C  C1741  1  0.170300  0.722300  0.807000  1
  C  C1742  1  0.136700  0.084700  0.807000  1
  C  C1743  1  0.777700  0.329700  0.693000  1
  C  C1744  1  0.415300  0.363300  0.693000  1
  C  C1745  1  0.858000  0.250000  0.179000  1
  C  C1746  1  0.821000  0.929000  0.179000  1
  C  C1747  1  0.250000  0.642000  0.321000  1
  C  C1748  1  0.571000  0.679000  0.321000  1
  C  C1749  1  0.142000  0.750000  0.821000  1
  C  C1750  1  0.179000  0.071000  0.821000  1
  C  C1751  1  0.750000  0.358000  0.679000  1
  C  C1752  1  0.429000  0.321000  0.679000  1
  C  C1753  1  0.863000  0.236800  0.152800  1
  C  C1754  1  0.789800  0.916000  0.152800  1
  C  C1755  1  0.263200  0.637000  0.347200  1
  C  C1756  1  0.584000  0.710200  0.347200  1
  C  C1757  1  0.137000  0.763200  0.847200  1
  C  C1758  1  0.210200  0.084000  0.847200  1
  C  C1759  1  0.736800  0.363000  0.652800  1
  C  C1760  1  0.416000  0.289800  0.652800  1
  C  C1761  1  0.891500  0.234300  0.159200  1
  C  C1762  1  0.767700  0.924900  0.159200  1
  C  C1763  1  0.265700  0.608500  0.340800  1
  C  C1764  1  0.575100  0.732300  0.340800  1
  C  C1765  1  0.108500  0.765700  0.840800  1
  C  C1766  1  0.232300  0.075100  0.840800  1
  C  C1767  1  0.734300  0.391500  0.659200  1
  C  C1768  1  0.424900  0.267700  0.659200  1
  C  C1769  1  0.912700  0.242500  0.191800  1
  C  C1770  1  0.779100  0.949300  0.191800  1
  C  C1771  1  0.257500  0.587300  0.308200  1
  C  C1772  1  0.550700  0.720900  0.308200  1
  C  C1773  1  0.087300  0.757500  0.808200  1
  C  C1774  1  0.220900  0.050700  0.808200  1
  C  C1775  1  0.742500  0.412700  0.691800  1
  C  C1776  1  0.449300  0.279100  0.691800  1
  C  C1777  1  0.909800  0.258600  0.217400  1
  C  C1778  1  0.807600  0.958800  0.217400  1
  C  C1779  1  0.241400  0.590200  0.282600  1
  C  C1780  1  0.541200  0.692400  0.282600  1
  C  C1781  1  0.090200  0.741400  0.782600  1
  C  C1782  1  0.192400  0.041200  0.782600  1
  C  C1783  1  0.758600  0.409800  0.717400  1
  C  C1784  1  0.458800  0.307600  0.717400  1
  C  C1785  1  0.883400  0.261000  0.212400  1
  C  C1786  1  0.829000  0.951400  0.212400  1
  C  C1787  1  0.239000  0.616600  0.287600  1
  C  C1788  1  0.548600  0.671000  0.287600  1
  C  C1789  1  0.116600  0.739000  0.787600  1
  C  C1790  1  0.171000  0.048600  0.787600  1
  C  C1791  1  0.761000  0.383400  0.712400  1
  C  C1792  1  0.451400  0.329000  0.712400  1
  C  C1793  1  0.943500  0.236700  0.195400  1
  C  C1794  1  0.751900  0.958700  0.195400  1
  C  C1795  1  0.263300  0.556500  0.304600  1
  C  C1796  1  0.541300  0.748100  0.304600  1
  C  C1797  1  0.056500  0.763300  0.804600  1
  C  C1798  1  0.248100  0.041300  0.804600  1
  C  C1799  1  0.736700  0.443500  0.695400  1
  C  C1800  1  0.458700  0.251900  0.695400  1
  C  C1801  1  0.559700  0.137500  0.045400  1
  C  C1802  1  0.985700  0.907900  0.045400  1
  C  C1803  1  0.362500  0.940300  0.454600  1
  C  C1804  1  0.592100  0.514300  0.454600  1
  C  C1805  1  0.440300  0.862500  0.954600  1
  C  C1806  1  0.014300  0.092100  0.954600  1
  C  C1807  1  0.637500  0.059700  0.545400  1
  C  C1808  1  0.407900  0.485700  0.545400  1
  C  C1809  1  0.579300  0.161700  0.046800  1
  C  C1810  1  0.967500  0.885100  0.046800  1
  C  C1811  1  0.338300  0.920700  0.453200  1
  C  C1812  1  0.614900  0.532500  0.453200  1
  C  C1813  1  0.420700  0.838300  0.953200  1
  C  C1814  1  0.032500  0.114900  0.953200  1
  C  C1815  1  0.661700  0.079300  0.546800  1
  C  C1816  1  0.385100  0.467500  0.546800  1
  C  C1817  1  0.597200  0.156200  0.036000  1
  C  C1818  1  0.938800  0.879800  0.036000  1
  C  C1819  1  0.343800  0.902800  0.464000  1
  C  C1820  1  0.620200  0.561200  0.464000  1
  C  C1821  1  0.402800  0.843800  0.964000  1
  C  C1822  1  0.061200  0.120200  0.964000  1
  C  C1823  1  0.656200  0.097200  0.536000  1
  C  C1824  1  0.379800  0.438800  0.536000  1
  C  C1825  1  0.614600  0.179600  0.037200  1
  C  C1826  1  0.922600  0.857600  0.037200  1
  C  C1827  1  0.320400  0.885400  0.462800  1
  C  C1828  1  0.642400  0.577400  0.462800  1
  C  C1829  1  0.385400  0.820400  0.962800  1
  C  C1830  1  0.077400  0.142400  0.962800  1
  C  C1831  1  0.679600  0.114600  0.537200  1
  C  C1832  1  0.357600  0.422600  0.537200  1
  C  C1833  1  0.613860  0.207860  0.049120  1
  C  C1834  1  0.935260  0.841260  0.049120  1
  C  C1835  1  0.292140  0.886140  0.450880  1
  C  C1836  1  0.658740  0.564740  0.450880  1
  C  C1837  1  0.386140  0.792140  0.950880  1
  C  C1838  1  0.064740  0.158740  0.950880  1
  C  C1839  1  0.707860  0.113860  0.549120  1
  C  C1840  1  0.341260  0.435260  0.549120  1
  C  C1841  1  0.596600  0.213800  0.061600  1
  C  C1842  1  0.965000  0.847800  0.061600  1
  C  C1843  1  0.286200  0.903400  0.438400  1
  C  C1844  1  0.652200  0.535000  0.438400  1
  C  C1845  1  0.403400  0.786200  0.938400  1
  C  C1846  1  0.035000  0.152200  0.938400  1
  C  C1847  1  0.713800  0.096600  0.561600  1
  C  C1848  1  0.347800  0.465000  0.561600  1
  C  C1849  1  0.577800  0.190200  0.060400  1
  C  C1850  1  0.982600  0.870200  0.060400  1
  C  C1851  1  0.309800  0.922200  0.439600  1
  C  C1852  1  0.629800  0.517400  0.439600  1
  C  C1853  1  0.422200  0.809800  0.939600  1
  C  C1854  1  0.017400  0.129800  0.939600  1
  C  C1855  1  0.690200  0.077800  0.560400  1
  C  C1856  1  0.370200  0.482600  0.560400  1
  C  C1857  1  0.641600  0.224000  0.032200  1
  C  C1858  1  0.890600  0.808200  0.032200  1
  C  C1859  1  0.276000  0.858400  0.467800  1
  C  C1860  1  0.691800  0.609400  0.467800  1
  C  C1861  1  0.358400  0.776000  0.967800  1
  C  C1862  1  0.109400  0.191800  0.967800  1
  C  C1863  1  0.724000  0.141600  0.532200  1
  C  C1864  1  0.308200  0.390600  0.532200  1
  C  C1865  1  0.660660  0.248500  0.034620  1
  C  C1866  1  0.873960  0.786120  0.034620  1
  C  C1867  1  0.251500  0.839340  0.465380  1
  C  C1868  1  0.713880  0.626040  0.465380  1
  C  C1869  1  0.339340  0.751500  0.965380  1
  C  C1870  1  0.126040  0.213880  0.965380  1
  C  C1871  1  0.748500  0.160660  0.534620  1
  C  C1872  1  0.286120  0.373960  0.534620  1
  C  C1873  1  0.687480  0.299060  0.061740  1
  C  C1874  1  0.874260  0.762680  0.061740  1
  C  C1875  1  0.200940  0.812520  0.438260  1
  C  C1876  1  0.737320  0.625740  0.438260  1
  C  C1877  1  0.312520  0.700940  0.938260  1
  C  C1878  1  0.125740  0.237320  0.938260  1
  C  C1879  1  0.799060  0.187480  0.561740  1
  C  C1880  1  0.262680  0.374260  0.561740  1
  C  C1881  1  0.699400  0.294160  0.043160  1
  C  C1882  1  0.843760  0.749000  0.043160  1
  C  C1883  1  0.205840  0.800600  0.456840  1
  C  C1884  1  0.751000  0.656240  0.456840  1
  C  C1885  1  0.300600  0.705840  0.956840  1
  C  C1886  1  0.156240  0.251000  0.956840  1
  C  C1887  1  0.794160  0.199400  0.543160  1
  C  C1888  1  0.249000  0.343760  0.543160  1
  C  C1889  1  0.691100  0.264100  0.018200  1
  C  C1890  1  0.827100  0.754100  0.018200  1
  C  C1891  1  0.235900  0.808900  0.481800  1
  C  C1892  1  0.745900  0.672900  0.481800  1
  C  C1893  1  0.308900  0.735900  0.981800  1
  C  C1894  1  0.172900  0.245900  0.981800  1
  C  C1895  1  0.764100  0.191100  0.518200  1
  C  C1896  1  0.254100  0.327100  0.518200  1
  C  C1897  1  0.671340  0.241140  0.014280  1
  C  C1898  1  0.842940  0.773140  0.014280  1
  C  C1899  1  0.258860  0.828660  0.485720  1
  C  C1900  1  0.726860  0.657060  0.485720  1
  C  C1901  1  0.328660  0.758860  0.985720  1
  C  C1902  1  0.157060  0.226860  0.985720  1
  C  C1903  1  0.741140  0.171340  0.514280  1
  C  C1904  1  0.273140  0.342940  0.514280  1
  C  C1905  1  0.719410  0.318590  0.047400  1
  C  C1906  1  0.827990  0.728810  0.047400  1
  C  C1907  1  0.181410  0.780590  0.452600  1
  C  C1908  1  0.771190  0.672010  0.452600  1
  C  C1909  1  0.280590  0.681410  0.952600  1
  C  C1910  1  0.172010  0.271190  0.952600  1
  C  C1911  1  0.818590  0.219410  0.547400  1
  C  C1912  1  0.228810  0.327990  0.547400  1
  C  C1913  1  0.724700  0.349700  0.067000  1
  C  C1914  1  0.842300  0.717300  0.067000  1
  C  C1915  1  0.150300  0.775300  0.433000  1
  C  C1916  1  0.782700  0.657700  0.433000  1
  C  C1917  1  0.275300  0.650300  0.933000  1
  C  C1918  1  0.157700  0.282700  0.933000  1
  C  C1919  1  0.849700  0.224700  0.567000  1
  C  C1920  1  0.217300  0.342300  0.567000  1
  C  C1921  1  0.760200  0.367800  0.059000  1
  C  C1922  1  0.798800  0.691200  0.059000  1
  C  C1923  1  0.132200  0.739800  0.441000  1
  C  C1924  1  0.808800  0.701200  0.441000  1
  C  C1925  1  0.239800  0.632200  0.941000  1
  C  C1926  1  0.201200  0.308800  0.941000  1
  C  C1927  1  0.867800  0.260200  0.559000  1
  C  C1928  1  0.191200  0.298800  0.559000  1
  C  C1929  1  0.756900  0.337900  0.039200  1
  C  C1930  1  0.782300  0.701300  0.039200  1
  C  C1931  1  0.162100  0.743100  0.460800  1
  C  C1932  1  0.798700  0.717700  0.460800  1
  C  C1933  1  0.243100  0.662100  0.960800  1
  C  C1934  1  0.217700  0.298700  0.960800  1
  C  C1935  1  0.837900  0.256900  0.539200  1
  C  C1936  1  0.201300  0.282300  0.539200  1
  C  C1937  1  0.738200  0.313200  0.033000  1
  C  C1938  1  0.794800  0.719800  0.033000  1
  C  C1939  1  0.186800  0.761800  0.467000  1
  C  C1940  1  0.780200  0.705200  0.467000  1
  C  C1941  1  0.261800  0.686800  0.967000  1
  C  C1942  1  0.205200  0.280200  0.967000  1
  C  C1943  1  0.813200  0.238200  0.533000  1
  C  C1944  1  0.219800  0.294800  0.533000  1
  C  C1945  1  0.781700  0.394300  0.068200  1
  C  C1946  1  0.786500  0.673900  0.068200  1
  C  C1947  1  0.105700  0.718300  0.431800  1
  C  C1948  1  0.826100  0.713500  0.431800  1
  C  C1949  1  0.218300  0.605700  0.931800  1
  C  C1950  1  0.213500  0.326100  0.931800  1
  C  C1951  1  0.894300  0.281700  0.568200  1
  C  C1952  1  0.173900  0.286500  0.568200  1
  C  C1953  1  0.805500  0.444500  0.094000  1
  C  C1954  1  0.788500  0.649500  0.094000  1
  C  C1955  1  0.055500  0.694500  0.406000  1
  C  C1956  1  0.850500  0.711500  0.406000  1
  C  C1957  1  0.194500  0.555500  0.906000  1
  C  C1958  1  0.211500  0.350500  0.906000  1
  C  C1959  1  0.944500  0.305500  0.594000  1
  C  C1960  1  0.149500  0.288500  0.594000  1
  C  C1961  1  0.797140  0.468660  0.095200  1
  C  C1962  1  0.798060  0.626540  0.095200  1
  C  C1963  1  0.031340  0.702860  0.404800  1
  C  C1964  1  0.873460  0.701940  0.404800  1
  C  C1965  1  0.202860  0.531340  0.904800  1
  C  C1966  1  0.201940  0.373460  0.904800  1
  C  C1967  1  0.968660  0.297140  0.595200  1
  C  C1968  1  0.126540  0.298060  0.595200  1
  C  C1969  1  0.817500  0.494100  0.103400  1
  C  C1970  1  0.785900  0.609300  0.103400  1
  C  C1971  1  0.005900  0.682500  0.396600  1
  C  C1972  1  0.890700  0.714100  0.396600  1
  C  C1973  1  0.182500  0.505900  0.896600  1
  C  C1974  1  0.214100  0.390700  0.896600  1
  C  C1975  1  0.994100  0.317500  0.603400  1
  C  C1976  1  0.109300  0.285900  0.603400  1
  C  C1977  1  0.846200  0.495600  0.110400  1
  C  C1978  1  0.764200  0.614800  0.110400  1
  C  C1979  1  0.004400  0.653800  0.389600  1
  C  C1980  1  0.885200  0.735800  0.389600  1
  C  C1981  1  0.153800  0.504400  0.889600  1
  C  C1982  1  0.235800  0.385200  0.889600  1
  C  C1983  1  0.995600  0.346200  0.610400  1
  C  C1984  1  0.114800  0.264200  0.610400  1
  C  C1985  1  0.854600  0.471400  0.109200  1
  C  C1986  1  0.754600  0.637800  0.109200  1
  C  C1987  1  0.028600  0.645400  0.390800  1
  C  C1988  1  0.862200  0.745400  0.390800  1
  C  C1989  1  0.145400  0.528600  0.890800  1
  C  C1990  1  0.245400  0.362200  0.890800  1
  C  C1991  1  0.971400  0.354600  0.609200  1
  C  C1992  1  0.137800  0.254600  0.609200  1
  C  C1993  1  0.834230  0.445970  0.101000  1
  C  C1994  1  0.766770  0.655030  0.101000  1
  C  C1995  1  0.054030  0.665770  0.399000  1
  C  C1996  1  0.844970  0.733230  0.399000  1
  C  C1997  1  0.165770  0.554030  0.899000  1
  C  C1998  1  0.233230  0.344970  0.899000  1
  C  C1999  1  0.945970  0.334230  0.601000  1
  C  C2000  1  0.155030  0.266770  0.601000  1
  C  C2001  1  0.869100  0.522300  0.116400  1
  C  C2002  1  0.747300  0.594100  0.116400  1
  C  C2003  1  0.977700  0.630900  0.383600  1
  C  C2004  1  0.905900  0.752700  0.383600  1
  C  C2005  1  0.130900  0.477700  0.883600  1
  C  C2006  1  0.252700  0.405900  0.883600  1
  C  C2007  1  0.022300  0.369100  0.616400  1
  C  C2008  1  0.094100  0.247300  0.616400  1
  C  C2009  1  0.659300  0.099900  0.090600  1
  C  C2010  1  0.931300  0.990700  0.090600  1
  C  C2011  1  0.400100  0.840700  0.409400  1
  C  C2012  1  0.509300  0.568700  0.409400  1
  C  C2013  1  0.340700  0.900100  0.909400  1
  C  C2014  1  0.068700  0.009300  0.909400  1
  C  C2015  1  0.599900  0.159300  0.590600  1
  C  C2016  1  0.490700  0.431300  0.590600  1
  C  C2017  1  0.680300  0.124700  0.093400  1
  C  C2018  1  0.913100  0.968700  0.093400  1
  C  C2019  1  0.375300  0.819700  0.406600  1
  C  C2020  1  0.531300  0.586900  0.406600  1
  C  C2021  1  0.319700  0.875300  0.906600  1
  C  C2022  1  0.086900  0.031300  0.906600  1
  C  C2023  1  0.624700  0.180300  0.593400  1
  C  C2024  1  0.468700  0.413100  0.593400  1
  C  C2025  1  0.709800  0.129000  0.104200  1
  C  C2026  1  0.894400  0.975200  0.104200  1
  C  C2027  1  0.371000  0.790200  0.395800  1
  C  C2028  1  0.524800  0.605600  0.395800  1
  C  C2029  1  0.290200  0.871000  0.895800  1
  C  C2030  1  0.105600  0.024800  0.895800  1
  C  C2031  1  0.629000  0.209800  0.604200  1
  C  C2032  1  0.475200  0.394400  0.604200  1
  C  C2033  1  0.730200  0.147600  0.103600  1
  C  C2034  1  0.873400  0.956000  0.103600  1
  C  C2035  1  0.352400  0.769800  0.396400  1
  C  C2036  1  0.544000  0.626600  0.396400  1
  C  C2037  1  0.269800  0.852400  0.896400  1
  C  C2038  1  0.126600  0.044000  0.896400  1
  C  C2039  1  0.647600  0.230200  0.603600  1
  C  C2040  1  0.456000  0.373400  0.603600  1
  C  C2041  1  0.719700  0.166700  0.094800  1
  C  C2042  1  0.875100  0.928100  0.094800  1
  C  C2043  1  0.333300  0.780300  0.405200  1
  C  C2044  1  0.571900  0.624900  0.405200  1
  C  C2045  1  0.280300  0.833300  0.905200  1
  C  C2046  1  0.124900  0.071900  0.905200  1
  C  C2047  1  0.666700  0.219700  0.594800  1
  C  C2048  1  0.428100  0.375100  0.594800  1
  C  C2049  1  0.690400  0.165200  0.085600  1
  C  C2050  1  0.895200  0.920400  0.085600  1
  C  C2051  1  0.334800  0.809600  0.414400  1
  C  C2052  1  0.579600  0.604800  0.414400  1
  C  C2053  1  0.309600  0.834800  0.914400  1
  C  C2054  1  0.104800  0.079600  0.914400  1
  C  C2055  1  0.665200  0.190400  0.585600  1
  C  C2056  1  0.420400  0.395200  0.585600  1
  C  C2057  1  0.670400  0.143200  0.084200  1
  C  C2058  1  0.913800  0.941000  0.084200  1
  C  C2059  1  0.356800  0.829600  0.415800  1
  C  C2060  1  0.559000  0.586200  0.415800  1
  C  C2061  1  0.329600  0.856800  0.915800  1
  C  C2062  1  0.086200  0.059000  0.915800  1
  C  C2063  1  0.643200  0.170400  0.584200  1
  C  C2064  1  0.441000  0.413800  0.584200  1
  C  C2065  1  0.728900  0.189900  0.071000  1
  C  C2066  1  0.842100  0.881100  0.071000  1
  C  C2067  1  0.310100  0.771100  0.429000  1
  C  C2068  1  0.618900  0.657900  0.429000  1
  C  C2069  1  0.271100  0.810100  0.929000  1
  C  C2070  1  0.157900  0.118900  0.929000  1
  C  C2071  1  0.689900  0.228900  0.571000  1
  C  C2072  1  0.381100  0.342100  0.571000  1
  C  C2073  1  0.748900  0.211100  0.070200  1
  C  C2074  1  0.821300  0.859100  0.070200  1
  C  C2075  1  0.288900  0.751100  0.429800  1
  C  C2076  1  0.640900  0.678700  0.429800  1
  C  C2077  1  0.251100  0.788900  0.929800  1
  C  C2078  1  0.178700  0.140900  0.929800  1
  C  C2079  1  0.711100  0.248900  0.570200  1
  C  C2080  1  0.359100  0.321300  0.570200  1
  C  C2081  1  0.795020  0.247280  0.098100  1
  C  C2082  1  0.803080  0.850820  0.098100  1
  C  C2083  1  0.252720  0.704980  0.401900  1
  C  C2084  1  0.649180  0.696920  0.401900  1
  C  C2085  1  0.204980  0.752720  0.901900  1
  C  C2086  1  0.196920  0.149180  0.901900  1
  C  C2087  1  0.747280  0.295020  0.598100  1
  C  C2088  1  0.350820  0.303080  0.598100  1
  C  C2089  1  0.786350  0.255350  0.074500  1
  C  C2090  1  0.788150  0.819150  0.074500  1
  C  C2091  1  0.244650  0.713650  0.425500  1
  C  C2092  1  0.680850  0.711850  0.425500  1
  C  C2093  1  0.213650  0.744650  0.925500  1
  C  C2094  1  0.211850  0.180850  0.925500  1
  C  C2095  1  0.755350  0.286350  0.574500  1
  C  C2096  1  0.319150  0.288150  0.574500  1
  C  C2097  1  0.756800  0.240000  0.047600  1
  C  C2098  1  0.790800  0.807600  0.047600  1
  C  C2099  1  0.260000  0.743200  0.452400  1
  C  C2100  1  0.692400  0.709200  0.452400  1
  C  C2101  1  0.243200  0.760000  0.952400  1
  C  C2102  1  0.209200  0.192400  0.952400  1
  C  C2103  1  0.740000  0.256800  0.547600  1
  C  C2104  1  0.307600  0.290800  0.547600  1
  C  C2105  1  0.737400  0.216400  0.045000  1
  C  C2106  1  0.807600  0.828600  0.045000  1
  C  C2107  1  0.283600  0.762600  0.455000  1
  C  C2108  1  0.671400  0.692400  0.455000  1
  C  C2109  1  0.262600  0.783600  0.955000  1
  C  C2110  1  0.192400  0.171400  0.955000  1
  C  C2111  1  0.716400  0.237400  0.545000  1
  C  C2112  1  0.328600  0.307600  0.545000  1
  C  C2113  1  0.808060  0.280520  0.078780  1
  C  C2114  1  0.770720  0.798260  0.078780  1
  C  C2115  1  0.219480  0.691940  0.421220  1
  C  C2116  1  0.701740  0.729280  0.421220  1
  C  C2117  1  0.191940  0.719480  0.921220  1
  C  C2118  1  0.229280  0.201740  0.921220  1
  C  C2119  1  0.780520  0.308060  0.578780  1
  C  C2120  1  0.298260  0.270720  0.578780  1
  C  C2121  1  0.833700  0.300700  0.106800  1
  C  C2122  1  0.773100  0.806100  0.106800  1
  C  C2123  1  0.199300  0.666300  0.393200  1
  C  C2124  1  0.693900  0.726900  0.393200  1
  C  C2125  1  0.166300  0.699300  0.893200  1
  C  C2126  1  0.226900  0.193900  0.893200  1
  C  C2127  1  0.800700  0.333700  0.606800  1
  C  C2128  1  0.306100  0.273100  0.606800  1
  C  C2129  1  0.846000  0.325200  0.085000  1
  C  C2130  1  0.739000  0.759800  0.085000  1
  C  C2131  1  0.174800  0.654000  0.415000  1
  C  C2132  1  0.740200  0.761000  0.415000  1
  C  C2133  1  0.154000  0.674800  0.915000  1
  C  C2134  1  0.261000  0.240200  0.915000  1
  C  C2135  1  0.825200  0.346000  0.585000  1
  C  C2136  1  0.259800  0.239000  0.585000  1
  C  C2137  1  0.819500  0.304900  0.054600  1
  C  C2138  1  0.735100  0.749700  0.054600  1
  C  C2139  1  0.195100  0.680500  0.445400  1
  C  C2140  1  0.750300  0.764900  0.445400  1
  C  C2141  1  0.180500  0.695100  0.945400  1
  C  C2142  1  0.264900  0.250300  0.945400  1
  C  C2143  1  0.804900  0.319500  0.554600  1
  C  C2144  1  0.249700  0.235100  0.554600  1
  C  C2145  1  0.800000  0.282400  0.051400  1
  C  C2146  1  0.751400  0.769000  0.051400  1
  C  C2147  1  0.217600  0.700000  0.448600  1
  C  C2148  1  0.731000  0.748600  0.448600  1
  C  C2149  1  0.200000  0.717600  0.948600  1
  C  C2150  1  0.248600  0.231000  0.948600  1
  C  C2151  1  0.782400  0.300000  0.551400  1
  C  C2152  1  0.269000  0.251400  0.551400  1
  C  C2153  1  0.868000  0.349600  0.091200  1
  C  C2154  1  0.723200  0.741600  0.091200  1
  C  C2155  1  0.150400  0.632000  0.408800  1
  C  C2156  1  0.758400  0.776800  0.408800  1
  C  C2157  1  0.132000  0.650400  0.908800  1
  C  C2158  1  0.276800  0.258400  0.908800  1
  C  C2159  1  0.849600  0.368000  0.591200  1
  C  C2160  1  0.241600  0.223200  0.591200  1
  C  C2161  1  0.934500  0.409300  0.144800  1
  C  C2162  1  0.710300  0.735500  0.144800  1
  C  C2163  1  0.090700  0.565500  0.355200  1
  C  C2164  1  0.764500  0.789700  0.355200  1
  C  C2165  1  0.065500  0.590700  0.855200  1
  C  C2166  1  0.289700  0.264500  0.855200  1
  C  C2167  1  0.909300  0.434500  0.644800  1
  C  C2168  1  0.235500  0.210300  0.644800  1
  C  C2169  1  0.949400  0.434600  0.147600  1
  C  C2170  1  0.698200  0.713000  0.147600  1
  C  C2171  1  0.065400  0.550600  0.352400  1
  C  C2172  1  0.787000  0.801800  0.352400  1
  C  C2173  1  0.050600  0.565400  0.852400  1
  C  C2174  1  0.301800  0.287000  0.852400  1
  C  C2175  1  0.934600  0.449400  0.647600  1
  C  C2176  1  0.213000  0.198200  0.647600  1
  C  C2177  1  0.933700  0.443100  0.126200  1
  C  C2178  1  0.692500  0.683100  0.126200  1
  C  C2179  1  0.056900  0.566300  0.373800  1
  C  C2180  1  0.816900  0.807500  0.373800  1
  C  C2181  1  0.066300  0.556900  0.873800  1
  C  C2182  1  0.307500  0.316900  0.873800  1
  C  C2183  1  0.943100  0.433700  0.626200  1
  C  C2184  1  0.183100  0.192500  0.626200  1
  C  C2185  1  0.903100  0.426500  0.102200  1
  C  C2186  1  0.699100  0.675700  0.102200  1
  C  C2187  1  0.073500  0.596900  0.397800  1
  C  C2188  1  0.824300  0.800900  0.397800  1
  C  C2189  1  0.096900  0.573500  0.897800  1
  C  C2190  1  0.300900  0.324300  0.897800  1
  C  C2191  1  0.926500  0.403100  0.602200  1
  C  C2192  1  0.175700  0.199100  0.602200  1
  C  C2193  1  0.888200  0.401400  0.099600  1
  C  C2194  1  0.711400  0.698200  0.099600  1
  C  C2195  1  0.098600  0.611800  0.400400  1
  C  C2196  1  0.801800  0.788600  0.400400  1
  C  C2197  1  0.111800  0.598600  0.900400  1
  C  C2198  1  0.288600  0.301800  0.900400  1
  C  C2199  1  0.901400  0.388200  0.599600  1
  C  C2200  1  0.198200  0.211400  0.599600  1
  C  C2201  1  0.903800  0.392800  0.120800  1
  C  C2202  1  0.717000  0.728000  0.120800  1
  C  C2203  1  0.107200  0.596200  0.379200  1
  C  C2204  1  0.772000  0.783000  0.379200  1
  C  C2205  1  0.096200  0.607200  0.879200  1
  C  C2206  1  0.283000  0.272000  0.879200  1
  C  C2207  1  0.892800  0.403800  0.620800  1
  C  C2208  1  0.228000  0.217000  0.620800  1
  C  C2209  1  0.949900  0.469700  0.129000  1
  C  C2210  1  0.679100  0.659300  0.129000  1
  C  C2211  1  0.030300  0.550100  0.371000  1
  C  C2212  1  0.840700  0.820900  0.371000  1
  C  C2213  1  0.050100  0.530300  0.871000  1
  C  C2214  1  0.320900  0.340700  0.871000  1
  C  C2215  1  0.969700  0.449900  0.629000  1
  C  C2216  1  0.159300  0.179100  0.629000  1
  C  C2217  1  0.951100  0.174500  0.072200  1
  C  C2218  1  0.621100  0.897700  0.072200  1
  C  C2219  1  0.325500  0.548900  0.427800  1
  C  C2220  1  0.602300  0.878900  0.427800  1
  C  C2221  1  0.048900  0.825500  0.927800  1
  C  C2222  1  0.378900  0.102300  0.927800  1
  C  C2223  1  0.674500  0.451100  0.572200  1
  C  C2224  1  0.397700  0.121100  0.572200  1
  C  C2225  1  0.929500  0.174300  0.040800  1
  C  C2226  1  0.611300  0.866500  0.040800  1
  C  C2227  1  0.325700  0.570500  0.459200  1
  C  C2228  1  0.633500  0.888700  0.459200  1
  C  C2229  1  0.070500  0.825700  0.959200  1
  C  C2230  1  0.388700  0.133500  0.959200  1
  C  C2231  1  0.674300  0.429500  0.540800  1
  C  C2232  1  0.366500  0.111300  0.540800  1
  C  C2233  1  0.910600  0.189000  0.039800  1
  C  C2234  1  0.629200  0.850800  0.039800  1
  C  C2235  1  0.311000  0.589400  0.460200  1
  C  C2236  1  0.649200  0.870800  0.460200  1
  C  C2237  1  0.089400  0.811000  0.960200  1
  C  C2238  1  0.370800  0.149200  0.960200  1
  C  C2239  1  0.689000  0.410600  0.539800  1
  C  C2240  1  0.350800  0.129200  0.539800  1
  C  C2241  1  0.893100  0.190500  0.015800  1
  C  C2242  1  0.622700  0.825300  0.015800  1
  C  C2243  1  0.309500  0.606900  0.484200  1
  C  C2244  1  0.674700  0.877300  0.484200  1
  C  C2245  1  0.106900  0.809500  0.984200  1
  C  C2246  1  0.377300  0.174700  0.984200  1
  C  C2247  1  0.690500  0.393100  0.515800  1
  C  C2248  1  0.325300  0.122700  0.515800  1
  C  C2249  1  0.893400  0.176400  0.987800  1
  C  C2250  1  0.594400  0.811400  0.987800  1
  C  C2251  1  0.323600  0.606600  0.512200  1
  C  C2252  1  0.688600  0.905600  0.512200  1
  C  C2253  1  0.106600  0.823600  0.012200  1
  C  C2254  1  0.405600  0.188600  0.012200  1
  C  C2255  1  0.676400  0.393400  0.487800  1
  C  C2256  1  0.311400  0.094400  0.487800  1
  C  C2257  1  0.913500  0.162900  0.986400  1
  C  C2258  1  0.572900  0.823500  0.986400  1
  C  C2259  1  0.337100  0.586500  0.513600  1
  C  C2260  1  0.676500  0.927100  0.513600  1
  C  C2261  1  0.086500  0.837100  0.013600  1
  C  C2262  1  0.427100  0.176500  0.013600  1
  C  C2263  1  0.662900  0.413500  0.486400  1
  C  C2264  1  0.323500  0.072900  0.486400  1
  C  C2265  1  0.929500  0.160900  0.012200  1
  C  C2266  1  0.582700  0.851300  0.012200  1
  C  C2267  1  0.339100  0.570500  0.487800  1
  C  C2268  1  0.648700  0.917300  0.487800  1
  C  C2269  1  0.070500  0.839100  0.987800  1
  C  C2270  1  0.417300  0.148700  0.987800  1
  C  C2271  1  0.660900  0.429500  0.512200  1
  C  C2272  1  0.351300  0.082700  0.512200  1
  C  C2273  1  0.864400  0.160800  0.931200  1
  C  C2274  1  0.566800  0.770400  0.931200  1
  C  C2275  1  0.339200  0.635600  0.568800  1
  C  C2276  1  0.729600  0.933200  0.568800  1
  C  C2277  1  0.135600  0.839200  0.068800  1
  C  C2278  1  0.433200  0.229600  0.068800  1
  C  C2279  1  0.660800  0.364400  0.431200  1
  C  C2280  1  0.270400  0.066800  0.431200  1
  C  C2281  1  0.848600  0.165000  0.905600  1
  C  C2282  1  0.557000  0.740600  0.905600  1
  C  C2283  1  0.335000  0.651400  0.594400  1
  C  C2284  1  0.759400  0.943000  0.594400  1
  C  C2285  1  0.151400  0.835000  0.094400  1
  C  C2286  1  0.443000  0.259400  0.094400  1
  C  C2287  1  0.665000  0.348600  0.405600  1
  C  C2288  1  0.240600  0.057000  0.405600  1
  C  C2289  1  0.829400  0.197200  0.891200  1
  C  C2290  1  0.561800  0.694000  0.891200  1
  C  C2291  1  0.302800  0.670600  0.608800  1
  C  C2292  1  0.806000  0.938200  0.608800  1
  C  C2293  1  0.170600  0.802800  0.108800  1
  C  C2294  1  0.438200  0.306000  0.108800  1
  C  C2295  1  0.697200  0.329400  0.391200  1
  C  C2296  1  0.194000  0.061800  0.391200  1
  C  C2297  1  0.815400  0.176200  0.857400  1
  C  C2298  1  0.542000  0.681200  0.857400  1
  C  C2299  1  0.323800  0.684600  0.642600  1
  C  C2300  1  0.818800  0.958000  0.642600  1
  C  C2301  1  0.184600  0.823800  0.142600  1
  C  C2302  1  0.458000  0.318800  0.142600  1
  C  C2303  1  0.676200  0.315400  0.357400  1
  C  C2304  1  0.181200  0.042000  0.357400  1
  C  C2305  1  0.819500  0.149700  0.849200  1
  C  C2306  1  0.529700  0.699500  0.849200  1
  C  C2307  1  0.350300  0.680500  0.650800  1
  C  C2308  1  0.800500  0.970300  0.650800  1
  C  C2309  1  0.180500  0.850300  0.150800  1
  C  C2310  1  0.470300  0.300500  0.150800  1
  C  C2311  1  0.649700  0.319500  0.349200  1
  C  C2312  1  0.199500  0.029700  0.349200  1
  C  C2313  1  0.835900  0.143300  0.873200  1
  C  C2314  1  0.537300  0.729900  0.873200  1
  C  C2315  1  0.356700  0.664100  0.626800  1
  C  C2316  1  0.770100  0.962700  0.626800  1
  C  C2317  1  0.164100  0.856700  0.126800  1
  C  C2318  1  0.462700  0.270100  0.126800  1
  C  C2319  1  0.643300  0.335900  0.373200  1
  C  C2320  1  0.229900  0.037300  0.373200  1
  C  C2321  1  0.797600  0.182800  0.833800  1
  C  C2322  1  0.536200  0.651000  0.833800  1
  C  C2323  1  0.317200  0.702400  0.666200  1
  C  C2324  1  0.849000  0.963800  0.666200  1
  C  C2325  1  0.202400  0.817200  0.166200  1
  C  C2326  1  0.463800  0.349000  0.166200  1
  C  C2327  1  0.682800  0.297600  0.333800  1
  C  C2328  1  0.151000  0.036200  0.333800  1
  C  C2329  1  0.778400  0.198400  0.836600  1
  C  C2330  1  0.558200  0.638200  0.836600  1
  C  C2331  1  0.301600  0.721600  0.663400  1
  C  C2332  1  0.861800  0.941800  0.663400  1
  C  C2333  1  0.221600  0.801600  0.163400  1
  C  C2334  1  0.441800  0.361800  0.163400  1
  C  C2335  1  0.698400  0.278400  0.336600  1
  C  C2336  1  0.138200  0.058200  0.336600  1
  C  C2337  1  0.761900  0.195500  0.787600  1
  C  C2338  1  0.525700  0.592100  0.787600  1
  C  C2339  1  0.304500  0.738100  0.712400  1
  C  C2340  1  0.907900  0.974300  0.712400  1
  C  C2341  1  0.238100  0.804500  0.212400  1
  C  C2342  1  0.474300  0.407900  0.212400  1
  C  C2343  1  0.695500  0.261900  0.287600  1
  C  C2344  1  0.092100  0.025700  0.287600  1
  C  C2345  1  0.780800  0.179000  0.782000  1
  C  C2346  1  0.501200  0.603000  0.782000  1
  C  C2347  1  0.321000  0.719200  0.718000  1
  C  C2348  1  0.897000  0.998800  0.718000  1
  C  C2349  1  0.219200  0.821000  0.218000  1
  C  C2350  1  0.498800  0.397000  0.218000  1
  C  C2351  1  0.679000  0.280800  0.282000  1
  C  C2352  1  0.103000  0.001200  0.282000  1
  C  C2353  1  0.798400  0.172400  0.804200  1
  C  C2354  1  0.505800  0.631800  0.804200  1
  C  C2355  1  0.327600  0.701600  0.695800  1
  C  C2356  1  0.868200  0.994200  0.695800  1
  C  C2357  1  0.201600  0.827600  0.195800  1
  C  C2358  1  0.494200  0.368200  0.195800  1
  C  C2359  1  0.672400  0.298400  0.304200  1
  C  C2360  1  0.131800  0.005800  0.304200  1
  C  C2361  1  0.743900  0.204500  0.768400  1
  C  C2362  1  0.524500  0.563900  0.768400  1
  C  C2363  1  0.295500  0.756100  0.731600  1
  C  C2364  1  0.936100  0.975500  0.731600  1
  C  C2365  1  0.256100  0.795500  0.231600  1
  C  C2366  1  0.475500  0.436100  0.231600  1
  C  C2367  1  0.704500  0.243900  0.268400  1
  C  C2368  1  0.063900  0.024500  0.268400  1
  C  C2369  1  0.707900  0.225300  0.752600  1
  C  C2370  1  0.544700  0.527300  0.752600  1
  C  C2371  1  0.274700  0.792100  0.747400  1
  C  C2372  1  0.972700  0.955300  0.747400  1
  C  C2373  1  0.292100  0.774700  0.247400  1
  C  C2374  1  0.455300  0.472700  0.247400  1
  C  C2375  1  0.725300  0.207900  0.252600  1
  C  C2376  1  0.027300  0.044700  0.252600  1
  C  C2377  1  0.707100  0.253300  0.766000  1
  C  C2378  1  0.558900  0.512700  0.766000  1
  C  C2379  1  0.246700  0.792900  0.734000  1
  C  C2380  1  0.987300  0.941100  0.734000  1
  C  C2381  1  0.292900  0.746700  0.234000  1
  C  C2382  1  0.441100  0.487300  0.234000  1
  C  C2383  1  0.753300  0.207100  0.266000  1
  C  C2384  1  0.012700  0.058900  0.266000  1
  C  C2385  1  0.692700  0.265300  0.749400  1
  C  C2386  1  0.556700  0.484100  0.749400  1
  C  C2387  1  0.234700  0.807300  0.750600  1
  C  C2388  1  0.015900  0.943300  0.750600  1
  C  C2389  1  0.307300  0.734700  0.250600  1
  C  C2390  1  0.443300  0.515900  0.250600  1
  C  C2391  1  0.765300  0.192700  0.249400  1
  C  C2392  1  0.984100  0.056700  0.249400  1
  C  C2393  1  0.675800  0.246800  0.719600  1
  C  C2394  1  0.543800  0.472800  0.719600  1
  C  C2395  1  0.253200  0.824200  0.780400  1
  C  C2396  1  0.027200  0.956200  0.780400  1
  C  C2397  1  0.324200  0.753200  0.280400  1
  C  C2398  1  0.456200  0.527200  0.280400  1
  C  C2399  1  0.746800  0.175800  0.219600  1
  C  C2400  1  0.972800  0.043800  0.219600  1
  C  C2401  1  0.672200  0.215400  0.699800  1
  C  C2402  1  0.527600  0.484400  0.699800  1
  C  C2403  1  0.284600  0.827800  0.800200  1
  C  C2404  1  0.015600  0.972400  0.800200  1
  C  C2405  1  0.327800  0.784600  0.300200  1
  C  C2406  1  0.472400  0.515600  0.300200  1
  C  C2407  1  0.715400  0.172200  0.199800  1
  C  C2408  1  0.984400  0.027600  0.199800  1
  C  C2409  1  0.690000  0.204400  0.719000  1
  C  C2410  1  0.529000  0.514600  0.719000  1
  C  C2411  1  0.295600  0.810000  0.781000  1
  C  C2412  1  0.985400  0.971000  0.781000  1
  C  C2413  1  0.310000  0.795600  0.281000  1
  C  C2414  1  0.471000  0.485400  0.281000  1
  C  C2415  1  0.704400  0.190000  0.219000  1
  C  C2416  1  0.014600  0.029000  0.219000  1
  C  C2417  1  0.654300  0.257700  0.691600  1
  C  C2418  1  0.537300  0.433900  0.691600  1
  C  C2419  1  0.242300  0.845700  0.808400  1
  C  C2420  1  0.066100  0.962700  0.808400  1
  C  C2421  1  0.345700  0.742300  0.308400  1
  C  C2422  1  0.462700  0.566100  0.308400  1
  C  C2423  1  0.757700  0.154300  0.191600  1
  C  C2424  1  0.933900  0.037300  0.191600  1
  C  C2425  1  0.906400  0.158200  0.841800  1
  C  C2426  1  0.435400  0.683600  0.841800  1
  C  C2427  1  0.341800  0.593600  0.658200  1
  C  C2428  1  0.816400  0.064600  0.658200  1
  C  C2429  1  0.093600  0.841800  0.158200  1
  C  C2430  1  0.564600  0.316400  0.158200  1
  C  C2431  1  0.658200  0.406400  0.341800  1
  C  C2432  1  0.183600  0.935400  0.341800  1
  C  C2433  1  0.909600  0.177800  0.874800  1
  C  C2434  1  0.465200  0.697000  0.874800  1
  C  C2435  1  0.322200  0.590400  0.625200  1
  C  C2436  1  0.803000  0.034800  0.625200  1
  C  C2437  1  0.090400  0.822200  0.125200  1
  C  C2438  1  0.534800  0.303000  0.125200  1
  C  C2439  1  0.677800  0.409600  0.374800  1
  C  C2440  1  0.197000  0.965200  0.374800  1
  C  C2441  1  0.896000  0.196400  0.879200  1
  C  C2442  1  0.483200  0.682800  0.879200  1
  C  C2443  1  0.303600  0.604000  0.620800  1
  C  C2444  1  0.817200  0.016800  0.620800  1
  C  C2445  1  0.104000  0.803600  0.120800  1
  C  C2446  1  0.516800  0.317200  0.120800  1
  C  C2447  1  0.696400  0.396000  0.379200  1
  C  C2448  1  0.182800  0.983200  0.379200  1
  C  C2449  1  0.898400  0.214600  0.908600  1
  C  C2450  1  0.510200  0.694000  0.908600  1
  C  C2451  1  0.285400  0.601600  0.591400  1
  C  C2452  1  0.806000  0.989800  0.591400  1
  C  C2453  1  0.101600  0.785400  0.091400  1
  C  C2454  1  0.489800  0.306000  0.091400  1
  C  C2455  1  0.714600  0.398400  0.408600  1
  C  C2456  1  0.194000  0.010200  0.408600  1
  C  C2457  1  0.912000  0.208400  0.931800  1
  C  C2458  1  0.519800  0.723400  0.931800  1
  C  C2459  1  0.291600  0.588000  0.568200  1
  C  C2460  1  0.776600  0.980200  0.568200  1
  C  C2461  1  0.088000  0.791600  0.068200  1
  C  C2462  1  0.480200  0.276600  0.068200  1
  C  C2463  1  0.708400  0.412000  0.431800  1
  C  C2464  1  0.223400  0.019800  0.431800  1
  C  C2465  1  0.925800  0.187200  0.928200  1
  C  C2466  1  0.502400  0.741000  0.928200  1
  C  C2467  1  0.312800  0.574200  0.571800  1
  C  C2468  1  0.759000  0.997600  0.571800  1
  C  C2469  1  0.074200  0.812800  0.071800  1
  C  C2470  1  0.497600  0.259000  0.071800  1
  C  C2471  1  0.687200  0.425800  0.428200  1
  C  C2472  1  0.241000  0.002400  0.428200  1
  C  C2473  1  0.922800  0.171400  0.899200  1
  C  C2474  1  0.476400  0.727800  0.899200  1
  C  C2475  1  0.328600  0.577200  0.600800  1
  C  C2476  1  0.772200  0.023600  0.600800  1
  C  C2477  1  0.077200  0.828600  0.100800  1
  C  C2478  1  0.523600  0.272200  0.100800  1
  C  C2479  1  0.671400  0.422800  0.399200  1
  C  C2480  1  0.227800  0.976400  0.399200  1
  C  C2481  1  0.938100  0.235300  0.991000  1
  C  C2482  1  0.552900  0.755700  0.991000  1
  C  C2483  1  0.264700  0.561900  0.509000  1
  C  C2484  1  0.744300  0.947100  0.509000  1
  C  C2485  1  0.061900  0.764700  0.009000  1
  C  C2486  1  0.447100  0.244300  0.009000  1
  C  C2487  1  0.735300  0.438100  0.491000  1
  C  C2488  1  0.255700  0.052900  0.491000  1
  C  C2489  1  0.937800  0.249400  0.021400  1
  C  C2490  1  0.583600  0.772000  0.021400  1
  C  C2491  1  0.250600  0.562200  0.478600  1
  C  C2492  1  0.728000  0.916400  0.478600  1
  C  C2493  1  0.062200  0.750600  0.978600  1
  C  C2494  1  0.416400  0.228000  0.978600  1
  C  C2495  1  0.749400  0.437800  0.521400  1
  C  C2496  1  0.272000  0.083600  0.521400  1
  C  C2497  1  0.909300  0.263700  0.043800  1
  C  C2498  1  0.634500  0.780100  0.043800  1
  C  C2499  1  0.236300  0.590700  0.456200  1
  C  C2500  1  0.719900  0.865500  0.456200  1
  C  C2501  1  0.090700  0.736300  0.956200  1
  C  C2502  1  0.365500  0.219900  0.956200  1
  C  C2503  1  0.763700  0.409300  0.543800  1
  C  C2504  1  0.280100  0.134500  0.543800  1
  C  C2505  1  0.933200  0.273600  0.075200  1
  C  C2506  1  0.642000  0.801600  0.075200  1
  C  C2507  1  0.226400  0.566800  0.424800  1
  C  C2508  1  0.698400  0.858000  0.424800  1
  C  C2509  1  0.066800  0.726400  0.924800  1
  C  C2510  1  0.358000  0.198400  0.924800  1
  C  C2511  1  0.773600  0.433200  0.575200  1
  C  C2512  1  0.301600  0.142000  0.575200  1
  C  C2513  1  0.960600  0.270400  0.078600  1
  C  C2514  1  0.618000  0.808200  0.078600  1
  C  C2515  1  0.229600  0.539400  0.421400  1
  C  C2516  1  0.691800  0.882000  0.421400  1
  C  C2517  1  0.039400  0.729600  0.921400  1
  C  C2518  1  0.382000  0.191800  0.921400  1
  C  C2519  1  0.770400  0.460600  0.578600  1
  C  C2520  1  0.308200  0.118000  0.578600  1
  C  C2521  1  0.962900  0.259700  0.051400  1
  C  C2522  1  0.588500  0.791700  0.051400  1
  C  C2523  1  0.240300  0.537100  0.448600  1
  C  C2524  1  0.708300  0.911500  0.448600  1
  C  C2525  1  0.037100  0.740300  0.948600  1
  C  C2526  1  0.411500  0.208300  0.948600  1
  C  C2527  1  0.759700  0.462900  0.551400  1
  C  C2528  1  0.291700  0.088500  0.551400  1
  C  C2529  1  0.930100  0.283900  0.103200  1
  C  C2530  1  0.673100  0.819300  0.103200  1
  C  C2531  1  0.216100  0.569900  0.396800  1
  C  C2532  1  0.680700  0.826900  0.396800  1
  C  C2533  1  0.069900  0.716100  0.896800  1
  C  C2534  1  0.326900  0.180700  0.896800  1
  C  C2535  1  0.783900  0.430100  0.603200  1
  C  C2536  1  0.319300  0.173100  0.603200  1
  C  C2537  1  0.916700  0.305900  0.108800  1
  C  C2538  1  0.692100  0.802900  0.108800  1
  C  C2539  1  0.194100  0.583300  0.391200  1
  C  C2540  1  0.697100  0.807900  0.391200  1
  C  C2541  1  0.083300  0.694100  0.891200  1
  C  C2542  1  0.307900  0.197100  0.891200  1
  C  C2543  1  0.805900  0.416700  0.608800  1
  C  C2544  1  0.302900  0.192100  0.608800  1
  C  C2545  1  0.919800  0.304800  0.152400  1
  C  C2546  1  0.732600  0.847600  0.152400  1
  C  C2547  1  0.195200  0.580200  0.347600  1
  C  C2548  1  0.652400  0.767400  0.347600  1
  C  C2549  1  0.080200  0.695200  0.847600  1
  C  C2550  1  0.267400  0.152400  0.847600  1
  C  C2551  1  0.804800  0.419800  0.652400  1
  C  C2552  1  0.347600  0.232600  0.652400  1
  C  C2553  1  0.934200  0.285000  0.148200  1
  C  C2554  1  0.714000  0.863200  0.148200  1
  C  C2555  1  0.215000  0.565800  0.351800  1
  C  C2556  1  0.636800  0.786000  0.351800  1
  C  C2557  1  0.065800  0.715000  0.851800  1
  C  C2558  1  0.286000  0.136800  0.851800  1
  C  C2559  1  0.785000  0.434200  0.648200  1
  C  C2560  1  0.363200  0.214000  0.648200  1
  C  C2561  1  0.938400  0.275200  0.122600  1
  C  C2562  1  0.684200  0.847400  0.122600  1
  C  C2563  1  0.224800  0.561600  0.377400  1
  C  C2564  1  0.652600  0.815800  0.377400  1
  C  C2565  1  0.061600  0.724800  0.877400  1
  C  C2566  1  0.315800  0.152600  0.877400  1
  C  C2567  1  0.775200  0.438400  0.622600  1
  C  C2568  1  0.347400  0.184200  0.622600  1
  C  C2569  1  0.912400  0.314200  0.178600  1
  C  C2570  1  0.766200  0.864400  0.178600  1
  C  C2571  1  0.185800  0.587600  0.321400  1
  C  C2572  1  0.635600  0.733800  0.321400  1
  C  C2573  1  0.087600  0.685800  0.821400  1
  C  C2574  1  0.233800  0.135600  0.821400  1
  C  C2575  1  0.814200  0.412400  0.678600  1
  C  C2576  1  0.364400  0.266200  0.678600  1
  C  C2577  1  0.893600  0.342400  0.207400  1
  C  C2578  1  0.813800  0.865000  0.207400  1
  C  C2579  1  0.157600  0.606400  0.292600  1
  C  C2580  1  0.635000  0.686200  0.292600  1
  C  C2581  1  0.106400  0.657600  0.792600  1
  C  C2582  1  0.186200  0.135000  0.792600  1
  C  C2583  1  0.842400  0.393600  0.707400  1
  C  C2584  1  0.365000  0.313800  0.707400  1
  C  C2585  1  0.866800  0.348200  0.200200  1
  C  C2586  1  0.833400  0.852000  0.200200  1
  C  C2587  1  0.151800  0.633200  0.299800  1
  C  C2588  1  0.648000  0.666600  0.299800  1
  C  C2589  1  0.133200  0.651800  0.799800  1
  C  C2590  1  0.166600  0.148000  0.799800  1
  C  C2591  1  0.848200  0.366800  0.700200  1
  C  C2592  1  0.352000  0.333400  0.700200  1
  C  C2593  1  0.861200  0.361600  0.225200  1
  C  C2594  1  0.864000  0.863600  0.225200  1
  C  C2595  1  0.138400  0.638800  0.274800  1
  C  C2596  1  0.636400  0.636000  0.274800  1
  C  C2597  1  0.138800  0.638400  0.774800  1
  C  C2598  1  0.136000  0.136400  0.774800  1
  C  C2599  1  0.861600  0.361200  0.725200  1
  C  C2600  1  0.363600  0.364000  0.725200  1
  C  C2601  1  0.882600  0.368200  0.253800  1
  C  C2602  1  0.871200  0.885600  0.253800  1
  C  C2603  1  0.131800  0.617400  0.246200  1
  C  C2604  1  0.614400  0.628800  0.246200  1
  C  C2605  1  0.117400  0.631800  0.746200  1
  C  C2606  1  0.128800  0.114400  0.746200  1
  C  C2607  1  0.868200  0.382600  0.753800  1
  C  C2608  1  0.385600  0.371200  0.753800  1
  C  C2609  1  0.910700  0.364300  0.264200  1
  C  C2610  1  0.853500  0.899900  0.264200  1
  C  C2611  1  0.135700  0.589300  0.235800  1
  C  C2612  1  0.600100  0.646500  0.235800  1
  C  C2613  1  0.089300  0.635700  0.735800  1
  C  C2614  1  0.146500  0.100100  0.735800  1
  C  C2615  1  0.864300  0.410700  0.764200  1
  C  C2616  1  0.399900  0.353500  0.764200  1
  C  C2617  1  0.917100  0.352500  0.237800  1
  C  C2618  1  0.820700  0.885300  0.237800  1
  C  C2619  1  0.147500  0.582900  0.262200  1
  C  C2620  1  0.614700  0.679300  0.262200  1
  C  C2621  1  0.082900  0.647500  0.762200  1
  C  C2622  1  0.179300  0.114700  0.762200  1
  C  C2623  1  0.852500  0.417100  0.737800  1
  C  C2624  1  0.385300  0.320700  0.737800  1
  C  C2625  1  0.876500  0.382300  0.285600  1
  C  C2626  1  0.909100  0.903300  0.285600  1
  C  C2627  1  0.117700  0.623500  0.214400  1
  C  C2628  1  0.596700  0.590900  0.214400  1
  C  C2629  1  0.123500  0.617700  0.714400  1
  C  C2630  1  0.090900  0.096700  0.714400  1
  C  C2631  1  0.882300  0.376500  0.785600  1
  C  C2632  1  0.403300  0.409100  0.785600  1
  C  C2633  1  0.729300  0.070900  0.730800  1
  C  C2634  1  0.501500  0.659900  0.730800  1
  C  C2635  1  0.429100  0.770700  0.769200  1
  C  C2636  1  0.840100  0.998500  0.769200  1
  C  C2637  1  0.270700  0.929100  0.269200  1
  C  C2638  1  0.498500  0.340100  0.269200  1
  C  C2639  1  0.570900  0.229300  0.230800  1
  C  C2640  1  0.159900  0.001500  0.230800  1
  C  C2641  1  0.718800  0.097000  0.741000  1
  C  C2642  1  0.522200  0.644000  0.741000  1
  C  C2643  1  0.403000  0.781200  0.759000  1
  C  C2644  1  0.856000  0.977800  0.759000  1
  C  C2645  1  0.281200  0.903000  0.259000  1
  C  C2646  1  0.477800  0.356000  0.259000  1
  C  C2647  1  0.597000  0.218800  0.241000  1
  C  C2648  1  0.144000  0.022200  0.241000  1
  C  C2649  1  0.703600  0.104800  0.720600  1
  C  C2650  1  0.517000  0.615800  0.720600  1
  C  C2651  1  0.395200  0.796400  0.779400  1
  C  C2652  1  0.884200  0.983000  0.779400  1
  C  C2653  1  0.296400  0.895200  0.279400  1
  C  C2654  1  0.483000  0.384200  0.279400  1
  C  C2655  1  0.604800  0.203600  0.220600  1
  C  C2656  1  0.115800  0.017000  0.220600  1
  C  C2657  1  0.692700  0.128100  0.730200  1
  C  C2658  1  0.537500  0.602100  0.730200  1
  C  C2659  1  0.371900  0.807300  0.769800  1
  C  C2660  1  0.897900  0.962500  0.769800  1
  C  C2661  1  0.307300  0.871900  0.269800  1
  C  C2662  1  0.462500  0.397900  0.269800  1
  C  C2663  1  0.628100  0.192700  0.230200  1
  C  C2664  1  0.102100  0.037500  0.230200  1
  C  C2665  1  0.701200  0.145600  0.762400  1
  C  C2666  1  0.561200  0.616800  0.762400  1
  C  C2667  1  0.354400  0.798800  0.737600  1
  C  C2668  1  0.883200  0.938800  0.737600  1
  C  C2669  1  0.298800  0.854400  0.237600  1
  C  C2670  1  0.438800  0.383200  0.237600  1
  C  C2671  1  0.645600  0.201200  0.262400  1
  C  C2672  1  0.116800  0.061200  0.262400  1
  C  C2673  1  0.718200  0.137800  0.784000  1
  C  C2674  1  0.565800  0.646200  0.784000  1
  C  C2675  1  0.362200  0.781800  0.716000  1
  C  C2676  1  0.853800  0.934200  0.716000  1
  C  C2677  1  0.281800  0.862200  0.216000  1
  C  C2678  1  0.434200  0.353800  0.216000  1
  C  C2679  1  0.637800  0.218200  0.284000  1
  C  C2680  1  0.146200  0.065800  0.284000  1
  C  C2681  1  0.726200  0.114400  0.774800  1
  C  C2682  1  0.548600  0.660400  0.774800  1
  C  C2683  1  0.385600  0.773800  0.725200  1
  C  C2684  1  0.839600  0.951400  0.725200  1
  C  C2685  1  0.273800  0.885600  0.225200  1
  C  C2686  1  0.451400  0.339600  0.225200  1
  C  C2687  1  0.614400  0.226200  0.274800  1
  C  C2688  1  0.160400  0.048600  0.274800  1
  C  C2689  1  0.665300  0.168700  0.753600  1
  C  C2690  1  0.588300  0.584900  0.753600  1
  C  C2691  1  0.331300  0.834700  0.746400  1
  C  C2692  1  0.915100  0.911700  0.746400  1
  C  C2693  1  0.334700  0.831300  0.246400  1
  C  C2694  1  0.411700  0.415100  0.246400  1
  C  C2695  1  0.668700  0.165300  0.253600  1
  C  C2696  1  0.084900  0.088300  0.253600  1
  C  C2697  1  0.660600  0.197000  0.765200  1
  C  C2698  1  0.604600  0.568200  0.765200  1
  C  C2699  1  0.303000  0.839400  0.734800  1
  C  C2700  1  0.931800  0.895400  0.734800  1
  C  C2701  1  0.339400  0.803000  0.234800  1
  C  C2702  1  0.395400  0.431800  0.234800  1
  C  C2703  1  0.697000  0.160600  0.265200  1
  C  C2704  1  0.068200  0.104600  0.265200  1
  C  C2705  1  0.675000  0.244200  0.804800  1
  C  C2706  1  0.629800  0.560600  0.804800  1
  C  C2707  1  0.255800  0.825000  0.695200  1
  C  C2708  1  0.939400  0.870200  0.695200  1
  C  C2709  1  0.325000  0.755800  0.195200  1
  C  C2710  1  0.370200  0.439400  0.195200  1
  C  C2711  1  0.744200  0.175000  0.304800  1
  C  C2712  1  0.060600  0.129800  0.304800  1
  C  C2713  1  0.647100  0.247100  0.787400  1
  C  C2714  1  0.640300  0.540300  0.787400  1
  C  C2715  1  0.252900  0.852900  0.712600  1
  C  C2716  1  0.959700  0.859700  0.712600  1
  C  C2717  1  0.352900  0.752900  0.212600  1
  C  C2718  1  0.359700  0.459700  0.212600  1
  C  C2719  1  0.747100  0.147100  0.287400  1
  C  C2720  1  0.040300  0.140300  0.287400  1
  C  C2721  1  0.624700  0.223700  0.757400  1
  C  C2722  1  0.632700  0.533700  0.757400  1
  C  C2723  1  0.276300  0.875300  0.742600  1
  C  C2724  1  0.966300  0.867300  0.742600  1
  C  C2725  1  0.375300  0.776300  0.242600  1
  C  C2726  1  0.367300  0.466300  0.242600  1
  C  C2727  1  0.723700  0.124700  0.257400  1
  C  C2728  1  0.033700  0.132700  0.257400  1
  C  C2729  1  0.631900  0.196900  0.745600  1
  C  C2730  1  0.613700  0.548700  0.745600  1
  C  C2731  1  0.303100  0.868100  0.754400  1
  C  C2732  1  0.951300  0.886300  0.754400  1
  C  C2733  1  0.368100  0.803100  0.254400  1
  C  C2734  1  0.386300  0.451300  0.254400  1
  C  C2735  1  0.696900  0.131900  0.245600  1
  C  C2736  1  0.048700  0.113700  0.245600  1
  C  C2737  1  0.641800  0.275000  0.804000  1
  C  C2738  1  0.662200  0.529000  0.804000  1
  C  C2739  1  0.225000  0.858200  0.696000  1
  C  C2740  1  0.971000  0.837800  0.696000  1
  C  C2741  1  0.358200  0.725000  0.196000  1
  C  C2742  1  0.337800  0.471000  0.196000  1
  C  C2743  1  0.775000  0.141800  0.304000  1
  C  C2744  1  0.029000  0.162200  0.304000  1
  C  C2745  1  0.649000  0.290400  0.834600  1
  C  C2746  1  0.685600  0.544200  0.834600  1
  C  C2747  1  0.209600  0.851000  0.665400  1
  C  C2748  1  0.955800  0.814400  0.665400  1
  C  C2749  1  0.351000  0.709600  0.165400  1
  C  C2750  1  0.314400  0.455800  0.165400  1
  C  C2751  1  0.790400  0.149000  0.334600  1
  C  C2752  1  0.044200  0.185600  0.334600  1
  C  C2753  1  0.630200  0.325000  0.831600  1
  C  C2754  1  0.701400  0.506600  0.831600  1
  C  C2755  1  0.175000  0.869800  0.668400  1
  C  C2756  1  0.993400  0.798600  0.668400  1
  C  C2757  1  0.369800  0.675000  0.168400  1
  C  C2758  1  0.298600  0.493400  0.168400  1
  C  C2759  1  0.825000  0.130200  0.331600  1
  C  C2760  1  0.006600  0.201400  0.331600  1
  C  C2761  1  0.618000  0.309200  0.795800  1
  C  C2762  1  0.677800  0.486600  0.795800  1
  C  C2763  1  0.190800  0.882000  0.704200  1
  C  C2764  1  0.013400  0.822200  0.704200  1
  C  C2765  1  0.382000  0.690800  0.204200  1
  C  C2766  1  0.322200  0.513400  0.204200  1
  C  C2767  1  0.809200  0.118000  0.295800  1
  C  C2768  1  0.986600  0.177800  0.295800  1
  C  C2769  1  0.619800  0.279600  0.778000  1
  C  C2770  1  0.658200  0.498400  0.778000  1
  C  C2771  1  0.220400  0.880200  0.722000  1
  C  C2772  1  0.001600  0.841800  0.722000  1
  C  C2773  1  0.380200  0.720400  0.222000  1
  C  C2774  1  0.341800  0.501600  0.222000  1
  C  C2775  1  0.779600  0.119800  0.278000  1
  C  C2776  1  0.998400  0.158200  0.278000  1
  C  C2777  1  0.616700  0.347500  0.842600  1
  C  C2778  1  0.725900  0.495100  0.842600  1
  C  C2779  1  0.152500  0.883300  0.657400  1
  C  C2780  1  0.004900  0.774100  0.657400  1
  C  C2781  1  0.383300  0.652500  0.157400  1
  C  C2782  1  0.274100  0.504900  0.157400  1
  C  C2783  1  0.847500  0.116700  0.342600  1
  C  C2784  1  0.995100  0.225900  0.342600  1
  C  C2785  1  0.616560  0.382240  0.888200  1
  C  C2786  1  0.771640  0.505960  0.888200  1
  C  C2787  1  0.117760  0.883440  0.611800  1
  C  C2788  1  0.994040  0.728360  0.611800  1
  C  C2789  1  0.383440  0.617760  0.111800  1
  C  C2790  1  0.228360  0.494040  0.111800  1
  C  C2791  1  0.882240  0.116560  0.388200  1
  C  C2792  1  0.005960  0.271640  0.388200  1
  C  C2793  1  0.586730  0.378930  0.870060  1
  C  C2794  1  0.783330  0.491130  0.870060  1
  C  C2795  1  0.121070  0.913270  0.629940  1
  C  C2796  1  0.008870  0.716670  0.629940  1
  C  C2797  1  0.413270  0.621070  0.129940  1
  C  C2798  1  0.216670  0.508870  0.129940  1
  C  C2799  1  0.878930  0.086730  0.370060  1
  C  C2800  1  0.991130  0.283330  0.370060  1
  C  C2801  1  0.576100  0.399900  0.884400  1
  C  C2802  1  0.808300  0.484500  0.884400  1
  C  C2803  1  0.100100  0.923900  0.615600  1
  C  C2804  1  0.015500  0.691700  0.615600  1
  C  C2805  1  0.423900  0.600100  0.115600  1
  C  C2806  1  0.191700  0.515500  0.115600  1
  C  C2807  1  0.899900  0.076100  0.384400  1
  C  C2808  1  0.984500  0.308300  0.384400  1
  C  C2809  1  0.595490  0.424310  0.916800  1
  C  C2810  1  0.821310  0.492490  0.916800  1
  C  C2811  1  0.075690  0.904510  0.583200  1
  C  C2812  1  0.007510  0.678690  0.583200  1
  C  C2813  1  0.404510  0.575690  0.083200  1
  C  C2814  1  0.178690  0.507510  0.083200  1
  C  C2815  1  0.924310  0.095490  0.416800  1
  C  C2816  1  0.992490  0.321310  0.416800  1
  C  C2817  1  0.625280  0.427680  0.934960  1
  C  C2818  1  0.809680  0.507280  0.934960  1
  C  C2819  1  0.072320  0.874720  0.565040  1
  C  C2820  1  0.992720  0.690320  0.565040  1
  C  C2821  1  0.374720  0.572320  0.065040  1
  C  C2822  1  0.190320  0.492720  0.065040  1
  C  C2823  1  0.927680  0.125280  0.434960  1
  C  C2824  1  0.007280  0.309680  0.434960  1
  C  C2825  1  0.635820  0.406600  0.920620  1
  C  C2826  1  0.784800  0.514020  0.920620  1
  C  C2827  1  0.093400  0.864180  0.579380  1
  C  C2828  1  0.985980  0.715200  0.579380  1
  C  C2829  1  0.364180  0.593400  0.079380  1
  C  C2830  1  0.215200  0.485980  0.079380  1
  C  C2831  1  0.906600  0.135820  0.420620  1
  C  C2832  1  0.014020  0.284800  0.420620  1
  C  C2833  1  0.586300  0.448700  0.934000  1
  C  C2834  1  0.847700  0.485300  0.934000  1
  C  C2835  1  0.051300  0.913700  0.566000  1
  C  C2836  1  0.014700  0.652300  0.566000  1
  C  C2837  1  0.413700  0.551300  0.066000  1
  C  C2838  1  0.152300  0.514700  0.066000  1
  C  C2839  1  0.948700  0.086300  0.434000  1
  C  C2840  1  0.985300  0.347700  0.434000  1
  C  C2841  1  0.516300  0.218700  0.732600  1
  C  C2842  1  0.716300  0.513900  0.732600  1
  C  C2843  1  0.281300  0.983700  0.767400  1
  C  C2844  1  0.986100  0.783700  0.767400  1
  C  C2845  1  0.483700  0.781300  0.267400  1
  C  C2846  1  0.283700  0.486100  0.267400  1
  C  C2847  1  0.718700  0.016300  0.232600  1
  C  C2848  1  0.013900  0.216300  0.232600  1
  C  C2849  1  0.535300  0.240700  0.768200  1
  C  C2850  1  0.732900  0.527500  0.768200  1
  C  C2851  1  0.259300  0.964700  0.731800  1
  C  C2852  1  0.972500  0.767100  0.731800  1
  C  C2853  1  0.464700  0.759300  0.231800  1
  C  C2854  1  0.267100  0.472500  0.231800  1
  C  C2855  1  0.740700  0.035300  0.268200  1
  C  C2856  1  0.027500  0.232900  0.268200  1
  C  C2857  1  0.528600  0.266000  0.783800  1
  C  C2858  1  0.755200  0.517800  0.783800  1
  C  C2859  1  0.234000  0.971400  0.716200  1
  C  C2860  1  0.982200  0.744800  0.716200  1
  C  C2861  1  0.471400  0.734000  0.216200  1
  C  C2862  1  0.244800  0.482200  0.216200  1
  C  C2863  1  0.766000  0.028600  0.283800  1
  C  C2864  1  0.017800  0.255200  0.283800  1
  C  C2865  1  0.547700  0.289300  0.817600  1
  C  C2866  1  0.769900  0.528300  0.817600  1
  C  C2867  1  0.210700  0.952300  0.682400  1
  C  C2868  1  0.971700  0.730100  0.682400  1
  C  C2869  1  0.452300  0.710700  0.182400  1
  C  C2870  1  0.230100  0.471700  0.182400  1
  C  C2871  1  0.789300  0.047700  0.317600  1
  C  C2872  1  0.028300  0.269900  0.317600  1
  C  C2873  1  0.576500  0.288100  0.838200  1
  C  C2874  1  0.761700  0.550100  0.838200  1
  C  C2875  1  0.211900  0.923500  0.661800  1
  C  C2876  1  0.949900  0.738300  0.661800  1
  C  C2877  1  0.423500  0.711900  0.161800  1
  C  C2878  1  0.238300  0.449900  0.161800  1
  C  C2879  1  0.788100  0.076500  0.338200  1
  C  C2880  1  0.050100  0.261700  0.338200  1
  C  C2881  1  0.582600  0.263400  0.823600  1
  C  C2882  1  0.741000  0.560200  0.823600  1
  C  C2883  1  0.236600  0.917400  0.676400  1
  C  C2884  1  0.939800  0.759000  0.676400  1
  C  C2885  1  0.417400  0.736600  0.176400  1
  C  C2886  1  0.259000  0.439800  0.176400  1
  C  C2887  1  0.763400  0.082600  0.323600  1
  C  C2888  1  0.060200  0.241000  0.323600  1
  C  C2889  1  0.563500  0.239100  0.789800  1
  C  C2890  1  0.726300  0.550700  0.789800  1
  C  C2891  1  0.260900  0.936500  0.710200  1
  C  C2892  1  0.949300  0.773700  0.710200  1
  C  C2893  1  0.436500  0.760900  0.210200  1
  C  C2894  1  0.273700  0.449300  0.210200  1
  C  C2895  1  0.739100  0.063500  0.289800  1
  C  C2896  1  0.050700  0.226300  0.289800  1
  C  C2897  1  0.588530  0.324330  0.889660  1
  C  C2898  1  0.801130  0.565330  0.889660  1
  C  C2899  1  0.175670  0.911470  0.610340  1
  C  C2900  1  0.934670  0.698870  0.610340  1
  C  C2901  1  0.411470  0.675670  0.110340  1
  C  C2902  1  0.198870  0.434670  0.110340  1
  C  C2903  1  0.824330  0.088530  0.389660  1
  C  C2904  1  0.065330  0.301130  0.389660  1
  C  C2905  1  0.661900  0.377300  0.966520  1
  C  C2906  1  0.804620  0.589220  0.966520  1
  C  C2907  1  0.122700  0.838100  0.533480  1
  C  C2908  1  0.910780  0.695380  0.533480  1
  C  C2909  1  0.338100  0.622700  0.033480  1
  C  C2910  1  0.195380  0.410780  0.033480  1
  C  C2911  1  0.877300  0.161900  0.466520  1
  C  C2912  1  0.089220  0.304620  0.466520  1
  C  C2913  1  0.654200  0.393220  0.988680  1
  C  C2914  1  0.834480  0.595460  0.988680  1
  C  C2915  1  0.106780  0.845800  0.511320  1
  C  C2916  1  0.904540  0.665520  0.511320  1
  C  C2917  1  0.345800  0.606780  0.011320  1
  C  C2918  1  0.165520  0.404540  0.011320  1
  C  C2919  1  0.893220  0.154200  0.488680  1
  C  C2920  1  0.095460  0.334480  0.488680  1
  C  C2921  1  0.623990  0.386950  0.978220  1
  C  C2922  1  0.854230  0.591270  0.978220  1
  C  C2923  1  0.113050  0.876010  0.521780  1
  C  C2924  1  0.908730  0.645770  0.521780  1
  C  C2925  1  0.376010  0.613050  0.021780  1
  C  C2926  1  0.145770  0.408730  0.021780  1
  C  C2927  1  0.886950  0.123990  0.478220  1
  C  C2928  1  0.091270  0.354230  0.478220  1
  C  C2929  1  0.601500  0.364760  0.945620  1
  C  C2930  1  0.844120  0.580860  0.945620  1
  C  C2931  1  0.135240  0.898500  0.554380  1
  C  C2932  1  0.919140  0.655880  0.554380  1
  C  C2933  1  0.398500  0.635240  0.054380  1
  C  C2934  1  0.155880  0.419140  0.054380  1
  C  C2935  1  0.864760  0.101500  0.445620  1
  C  C2936  1  0.080860  0.344120  0.445620  1
  C  C2937  1  0.609190  0.348830  0.923460  1
  C  C2938  1  0.814270  0.574630  0.923460  1
  C  C2939  1  0.151170  0.890810  0.576540  1
  C  C2940  1  0.925370  0.685730  0.576540  1
  C  C2941  1  0.390810  0.651170  0.076540  1
  C  C2942  1  0.185730  0.425370  0.076540  1
  C  C2943  1  0.848830  0.109190  0.423460  1
  C  C2944  1  0.074630  0.314270  0.423460  1
  C  C2945  1  0.678500  0.415700  0.024800  1
  C  C2946  1  0.846300  0.609100  0.024800  1
  C  C2947  1  0.084300  0.821500  0.475200  1
  C  C2948  1  0.890900  0.653700  0.475200  1
  C  C2949  1  0.321500  0.584300  0.975200  1
  C  C2950  1  0.153700  0.390900  0.975200  1
  C  C2951  1  0.915700  0.178500  0.524800  1
  C  C2952  1  0.109100  0.346300  0.524800  1
  C  C2953  1  0.703600  0.409800  0.042200  1
  C  C2954  1  0.838600  0.632400  0.042200  1
  C  C2955  1  0.090200  0.796400  0.457800  1
  C  C2956  1  0.867600  0.661400  0.457800  1
  C  C2957  1  0.296400  0.590200  0.957800  1
  C  C2958  1  0.161400  0.367600  0.957800  1
  C  C2959  1  0.909800  0.203600  0.542200  1
  C  C2960  1  0.132400  0.338600  0.542200  1
  C  C2961  1  0.721100  0.455700  0.089600  1
  C  C2962  1  0.868500  0.633900  0.089600  1
  C  C2963  1  0.044300  0.778900  0.410400  1
  C  C2964  1  0.866100  0.631500  0.410400  1
  C  C2965  1  0.278900  0.544300  0.910400  1
  C  C2966  1  0.131500  0.366100  0.910400  1
  C  C2967  1  0.955700  0.221100  0.589600  1
  C  C2968  1  0.133900  0.368500  0.589600  1
  C  C2969  1  0.696300  0.461900  0.073200  1
  C  C2970  1  0.876900  0.611300  0.073200  1
  C  C2971  1  0.038100  0.803700  0.426800  1
  C  C2972  1  0.888700  0.623100  0.426800  1
  C  C2973  1  0.303700  0.538100  0.926800  1
  C  C2974  1  0.123100  0.388700  0.926800  1
  C  C2975  1  0.961900  0.196300  0.573200  1
  C  C2976  1  0.111300  0.376900  0.573200  1
  C  C2977  1  0.673900  0.442300  0.039400  1
  C  C2978  1  0.865500  0.597100  0.039400  1
  C  C2979  1  0.057700  0.826100  0.460600  1
  C  C2980  1  0.902900  0.634500  0.460600  1
  C  C2981  1  0.326100  0.557700  0.960600  1
  C  C2982  1  0.134500  0.402900  0.960600  1
  C  C2983  1  0.942300  0.173900  0.539400  1
  C  C2984  1  0.097100  0.365500  0.539400  1
  C  C2985  1  0.746100  0.474500  0.126000  1
  C  C2986  1  0.879900  0.651500  0.126000  1
  C  C2987  1  0.025500  0.753900  0.374000  1
  C  C2988  1  0.848500  0.620100  0.374000  1
  C  C2989  1  0.253900  0.525500  0.874000  1
  C  C2990  1  0.120100  0.348500  0.874000  1
  C  C2991  1  0.974500  0.246100  0.626000  1
  C  C2992  1  0.151500  0.379900  0.626000  1
  C  C2993  1  0.789160  0.482960  0.170920  1
  C  C2994  1  0.881760  0.687960  0.170920  1
  C  C2995  1  0.017040  0.710840  0.329080  1
  C  C2996  1  0.812040  0.618240  0.329080  1
  C  C2997  1  0.210840  0.517040  0.829080  1
  C  C2998  1  0.118240  0.312040  0.829080  1
  C  C2999  1  0.982960  0.289160  0.670920  1
  C  C3000  1  0.187960  0.381760  0.670920  1
  C  C3001  1  0.782720  0.497080  0.194800  1
  C  C3002  1  0.912080  0.697720  0.194800  1
  C  C3003  1  0.002920  0.717280  0.305200  1
  C  C3004  1  0.802280  0.587920  0.305200  1
  C  C3005  1  0.217280  0.502920  0.805200  1
  C  C3006  1  0.087920  0.302280  0.805200  1
  C  C3007  1  0.997080  0.282720  0.694800  1
  C  C3008  1  0.197720  0.412080  0.694800  1
  C  C3009  1  0.805800  0.514000  0.228000  1
  C  C3010  1  0.922200  0.714000  0.228000  1
  C  C3011  1  0.986000  0.694200  0.272000  1
  C  C3012  1  0.786000  0.577800  0.272000  1
  C  C3013  1  0.194200  0.486000  0.772000  1
  C  C3014  1  0.077800  0.286000  0.772000  1
  C  C3015  1  0.014000  0.305800  0.728000  1
  C  C3016  1  0.214000  0.422200  0.728000  1
  C  C3017  1  0.835280  0.516680  0.237360  1
  C  C3018  1  0.902080  0.720680  0.237360  1
  C  C3019  1  0.983320  0.664720  0.262640  1
  C  C3020  1  0.779320  0.597920  0.262640  1
  C  C3021  1  0.164720  0.483320  0.762640  1
  C  C3022  1  0.097920  0.279320  0.762640  1
  C  C3023  1  0.016680  0.335280  0.737360  1
  C  C3024  1  0.220680  0.402080  0.737360  1
  C  C3025  1  0.841700  0.502700  0.213600  1
  C  C3026  1  0.871900  0.710900  0.213600  1
  C  C3027  1  0.997300  0.658300  0.286400  1
  C  C3028  1  0.789100  0.628100  0.286400  1
  C  C3029  1  0.158300  0.497300  0.786400  1
  C  C3030  1  0.128100  0.289100  0.786400  1
  C  C3031  1  0.002700  0.341700  0.713600  1
  C  C3032  1  0.210900  0.371900  0.713600  1
  C  C3033  1  0.818730  0.485790  0.180320  1
  C  C3034  1  0.861590  0.694530  0.180320  1
  C  C3035  1  0.014210  0.681270  0.319680  1
  C  C3036  1  0.805470  0.638410  0.319680  1
  C  C3037  1  0.181270  0.514210  0.819680  1
  C  C3038  1  0.138410  0.305470  0.819680  1
  C  C3039  1  0.985790  0.318730  0.680320  1
  C  C3040  1  0.194530  0.361590  0.680320  1
  C  C3041  1  0.859500  0.527900  0.273800  1
  C  C3042  1  0.914300  0.745900  0.273800  1
  C  C3043  1  0.972100  0.640500  0.226200  1
  C  C3044  1  0.754100  0.585700  0.226200  1
  C  C3045  1  0.140500  0.472100  0.726200  1
  C  C3046  1  0.085700  0.254100  0.726200  1
  C  C3047  1  0.027900  0.359500  0.773800  1
  C  C3048  1  0.245900  0.414300  0.773800  1
  C  C3049  1  0.607400  0.415400  0.071600  1
  C  C3050  1  0.964200  0.656200  0.071600  1
  C  C3051  1  0.084600  0.892600  0.428400  1
  C  C3052  1  0.843800  0.535800  0.428400  1
  C  C3053  1  0.392600  0.584600  0.928400  1
  C  C3054  1  0.035800  0.343800  0.928400  1
  C  C3055  1  0.915400  0.107400  0.571600  1
  C  C3056  1  0.156200  0.464200  0.571600  1
  C  C3057  1  0.640870  0.415930  0.088800  1
  C  C3058  1  0.947930  0.672870  0.088800  1
  C  C3059  1  0.084070  0.859130  0.411200  1
  C  C3060  1  0.827130  0.552070  0.411200  1
  C  C3061  1  0.359130  0.584070  0.911200  1
  C  C3062  1  0.052070  0.327130  0.911200  1
  C  C3063  1  0.915930  0.140870  0.588800  1
  C  C3064  1  0.172870  0.447930  0.588800  1
  C  C3065  1  0.663500  0.436500  0.121600  1
  C  C3066  1  0.958100  0.685100  0.121600  1
  C  C3067  1  0.063500  0.836500  0.378400  1
  C  C3068  1  0.814900  0.541900  0.378400  1
  C  C3069  1  0.336500  0.563500  0.878400  1
  C  C3070  1  0.041900  0.314900  0.878400  1
  C  C3071  1  0.936500  0.163500  0.621600  1
  C  C3072  1  0.185100  0.458100  0.621600  1
  C  C3073  1  0.692440  0.436040  0.133880  1
  C  C3074  1  0.941440  0.697840  0.133880  1
  C  C3075  1  0.063960  0.807560  0.366120  1
  C  C3076  1  0.802160  0.558560  0.366120  1
  C  C3077  1  0.307560  0.563960  0.866120  1
  C  C3078  1  0.058560  0.302160  0.866120  1
  C  C3079  1  0.936040  0.192440  0.633880  1
  C  C3080  1  0.197840  0.441440  0.633880  1
  C  C3081  1  0.698520  0.414780  0.113100  1
  C  C3082  1  0.914580  0.698320  0.113100  1
  C  C3083  1  0.085220  0.801480  0.386900  1
  C  C3084  1  0.801680  0.585420  0.386900  1
  C  C3085  1  0.301480  0.585220  0.886900  1
  C  C3086  1  0.085420  0.301680  0.886900  1
  C  C3087  1  0.914780  0.198520  0.613100  1
  C  C3088  1  0.198320  0.414580  0.613100  1
  C  C3089  1  0.675800  0.394120  0.080120  1
  C  C3090  1  0.904320  0.686000  0.080120  1
  C  C3091  1  0.105880  0.824200  0.419880  1
  C  C3092  1  0.814000  0.595680  0.419880  1
  C  C3093  1  0.324200  0.605880  0.919880  1
  C  C3094  1  0.095680  0.314000  0.919880  1
  C  C3095  1  0.894120  0.175800  0.580120  1
  C  C3096  1  0.186000  0.404320  0.580120  1
  C  C3097  1  0.646960  0.394760  0.067920  1
  C  C3098  1  0.920960  0.673160  0.067920  1
  C  C3099  1  0.105240  0.853040  0.432080  1
  C  C3100  1  0.826840  0.579040  0.432080  1
  C  C3101  1  0.353040  0.605240  0.932080  1
  C  C3102  1  0.079040  0.326840  0.932080  1
  C  C3103  1  0.894760  0.146960  0.567920  1
  C  C3104  1  0.173160  0.420960  0.567920  1
  C  C3105  1  0.743600  0.417000  0.151800  1
  C  C3106  1  0.908200  0.734800  0.151800  1
  C  C3107  1  0.083000  0.756400  0.348200  1
  C  C3108  1  0.765200  0.591800  0.348200  1
  C  C3109  1  0.256400  0.583000  0.848200  1
  C  C3110  1  0.091800  0.265200  0.848200  1
  C  C3111  1  0.917000  0.243600  0.651800  1
  C  C3112  1  0.234800  0.408200  0.651800  1
  C  C3113  1  0.774200  0.418400  0.165600  1
  C  C3114  1  0.891400  0.747200  0.165600  1
  C  C3115  1  0.081600  0.725800  0.334400  1
  C  C3116  1  0.752800  0.608600  0.334400  1
  C  C3117  1  0.225800  0.581600  0.834400  1
  C  C3118  1  0.108600  0.252800  0.834400  1
  C  C3119  1  0.918400  0.274200  0.665600  1
  C  C3120  1  0.247200  0.391400  0.665600  1
  C  C3121  1  0.811100  0.413700  0.153800  1
  C  C3122  1  0.842700  0.740100  0.153800  1
  C  C3123  1  0.086300  0.688900  0.346200  1
  C  C3124  1  0.759900  0.657300  0.346200  1
  C  C3125  1  0.188900  0.586300  0.846200  1
  C  C3126  1  0.157300  0.259900  0.846200  1
  C  C3127  1  0.913700  0.311100  0.653800  1
  C  C3128  1  0.240100  0.342700  0.653800  1
  C  C3129  1  0.829000  0.416800  0.183800  1
  C  C3130  1  0.854800  0.767000  0.183800  1
  C  C3131  1  0.083200  0.671000  0.316200  1
  C  C3132  1  0.733000  0.645200  0.316200  1
  C  C3133  1  0.171000  0.583200  0.816200  1
  C  C3134  1  0.145200  0.233000  0.816200  1
  C  C3135  1  0.916800  0.329000  0.683800  1
  C  C3136  1  0.267000  0.354800  0.683800  1
  C  C3137  1  0.818100  0.421300  0.205000  1
  C  C3138  1  0.886900  0.783700  0.205000  1
  C  C3139  1  0.078700  0.681900  0.295000  1
  C  C3140  1  0.716300  0.613100  0.295000  1
  C  C3141  1  0.181900  0.578700  0.795000  1
  C  C3142  1  0.113100  0.216300  0.795000  1
  C  C3143  1  0.921300  0.318100  0.705000  1
  C  C3144  1  0.283700  0.386900  0.705000  1
  C  C3145  1  0.790700  0.421300  0.194800  1
  C  C3146  1  0.904100  0.773500  0.194800  1
  C  C3147  1  0.078700  0.709300  0.305200  1
  C  C3148  1  0.726500  0.595900  0.305200  1
  C  C3149  1  0.209300  0.578700  0.805200  1
  C  C3150  1  0.095900  0.226500  0.805200  1
  C  C3151  1  0.921300  0.290700  0.694800  1
  C  C3152  1  0.273500  0.404100  0.694800  1
  C  C3153  1  0.859940  0.414380  0.194720  1
  C  C3154  1  0.834780  0.780340  0.194720  1
  C  C3155  1  0.085620  0.640060  0.305280  1
  C  C3156  1  0.719660  0.665220  0.305280  1
  C  C3157  1  0.140060  0.585620  0.805280  1
  C  C3158  1  0.165220  0.219660  0.805280  1
  C  C3159  1  0.914380  0.359940  0.694720  1
  C  C3160  1  0.280340  0.334780  0.694720  1
  C  C3161  1  0.862040  0.391200  0.171140  1
  C  C3162  1  0.809100  0.779940  0.171140  1
  C  C3163  1  0.108800  0.637960  0.328860  1
  C  C3164  1  0.720060  0.690900  0.328860  1
  C  C3165  1  0.137960  0.608800  0.828860  1
  C  C3166  1  0.190900  0.220060  0.828860  1
  C  C3167  1  0.891200  0.362040  0.671140  1
  C  C3168  1  0.279940  0.309100  0.671140  1
  C  C3169  1  0.915290  0.408710  0.210460  1
  C  C3170  1  0.795170  0.801750  0.210460  1
  C  C3171  1  0.091290  0.584710  0.289540  1
  C  C3172  1  0.698250  0.704830  0.289540  1
  C  C3173  1  0.084710  0.591290  0.789540  1
  C  C3174  1  0.204830  0.198250  0.789540  1
  C  C3175  1  0.908710  0.415290  0.710460  1
  C  C3176  1  0.301750  0.295170  0.710460  1
  C  C3177  1  0.913110  0.431910  0.234020  1
  C  C3178  1  0.820910  0.802110  0.234020  1
  C  C3179  1  0.068090  0.586890  0.265980  1
  C  C3180  1  0.697890  0.679090  0.265980  1
  C  C3181  1  0.086890  0.568090  0.765980  1
  C  C3182  1  0.179090  0.197890  0.765980  1
  C  C3183  1  0.931910  0.413110  0.734020  1
  C  C3184  1  0.302110  0.320910  0.734020  1
  C  C3185  1  0.885570  0.434790  0.226160  1
  C  C3186  1  0.840590  0.791370  0.226160  1
  C  C3187  1  0.065210  0.614430  0.273840  1
  C  C3188  1  0.708630  0.659410  0.273840  1
  C  C3189  1  0.114430  0.565210  0.773840  1
  C  C3190  1  0.159410  0.208630  0.773840  1
  C  C3191  1  0.934790  0.385570  0.726160  1
  C  C3192  1  0.291370  0.340590  0.726160  1
  C  C3193  1  0.942830  0.403570  0.216800  1
  C  C3194  1  0.773970  0.813230  0.216800  1
  C  C3195  1  0.096430  0.557170  0.283200  1
  C  C3196  1  0.686770  0.726030  0.283200  1
  C  C3197  1  0.057170  0.596430  0.783200  1
  C  C3198  1  0.226030  0.186770  0.783200  1
  C  C3199  1  0.903570  0.442830  0.716800  1
  C  C3200  1  0.313230  0.273970  0.716800  1
  C  C3201  1  0.968500  0.374500  0.201000  1
  C  C3202  1  0.732500  0.826500  0.201000  1
  C  C3203  1  0.125500  0.531500  0.299000  1
  C  C3204  1  0.673500  0.767500  0.299000  1
  C  C3205  1  0.031500  0.625500  0.799000  1
  C  C3206  1  0.267500  0.173500  0.799000  1
  C  C3207  1  0.874500  0.468500  0.701000  1
  C  C3208  1  0.326500  0.232500  0.701000  1
  C  C3209  1  0.987000  0.378000  0.231200  1
  C  C3210  1  0.744200  0.853200  0.231200  1
  C  C3211  1  0.122000  0.513000  0.268800  1
  C  C3212  1  0.646800  0.755800  0.268800  1
  C  C3213  1  0.013000  0.622000  0.768800  1
  C  C3214  1  0.255800  0.146800  0.768800  1
  C  C3215  1  0.878000  0.487000  0.731200  1
  C  C3216  1  0.353200  0.244200  0.731200  1
  C  C3217  1  0.013600  0.373000  0.238600  1
  C  C3218  1  0.725000  0.865600  0.238600  1
  C  C3219  1  0.127000  0.486400  0.261400  1
  C  C3220  1  0.634400  0.775000  0.261400  1
  C  C3221  1  0.986400  0.627000  0.761400  1
  C  C3222  1  0.275000  0.134400  0.761400  1
  C  C3223  1  0.873000  0.513600  0.738600  1
  C  C3224  1  0.365600  0.225000  0.738600  1
  C  C3225  1  0.021700  0.364300  0.215600  1
  C  C3226  1  0.693900  0.851300  0.215600  1
  C  C3227  1  0.135700  0.478300  0.284400  1
  C  C3228  1  0.648700  0.806100  0.284400  1
  C  C3229  1  0.978300  0.635700  0.784400  1
  C  C3230  1  0.306100  0.148700  0.784400  1
  C  C3231  1  0.864300  0.521700  0.715600  1
  C  C3232  1  0.351300  0.193900  0.715600  1
  C  C3233  1  0.003400  0.360800  0.185600  1
  C  C3234  1  0.682200  0.824800  0.185600  1
  C  C3235  1  0.139200  0.496600  0.314400  1
  C  C3236  1  0.675200  0.817800  0.314400  1
  C  C3237  1  0.996600  0.639200  0.814400  1
  C  C3238  1  0.317800  0.175200  0.814400  1
  C  C3239  1  0.860800  0.503400  0.685600  1
  C  C3240  1  0.324800  0.182200  0.685600  1
  C  C3241  1  0.976700  0.365900  0.178200  1
  C  C3242  1  0.701500  0.812300  0.178200  1
  C  C3243  1  0.134100  0.523300  0.321800  1
  C  C3244  1  0.687700  0.798500  0.321800  1
  C  C3245  1  0.023300  0.634100  0.821800  1
  C  C3246  1  0.298500  0.187700  0.821800  1
  C  C3247  1  0.865900  0.476700  0.678200  1
  C  C3248  1  0.312300  0.201500  0.678200  1
  C  C3249  1  0.038200  0.342800  0.215000  1
  C  C3250  1  0.676800  0.872200  0.215000  1
  C  C3251  1  0.157200  0.461800  0.285000  1
  C  C3252  1  0.627800  0.823200  0.285000  1
  C  C3253  1  0.961800  0.657200  0.785000  1
  C  C3254  1  0.323200  0.127800  0.785000  1
  C  C3255  1  0.842800  0.538200  0.715000  1
  C  C3256  1  0.372200  0.176800  0.715000  1
  C  C3257  1  0.620800  0.115000  0.947600  1
  C  C3258  1  0.826800  0.832600  0.947600  1
  C  C3259  1  0.385000  0.879200  0.552400  1
  C  C3260  1  0.667400  0.673200  0.552400  1
  C  C3261  1  0.379200  0.885000  0.052400  1
  C  C3262  1  0.173200  0.167400  0.052400  1
  C  C3263  1  0.615000  0.120800  0.447600  1
  C  C3264  1  0.332600  0.326800  0.447600  1
  C  C3265  1  0.762800  0.070800  0.077600  1
  C  C3266  1  0.814800  0.006800  0.077600  1
  C  C3267  1  0.429200  0.737200  0.422400  1
  C  C3268  1  0.493200  0.685200  0.422400  1
  C  C3269  1  0.237200  0.929200  0.922400  1
  C  C3270  1  0.185200  0.993200  0.922400  1
  C  C3271  1  0.570800  0.262800  0.577600  1
  C  C3272  1  0.506800  0.314800  0.577600  1
  Cl  Cl3273  1  0.726900  0.239800  0.976540  1
  Cl  Cl3274  1  0.749640  0.736740  0.976540  1
  Cl  Cl3275  1  0.260200  0.773100  0.523460  1
  Cl  Cl3276  1  0.763260  0.750360  0.523460  1
  Cl  Cl3277  1  0.273100  0.760200  0.023460  1
  Cl  Cl3278  1  0.250360  0.263260  0.023460  1
  Cl  Cl3279  1  0.739800  0.226900  0.476540  1
  Cl  Cl3280  1  0.236740  0.249640  0.476540  1
  Co  Co3281  1  0.779230  0.089990  0.958200  1
  Co  Co3282  1  0.678970  0.868210  0.958200  1
  Co  Co3283  1  0.410010  0.720770  0.541800  1
  Co  Co3284  1  0.631790  0.821030  0.541800  1
  Co  Co3285  1  0.220770  0.910010  0.041800  1
  Co  Co3286  1  0.321030  0.131790  0.041800  1
  Co  Co3287  1  0.589990  0.279230  0.458200  1
  Co  Co3288  1  0.368210  0.178970  0.458200  1
  Co  Co3289  1  0.625100  0.074700  0.790640  1
  Co  Co3290  1  0.665540  0.715940  0.790640  1
  Co  Co3291  1  0.425300  0.874900  0.709360  1
  Co  Co3292  1  0.784060  0.834460  0.709360  1
  Co  Co3293  1  0.374900  0.925300  0.209360  1
  Co  Co3294  1  0.334460  0.284060  0.209360  1
  Co  Co3295  1  0.574700  0.125100  0.290640  1
  Co  Co3296  1  0.215940  0.165540  0.290640  1
  Co  Co3297  1  0.540710  0.190030  0.867180  1
  Co  Co3298  1  0.826470  0.677150  0.867180  1
  Co  Co3299  1  0.309970  0.959290  0.632820  1
  Co  Co3300  1  0.822850  0.673530  0.632820  1
  Co  Co3301  1  0.459290  0.809970  0.132820  1
  Co  Co3302  1  0.173530  0.322850  0.132820  1
  Co  Co3303  1  0.690030  0.040710  0.367180  1
  Co  Co3304  1  0.177150  0.326470  0.367180  1
  Co  Co3305  1  0.642230  0.280590  0.079020  1
  Co  Co3306  1  0.936790  0.798430  0.079020  1
  Co  Co3307  1  0.219410  0.857770  0.420980  1
  Co  Co3308  1  0.701570  0.563210  0.420980  1
  Co  Co3309  1  0.357770  0.719410  0.920980  1
  Co  Co3310  1  0.063210  0.201570  0.920980  1
  Co  Co3311  1  0.780590  0.142230  0.579020  1
  Co  Co3312  1  0.298430  0.436790  0.579020  1
  Co  Co3313  1  0.785650  0.217670  0.133280  1
  Co  Co3314  1  0.847630  0.915610  0.133280  1
  Co  Co3315  1  0.282330  0.714350  0.366720  1
  Co  Co3316  1  0.584390  0.652370  0.366720  1
  Co  Co3317  1  0.214350  0.782330  0.866720  1
  Co  Co3318  1  0.152370  0.084390  0.866720  1
  Co  Co3319  1  0.717670  0.285650  0.633280  1
  Co  Co3320  1  0.415610  0.347630  0.633280  1
  Co  Co3321  1  0.874990  0.224870  0.966360  1
  Co  Co3322  1  0.591370  0.741490  0.966360  1
  Co  Co3323  1  0.275130  0.625010  0.533640  1
  Co  Co3324  1  0.758510  0.908630  0.533640  1
  Co  Co3325  1  0.125010  0.775130  0.033640  1
  Co  Co3326  1  0.408630  0.258510  0.033640  1
  Co  Co3327  1  0.724870  0.374990  0.466360  1
  Co  Co3328  1  0.241490  0.091370  0.466360  1
  Co  Co3329  1  0.724540  0.217340  0.812300  1
  Co  Co3330  1  0.587760  0.594960  0.812300  1
  Co  Co3331  1  0.282660  0.775460  0.687700  1
  Co  Co3332  1  0.905040  0.912240  0.687700  1
  Co  Co3333  1  0.275460  0.782660  0.187700  1
  Co  Co3334  1  0.412240  0.405040  0.187700  1
  Co  Co3335  1  0.717340  0.224540  0.312300  1
  Co  Co3336  1  0.094960  0.087760  0.312300  1
  Co  Co3337  1  0.644100  0.333420  0.893220  1
  Co  Co3338  1  0.749120  0.559800  0.893220  1
  Co  Co3339  1  0.166580  0.855900  0.606780  1
  Co  Co3340  1  0.940200  0.750880  0.606780  1
  Co  Co3341  1  0.355900  0.666580  0.106780  1
  Co  Co3342  1  0.250880  0.440200  0.106780  1
  Co  Co3343  1  0.833420  0.144100  0.393220  1
  Co  Co3344  1  0.059800  0.249120  0.393220  1
  Co  Co3345  1  0.754950  0.418770  0.104920  1
  Co  Co3346  1  0.849970  0.686150  0.104920  1
  Co  Co3347  1  0.081230  0.745050  0.395080  1
  Co  Co3348  1  0.813850  0.650030  0.395080  1
  Co  Co3349  1  0.245050  0.581230  0.895080  1
  Co  Co3350  1  0.150030  0.313850  0.895080  1
  Co  Co3351  1  0.918770  0.254950  0.604920  1
  Co  Co3352  1  0.186150  0.349970  0.604920  1
  Co  Co3353  1  0.897730  0.351530  0.152080  1
  Co  Co3354  1  0.754350  0.800550  0.152080  1
  Co  Co3355  1  0.148470  0.602270  0.347920  1
  Co  Co3356  1  0.699450  0.745650  0.347920  1
  Co  Co3357  1  0.102270  0.648470  0.847920  1
  Co  Co3358  1  0.245650  0.199450  0.847920  1
  Co  Co3359  1  0.851530  0.397730  0.652080  1
  Co  Co3360  1  0.300550  0.254350  0.652080  1
  F  F3361  1  0.035700  0.087900  0.868200  1
  F  F3362  1  0.332500  0.780300  0.868200  1
  F  F3363  1  0.412100  0.464300  0.631800  1
  F  F3364  1  0.719700  0.167500  0.631800  1
  F  F3365  1  0.964300  0.912100  0.131800  1
  F  F3366  1  0.667500  0.219700  0.131800  1
  F  F3367  1  0.587900  0.535700  0.368200  1
  F  F3368  1  0.280300  0.832500  0.368200  1
  F  F3369  1  0.026390  0.040810  0.848000  1
  F  F3370  1  0.321610  0.807190  0.848000  1
  F  F3371  1  0.459190  0.473610  0.652000  1
  F  F3372  1  0.692810  0.178390  0.652000  1
  F  F3373  1  0.973610  0.959190  0.152000  1
  F  F3374  1  0.678390  0.192810  0.152000  1
  F  F3375  1  0.540810  0.526390  0.348000  1
  F  F3376  1  0.307190  0.821610  0.348000  1
  F  F3377  1  0.014410  0.064990  0.882040  1
  F  F3378  1  0.367630  0.817050  0.882040  1
  F  F3379  1  0.435010  0.485590  0.617960  1
  F  F3380  1  0.682950  0.132370  0.617960  1
  F  F3381  1  0.985590  0.935010  0.117960  1
  F  F3382  1  0.632370  0.182950  0.117960  1
  F  F3383  1  0.564990  0.514410  0.382040  1
  F  F3384  1  0.317050  0.867630  0.382040  1
  F  F3385  1  0.919200  0.093400  0.801600  1
  F  F3386  1  0.382400  0.708200  0.801600  1
  F  F3387  1  0.406600  0.580800  0.698400  1
  F  F3388  1  0.791800  0.117600  0.698400  1
  F  F3389  1  0.080800  0.906600  0.198400  1
  F  F3390  1  0.617600  0.291800  0.198400  1
  F  F3391  1  0.593400  0.419200  0.301600  1
  F  F3392  1  0.208200  0.882400  0.301600  1
  F  F3393  1  0.905000  0.047600  0.788000  1
  F  F3394  1  0.383000  0.740400  0.788000  1
  F  F3395  1  0.452400  0.595000  0.712000  1
  F  F3396  1  0.759600  0.117000  0.712000  1
  F  F3397  1  0.095000  0.952400  0.212000  1
  F  F3398  1  0.617000  0.259600  0.212000  1
  F  F3399  1  0.547600  0.405000  0.288000  1
  F  F3400  1  0.240400  0.883000  0.288000  1
  F  F3401  1  0.892800  0.079600  0.817400  1
  F  F3402  1  0.424600  0.737800  0.817400  1
  F  F3403  1  0.420400  0.607200  0.682600  1
  F  F3404  1  0.762200  0.075400  0.682600  1
  F  F3405  1  0.107200  0.920400  0.182600  1
  F  F3406  1  0.575400  0.262200  0.182600  1
  F  F3407  1  0.579600  0.392800  0.317400  1
  F  F3408  1  0.237800  0.924600  0.317400  1
  F  F3409  1  0.519150  0.207010  0.027160  1
  F  F3410  1  0.008010  0.820150  0.027160  1
  F  F3411  1  0.292990  0.980850  0.472840  1
  F  F3412  1  0.679850  0.491990  0.472840  1
  F  F3413  1  0.480850  0.792990  0.972840  1
  F  F3414  1  0.991990  0.179850  0.972840  1
  F  F3415  1  0.707010  0.019150  0.527160  1
  F  F3416  1  0.320150  0.508010  0.527160  1
  F  F3417  1  0.512190  0.162190  0.993580  1
  F  F3418  1  0.981390  0.831390  0.993580  1
  F  F3419  1  0.337810  0.987810  0.506420  1
  F  F3420  1  0.668610  0.518610  0.506420  1
  F  F3421  1  0.487810  0.837810  0.006420  1
  F  F3422  1  0.018610  0.168610  0.006420  1
  F  F3423  1  0.662190  0.012190  0.493580  1
  F  F3424  1  0.331390  0.481390  0.493580  1
  F  F3425  1  0.474500  0.172300  0.991200  1
  F  F3426  1  0.016700  0.818900  0.991200  1
  F  F3427  1  0.327700  0.025500  0.508800  1
  F  F3428  1  0.681100  0.483300  0.508800  1
  F  F3429  1  0.525500  0.827700  0.008800  1
  F  F3430  1  0.983300  0.181100  0.008800  1
  F  F3431  1  0.672300  0.974500  0.491200  1
  F  F3432  1  0.318900  0.516700  0.491200  1
  F  F3433  1  0.400400  0.141000  0.860800  1
  F  F3434  1  0.960400  0.719800  0.860800  1
  F  F3435  1  0.359000  0.099600  0.639200  1
  F  F3436  1  0.780200  0.539600  0.639200  1
  F  F3437  1  0.599600  0.859000  0.139200  1
  F  F3438  1  0.039600  0.280200  0.139200  1
  F  F3439  1  0.641000  0.900400  0.360800  1
  F  F3440  1  0.219800  0.460400  0.360800  1
  F  F3441  1  0.436000  0.185800  0.899400  1
  F  F3442  1  0.963400  0.713600  0.899400  1
  F  F3443  1  0.314200  0.064000  0.600600  1
  F  F3444  1  0.786400  0.536600  0.600600  1
  F  F3445  1  0.564000  0.814200  0.100600  1
  F  F3446  1  0.036600  0.286400  0.100600  1
  F  F3447  1  0.685800  0.936000  0.399400  1
  F  F3448  1  0.213600  0.463400  0.399400  1
  F  F3449  1  0.443600  0.151200  0.867000  1
  F  F3450  1  0.923400  0.715800  0.867000  1
  F  F3451  1  0.348800  0.056400  0.633000  1
  F  F3452  1  0.784200  0.576600  0.633000  1
  F  F3453  1  0.556400  0.848800  0.133000  1
  F  F3454  1  0.076600  0.284200  0.133000  1
  F  F3455  1  0.651200  0.943600  0.367000  1
  F  F3456  1  0.215800  0.423400  0.367000  1
  F  F3457  1  0.609840  0.167020  0.817840  1
  F  F3458  1  0.708000  0.650820  0.817840  1
  F  F3459  1  0.332980  0.890160  0.682160  1
  F  F3460  1  0.849180  0.792000  0.682160  1
  F  F3461  1  0.390160  0.832980  0.182160  1
  F  F3462  1  0.292000  0.349180  0.182160  1
  F  F3463  1  0.667020  0.109840  0.317840  1
  F  F3464  1  0.150820  0.208000  0.317840  1
  F  F3465  1  0.597840  0.190240  0.789020  1
  F  F3466  1  0.691180  0.598780  0.789020  1
  F  F3467  1  0.309760  0.902160  0.710980  1
  F  F3468  1  0.901220  0.808820  0.710980  1
  F  F3469  1  0.402160  0.809760  0.210980  1
  F  F3470  1  0.308820  0.401220  0.210980  1
  F  F3471  1  0.690240  0.097840  0.289020  1
  F  F3472  1  0.098780  0.191180  0.289020  1
  F  F3473  1  0.600950  0.209910  0.837520  1
  F  F3474  1  0.736570  0.627610  0.837520  1
  F  F3475  1  0.290090  0.899050  0.662480  1
  F  F3476  1  0.872390  0.763430  0.662480  1
  F  F3477  1  0.399050  0.790090  0.162480  1
  F  F3478  1  0.263430  0.372390  0.162480  1
  F  F3479  1  0.709910  0.100950  0.337520  1
  F  F3480  1  0.127610  0.236570  0.337520  1
  F  F3481  1  0.647560  0.209980  0.860840  1
  F  F3482  1  0.713280  0.650860  0.860840  1
  F  F3483  1  0.290020  0.852440  0.639160  1
  F  F3484  1  0.849140  0.786720  0.639160  1
  F  F3485  1  0.352440  0.790020  0.139160  1
  F  F3486  1  0.286720  0.349140  0.139160  1
  F  F3487  1  0.709980  0.147560  0.360840  1
  F  F3488  1  0.150860  0.213280  0.360840  1
  F  F3489  1  0.634590  0.230890  0.831200  1
  F  F3490  1  0.696610  0.600310  0.831200  1
  F  F3491  1  0.269110  0.865410  0.668800  1
  F  F3492  1  0.899690  0.803390  0.668800  1
  F  F3493  1  0.365410  0.769110  0.168800  1
  F  F3494  1  0.303390  0.399690  0.168800  1
  F  F3495  1  0.730890  0.134590  0.331200  1
  F  F3496  1  0.100310  0.196610  0.331200  1
  F  F3497  1  0.643040  0.188700  0.812280  1
  F  F3498  1  0.669240  0.623580  0.812280  1
  F  F3499  1  0.311300  0.856960  0.687720  1
  F  F3500  1  0.876420  0.830760  0.687720  1
  F  F3501  1  0.356960  0.811300  0.187720  1
  F  F3502  1  0.330760  0.376420  0.187720  1
  F  F3503  1  0.688700  0.143040  0.312280  1
  F  F3504  1  0.123580  0.169240  0.312280  1
  F  F3505  1  0.658750  0.296750  0.984480  1
  F  F3506  1  0.825730  0.687730  0.984480  1
  F  F3507  1  0.203250  0.841250  0.515520  1
  F  F3508  1  0.812270  0.674270  0.515520  1
  F  F3509  1  0.341250  0.703250  0.015520  1
  F  F3510  1  0.174270  0.312270  0.015520  1
  F  F3511  1  0.796750  0.158750  0.484480  1
  F  F3512  1  0.187730  0.325730  0.484480  1
  F  F3513  1  0.610160  0.282460  0.969600  1
  F  F3514  1  0.859440  0.687140  0.969600  1
  F  F3515  1  0.217540  0.889840  0.530400  1
  F  F3516  1  0.812860  0.640560  0.530400  1
  F  F3517  1  0.389840  0.717540  0.030400  1
  F  F3518  1  0.140560  0.312860  0.030400  1
  F  F3519  1  0.782460  0.110160  0.469600  1
  F  F3520  1  0.187140  0.359440  0.469600  1
  F  F3521  1  0.614950  0.331790  0.990640  1
  F  F3522  1  0.875690  0.658850  0.990640  1
  F  F3523  1  0.168210  0.885050  0.509360  1
  F  F3524  1  0.841150  0.624310  0.509360  1
  F  F3525  1  0.385050  0.668210  0.009360  1
  F  F3526  1  0.124310  0.341150  0.009360  1
  F  F3527  1  0.831790  0.114950  0.490640  1
  F  F3528  1  0.158850  0.375690  0.490640  1
  F  F3529  1  0.647280  0.318780  0.022860  1
  F  F3530  1  0.875580  0.704080  0.022860  1
  F  F3531  1  0.181220  0.852720  0.477140  1
  F  F3532  1  0.795920  0.624420  0.477140  1
  F  F3533  1  0.352720  0.681220  0.977140  1
  F  F3534  1  0.124420  0.295920  0.977140  1
  F  F3535  1  0.818780  0.147280  0.522860  1
  F  F3536  1  0.204080  0.375580  0.522860  1
  F  F3537  1  0.625560  0.308780  0.952260  1
  F  F3538  1  0.826700  0.643480  0.952260  1
  F  F3539  1  0.191220  0.874440  0.547740  1
  F  F3540  1  0.856520  0.673300  0.547740  1
  F  F3541  1  0.374440  0.691220  0.047740  1
  F  F3542  1  0.173300  0.356520  0.047740  1
  F  F3543  1  0.808780  0.125560  0.452260  1
  F  F3544  1  0.143480  0.326700  0.452260  1
  F  F3545  1  0.662710  0.344790  0.004240  1
  F  F3546  1  0.841530  0.659450  0.004240  1
  F  F3547  1  0.155210  0.837290  0.495760  1
  F  F3548  1  0.840550  0.658470  0.495760  1
  F  F3549  1  0.337290  0.655210  0.995760  1
  F  F3550  1  0.158470  0.340550  0.995760  1
  F  F3551  1  0.844790  0.162710  0.504240  1
  F  F3552  1  0.159450  0.341530  0.504240  1
  F  F3553  1  0.829530  0.202690  0.072400  1
  F  F3554  1  0.742870  0.869710  0.072400  1
  F  F3555  1  0.297310  0.670470  0.427600  1
  F  F3556  1  0.630290  0.757130  0.427600  1
  F  F3557  1  0.170470  0.797310  0.927600  1
  F  F3558  1  0.257130  0.130290  0.927600  1
  F  F3559  1  0.702690  0.329530  0.572400  1
  F  F3560  1  0.369710  0.242870  0.572400  1
  F  F3561  1  0.865760  0.236400  0.053660  1
  F  F3562  1  0.687900  0.817260  0.053660  1
  F  F3563  1  0.263600  0.634240  0.446340  1
  F  F3564  1  0.682740  0.812100  0.446340  1
  F  F3565  1  0.134240  0.763600  0.946340  1
  F  F3566  1  0.312100  0.182740  0.946340  1
  F  F3567  1  0.736400  0.365760  0.553660  1
  F  F3568  1  0.317260  0.187900  0.553660  1
  F  F3569  1  0.877100  0.215320  0.083780  1
  F  F3570  1  0.706680  0.868460  0.083780  1
  F  F3571  1  0.284680  0.622900  0.416220  1
  F  F3572  1  0.631540  0.793320  0.416220  1
  F  F3573  1  0.122900  0.784680  0.916220  1
  F  F3574  1  0.293320  0.131540  0.916220  1
  F  F3575  1  0.715320  0.377100  0.583780  1
  F  F3576  1  0.368460  0.206680  0.583780  1
  F  F3577  1  0.857430  0.251110  0.095500  1
  F  F3578  1  0.738070  0.844390  0.095500  1
  F  F3579  1  0.248890  0.642570  0.404500  1
  F  F3580  1  0.655610  0.761930  0.404500  1
  F  F3581  1  0.142570  0.748890  0.904500  1
  F  F3582  1  0.261930  0.155610  0.904500  1
  F  F3583  1  0.751110  0.357430  0.595500  1
  F  F3584  1  0.344390  0.238070  0.595500  1
  F  F3585  1  0.838600  0.187940  0.030640  1
  F  F3586  1  0.692040  0.842700  0.030640  1
  F  F3587  1  0.312060  0.661400  0.469360  1
  F  F3588  1  0.657300  0.807960  0.469360  1
  F  F3589  1  0.161400  0.812060  0.969360  1
  F  F3590  1  0.307960  0.157300  0.969360  1
  F  F3591  1  0.687940  0.338600  0.530640  1
  F  F3592  1  0.342700  0.192040  0.530640  1
  F  F3593  1  0.817530  0.223630  0.042180  1
  F  F3594  1  0.724650  0.818550  0.042180  1
  F  F3595  1  0.276370  0.682470  0.457820  1
  F  F3596  1  0.681450  0.775350  0.457820  1
  F  F3597  1  0.182470  0.776370  0.957820  1
  F  F3598  1  0.275350  0.181450  0.957820  1
  F  F3599  1  0.723630  0.317530  0.542180  1
  F  F3600  1  0.318550  0.224650  0.542180  1
  F  F3601  1  0.744570  0.116070  0.878460  1
  F  F3602  1  0.633890  0.762390  0.878460  1
  F  F3603  1  0.383930  0.755430  0.621540  1
  F  F3604  1  0.737610  0.866110  0.621540  1
  F  F3605  1  0.255430  0.883930  0.121540  1
  F  F3606  1  0.366110  0.237610  0.121540  1
  F  F3607  1  0.616070  0.244570  0.378460  1
  F  F3608  1  0.262390  0.133890  0.378460  1
  F  F3609  1  0.761070  0.119930  0.848180  1
  F  F3610  1  0.587110  0.728250  0.848180  1
  F  F3611  1  0.380070  0.738930  0.651820  1
  F  F3612  1  0.771750  0.912890  0.651820  1
  F  F3613  1  0.238930  0.880070  0.151820  1
  F  F3614  1  0.412890  0.271750  0.151820  1
  F  F3615  1  0.619930  0.261070  0.348180  1
  F  F3616  1  0.228250  0.087110  0.348180  1
  F  F3617  1  0.787900  0.153880  0.901820  1
  F  F3618  1  0.613920  0.747940  0.901820  1
  F  F3619  1  0.346120  0.712100  0.598180  1
  F  F3620  1  0.752060  0.886080  0.598180  1
  F  F3621  1  0.212100  0.846120  0.098180  1
  F  F3622  1  0.386080  0.252060  0.098180  1
  F  F3623  1  0.653880  0.287900  0.401820  1
  F  F3624  1  0.247940  0.113920  0.401820  1
  F  F3625  1  0.719350  0.129150  0.842860  1
  F  F3626  1  0.623510  0.713710  0.842860  1
  F  F3627  1  0.370850  0.780650  0.657140  1
  F  F3628  1  0.786290  0.876490  0.657140  1
  F  F3629  1  0.280650  0.870850  0.157140  1
  F  F3630  1  0.376490  0.286290  0.157140  1
  F  F3631  1  0.629150  0.219350  0.342860  1
  F  F3632  1  0.213710  0.123510  0.342860  1
  F  F3633  1  0.746480  0.164600  0.897800  1
  F  F3634  1  0.651320  0.733200  0.897800  1
  F  F3635  1  0.335400  0.753520  0.602200  1
  F  F3636  1  0.766800  0.848680  0.602200  1
  F  F3637  1  0.253520  0.835400  0.102200  1
  F  F3638  1  0.348680  0.266800  0.102200  1
  F  F3639  1  0.664600  0.246480  0.397800  1
  F  F3640  1  0.233200  0.151320  0.397800  1
  F  F3641  1  0.762070  0.166950  0.866340  1
  F  F3642  1  0.604270  0.699390  0.866340  1
  F  F3643  1  0.333050  0.737930  0.633660  1
  F  F3644  1  0.800610  0.895730  0.633660  1
  F  F3645  1  0.237930  0.833050  0.133660  1
  F  F3646  1  0.395730  0.300610  0.133660  1
  F  F3647  1  0.666950  0.262070  0.366340  1
  F  F3648  1  0.199390  0.104270  0.366340  1
  F  F3649  1  0.763080  0.305100  0.096120  1
  F  F3650  1  0.833040  0.791020  0.096120  1
  F  F3651  1  0.194900  0.736920  0.403880  1
  F  F3652  1  0.708980  0.666960  0.403880  1
  F  F3653  1  0.236920  0.694900  0.903880  1
  F  F3654  1  0.166960  0.208980  0.903880  1
  F  F3655  1  0.805100  0.263080  0.596120  1
  F  F3656  1  0.291020  0.333040  0.596120  1
  F  F3657  1  0.746440  0.305320  0.127700  1
  F  F3658  1  0.881260  0.822380  0.127700  1
  F  F3659  1  0.194680  0.753560  0.372300  1
  F  F3660  1  0.677620  0.618740  0.372300  1
  F  F3661  1  0.253560  0.694680  0.872300  1
  F  F3662  1  0.118740  0.177620  0.872300  1
  F  F3663  1  0.805320  0.246440  0.627700  1
  F  F3664  1  0.322380  0.381260  0.627700  1
  F  F3665  1  0.788570  0.346190  0.171780  1
  F  F3666  1  0.883210  0.825590  0.171780  1
  F  F3667  1  0.153810  0.711430  0.328220  1
  F  F3668  1  0.674410  0.616790  0.328220  1
  F  F3669  1  0.211430  0.653810  0.828220  1
  F  F3670  1  0.116790  0.174410  0.828220  1
  F  F3671  1  0.846190  0.288570  0.671780  1
  F  F3672  1  0.325590  0.383210  0.671780  1
  F  F3673  1  0.793260  0.304340  0.140860  1
  F  F3674  1  0.847600  0.836520  0.140860  1
  F  F3675  1  0.195660  0.706740  0.359140  1
  F  F3676  1  0.663480  0.652400  0.359140  1
  F  F3677  1  0.206740  0.695660  0.859140  1
  F  F3678  1  0.152400  0.163480  0.859140  1
  F  F3679  1  0.804340  0.293260  0.640860  1
  F  F3680  1  0.336520  0.347600  0.640860  1
  F  F3681  1  0.804470  0.346190  0.139880  1
  F  F3682  1  0.835410  0.793690  0.139880  1
  F  F3683  1  0.153810  0.695530  0.360120  1
  F  F3684  1  0.706310  0.664590  0.360120  1
  F  F3685  1  0.195530  0.653810  0.860120  1
  F  F3686  1  0.164590  0.206310  0.860120  1
  F  F3687  1  0.846190  0.304470  0.639880  1
  F  F3688  1  0.293690  0.335410  0.639880  1
  F  F3689  1  0.758210  0.346730  0.127000  1
  F  F3690  1  0.868790  0.780270  0.127000  1
  F  F3691  1  0.153270  0.741790  0.373000  1
  F  F3692  1  0.719730  0.631210  0.373000  1
  F  F3693  1  0.241790  0.653270  0.873000  1
  F  F3694  1  0.131210  0.219730  0.873000  1
  F  F3695  1  0.846730  0.258210  0.627000  1
  F  F3696  1  0.280270  0.368790  0.627000  1
  F  F3697  1  0.828400  0.368800  0.993800  1
  F  F3698  1  0.665400  0.625000  0.993800  1
  F  F3699  1  0.131200  0.671600  0.506200  1
  F  F3700  1  0.875000  0.834600  0.506200  1
  F  F3701  1  0.171600  0.631200  0.006200  1
  F  F3702  1  0.334600  0.375000  0.006200  1
  F  F3703  1  0.868800  0.328400  0.493800  1
  F  F3704  1  0.125000  0.165400  0.493800  1
  F  F3705  1  0.804800  0.312200  0.963000  1
  F  F3706  1  0.658200  0.650800  0.963000  1
  F  F3707  1  0.187800  0.695200  0.537000  1
  F  F3708  1  0.849200  0.841800  0.537000  1
  F  F3709  1  0.195200  0.687800  0.037000  1
  F  F3710  1  0.341800  0.349200  0.037000  1
  F  F3711  1  0.812200  0.304800  0.463000  1
  F  F3712  1  0.150800  0.158200  0.463000  1
  F  F3713  1  0.785400  0.314400  0.988400  1
  F  F3714  1  0.703000  0.674000  0.988400  1
  F  F3715  1  0.185600  0.714600  0.511600  1
  F  F3716  1  0.826000  0.797000  0.511600  1
  F  F3717  1  0.214600  0.685600  0.011600  1
  F  F3718  1  0.297000  0.326000  0.011600  1
  F  F3719  1  0.814400  0.285400  0.488400  1
  F  F3720  1  0.174000  0.203000  0.488400  1
  F  F3721  1  0.810200  0.357600  0.023000  1
  F  F3722  1  0.712800  0.665400  0.023000  1
  F  F3723  1  0.142400  0.689800  0.477000  1
  F  F3724  1  0.834600  0.787200  0.477000  1
  F  F3725  1  0.189800  0.642400  0.977000  1
  F  F3726  1  0.287200  0.334600  0.977000  1
  F  F3727  1  0.857600  0.310200  0.523000  1
  F  F3728  1  0.165400  0.212800  0.523000  1
  F  F3729  1  0.829600  0.332600  0.009400  1
  F  F3730  1  0.679800  0.676800  0.009400  1
  F  F3731  1  0.167400  0.670400  0.490600  1
  F  F3732  1  0.823200  0.820200  0.490600  1
  F  F3733  1  0.170400  0.667400  0.990600  1
  F  F3734  1  0.320200  0.323200  0.990600  1
  F  F3735  1  0.832600  0.329600  0.509400  1
  F  F3736  1  0.176800  0.179800  0.509400  1
  F  F3737  1  0.774400  0.339400  0.966200  1
  F  F3738  1  0.691800  0.626800  0.966200  1
  F  F3739  1  0.160600  0.725600  0.533800  1
  F  F3740  1  0.873200  0.808200  0.533800  1
  F  F3741  1  0.225600  0.660600  0.033800  1
  F  F3742  1  0.308200  0.373200  0.033800  1
  F  F3743  1  0.839400  0.274400  0.466200  1
  F  F3744  1  0.126800  0.191800  0.466200  1
  F  F3745  1  0.538600  0.238400  0.648600  1
  F  F3746  1  0.610000  0.410200  0.648600  1
  F  F3747  1  0.261600  0.961400  0.851400  1
  F  F3748  1  0.089800  0.890000  0.851400  1
  F  F3749  1  0.461400  0.761600  0.351400  1
  F  F3750  1  0.390000  0.589800  0.351400  1
  F  F3751  1  0.738400  0.038600  0.148600  1
  F  F3752  1  0.910200  0.110000  0.148600  1
  F  F3753  1  0.506400  0.204400  0.641800  1
  F  F3754  1  0.635400  0.437400  0.641800  1
  F  F3755  1  0.295600  0.993600  0.858200  1
  F  F3756  1  0.062600  0.864600  0.858200  1
  F  F3757  1  0.493600  0.795600  0.358200  1
  F  F3758  1  0.364600  0.562600  0.358200  1
  F  F3759  1  0.704400  0.006400  0.141800  1
  F  F3760  1  0.937400  0.135400  0.141800  1
  F  F3761  1  0.533500  0.246500  0.688400  1
  F  F3762  1  0.654900  0.441900  0.688400  1
  F  F3763  1  0.253500  0.966500  0.811600  1
  F  F3764  1  0.058100  0.845100  0.811600  1
  F  F3765  1  0.466500  0.753500  0.311600  1
  F  F3766  1  0.345100  0.558100  0.311600  1
  F  F3767  1  0.746500  0.033500  0.188400  1
  F  F3768  1  0.941900  0.154900  0.188400  1
  F  F3769  1  0.710700  0.308900  0.255400  1
  F  F3770  1  0.044700  0.946500  0.255400  1
  F  F3771  1  0.191100  0.789300  0.244600  1
  F  F3772  1  0.553500  0.455300  0.244600  1
  F  F3773  1  0.289300  0.691100  0.744600  1
  F  F3774  1  0.955300  0.053500  0.744600  1
  F  F3775  1  0.808900  0.210700  0.755400  1
  F  F3776  1  0.446500  0.544700  0.755400  1
  F  F3777  1  0.705900  0.344700  0.293000  1
  F  F3778  1  0.087100  0.948300  0.293000  1
  F  F3779  1  0.155300  0.794100  0.207000  1
  F  F3780  1  0.551700  0.412900  0.207000  1
  F  F3781  1  0.294100  0.655300  0.707000  1
  F  F3782  1  0.912900  0.051700  0.707000  1
  F  F3783  1  0.844700  0.205900  0.793000  1
  F  F3784  1  0.448300  0.587100  0.793000  1
  F  F3785  1  0.747000  0.332200  0.305600  1
  F  F3786  1  0.058600  0.973400  0.305600  1
  F  F3787  1  0.167800  0.753000  0.194400  1
  F  F3788  1  0.526600  0.441400  0.194400  1
  F  F3789  1  0.253000  0.667800  0.694400  1
  F  F3790  1  0.941400  0.026600  0.694400  1
  F  F3791  1  0.832200  0.247000  0.805600  1
  F  F3792  1  0.473400  0.558600  0.805600  1
  F  F3793  1  0.846400  0.407800  0.324400  1
  F  F3794  1  0.978000  0.916600  0.324400  1
  F  F3795  1  0.092200  0.653600  0.175600  1
  F  F3796  1  0.583400  0.522000  0.175600  1
  F  F3797  1  0.153600  0.592200  0.675600  1
  F  F3798  1  0.022000  0.083400  0.675600  1
  F  F3799  1  0.907800  0.346400  0.824400  1
  F  F3800  1  0.416600  0.478000  0.824400  1
  F  F3801  1  0.813000  0.388600  0.270400  1
  F  F3802  1  0.957400  0.881800  0.270400  1
  F  F3803  1  0.111400  0.687000  0.229600  1
  F  F3804  1  0.618200  0.542600  0.229600  1
  F  F3805  1  0.187000  0.611400  0.729600  1
  F  F3806  1  0.042600  0.118200  0.729600  1
  F  F3807  1  0.888600  0.313000  0.770400  1
  F  F3808  1  0.381800  0.457400  0.770400  1
  F  F3809  1  0.806400  0.415200  0.306200  1
  F  F3810  1  0.999800  0.891000  0.306200  1
  F  F3811  1  0.084800  0.693600  0.193800  1
  F  F3812  1  0.609000  0.500200  0.193800  1
  F  F3813  1  0.193600  0.584800  0.693800  1
  F  F3814  1  0.000200  0.109000  0.693800  1
  F  F3815  1  0.915200  0.306400  0.806200  1
  F  F3816  1  0.391000  0.499800  0.806200  1
  F  F3817  1  0.624200  0.116400  0.958400  1
  F  F3818  1  0.834200  0.842000  0.958400  1
  F  F3819  1  0.383600  0.875800  0.541600  1
  F  F3820  1  0.658000  0.665800  0.541600  1
  F  F3821  1  0.375800  0.883600  0.041600  1
  F  F3822  1  0.165800  0.158000  0.041600  1
  F  F3823  1  0.616400  0.124200  0.458400  1
  F  F3824  1  0.342000  0.334200  0.458400  1
  F  F3825  1  0.623400  0.155000  0.955000  1
  F  F3826  1  0.831600  0.800000  0.955000  1
  F  F3827  1  0.345000  0.876600  0.545000  1
  F  F3828  1  0.700000  0.668400  0.545000  1
  F  F3829  1  0.376600  0.845000  0.045000  1
  F  F3830  1  0.168400  0.200000  0.045000  1
  F  F3831  1  0.655000  0.123400  0.455000  1
  F  F3832  1  0.300000  0.331600  0.455000  1
  F  F3833  1  0.631100  0.123300  0.923400  1
  F  F3834  1  0.792300  0.800100  0.923400  1
  F  F3835  1  0.376700  0.868900  0.576600  1
  F  F3836  1  0.699900  0.707700  0.576600  1
  F  F3837  1  0.368900  0.876700  0.076600  1
  F  F3838  1  0.207700  0.199900  0.076600  1
  F  F3839  1  0.623300  0.131100  0.423400  1
  F  F3840  1  0.300100  0.292300  0.423400  1
  F  F3841  1  0.663600  0.162000  0.001400  1
  F  F3842  1  0.837800  0.839400  0.001400  1
  F  F3843  1  0.338000  0.836400  0.498600  1
  F  F3844  1  0.660600  0.662200  0.498600  1
  F  F3845  1  0.336400  0.838000  0.998600  1
  F  F3846  1  0.162200  0.160600  0.998600  1
  F  F3847  1  0.662000  0.163600  0.501400  1
  F  F3848  1  0.339400  0.337800  0.501400  1
  F  F3849  1  0.671700  0.123900  0.965800  1
  F  F3850  1  0.794100  0.841900  0.965800  1
  F  F3851  1  0.376100  0.828300  0.534200  1
  F  F3852  1  0.658100  0.705900  0.534200  1
  F  F3853  1  0.328300  0.876100  0.034200  1
  F  F3854  1  0.205900  0.158100  0.034200  1
  F  F3855  1  0.623900  0.171700  0.465800  1
  F  F3856  1  0.341900  0.294100  0.465800  1
  F  F3857  1  0.669200  0.166400  0.963600  1
  F  F3858  1  0.794400  0.797200  0.963600  1
  F  F3859  1  0.333600  0.830800  0.536400  1
  F  F3860  1  0.702800  0.705600  0.536400  1
  F  F3861  1  0.330800  0.833600  0.036400  1
  F  F3862  1  0.205600  0.202800  0.036400  1
  F  F3863  1  0.666400  0.169200  0.463600  1
  F  F3864  1  0.297200  0.294400  0.463600  1
  F  F3865  1  0.598500  0.125100  0.942400  1
  F  F3866  1  0.843900  0.817300  0.942400  1
  F  F3867  1  0.374900  0.901500  0.557600  1
  F  F3868  1  0.682700  0.656100  0.557600  1
  F  F3869  1  0.401500  0.874900  0.057600  1
  F  F3870  1  0.156100  0.182700  0.057600  1
  F  F3871  1  0.625100  0.098500  0.442400  1
  F  F3872  1  0.317300  0.343900  0.442400  1
  F  F3873  1  0.613800  0.093600  0.918400  1
  F  F3874  1  0.804600  0.824800  0.918400  1
  F  F3875  1  0.406400  0.886200  0.581600  1
  F  F3876  1  0.675200  0.695400  0.581600  1
  F  F3877  1  0.386200  0.906400  0.081600  1
  F  F3878  1  0.195400  0.175200  0.081600  1
  F  F3879  1  0.593600  0.113800  0.418400  1
  F  F3880  1  0.324800  0.304600  0.418400  1
  F  F3881  1  0.620600  0.102400  0.964000  1
  F  F3882  1  0.843400  0.861600  0.964000  1
  F  F3883  1  0.397600  0.879400  0.536000  1
  F  F3884  1  0.638400  0.656600  0.536000  1
  F  F3885  1  0.379400  0.897600  0.036000  1
  F  F3886  1  0.156600  0.138400  0.036000  1
  F  F3887  1  0.602400  0.120600  0.464000  1
  F  F3888  1  0.361600  0.343400  0.464000  1
  F  F3889  1  0.755200  0.063400  0.097600  1
  F  F3890  1  0.842400  0.034200  0.097600  1
  F  F3891  1  0.436600  0.744800  0.402400  1
  F  F3892  1  0.465800  0.657600  0.402400  1
  F  F3893  1  0.244800  0.936600  0.902400  1
  F  F3894  1  0.157600  0.965800  0.902400  1
  F  F3895  1  0.563400  0.255200  0.597600  1
  F  F3896  1  0.534200  0.342400  0.597600  1
  F  F3897  1  0.820300  0.991700  0.050800  1
  F  F3898  1  0.730500  0.059100  0.050800  1
  F  F3899  1  0.508300  0.679700  0.449200  1
  F  F3900  1  0.440900  0.769500  0.449200  1
  F  F3901  1  0.179700  0.008300  0.949200  1
  F  F3902  1  0.269500  0.940900  0.949200  1
  F  F3903  1  0.491700  0.320300  0.550800  1
  F  F3904  1  0.559100  0.230500  0.550800  1
  F  F3905  1  0.765900  0.102700  0.098000  1
  F  F3906  1  0.832100  0.995300  0.098000  1
  F  F3907  1  0.397300  0.734100  0.402000  1
  F  F3908  1  0.504700  0.667900  0.402000  1
  F  F3909  1  0.234100  0.897300  0.902000  1
  F  F3910  1  0.167900  0.004700  0.902000  1
  F  F3911  1  0.602700  0.265900  0.598000  1
  F  F3912  1  0.495300  0.332100  0.598000  1
  F  F3913  1  0.743800  0.479800  0.274000  1.0
  F  F3914  1  0.030200  0.794200  0.274000  1.0
  F  F3915  1  0.020200  0.756200  0.226000  1.0
  F  F3916  1  0.705800  0.469800  0.226000  1.0
  F  F3917  1  0.256200  0.520200  0.726000  1.0
  F  F3918  1  0.969800  0.205800  0.726000  1.0
  F  F3919  1  0.979800  0.243800  0.774000  1.0
  F  F3920  1  0.294200  0.530200  0.774000  1.0
  F  F3921  1  0.739800  0.523000  0.275000  1.0
  F  F3922  1  0.035200  0.752000  0.275000  1.0
  F  F3923  1  0.977000  0.760200  0.225000  1.0
  F  F3924  1  0.748000  0.464800  0.225000  1.0
  F  F3925  1  0.260200  0.477000  0.725000  1.0
  F  F3926  1  0.964800  0.248000  0.725000  1.0
  F  F3927  1  0.023000  0.239800  0.775000  1.0
  F  F3928  1  0.252000  0.535200  0.775000  1.0
  F  F3929  1  0.777400  0.514200  0.275200  1.0
  F  F3930  1  0.997800  0.761000  0.275200  1.0
  F  F3931  1  0.985800  0.722600  0.224800  1.0
  F  F3932  1  0.739000  0.502200  0.224800  1.0
  F  F3933  1  0.222600  0.485800  0.724800  1.0
  F  F3934  1  0.002200  0.239000  0.724800  1.0
  F  F3935  1  0.014200  0.277400  0.775200  1.0
  F  F3936  1  0.261000  0.497800  0.775200  1.0
  H  H3937  1  0.674300  0.074900  0.989400  1
  H  H3938  1  0.815100  0.914500  0.989400  1
  H  H3939  1  0.425100  0.825700  0.510600  1
  H  H3940  1  0.585500  0.684900  0.510600  1
  H  H3941  1  0.325700  0.925100  0.010600  1
  H  H3942  1  0.184900  0.085500  0.010600  1
  H  H3943  1  0.574900  0.174300  0.489400  1
  H  H3944  1  0.414500  0.315100  0.489400  1
  H  H3945  1  0.669900  0.102700  0.013000  1
  H  H3946  1  0.843100  0.910300  0.013000  1
  H  H3947  1  0.397300  0.830100  0.487000  1
  H  H3948  1  0.589700  0.656900  0.487000  1
  H  H3949  1  0.330100  0.897300  0.987000  1
  H  H3950  1  0.156900  0.089700  0.987000  1
  H  H3951  1  0.602700  0.169900  0.513000  1
  H  H3952  1  0.410300  0.343100  0.513000  1
  H  H3953  1  0.686200  0.083800  0.026200  1
  H  H3954  1  0.840000  0.942400  0.026200  1
  H  H3955  1  0.416200  0.813800  0.473800  1
  H  H3956  1  0.557600  0.660000  0.473800  1
  H  H3957  1  0.313800  0.916200  0.973800  1
  H  H3958  1  0.160000  0.057600  0.973800  1
  H  H3959  1  0.583800  0.186200  0.526200  1
  H  H3960  1  0.442400  0.340000  0.526200  1
  H  H3961  1  0.783500  0.420300  0.989600  1
  H  H3962  1  0.706100  0.569300  0.989600  1
  H  H3963  1  0.079700  0.716500  0.510400  1
  H  H3964  1  0.930700  0.793900  0.510400  1
  H  H3965  1  0.216500  0.579700  0.010400  1
  H  H3966  1  0.293900  0.430700  0.010400  1
  H  H3967  1  0.920300  0.283500  0.489600  1
  H  H3968  1  0.069300  0.206100  0.489600  1
  H  H3969  1  0.806400  0.428600  0.026000  1
  H  H3970  1  0.719600  0.597400  0.026000  1
  H  H3971  1  0.071400  0.693600  0.474000  1
  H  H3972  1  0.902600  0.780400  0.474000  1
  H  H3973  1  0.193600  0.571400  0.974000  1
  H  H3974  1  0.280400  0.402600  0.974000  1
  H  H3975  1  0.928600  0.306400  0.526000  1
  H  H3976  1  0.097400  0.219600  0.526000  1
  H  H3977  1  0.788300  0.449700  0.020600  1
  H  H3978  1  0.732300  0.570900  0.020600  1
  H  H3979  1  0.050300  0.711700  0.479400  1
  H  H3980  1  0.929100  0.767700  0.479400  1
  H  H3981  1  0.211700  0.550300  0.979400  1
  H  H3982  1  0.267700  0.429100  0.979400  1
  H  H3983  1  0.949700  0.288300  0.520600  1
  H  H3984  1  0.070900  0.232300  0.520600  1
  H  H3985  1  0.553800  0.128200  0.944200  1
  H  H3986  1  0.890400  0.816000  0.944200  1
  H  H3987  1  0.371800  0.946200  0.555800  1
  H  H3988  1  0.684000  0.609600  0.555800  1
  H  H3989  1  0.446200  0.871800  0.055800  1
  H  H3990  1  0.109600  0.184000  0.055800  1
  H  H3991  1  0.628200  0.053800  0.444200  1
  H  H3992  1  0.316000  0.390400  0.444200  1
  H  H3993  1  0.529700  0.143500  0.944400  1
  H  H3994  1  0.914700  0.800900  0.944400  1
  H  H3995  1  0.356500  0.970300  0.555600  1
  H  H3996  1  0.699100  0.585300  0.555600  1
  H  H3997  1  0.470300  0.856500  0.055600  1
  H  H3998  1  0.085300  0.199100  0.055600  1
  H  H3999  1  0.643500  0.029700  0.444400  1
  H  H4000  1  0.300900  0.414700  0.444400  1
  H  H4001  1  0.557200  0.150600  0.978200  1
  H  H4002  1  0.921000  0.827600  0.978200  1
  H  H4003  1  0.349400  0.942800  0.521800  1
  H  H4004  1  0.672400  0.579000  0.521800  1
  H  H4005  1  0.442800  0.849400  0.021800  1
  H  H4006  1  0.079000  0.172400  0.021800  1
  H  H4007  1  0.650600  0.057200  0.478200  1
  H  H4008  1  0.327600  0.421000  0.478200  1
  H  H4009  1  0.629300  0.023300  0.878400  1
  H  H4010  1  0.749100  0.855100  0.878400  1
  H  H4011  1  0.476700  0.870700  0.621600  1
  H  H4012  1  0.644900  0.750900  0.621600  1
  H  H4013  1  0.370700  0.976700  0.121600  1
  H  H4014  1  0.250900  0.144900  0.121600  1
  H  H4015  1  0.523300  0.129300  0.378400  1
  H  H4016  1  0.355100  0.249100  0.378400  1
  H  H4017  1  0.621600  0.051400  0.896200  1
  H  H4018  1  0.774600  0.844800  0.896200  1
  H  H4019  1  0.448600  0.878400  0.603800  1
  H  H4020  1  0.655200  0.725400  0.603800  1
  H  H4021  1  0.378400  0.948600  0.103800  1
  H  H4022  1  0.225400  0.155200  0.103800  1
  H  H4023  1  0.551400  0.121600  0.396200  1
  H  H4024  1  0.344800  0.274600  0.396200  1
  H  H4025  1  0.645900  0.042300  0.917600  1
  H  H4026  1  0.771700  0.875300  0.917600  1
  H  H4027  1  0.457700  0.854100  0.582400  1
  H  H4028  1  0.624700  0.728300  0.582400  1
  H  H4029  1  0.354100  0.957700  0.082400  1
  H  H4030  1  0.228300  0.124700  0.082400  1
  H  H4031  1  0.542300  0.145900  0.417600  1
  H  H4032  1  0.375300  0.271700  0.417600  1
  H  H4033  1  0.902800  0.352600  0.015000  1
  H  H4034  1  0.612200  0.662400  0.015000  1
  H  H4035  1  0.147400  0.597200  0.485000  1
  H  H4036  1  0.837600  0.887800  0.485000  1
  H  H4037  1  0.097200  0.647400  0.985000  1
  H  H4038  1  0.387800  0.337600  0.985000  1
  H  H4039  1  0.852600  0.402800  0.515000  1
  H  H4040  1  0.162400  0.112200  0.515000  1
  H  H4041  1  0.934000  0.356800  0.043800  1
  H  H4042  1  0.609800  0.687000  0.043800  1
  H  H4043  1  0.143200  0.566000  0.456200  1
  H  H4044  1  0.813000  0.890200  0.456200  1
  H  H4045  1  0.066000  0.643200  0.956200  1
  H  H4046  1  0.390200  0.313000  0.956200  1
  H  H4047  1  0.856800  0.434000  0.543800  1
  H  H4048  1  0.187000  0.109800  0.543800  1
  H  H4049  1  0.915700  0.377300  0.052800  1
  H  H4050  1  0.637100  0.675500  0.052800  1
  H  H4051  1  0.122700  0.584300  0.447200  1
  H  H4052  1  0.824500  0.862900  0.447200  1
  H  H4053  1  0.084300  0.622700  0.947200  1
  H  H4054  1  0.362900  0.324500  0.947200  1
  H  H4055  1  0.877300  0.415700  0.552800  1
  H  H4056  1  0.175500  0.137100  0.552800  1
  H  H4057  1  0.852700  0.343100  0.178600  1
  H  H4058  1  0.825900  0.835500  0.178600  1
  H  H4059  1  0.156900  0.647300  0.321400  1
  H  H4060  1  0.664500  0.674100  0.321400  1
  H  H4061  1  0.147300  0.656900  0.821400  1
  H  H4062  1  0.174100  0.164500  0.821400  1
  H  H4063  1  0.843100  0.352700  0.678600  1
  H  H4064  1  0.335500  0.325900  0.678600  1
  H  H4065  1  0.843400  0.365400  0.221600  1
  H  H4066  1  0.878200  0.856200  0.221600  1
  H  H4067  1  0.134600  0.656600  0.278400  1
  H  H4068  1  0.643800  0.621800  0.278400  1
  H  H4069  1  0.156600  0.634600  0.778400  1
  H  H4070  1  0.121800  0.143800  0.778400  1
  H  H4071  1  0.865400  0.343400  0.721600  1
  H  H4072  1  0.356200  0.378200  0.721600  1
  H  H4073  1  0.923800  0.368600  0.285600  1
  H  H4074  1  0.861800  0.917000  0.285600  1
  H  H4075  1  0.131400  0.576200  0.214400  1
  H  H4076  1  0.583000  0.638200  0.214400  1
  H  H4077  1  0.076200  0.631400  0.714400  1
  H  H4078  1  0.138200  0.083000  0.714400  1
  H  H4079  1  0.868600  0.423800  0.785600  1
  H  H4080  1  0.417000  0.361800  0.785600  1
  H  H4081  1  0.936300  0.351900  0.242000  1
  H  H4082  1  0.805700  0.890100  0.242000  1
  H  H4083  1  0.148100  0.563700  0.258000  1
  H  H4084  1  0.609900  0.694300  0.258000  1
  H  H4085  1  0.063700  0.648100  0.758000  1
  H  H4086  1  0.194300  0.109900  0.758000  1
  H  H4087  1  0.851900  0.436300  0.742000  1
  H  H4088  1  0.390100  0.305700  0.742000  1
  H  H4089  1  0.862800  0.365800  0.282600  1
  H  H4090  1  0.919800  0.916800  0.282600  1
  H  H4091  1  0.134200  0.637200  0.217400  1
  H  H4092  1  0.583200  0.580200  0.217400  1
  H  H4093  1  0.137200  0.634200  0.717400  1
  H  H4094  1  0.080200  0.083200  0.717400  1
  H  H4095  1  0.865800  0.362800  0.782600  1
  H  H4096  1  0.416800  0.419800  0.782600  1
  H  H4097  1  0.867700  0.397500  0.285600  1
  H  H4098  1  0.917900  0.888100  0.285600  1
  H  H4099  1  0.102500  0.632300  0.214400  1
  H  H4100  1  0.611900  0.582100  0.214400  1
  H  H4101  1  0.132300  0.602500  0.714400  1
  H  H4102  1  0.082100  0.111900  0.714400  1
  H  H4103  1  0.897500  0.367700  0.785600  1
  H  H4104  1  0.388100  0.417900  0.785600  1
  H  H4105  1  0.895800  0.391600  0.306800  1
  H  H4106  1  0.911000  0.915200  0.306800  1
  H  H4107  1  0.108400  0.604200  0.193200  1
  H  H4108  1  0.584800  0.589000  0.193200  1
  H  H4109  1  0.104200  0.608400  0.693200  1
  H  H4110  1  0.089000  0.084800  0.693200  1
  H  H4111  1  0.891600  0.395800  0.806800  1
  H  H4112  1  0.415200  0.411000  0.806800  1
  H  H4113  1  0.726900  0.064500  0.709600  1
  H  H4114  1  0.482700  0.645100  0.709600  1
  H  H4115  1  0.435500  0.773100  0.790400  1
  H  H4116  1  0.854900  0.017300  0.790400  1
  H  H4117  1  0.273100  0.935500  0.290400  1
  H  H4118  1  0.517300  0.354900  0.290400  1
  H  H4119  1  0.564500  0.226900  0.209600  1
  H  H4120  1  0.145100  0.982700  0.209600  1
  H  H4121  1  0.717400  0.054000  0.729000  1
  H  H4122  1  0.511600  0.675000  0.729000  1
  H  H4123  1  0.446000  0.782600  0.771000  1
  H  H4124  1  0.825000  0.988400  0.771000  1
  H  H4125  1  0.282600  0.946000  0.271000  1
  H  H4126  1  0.488400  0.325000  0.271000  1
  H  H4127  1  0.554000  0.217400  0.229000  1
  H  H4128  1  0.175000  0.011600  0.229000  1
  H  H4129  1  0.750800  0.077600  0.747600  1
  H  H4130  1  0.496800  0.670000  0.747600  1
  H  H4131  1  0.422400  0.749200  0.752400  1
  H  H4132  1  0.830000  0.003200  0.752400  1
  H  H4133  1  0.249200  0.922400  0.252400  1
  H  H4134  1  0.503200  0.330000  0.252400  1
  H  H4135  1  0.577600  0.250800  0.247600  1
  H  H4136  1  0.170000  0.996800  0.247600  1
  H  H4137  1  0.699900  0.094500  0.699000  1
  H  H4138  1  0.499100  0.604500  0.699000  1
  H  H4139  1  0.405500  0.800100  0.801000  1
  H  H4140  1  0.895500  0.000900  0.801000  1
  H  H4141  1  0.300100  0.905500  0.301000  1
  H  H4142  1  0.500900  0.395500  0.301000  1
  H  H4143  1  0.594500  0.199900  0.199000  1
  H  H4144  1  0.104500  0.999100  0.199000  1
  H  H4145  1  0.679400  0.131600  0.714200  1
  H  H4146  1  0.534800  0.582600  0.714200  1
  H  H4147  1  0.368400  0.820600  0.785800  1
  H  H4148  1  0.917400  0.965200  0.785800  1
  H  H4149  1  0.320600  0.868400  0.285800  1
  H  H4150  1  0.465200  0.417400  0.285800  1
  H  H4151  1  0.631600  0.179400  0.214200  1
  H  H4152  1  0.082600  0.034800  0.214200  1
  H  H4153  1  0.724400  0.149800  0.806400  1
  H  H4154  1  0.582000  0.656600  0.806400  1
  H  H4155  1  0.350200  0.775600  0.693600  1
  H  H4156  1  0.843400  0.918000  0.693600  1
  H  H4157  1  0.275600  0.850200  0.193600  1
  H  H4158  1  0.418000  0.343400  0.193600  1
  H  H4159  1  0.649800  0.224400  0.306400  1
  H  H4160  1  0.156600  0.082000  0.306400  1
  H  H4161  1  0.736600  0.109000  0.789800  1
  H  H4162  1  0.553200  0.680800  0.789800  1
  H  H4163  1  0.391000  0.763400  0.710200  1
  H  H4164  1  0.819200  0.946800  0.710200  1
  H  H4165  1  0.263400  0.891000  0.210200  1
  H  H4166  1  0.446800  0.319200  0.210200  1
  H  H4167  1  0.609000  0.236600  0.289800  1
  H  H4168  1  0.180800  0.053200  0.289800  1
  H  H4169  1  0.649900  0.150100  0.734000  1
  H  H4170  1  0.584100  0.583900  0.734000  1
  H  H4171  1  0.349900  0.850100  0.766000  1
  H  H4172  1  0.916100  0.915900  0.766000  1
  H  H4173  1  0.350100  0.849900  0.266000  1
  H  H4174  1  0.415900  0.416100  0.266000  1
  H  H4175  1  0.650100  0.149900  0.234000  1
  H  H4176  1  0.083900  0.084100  0.234000  1
  H  H4177  1  0.690100  0.261300  0.826400  1
  H  H4178  1  0.636300  0.565100  0.826400  1
  H  H4179  1  0.238700  0.809900  0.673600  1
  H  H4180  1  0.934900  0.863700  0.673600  1
  H  H4181  1  0.309900  0.738700  0.173600  1
  H  H4182  1  0.363700  0.434900  0.173600  1
  H  H4183  1  0.761300  0.190100  0.326400  1
  H  H4184  1  0.065100  0.136300  0.326400  1
  H  H4185  1  0.605900  0.224500  0.745000  1
  H  H4186  1  0.639100  0.520500  0.745000  1
  H  H4187  1  0.275500  0.894100  0.755000  1
  H  H4188  1  0.979500  0.860900  0.755000  1
  H  H4189  1  0.394100  0.775500  0.255000  1
  H  H4190  1  0.360900  0.479500  0.255000  1
  H  H4191  1  0.724500  0.105900  0.245000  1
  H  H4192  1  0.020500  0.139100  0.245000  1
  H  H4193  1  0.617100  0.179100  0.724600  1
  H  H4194  1  0.607500  0.545500  0.724600  1
  H  H4195  1  0.320900  0.882900  0.775400  1
  H  H4196  1  0.954500  0.892500  0.775400  1
  H  H4197  1  0.382900  0.820900  0.275400  1
  H  H4198  1  0.392500  0.454500  0.275400  1
  H  H4199  1  0.679100  0.117100  0.224600  1
  H  H4200  1  0.045500  0.107500  0.224600  1
  H  H4201  1  0.660600  0.284200  0.848400  1
  H  H4202  1  0.687800  0.564200  0.848400  1
  H  H4203  1  0.215800  0.839400  0.651600  1
  H  H4204  1  0.935800  0.812200  0.651600  1
  H  H4205  1  0.339400  0.715800  0.151600  1
  H  H4206  1  0.312200  0.435800  0.151600  1
  H  H4207  1  0.784200  0.160600  0.348400  1
  H  H4208  1  0.064200  0.187800  0.348400  1
  H  H4209  1  0.608900  0.318100  0.784200  1
  H  H4210  1  0.675300  0.466100  0.784200  1
  H  H4211  1  0.181900  0.891100  0.715800  1
  H  H4212  1  0.033900  0.824700  0.715800  1
  H  H4213  1  0.391100  0.681900  0.215800  1
  H  H4214  1  0.324700  0.533900  0.215800  1
  H  H4215  1  0.818100  0.108900  0.284200  1
  H  H4216  1  0.966100  0.175300  0.284200  1
  H  H4217  1  0.609200  0.266000  0.754600  1
  H  H4218  1  0.645400  0.488600  0.754600  1
  H  H4219  1  0.234000  0.890800  0.745400  1
  H  H4220  1  0.011400  0.854600  0.745400  1
  H  H4221  1  0.390800  0.734000  0.245400  1
  H  H4222  1  0.354600  0.511400  0.245400  1
  H  H4223  1  0.766000  0.109200  0.254600  1
  H  H4224  1  0.988600  0.145400  0.254600  1
  H  H4225  1  0.602600  0.352000  0.828400  1
  H  H4226  1  0.725800  0.476400  0.828400  1
  H  H4227  1  0.148000  0.897400  0.671600  1
  H  H4228  1  0.023600  0.774200  0.671600  1
  H  H4229  1  0.397400  0.648000  0.171600  1
  H  H4230  1  0.274200  0.523600  0.171600  1
  H  H4231  1  0.852000  0.102600  0.328400  1
  H  H4232  1  0.976400  0.225800  0.328400  1
  H  H4233  1  0.573500  0.362100  0.847800  1
  H  H4234  1  0.774300  0.485700  0.847800  1
  H  H4235  1  0.137900  0.926500  0.652200  1
  H  H4236  1  0.014300  0.725700  0.652200  1
  H  H4237  1  0.426500  0.637900  0.152200  1
  H  H4238  1  0.225700  0.514300  0.152200  1
  H  H4239  1  0.862100  0.073500  0.347800  1
  H  H4240  1  0.985700  0.274300  0.347800  1
  H  H4241  1  0.555800  0.397600  0.872000  1
  H  H4242  1  0.816200  0.474400  0.872000  1
  H  H4243  1  0.102400  0.944200  0.628000  1
  H  H4244  1  0.025600  0.683800  0.628000  1
  H  H4245  1  0.444200  0.602400  0.128000  1
  H  H4246  1  0.183800  0.525600  0.128000  1
  H  H4247  1  0.897600  0.055800  0.372000  1
  H  H4248  1  0.974400  0.316200  0.372000  1
  H  H4249  1  0.638500  0.444300  0.957200  1
  H  H4250  1  0.818700  0.512900  0.957200  1
  H  H4251  1  0.055700  0.861500  0.542800  1
  H  H4252  1  0.987100  0.681300  0.542800  1
  H  H4253  1  0.361500  0.555700  0.042800  1
  H  H4254  1  0.181300  0.487100  0.042800  1
  H  H4255  1  0.944300  0.138500  0.457200  1
  H  H4256  1  0.012900  0.318700  0.457200  1
  H  H4257  1  0.656300  0.408900  0.933000  1
  H  H4258  1  0.776700  0.524100  0.933000  1
  H  H4259  1  0.091100  0.843700  0.567000  1
  H  H4260  1  0.975900  0.723300  0.567000  1
  H  H4261  1  0.343700  0.591100  0.067000  1
  H  H4262  1  0.223300  0.475900  0.067000  1
  H  H4263  1  0.908900  0.156300  0.433000  1
  H  H4264  1  0.024100  0.276700  0.433000  1
  H  H4265  1  0.582700  0.460500  0.923800  1
  H  H4266  1  0.841100  0.463300  0.923800  1
  H  H4267  1  0.039500  0.917300  0.576200  1
  H  H4268  1  0.036700  0.658900  0.576200  1
  H  H4269  1  0.417300  0.539500  0.076200  1
  H  H4270  1  0.158900  0.536700  0.076200  1
  H  H4271  1  0.960500  0.082700  0.423800  1
  H  H4272  1  0.963300  0.341100  0.423800  1
  H  H4273  1  0.602400  0.462000  0.957400  1
  H  H4274  1  0.855000  0.495400  0.957400  1
  H  H4275  1  0.038000  0.897600  0.542600  1
  H  H4276  1  0.004600  0.645000  0.542600  1
  H  H4277  1  0.397600  0.538000  0.042600  1
  H  H4278  1  0.145000  0.504600  0.042600  1
  H  H4279  1  0.962000  0.102400  0.457400  1
  H  H4280  1  0.995400  0.355000  0.457400  1
  H  H4281  1  0.567700  0.439500  0.931600  1
  H  H4282  1  0.863900  0.492100  0.931600  1
  H  H4283  1  0.060500  0.932300  0.568400  1
  H  H4284  1  0.007900  0.636100  0.568400  1
  H  H4285  1  0.432300  0.560500  0.068400  1
  H  H4286  1  0.136100  0.507900  0.068400  1
  H  H4287  1  0.939500  0.067700  0.431600  1
  H  H4288  1  0.992100  0.363900  0.431600  1
  H  H4289  1  0.524500  0.224300  0.721800  1
  H  H4290  1  0.697300  0.497500  0.721800  1
  H  H4291  1  0.275700  0.975500  0.778200  1
  H  H4292  1  0.002500  0.802700  0.778200  1
  H  H4293  1  0.475500  0.775700  0.278200  1
  H  H4294  1  0.302700  0.502500  0.278200  1
  H  H4295  1  0.724300  0.024500  0.221800  1
  H  H4296  1  0.997500  0.197300  0.221800  1
  H  H4297  1  0.495700  0.218300  0.724200  1
  H  H4298  1  0.728500  0.505900  0.724200  1
  H  H4299  1  0.281700  0.004300  0.775800  1
  H  H4300  1  0.994100  0.771500  0.775800  1
  H  H4301  1  0.504300  0.781700  0.275800  1
  H  H4302  1  0.271500  0.494100  0.275800  1
  H  H4303  1  0.718300  0.995700  0.224200  1
  H  H4304  1  0.005900  0.228500  0.224200  1
  H  H4305  1  0.516000  0.198600  0.727800  1
  H  H4306  1  0.711800  0.529200  0.727800  1
  H  H4307  1  0.301400  0.984000  0.772200  1
  H  H4308  1  0.970800  0.788200  0.772200  1
  H  H4309  1  0.484000  0.801400  0.272200  1
  H  H4310  1  0.288200  0.470800  0.272200  1
  H  H4311  1  0.698600  0.016000  0.227800  1
  H  H4312  1  0.029200  0.211800  0.227800  1
  H  H4313  1  0.510200  0.267200  0.770800  1
  H  H4314  1  0.760600  0.503600  0.770800  1
  H  H4315  1  0.232800  0.989800  0.729200  1
  H  H4316  1  0.996400  0.739400  0.729200  1
  H  H4317  1  0.489800  0.732800  0.229200  1
  H  H4318  1  0.239400  0.496400  0.229200  1
  H  H4319  1  0.767200  0.010200  0.270800  1
  H  H4320  1  0.003600  0.260600  0.270800  1
  H  H4321  1  0.542100  0.305500  0.827000  1
  H  H4322  1  0.784900  0.521500  0.827000  1
  H  H4323  1  0.194500  0.957900  0.673000  1
  H  H4324  1  0.978500  0.715100  0.673000  1
  H  H4325  1  0.457900  0.694500  0.173000  1
  H  H4326  1  0.215100  0.478500  0.173000  1
  H  H4327  1  0.805500  0.042100  0.327000  1
  H  H4328  1  0.021500  0.284900  0.327000  1
  H  H4329  1  0.600800  0.262200  0.837000  1
  H  H4330  1  0.736200  0.574800  0.837000  1
  H  H4331  1  0.237800  0.899200  0.663000  1
  H  H4332  1  0.925200  0.763800  0.663000  1
  H  H4333  1  0.399200  0.737800  0.163000  1
  H  H4334  1  0.263800  0.425200  0.163000  1
  H  H4335  1  0.762200  0.100800  0.337000  1
  H  H4336  1  0.074800  0.236200  0.337000  1
  H  H4337  1  0.568800  0.222400  0.781400  1
  H  H4338  1  0.712600  0.559000  0.781400  1
  H  H4339  1  0.277600  0.931200  0.718600  1
  H  H4340  1  0.941000  0.787400  0.718600  1
  H  H4341  1  0.431200  0.777600  0.218600  1
  H  H4342  1  0.287400  0.441000  0.218600  1
  H  H4343  1  0.722400  0.068800  0.281400  1
  H  H4344  1  0.059000  0.212600  0.281400  1
  H  H4345  1  0.567600  0.318400  0.881000  1
  H  H4346  1  0.813400  0.562600  0.881000  1
  H  H4347  1  0.181600  0.932400  0.619000  1
  H  H4348  1  0.937400  0.686600  0.619000  1
  H  H4349  1  0.432400  0.681600  0.119000  1
  H  H4350  1  0.186600  0.437400  0.119000  1
  H  H4351  1  0.818400  0.067600  0.381000  1
  H  H4352  1  0.062600  0.313400  0.381000  1
  H  H4353  1  0.682500  0.381500  0.973600  1
  H  H4354  1  0.791100  0.592100  0.973600  1
  H  H4355  1  0.118500  0.817500  0.526400  1
  H  H4356  1  0.907900  0.708900  0.526400  1
  H  H4357  1  0.317500  0.618500  0.026400  1
  H  H4358  1  0.208900  0.407900  0.026400  1
  H  H4359  1  0.881500  0.182500  0.473600  1
  H  H4360  1  0.092100  0.291100  0.473600  1
  H  H4361  1  0.618800  0.397800  0.993400  1
  H  H4362  1  0.874600  0.595600  0.993400  1
  H  H4363  1  0.102200  0.881200  0.506600  1
  H  H4364  1  0.904400  0.625400  0.506600  1
  H  H4365  1  0.381200  0.602200  0.006600  1
  H  H4366  1  0.125400  0.404400  0.006600  1
  H  H4367  1  0.897800  0.118800  0.493400  1
  H  H4368  1  0.095600  0.374600  0.493400  1
  H  H4369  1  0.580800  0.360400  0.938400  1
  H  H4370  1  0.857600  0.578000  0.938400  1
  H  H4371  1  0.139600  0.919200  0.561600  1
  H  H4372  1  0.922000  0.642400  0.561600  1
  H  H4373  1  0.419200  0.639600  0.061600  1
  H  H4374  1  0.142400  0.422000  0.061600  1
  H  H4375  1  0.860400  0.080800  0.438400  1
  H  H4376  1  0.078000  0.357600  0.438400  1
  H  H4377  1  0.705900  0.391700  0.030600  1
  H  H4378  1  0.824700  0.638900  0.030600  1
  H  H4379  1  0.108300  0.794100  0.469400  1
  H  H4380  1  0.861100  0.675300  0.469400  1
  H  H4381  1  0.294100  0.608300  0.969400  1
  H  H4382  1  0.175300  0.361100  0.969400  1
  H  H4383  1  0.891700  0.205900  0.530600  1
  H  H4384  1  0.138900  0.324700  0.530600  1
  H  H4385  1  0.694500  0.480100  0.085600  1
  H  H4386  1  0.891100  0.605500  0.085600  1
  H  H4387  1  0.019900  0.805500  0.414400  1
  H  H4388  1  0.894500  0.608900  0.414400  1
  H  H4389  1  0.305500  0.519900  0.914400  1
  H  H4390  1  0.108900  0.394500  0.914400  1
  H  H4391  1  0.980100  0.194500  0.585600  1
  H  H4392  1  0.105500  0.391100  0.585600  1
  H  H4393  1  0.657500  0.446700  0.027800  1
  H  H4394  1  0.870300  0.581100  0.027800  1
  H  H4395  1  0.053300  0.842500  0.472200  1
  H  H4396  1  0.918900  0.629700  0.472200  1
  H  H4397  1  0.342500  0.553300  0.972200  1
  H  H4398  1  0.129700  0.418900  0.972200  1
  H  H4399  1  0.946700  0.157500  0.527800  1
  H  H4400  1  0.081100  0.370300  0.527800  1
  H  H4401  1  0.746200  0.493400  0.140000  1
  H  H4402  1  0.893800  0.646600  0.140000  1
  H  H4403  1  0.006600  0.753800  0.360000  1
  H  H4404  1  0.853400  0.606200  0.360000  1
  H  H4405  1  0.253800  0.506600  0.860000  1
  H  H4406  1  0.106200  0.353400  0.860000  1
  H  H4407  1  0.993400  0.246200  0.640000  1
  H  H4408  1  0.146600  0.393800  0.640000  1
  H  H4409  1  0.762600  0.495200  0.188400  1
  H  H4410  1  0.925800  0.693200  0.188400  1
  H  H4411  1  0.004800  0.737400  0.311600  1
  H  H4412  1  0.806800  0.574200  0.311600  1
  H  H4413  1  0.237400  0.504800  0.811600  1
  H  H4414  1  0.074200  0.306800  0.811600  1
  H  H4415  1  0.995200  0.262600  0.688400  1
  H  H4416  1  0.193200  0.425800  0.688400  1
  H  H4417  1  0.801300  0.523500  0.244200  1
  H  H4418  1  0.942900  0.720700  0.244200  1
  H  H4419  1  0.976500  0.698700  0.255800  1
  H  H4420  1  0.779300  0.557100  0.255800  1
  H  H4421  1  0.198700  0.476500  0.755800  1
  H  H4422  1  0.057100  0.279300  0.755800  1
  H  H4423  1  0.023500  0.301300  0.744200  1
  H  H4424  1  0.220700  0.442900  0.744200  1
  H  H4425  1  0.862000  0.504600  0.220000  1
  H  H4426  1  0.858000  0.715400  0.220000  1
  H  H4427  1  0.995400  0.638000  0.280000  1
  H  H4428  1  0.784600  0.642000  0.280000  1
  H  H4429  1  0.138000  0.495400  0.780000  1
  H  H4430  1  0.142000  0.284600  0.780000  1
  H  H4431  1  0.004600  0.362000  0.720000  1
  H  H4432  1  0.215400  0.358000  0.720000  1
  H  H4433  1  0.823100  0.476100  0.164000  1
  H  H4434  1  0.840900  0.687900  0.164000  1
  H  H4435  1  0.023900  0.676900  0.336000  1
  H  H4436  1  0.812100  0.659100  0.336000  1
  H  H4437  1  0.176900  0.523900  0.836000  1
  H  H4438  1  0.159100  0.312100  0.836000  1
  H  H4439  1  0.976100  0.323100  0.664000  1
  H  H4440  1  0.187900  0.340900  0.664000  1
  H  H4441  1  0.867500  0.512300  0.274000  1
  H  H4442  1  0.906500  0.761700  0.274000  1
  H  H4443  1  0.987700  0.632500  0.226000  1
  H  H4444  1  0.738300  0.593500  0.226000  1
  H  H4445  1  0.132500  0.487700  0.726000  1
  H  H4446  1  0.093500  0.238300  0.726000  1
  H  H4447  1  0.012300  0.367500  0.774000  1
  H  H4448  1  0.261700  0.406500  0.774000  1
  H  H4449  1  0.850200  0.532000  0.286600  1
  H  H4450  1  0.936400  0.754600  0.286600  1
  H  H4451  1  0.968000  0.649800  0.213400  1
  H  H4452  1  0.745400  0.563600  0.213400  1
  H  H4453  1  0.149800  0.468000  0.713400  1
  H  H4454  1  0.063600  0.245400  0.713400  1
  H  H4455  1  0.032000  0.350200  0.786600  1
  H  H4456  1  0.254600  0.436400  0.786600  1
  H  H4457  1  0.876000  0.546400  0.283600  1
  H  H4458  1  0.907600  0.737200  0.283600  1
  H  H4459  1  0.953600  0.624000  0.216400  1
  H  H4460  1  0.762800  0.592400  0.216400  1
  H  H4461  1  0.124000  0.453600  0.716400  1
  H  H4462  1  0.092400  0.262800  0.716400  1
  H  H4463  1  0.046400  0.376000  0.783600  1
  H  H4464  1  0.237200  0.407600  0.783600  1
  H  H4465  1  0.592800  0.394600  0.057600  1
  H  H4466  1  0.964800  0.663000  0.057600  1
  H  H4467  1  0.105400  0.907200  0.442400  1
  H  H4468  1  0.837000  0.535200  0.442400  1
  H  H4469  1  0.407200  0.605400  0.942400  1
  H  H4470  1  0.035200  0.337000  0.942400  1
  H  H4471  1  0.894600  0.092800  0.557600  1
  H  H4472  1  0.163000  0.464800  0.557600  1
  H  H4473  1  0.605100  0.423900  0.058200  1
  H  H4474  1  0.953100  0.634300  0.058200  1
  H  H4475  1  0.076100  0.894900  0.441800  1
  H  H4476  1  0.865700  0.546900  0.441800  1
  H  H4477  1  0.394900  0.576100  0.941800  1
  H  H4478  1  0.046900  0.365700  0.941800  1
  H  H4479  1  0.923900  0.105100  0.558200  1
  H  H4480  1  0.134300  0.453100  0.558200  1
  H  H4481  1  0.603900  0.427700  0.088800  1
  H  H4482  1  0.984900  0.661100  0.088800  1
  H  H4483  1  0.072300  0.896100  0.411200  1
  H  H4484  1  0.838900  0.515100  0.411200  1
  H  H4485  1  0.396100  0.572300  0.911200  1
  H  H4486  1  0.015100  0.338900  0.911200  1
  H  H4487  1  0.927700  0.103900  0.588800  1
  H  H4488  1  0.161100  0.484900  0.588800  1
  H  H4489  1  0.659400  0.451000  0.135800  1
  H  H4490  1  0.976400  0.684800  0.135800  1
  H  H4491  1  0.049000  0.840600  0.364200  1
  H  H4492  1  0.815200  0.523600  0.364200  1
  H  H4493  1  0.340600  0.549000  0.864200  1
  H  H4494  1  0.023600  0.315200  0.864200  1
  H  H4495  1  0.951000  0.159400  0.635800  1
  H  H4496  1  0.184800  0.476400  0.635800  1
  H  H4497  1  0.707900  0.450100  0.156400  1
  H  H4498  1  0.948500  0.706300  0.156400  1
  H  H4499  1  0.049900  0.792100  0.343600  1
  H  H4500  1  0.793700  0.551500  0.343600  1
  H  H4501  1  0.292100  0.549900  0.843600  1
  H  H4502  1  0.051500  0.293700  0.843600  1
  H  H4503  1  0.950100  0.207900  0.656400  1
  H  H4504  1  0.206300  0.448500  0.656400  1
  H  H4505  1  0.680000  0.379600  0.066000  1
  H  H4506  1  0.886000  0.686400  0.066000  1
  H  H4507  1  0.120400  0.820000  0.434000  1
  H  H4508  1  0.813600  0.614000  0.434000  1
  H  H4509  1  0.320000  0.620400  0.934000  1
  H  H4510  1  0.114000  0.313600  0.934000  1
  H  H4511  1  0.879600  0.180000  0.566000  1
  H  H4512  1  0.186400  0.386000  0.566000  1
  H  H4513  1  0.631400  0.380600  0.045400  1
  H  H4514  1  0.914000  0.664800  0.045400  1
  H  H4515  1  0.119400  0.868600  0.454600  1
  H  H4516  1  0.835200  0.586000  0.454600  1
  H  H4517  1  0.368600  0.619400  0.954600  1
  H  H4518  1  0.086000  0.335200  0.954600  1
  H  H4519  1  0.880600  0.131400  0.545400  1
  H  H4520  1  0.164800  0.414000  0.545400  1
  H  H4521  1  0.735100  0.418900  0.164600  1
  H  H4522  1  0.929500  0.745700  0.164600  1
  H  H4523  1  0.081100  0.764900  0.335400  1
  H  H4524  1  0.754300  0.570500  0.335400  1
  H  H4525  1  0.264900  0.581100  0.835400  1
  H  H4526  1  0.070500  0.254300  0.835400  1
  H  H4527  1  0.918900  0.235100  0.664600  1
  H  H4528  1  0.245700  0.429500  0.664600  1
  H  H4529  1  0.818500  0.410900  0.140000  1
  H  H4530  1  0.821500  0.729100  0.140000  1
  H  H4531  1  0.089100  0.681500  0.360000  1
  H  H4532  1  0.770900  0.678500  0.360000  1
  H  H4533  1  0.181500  0.589100  0.860000  1
  H  H4534  1  0.178500  0.270900  0.860000  1
  H  H4535  1  0.910900  0.318500  0.640000  1
  H  H4536  1  0.229100  0.321500  0.640000  1
  H  H4537  1  0.830600  0.424200  0.226000  1
  H  H4538  1  0.895400  0.801800  0.226000  1
  H  H4539  1  0.075800  0.669400  0.274000  1
  H  H4540  1  0.698200  0.604600  0.274000  1
  H  H4541  1  0.169400  0.575800  0.774000  1
  H  H4542  1  0.104600  0.198200  0.774000  1
  H  H4543  1  0.924200  0.330600  0.726000  1
  H  H4544  1  0.301800  0.395400  0.726000  1
  H  H4545  1  0.782700  0.423300  0.208000  1
  H  H4546  1  0.925300  0.784700  0.208000  1
  H  H4547  1  0.076700  0.717300  0.292000  1
  H  H4548  1  0.715300  0.574700  0.292000  1
  H  H4549  1  0.217300  0.576700  0.792000  1
  H  H4550  1  0.074700  0.215300  0.792000  1
  H  H4551  1  0.923300  0.282700  0.708000  1
  H  H4552  1  0.284700  0.425300  0.708000  1
  H  H4553  1  0.844500  0.377300  0.149600  1
  H  H4554  1  0.805100  0.772300  0.149600  1
  H  H4555  1  0.122700  0.655500  0.350400  1
  H  H4556  1  0.727700  0.694900  0.350400  1
  H  H4557  1  0.155500  0.622700  0.850400  1
  H  H4558  1  0.194900  0.227700  0.850400  1
  H  H4559  1  0.877300  0.344500  0.649600  1
  H  H4560  1  0.272300  0.305100  0.649600  1
  H  H4561  1  0.930700  0.445900  0.255600  1
  H  H4562  1  0.824900  0.809700  0.255600  1
  H  H4563  1  0.054100  0.569300  0.244400  1
  H  H4564  1  0.690300  0.675100  0.244400  1
  H  H4565  1  0.069300  0.554100  0.744400  1
  H  H4566  1  0.175100  0.190300  0.744400  1
  H  H4567  1  0.945900  0.430700  0.755600  1
  H  H4568  1  0.309700  0.324900  0.755600  1
  H  H4569  1  0.884100  0.450500  0.242200  1
  H  H4570  1  0.858100  0.791700  0.242200  1
  H  H4571  1  0.049500  0.615900  0.257800  1
  H  H4572  1  0.708300  0.641900  0.257800  1
  H  H4573  1  0.115900  0.549500  0.757800  1
  H  H4574  1  0.141900  0.208300  0.757800  1
  H  H4575  1  0.950500  0.384100  0.742200  1
  H  H4576  1  0.291700  0.358100  0.742200  1
  H  H4577  1  0.961000  0.416800  0.237800  1
  H  H4578  1  0.776800  0.821000  0.237800  1
  H  H4579  1  0.083200  0.539000  0.262200  1
  H  H4580  1  0.679000  0.723200  0.262200  1
  H  H4581  1  0.039000  0.583200  0.762200  1
  H  H4582  1  0.223200  0.179000  0.762200  1
  H  H4583  1  0.916800  0.461000  0.737800  1
  H  H4584  1  0.321000  0.276800  0.737800  1
  H  H4585  1  0.981300  0.383900  0.246800  1
  H  H4586  1  0.765500  0.862900  0.246800  1
  H  H4587  1  0.116100  0.518700  0.253200  1
  H  H4588  1  0.637100  0.734500  0.253200  1
  H  H4589  1  0.018700  0.616100  0.753200  1
  H  H4590  1  0.234500  0.137100  0.753200  1
  H  H4591  1  0.883900  0.481300  0.746800  1
  H  H4592  1  0.362900  0.265500  0.746800  1
  H  H4593  1  0.026200  0.375400  0.259200  1
  H  H4594  1  0.733000  0.883800  0.259200  1
  H  H4595  1  0.124600  0.473800  0.240800  1
  H  H4596  1  0.616200  0.767000  0.240800  1
  H  H4597  1  0.973800  0.624600  0.740800  1
  H  H4598  1  0.267000  0.116200  0.740800  1
  H  H4599  1  0.875400  0.526200  0.759200  1
  H  H4600  1  0.383800  0.233000  0.759200  1
  H  H4601  1  0.008900  0.354900  0.170000  1
  H  H4602  1  0.661100  0.815100  0.170000  1
  H  H4603  1  0.145100  0.491100  0.330000  1
  H  H4604  1  0.684900  0.838900  0.330000  1
  H  H4605  1  0.991100  0.645100  0.830000  1
  H  H4606  1  0.338900  0.184900  0.830000  1
  H  H4607  1  0.854900  0.508900  0.670000  1
  H  H4608  1  0.315100  0.161100  0.670000  1
  H  H4609  1  0.964100  0.363500  0.157600  1
  H  H4610  1  0.693500  0.794100  0.157600  1
  H  H4611  1  0.136500  0.535900  0.342400  1
  H  H4612  1  0.705900  0.806500  0.342400  1
  H  H4613  1  0.035900  0.636500  0.842400  1
  H  H4614  1  0.306500  0.205900  0.842400  1
  H  H4615  1  0.863500  0.464100  0.657600  1
  H  H4616  1  0.294100  0.193500  0.657600  1
  H  H4617  1  0.057900  0.352900  0.235800  1
  H  H4618  1  0.677900  0.882900  0.235800  1
  H  H4619  1  0.147100  0.442100  0.264200  1
  H  H4620  1  0.617100  0.822100  0.264200  1
  H  H4621  1  0.942100  0.647100  0.764200  1
  H  H4622  1  0.322100  0.117100  0.764200  1
  H  H4623  1  0.852900  0.557900  0.735800  1
  H  H4624  1  0.382900  0.177900  0.735800  1
  H  H4625  1  0.041200  0.336400  0.196800  1
  H  H4626  1  0.655600  0.860400  0.196800  1
  H  H4627  1  0.163600  0.458800  0.303200  1
  H  H4628  1  0.639600  0.844400  0.303200  1
  H  H4629  1  0.958800  0.663600  0.803200  1
  H  H4630  1  0.344400  0.139600  0.803200  1
  H  H4631  1  0.836400  0.541200  0.696800  1
  H  H4632  1  0.360400  0.155600  0.696800  1
  H  H4633  1  0.026200  0.325000  0.212000  1
  H  H4634  1  0.685800  0.887000  0.212000  1
  H  H4635  1  0.175000  0.473800  0.288000  1
  H  H4636  1  0.613000  0.814200  0.288000  1
  H  H4637  1  0.973800  0.675000  0.788000  1
  H  H4638  1  0.314200  0.113000  0.788000  1
  H  H4639  1  0.825000  0.526200  0.712000  1
  H  H4640  1  0.387000  0.185800  0.712000  1
  N  N4641  1  0.971000  0.081200  0.838400  1
  N  N4642  1  0.367400  0.757200  0.838400  1
  N  N4643  1  0.418800  0.529000  0.661600  1
  N  N4644  1  0.742800  0.132600  0.661600  1
  N  N4645  1  0.029000  0.918800  0.161600  1
  N  N4646  1  0.632600  0.242800  0.161600  1
  N  N4647  1  0.581200  0.471000  0.338400  1
  N  N4648  1  0.257200  0.867400  0.338400  1
  N  N4649  1  0.479500  0.161500  0.934800  1
  N  N4650  1  0.955300  0.773300  0.934800  1
  N  N4651  1  0.338500  0.020500  0.565200  1
  N  N4652  1  0.726700  0.544700  0.565200  1
  N  N4653  1  0.520500  0.838500  0.065200  1
  N  N4654  1  0.044700  0.226700  0.065200  1
  N  N4655  1  0.661500  0.979500  0.434800  1
  N  N4656  1  0.273300  0.455300  0.434800  1
  N  N4657  1  0.737400  0.131200  0.031600  1
  N  N4658  1  0.794200  0.900400  0.031600  1
  N  N4659  1  0.368800  0.762600  0.468400  1
  N  N4660  1  0.599600  0.705800  0.468400  1
  N  N4661  1  0.262600  0.868800  0.968400  1
  N  N4662  1  0.205800  0.099600  0.968400  1
  N  N4663  1  0.631200  0.237400  0.531600  1
  N  N4664  1  0.400400  0.294200  0.531600  1
  N  N4665  1  0.741700  0.395900  0.006000  1
  N  N4666  1  0.764300  0.610100  0.006000  1
  N  N4667  1  0.104100  0.758300  0.494000  1
  N  N4668  1  0.889900  0.735700  0.494000  1
  N  N4669  1  0.258300  0.604100  0.994000  1
  N  N4670  1  0.235700  0.389900  0.994000  1
  N  N4671  1  0.895900  0.241700  0.506000  1
  N  N4672  1  0.110100  0.264300  0.506000  1
  N  N4673  1  0.583140  0.191940  0.963880  1
  N  N4674  1  0.880740  0.771940  0.963880  1
  N  N4675  1  0.308060  0.916860  0.536120  1
  N  N4676  1  0.728060  0.619260  0.536120  1
  N  N4677  1  0.416860  0.808060  0.036120  1
  N  N4678  1  0.119260  0.228060  0.036120  1
  N  N4679  1  0.691940  0.083140  0.463880  1
  N  N4680  1  0.271940  0.380740  0.463880  1
  N  N4681  1  0.676000  0.070000  0.889600  1
  N  N4682  1  0.713600  0.819600  0.889600  1
  N  N4683  1  0.430000  0.824000  0.610400  1
  N  N4684  1  0.680400  0.786400  0.610400  1
  N  N4685  1  0.324000  0.930000  0.110400  1
  N  N4686  1  0.286400  0.180400  0.110400  1
  N  N4687  1  0.570000  0.176000  0.389600  1
  N  N4688  1  0.319600  0.213600  0.389600  1
  N  N4689  1  0.887900  0.318100  0.044200  1
  N  N4690  1  0.656300  0.726100  0.044200  1
  N  N4691  1  0.181900  0.612100  0.455800  1
  N  N4692  1  0.773900  0.843700  0.455800  1
  N  N4693  1  0.112100  0.681900  0.955800  1
  N  N4694  1  0.343700  0.273900  0.955800  1
  N  N4695  1  0.818100  0.387900  0.544200  1
  N  N4696  1  0.226100  0.156300  0.544200  1
  N  N4697  1  0.764700  0.349500  0.270200  1
  N  N4698  1  0.005500  0.920700  0.270200  1
  N  N4699  1  0.150500  0.735300  0.229800  1
  N  N4700  1  0.579300  0.494500  0.229800  1
  N  N4701  1  0.235300  0.650500  0.729800  1
  N  N4702  1  0.994500  0.079300  0.729800  1
  N  N4703  1  0.849500  0.264700  0.770200  1
  N  N4704  1  0.420700  0.505500  0.770200  1
  N  N4705  1  0.531590  0.212270  0.904220  1
  N  N4706  1  0.872630  0.691950  0.904220  1
  N  N4707  1  0.287730  0.968410  0.595780  1
  N  N4708  1  0.808050  0.627370  0.595780  1
  N  N4709  1  0.468410  0.787730  0.095780  1
  N  N4710  1  0.127370  0.308050  0.095780  1
  N  N4711  1  0.712270  0.031590  0.404220  1
  N  N4712  1  0.191950  0.372630  0.404220  1
  N  N4713  1  0.639400  0.355100  0.933920  1
  N  N4714  1  0.794520  0.578820  0.933920  1
  N  N4715  1  0.144900  0.860600  0.566080  1
  N  N4716  1  0.921180  0.705480  0.566080  1
  N  N4717  1  0.360600  0.644900  0.066080  1
  N  N4718  1  0.205480  0.421180  0.066080  1
  N  N4719  1  0.855100  0.139400  0.433920  1
  N  N4720  1  0.078820  0.294520  0.433920  1
  N  N4721  1  0.889720  0.388360  0.179020  1
  N  N4722  1  0.789300  0.790660  0.179020  1
  N  N4723  1  0.111640  0.610280  0.320980  1
  N  N4724  1  0.709340  0.710700  0.320980  1
  N  N4725  1  0.110280  0.611640  0.820980  1
  N  N4726  1  0.210700  0.209340  0.820980  1
  N  N4727  1  0.888360  0.389720  0.679020  1
  N  N4728  1  0.290660  0.289300  0.679020  1
  N  N4729  1  0.789430  0.050710  0.951940  1
  N  N4730  1  0.662510  0.901230  0.951940  1
  N  N4731  1  0.449290  0.710570  0.548060  1
  N  N4732  1  0.598770  0.837490  0.548060  1
  N  N4733  1  0.210570  0.949290  0.048060  1
  N  N4734  1  0.337490  0.098770  0.048060  1
  N  N4735  1  0.550710  0.289430  0.451940  1
  N  N4736  1  0.401230  0.162510  0.451940  1
  N  N4737  1  0.752210  0.059030  0.906620  1
  N  N4738  1  0.654410  0.847590  0.906620  1
  N  N4739  1  0.440970  0.747790  0.593380  1
  N  N4740  1  0.652410  0.845590  0.593380  1
  N  N4741  1  0.247790  0.940970  0.093380  1
  N  N4742  1  0.345590  0.152410  0.093380  1
  N  N4743  1  0.559030  0.252210  0.406620  1
  N  N4744  1  0.347590  0.154410  0.406620  1
  N  N4745  1  0.665880  0.067180  0.801700  1
  N  N4746  1  0.635820  0.734520  0.801700  1
  N  N4747  1  0.432820  0.834120  0.698300  1
  N  N4748  1  0.765480  0.864180  0.698300  1
  N  N4749  1  0.334120  0.932820  0.198300  1
  N  N4750  1  0.364180  0.265480  0.198300  1
  N  N4751  1  0.567180  0.165880  0.301700  1
  N  N4752  1  0.234520  0.135820  0.301700  1
  N  N4753  1  0.636820  0.084100  0.760840  1
  N  N4754  1  0.624020  0.676740  0.760840  1
  N  N4755  1  0.415900  0.863180  0.739160  1
  N  N4756  1  0.823260  0.875980  0.739160  1
  N  N4757  1  0.363180  0.915900  0.239160  1
  N  N4758  1  0.375980  0.323260  0.239160  1
  N  N4759  1  0.584100  0.136820  0.260840  1
  N  N4760  1  0.176740  0.124020  0.260840  1
  N  N4761  1  0.820270  0.103510  0.960620  1
  N  N4762  1  0.640350  0.857110  0.960620  1
  N  N4763  1  0.396490  0.679730  0.539380  1
  N  N4764  1  0.642890  0.859650  0.539380  1
  N  N4765  1  0.179730  0.896490  0.039380  1
  N  N4766  1  0.359650  0.142890  0.039380  1
  N  N4767  1  0.603510  0.320270  0.460620  1
  N  N4768  1  0.357110  0.140350  0.460620  1
  N  N4769  1  0.811480  0.118240  0.008860  1
  N  N4770  1  0.697380  0.890620  0.008860  1
  N  N4771  1  0.381760  0.688520  0.491140  1
  N  N4772  1  0.609380  0.802620  0.491140  1
  N  N4773  1  0.188520  0.881760  0.991140  1
  N  N4774  1  0.302620  0.109380  0.991140  1
  N  N4775  1  0.618240  0.311480  0.508860  1
  N  N4776  1  0.390620  0.197380  0.508860  1
  N  N4777  1  0.802200  0.183620  0.120220  1
  N  N4778  1  0.818020  0.936600  0.120220  1
  N  N4779  1  0.316380  0.697800  0.379780  1
  N  N4780  1  0.563400  0.681980  0.379780  1
  N  N4781  1  0.197800  0.816380  0.879780  1
  N  N4782  1  0.181980  0.063400  0.879780  1
  N  N4783  1  0.683620  0.302200  0.620220  1
  N  N4784  1  0.436600  0.318020  0.620220  1
  N  N4785  1  0.794320  0.208520  0.170440  1
  N  N4786  1  0.876120  0.961920  0.170440  1
  N  N4787  1  0.291480  0.705680  0.329560  1
  N  N4788  1  0.538080  0.623880  0.329560  1
  N  N4789  1  0.205680  0.791480  0.829560  1
  N  N4790  1  0.123880  0.038080  0.829560  1
  N  N4791  1  0.708520  0.294320  0.670440  1
  N  N4792  1  0.461920  0.376120  0.670440  1
  N  N4793  1  0.739860  0.081160  0.959360  1
  N  N4794  1  0.719500  0.878200  0.959360  1
  N  N4795  1  0.418840  0.760140  0.540640  1
  N  N4796  1  0.621800  0.780500  0.540640  1
  N  N4797  1  0.260140  0.918840  0.040640  1
  N  N4798  1  0.280500  0.121800  0.040640  1
  N  N4799  1  0.581160  0.239860  0.459360  1
  N  N4800  1  0.378200  0.219500  0.459360  1
  N  N4801  1  0.767850  0.127190  0.960340  1
  N  N4802  1  0.692490  0.833150  0.960340  1
  N  N4803  1  0.372810  0.732150  0.539660  1
  N  N4804  1  0.666850  0.807510  0.539660  1
  N  N4805  1  0.232150  0.872810  0.039660  1
  N  N4806  1  0.307510  0.166850  0.039660  1
  N  N4807  1  0.627190  0.267850  0.460340  1
  N  N4808  1  0.333150  0.192490  0.460340  1
  N  N4809  1  0.838250  0.223790  0.971840  1
  N  N4810  1  0.633590  0.748050  0.971840  1
  N  N4811  1  0.276210  0.661750  0.528160  1
  N  N4812  1  0.751950  0.866410  0.528160  1
  N  N4813  1  0.161750  0.776210  0.028160  1
  N  N4814  1  0.366410  0.251950  0.028160  1
  N  N4815  1  0.723790  0.338250  0.471840  1
  N  N4816  1  0.248050  0.133590  0.471840  1
  N  N4817  1  0.868100  0.263300  0.968000  1
  N  N4818  1  0.599900  0.704700  0.968000  1
  N  N4819  1  0.236700  0.631900  0.532000  1
  N  N4820  1  0.795300  0.900100  0.532000  1
  N  N4821  1  0.131900  0.736700  0.032000  1
  N  N4822  1  0.400100  0.295300  0.032000  1
  N  N4823  1  0.763300  0.368100  0.468000  1
  N  N4824  1  0.204700  0.099900  0.468000  1
  N  N4825  1  0.598070  0.032610  0.746080  1
  N  N4826  1  0.648010  0.713470  0.746080  1
  N  N4827  1  0.467390  0.901930  0.753920  1
  N  N4828  1  0.786530  0.851990  0.753920  1
  N  N4829  1  0.401930  0.967390  0.253920  1
  N  N4830  1  0.351990  0.286530  0.253920  1
  N  N4831  1  0.532610  0.098070  0.246080  1
  N  N4832  1  0.213470  0.148010  0.246080  1
  N  N4833  1  0.581100  0.077260  0.770200  1
  N  N4834  1  0.689100  0.692940  0.770200  1
  N  N4835  1  0.422740  0.918900  0.729800  1
  N  N4836  1  0.807060  0.810900  0.729800  1
  N  N4837  1  0.418900  0.922740  0.229800  1
  N  N4838  1  0.310900  0.307060  0.229800  1
  N  N4839  1  0.577260  0.081100  0.270200  1
  N  N4840  1  0.192940  0.189100  0.270200  1
  N  N4841  1  0.540420  0.168440  0.822660  1
  N  N4842  1  0.782240  0.654220  0.822660  1
  N  N4843  1  0.331560  0.959580  0.677340  1
  N  N4844  1  0.845780  0.717760  0.677340  1
  N  N4845  1  0.459580  0.831560  0.177340  1
  N  N4846  1  0.217760  0.345780  0.177340  1
  N  N4847  1  0.668440  0.040420  0.322660  1
  N  N4848  1  0.154220  0.282240  0.322660  1
  N  N4849  1  0.534450  0.221710  0.851700  1
  N  N4850  1  0.817250  0.629990  0.851700  1
  N  N4851  1  0.278290  0.965550  0.648300  1
  N  N4852  1  0.870010  0.682750  0.648300  1
  N  N4853  1  0.465550  0.778290  0.148300  1
  N  N4854  1  0.182750  0.370010  0.148300  1
  N  N4855  1  0.721710  0.034450  0.351700  1
  N  N4856  1  0.129990  0.317250  0.351700  1
  N  N4857  1  0.618630  0.069290  0.825000  1
  N  N4858  1  0.706370  0.755710  0.825000  1
  N  N4859  1  0.430710  0.881370  0.675000  1
  N  N4860  1  0.744290  0.793630  0.675000  1
  N  N4861  1  0.381370  0.930710  0.175000  1
  N  N4862  1  0.293630  0.244290  0.175000  1
  N  N4863  1  0.569290  0.118630  0.325000  1
  N  N4864  1  0.255710  0.206370  0.325000  1
  N  N4865  1  0.649520  0.118660  0.833920  1
  N  N4866  1  0.684400  0.715260  0.833920  1
  N  N4867  1  0.381340  0.850480  0.666080  1
  N  N4868  1  0.784740  0.815600  0.666080  1
  N  N4869  1  0.350480  0.881340  0.166080  1
  N  N4870  1  0.315600  0.284740  0.166080  1
  N  N4871  1  0.618660  0.149520  0.333920  1
  N  N4872  1  0.215260  0.184400  0.333920  1
  N  N4873  1  0.722770  0.216730  0.850680  1
  N  N4874  1  0.627910  0.633950  0.850680  1
  N  N4875  1  0.283270  0.777230  0.649320  1
  N  N4876  1  0.866050  0.872090  0.649320  1
  N  N4877  1  0.277230  0.783270  0.149320  1
  N  N4878  1  0.372090  0.366050  0.149320  1
  N  N4879  1  0.716730  0.222770  0.350680  1
  N  N4880  1  0.133950  0.127910  0.350680  1
  N  N4881  1  0.753870  0.261870  0.854600  1
  N  N4882  1  0.600730  0.592730  0.854600  1
  N  N4883  1  0.238130  0.746130  0.645400  1
  N  N4884  1  0.907270  0.899270  0.645400  1
  N  N4885  1  0.246130  0.738130  0.145400  1
  N  N4886  1  0.399270  0.407270  0.145400  1
  N  N4887  1  0.761870  0.253870  0.354600  1
  N  N4888  1  0.092730  0.100730  0.354600  1
  N  N4889  1  0.491870  0.173610  0.839880  1
  N  N4890  1  0.848010  0.666270  0.839880  1
  N  N4891  1  0.326390  0.008130  0.660120  1
  N  N4892  1  0.833730  0.651990  0.660120  1
  N  N4893  1  0.508130  0.826390  0.160120  1
  N  N4894  1  0.151990  0.333730  0.160120  1
  N  N4895  1  0.673610  0.991870  0.339880  1
  N  N4896  1  0.166270  0.348010  0.339880  1
  N  N4897  1  0.612430  0.287810  0.042500  1
  N  N4898  1  0.930070  0.754690  0.042500  1
  N  N4899  1  0.212190  0.887570  0.457500  1
  N  N4900  1  0.745310  0.569930  0.457500  1
  N  N4901  1  0.387570  0.712190  0.957500  1
  N  N4902  1  0.069930  0.245310  0.957500  1
  N  N4903  1  0.787810  0.112430  0.542500  1
  N  N4904  1  0.254690  0.430070  0.542500  1
  N  N4905  1  0.659270  0.330090  0.105760  1
  N  N4906  1  0.946490  0.775670  0.105760  1
  N  N4907  1  0.169910  0.840730  0.394240  1
  N  N4908  1  0.724330  0.553510  0.394240  1
  N  N4909  1  0.340730  0.669910  0.894240  1
  N  N4910  1  0.053510  0.224330  0.894240  1
  N  N4911  1  0.830090  0.159270  0.605760  1
  N  N4912  1  0.275670  0.446490  0.605760  1
  N  N4913  1  0.552000  0.158720  0.881120  1
  N  N4914  1  0.829120  0.722400  0.881120  1
  N  N4915  1  0.341280  0.948000  0.618880  1
  N  N4916  1  0.777600  0.670880  0.618880  1
  N  N4917  1  0.448000  0.841280  0.118880  1
  N  N4918  1  0.170880  0.277600  0.118880  1
  N  N4919  1  0.658720  0.052000  0.381120  1
  N  N4920  1  0.222400  0.329120  0.381120  1
  N  N4921  1  0.587690  0.209110  0.895240  1
  N  N4922  1  0.807550  0.686130  0.895240  1
  N  N4923  1  0.290890  0.912310  0.604760  1
  N  N4924  1  0.813870  0.692450  0.604760  1
  N  N4925  1  0.412310  0.790890  0.104760  1
  N  N4926  1  0.192450  0.313870  0.104760  1
  N  N4927  1  0.709110  0.087690  0.395240  1
  N  N4928  1  0.186130  0.307550  0.395240  1
  N  N4929  1  0.660830  0.305990  0.909640  1
  N  N4930  1  0.748810  0.603650  0.909640  1
  N  N4931  1  0.194010  0.839170  0.590360  1
  N  N4932  1  0.896350  0.751190  0.590360  1
  N  N4933  1  0.339170  0.694010  0.090360  1
  N  N4934  1  0.251190  0.396350  0.090360  1
  N  N4935  1  0.805990  0.160830  0.409640  1
  N  N4936  1  0.103650  0.248810  0.409640  1
  N  N4937  1  0.691740  0.355540  0.918600  1
  N  N4938  1  0.726860  0.563060  0.918600  1
  N  N4939  1  0.144460  0.808260  0.581400  1
  N  N4940  1  0.936940  0.773140  0.581400  1
  N  N4941  1  0.308260  0.644460  0.081400  1
  N  N4942  1  0.273140  0.436940  0.081400  1
  N  N4943  1  0.855540  0.191740  0.418600  1
  N  N4944  1  0.063060  0.226860  0.418600  1
  N  N4945  1  0.617980  0.290120  0.103580  1
  N  N4946  1  0.985600  0.813460  0.103580  1
  N  N4947  1  0.209880  0.882020  0.396420  1
  N  N4948  1  0.686540  0.514400  0.396420  1
  N  N4949  1  0.382020  0.709880  0.896420  1
  N  N4950  1  0.014400  0.186540  0.896420  1
  N  N4951  1  0.790120  0.117980  0.603580  1
  N  N4952  1  0.313460  0.485600  0.603580  1
  N  N4953  1  0.669380  0.280540  0.121400  1
  N  N4954  1  0.952020  0.840860  0.121400  1
  N  N4955  1  0.219460  0.830620  0.378600  1
  N  N4956  1  0.659140  0.547980  0.378600  1
  N  N4957  1  0.330620  0.719460  0.878600  1
  N  N4958  1  0.047980  0.159140  0.878600  1
  N  N4959  1  0.780540  0.169380  0.621400  1
  N  N4960  1  0.340860  0.452020  0.621400  1
  N  N4961  1  0.776770  0.257050  0.158820  1
  N  N4962  1  0.882050  0.901770  0.158820  1
  N  N4963  1  0.242950  0.723230  0.341180  1
  N  N4964  1  0.598230  0.617950  0.341180  1
  N  N4965  1  0.223230  0.742950  0.841180  1
  N  N4966  1  0.117950  0.098230  0.841180  1
  N  N4967  1  0.757050  0.276770  0.658820  1
  N  N4968  1  0.401770  0.382050  0.658820  1
  N  N4969  1  0.830180  0.253160  0.172340  1
  N  N4970  1  0.842160  0.919180  0.172340  1
  N  N4971  1  0.246840  0.669820  0.327660  1
  N  N4972  1  0.580820  0.657840  0.327660  1
  N  N4973  1  0.169820  0.746840  0.827660  1
  N  N4974  1  0.157840  0.080820  0.827660  1
  N  N4975  1  0.753160  0.330180  0.672340  1
  N  N4976  1  0.419180  0.342160  0.672340  1
  N  N4977  1  0.629690  0.231230  0.049500  1
  N  N4978  1  0.919810  0.818270  0.049500  1
  N  N4979  1  0.268770  0.870310  0.450500  1
  N  N4980  1  0.681730  0.580190  0.450500  1
  N  N4981  1  0.370310  0.768770  0.950500  1
  N  N4982  1  0.080190  0.181730  0.950500  1
  N  N4983  1  0.731230  0.129690  0.549500  1
  N  N4984  1  0.318270  0.419810  0.549500  1
  N  N4985  1  0.668500  0.276260  0.057860  1
  N  N4986  1  0.889360  0.781600  0.057860  1
  N  N4987  1  0.223740  0.831500  0.442140  1
  N  N4988  1  0.718400  0.610640  0.442140  1
  N  N4989  1  0.331500  0.723740  0.942140  1
  N  N4990  1  0.110640  0.218400  0.942140  1
  N  N4991  1  0.776260  0.168500  0.557860  1
  N  N4992  1  0.281600  0.389360  0.557860  1
  N  N4993  1  0.743380  0.373180  0.073040  1
  N  N4994  1  0.829660  0.699860  0.073040  1
  N  N4995  1  0.126820  0.756620  0.426960  1
  N  N4996  1  0.800140  0.670340  0.426960  1
  N  N4997  1  0.256620  0.626820  0.926960  1
  N  N4998  1  0.170340  0.300140  0.926960  1
  N  N4999  1  0.873180  0.243380  0.573040  1
  N  N5000  1  0.199860  0.329660  0.573040  1
  N  N5001  1  0.783560  0.419360  0.086280  1
  N  N5002  1  0.802720  0.666920  0.086280  1
  N  N5003  1  0.080640  0.716440  0.413720  1
  N  N5004  1  0.833080  0.697280  0.413720  1
  N  N5005  1  0.216440  0.580640  0.913720  1
  N  N5006  1  0.197280  0.333080  0.913720  1
  N  N5007  1  0.919360  0.283560  0.586280  1
  N  N5008  1  0.166920  0.302720  0.586280  1
  N  N5009  1  0.740260  0.189140  0.096200  1
  N  N5010  1  0.855940  0.907060  0.096200  1
  N  N5011  1  0.310860  0.759740  0.403800  1
  N  N5012  1  0.592940  0.644060  0.403800  1
  N  N5013  1  0.259740  0.810860  0.903800  1
  N  N5014  1  0.144060  0.092940  0.903800  1
  N  N5015  1  0.689140  0.240260  0.596200  1
  N  N5016  1  0.407060  0.355940  0.596200  1
  N  N5017  1  0.777880  0.226720  0.096800  1
  N  N5018  1  0.818920  0.870080  0.096800  1
  N  N5019  1  0.273280  0.722120  0.403200  1
  N  N5020  1  0.629920  0.681080  0.403200  1
  N  N5021  1  0.222120  0.773280  0.903200  1
  N  N5022  1  0.181080  0.129920  0.903200  1
  N  N5023  1  0.726720  0.277880  0.596800  1
  N  N5024  1  0.370080  0.318920  0.596800  1
  N  N5025  1  0.852670  0.322550  0.110620  1
  N  N5026  1  0.757950  0.788070  0.110620  1
  N  N5027  1  0.177450  0.647330  0.389380  1
  N  N5028  1  0.711930  0.742050  0.389380  1
  N  N5029  1  0.147330  0.677450  0.889380  1
  N  N5030  1  0.242050  0.211930  0.889380  1
  N  N5031  1  0.822550  0.352670  0.610620  1
  N  N5032  1  0.288070  0.257950  0.610620  1
  N  N5033  1  0.892600  0.365000  0.119600  1
  N  N5034  1  0.727000  0.754600  0.119600  1
  N  N5035  1  0.135000  0.607400  0.380400  1
  N  N5036  1  0.745400  0.773000  0.380400  1
  N  N5037  1  0.107400  0.635000  0.880400  1
  N  N5038  1  0.273000  0.245400  0.880400  1
  N  N5039  1  0.865000  0.392600  0.619600  1
  N  N5040  1  0.254600  0.227000  0.619600  1
  N  N5041  1  0.876430  0.181970  0.961800  1
  N  N5042  1  0.585370  0.779830  0.961800  1
  N  N5043  1  0.318030  0.623570  0.538200  1
  N  N5044  1  0.720170  0.914630  0.538200  1
  N  N5045  1  0.123570  0.818030  0.038200  1
  N  N5046  1  0.414630  0.220170  0.038200  1
  N  N5047  1  0.681970  0.376430  0.461800  1
  N  N5048  1  0.279830  0.085370  0.461800  1
  N  N5049  1  0.845320  0.192560  0.914900  1
  N  N5050  1  0.569580  0.722340  0.914900  1
  N  N5051  1  0.307440  0.654680  0.585100  1
  N  N5052  1  0.777660  0.930420  0.585100  1
  N  N5053  1  0.154680  0.807440  0.085100  1
  N  N5054  1  0.430420  0.277660  0.085100  1
  N  N5055  1  0.692560  0.345320  0.414900  1
  N  N5056  1  0.222340  0.069580  0.414900  1
  N  N5057  1  0.761330  0.204530  0.816260  1
  N  N5058  1  0.554930  0.611730  0.816260  1
  N  N5059  1  0.295470  0.738670  0.683740  1
  N  N5060  1  0.888270  0.945070  0.683740  1
  N  N5061  1  0.238670  0.795470  0.183740  1
  N  N5062  1  0.445070  0.388270  0.183740  1
  N  N5063  1  0.704530  0.261330  0.316260  1
  N  N5064  1  0.111730  0.054930  0.316260  1
  N  N5065  1  0.727200  0.218200  0.774400  1
  N  N5066  1  0.547200  0.556200  0.774400  1
  N  N5067  1  0.281800  0.772800  0.725600  1
  N  N5068  1  0.943800  0.952800  0.725600  1
  N  N5069  1  0.272800  0.781800  0.225600  1
  N  N5070  1  0.452800  0.443800  0.225600  1
  N  N5071  1  0.718200  0.227200  0.274400  1
  N  N5072  1  0.056200  0.047200  0.274400  1
  N  N5073  1  0.913890  0.225410  0.962740  1
  N  N5074  1  0.548850  0.737330  0.962740  1
  N  N5075  1  0.274590  0.586110  0.537260  1
  N  N5076  1  0.762670  0.951150  0.537260  1
  N  N5077  1  0.086110  0.774590  0.037260  1
  N  N5078  1  0.451150  0.262670  0.037260  1
  N  N5079  1  0.725410  0.413890  0.462740  1
  N  N5080  1  0.237330  0.048850  0.462740  1
  N  N5081  1  0.910140  0.249160  0.016700  1
  N  N5082  1  0.606560  0.767540  0.016700  1
  N  N5083  1  0.250840  0.589860  0.483300  1
  N  N5084  1  0.732460  0.893440  0.483300  1
  N  N5085  1  0.089860  0.750840  0.983300  1
  N  N5086  1  0.393440  0.232460  0.983300  1
  N  N5087  1  0.749160  0.410140  0.516700  1
  N  N5088  1  0.267540  0.106560  0.516700  1
  N  N5089  1  0.911960  0.315360  0.134320  1
  N  N5090  1  0.722360  0.818960  0.134320  1
  N  N5091  1  0.184640  0.588040  0.365680  1
  N  N5092  1  0.681040  0.777640  0.365680  1
  N  N5093  1  0.088040  0.684640  0.865680  1
  N  N5094  1  0.277640  0.181040  0.865680  1
  N  N5095  1  0.815360  0.411960  0.634320  1
  N  N5096  1  0.318960  0.222360  0.634320  1
  N  N5097  1  0.898630  0.331230  0.180260  1
  N  N5098  1  0.781630  0.849030  0.180260  1
  N  N5099  1  0.168770  0.601370  0.319740  1
  N  N5100  1  0.650970  0.718370  0.319740  1
  N  N5101  1  0.101370  0.668770  0.819740  1
  N  N5102  1  0.218370  0.150970  0.819740  1
  N  N5103  1  0.831230  0.398630  0.680260  1
  N  N5104  1  0.349030  0.281630  0.680260  1
  N  N5105  1  0.693920  0.170920  0.773100  1
  N  N5106  1  0.579180  0.602180  0.773100  1
  N  N5107  1  0.329080  0.806080  0.726900  1
  N  N5108  1  0.897820  0.920820  0.726900  1
  N  N5109  1  0.306080  0.829080  0.226900  1
  N  N5110  1  0.420820  0.397820  0.226900  1
  N  N5111  1  0.670920  0.193920  0.273100  1
  N  N5112  1  0.102180  0.079180  0.273100  1
  N  N5113  1  0.681300  0.221720  0.794420  1
  N  N5114  1  0.613120  0.572700  0.794420  1
  N  N5115  1  0.278280  0.818700  0.705580  1
  N  N5116  1  0.927300  0.886880  0.705580  1
  N  N5117  1  0.318700  0.778280  0.205580  1
  N  N5118  1  0.386880  0.427300  0.205580  1
  N  N5119  1  0.721720  0.181300  0.294420  1
  N  N5120  1  0.072700  0.113120  0.294420  1
  N  N5121  1  0.642180  0.314020  0.848800  1
  N  N5122  1  0.706620  0.534780  0.848800  1
  N  N5123  1  0.185980  0.857820  0.651200  1
  N  N5124  1  0.965220  0.793380  0.651200  1
  N  N5125  1  0.357820  0.685980  0.151200  1
  N  N5126  1  0.293380  0.465220  0.151200  1
  N  N5127  1  0.814020  0.142180  0.348800  1
  N  N5128  1  0.034780  0.206620  0.348800  1
  N  N5129  1  0.626630  0.360370  0.874200  1
  N  N5130  1  0.747570  0.513830  0.874200  1
  N  N5131  1  0.139630  0.873370  0.625800  1
  N  N5132  1  0.986170  0.752430  0.625800  1
  N  N5133  1  0.373370  0.639630  0.125800  1
  N  N5134  1  0.252430  0.486170  0.125800  1
  N  N5135  1  0.860370  0.126630  0.374200  1
  N  N5136  1  0.013830  0.247570  0.374200  1
  N  N5137  1  0.597350  0.310410  0.870760  1
  N  N5138  1  0.773410  0.560350  0.870760  1
  N  N5139  1  0.189590  0.902650  0.629240  1
  N  N5140  1  0.939650  0.726590  0.629240  1
  N  N5141  1  0.402650  0.689590  0.129240  1
  N  N5142  1  0.226590  0.439650  0.129240  1
  N  N5143  1  0.810410  0.097350  0.370760  1
  N  N5144  1  0.060350  0.273410  0.370760  1
  N  N5145  1  0.723170  0.427690  0.072860  1
  N  N5146  1  0.849690  0.645170  0.072860  1
  N  N5147  1  0.072310  0.776830  0.427140  1
  N  N5148  1  0.854830  0.650310  0.427140  1
  N  N5149  1  0.276830  0.572310  0.927140  1
  N  N5150  1  0.150310  0.354830  0.927140  1
  N  N5151  1  0.927690  0.223170  0.572860  1
  N  N5152  1  0.145170  0.349690  0.572860  1
  N  N5153  1  0.766600  0.465800  0.138200  1
  N  N5154  1  0.871600  0.672400  0.138200  1
  N  N5155  1  0.034200  0.733400  0.361800  1
  N  N5156  1  0.827600  0.628400  0.361800  1
  N  N5157  1  0.233400  0.534200  0.861800  1
  N  N5158  1  0.128400  0.327600  0.861800  1
  N  N5159  1  0.965800  0.266600  0.638200  1
  N  N5160  1  0.172400  0.371600  0.638200  1
  N  N5161  1  0.727860  0.413540  0.125200  1
  N  N5162  1  0.897340  0.711660  0.125200  1
  N  N5163  1  0.086460  0.772140  0.374800  1
  N  N5164  1  0.788340  0.602660  0.374800  1
  N  N5165  1  0.272140  0.586460  0.874800  1
  N  N5166  1  0.102660  0.288340  0.874800  1
  N  N5167  1  0.913540  0.227860  0.625200  1
  N  N5168  1  0.211660  0.397340  0.625200  1
  N  N5169  1  0.784150  0.414550  0.144500  1
  N  N5170  1  0.860350  0.729950  0.144500  1
  N  N5171  1  0.085450  0.715850  0.355500  1
  N  N5172  1  0.770050  0.639650  0.355500  1
  N  N5173  1  0.215850  0.585450  0.855500  1
  N  N5174  1  0.139650  0.270050  0.855500  1
  N  N5175  1  0.914550  0.284150  0.644500  1
  N  N5176  1  0.229950  0.360350  0.644500  1
  N  N5177  1  0.943000  0.381600  0.194400  1
  N  N5178  1  0.751400  0.812800  0.194400  1
  N  N5179  1  0.118400  0.557000  0.305600  1
  N  N5180  1  0.687200  0.748600  0.305600  1
  N  N5181  1  0.057000  0.618400  0.805600  1
  N  N5182  1  0.248600  0.187200  0.805600  1
  N  N5183  1  0.881600  0.443000  0.694400  1
  N  N5184  1  0.312800  0.251400  0.694400  1
  N  N5185  1  0.774200  0.028200  0.060600  1
  N  N5186  1  0.786400  0.032400  0.060600  1
  N  N5187  1  0.471800  0.725800  0.439400  1
  N  N5188  1  0.467600  0.713600  0.439400  1
  N  N5189  1  0.225800  0.971800  0.939400  1
  N  N5190  1  0.213600  0.967600  0.939400  1
  N  N5191  1  0.528200  0.274200  0.560600  1
  N  N5192  1  0.532400  0.286400  0.560600  1
  O  O5193  1  0.984900  0.049500  0.796800  1
  O  O5194  1  0.311900  0.747300  0.796800  1
  O  O5195  1  0.450500  0.515100  0.703200  1
  O  O5196  1  0.752700  0.188100  0.703200  1
  O  O5197  1  0.015100  0.950500  0.203200  1
  O  O5198  1  0.688100  0.252700  0.203200  1
  O  O5199  1  0.549500  0.484900  0.296800  1
  O  O5200  1  0.247300  0.811900  0.296800  1
  O  O5201  1  0.959000  0.025800  0.817600  1
  O  O5202  1  0.358600  0.791800  0.817600  1
  O  O5203  1  0.474200  0.541000  0.682400  1
  O  O5204  1  0.708200  0.141400  0.682400  1
  O  O5205  1  0.041000  0.974200  0.182400  1
  O  O5206  1  0.641400  0.208200  0.182400  1
  O  O5207  1  0.525800  0.459000  0.317600  1
  O  O5208  1  0.291800  0.858600  0.317600  1
  O  O5209  1  0.957100  0.118300  0.869800  1
  O  O5210  1  0.412700  0.751500  0.869800  1
  O  O5211  1  0.381700  0.542900  0.630200  1
  O  O5212  1  0.748500  0.087300  0.630200  1
  O  O5213  1  0.042900  0.881700  0.130200  1
  O  O5214  1  0.587300  0.248500  0.130200  1
  O  O5215  1  0.618300  0.457100  0.369800  1
  O  O5216  1  0.251500  0.912700  0.369800  1
  O  O5217  1  0.942300  0.066900  0.859400  1
  O  O5218  1  0.417100  0.792500  0.859400  1
  O  O5219  1  0.433100  0.557700  0.640600  1
  O  O5220  1  0.707500  0.082900  0.640600  1
  O  O5221  1  0.057700  0.933100  0.140600  1
  O  O5222  1  0.582900  0.207500  0.140600  1
  O  O5223  1  0.566900  0.442300  0.359400  1
  O  O5224  1  0.292500  0.917100  0.359400  1
  O  O5225  1  0.528200  0.206000  0.978000  1
  O  O5226  1  0.949800  0.772000  0.978000  1
  O  O5227  1  0.294000  0.971800  0.522000  1
  O  O5228  1  0.728000  0.550200  0.522000  1
  O  O5229  1  0.471800  0.794000  0.022000  1
  O  O5230  1  0.050200  0.228000  0.022000  1
  O  O5231  1  0.706000  0.028200  0.478000  1
  O  O5232  1  0.272000  0.449800  0.478000  1
  O  O5233  1  0.482820  0.214620  0.970240  1
  O  O5234  1  0.987420  0.755620  0.970240  1
  O  O5235  1  0.285380  0.017180  0.529760  1
  O  O5236  1  0.744380  0.512580  0.529760  1
  O  O5237  1  0.517180  0.785380  0.029760  1
  O  O5238  1  0.012580  0.244380  0.029760  1
  O  O5239  1  0.714620  0.982820  0.470240  1
  O  O5240  1  0.255620  0.487420  0.470240  1
  O  O5241  1  0.433900  0.110300  0.891000  1
  O  O5242  1  0.957100  0.780700  0.891000  1
  O  O5243  1  0.389700  0.066100  0.609000  1
  O  O5244  1  0.719300  0.542900  0.609000  1
  O  O5245  1  0.566100  0.889700  0.109000  1
  O  O5246  1  0.042900  0.219300  0.109000  1
  O  O5247  1  0.610300  0.933900  0.391000  1
  O  O5248  1  0.280700  0.457100  0.391000  1
  O  O5249  1  0.426800  0.152400  0.927600  1
  O  O5250  1  0.000800  0.775200  0.927600  1
  O  O5251  1  0.347600  0.073200  0.572400  1
  O  O5252  1  0.724800  0.499200  0.572400  1
  O  O5253  1  0.573200  0.847600  0.072400  1
  O  O5254  1  0.999200  0.224800  0.072400  1
  O  O5255  1  0.652400  0.926800  0.427600  1
  O  O5256  1  0.275200  0.500800  0.427600  1
  O  O5257  1  0.553300  0.198700  0.692600  1
  O  O5258  1  0.639300  0.493900  0.692600  1
  O  O5259  1  0.301300  0.946700  0.807400  1
  O  O5260  1  0.006100  0.860700  0.807400  1
  O  O5261  1  0.446700  0.801300  0.307400  1
  O  O5262  1  0.360700  0.506100  0.307400  1
  O  O5263  1  0.698700  0.053300  0.192600  1
  O  O5264  1  0.993900  0.139300  0.192600  1
  O  O5265  1  0.589600  0.236800  0.699800  1
  O  O5266  1  0.610200  0.463000  0.699800  1
  O  O5267  1  0.263200  0.910400  0.800200  1
  O  O5268  1  0.037000  0.889800  0.800200  1
  O  O5269  1  0.410400  0.763200  0.300200  1
  O  O5270  1  0.389800  0.537000  0.300200  1
  O  O5271  1  0.736800  0.089600  0.199800  1
  O  O5272  1  0.963000  0.110200  0.199800  1
  O  O5273  1  0.558800  0.189000  0.647400  1
  O  O5274  1  0.588600  0.458400  0.647400  1
  O  O5275  1  0.311000  0.941200  0.852600  1
  O  O5276  1  0.041600  0.911400  0.852600  1
  O  O5277  1  0.441200  0.811000  0.352600  1
  O  O5278  1  0.411400  0.541600  0.352600  1
  O  O5279  1  0.689000  0.058800  0.147400  1
  O  O5280  1  0.958400  0.088600  0.147400  1
  O  O5281  1  0.757200  0.396400  0.314400  1
  O  O5282  1  0.057200  0.918000  0.314400  1
  O  O5283  1  0.103600  0.742800  0.185600  1
  O  O5284  1  0.582000  0.442800  0.185600  1
  O  O5285  1  0.242800  0.603600  0.685600  1
  O  O5286  1  0.942800  0.082000  0.685600  1
  O  O5287  1  0.896400  0.257200  0.814400  1
  O  O5288  1  0.418000  0.557200  0.814400  1
  O  O5289  1  0.716600  0.359000  0.251000  1
  O  O5290  1  0.034400  0.892000  0.251000  1
  O  O5291  1  0.141000  0.783400  0.249000  1
  O  O5292  1  0.608000  0.465600  0.249000  1
  O  O5293  1  0.283400  0.641000  0.749000  1
  O  O5294  1  0.965600  0.108000  0.749000  1
  O  O5295  1  0.859000  0.216600  0.751000  1
  O  O5296  1  0.392000  0.534400  0.751000  1
  O  O5297  1  0.815000  0.344400  0.288000  1
  O  O5298  1  0.973000  0.943600  0.288000  1
  O  O5299  1  0.155600  0.685000  0.212000  1
  O  O5300  1  0.556400  0.527000  0.212000  1
  O  O5301  1  0.185000  0.655600  0.712000  1
  O  O5302  1  0.027000  0.056400  0.712000  1
  O  O5303  1  0.844400  0.315000  0.788000  1
  O  O5304  1  0.443600  0.473000  0.788000  1
  O  O5305  1  0.806000  0.370000  0.336000  1
  O  O5306  1  0.030000  0.966000  0.336000  1
  O  O5307  1  0.130000  0.694000  0.164000  1
  O  O5308  1  0.534000  0.470000  0.164000  1
  O  O5309  1  0.194000  0.630000  0.664000  1
  O  O5310  1  0.970000  0.034000  0.664000  1
  O  O5311  1  0.870000  0.306000  0.836000  1
  O  O5312  1  0.466000  0.530000  0.836000  1
  O  O5313  1  0.677600  0.129600  0.973400  1
  O  O5314  1  0.795800  0.843800  0.973400  1
  O  O5315  1  0.370400  0.822400  0.526600  1
  O  O5316  1  0.656200  0.704200  0.526600  1
  O  O5317  1  0.322400  0.870400  0.026600  1
  O  O5318  1  0.204200  0.156200  0.026600  1
  O  O5319  1  0.629600  0.177600  0.473400  1
  O  O5320  1  0.343800  0.295800  0.473400  1
  O  O5321  1  0.660300  0.165700  0.000400  1
  O  O5322  1  0.840100  0.834700  0.000400  1
  O  O5323  1  0.334300  0.839700  0.499600  1
  O  O5324  1  0.665300  0.659900  0.499600  1
  O  O5325  1  0.339700  0.834300  0.999600  1
  O  O5326  1  0.159900  0.165300  0.999600  1
  O  O5327  1  0.665700  0.160300  0.500400  1
  O  O5328  1  0.334700  0.340100  0.500400  1
  O  O5329  1  0.652900  0.155300  0.948800  1
  O  O5330  1  0.795900  0.793500  0.948800  1
  O  O5331  1  0.344700  0.847100  0.551200  1
  O  O5332  1  0.706500  0.704100  0.551200  1
  O  O5333  1  0.347100  0.844700  0.051200  1
  O  O5334  1  0.204100  0.206500  0.051200  1
  O  O5335  1  0.655300  0.152900  0.448800  1
  O  O5336  1  0.293500  0.295900  0.448800  1
  O  O5337  1  0.788000  0.074200  0.055200  1
  O  O5338  1  0.767200  0.981000  0.055200  1
  O  O5339  1  0.425800  0.712000  0.444800  1
  O  O5340  1  0.519000  0.732800  0.444800  1
  O  O5341  1  0.212000  0.925800  0.944800  1
  O  O5342  1  0.232800  0.019000  0.944800  1
  O  O5343  1  0.574200  0.288000  0.555200  1
  O  O5344  1  0.481000  0.267200  0.555200  1
  O  O5345  1  0.815900  0.084700  0.113200  1
  O  O5346  1  0.797300  0.028500  0.113200  1
  O  O5347  1  0.415300  0.684100  0.386800  1
  O  O5348  1  0.471500  0.702700  0.386800  1
  O  O5349  1  0.184100  0.915300  0.886800  1
  O  O5350  1  0.202700  0.971500  0.886800  1
  O  O5351  1  0.584700  0.315900  0.613200  1
  O  O5352  1  0.528500  0.297300  0.613200  1
  P  P5353  1  0.622310  0.199270  0.824820  1
  P  P5354  1  0.702510  0.625550  0.824820  1
  P  P5355  1  0.300730  0.877690  0.675180  1
  P  P5356  1  0.874450  0.797490  0.675180  1
  P  P5357  1  0.377690  0.800730  0.175180  1
  P  P5358  1  0.297490  0.374450  0.175180  1
  P  P5359  1  0.699270  0.122310  0.324820  1
  P  P5360  1  0.125550  0.202510  0.324820  1
  P  P5361  1  0.636350  0.313930  0.987380  1
  P  P5362  1  0.851030  0.673450  0.987380  1
  P  P5363  1  0.186070  0.863650  0.512620  1
  P  P5364  1  0.826550  0.648970  0.512620  1
  P  P5365  1  0.363650  0.686070  0.012620  1
  P  P5366  1  0.148970  0.326550  0.012620  1
  P  P5367  1  0.813930  0.136350  0.487380  1
  P  P5368  1  0.173450  0.351030  0.487380  1
  P  P5369  1  0.847480  0.219580  0.062880  1
  P  P5370  1  0.715400  0.843300  0.062880  1
  P  P5371  1  0.280420  0.652520  0.437120  1
  P  P5372  1  0.656700  0.784600  0.437120  1
  P  P5373  1  0.152520  0.780420  0.937120  1
  P  P5374  1  0.284600  0.156700  0.937120  1
  P  P5375  1  0.719580  0.347480  0.562880  1
  P  P5376  1  0.343300  0.215400  0.562880  1
  P  P5377  1  0.753380  0.141780  0.872760  1
  P  P5378  1  0.619380  0.730980  0.872760  1
  P  P5379  1  0.358220  0.746620  0.627240  1
  P  P5380  1  0.769020  0.880620  0.627240  1
  P  P5381  1  0.246620  0.858220  0.127240  1
  P  P5382  1  0.380620  0.269020  0.127240  1
  P  P5383  1  0.641780  0.253380  0.372760  1
  P  P5384  1  0.230980  0.119380  0.372760  1
  P  P5385  1  0.775490  0.325610  0.133900  1
  P  P5386  1  0.858410  0.808290  0.133900  1
  P  P5387  1  0.174390  0.724510  0.366100  1
  P  P5388  1  0.691710  0.641590  0.366100  1
  P  P5389  1  0.224510  0.674390  0.866100  1
  P  P5390  1  0.141590  0.191710  0.866100  1
  P  P5391  1  0.825610  0.275490  0.633900  1
  P  P5392  1  0.308290  0.358410  0.633900  1
  P  P5393  1  0.802120  0.337860  0.988140  1
  P  P5394  1  0.686020  0.650280  0.988140  1
  P  P5395  1  0.162140  0.697880  0.511860  1
  P  P5396  1  0.849720  0.813980  0.511860  1
  P  P5397  1  0.197880  0.662140  0.011860  1
  P  P5398  1  0.313980  0.349720  0.011860  1
  P  P5399  1  0.837860  0.302120  0.488140  1
  P  P5400  1  0.150280  0.186020  0.488140  1
  P  P5401  1  0.742100  0.492100  0.250000  1
  P  P5402  1  0.007900  0.757900  0.250000  1
  P  P5403  1  0.257900  0.507900  0.750000  1
  P  P5404  1  0.992100  0.242100  0.750000  1
  P  P5405  1  0.648700  0.140900  0.962600  1
  P  P5406  1  0.813900  0.821700  0.962600  1
  P  P5407  1  0.359100  0.851300  0.537400  1
  P  P5408  1  0.678300  0.686100  0.537400  1
  P  P5409  1  0.351300  0.859100  0.037400  1
  P  P5410  1  0.186100  0.178300  0.037400  1
  P  P5411  1  0.640900  0.148700  0.462600  1
  P  P5412  1  0.321700  0.313900  0.462600  1
  S  S5413  1  0.976990  0.051810  0.823400  1
  S  S5414  1  0.346410  0.771590  0.823400  1
  S  S5415  1  0.448190  0.523010  0.676600  1
  S  S5416  1  0.728410  0.153590  0.676600  1
  S  S5417  1  0.023010  0.948190  0.176600  1
  S  S5418  1  0.653590  0.228410  0.176600  1
  S  S5419  1  0.551810  0.476990  0.323400  1
  S  S5420  1  0.271590  0.846410  0.323400  1
  S  S5421  1  0.948910  0.087410  0.849540  1
  S  S5422  1  0.400630  0.762130  0.849540  1
  S  S5423  1  0.412590  0.551090  0.650460  1
  S  S5424  1  0.737870  0.099370  0.650460  1
  S  S5425  1  0.051090  0.912590  0.150460  1
  S  S5426  1  0.599370  0.237870  0.150460  1
  S  S5427  1  0.587410  0.448910  0.349540  1
  S  S5428  1  0.262130  0.900630  0.349540  1
  S  S5429  1  0.497090  0.193530  0.967640  1
  S  S5430  1  0.970550  0.774110  0.967640  1
  S  S5431  1  0.306470  0.002910  0.532360  1
  S  S5432  1  0.725890  0.529450  0.532360  1
  S  S5433  1  0.502910  0.806470  0.032360  1
  S  S5434  1  0.029450  0.225890  0.032360  1
  S  S5435  1  0.693530  0.997090  0.467640  1
  S  S5436  1  0.274110  0.470550  0.467640  1
  S  S5437  1  0.442650  0.143670  0.911140  1
  S  S5438  1  0.968490  0.767470  0.911140  1
  S  S5439  1  0.356330  0.057350  0.588860  1
  S  S5440  1  0.732530  0.531510  0.588860  1
  S  S5441  1  0.557350  0.856330  0.088860  1
  S  S5442  1  0.031510  0.232530  0.088860  1
  S  S5443  1  0.643670  0.942650  0.411140  1
  S  S5444  1  0.267470  0.468490  0.411140  1
  S  S5445  1  0.562170  0.210850  0.677420  1
  S  S5446  1  0.615250  0.466570  0.677420  1
  S  S5447  1  0.289150  0.937830  0.822580  1
  S  S5448  1  0.033430  0.884750  0.822580  1
  S  S5449  1  0.437830  0.789150  0.322580  1
  S  S5450  1  0.384750  0.533430  0.322580  1
  S  S5451  1  0.710850  0.062170  0.177420  1
  S  S5452  1  0.966570  0.115250  0.177420  1
  S  S5453  1  0.799410  0.365550  0.298560  1
  S  S5454  1  0.999150  0.933010  0.298560  1
  S  S5455  1  0.134450  0.700590  0.201440  1
  S  S5456  1  0.566990  0.500850  0.201440  1
  S  S5457  1  0.200590  0.634450  0.701440  1
  S  S5458  1  0.000850  0.066990  0.701440  1
  S  S5459  1  0.865550  0.299410  0.798560  1
  S  S5460  1  0.433010  0.499150  0.798560  1
  S  S5461  1  0.741560  0.362760  0.278720  1
  S  S5462  1  0.037160  0.915960  0.278720  1
  S  S5463  1  0.137240  0.758440  0.221280  1
  S  S5464  1  0.584040  0.462840  0.221280  1
  S  S5465  1  0.258440  0.637240  0.721280  1
  S  S5466  1  0.962840  0.084040  0.721280  1
  S  S5467  1  0.862760  0.241560  0.778720  1
  S  S5468  1  0.415960  0.537160  0.778720  1
  S  S5469  1  0.657100  0.144900  0.970200  1
  S  S5470  1  0.813100  0.825300  0.970200  1
  S  S5471  1  0.355100  0.842900  0.529800  1
  S  S5472  1  0.674700  0.686900  0.529800  1
  S  S5473  1  0.342900  0.855100  0.029800  1
  S  S5474  1  0.186900  0.174700  0.029800  1
  S  S5475  1  0.644900  0.157100  0.470200  1
  S  S5476  1  0.325300  0.313100  0.470200  1
  S  S5477  1  0.792200  0.066400  0.080200  1
  S  S5478  1  0.788000  0.013800  0.080200  1
  S  S5479  1  0.433600  0.707800  0.419800  1
  S  S5480  1  0.486200  0.712000  0.419800  1
  S  S5481  1  0.207800  0.933600  0.919800  1
  S  S5482  1  0.212000  0.986200  0.919800  1
  S  S5483  1  0.566400  0.292200  0.580200  1
  S  S5484  1  0.513800  0.288000  0.580200  1
