
#######################################################################
#
#                 Cambridge Crystallographic Data Centre
#                                CCDC 
#
#######################################################################
#
# If this CIF has been generated from an entry in the Cambridge 
# Structural Database, then it will include bibliographic, chemical, 
# crystal, experimental, refinement or atomic coordinate data resulting 
# from the CCDC's data processing and validation procedures.
#
#######################################################################

data_DEHDEB
_chemical_formula_moiety         
'10(Co1 2+),15(C26 H22 N4),Cl1 1-,19(Cl1 O4 1-)'
_chemical_name_systematic        
"Deca-cobalt pentadecakis(6,6'-bis(p-tolyliminomethyl)-3,3'-bipyridine) chloride nonadecaperchlorate"
_symmetry_cell_setting           monoclinic
_symmetry_space_group_name_H-M   'P 2/n'
_symmetry_Int_Tables_number      13
_space_group_name_Hall           '-P 2yac'
loop_
_symmetry_equiv_pos_site_id
_symmetry_equiv_pos_as_xyz
1 x,y,z
2 1/2-x,y,1/2-z
3 -x,-y,-z
4 1/2+x,-y,1/2+z
_cell_length_a                   21.469(4)
_cell_length_b                   31.178(6)
_cell_length_c                   34.437(7)
_cell_angle_alpha                90
_cell_angle_beta                 96.87(3)
_cell_angle_gamma                90
_cell_volume                     22885.3
_exptl_crystal_colour            orange
_exptl_crystal_description       plate
_cell_formula_units_Z            2
loop_
_atom_site_label
_atom_site_type_symbol
_atom_site_fract_x
_atom_site_fract_y
_atom_site_fract_z
O5 O 0.2432(12) 0.1046(7) 0.1516(7)
O6 O 0.3541(9) 0.1071(5) 0.1744(5)
O7 O 0.2972(10) 0.0450(7) 0.1621(6)
O8 O 0.3157(9) 0.0902(6) 0.1109(6)
Cl2 Cl 0.3018(3) 0.0863(2) 0.14906(17)
O9 O 0.2661(10) 0.4822(7) 0.2194(7)
O10 O 0.1954(12) 0.4332(8) 0.2358(7)
Cl3 Cl 0.2500 0.4568(3) 0.2500
O9A O 0.2339(10) 0.4822(7) 0.2806(7)
O10A O 0.3046(12) 0.4332(8) 0.2642(7)
O11 O 1.0662(12) 0.2510(6) 0.2046(7)
O12 O 0.9729(12) 0.2095(9) 0.2060(8)
O13 O 0.970(2) 0.2516(12) 0.1490(14)
O14 O 0.961(2) 0.2771(13) 0.2135(13)
Cl4 Cl 0.9964(6) 0.2498(4) 0.1918(4)
O15 O 0.6823(17) 0.4014(12) 0.0378(15)
O16 O 0.8018(16) 0.4081(10) 0.0368(12)
O17 O 0.7335(17) 0.4761(10) 0.0384(12)
O18 O 0.753(3) 0.4277(16) 0.0992(12)
Cl5 Cl 0.7438(7) 0.4193(4) 0.0560(4)
O19 O 0.625(2) 0.6369(14) 0.0701(13)
O20 O 0.5113(19) 0.6213(11) 0.0553(11)
O21 O 0.5849(13) 0.5742(9) 0.0895(8)
O22 O 0.589(2) 0.5962(13) 0.0279(14)
Cl6 Cl 0.5763(6) 0.6137(3) 0.0716(3)
O23 O 0.3365(12) 0.8711(9) 0.0525(8)
O24 O 0.3065(12) 0.9369(7) 0.0509(7)
O25 O 0.4126(14) 0.9204(8) 0.0684(8)
O26 O 0.3646(9) 0.9128(5) 0.0074(6)
Cl7 Cl 0.3564(4) 0.9144(3) 0.04580(19)
O27 O 0.6251(15) 0.9476(9) 0.1062(9)
O28 O 0.7158(14) 0.9593(8) 0.0669(9)
O29 O 0.7065(18) 1.0054(13) 0.1094(12)
O30 O 0.739(2) 0.9399(16) 0.1378(16)
Cl8 Cl 0.6961(6) 0.9601(4) 0.1077(3)
Cl9 Cl 0.2500 0.2533(3) 0.2500
C1 C -0.1051(18) -0.1324(15) 0.3337(13)
H1 H -0.1498 -0.1335 0.3271
H2 H -0.0952 -0.1167 0.3576
H3 H -0.0889 -0.1611 0.3370
C2 C -0.0750(9) -0.1076(6) 0.2994(5)
C3 C -0.0377(10) -0.1282(4) 0.2748(7)
H4 H -0.0292 -0.1580 0.2779
C4 C -0.0129(9) -0.1052(6) 0.2457(6)
H5 H 0.0126 -0.1192 0.2289
C5 C -0.0253(8) -0.0616(6) 0.2412(4)
C6 C -0.0626(8) -0.0410(4) 0.2659(5)
H6 H -0.0711 -0.0112 0.2628
C7 C -0.0874(8) -0.0640(7) 0.2949(5)
H7 H -0.1129 -0.0500 0.3118
C8 C 0.0108(9) -0.0581(6) 0.1820(6)
H8 H -0.0056 -0.0859 0.1759
C9 C 0.0452(9) -0.0355(6) 0.1550(6)
C10 C 0.1009(9) 0.0260(6) 0.1392(5)
H9 H 0.1137 0.0545 0.1460
C11 C 0.1170(9) 0.0084(6) 0.1039(6)
C12 C 0.0940(9) -0.0323(6) 0.0934(6)
H10 H 0.1014 -0.0446 0.0691
C13 C 0.0599(10) -0.0549(7) 0.1189(6)
H11 H 0.0462 -0.0833 0.1125
C14 C -0.280(2) 0.0716(16) 0.1781(9)
H12 H -0.2952 0.0447 0.1671
H13 H -0.2917 0.0942 0.1597
H14 H -0.2987 0.0769 0.2017
C15 C -0.0668(12) 0.0702(12) 0.2052(5)
C16 C -0.0972(16) 0.0345(8) 0.1877(7)
H15 H -0.0735 0.0104 0.1813
C17 C -0.1622(16) 0.0342(9) 0.1797(8)
H16 H -0.1830 0.0098 0.1677
C18 C -0.1968(12) 0.0696(12) 0.1891(6)
C19 C -0.1664(16) 0.1053(9) 0.2066(7)
H17 H -0.1901 0.1294 0.2131
C20 C -0.1014(16) 0.1056(9) 0.2147(7)
H18 H -0.0807 0.1300 0.2266
C21 C 0.0202(11) 0.1035(7) 0.2071(6)
H19 H -0.0039 0.1267 0.1954
C22 C 0.0882(10) 0.1097(7) 0.2176(6)
C23 C 0.1817(10) 0.0727(6) 0.2419(5)
H20 H 0.2019 0.0469 0.2509
C24 C 0.2154(8) 0.1087(6) 0.2430(5)
C25 C 0.1855(12) 0.1488(7) 0.2303(6)
H21 H 0.2076 0.1752 0.2311
C26 C 0.1214(13) 0.1455(8) 0.2167(7)
H22 H 0.1005 0.1705 0.2061
C27 C 0.2642(10) -0.1248(7) 0.1375(6)
H23 H 0.2828 -0.1506 0.1505
H24 H 0.2975 -0.1068 0.1291
H25 H 0.2351 -0.1332 0.1147
C28 C 0.2284(8) -0.0995(5) 0.1663(5)
C29 C 0.1977(10) -0.1221(7) 0.1907(6)
H26 H 0.1977 -0.1526 0.1904
C30 C 0.1646(9) -0.0982(6) 0.2176(6)
H27 H 0.1423 -0.1130 0.2357
C31 C 0.1652(9) -0.0549(6) 0.2172(6)
C32 C 0.2027(9) -0.0328(6) 0.1934(5)
H28 H 0.2063 -0.0025 0.1955
C33 C 0.2343(9) -0.0542(5) 0.1669(5)
H29 H 0.2587 -0.0395 0.1499
C34 C 0.1275(8) -0.0424(5) 0.2784(5)
H30 H 0.1489 -0.0676 0.2880
C35 C 0.0907(5) -0.0192(3) 0.3027(3)
N1 N 0.0590(5) 0.0160(3) 0.2853(2)
C36 C 0.0241(5) 0.0422(3) 0.3071(3)
H31 H 0.0024 0.0663 0.2952
C37 C 0.0208(5) 0.0332(3) 0.3463(3)
C38 C 0.0524(6) -0.0020(4) 0.3638(2)
H32 H 0.0502 -0.0082 0.3906
C39 C 0.0874(5) -0.0282(3) 0.3420(3)
H33 H 0.1090 -0.0523 0.3539
C40 C -0.0141(6) 0.0618(3) 0.3691(3)
C41 C -0.0061(5) 0.1058(3) 0.3651(3)
H34 H 0.0208 0.1164 0.3474
N2 N -0.0377(5) 0.1341(2) 0.3870(3)
C42 C -0.0772(5) 0.1185(3) 0.4129(3)
C43 C -0.0851(6) 0.0745(3) 0.4169(3)
H35 H -0.1121 0.0639 0.4346
C44 C -0.0536(6) 0.0462(2) 0.3950(4)
H36 H -0.0590 0.0161 0.3977
C45 C -0.1052(8) 0.1495(6) 0.4351(5)
H37 H -0.1305 0.1402 0.4544
C46 C -0.1237(7) 0.2193(5) 0.4539(5)
C47 C -0.1355(9) 0.2601(6) 0.4386(5)
H38 H -0.1359 0.2649 0.4113
C48 C -0.1466(9) 0.2939(4) 0.4631(7)
H39 H -0.1547 0.3218 0.4526
C49 C -0.1460(8) 0.2869(6) 0.5030(6)
C50 C -0.1342(10) 0.2460(8) 0.5184(4)
H40 H -0.1338 0.2412 0.5457
C51 C -0.1231(9) 0.2122(5) 0.4938(6)
H41 H -0.1150 0.1843 0.5043
C52 C -0.1604(14) 0.3313(11) 0.5311(11)
H42 H -0.2045 0.3312 0.5359
H43 H -0.1515 0.3575 0.5171
H44 H -0.1334 0.3301 0.5561
C53 C 0.8240(10) 0.2237(16) 0.2259(14)
H45 H 0.8495 0.2212 0.2049
H46 H 0.8305 0.1992 0.2427
H47 H 0.8352 0.2493 0.2406
C54 C 0.7538(9) 0.2253(9) 0.2080(8)
C55 C 0.7087(15) 0.2496(10) 0.2237(7)
H48 H 0.7200 0.2663 0.2465
C56 C 0.6469(13) 0.2493(10) 0.2061(10)
H49 H 0.6161 0.2659 0.2168
C57 C 0.6304(10) 0.2247(9) 0.1728(9)
C58 C 0.6755(15) 0.2004(8) 0.1570(6)
H50 H 0.6642 0.1837 0.1343
C59 C 0.7373(12) 0.2007(8) 0.1747(9)
H51 H 0.7681 0.1841 0.1639
C60 C 0.5245(11) 0.2184(6) 0.1868(7)
H52 H 0.5398 0.2231 0.2135
C61 C 0.4570(11) 0.2130(6) 0.1733(6)
C62 C 0.3817(10) 0.2040(5) 0.1223(6)
H53 H 0.3708 0.2006 0.0949
C63 C 0.3328(9) 0.2068(5) 0.1444(5)
C64 C 0.3497(12) 0.2134(7) 0.1838(7)
H54 H 0.3182 0.2162 0.2008
C65 C 0.4151(11) 0.2162(6) 0.1993(7)
H55 H 0.4279 0.2201 0.2265
C66 C 0.2652(10) 0.2065(6) 0.1285(6)
C67 C 0.2471(12) 0.1882(6) 0.0907(6)
H56 H 0.2788 0.1780 0.0760
C68 C 0.1441(10) 0.2021(6) 0.0938(6)
C69 C 0.1533(11) 0.2215(6) 0.1289(6)
H57 H 0.1196 0.2324 0.1415
C70 C 0.2181(11) 0.2247(7) 0.1462(7)
H58 H 0.2279 0.2397 0.1701
C71 C 0.0816(12) 0.1962(7) 0.0757(7)
H59 H 0.0474 0.2079 0.0874
C72 C 0.0093(14) 0.1712(9) 0.0255(10)
C73 C -0.0060(16) 0.1864(9) -0.0124(10)
H60 H 0.0238 0.2026 -0.0246
C74 C -0.0648(19) 0.1780(7) -0.0324(8)
H61 H -0.0753 0.1884 -0.0583
C75 C -0.1084(14) 0.1544(9) -0.0146(11)
C76 C -0.0931(17) 0.1392(9) 0.0233(10)
H62 H -0.1229 0.1230 0.0355
C77 C -0.034(2) 0.1476(8) 0.0433(8)
H63 H -0.0238 0.1372 0.0692
C78 C -0.1753(17) 0.1448(16) -0.0374(17)
H64 H -0.2041 0.1493 -0.0184
H65 H -0.1762 0.1152 -0.0450
H66 H -0.1873 0.1624 -0.0599
C79 C 0.0573(17) -0.0389(11) -0.0812(11)
H67 H 0.0816 -0.0594 -0.0638
H68 H 0.0663 -0.0434 -0.1081
H69 H 0.0124 -0.0434 -0.0798
C80 C 0.0765(13) 0.0099(9) -0.0675(8)
C81 C 0.0512(11) 0.0270(8) -0.0394(7)
H70 H 0.0234 0.0102 -0.0263
C82 C 0.0623(12) 0.0673(8) -0.0277(8)
H71 H 0.0439 0.0790 -0.0063
C83 C 0.1045(11) 0.0932(7) -0.0494(7)
C84 C 0.1323(10) 0.0746(7) -0.0786(6)
H72 H 0.1623 0.0898 -0.0914
C85 C 0.1144(13) 0.0299(9) -0.0899(9)
H73 H 0.1290 0.0163 -0.1118
C86 C 0.1273(10) 0.1632(7) -0.0624(7)
H74 H 0.1216 0.1553 -0.0892
C87 C 0.1440(11) 0.2081(7) -0.0529(7)
C88 C 0.1696(10) 0.2540(7) -0.0005(7)
H75 H 0.1777 0.2585 0.0270
C89 C 0.1769(11) 0.2876(7) -0.0251(7)
C90 C 0.1675(12) 0.2790(9) -0.0681(8)
H76 H 0.1736 0.3012 -0.0861
C91 C 0.1503(11) 0.2393(7) -0.0810(7)
H77 H 0.1428 0.2330 -0.1081
C92 C 0.3704(15) 0.2521(9) -0.0982(9)
H78 H 0.4081 0.2644 -0.0834
H79 H 0.3426 0.2753 -0.1087
H80 H 0.3825 0.2346 -0.1197
C93 C 0.3346(14) 0.2226(9) -0.0697(9)
C94 C 0.3158(12) 0.1825(8) -0.0858(8)
H81 H 0.3197 0.1750 -0.1121
C95 C 0.2904(10) 0.1541(7) -0.0590(6)
H82 H 0.2809 0.1252 -0.0663
C96 C 0.2800(11) 0.1685(7) -0.0230(7)
C97 C 0.2993(11) 0.2092(7) -0.0091(7)
H83 H 0.2939 0.2173 0.0169
C98 C 0.3261(12) 0.2377(8) -0.0331(8)
H84 H 0.3379 0.2660 -0.0248
C99 C 0.2589(8) 0.1010(5) 0.0067(5)
H85 H 0.2906 0.0880 -0.0063
C100 C 0.2239(9) 0.0742(6) 0.0309(5)
C101 C 0.1426(9) 0.0724(6) 0.0690(5)
H86 H 0.1097 0.0866 0.0801
C102 C 0.1542(9) 0.0311(6) 0.0792(5)
C103 C 0.1999(9) 0.0094(6) 0.0614(5)
H87 H 0.2063 -0.0205 0.0651
C104 C 0.2347(9) 0.0324(6) 0.0390(5)
H88 H 0.2683 0.0186 0.0284
C105 C 0.0847(13) 0.0147(8) 0.5128(8)
H89 H 0.1008 0.0166 0.5406
H90 H 0.1157 0.0003 0.4987
H91 H 0.0455 -0.0017 0.5098
C106 C 0.0713(11) 0.0643(7) 0.4946(7)
C107 C 0.0376(11) 0.0906(7) 0.5164(7)
H92 H 0.0227 0.0797 0.5393
C108 C 0.0251(11) 0.1326(7) 0.5054(7)
H93 H 0.0002 0.1506 0.5196
C109 C 0.0514(9) 0.1478(6) 0.4714(6)
C110 C 0.0934(10) 0.0745(6) 0.4620(6)
H94 H 0.1151 0.0546 0.4476
C111 C 0.0821(9) 0.1183(6) 0.4495(6)
H95 H 0.0959 0.1275 0.4257
C112 C 0.0402(10) 0.2234(7) 0.4759(7)
H96 H 0.0566 0.2223 0.5028
C113 C 0.0218(9) 0.2636(6) 0.4602(6)
C114 C -0.0125(9) 0.3007(6) 0.4034(6)
H97 H -0.0262 0.3013 0.3762
C115 C -0.0092(10) 0.3408(6) 0.4242(6)
C116 C 0.0072(9) 0.3386(7) 0.4631(6)
H98 H 0.0079 0.3642 0.4781
C117 C 0.0229(9) 0.3007(6) 0.4819(6)
H99 H 0.0343 0.3001 0.5094
C118 C -0.0283(9) 0.3790(6) 0.4018(5)
C119 C -0.0059(9) 0.3918(6) 0.3689(5)
H100 H 0.0230 0.3729 0.3590
C120 C -0.0615(9) 0.4552(6) 0.3634(6)
C121 C -0.0852(11) 0.4461(7) 0.3995(6)
H101 H -0.1118 0.4660 0.4103
C122 C -0.0691(9) 0.4085(6) 0.4185(6)
H102 H -0.0848 0.4019 0.4425
C123 C -0.0737(9) 0.4919(6) 0.3420(6)
H103 H -0.1041 0.5110 0.3502
C124 C -0.0531(12) 0.5459(7) 0.2939(5)
C125 C -0.0556(12) 0.5835(8) 0.3154(5)
H104 H -0.0447 0.5832 0.3429
C126 C -0.0740(11) 0.6216(7) 0.2965(6)
H105 H -0.0757 0.6474 0.3111
C127 C -0.0899(9) 0.6221(7) 0.2561(6)
C128 C -0.0874(11) 0.5845(8) 0.2347(5)
H106 H -0.0983 0.5849 0.2072
C129 C -0.0690(13) 0.5464(7) 0.2536(5)
H107 H -0.0673 0.5207 0.2390
C130 C -0.1112(16) 0.6662(12) 0.2343(9)
H108 H -0.1558 0.6713 0.2360
H109 H -0.1042 0.6643 0.2067
H110 H -0.0866 0.6900 0.2468
C131 C -0.283(2) 0.4375(14) 0.1830(10)
H111 H -0.2768 0.4571 0.1616
H112 H -0.3068 0.4522 0.2018
H113 H -0.3072 0.4124 0.1724
C132 C -0.2175(9) 0.4223(11) 0.2044(6)
C133 C -0.1794(14) 0.4585(8) 0.2075(7)
H114 H -0.1954 0.4852 0.1975
C134 C -0.1178(13) 0.4556(7) 0.2251(7)
H115 H -0.0918 0.4803 0.2272
C135 C -0.0944(9) 0.4164(9) 0.2397(6)
C136 C -0.1325(14) 0.3803(6) 0.2366(7)
H116 H -0.1164 0.3535 0.2466
C137 C -0.1940(13) 0.3832(8) 0.2190(7)
H117 H -0.2201 0.3585 0.2169
C138 C -0.0061(13) 0.3791(9) 0.2552(8)
H118 H -0.0272 0.3574 0.2393
C139 C 0.0608(13) 0.3735(8) 0.2763(8)
C140 C 0.1444(11) 0.4031(7) 0.3157(6)
H119 H 0.1605 0.4258 0.3323
C141 C 0.1840(12) 0.3671(7) 0.3099(6)
C142 C 0.1572(14) 0.3306(9) 0.2887(8)
H120 H 0.1807 0.3050 0.2873
C143 C 0.0968(13) 0.3334(8) 0.2703(8)
H121 H 0.0786 0.3107 0.2544
C144 C 0.0854(15) 0.4971(10) 0.5085(9)
H122 H 0.1120 0.4732 0.5187
H123 H 0.0429 0.4931 0.5155
H124 H 0.1027 0.5241 0.5199
C145 C 0.0833(12) 0.4989(8) 0.4647(8)
C146 C 0.0702(14) 0.5374(10) 0.4420(9)
H125 H 0.0594 0.5635 0.4537
C147 C 0.0740(10) 0.5348(7) 0.4039(7)
H126 H 0.0685 0.5602 0.3886
C148 C 0.0858(10) 0.4959(7) 0.3850(7)
C149 C 0.0969(10) 0.4615(7) 0.4059(6)
H127 H 0.1060 0.4358 0.3929
C150 C 0.0962(12) 0.4599(8) 0.4467(8)
H128 H 0.1040 0.4342 0.4612
C151 C 0.1083(10) 0.5269(6) 0.3245(6)
H129 H 0.1306 0.5494 0.3386
C152 C 0.1023(10) 0.5270(7) 0.2832(6)
C153 C 0.0657(10) 0.4915(6) 0.2231(6)
H130 H 0.0454 0.4674 0.2104
C154 C 0.0916(9) 0.5220(6) 0.2004(6)
C155 C 0.1252(12) 0.5552(8) 0.2215(7)
H131 H 0.1446 0.5765 0.2073
C156 C 0.1309(11) 0.5580(7) 0.2609(7)
H132 H 0.1542 0.5808 0.2738
C157 C 0.0896(9) 0.5165(6) 0.1591(6)
C158 C 0.0975(9) 0.4787(6) 0.1413(6)
H133 H 0.1057 0.4539 0.1572
C159 C 0.0782(9) 0.5083(6) 0.0786(6)
C160 C 0.0680(11) 0.5477(7) 0.0948(7)
H134 H 0.0572 0.5718 0.0786
C161 C 0.0738(10) 0.5518(7) 0.1366(7)
H135 H 0.0667 0.5786 0.1484
C162 C 0.0778(9) 0.4997(7) 0.0375(6)
H136 H 0.0642 0.5222 0.0199
C163 C 0.0925(11) 0.4597(8) -0.0184(7)
C164 C 0.1108(13) 0.4938(9) -0.0387(9)
H137 H 0.1249 0.5198 -0.0262
C165 C 0.1076(13) 0.4882(9) -0.0806(9)
H138 H 0.1164 0.5115 -0.0970
C166 C 0.0916(14) 0.4485(10) -0.0963(9)
C167 C 0.0761(13) 0.4149(9) -0.0745(8)
H139 H 0.0642 0.3880 -0.0861
C168 C 0.0782(11) 0.4214(8) -0.0333(7)
H140 H 0.0695 0.3984 -0.0167
C169 C 0.091(2) 0.4436(14) -0.1414(14)
H141 H 0.1127 0.4170 -0.1471
H142 H 0.1124 0.4681 -0.1517
H143 H 0.0475 0.4424 -0.1539
C170 C 0.2515(11) 0.6322(11) 0.1308(11)
H144 H 0.2960 0.6403 0.1343
H145 H 0.2353 0.6324 0.1562
H146 H 0.2279 0.6527 0.1132
C171 C 0.2442(6) 0.5858(9) 0.1126(9)
C172 C 0.2437(7) 0.5809(8) 0.0749(7)
H147 H 0.2477 0.6054 0.0590
C173 C 0.2376(7) 0.5422(7) 0.0582(7)
H148 H 0.2373 0.5390 0.0307
C174 C 0.2314(7) 0.5051(7) 0.0831(6)
C175 C 0.2323(7) 0.5121(6) 0.1227(6)
H149 H 0.2285 0.4888 0.1400
C176 C 0.2388(7) 0.5526(7) 0.1365(7)
H150 H 0.2394 0.5576 0.1638
C177 C 0.2477(10) 0.4506(6) 0.0386(6)
H151 H 0.2804 0.4673 0.0300
C178 C 0.2330(9) 0.4096(6) 0.0221(6)
C179 C 0.1700(10) 0.3495(7) 0.0193(6)
H152 H 0.1373 0.3341 0.0293
C180 C 0.2002(11) 0.3310(7) -0.0099(6)
C181 C 0.2462(11) 0.3550(7) -0.0228(7)
H153 H 0.2675 0.3442 -0.0434
C182 C 0.2629(11) 0.3939(6) -0.0074(6)
H154 H 0.2953 0.4100 -0.0171
C183 C 0.6471(11) 0.3346(6) 0.5415(6)
H155 H 0.6910 0.3413 0.5387
H156 H 0.6437 0.3044 0.5489
H157 H 0.6328 0.3529 0.5618
C184 C 0.5991(10) 0.3442(5) 0.4956(7)
C185 C 0.5877(11) 0.3869(5) 0.4856(7)
H158 H 0.6187 0.4080 0.4931
C186 C 0.5309(11) 0.3987(6) 0.4646(7)
H159 H 0.5231 0.4279 0.4578
C187 C 0.4855(10) 0.3678(7) 0.4537(7)
C188 C 0.4969(11) 0.3251(6) 0.4636(7)
H160 H 0.4659 0.3040 0.4561
C189 C 0.5537(11) 0.3133(5) 0.4846(7)
H161 H 0.5615 0.2841 0.4914
C190 C 0.4224(17) 0.3548(9) 0.3904(10)
H162 H 0.4545 0.3380 0.3812
C191 C 0.3603(14) 0.3607(9) 0.3661(8)
C192 C 0.2661(12) 0.3902(7) 0.3618(7)
H163 H 0.2356 0.4064 0.3733
C193 C 0.2468(13) 0.3652(7) 0.3263(7)
C194 C 0.2896(12) 0.3414(7) 0.3144(7)
H164 H 0.2787 0.3246 0.2916
C195 C 0.3496(13) 0.3387(8) 0.3325(7)
H165 H 0.3812 0.3226 0.3221
N3 N 0.0029(8) -0.0406(5) 0.2134(5)
N4 N 0.0675(7) 0.0035(5) 0.1639(4)
N5 N -0.0067(10) 0.0698(6) 0.2129(3)
N6 N 0.1194(8) 0.0715(5) 0.2282(4)
N7 N 0.1320(6) -0.0296(4) 0.2442(4)
N8 N -0.0980(7) 0.1878(5) 0.4305(4)
N9 N 0.5610(8) 0.2162(5) 0.1600(5)
N10 N 0.4385(8) 0.2054(4) 0.1339(4)
N11 N 0.1900(8) 0.1850(4) 0.0761(4)
N12 N 0.0715(10) 0.1754(6) 0.0440(6)
N13 N 0.1203(8) 0.1349(5) -0.0380(5)
N14 N 0.1523(8) 0.2171(5) -0.0131(5)
N15 N 0.2494(7) 0.1412(5) 0.0020(4)
N16 N 0.1735(7) 0.0945(4) 0.0449(4)
N17 N 0.0367(7) 0.1880(5) 0.4567(4)
N18 N 0.0019(7) 0.2637(5) 0.4195(4)
N19 N -0.0182(8) 0.4257(5) 0.3495(4)
N20 N -0.0483(8) 0.5024(5) 0.3127(4)
N21 N -0.0317(9) 0.4166(6) 0.2611(5)
N22 N 0.0883(8) 0.4055(5) 0.2990(5)
N23 N 0.0843(8) 0.4971(5) 0.3430(5)
N24 N 0.0681(8) 0.4946(5) 0.2638(5)
N25 N 0.0944(8) 0.4746(5) 0.1042(5)
N26 N 0.0931(7) 0.4667(5) 0.0238(5)
N27 N 0.2174(8) 0.4642(5) 0.0645(5)
N28 N 0.1857(7) 0.3885(5) 0.0338(4)
N29 N 0.3242(8) 0.3908(5) 0.3780(5)
N30 N 0.4310(10) 0.3740(5) 0.4256(7)
Co1 Co 0.06135(13) 0.01738(8) 0.22433(7)
Co2 Co 0.15648(13) 0.15762(9) 0.02057(8)
Co3 Co -0.01686(13) 0.20038(8) 0.39797(7)
Co4 Co 0.02278(14) 0.45642(9) 0.30247(8)
Co5 Co 0.13590(14) 0.42474(9) 0.07123(8)
C1A C 0.6051(18) -0.1324(15) 0.1663(13)
H1A H 0.6498 -0.1335 0.1729
H2A H 0.5952 -0.1167 0.1424
H3A H 0.5889 -0.1611 0.1630
C2A C 0.5750(9) -0.1076(6) 0.2006(5)
C3A C 0.5377(10) -0.1282(4) 0.2252(7)
H4A H 0.5292 -0.1580 0.2221
C4A C 0.5129(9) -0.1052(6) 0.2543(6)
H5A H 0.4874 -0.1192 0.2711
C5A C 0.5253(8) -0.0616(6) 0.2588(4)
C6A C 0.5626(8) -0.0410(4) 0.2341(5)
H6A H 0.5711 -0.0112 0.2372
C7A C 0.5874(8) -0.0640(7) 0.2051(5)
H7A H 0.6129 -0.0500 0.1882
C8A C 0.4892(9) -0.0581(6) 0.3180(6)
H8A H 0.5056 -0.0859 0.3241
C9A C 0.4548(9) -0.0355(6) 0.3450(6)
C10A C 0.3991(9) 0.0260(6) 0.3608(5)
H9A H 0.3863 0.0545 0.3540
C11A C 0.3830(9) 0.0084(6) 0.3961(6)
C12A C 0.4060(9) -0.0323(6) 0.4066(6)
H10A H 0.3986 -0.0446 0.4309
C13A C 0.4401(10) -0.0549(7) 0.3811(6)
H11A H 0.4538 -0.0833 0.3875
C14A C 0.780(2) 0.0716(16) 0.3219(9)
H12A H 0.7952 0.0447 0.3329
H13A H 0.7917 0.0942 0.3403
H14A H 0.7987 0.0769 0.2983
C15A C 0.5668(12) 0.0702(12) 0.2948(5)
C16A C 0.5972(16) 0.0345(8) 0.3123(7)
H15A H 0.5735 0.0104 0.3187
C17A C 0.6622(16) 0.0342(9) 0.3203(8)
H16A H 0.6830 0.0098 0.3323
C18A C 0.6968(12) 0.0696(12) 0.3109(6)
C19A C 0.6664(16) 0.1053(9) 0.2934(7)
H17A H 0.6901 0.1294 0.2869
C20A C 0.6014(16) 0.1056(9) 0.2853(7)
H18A H 0.5807 0.1300 0.2734
C21A C 0.4798(11) 0.1035(7) 0.2929(6)
H19A H 0.5039 0.1267 0.3046
C22A C 0.4118(10) 0.1097(7) 0.2824(6)
C23A C 0.3183(10) 0.0727(6) 0.2581(5)
H20A H 0.2981 0.0469 0.2491
C24A C 0.2846(8) 0.1087(6) 0.2570(5)
C25A C 0.3145(12) 0.1488(7) 0.2697(6)
H21A H 0.2924 0.1752 0.2689
C26A C 0.3786(13) 0.1455(8) 0.2833(7)
H22A H 0.3995 0.1705 0.2939
C27A C 0.2358(10) -0.1248(7) 0.3625(6)
H23A H 0.2172 -0.1506 0.3495
H24A H 0.2025 -0.1068 0.3709
H25A H 0.2649 -0.1332 0.3853
C28A C 0.2716(8) -0.0995(5) 0.3337(5)
C29A C 0.3023(10) -0.1221(7) 0.3093(6)
H26A H 0.3023 -0.1526 0.3096
C30A C 0.3354(9) -0.0982(6) 0.2824(6)
H27A H 0.3577 -0.1130 0.2643
C31A C 0.3348(9) -0.0549(6) 0.2828(6)
C32A C 0.2973(9) -0.0328(6) 0.3066(5)
H28A H 0.2937 -0.0025 0.3045
C33A C 0.2657(9) -0.0542(5) 0.3331(5)
H29A H 0.2413 -0.0395 0.3501
C34A C 0.3725(8) -0.0424(5) 0.2216(5)
H30A H 0.3511 -0.0676 0.2120
C35A C 0.4093(5) -0.0192(3) 0.1973(3)
N1A N 0.4410(5) 0.0160(3) 0.2147(2)
C36A C 0.4759(5) 0.0422(3) 0.1929(3)
H31A H 0.4976 0.0663 0.2048
C37A C 0.4792(5) 0.0332(3) 0.1537(3)
C38A C 0.4476(6) -0.0020(4) 0.1362(2)
H32A H 0.4498 -0.0082 0.1094
C39A C 0.4126(5) -0.0282(3) 0.1580(3)
H33A H 0.3910 -0.0523 0.1461
C40A C 0.5141(6) 0.0618(3) 0.1309(3)
C41A C 0.5061(5) 0.1058(3) 0.1349(3)
H34A H 0.4792 0.1164 0.1526
N2A N 0.5377(5) 0.1341(2) 0.1130(3)
C42A C 0.5772(5) 0.1185(3) 0.0871(3)
C43A C 0.5851(6) 0.0745(3) 0.0831(3)
H35A H 0.6121 0.0639 0.0654
C44A C 0.5536(6) 0.0462(2) 0.1050(4)
H36A H 0.5590 0.0161 0.1023
C45A C 0.6052(8) 0.1495(6) 0.0649(5)
H37A H 0.6305 0.1402 0.0456
C46A C 0.6237(7) 0.2193(5) 0.0461(5)
C47A C 0.6355(9) 0.2601(6) 0.0614(5)
H38A H 0.6359 0.2649 0.0887
C48A C 0.6466(9) 0.2939(4) 0.0369(7)
H39A H 0.6547 0.3218 0.0474
C49A C 0.6460(8) 0.2869(6) -0.0030(6)
C50A C 0.6342(10) 0.2460(8) -0.0184(4)
H40A H 0.6338 0.2412 -0.0457
C51A C 0.6231(9) 0.2122(5) 0.0062(6)
H41A H 0.6150 0.1843 -0.0043
C52A C 0.6604(14) 0.3313(11) -0.0311(11)
H42A H 0.7045 0.3312 -0.0359
H43A H 0.6515 0.3575 -0.0171
H44A H 0.6334 0.3301 -0.0561
C53A C -0.3240(10) 0.2237(16) 0.2741(14)
H45A H -0.3495 0.2212 0.2951
H46A H -0.3305 0.1992 0.2573
H47A H -0.3352 0.2493 0.2594
C54A C -0.2538(9) 0.2253(9) 0.2920(8)
C55A C -0.2087(15) 0.2496(10) 0.2763(7)
H48A H -0.2200 0.2663 0.2535
C56A C -0.1469(13) 0.2493(10) 0.2939(10)
H49A H -0.1161 0.2659 0.2832
C57A C -0.1304(10) 0.2247(9) 0.3272(9)
C58A C -0.1755(15) 0.2004(8) 0.3430(6)
H50A H -0.1642 0.1837 0.3657
C59A C -0.2373(12) 0.2007(8) 0.3253(9)
H51A H -0.2681 0.1841 0.3361
C60A C -0.0245(11) 0.2184(6) 0.3132(7)
H52A H -0.0398 0.2231 0.2865
C61A C 0.0430(11) 0.2130(6) 0.3267(6)
C62A C 0.1183(10) 0.2040(5) 0.3777(6)
H53A H 0.1292 0.2006 0.4051
C63A C 0.1672(9) 0.2068(5) 0.3556(5)
C64A C 0.1503(12) 0.2134(7) 0.3162(7)
H54A H 0.1818 0.2162 0.2992
C65A C 0.0849(11) 0.2162(6) 0.3007(7)
H55A H 0.0721 0.2201 0.2735
C66A C 0.2348(10) 0.2065(6) 0.3715(6)
C67A C 0.2529(12) 0.1882(6) 0.4093(6)
H56A H 0.2212 0.1780 0.4240
C68A C 0.3559(10) 0.2021(6) 0.4062(6)
C69A C 0.3467(11) 0.2215(6) 0.3711(6)
H57A H 0.3804 0.2324 0.3585
C70A C 0.2819(11) 0.2247(7) 0.3538(7)
H58A H 0.2721 0.2397 0.3299
C71A C 0.4184(12) 0.1962(7) 0.4243(7)
H59A H 0.4526 0.2079 0.4126
C72A C 0.4907(14) 0.1712(9) 0.4745(10)
C73A C 0.5060(16) 0.1864(9) 0.5124(10)
H60A H 0.4762 0.2026 0.5246
C74A C 0.5648(19) 0.1780(7) 0.5324(8)
H61A H 0.5753 0.1884 0.5583
C75A C 0.6084(14) 0.1544(9) 0.5146(11)
C76A C 0.5931(17) 0.1392(9) 0.4767(10)
H62A H 0.6229 0.1230 0.4645
C77A C 0.534(2) 0.1476(8) 0.4567(8)
H63A H 0.5238 0.1372 0.4308
C78A C 0.6753(17) 0.1448(16) 0.5374(17)
H64A H 0.7041 0.1493 0.5184
H65A H 0.6762 0.1152 0.5450
H66A H 0.6873 0.1624 0.5599
C79A C 0.4427(17) -0.0389(11) 0.5812(11)
H67A H 0.4184 -0.0594 0.5638
H68A H 0.4337 -0.0434 0.6081
H69A H 0.4876 -0.0434 0.5798
C80A C 0.4235(13) 0.0099(9) 0.5675(8)
C81A C 0.4488(11) 0.0270(8) 0.5394(7)
H70A H 0.4766 0.0102 0.5263
C82A C 0.4377(12) 0.0673(8) 0.5277(8)
H71A H 0.4561 0.0790 0.5063
C83A C 0.3955(11) 0.0932(7) 0.5494(7)
C84A C 0.3677(10) 0.0746(7) 0.5786(6)
H72A H 0.3377 0.0898 0.5914
C85A C 0.3856(13) 0.0299(9) 0.5899(9)
H73A H 0.3710 0.0163 0.6118
C86A C 0.3727(10) 0.1632(7) 0.5624(7)
H74A H 0.3784 0.1553 0.5892
C87A C 0.3560(11) 0.2081(7) 0.5529(7)
C88A C 0.3304(10) 0.2540(7) 0.5005(7)
H75A H 0.3223 0.2585 0.4730
C89A C 0.3231(11) 0.2876(7) 0.5251(7)
C90A C 0.3325(12) 0.2790(9) 0.5681(8)
H76A H 0.3264 0.3012 0.5861
C91A C 0.3497(11) 0.2393(7) 0.5810(7)
H77A H 0.3572 0.2330 0.6081
C92A C 0.1296(15) 0.2521(9) 0.5982(9)
H78A H 0.0919 0.2644 0.5834
H79A H 0.1574 0.2753 0.6087
H80A H 0.1175 0.2346 0.6197
C93A C 0.1654(14) 0.2226(9) 0.5697(9)
C94A C 0.1842(12) 0.1825(8) 0.5858(8)
H81A H 0.1803 0.1750 0.6121
C95A C 0.2096(10) 0.1541(7) 0.5590(6)
H82A H 0.2191 0.1252 0.5663
C96A C 0.2200(11) 0.1685(7) 0.5230(7)
C97A C 0.2007(11) 0.2092(7) 0.5091(7)
H83A H 0.2061 0.2173 0.4831
C98A C 0.1739(12) 0.2377(8) 0.5331(8)
H84A H 0.1621 0.2660 0.5248
C99A C 0.2411(8) 0.1010(5) 0.4933(5)
H85A H 0.2094 0.0880 0.5063
C100A C 0.2761(9) 0.0742(6) 0.4691(5)
C101A C 0.3574(9) 0.0724(6) 0.4310(5)
H86A H 0.3903 0.0866 0.4199
C102A C 0.3458(9) 0.0311(6) 0.4208(5)
C103A C 0.3001(9) 0.0094(6) 0.4386(5)
H87A H 0.2937 -0.0205 0.4349
C104A C 0.2653(9) 0.0324(6) 0.4610(5)
H88A H 0.2317 0.0186 0.4716
C105A C 0.4153(13) 0.0147(8) -0.0128(8)
H89A H 0.3992 0.0166 -0.0406
H90A H 0.3843 0.0003 0.0013
H91A H 0.4545 -0.0017 -0.0098
C106A C 0.4287(11) 0.0643(7) 0.0054(7)
C107A C 0.4624(11) 0.0906(7) -0.0164(7)
H92A H 0.4773 0.0797 -0.0393
C108A C 0.4749(11) 0.1326(7) -0.0054(7)
H93A H 0.4998 0.1506 -0.0196
C109A C 0.4486(9) 0.1478(6) 0.0286(6)
C110A C 0.4066(10) 0.0745(6) 0.0380(6)
H94A H 0.3849 0.0546 0.0524
C111A C 0.4179(9) 0.1183(6) 0.0505(6)
H95A H 0.4041 0.1275 0.0743
C112A C 0.4598(10) 0.2234(7) 0.0241(7)
H96A H 0.4434 0.2223 -0.0028
C113A C 0.4782(9) 0.2636(6) 0.0398(6)
C114A C 0.5125(9) 0.3007(6) 0.0966(6)
H97A H 0.5262 0.3013 0.1238
C115A C 0.5092(10) 0.3408(6) 0.0758(6)
C116A C 0.4928(9) 0.3386(7) 0.0369(6)
H98A H 0.4921 0.3642 0.0219
C117A C 0.4771(9) 0.3007(6) 0.0181(6)
H99A H 0.4657 0.3001 -0.0094
C118A C 0.5283(9) 0.3790(6) 0.0982(5)
C119A C 0.5059(9) 0.3918(6) 0.1311(5)
H100A H 0.4770 0.3729 0.1410
C120A C 0.5615(9) 0.4552(6) 0.1366(6)
C121A C 0.5852(11) 0.4461(7) 0.1005(6)
H101A H 0.6118 0.4660 0.0897
C122A C 0.5691(9) 0.4085(6) 0.0815(6)
H102A H 0.5848 0.4019 0.0575
C123A C 0.5737(9) 0.4919(6) 0.1580(6)
H103A H 0.6041 0.5110 0.1498
C124A C 0.5531(12) 0.5459(7) 0.2061(5)
C125A C 0.5556(12) 0.5835(8) 0.1846(5)
H104A H 0.5447 0.5832 0.1571
C126A C 0.5740(11) 0.6216(7) 0.2035(6)
H105A H 0.5757 0.6474 0.1889
C127A C 0.5899(9) 0.6221(7) 0.2439(6)
C128A C 0.5874(11) 0.5845(8) 0.2653(5)
H106A H 0.5983 0.5849 0.2928
C129A C 0.5690(13) 0.5464(7) 0.2464(5)
H107A H 0.5673 0.5207 0.2610
C130A C 0.6112(16) 0.6662(12) 0.2657(9)
H108A H 0.6558 0.6713 0.2640
H109A H 0.6042 0.6643 0.2933
H110A H 0.5866 0.6900 0.2532
C131A C 0.783(2) 0.4375(14) 0.3170(10)
H111A H 0.7768 0.4571 0.3384
H112A H 0.8068 0.4522 0.2982
H113A H 0.8072 0.4124 0.3276
C132A C 0.7175(9) 0.4223(11) 0.2956(6)
C133A C 0.6794(14) 0.4585(8) 0.2925(7)
H114A H 0.6954 0.4852 0.3025
C134A C 0.6178(13) 0.4556(7) 0.2749(7)
H115A H 0.5918 0.4803 0.2728
C135A C 0.5944(9) 0.4164(9) 0.2603(6)
C136A C 0.6325(14) 0.3803(6) 0.2634(7)
H116A H 0.6164 0.3535 0.2534
C137A C 0.6940(13) 0.3832(8) 0.2810(7)
H117A H 0.7201 0.3585 0.2831
C138A C 0.5061(13) 0.3791(9) 0.2448(8)
H118A H 0.5272 0.3574 0.2607
C139A C 0.4392(13) 0.3735(8) 0.2237(8)
C140A C 0.3556(11) 0.4031(7) 0.1843(6)
H119A H 0.3395 0.4258 0.1677
C141A C 0.3160(12) 0.3671(7) 0.1901(6)
C142A C 0.3428(14) 0.3306(9) 0.2113(8)
H120A H 0.3193 0.3050 0.2127
C143A C 0.4032(13) 0.3334(8) 0.2297(8)
H121A H 0.4214 0.3107 0.2456
C144A C 0.4146(15) 0.4971(10) -0.0085(9)
H122A H 0.3880 0.4732 -0.0187
H123A H 0.4571 0.4931 -0.0155
H124A H 0.3973 0.5241 -0.0199
C145A C 0.4167(12) 0.4989(8) 0.0353(8)
C146A C 0.4298(14) 0.5374(10) 0.0580(9)
H125A H 0.4406 0.5635 0.0463
C147A C 0.4260(10) 0.5348(7) 0.0961(7)
H126A H 0.4315 0.5602 0.1114
C148A C 0.4142(10) 0.4959(7) 0.1150(7)
C149A C 0.4031(10) 0.4615(7) 0.0941(6)
H127A H 0.3940 0.4358 0.1071
C150A C 0.4038(12) 0.4599(8) 0.0533(8)
H128A H 0.3960 0.4342 0.0388
C151A C 0.3917(10) 0.5269(6) 0.1755(6)
H129A H 0.3694 0.5494 0.1614
C152A C 0.3977(10) 0.5270(7) 0.2168(6)
C153A C 0.4343(10) 0.4915(6) 0.2769(6)
H130A H 0.4546 0.4674 0.2896
C154A C 0.4084(9) 0.5220(6) 0.2996(6)
C155A C 0.3748(12) 0.5552(8) 0.2785(7)
H131A H 0.3554 0.5765 0.2927
C156A C 0.3691(11) 0.5580(7) 0.2391(7)
H132A H 0.3458 0.5808 0.2262
C157A C 0.4104(9) 0.5165(6) 0.3409(6)
C158A C 0.4025(9) 0.4787(6) 0.3587(6)
H133A H 0.3943 0.4539 0.3428
C159A C 0.4218(9) 0.5083(6) 0.4214(6)
C160A C 0.4320(11) 0.5477(7) 0.4052(7)
H134A H 0.4428 0.5718 0.4214
C161A C 0.4262(10) 0.5518(7) 0.3634(7)
H135A H 0.4333 0.5786 0.3516
C162A C 0.4222(9) 0.4997(7) 0.4625(6)
H136A H 0.4358 0.5222 0.4801
C163A C 0.4075(11) 0.4597(8) 0.5184(7)
C164A C 0.3892(13) 0.4938(9) 0.5387(9)
H137A H 0.3751 0.5198 0.5262
C165A C 0.3924(13) 0.4882(9) 0.5806(9)
H138A H 0.3836 0.5115 0.5970
C166A C 0.4084(14) 0.4485(10) 0.5963(9)
C167A C 0.4239(13) 0.4149(9) 0.5745(8)
H139A H 0.4358 0.3880 0.5861
C168A C 0.4218(11) 0.4214(8) 0.5333(7)
H140A H 0.4305 0.3984 0.5167
C169A C 0.409(2) 0.4436(14) 0.6414(14)
H141A H 0.3873 0.4170 0.6471
H142A H 0.3876 0.4681 0.6517
H143A H 0.4525 0.4424 0.6539
C170A C 0.2485(11) 0.6322(11) 0.3692(11)
H144A H 0.2040 0.6403 0.3657
H145A H 0.2647 0.6324 0.3438
H146A H 0.2721 0.6527 0.3868
C171A C 0.2558(6) 0.5858(9) 0.3874(9)
C172A C 0.2563(7) 0.5809(8) 0.4251(7)
H147A H 0.2523 0.6054 0.4410
C173A C 0.2624(7) 0.5422(7) 0.4418(7)
H148A H 0.2627 0.5390 0.4693
C174A C 0.2686(7) 0.5051(7) 0.4169(6)
C175A C 0.2677(7) 0.5121(6) 0.3773(6)
H149A H 0.2715 0.4888 0.3600
C176A C 0.2612(7) 0.5526(7) 0.3635(7)
H150A H 0.2606 0.5576 0.3362
C177A C 0.2523(10) 0.4506(6) 0.4614(6)
H151A H 0.2196 0.4673 0.4700
C178A C 0.2670(9) 0.4096(6) 0.4779(6)
C179A C 0.3300(10) 0.3495(7) 0.4807(6)
H152A H 0.3627 0.3341 0.4707
C180A C 0.2998(11) 0.3310(7) 0.5099(6)
C181A C 0.2538(11) 0.3550(7) 0.5228(7)
H153A H 0.2325 0.3442 0.5434
C182A C 0.2371(11) 0.3939(6) 0.5074(6)
H154A H 0.2047 0.4100 0.5171
C183A C -0.1471(11) 0.3346(6) -0.0415(6)
H155A H -0.1910 0.3413 -0.0387
H156A H -0.1437 0.3044 -0.0489
H157A H -0.1328 0.3529 -0.0618
C184A C -0.0991(10) 0.3442(5) 0.0044(7)
C185A C -0.0877(11) 0.3869(5) 0.0144(7)
H158A H -0.1187 0.4080 0.0069
C186A C -0.0309(11) 0.3987(6) 0.0354(7)
H159A H -0.0231 0.4279 0.0422
C187A C 0.0145(10) 0.3678(7) 0.0463(7)
C188A C 0.0031(11) 0.3251(6) 0.0364(7)
H160A H 0.0341 0.3040 0.0439
C189A C -0.0537(11) 0.3133(5) 0.0154(7)
H161A H -0.0615 0.2841 0.0086
C190A C 0.0776(17) 0.3548(9) 0.1096(10)
H162A H 0.0455 0.3380 0.1188
C191A C 0.1397(14) 0.3607(9) 0.1339(8)
C192A C 0.2339(12) 0.3902(7) 0.1382(7)
H163A H 0.2644 0.4064 0.1267
C193A C 0.2532(13) 0.3652(7) 0.1737(7)
C194A C 0.2104(12) 0.3414(7) 0.1856(7)
H164A H 0.2213 0.3246 0.2084
C195A C 0.1504(13) 0.3387(8) 0.1675(7)
H165A H 0.1188 0.3226 0.1779
N3A N 0.4971(8) -0.0406(5) 0.2866(5)
N4A N 0.4325(7) 0.0035(5) 0.3361(4)
N5A N 0.5067(10) 0.0698(6) 0.2871(3)
N6A N 0.3806(8) 0.0715(5) 0.2718(4)
N7A N 0.3680(6) -0.0296(4) 0.2558(4)
N8A N 0.5980(7) 0.1878(5) 0.0695(4)
N9A N -0.0610(8) 0.2162(5) 0.3400(5)
N10A N 0.0615(8) 0.2054(4) 0.3661(4)
N11A N 0.3100(8) 0.1850(4) 0.4239(4)
N12A N 0.4285(10) 0.1754(6) 0.4560(6)
N13A N 0.3797(8) 0.1349(5) 0.5380(5)
N14A N 0.3477(8) 0.2171(5) 0.5131(5)
N15A N 0.2506(7) 0.1412(5) 0.4980(4)
N16A N 0.3265(7) 0.0945(4) 0.4551(4)
N17A N 0.4633(7) 0.1880(5) 0.0433(4)
N18A N 0.4981(7) 0.2637(5) 0.0805(4)
N19A N 0.5182(8) 0.4257(5) 0.1505(4)
N20A N 0.5483(8) 0.5024(5) 0.1873(4)
N21A N 0.5317(9) 0.4166(6) 0.2389(5)
N22A N 0.4117(8) 0.4055(5) 0.2010(5)
N23A N 0.4157(8) 0.4971(5) 0.1570(5)
N24A N 0.4319(8) 0.4946(5) 0.2362(5)
N25A N 0.4056(8) 0.4746(5) 0.3958(5)
N26A N 0.4069(7) 0.4667(5) 0.4762(5)
N27A N 0.2826(8) 0.4642(5) 0.4355(5)
N28A N 0.3143(7) 0.3885(5) 0.4662(4)
N29A N 0.1758(8) 0.3908(5) 0.1220(5)
N30A N 0.0690(10) 0.3740(5) 0.0744(7)
Co1A Co 0.43865(13) 0.01738(8) 0.27567(7)
Co2A Co 0.34352(13) 0.15762(9) 0.47943(8)
Co3A Co 0.51686(13) 0.20038(8) 0.10203(7)
Co4A Co 0.47722(14) 0.45642(9) 0.19753(8)
Co5A Co 0.36410(14) 0.42474(9) 0.42877(8)
O1 O 0.3332(10) 0.3569(7) 0.0780(6)
O2 O 0.3678(12) 0.3061(7) 0.1220(7)
O3 O 0.2609(11) 0.3054(6) 0.0903(6)
O4 O 0.3408(10) 0.2883(7) 0.0587(7)
Cl1 Cl 0.3247(4) 0.3141(2) 0.0873(2)
loop_
_geom_bond_atom_site_label_1
_geom_bond_atom_site_label_2
_geom_bond_site_symmetry_1
_geom_bond_site_symmetry_2
O1 Cl1 1_555 1_555
O2 Cl1 1_555 1_555
O3 Cl1 1_555 1_555
O4 Cl1 1_555 1_555
O5 Cl2 1_555 1_555
O6 Cl2 1_555 1_555
O7 Cl2 1_555 1_555
O8 Cl2 1_555 1_555
O9 Cl3 1_555 1_555
O10 Cl3 1_555 1_555
Cl3 O9A 1_555 1_555
O11 Cl4 1_555 1_555
O12 Cl4 1_555 1_555
O13 Cl4 1_555 1_555
O14 Cl4 1_555 1_555
O15 Cl5 1_555 1_555
O16 Cl5 1_555 1_555
O17 Cl5 1_555 1_555
O18 Cl5 1_555 1_555
O19 Cl6 1_555 1_555
O20 Cl6 1_555 1_555
O21 Cl6 1_555 1_555
O22 Cl6 1_555 1_555
O23 Cl7 1_555 1_555
O24 Cl7 1_555 1_555
O25 Cl7 1_555 1_555
O26 Cl7 1_555 1_555
O27 Cl8 1_555 1_555
O28 Cl8 1_555 1_555
O29 Cl8 1_555 1_555
O30 Cl8 1_555 1_555
C1 H1 1_555 1_555
H2 C1 1_555 1_555
H3 C1 1_555 1_555
C2 C1 1_555 1_555
C3 C2 1_555 1_555
H4 C3 1_555 1_555
C4 C3 1_555 1_555
H5 C4 1_555 1_555
C5 C4 1_555 1_555
C6 C5 1_555 1_555
H6 C6 1_555 1_555
C7 C2 1_555 1_555
H7 C7 1_555 1_555
C8 H8 1_555 1_555
C9 C8 1_555 1_555
C10 H9 1_555 1_555
C11 C10 1_555 1_555
C12 C11 1_555 1_555
H10 C12 1_555 1_555
C13 C9 1_555 1_555
H11 C13 1_555 1_555
C14 H12 1_555 1_555
H13 C14 1_555 1_555
H14 C14 1_555 1_555
C15 C16 1_555 1_555
C16 H15 1_555 1_555
C17 C16 1_555 1_555
H16 C17 1_555 1_555
C18 C14 1_555 1_555
C19 C18 1_555 1_555
H17 C19 1_555 1_555
C20 C15 1_555 1_555
H18 C20 1_555 1_555
C21 H19 1_555 1_555
C22 C21 1_555 1_555
C23 H20 1_555 1_555
C24 C23 1_555 1_555
C25 C24 1_555 1_555
H21 C25 1_555 1_555
C26 C22 1_555 1_555
H22 C26 1_555 1_555
C27 H23 1_555 1_555
H24 C27 1_555 1_555
H25 C27 1_555 1_555
C28 C27 1_555 1_555
C29 C28 1_555 1_555
H26 C29 1_555 1_555
C30 C29 1_555 1_555
H27 C30 1_555 1_555
C31 C30 1_555 1_555
C32 C31 1_555 1_555
H28 C32 1_555 1_555
C33 C28 1_555 1_555
H29 C33 1_555 1_555
C34 H30 1_555 1_555
C35 C34 1_555 1_555
N1 C35 1_555 1_555
C36 N1 1_555 1_555
H31 C36 1_555 1_555
C37 C36 1_555 1_555
C38 C37 1_555 1_555
H32 C38 1_555 1_555
C39 C35 1_555 1_555
H33 C39 1_555 1_555
C40 C37 1_555 1_555
C41 C40 1_555 1_555
H34 C41 1_555 1_555
N2 C41 1_555 1_555
C42 N2 1_555 1_555
C43 C42 1_555 1_555
H35 C43 1_555 1_555
C44 C40 1_555 1_555
H36 C44 1_555 1_555
C45 C42 1_555 1_555
H37 C45 1_555 1_555
C46 C47 1_555 1_555
C47 H38 1_555 1_555
C48 C47 1_555 1_555
H39 C48 1_555 1_555
C49 C48 1_555 1_555
C50 C49 1_555 1_555
H40 C50 1_555 1_555
C51 C46 1_555 1_555
H41 C51 1_555 1_555
C52 C49 1_555 1_555
H42 C52 1_555 1_555
H43 C52 1_555 1_555
H44 C52 1_555 1_555
C53 H45 1_555 1_555
H46 C53 1_555 1_555
H47 C53 1_555 1_555
C54 C53 1_555 1_555
C55 C54 1_555 1_555
H48 C55 1_555 1_555
C56 C55 1_555 1_555
H49 C56 1_555 1_555
C57 C56 1_555 1_555
C58 C57 1_555 1_555
H50 C58 1_555 1_555
C59 C54 1_555 1_555
H51 C59 1_555 1_555
C60 H52 1_555 1_555
C61 C60 1_555 1_555
C62 H53 1_555 1_555
C63 C62 1_555 1_555
C64 C63 1_555 1_555
H54 C64 1_555 1_555
C65 C61 1_555 1_555
H55 C65 1_555 1_555
C66 C63 1_555 1_555
C67 C66 1_555 1_555
H56 C67 1_555 1_555
C68 C69 1_555 1_555
C69 H57 1_555 1_555
C70 C66 1_555 1_555
H58 C70 1_555 1_555
C71 C68 1_555 1_555
H59 C71 1_555 1_555
C72 C73 1_555 1_555
C73 H60 1_555 1_555
C74 C73 1_555 1_555
H61 C74 1_555 1_555
C75 C74 1_555 1_555
C76 C75 1_555 1_555
H62 C76 1_555 1_555
C77 C72 1_555 1_555
H63 C77 1_555 1_555
C78 C75 1_555 1_555
H64 C78 1_555 1_555
H65 C78 1_555 1_555
H66 C78 1_555 1_555
C79 H67 1_555 1_555
H68 C79 1_555 1_555
H69 C79 1_555 1_555
C80 C79 1_555 1_555
C81 C80 1_555 1_555
H70 C81 1_555 1_555
C82 C81 1_555 1_555
H71 C82 1_555 1_555
C83 C82 1_555 1_555
C84 C83 1_555 1_555
H72 C84 1_555 1_555
C85 C80 1_555 1_555
H73 C85 1_555 1_555
C86 H74 1_555 1_555
C87 C86 1_555 1_555
C88 H75 1_555 1_555
C89 C88 1_555 1_555
C90 C89 1_555 1_555
H76 C90 1_555 1_555
C91 C87 1_555 1_555
H77 C91 1_555 1_555
C92 H78 1_555 1_555
H79 C92 1_555 1_555
H80 C92 1_555 1_555
C93 C92 1_555 1_555
C94 C93 1_555 1_555
H81 C94 1_555 1_555
C95 C94 1_555 1_555
H82 C95 1_555 1_555
C96 C95 1_555 1_555
C97 C96 1_555 1_555
H83 C97 1_555 1_555
C98 C93 1_555 1_555
H84 C98 1_555 1_555
C99 H85 1_555 1_555
C100 C99 1_555 1_555
C101 H86 1_555 1_555
C102 C11 1_555 1_555
C103 C102 1_555 1_555
H87 C103 1_555 1_555
C104 C100 1_555 1_555
H88 C104 1_555 1_555
C105 H89 1_555 1_555
H90 C105 1_555 1_555
H91 C105 1_555 1_555
C106 C105 1_555 1_555
C107 C106 1_555 1_555
H92 C107 1_555 1_555
C108 C107 1_555 1_555
H93 C108 1_555 1_555
C109 C108 1_555 1_555
C110 C106 1_555 1_555
H94 C110 1_555 1_555
C111 C109 1_555 1_555
H95 C111 1_555 1_555
C112 H96 1_555 1_555
C113 C112 1_555 1_555
C114 H97 1_555 1_555
C115 C114 1_555 1_555
C116 C115 1_555 1_555
H98 C116 1_555 1_555
C117 C113 1_555 1_555
H99 C117 1_555 1_555
C118 C115 1_555 1_555
C119 C118 1_555 1_555
H100 C119 1_555 1_555
C120 C121 1_555 1_555
C121 H101 1_555 1_555
C122 C118 1_555 1_555
H102 C122 1_555 1_555
C123 C120 1_555 1_555
H103 C123 1_555 1_555
C124 C125 1_555 1_555
C125 H104 1_555 1_555
C126 C125 1_555 1_555
H105 C126 1_555 1_555
C127 C126 1_555 1_555
C128 C127 1_555 1_555
H106 C128 1_555 1_555
C129 C124 1_555 1_555
H107 C129 1_555 1_555
C130 C127 1_555 1_555
H108 C130 1_555 1_555
H109 C130 1_555 1_555
H110 C130 1_555 1_555
C131 H111 1_555 1_555
H112 C131 1_555 1_555
H113 C131 1_555 1_555
C132 C131 1_555 1_555
C133 C132 1_555 1_555
H114 C133 1_555 1_555
C134 C133 1_555 1_555
H115 C134 1_555 1_555
C135 C134 1_555 1_555
C136 C135 1_555 1_555
H116 C136 1_555 1_555
C137 C132 1_555 1_555
H117 C137 1_555 1_555
C138 H118 1_555 1_555
C139 C138 1_555 1_555
C140 H119 1_555 1_555
C141 C140 1_555 1_555
C142 C141 1_555 1_555
H120 C142 1_555 1_555
C143 C139 1_555 1_555
H121 C143 1_555 1_555
C144 H122 1_555 1_555
H123 C144 1_555 1_555
H124 C144 1_555 1_555
C145 C144 1_555 1_555
C146 C145 1_555 1_555
H125 C146 1_555 1_555
C147 C146 1_555 1_555
H126 C147 1_555 1_555
C148 C147 1_555 1_555
C149 C148 1_555 1_555
H127 C149 1_555 1_555
C150 C145 1_555 1_555
H128 C150 1_555 1_555
C151 H129 1_555 1_555
C152 C151 1_555 1_555
C153 H130 1_555 1_555
C154 C153 1_555 1_555
C155 C154 1_555 1_555
H131 C155 1_555 1_555
C156 C152 1_555 1_555
H132 C156 1_555 1_555
C157 C154 1_555 1_555
C158 C157 1_555 1_555
H133 C158 1_555 1_555
C159 C160 1_555 1_555
C160 H134 1_555 1_555
C161 C157 1_555 1_555
H135 C161 1_555 1_555
C162 C159 1_555 1_555
H136 C162 1_555 1_555
C163 C164 1_555 1_555
C164 H137 1_555 1_555
C165 C164 1_555 1_555
H138 C165 1_555 1_555
C166 C165 1_555 1_555
C167 C166 1_555 1_555
H139 C167 1_555 1_555
C168 C163 1_555 1_555
H140 C168 1_555 1_555
C169 C166 1_555 1_555
H141 C169 1_555 1_555
H142 C169 1_555 1_555
H143 C169 1_555 1_555
C170 H144 1_555 1_555
H145 C170 1_555 1_555
H146 C170 1_555 1_555
C171 C170 1_555 1_555
C172 C171 1_555 1_555
H147 C172 1_555 1_555
C173 C172 1_555 1_555
H148 C173 1_555 1_555
C174 C173 1_555 1_555
C175 C174 1_555 1_555
H149 C175 1_555 1_555
C176 C171 1_555 1_555
H150 C176 1_555 1_555
C177 H151 1_555 1_555
C178 C177 1_555 1_555
C179 H152 1_555 1_555
C180 C89 1_555 1_555
C181 C180 1_555 1_555
H153 C181 1_555 1_555
C182 C178 1_555 1_555
H154 C182 1_555 1_555
C183 H155 1_555 1_555
H156 C183 1_555 1_555
H157 C183 1_555 1_555
C184 C183 1_555 1_555
C185 C184 1_555 1_555
H158 C185 1_555 1_555
C186 C185 1_555 1_555
H159 C186 1_555 1_555
C187 C186 1_555 1_555
C188 C187 1_555 1_555
H160 C188 1_555 1_555
C189 C184 1_555 1_555
H161 C189 1_555 1_555
C190 H162 1_555 1_555
C191 C190 1_555 1_555
C192 H163 1_555 1_555
C193 C141 1_555 1_555
C194 C193 1_555 1_555
H164 C194 1_555 1_555
C195 C191 1_555 1_555
H165 C195 1_555 1_555
N3 C5 1_555 1_555
N4 C9 1_555 1_555
N5 C15 1_555 1_555
N6 C22 1_555 1_555
N7 C31 1_555 1_555
N8 C45 1_555 1_555
N9 C57 1_555 1_555
N10 C61 1_555 1_555
N11 C67 1_555 1_555
N12 C71 1_555 1_555
N13 C83 1_555 1_555
N14 C87 1_555 1_555
N15 C96 1_555 1_555
N16 C100 1_555 1_555
N17 C109 1_555 1_555
N18 C113 1_555 1_555
N19 C119 1_555 1_555
N20 C123 1_555 1_555
N21 C135 1_555 1_555
N22 C139 1_555 1_555
N23 C148 1_555 1_555
N24 C152 1_555 1_555
N25 C158 1_555 1_555
N26 C162 1_555 1_555
N27 C174 1_555 1_555
N28 C178 1_555 1_555
N29 C191 1_555 1_555
N30 C187 1_555 1_555
Co1 N1 1_555 1_555
Co2 N11 1_555 1_555
Co3 N2 1_555 1_555
Co4 N19 1_555 1_555
Co5 N25 1_555 1_555
O10A Cl3 1_555 1_555
C1A H1A 1_555 1_555
H2A C1A 1_555 1_555
H3A C1A 1_555 1_555
C2A C1A 1_555 1_555
C3A C2A 1_555 1_555
H4A C3A 1_555 1_555
C4A C3A 1_555 1_555
H5A C4A 1_555 1_555
C5A C4A 1_555 1_555
C6A C5A 1_555 1_555
H6A C6A 1_555 1_555
C7A C2A 1_555 1_555
H7A C7A 1_555 1_555
C8A H8A 1_555 1_555
C9A C8A 1_555 1_555
C10A H9A 1_555 1_555
C11A C10A 1_555 1_555
C12A C11A 1_555 1_555
H10A C12A 1_555 1_555
C13A C9A 1_555 1_555
H11A C13A 1_555 1_555
C14A H12A 1_555 1_555
H13A C14A 1_555 1_555
H14A C14A 1_555 1_555
C15A C16A 1_555 1_555
C16A H15A 1_555 1_555
C17A C16A 1_555 1_555
H16A C17A 1_555 1_555
C18A C14A 1_555 1_555
C19A C18A 1_555 1_555
H17A C19A 1_555 1_555
C20A C15A 1_555 1_555
H18A C20A 1_555 1_555
C21A H19A 1_555 1_555
C22A C21A 1_555 1_555
C23A H20A 1_555 1_555
C24A C24 1_555 1_555
C25A C24A 1_555 1_555
H21A C25A 1_555 1_555
C26A C22A 1_555 1_555
H22A C26A 1_555 1_555
C27A H23A 1_555 1_555
H24A C27A 1_555 1_555
H25A C27A 1_555 1_555
C28A C27A 1_555 1_555
C29A C28A 1_555 1_555
H26A C29A 1_555 1_555
C30A C29A 1_555 1_555
H27A C30A 1_555 1_555
C31A C30A 1_555 1_555
C32A C31A 1_555 1_555
H28A C32A 1_555 1_555
C33A C28A 1_555 1_555
H29A C33A 1_555 1_555
C34A H30A 1_555 1_555
C35A C34A 1_555 1_555
N1A C35A 1_555 1_555
C36A N1A 1_555 1_555
H31A C36A 1_555 1_555
C37A C36A 1_555 1_555
C38A C37A 1_555 1_555
H32A C38A 1_555 1_555
C39A C35A 1_555 1_555
H33A C39A 1_555 1_555
C40A C37A 1_555 1_555
C41A C40A 1_555 1_555
H34A C41A 1_555 1_555
N2A C41A 1_555 1_555
C42A N2A 1_555 1_555
C43A C42A 1_555 1_555
H35A C43A 1_555 1_555
C44A C40A 1_555 1_555
H36A C44A 1_555 1_555
C45A C42A 1_555 1_555
H37A C45A 1_555 1_555
C46A C47A 1_555 1_555
C47A H38A 1_555 1_555
C48A C47A 1_555 1_555
H39A C48A 1_555 1_555
C49A C48A 1_555 1_555
C50A C49A 1_555 1_555
H40A C50A 1_555 1_555
C51A C46A 1_555 1_555
H41A C51A 1_555 1_555
C52A C49A 1_555 1_555
H42A C52A 1_555 1_555
H43A C52A 1_555 1_555
H44A C52A 1_555 1_555
C53A H45A 1_555 1_555
H46A C53A 1_555 1_555
H47A C53A 1_555 1_555
C54A C53A 1_555 1_555
C55A C54A 1_555 1_555
H48A C55A 1_555 1_555
C56A C55A 1_555 1_555
H49A C56A 1_555 1_555
C57A C56A 1_555 1_555
C58A C57A 1_555 1_555
H50A C58A 1_555 1_555
C59A C54A 1_555 1_555
H51A C59A 1_555 1_555
C60A H52A 1_555 1_555
C61A C60A 1_555 1_555
C62A H53A 1_555 1_555
C63A C62A 1_555 1_555
C64A C63A 1_555 1_555
H54A C64A 1_555 1_555
C65A C61A 1_555 1_555
H55A C65A 1_555 1_555
C66A C63A 1_555 1_555
C67A C66A 1_555 1_555
H56A C67A 1_555 1_555
C68A C69A 1_555 1_555
C69A H57A 1_555 1_555
C70A C66A 1_555 1_555
H58A C70A 1_555 1_555
C71A C68A 1_555 1_555
H59A C71A 1_555 1_555
C72A C73A 1_555 1_555
C73A H60A 1_555 1_555
C74A C73A 1_555 1_555
H61A C74A 1_555 1_555
C75A C74A 1_555 1_555
C76A C75A 1_555 1_555
H62A C76A 1_555 1_555
C77A C72A 1_555 1_555
H63A C77A 1_555 1_555
C78A C75A 1_555 1_555
H64A C78A 1_555 1_555
H65A C78A 1_555 1_555
H66A C78A 1_555 1_555
C79A H67A 1_555 1_555
H68A C79A 1_555 1_555
H69A C79A 1_555 1_555
C80A C79A 1_555 1_555
C81A C80A 1_555 1_555
H70A C81A 1_555 1_555
C82A C81A 1_555 1_555
H71A C82A 1_555 1_555
C83A C82A 1_555 1_555
C84A C83A 1_555 1_555
H72A C84A 1_555 1_555
C85A C80A 1_555 1_555
H73A C85A 1_555 1_555
C86A H74A 1_555 1_555
C87A C86A 1_555 1_555
C88A H75A 1_555 1_555
C89A C88A 1_555 1_555
C90A C89A 1_555 1_555
H76A C90A 1_555 1_555
C91A C87A 1_555 1_555
H77A C91A 1_555 1_555
C92A H78A 1_555 1_555
H79A C92A 1_555 1_555
H80A C92A 1_555 1_555
C93A C92A 1_555 1_555
C94A C93A 1_555 1_555
H81A C94A 1_555 1_555
C95A C94A 1_555 1_555
H82A C95A 1_555 1_555
C96A C95A 1_555 1_555
C97A C96A 1_555 1_555
H83A C97A 1_555 1_555
C98A C93A 1_555 1_555
H84A C98A 1_555 1_555
C99A H85A 1_555 1_555
C100A C99A 1_555 1_555
C101A H86A 1_555 1_555
C102A C11A 1_555 1_555
C103A C102A 1_555 1_555
H87A C103A 1_555 1_555
C104A C100A 1_555 1_555
H88A C104A 1_555 1_555
C105A H89A 1_555 1_555
H90A C105A 1_555 1_555
H91A C105A 1_555 1_555
C106A C105A 1_555 1_555
C107A C106A 1_555 1_555
H92A C107A 1_555 1_555
C108A C107A 1_555 1_555
H93A C108A 1_555 1_555
C109A C108A 1_555 1_555
C110A C106A 1_555 1_555
H94A C110A 1_555 1_555
C111A C109A 1_555 1_555
H95A C111A 1_555 1_555
C112A H96A 1_555 1_555
C113A C112A 1_555 1_555
C114A H97A 1_555 1_555
C115A C114A 1_555 1_555
C116A C115A 1_555 1_555
H98A C116A 1_555 1_555
C117A C113A 1_555 1_555
H99A C117A 1_555 1_555
C118A C115A 1_555 1_555
C119A C118A 1_555 1_555
H100A C119A 1_555 1_555
C120A C121A 1_555 1_555
C121A H101A 1_555 1_555
C122A C118A 1_555 1_555
H102A C122A 1_555 1_555
C123A C120A 1_555 1_555
H103A C123A 1_555 1_555
C124A C125A 1_555 1_555
C125A H104A 1_555 1_555
C126A C125A 1_555 1_555
H105A C126A 1_555 1_555
C127A C126A 1_555 1_555
C128A C127A 1_555 1_555
H106A C128A 1_555 1_555
C129A C124A 1_555 1_555
H107A C129A 1_555 1_555
C130A C127A 1_555 1_555
H108A C130A 1_555 1_555
H109A C130A 1_555 1_555
H110A C130A 1_555 1_555
C131A H111A 1_555 1_555
H112A C131A 1_555 1_555
H113A C131A 1_555 1_555
C132A C131A 1_555 1_555
C133A C132A 1_555 1_555
H114A C133A 1_555 1_555
C134A C133A 1_555 1_555
H115A C134A 1_555 1_555
C135A C134A 1_555 1_555
C136A C135A 1_555 1_555
H116A C136A 1_555 1_555
C137A C132A 1_555 1_555
H117A C137A 1_555 1_555
C138A H118A 1_555 1_555
C139A C138A 1_555 1_555
C140A H119A 1_555 1_555
C141A C140A 1_555 1_555
C142A C141A 1_555 1_555
H120A C142A 1_555 1_555
C143A C139A 1_555 1_555
H121A C143A 1_555 1_555
C144A H122A 1_555 1_555
H123A C144A 1_555 1_555
H124A C144A 1_555 1_555
C145A C144A 1_555 1_555
C146A C145A 1_555 1_555
H125A C146A 1_555 1_555
C147A C146A 1_555 1_555
H126A C147A 1_555 1_555
C148A C147A 1_555 1_555
C149A C148A 1_555 1_555
H127A C149A 1_555 1_555
C150A C145A 1_555 1_555
H128A C150A 1_555 1_555
C151A H129A 1_555 1_555
C152A C151A 1_555 1_555
C153A H130A 1_555 1_555
C154A C153A 1_555 1_555
C155A C154A 1_555 1_555
H131A C155A 1_555 1_555
C156A C152A 1_555 1_555
H132A C156A 1_555 1_555
C157A C154A 1_555 1_555
C158A C157A 1_555 1_555
H133A C158A 1_555 1_555
C159A C160A 1_555 1_555
C160A H134A 1_555 1_555
C161A C157A 1_555 1_555
H135A C161A 1_555 1_555
C162A C159A 1_555 1_555
H136A C162A 1_555 1_555
C163A C164A 1_555 1_555
C164A H137A 1_555 1_555
C165A C164A 1_555 1_555
H138A C165A 1_555 1_555
C166A C165A 1_555 1_555
C167A C166A 1_555 1_555
H139A C167A 1_555 1_555
C168A C163A 1_555 1_555
H140A C168A 1_555 1_555
C169A C166A 1_555 1_555
H141A C169A 1_555 1_555
H142A C169A 1_555 1_555
H143A C169A 1_555 1_555
C170A H144A 1_555 1_555
H145A C170A 1_555 1_555
H146A C170A 1_555 1_555
C171A C170A 1_555 1_555
C172A C171A 1_555 1_555
H147A C172A 1_555 1_555
C173A C172A 1_555 1_555
H148A C173A 1_555 1_555
C174A C173A 1_555 1_555
C175A C174A 1_555 1_555
H149A C175A 1_555 1_555
C176A C171A 1_555 1_555
H150A C176A 1_555 1_555
C177A H151A 1_555 1_555
C178A C177A 1_555 1_555
C179A H152A 1_555 1_555
C180A C89A 1_555 1_555
C181A C180A 1_555 1_555
H153A C181A 1_555 1_555
C182A C178A 1_555 1_555
H154A C182A 1_555 1_555
C183A H155A 1_555 1_555
H156A C183A 1_555 1_555
H157A C183A 1_555 1_555
C184A C183A 1_555 1_555
C185A C184A 1_555 1_555
H158A C185A 1_555 1_555
C186A C185A 1_555 1_555
H159A C186A 1_555 1_555
C187A C186A 1_555 1_555
C188A C187A 1_555 1_555
H160A C188A 1_555 1_555
C189A C184A 1_555 1_555
H161A C189A 1_555 1_555
C190A H162A 1_555 1_555
C191A C190A 1_555 1_555
C192A H163A 1_555 1_555
C193A C141A 1_555 1_555
C194A C193A 1_555 1_555
H164A C194A 1_555 1_555
C195A C191A 1_555 1_555
H165A C195A 1_555 1_555
N3A C5A 1_555 1_555
N4A C9A 1_555 1_555
N5A C15A 1_555 1_555
N6A C22A 1_555 1_555
N7A C31A 1_555 1_555
N8A C45A 1_555 1_555
N9A Co3 1_555 1_555
N10A Co3 1_555 1_555
N11A C67A 1_555 1_555
N12A C71A 1_555 1_555
N13A C83A 1_555 1_555
N14A C87A 1_555 1_555
N15A C96A 1_555 1_555
N16A C100A 1_555 1_555
N17A C109A 1_555 1_555
N18A C113A 1_555 1_555
N19A C119A 1_555 1_555
N20A C123A 1_555 1_555
N21A C135A 1_555 1_555
N22A C139A 1_555 1_555
N23A C148A 1_555 1_555
N24A C152A 1_555 1_555
N25A C158A 1_555 1_555
N26A C162A 1_555 1_555
N27A C174A 1_555 1_555
N28A C178A 1_555 1_555
N29A Co5 1_555 1_555
N30A Co5 1_555 1_555
Co1A N1A 1_555 1_555
Co2A N11A 1_555 1_555
Co3A N9 1_555 1_555
Co4A N19A 1_555 1_555
Co5A N29 1_555 1_555
C6 C7 1_555 1_555
C8 N3 1_555 1_555
C10 N4 1_555 1_555
C12 C13 1_555 1_555
C17 C18 1_555 1_555
C19 C20 1_555 1_555
C21 N5 1_555 1_555
C23 N6 1_555 1_555
C25 C26 1_555 1_555
C32 C33 1_555 1_555
C34 N7 1_555 1_555
C38 C39 1_555 1_555
C43 C44 1_555 1_555
C46 N8 1_555 1_555
C50 C51 1_555 1_555
C58 C59 1_555 1_555
C60 N9 1_555 1_555
C62 N10 1_555 1_555
C64 C65 1_555 1_555
C68 N11 1_555 1_555
C69 C70 1_555 1_555
C72 N12 1_555 1_555
C76 C77 1_555 1_555
C84 C85 1_555 1_555
C86 N13 1_555 1_555
C88 N14 1_555 1_555
C90 C91 1_555 1_555
C97 C98 1_555 1_555
C99 N15 1_555 1_555
C101 C102 1_555 1_555
C101 N16 1_555 1_555
C103 C104 1_555 1_555
C110 C111 1_555 1_555
C112 N17 1_555 1_555
C114 N18 1_555 1_555
C116 C117 1_555 1_555
C120 N19 1_555 1_555
C121 C122 1_555 1_555
C124 N20 1_555 1_555
C128 C129 1_555 1_555
C136 C137 1_555 1_555
C138 N21 1_555 1_555
C140 N22 1_555 1_555
C142 C143 1_555 1_555
C149 C150 1_555 1_555
C151 N23 1_555 1_555
C153 N24 1_555 1_555
C155 C156 1_555 1_555
C159 N25 1_555 1_555
C160 C161 1_555 1_555
C163 N26 1_555 1_555
C167 C168 1_555 1_555
C175 C176 1_555 1_555
C177 N27 1_555 1_555
C179 C180 1_555 1_555
C179 N28 1_555 1_555
C181 C182 1_555 1_555
C188 C189 1_555 1_555
C190 N30 1_555 1_555
C192 C193 1_555 1_555
C192 N29 1_555 1_555
C194 C195 1_555 1_555
N3 Co1 1_555 1_555
N4 Co1 1_555 1_555
N5 Co1 1_555 1_555
N6 Co1 1_555 1_555
N7 Co1 1_555 1_555
N8 Co3 1_555 1_555
N10 Co3A 1_555 1_555
N12 Co2 1_555 1_555
N13 Co2 1_555 1_555
N14 Co2 1_555 1_555
N15 Co2 1_555 1_555
N16 Co2 1_555 1_555
N17 Co3 1_555 1_555
N18 Co3 1_555 1_555
N20 Co4 1_555 1_555
N21 Co4 1_555 1_555
N22 Co4 1_555 1_555
N23 Co4 1_555 1_555
N24 Co4 1_555 1_555
N26 Co5 1_555 1_555
N27 Co5 1_555 1_555
N28 Co5 1_555 1_555
N30 Co5A 1_555 1_555
C6A C7A 1_555 1_555
C8A N3A 1_555 1_555
C10A N4A 1_555 1_555
C12A C13A 1_555 1_555
C17A C18A 1_555 1_555
C19A C20A 1_555 1_555
C21A N5A 1_555 1_555
C23A C24A 1_555 1_555
C23A N6A 1_555 1_555
C25A C26A 1_555 1_555
C32A C33A 1_555 1_555
C34A N7A 1_555 1_555
C38A C39A 1_555 1_555
N2A Co3A 1_555 1_555
C43A C44A 1_555 1_555
C46A N8A 1_555 1_555
C50A C51A 1_555 1_555
C57A N9A 1_555 1_555
C58A C59A 1_555 1_555
C60A N9A 1_555 1_555
C61A N10A 1_555 1_555
C62A N10A 1_555 1_555
C64A C65A 1_555 1_555
C68A N11A 1_555 1_555
C69A C70A 1_555 1_555
C72A N12A 1_555 1_555
C76A C77A 1_555 1_555
C84A C85A 1_555 1_555
C86A N13A 1_555 1_555
C88A N14A 1_555 1_555
C90A C91A 1_555 1_555
C97A C98A 1_555 1_555
C99A N15A 1_555 1_555
C101A C102A 1_555 1_555
C101A N16A 1_555 1_555
C103A C104A 1_555 1_555
C110A C111A 1_555 1_555
C112A N17A 1_555 1_555
C114A N18A 1_555 1_555
C116A C117A 1_555 1_555
C120A N19A 1_555 1_555
C121A C122A 1_555 1_555
C124A N20A 1_555 1_555
C128A C129A 1_555 1_555
C136A C137A 1_555 1_555
C138A N21A 1_555 1_555
C140A N22A 1_555 1_555
C142A C143A 1_555 1_555
C149A C150A 1_555 1_555
C151A N23A 1_555 1_555
C153A N24A 1_555 1_555
C155A C156A 1_555 1_555
C159A N25A 1_555 1_555
C160A C161A 1_555 1_555
C163A N26A 1_555 1_555
C167A C168A 1_555 1_555
C175A C176A 1_555 1_555
C177A N27A 1_555 1_555
C179A C180A 1_555 1_555
C179A N28A 1_555 1_555
C181A C182A 1_555 1_555
C187A N30A 1_555 1_555
C188A C189A 1_555 1_555
C190A N30A 1_555 1_555
C191A N29A 1_555 1_555
C192A C193A 1_555 1_555
C192A N29A 1_555 1_555
C194A C195A 1_555 1_555
N3A Co1A 1_555 1_555
N4A Co1A 1_555 1_555
N5A Co1A 1_555 1_555
N6A Co1A 1_555 1_555
N7A Co1A 1_555 1_555
N8A Co3A 1_555 1_555
N12A Co2A 1_555 1_555
N13A Co2A 1_555 1_555
N14A Co2A 1_555 1_555
N15A Co2A 1_555 1_555
N16A Co2A 1_555 1_555
N17A Co3A 1_555 1_555
N18A Co3A 1_555 1_555
N20A Co4A 1_555 1_555
N21A Co4A 1_555 1_555
N22A Co4A 1_555 1_555
N23A Co4A 1_555 1_555
N24A Co4A 1_555 1_555
N25A Co5A 1_555 1_555
N26A Co5A 1_555 1_555
N27A Co5A 1_555 1_555
N28A Co5A 1_555 1_555

#END
