
#######################################################################
#
#                 Cambridge Crystallographic Data Centre
#                                CCDC 
#
#######################################################################
#
# If this CIF has been generated from an entry in the Cambridge 
# Structural Database, then it will include bibliographic, chemical, 
# crystal, experimental, refinement or atomic coordinate data resulting 
# from the CCDC's data processing and validation procedures.
#
#######################################################################

data_DEHDUR
_chemical_formula_moiety         
'C156 H132 Co4 N24 8+,8(C1 F3 O3 S1 1-),10(C2 H3 N1)'
_chemical_name_systematic        
"hexakis(\m~2~-6,6'-bis(p-Tolyliminomethyl)-3,3'-bipyridine)-tetra-cobalt octakis(trifluoromethanesulfonate) acetonitrile solvate"
_symmetry_cell_setting           hexagonal
_symmetry_space_group_name_H-M   'P -6 2 c'
_symmetry_Int_Tables_number      190
_space_group_name_Hall           "P -6c -2'c"
loop_
_symmetry_equiv_pos_site_id
_symmetry_equiv_pos_as_xyz
1 x,y,z
2 -y,x-y,z
3 -x+y,-x,z
4 x-y,-y,-z
5 -x,-x+y,-z
6 y,x,-z
7 y,x,1/2+z
8 -x,-x+y,1/2+z
9 x-y,-y,1/2+z
10 x,y,1/2-z
11 -x+y,-x,1/2-z
12 -y,x-y,1/2-z
_cell_length_a                   24.7578(2)
_cell_length_b                   24.7578(2)
_cell_length_c                   41.4172(10)
_cell_angle_alpha                90
_cell_angle_beta                 90
_cell_angle_gamma                120
_cell_volume                     21985.5
_exptl_crystal_colour            orange
_exptl_crystal_description       plate
_cell_formula_units_Z            4
loop_
_atom_site_label
_atom_site_type_symbol
_atom_site_fract_x
_atom_site_fract_y
_atom_site_fract_z
C1 C 0.7873(10) -0.0627(7) 0.3152(4)
H1 H 0.8313 -0.0485 0.3111
H2 H 0.7656 -0.0681 0.2946
H3 H 0.7684 -0.1025 0.3267
C2 C 0.7820(6) -0.0153(4) 0.3352(2)
C3 C 0.7898(5) -0.0179(4) 0.3683(2)
H4 H 0.7992 -0.0478 0.3769
C4 C 0.7836(6) 0.0232(5) 0.38878(19)
H5 H 0.7889 0.0214 0.4114
C5 C 0.7698(6) 0.0669(4) 0.3762(2)
C6 C 0.7619(5) 0.0694(4) 0.3431(2)
H6 H 0.7525 0.0993 0.3345
C7 C 0.7681(6) 0.0283(5) 0.32259(19)
H7 H 0.7628 0.0301 0.3000
C8 C 0.7356(7) 0.0882(5) 0.4239(3)
H8 H 0.7129 0.0446 0.4280
C9 C 0.7372(6) 0.1335(5) 0.4473(3)
C10 C 0.7773(7) 0.2363(5) 0.4617(3)
H9 H 0.8013 0.2792 0.4561
C11 C 0.7518(7) 0.2219(5) 0.4909(3)
C12 C 0.7142(8) 0.1592(6) 0.4994(4)
H10 H 0.6942 0.1476 0.5198
C13 C 0.7072(8) 0.1137(6) 0.4765(3)
H11 H 0.6824 0.0705 0.4812
C14 C 0.7669(7) 0.2722(5) 0.5163(3)
C15 C 0.7207(8) 0.2774(6) 0.5311(3)
H12 H 0.6789 0.2518 0.5239
C16 C 0.7907(8) 0.3547(6) 0.5657(3)
C17 C 0.8412(10) 0.3521(7) 0.5525(4)
H13 H 0.8825 0.3758 0.5606
C18 C 0.8259(9) 0.3110(7) 0.5257(3)
H14 H 0.8588 0.3109 0.5139
C19 C 0.7995(8) 0.3904(6) 0.5925(3)
H15 H 0.8401 0.4147 0.6013
C20 C 0.7582(18) 0.4307(12) 0.6330(5)
C21 C 0.7639(19) 0.4890(13) 0.6285(4)
H16 H 0.7650 0.5040 0.6073
C22 C 0.7681(16) 0.5252(10) 0.6551(5)
H17 H 0.7720 0.5651 0.6520
C23 C 0.7665(15) 0.5032(10) 0.6861(4)
C24 C 0.7608(16) 0.4449(10) 0.6906(4)
H18 H 0.7597 0.4299 0.7119
C25 C 0.7566(14) 0.4087(9) 0.6641(6)
H19 H 0.7526 0.3688 0.6672
C26 C 0.7879(21) 0.5496(14) 0.7147(5)
H20 H 0.7873 0.5285 0.7342
H21 H 0.7605 0.5663 0.7168
H22 H 0.8296 0.5830 0.7107
C27 C 1.0813(11) 0.3224(9) 0.2939(5)
H23 H 1.1085 0.3242 0.3116
H24 H 1.0942 0.3647 0.2865
H25 H 1.0844 0.2982 0.2760
C28 C 1.0118(6) 0.2900(5) 0.3062(3)
C29 C 0.9806(6) 0.2336(5) 0.3226(3)
H26 H 1.0008 0.2102 0.3265
C30 C 0.9199(6) 0.2114(5) 0.3333(3)
H27 H 0.8985 0.1728 0.3445
C31 C 0.8904(6) 0.2457(5) 0.3275(3)
C32 C 0.9215(6) 0.3021(5) 0.3111(3)
H28 H 0.9014 0.3256 0.3072
C33 C 0.9823(6) 0.3243(5) 0.3004(3)
H29 H 1.0036 0.3629 0.2892
C34 C 0.7889(7) 0.2290(5) 0.3248(3)
H30 H 0.7977 0.2444 0.3033
C35 C 0.7298(7) 0.2108(5) 0.3391(2)
C36 C 0.6648(7) 0.1738(5) 0.3835(3)
H31 H 0.6576 0.1600 0.4053
C37 C 0.6157(7) 0.1732(5) 0.3654(3)
C38 C 0.6235(8) 0.1936(6) 0.3353(3)
H32 H 0.5911 0.1957 0.3242
C39 C 0.6822(8) 0.2125(6) 0.3201(3)
H33 H 0.6894 0.2257 0.2982
C40 C 0.5525(7) 0.1436(5) 0.3825(3)
C41 C 0.5205(8) 0.1772(6) 0.3819(3)
H34 H 0.5411 0.2182 0.3732
C42 C 0.4317(7) 0.0931(5) 0.4042(3)
C43 C 0.4624(8) 0.0599(6) 0.4068(3)
H35 H 0.4420 0.0197 0.4164
C44 C 0.5238(7) 0.0851(5) 0.3952(3)
H36 H 0.5447 0.0617 0.3962
C45 C 0.3688(8) 0.0693(6) 0.4136(3)
H37 H 0.3466 0.0287 0.4227
C46 C 0.9306(7) 0.2063(5) 0.4180(3)
C47 C 0.8996(7) 0.1531(5) 0.4388(3)
H38 H 0.8595 0.1417 0.4472
C48 C 0.9269(7) 0.1188(5) 0.4468(3)
H39 H 0.9051 0.0825 0.4598
C49 C 0.9882(7) 0.1376(5) 0.4356(3)
C50 C 1.0166(7) 0.1905(5) 0.4156(3)
H40 H 1.0578 0.2045 0.4081
C51 C 0.9876(7) 0.2221(5) 0.4066(3)
H41 H 1.0078 0.2560 0.3920
C52 C 1.0191(7) 0.0996(5) 0.4440(3)
H42 H 1.0178 0.0750 0.4252
H43 H 0.9969 0.0716 0.4620
H44 H 1.0626 0.1278 0.4502
N2 N 0.7675(6) 0.1112(4) 0.3966(2)
N3 N 0.7714(6) 0.1948(4) 0.4399(2)
N4 N 0.7319(7) 0.3179(5) 0.5561(3)
N5 N 0.7528(7) 0.3911(5) 0.6058(2)
N6 N 0.8301(6) 0.2244(4) 0.3414(3)
N7 N 0.7237(6) 0.1944(4) 0.3697(2)
N8 N 0.8458(6) 0.3092(4) 0.3927(2)
N9 N 0.8992(6) 0.2403(4) 0.4102(2)
Co1 Co 0.80743(10) 0.20866(7) 0.39159(4)
Co2 Co 0.6667 0.3333 0.58275(8)
C1A C 1.0627(7) 0.8500(12) 0.3152(4)
C1B C 0.1500(12) 0.2127(10) 0.3152(4)
H1A H 1.0485 0.8798 0.3111
H1B H 0.1202 0.1687 0.3111
H2A H 1.0681 0.8337 0.2946
H2B H 0.1663 0.2344 0.2946
H3A H 1.1025 0.8709 0.3267
H3B H 0.1291 0.2316 0.3267
C2A C 1.0153(4) 0.7973(7) 0.3352(2)
C2B C 0.2027(7) 0.2180(6) 0.3352(2)
C3A C 1.0179(4) 0.8077(6) 0.3683(2)
C3B C 0.1923(6) 0.2102(5) 0.3683(2)
H4A H 1.0478 0.8470 0.3769
H4B H 0.1530 0.2008 0.3769
C4A C 0.9768(5) 0.7604(8) 0.38878(19)
C4B C 0.2396(8) 0.2164(6) 0.38878(19)
H5A H 0.9786 0.7675 0.4114
H5B H 0.2325 0.2111 0.4114
C5A C 0.9331(4) 0.7029(7) 0.3762(2)
C5B C 0.2971(7) 0.2302(6) 0.3762(2)
C6A C 0.9306(4) 0.6925(6) 0.3431(2)
C6B C 0.3075(6) 0.2381(5) 0.3431(2)
H6A H 0.9007 0.6532 0.3345
H6B H 0.3468 0.2475 0.3345
C7A C 0.9717(5) 0.7398(8) 0.32259(19)
C7B C 0.2602(8) 0.2319(6) 0.32259(19)
H7A H 0.9699 0.7327 0.3000
H7B H 0.2673 0.2372 0.3000
C8A C 0.9118(5) 0.6474(9) 0.4239(3)
C8B C 0.3526(9) 0.2644(7) 0.4239(3)
H8A H 0.9554 0.6683 0.4280
H8B H 0.3317 0.2871 0.4280
C9A C 0.8665(5) 0.6037(8) 0.4473(3)
C9B C 0.3963(8) 0.2628(6) 0.4473(3)
C10A C 0.7637(5) 0.5410(9) 0.4617(3)
C10B C 0.4590(9) 0.2227(7) 0.4617(3)
H9A H 0.7208 0.5221 0.4561
H9B H 0.4779 0.1987 0.4561
C11A C 0.7781(5) 0.5299(9) 0.4909(3)
C11B C 0.4701(9) 0.2482(7) 0.4909(3)
C12A C 0.8408(6) 0.5550(10) 0.4994(4)
C12B C 0.4450(10) 0.2858(8) 0.4994(4)
H10B H 0.4534 0.3058 0.5198
H10A H 0.8524 0.5466 0.5198
C13A C 0.8863(6) 0.5935(10) 0.4765(3)
C13B C 0.4065(10) 0.2928(8) 0.4765(3)
H11B H 0.3881 0.3176 0.4812
H11A H 0.9295 0.6119 0.4812
C14B C 0.5053(9) 0.2331(7) 0.5163(3)
C14A C 0.7278(5) 0.4947(9) 0.5163(3)
C15B C 0.5567(10) 0.2793(8) 0.5311(3)
C15A C 0.7226(6) 0.4433(10) 0.5311(3)
H12B H 0.5729 0.3211 0.5239
H12A H 0.7482 0.4271 0.5239
C16B C 0.5640(10) 0.2093(8) 0.5657(3)
C16A C 0.6453(6) 0.4360(10) 0.5657(3)
C17B C 0.5109(12) 0.1588(10) 0.5525(4)
C17A C 0.6479(7) 0.4891(12) 0.5525(4)
H13B H 0.4933 0.1175 0.5606
H13A H 0.6242 0.5067 0.5606
C18B C 0.4851(11) 0.1741(9) 0.5257(3)
C18A C 0.6890(7) 0.5149(11) 0.5257(3)
H14B H 0.4521 0.1412 0.5139
H14A H 0.6891 0.5479 0.5139
C19B C 0.5909(10) 0.2005(8) 0.5925(3)
C19A C 0.6096(6) 0.4091(10) 0.5925(3)
H15B H 0.5746 0.1599 0.6013
H15A H 0.5853 0.4254 0.6013
C20B C 0.6725(22) 0.2418(18) 0.6330(5)
C20A C 0.5693(12) 0.3275(22) 0.6330(5)
C21B C 0.7251(23) 0.2361(19) 0.6285(4)
C21A C 0.5110(13) 0.2749(23) 0.6285(4)
H16B H 0.7390 0.2350 0.6073
H16A H 0.4960 0.2610 0.6073
C22B C 0.7571(19) 0.2319(16) 0.6551(5)
C22A C 0.4748(10) 0.2429(19) 0.6551(5)
H17B H 0.7931 0.2280 0.6520
H17A H 0.4349 0.2069 0.6520
C23B C 0.7367(18) 0.2335(15) 0.6861(4)
C23A C 0.4968(10) 0.2633(18) 0.6861(4)
C24B C 0.6841(19) 0.2392(16) 0.6906(4)
C24A C 0.5551(10) 0.3159(19) 0.6906(4)
H18B H 0.6702 0.2403 0.7119
H18A H 0.5701 0.3298 0.7119
C25B C 0.6521(17) 0.2434(14) 0.6641(6)
C25A C 0.5913(9) 0.3479(17) 0.6641(6)
H19B H 0.6162 0.2474 0.6672
H19A H 0.6312 0.3838 0.6672
C26B C 0.7617(25) 0.2121(21) 0.7147(5)
C26A C 0.4504(14) 0.2383(25) 0.7147(5)
H20B H 0.7412 0.2127 0.7342
H20A H 0.4715 0.2588 0.7342
H21B H 0.8058 0.2395 0.7168
H21A H 0.4337 0.1942 0.7168
H22B H 0.7534 0.1704 0.7107
H22A H 0.4170 0.2466 0.7107
C27A C 0.6776(9) 0.7589(14) 0.2939(5)
C27B C 0.2411(14) -0.0813(11) 0.2939(5)
H23A H 0.6758 0.7843 0.3116
H23B H 0.2157 -0.1085 0.3116
H24A H 0.6353 0.7295 0.2865
H24B H 0.2705 -0.0942 0.2865
H25A H 0.7018 0.7862 0.2760
H25B H 0.2138 -0.0844 0.2760
C28A C 0.7100(5) 0.7218(8) 0.3062(3)
C28B C 0.2782(8) -0.0118(6) 0.3062(3)
C29A C 0.7664(5) 0.7470(8) 0.3226(3)
C29B C 0.2530(8) 0.0194(6) 0.3226(3)
H26A H 0.7898 0.7906 0.3265
H26B H 0.2094 -0.0008 0.3265
C30A C 0.7886(5) 0.7085(8) 0.3333(3)
C30B C 0.2915(8) 0.0801(6) 0.3333(3)
H27A H 0.8272 0.7257 0.3445
H27B H 0.2743 0.1015 0.3445
C31A C 0.7543(5) 0.6447(8) 0.3275(3)
C31B C 0.3553(8) 0.1096(6) 0.3275(3)
C32A C 0.6979(5) 0.6194(8) 0.3111(3)
C32B C 0.3806(8) 0.0785(6) 0.3111(3)
H28A H 0.6744 0.5758 0.3072
H28B H 0.4242 0.0986 0.3072
C33A C 0.6757(5) 0.6580(8) 0.3004(3)
C33B C 0.3420(8) 0.0177(6) 0.3004(3)
H29A H 0.6371 0.6407 0.2892
H29B H 0.3593 -0.0036 0.2892
C34A C 0.7710(5) 0.5599(9) 0.3248(3)
C34B C 0.4401(9) 0.2111(7) 0.3248(3)
H30A H 0.7556 0.5533 0.3033
H30B H 0.4467 0.2023 0.3033
C35A C 0.7892(5) 0.5190(9) 0.3391(2)
C35B C 0.4810(9) 0.2702(7) 0.3391(2)
C36A C 0.8262(5) 0.4910(9) 0.3835(3)
C36B C 0.5090(9) 0.3352(7) 0.3835(3)
H31A H 0.8400 0.4976 0.4053
H31B H 0.5024 0.3424 0.4053
C37A C 0.8268(5) 0.4425(9) 0.3654(3)
C37B C 0.5575(9) 0.3843(7) 0.3654(3)
C38B C 0.5701(10) 0.3765(8) 0.3353(3)
C38A C 0.8064(6) 0.4299(10) 0.3353(3)
H32B H 0.6046 0.4089 0.3242
H32A H 0.8043 0.3954 0.3242
C39B C 0.5303(10) 0.3178(8) 0.3201(3)
C39A C 0.7875(6) 0.4697(10) 0.3201(3)
H33B H 0.5363 0.3106 0.2982
H33A H 0.7743 0.4637 0.2982
C40A C 0.8564(5) 0.4089(9) 0.3825(3)
C40B C 0.5911(9) 0.4475(7) 0.3825(3)
C41A C 0.8228(6) 0.3433(10) 0.3819(3)
C41B C 0.6567(10) 0.4795(8) 0.3819(3)
H34B H 0.6771 0.4589 0.3732
H34A H 0.7818 0.3229 0.3732
C42B C 0.6614(9) 0.5683(7) 0.4042(3)
C42A C 0.9069(5) 0.3386(9) 0.4042(3)
C43B C 0.5975(10) 0.5376(8) 0.4068(3)
C43A C 0.9401(6) 0.4025(10) 0.4068(3)
H35B H 0.5777 0.5580 0.4164
H35A H 0.9803 0.4223 0.4164
C44B C 0.5613(9) 0.4762(7) 0.3952(3)
C44A C 0.9149(5) 0.4387(9) 0.3952(3)
H36B H 0.5170 0.4553 0.3962
H36A H 0.9383 0.4830 0.3962
C45B C 0.7005(10) 0.6312(8) 0.4136(3)
C45A C 0.9307(6) 0.2995(10) 0.4136(3)
H37B H 0.6821 0.6534 0.4227
H37A H 0.9713 0.3179 0.4227
C46B C 0.2757(9) 0.0694(7) 0.4180(3)
C46A C 0.7937(5) 0.7243(9) 0.4180(3)
C47B C 0.2535(9) 0.1004(7) 0.4388(3)
C47A C 0.8469(5) 0.7465(9) 0.4388(3)
H38B H 0.2822 0.1405 0.4472
H38A H 0.8583 0.7178 0.4472
C48B C 0.1919(9) 0.0731(7) 0.4468(3)
C48A C 0.8812(5) 0.8081(9) 0.4468(3)
H39B H 0.1774 0.0949 0.4598
H39A H 0.9175 0.8226 0.4598
C49B C 0.1494(9) 0.0118(7) 0.4356(3)
C49A C 0.8624(5) 0.8506(9) 0.4356(3)
C50B C 0.1739(9) -0.0166(7) 0.4156(3)
C50A C 0.8095(5) 0.8261(9) 0.4156(3)
H40B H 0.1467 -0.0578 0.4081
H40A H 0.7955 0.8533 0.4081
C51B C 0.2345(9) 0.0124(7) 0.4066(3)
C51A C 0.7779(5) 0.7655(9) 0.4066(3)
H41B H 0.2482 -0.0078 0.3920
H41A H 0.7440 0.7518 0.3920
C52B C 0.0805(9) -0.0191(7) 0.4440(3)
C52A C 0.9004(5) 0.9195(9) 0.4440(3)
H42B H 0.0572 -0.0178 0.4252
H42A H 0.9250 0.9428 0.4252
H43B H 0.0747 0.0031 0.4620
H43A H 0.9284 0.9253 0.4620
H44B H 0.0652 -0.0626 0.4502
H44A H 0.8722 0.9348 0.4502
N2A N 0.8888(4) 0.6563(7) 0.3966(2)
N2B N 0.3437(7) 0.2325(6) 0.3966(2)
N3A N 0.8052(4) 0.5766(7) 0.4399(2)
N3B N 0.4234(7) 0.2286(6) 0.4399(2)
N4B N 0.5860(9) 0.2681(7) 0.5561(3)
N4A N 0.6821(5) 0.4140(9) 0.5561(3)
N5B N 0.6383(9) 0.2472(7) 0.6058(2)
N5A N 0.6089(5) 0.3617(9) 0.6058(2)
N6A N 0.7756(4) 0.6057(7) 0.3414(3)
N6B N 0.3943(7) 0.1699(6) 0.3414(3)
N7A N 0.8056(4) 0.5293(7) 0.3697(2)
N7B N 0.4707(7) 0.2763(6) 0.3697(2)
N8A N 0.6908(4) 0.5366(7) 0.3927(2)
N8B N 0.4634(7) 0.1542(6) 0.3927(2)
N9B N 0.3411(7) 0.1008(6) 0.4102(2)
N9A N 0.7597(4) 0.6589(7) 0.4102(2)
Co1A Co 0.79134(7) 0.59877(12) 0.39159(4)
Co1B Co 0.40123(12) 0.19257(10) 0.39159(4)
C53 C 1.0457(6) 0.6295(7) 0.3910(6)
O3 O 1.0235(6) 0.6113(7) 0.4521(4)
O4 O 1.1190(5) 0.6451(6) 0.4329(4)
O5 O 1.0456(6) 0.5406(5) 0.4219(4)
F1 F 0.9850(6) 0.5956(6) 0.3808(4)
F2 F 1.0821(6) 0.6302(6) 0.3662(4)
F3 F 1.0605(5) 0.6905(6) 0.3905(4)
S2 S 1.0543(2) 0.60071(18) 0.42631(11)
C54 C 0.9025(15) 0.4190(11) 0.2500
O6 O 0.7909(10) 0.4054(9) 0.2500
O7 O 0.8115(7) 0.3433(8) 0.2793(4)
F4 F 0.9323(9) 0.3853(9) 0.2500
F5 F 0.9222(6) 0.4553(6) 0.2769(3)
S3 S 0.8146(4) 0.3643(5) 0.2500
O7I O 0.8115(7) 0.3433(8) 0.2207(4)
F5I F 0.9222(6) 0.4553(6) 0.2231(3)
C55 C 0.6667 0.3333 0.4060(10)
N1 N 0.6667 0.3333 0.3795(10)
C60 C 0.6667 0.3333 0.4419(10)
H48 H 0.6402 0.3486 0.4497
H48A H 0.6514 0.2916 0.4497
H48B H 0.7084 0.3598 0.4497
C56 C 0.8631(9) 0.4340(7) 0.4754(4)
C57 C 0.9280(6) 0.4672(7) 0.4865(4)
H45 H 0.9409 0.4370 0.4924
H46 H 0.9317 0.4927 0.5054
H47 H 0.9550 0.4942 0.4692
N10 N 0.8117(7) 0.4046(7) 0.4654(4)
loop_
_geom_bond_atom_site_label_1
_geom_bond_atom_site_label_2
_geom_bond_site_symmetry_1
_geom_bond_site_symmetry_2
C1 H1 1_555 1_555
H2 C1 1_555 1_555
H3 C1 1_555 1_555
C2 C1 1_555 1_555
C3 C2 1_555 1_555
H4 C3 1_555 1_555
C4 C3 1_555 1_555
H5 C4 1_555 1_555
C5 C4 1_555 1_555
C6 C5 1_555 1_555
H6 C6 1_555 1_555
C7 C2 1_555 1_555
H7 C7 1_555 1_555
C8 H8 1_555 1_555
C9 C8 1_555 1_555
C10 H9 1_555 1_555
C11 C10 1_555 1_555
C12 C11 1_555 1_555
H10 C12 1_555 1_555
C13 C9 1_555 1_555
H11 C13 1_555 1_555
C14 C11 1_555 1_555
C15 C14 1_555 1_555
H12 C15 1_555 1_555
C16 C17 1_555 1_555
C17 H13 1_555 1_555
C18 C14 1_555 1_555
H14 C18 1_555 1_555
C19 C16 1_555 1_555
H15 C19 1_555 1_555
C20 C21 1_555 1_555
C21 H16 1_555 1_555
C22 C21 1_555 1_555
H17 C22 1_555 1_555
C23 C22 1_555 1_555
C24 C23 1_555 1_555
H18 C24 1_555 1_555
C25 C20 1_555 1_555
H19 C25 1_555 1_555
C26 C23 1_555 1_555
H20 C26 1_555 1_555
H21 C26 1_555 1_555
H22 C26 1_555 1_555
C27 H23 1_555 1_555
H24 C27 1_555 1_555
H25 C27 1_555 1_555
C28 C27 1_555 1_555
C29 C28 1_555 1_555
H26 C29 1_555 1_555
C30 C29 1_555 1_555
H27 C30 1_555 1_555
C31 C30 1_555 1_555
C32 C31 1_555 1_555
H28 C32 1_555 1_555
C33 C28 1_555 1_555
H29 C33 1_555 1_555
C34 H30 1_555 1_555
C35 C34 1_555 1_555
C36 H31 1_555 1_555
C37 C36 1_555 1_555
C38 C37 1_555 1_555
H32 C38 1_555 1_555
C39 C35 1_555 1_555
H33 C39 1_555 1_555
C40 C37 1_555 1_555
C41 C40 1_555 1_555
H34 C41 1_555 1_555
C42 C43 1_555 1_555
C43 H35 1_555 1_555
C44 C40 1_555 1_555
H36 C44 1_555 1_555
C45 C42 1_555 1_555
H37 C45 1_555 1_555
C46 C47 1_555 1_555
C47 H38 1_555 1_555
C48 C47 1_555 1_555
H39 C48 1_555 1_555
C49 C48 1_555 1_555
C50 C49 1_555 1_555
H40 C50 1_555 1_555
C51 C46 1_555 1_555
H41 C51 1_555 1_555
C52 C49 1_555 1_555
H42 C52 1_555 1_555
H43 C52 1_555 1_555
H44 C52 1_555 1_555
C53 F1 1_555 1_555
C54 F4 1_555 1_555
C55 N1 1_555 1_555
C56 C57 1_555 1_555
C57 H45 1_555 1_555
H46 C57 1_555 1_555
H47 C57 1_555 1_555
N2 C5 1_555 1_555
N3 C9 1_555 1_555
N4 C15 1_555 1_555
N5 C19 1_555 1_555
N6 C31 1_555 1_555
N7 C35 1_555 1_555
N8 Co1 1_555 1_555
N9 C46 1_555 1_555
C60 C55 1_555 1_555
H48 C60 1_555 1_555
N10 C56 1_555 1_555
O3 S2 1_555 1_555
O4 S2 1_555 1_555
O5 S2 1_555 1_555
O6 S3 1_555 1_555
O7 S3 1_555 1_555
F2 C53 1_555 1_555
F3 C53 1_555 1_555
F5 C54 1_555 1_555
S2 C53 1_555 1_555
S3 C54 1_555 1_555
Co1 N2 1_555 1_555
Co2 N4 1_555 1_555
C1A H1A 1_555 1_555
C1B H1B 1_555 1_555
H2A C1A 1_555 1_555
H2B C1B 1_555 1_555
H3A C1A 1_555 1_555
H3B C1B 1_555 1_555
C2A C1A 1_555 1_555
C2B C1B 1_555 1_555
C3A C2A 1_555 1_555
C3B C2B 1_555 1_555
H4A C3A 1_555 1_555
H4B C3B 1_555 1_555
C4A C3A 1_555 1_555
C4B C3B 1_555 1_555
H5A C4A 1_555 1_555
H5B C4B 1_555 1_555
C5A C4A 1_555 1_555
C5B C4B 1_555 1_555
C6A C5A 1_555 1_555
C6B C5B 1_555 1_555
H6A C6A 1_555 1_555
H6B C6B 1_555 1_555
C7A C2A 1_555 1_555
C7B C2B 1_555 1_555
H7A C7A 1_555 1_555
H7B C7B 1_555 1_555
C8A H8A 1_555 1_555
C8B H8B 1_555 1_555
C9A C8A 1_555 1_555
C9B C8B 1_555 1_555
C10A H9A 1_555 1_555
C10B H9B 1_555 1_555
C11A C10A 1_555 1_555
C11B C10B 1_555 1_555
C12A C11A 1_555 1_555
C12B C11B 1_555 1_555
H10B C12B 1_555 1_555
H10A C12A 1_555 1_555
C13A C9A 1_555 1_555
C13B C9B 1_555 1_555
H11B C13B 1_555 1_555
H11A C13A 1_555 1_555
C14B C11B 1_555 1_555
C14A C11A 1_555 1_555
C15B C14B 1_555 1_555
C15A C14A 1_555 1_555
H12B C15B 1_555 1_555
H12A C15A 1_555 1_555
C16B C17B 1_555 1_555
C16A C17A 1_555 1_555
C17B H13B 1_555 1_555
C17A H13A 1_555 1_555
C18B C14B 1_555 1_555
C18A C14A 1_555 1_555
H14B C18B 1_555 1_555
H14A C18A 1_555 1_555
C19B C16B 1_555 1_555
C19A C16A 1_555 1_555
H15B C19B 1_555 1_555
H15A C19A 1_555 1_555
C20B C21B 1_555 1_555
C20A C21A 1_555 1_555
C21B H16B 1_555 1_555
C21A H16A 1_555 1_555
C22B C21B 1_555 1_555
C22A C21A 1_555 1_555
H17B C22B 1_555 1_555
H17A C22A 1_555 1_555
C23B C22B 1_555 1_555
C23A C22A 1_555 1_555
C24B C23B 1_555 1_555
C24A C23A 1_555 1_555
H18B C24B 1_555 1_555
H18A C24A 1_555 1_555
C25B C20B 1_555 1_555
C25A C20A 1_555 1_555
H19B C25B 1_555 1_555
H19A C25A 1_555 1_555
C26B C23B 1_555 1_555
C26A C23A 1_555 1_555
H20B C26B 1_555 1_555
H20A C26A 1_555 1_555
H21B C26B 1_555 1_555
H21A C26A 1_555 1_555
H22B C26B 1_555 1_555
H22A C26A 1_555 1_555
C27A H23A 1_555 1_555
C27B H23B 1_555 1_555
H24A C27A 1_555 1_555
H24B C27B 1_555 1_555
H25A C27A 1_555 1_555
H25B C27B 1_555 1_555
C28A C27A 1_555 1_555
C28B C27B 1_555 1_555
C29A C28A 1_555 1_555
C29B C28B 1_555 1_555
H26A C29A 1_555 1_555
H26B C29B 1_555 1_555
C30A C29A 1_555 1_555
C30B C29B 1_555 1_555
H27A C30A 1_555 1_555
H27B C30B 1_555 1_555
C31A C30A 1_555 1_555
C31B C30B 1_555 1_555
C32A C31A 1_555 1_555
C32B C31B 1_555 1_555
H28A C32A 1_555 1_555
H28B C32B 1_555 1_555
C33A C28A 1_555 1_555
C33B C28B 1_555 1_555
H29A C33A 1_555 1_555
H29B C33B 1_555 1_555
C34A H30A 1_555 1_555
C34B H30B 1_555 1_555
C35A C34A 1_555 1_555
C35B C34B 1_555 1_555
C36A H31A 1_555 1_555
C36B H31B 1_555 1_555
C37A C36A 1_555 1_555
C37B C36B 1_555 1_555
C38B C37B 1_555 1_555
C38A C37A 1_555 1_555
H32B C38B 1_555 1_555
H32A C38A 1_555 1_555
C39B C35B 1_555 1_555
C39A C35A 1_555 1_555
H33B C39B 1_555 1_555
H33A C39A 1_555 1_555
C40A C37A 1_555 1_555
C40B C37B 1_555 1_555
C41A N8 1_555 1_555
C41B C40B 1_555 1_555
H34B C41B 1_555 1_555
H34A C41A 1_555 1_555
C42B C43B 1_555 1_555
C42A N8 1_555 1_555
C43B H35B 1_555 1_555
C43A C42A 1_555 1_555
H35A C43A 1_555 1_555
C44B C40B 1_555 1_555
C44A C40A 1_555 1_555
H36B C44B 1_555 1_555
H36A C44A 1_555 1_555
C45B C42B 1_555 1_555
C45A N9 1_555 1_555
H37B C45B 1_555 1_555
H37A C45A 1_555 1_555
C46B C47B 1_555 1_555
C46A C47A 1_555 1_555
C47B H38B 1_555 1_555
C47A H38A 1_555 1_555
C48B C47B 1_555 1_555
C48A C47A 1_555 1_555
H39B C48B 1_555 1_555
H39A C48A 1_555 1_555
C49B C48B 1_555 1_555
C49A C48A 1_555 1_555
C50B C49B 1_555 1_555
C50A C49A 1_555 1_555
H40B C50B 1_555 1_555
H40A C50A 1_555 1_555
C51B C46B 1_555 1_555
C51A C46A 1_555 1_555
H41B C51B 1_555 1_555
H41A C51A 1_555 1_555
C52B C49B 1_555 1_555
C52A C49A 1_555 1_555
H42B C52B 1_555 1_555
H42A C52A 1_555 1_555
H43B C52B 1_555 1_555
H43A C52A 1_555 1_555
H44B C52B 1_555 1_555
H44A C52A 1_555 1_555
N2A C5A 1_555 1_555
N2B C5B 1_555 1_555
N3A C9A 1_555 1_555
N3B C9B 1_555 1_555
N4B Co2 1_555 1_555
N4A Co2 1_555 1_555
N5B Co2 1_555 1_555
N5A Co2 1_555 1_555
N6A C31A 1_555 1_555
N6B C31B 1_555 1_555
N7A C35A 1_555 1_555
N7B C35B 1_555 1_555
N8A C41B 1_555 1_555
N8B C41 1_555 1_555
N9B C45 1_555 1_555
N9A C45B 1_555 1_555
H48A C60 1_555 1_555
H48B C60 1_555 1_555
O7I S3 1_555 1_555
F5I C54 1_555 1_555
Co1A N2A 1_555 1_555
Co1B N2B 1_555 1_555
C6 C7 1_555 1_555
C8 N2 1_555 1_555
C10 N3 1_555 1_555
C12 C13 1_555 1_555
C16 N4 1_555 1_555
C17 C18 1_555 1_555
C20 N5 1_555 1_555
C24 C25 1_555 1_555
C32 C33 1_555 1_555
C34 N6 1_555 1_555
C36 N7 1_555 1_555
C38 C39 1_555 1_555
C42 N8B 1_555 1_555
C43 C44 1_555 1_555
C50 C51 1_555 1_555
N3 Co1 1_555 1_555
N5 Co2 1_555 1_555
N6 Co1 1_555 1_555
N7 Co1 1_555 1_555
N9 Co1 1_555 1_555
C6A C7A 1_555 1_555
C6B C7B 1_555 1_555
C8A N2A 1_555 1_555
C8B N2B 1_555 1_555
C10A N3A 1_555 1_555
C10B N3B 1_555 1_555
C12A C13A 1_555 1_555
C12B C13B 1_555 1_555
C15B N4B 1_555 1_555
C15A N4A 1_555 1_555
C16B N4B 1_555 1_555
C16A N4A 1_555 1_555
C17B C18B 1_555 1_555
C17A C18A 1_555 1_555
C19B N5B 1_555 1_555
C19A N5A 1_555 1_555
C20B N5B 1_555 1_555
C20A N5A 1_555 1_555
C24B C25B 1_555 1_555
C24A C25A 1_555 1_555
C32A C33A 1_555 1_555
C32B C33B 1_555 1_555
C34A N6A 1_555 1_555
C34B N6B 1_555 1_555
C36A N7A 1_555 1_555
C36B N7B 1_555 1_555
C38B C39B 1_555 1_555
C38A C39A 1_555 1_555
C40A C41A 1_555 1_555
C42B N8A 1_555 1_555
C42A C45A 1_555 1_555
C43B C44B 1_555 1_555
C43A C44A 1_555 1_555
C46B N9B 1_555 1_555
C46A N9A 1_555 1_555
C50B C51B 1_555 1_555
C50A C51A 1_555 1_555
N3A Co1A 1_555 1_555
N3B Co1B 1_555 1_555
N6A Co1A 1_555 1_555
N6B Co1B 1_555 1_555
N7A Co1A 1_555 1_555
N7B Co1B 1_555 1_555
N8A Co1A 1_555 1_555
N8B Co1B 1_555 1_555
N9B Co1B 1_555 1_555
N9A Co1A 1_555 1_555

#END
