# generated using pymatgen
data_Co5H165C195N30(Cl4O15)2
_symmetry_space_group_name_H-M   'P 1'
_cell_length_a   21.46900000
_cell_length_b   31.17800000
_cell_length_c   34.43700000
_cell_angle_alpha   90.00000000
_cell_angle_beta   96.87000000
_cell_angle_gamma   90.00000000
_symmetry_Int_Tables_number   1
_chemical_formula_structural   Co5H165C195N30(Cl4O15)2
_chemical_formula_sum   'Co20 H660 C780 N120 Cl32 O120'
_cell_volume   22885.26493260
_cell_formula_units_Z   4
loop_
 _symmetry_equiv_pos_site_id
 _symmetry_equiv_pos_as_xyz
  1  'x, y, z'
loop_
 _atom_site_type_symbol
 _atom_site_label
 _atom_site_symmetry_multiplicity
 _atom_site_fract_x
 _atom_site_fract_y
 _atom_site_fract_z
 _atom_site_occupancy
  Co  Co1  1  0.061350  0.017380  0.224330  1.0
  Co  Co2  1  0.438650  0.017380  0.275670  1.0
  Co  Co3  1  0.938650  0.982620  0.775670  1.0
  Co  Co4  1  0.561350  0.982620  0.724330  1.0
  Co  Co5  1  0.156480  0.157620  0.020570  1.0
  Co  Co6  1  0.343520  0.157620  0.479430  1.0
  Co  Co7  1  0.843520  0.842380  0.979430  1.0
  Co  Co8  1  0.656480  0.842380  0.520570  1.0
  Co  Co9  1  0.983140  0.200380  0.397970  1.0
  Co  Co10  1  0.516860  0.200380  0.102030  1.0
  Co  Co11  1  0.016860  0.799620  0.602030  1.0
  Co  Co12  1  0.483140  0.799620  0.897970  1.0
  Co  Co13  1  0.022780  0.456420  0.302470  1.0
  Co  Co14  1  0.477220  0.456420  0.197530  1.0
  Co  Co15  1  0.977220  0.543580  0.697530  1.0
  Co  Co16  1  0.522780  0.543580  0.802470  1.0
  Co  Co17  1  0.135900  0.424740  0.071230  1.0
  Co  Co18  1  0.364100  0.424740  0.428770  1.0
  Co  Co19  1  0.864100  0.575260  0.928770  1.0
  Co  Co20  1  0.635900  0.575260  0.571230  1.0
  H  H21  1  0.850200  0.866500  0.327100  1.0
  H  H22  1  0.649800  0.866500  0.172900  1.0
  H  H23  1  0.149800  0.133500  0.672900  1.0
  H  H24  1  0.350200  0.133500  0.827100  1.0
  H  H25  1  0.904800  0.883300  0.357600  1.0
  H  H26  1  0.595200  0.883300  0.142400  1.0
  H  H27  1  0.095200  0.116700  0.642400  1.0
  H  H28  1  0.404800  0.116700  0.857600  1.0
  H  H29  1  0.911100  0.838900  0.337000  1.0
  H  H30  1  0.588900  0.838900  0.163000  1.0
  H  H31  1  0.088900  0.161100  0.663000  1.0
  H  H32  1  0.411100  0.161100  0.837000  1.0
  H  H33  1  0.970800  0.842000  0.277900  1.0
  H  H34  1  0.529200  0.842000  0.222100  1.0
  H  H35  1  0.029200  0.158000  0.722100  1.0
  H  H36  1  0.470800  0.158000  0.777900  1.0
  H  H37  1  0.012600  0.880800  0.228900  1.0
  H  H38  1  0.487400  0.880800  0.271100  1.0
  H  H39  1  0.987400  0.119200  0.771100  1.0
  H  H40  1  0.512600  0.119200  0.728900  1.0
  H  H41  1  0.928900  0.988800  0.262800  1.0
  H  H42  1  0.571100  0.988800  0.237200  1.0
  H  H43  1  0.071100  0.011200  0.737200  1.0
  H  H44  1  0.428900  0.011200  0.762800  1.0
  H  H45  1  0.887100  0.950000  0.311800  1.0
  H  H46  1  0.612900  0.950000  0.188200  1.0
  H  H47  1  0.112900  0.050000  0.688200  1.0
  H  H48  1  0.387100  0.050000  0.811800  1.0
  H  H49  1  0.994400  0.914100  0.175900  1.0
  H  H50  1  0.505600  0.914100  0.324100  1.0
  H  H51  1  0.005600  0.085900  0.824100  1.0
  H  H52  1  0.494400  0.085900  0.675900  1.0
  H  H53  1  0.113700  0.054500  0.146000  1.0
  H  H54  1  0.386300  0.054500  0.354000  1.0
  H  H55  1  0.886300  0.945500  0.854000  1.0
  H  H56  1  0.613700  0.945500  0.646000  1.0
  H  H57  1  0.101400  0.955400  0.069100  1.0
  H  H58  1  0.398600  0.955400  0.430900  1.0
  H  H59  1  0.898600  0.044600  0.930900  1.0
  H  H60  1  0.601400  0.044600  0.569100  1.0
  H  H61  1  0.046200  0.916700  0.112500  1.0
  H  H62  1  0.453800  0.916700  0.387500  1.0
  H  H63  1  0.953800  0.083300  0.887500  1.0
  H  H64  1  0.546200  0.083300  0.612500  1.0
  H  H65  1  0.704800  0.044700  0.167100  1.0
  H  H66  1  0.795200  0.044700  0.332900  1.0
  H  H67  1  0.295200  0.955300  0.832900  1.0
  H  H68  1  0.204800  0.955300  0.667100  1.0
  H  H69  1  0.708300  0.094200  0.159700  1.0
  H  H70  1  0.791700  0.094200  0.340300  1.0
  H  H71  1  0.291700  0.905800  0.840300  1.0
  H  H72  1  0.208300  0.905800  0.659700  1.0
  H  H73  1  0.701300  0.076900  0.201700  1.0
  H  H74  1  0.798700  0.076900  0.298300  1.0
  H  H75  1  0.298700  0.923100  0.798300  1.0
  H  H76  1  0.201300  0.923100  0.701700  1.0
  H  H77  1  0.926500  0.010400  0.181300  1.0
  H  H78  1  0.573500  0.010400  0.318700  1.0
  H  H79  1  0.073500  0.989600  0.818700  1.0
  H  H80  1  0.426500  0.989600  0.681300  1.0
  H  H81  1  0.817000  0.009800  0.167700  1.0
  H  H82  1  0.683000  0.009800  0.332300  1.0
  H  H83  1  0.183000  0.990200  0.832300  1.0
  H  H84  1  0.317000  0.990200  0.667700  1.0
  H  H85  1  0.809900  0.129400  0.213100  1.0
  H  H86  1  0.690100  0.129400  0.286900  1.0
  H  H87  1  0.190100  0.870600  0.786900  1.0
  H  H88  1  0.309900  0.870600  0.713100  1.0
  H  H89  1  0.919300  0.130000  0.226600  1.0
  H  H90  1  0.580700  0.130000  0.273400  1.0
  H  H91  1  0.080700  0.870000  0.773400  1.0
  H  H92  1  0.419300  0.870000  0.726600  1.0
  H  H93  1  0.996100  0.126700  0.195400  1.0
  H  H94  1  0.503900  0.126700  0.304600  1.0
  H  H95  1  0.003900  0.873300  0.804600  1.0
  H  H96  1  0.496100  0.873300  0.695400  1.0
  H  H97  1  0.201900  0.046900  0.250900  1.0
  H  H98  1  0.298100  0.046900  0.249100  1.0
  H  H99  1  0.798100  0.953100  0.749100  1.0
  H  H100  1  0.701900  0.953100  0.750900  1.0
  H  H101  1  0.207600  0.175200  0.231100  1.0
  H  H102  1  0.292400  0.175200  0.268900  1.0
  H  H103  1  0.792400  0.824800  0.768900  1.0
  H  H104  1  0.707600  0.824800  0.731100  1.0
  H  H105  1  0.100500  0.170500  0.206100  1.0
  H  H106  1  0.399500  0.170500  0.293900  1.0
  H  H107  1  0.899500  0.829500  0.793900  1.0
  H  H108  1  0.600500  0.829500  0.706100  1.0
  H  H109  1  0.282800  0.849400  0.150500  1.0
  H  H110  1  0.217200  0.849400  0.349500  1.0
  H  H111  1  0.717200  0.150600  0.849500  1.0
  H  H112  1  0.782800  0.150600  0.650500  1.0
  H  H113  1  0.297500  0.893200  0.129100  1.0
  H  H114  1  0.202500  0.893200  0.370900  1.0
  H  H115  1  0.702500  0.106800  0.870900  1.0
  H  H116  1  0.797500  0.106800  0.629100  1.0
  H  H117  1  0.235100  0.866800  0.114700  1.0
  H  H118  1  0.264900  0.866800  0.385300  1.0
  H  H119  1  0.764900  0.133200  0.885300  1.0
  H  H120  1  0.735100  0.133200  0.614700  1.0
  H  H121  1  0.197700  0.847400  0.190400  1.0
  H  H122  1  0.302300  0.847400  0.309600  1.0
  H  H123  1  0.802300  0.152600  0.809600  1.0
  H  H124  1  0.697700  0.152600  0.690400  1.0
  H  H125  1  0.142300  0.887000  0.235700  1.0
  H  H126  1  0.357700  0.887000  0.264300  1.0
  H  H127  1  0.857700  0.113000  0.764300  1.0
  H  H128  1  0.642300  0.113000  0.735700  1.0
  H  H129  1  0.206300  0.997500  0.195500  1.0
  H  H130  1  0.293700  0.997500  0.304500  1.0
  H  H131  1  0.793700  0.002500  0.804500  1.0
  H  H132  1  0.706300  0.002500  0.695500  1.0
  H  H133  1  0.258700  0.960500  0.149900  1.0
  H  H134  1  0.241300  0.960500  0.350100  1.0
  H  H135  1  0.741300  0.039500  0.850100  1.0
  H  H136  1  0.758700  0.039500  0.649900  1.0
  H  H137  1  0.148900  0.932400  0.288000  1.0
  H  H138  1  0.351100  0.932400  0.212000  1.0
  H  H139  1  0.851100  0.067600  0.712000  1.0
  H  H140  1  0.648900  0.067600  0.788000  1.0
  H  H141  1  0.002400  0.066300  0.295200  1.0
  H  H142  1  0.497600  0.066300  0.204800  1.0
  H  H143  1  0.997600  0.933700  0.704800  1.0
  H  H144  1  0.502400  0.933700  0.795200  1.0
  H  H145  1  0.050200  0.991800  0.390600  1.0
  H  H146  1  0.449800  0.991800  0.109400  1.0
  H  H147  1  0.949800  0.008200  0.609400  1.0
  H  H148  1  0.550200  0.008200  0.890600  1.0
  H  H149  1  0.109000  0.947700  0.353900  1.0
  H  H150  1  0.391000  0.947700  0.146100  1.0
  H  H151  1  0.891000  0.052300  0.646100  1.0
  H  H152  1  0.609000  0.052300  0.853900  1.0
  H  H153  1  0.020800  0.116400  0.347400  1.0
  H  H154  1  0.479200  0.116400  0.152600  1.0
  H  H155  1  0.979200  0.883600  0.652600  1.0
  H  H156  1  0.520800  0.883600  0.847400  1.0
  H  H157  1  0.887900  0.063900  0.434600  1.0
  H  H158  1  0.612100  0.063900  0.065400  1.0
  H  H159  1  0.112100  0.936100  0.565400  1.0
  H  H160  1  0.387900  0.936100  0.934600  1.0
  H  H161  1  0.941000  0.016100  0.397700  1.0
  H  H162  1  0.559000  0.016100  0.102300  1.0
  H  H163  1  0.059000  0.983900  0.602300  1.0
  H  H164  1  0.441000  0.983900  0.897700  1.0
  H  H165  1  0.869500  0.140200  0.454400  1.0
  H  H166  1  0.630500  0.140200  0.045600  1.0
  H  H167  1  0.130500  0.859800  0.545600  1.0
  H  H168  1  0.369500  0.859800  0.954400  1.0
  H  H169  1  0.864100  0.264900  0.411300  1.0
  H  H170  1  0.635900  0.264900  0.088700  1.0
  H  H171  1  0.135900  0.735100  0.588700  1.0
  H  H172  1  0.364100  0.735100  0.911300  1.0
  H  H173  1  0.845300  0.321800  0.452600  1.0
  H  H174  1  0.654700  0.321800  0.047400  1.0
  H  H175  1  0.154700  0.678200  0.547400  1.0
  H  H176  1  0.345300  0.678200  0.952600  1.0
  H  H177  1  0.866200  0.241200  0.545700  1.0
  H  H178  1  0.633800  0.241200  0.954300  1.0
  H  H179  1  0.133800  0.758800  0.454300  1.0
  H  H180  1  0.366200  0.758800  0.045700  1.0
  H  H181  1  0.885000  0.184300  0.504300  1.0
  H  H182  1  0.615000  0.184300  0.995700  1.0
  H  H183  1  0.115000  0.815700  0.495700  1.0
  H  H184  1  0.385000  0.815700  0.004300  1.0
  H  H185  1  0.795500  0.331200  0.535900  1.0
  H  H186  1  0.704500  0.331200  0.964100  1.0
  H  H187  1  0.204500  0.668800  0.464100  1.0
  H  H188  1  0.295500  0.668800  0.035900  1.0
  H  H189  1  0.848500  0.357500  0.517100  1.0
  H  H190  1  0.651500  0.357500  0.982900  1.0
  H  H191  1  0.151500  0.642500  0.482900  1.0
  H  H192  1  0.348500  0.642500  0.017100  1.0
  H  H193  1  0.866600  0.330100  0.556100  1.0
  H  H194  1  0.633400  0.330100  0.943900  1.0
  H  H195  1  0.133400  0.669900  0.443900  1.0
  H  H196  1  0.366600  0.669900  0.056100  1.0
  H  H197  1  0.849500  0.221200  0.204900  1.0
  H  H198  1  0.650500  0.221200  0.295100  1.0
  H  H199  1  0.150500  0.778800  0.795100  1.0
  H  H200  1  0.349500  0.778800  0.704900  1.0
  H  H201  1  0.830500  0.199200  0.242700  1.0
  H  H202  1  0.669500  0.199200  0.257300  1.0
  H  H203  1  0.169500  0.800800  0.757300  1.0
  H  H204  1  0.330500  0.800800  0.742700  1.0
  H  H205  1  0.835200  0.249300  0.240600  1.0
  H  H206  1  0.664800  0.249300  0.259400  1.0
  H  H207  1  0.164800  0.750700  0.759400  1.0
  H  H208  1  0.335200  0.750700  0.740600  1.0
  H  H209  1  0.720000  0.266300  0.246500  1.0
  H  H210  1  0.780000  0.266300  0.253500  1.0
  H  H211  1  0.280000  0.733700  0.753500  1.0
  H  H212  1  0.220000  0.733700  0.746500  1.0
  H  H213  1  0.616100  0.265900  0.216800  1.0
  H  H214  1  0.883900  0.265900  0.283200  1.0
  H  H215  1  0.383900  0.734100  0.783200  1.0
  H  H216  1  0.116100  0.734100  0.716800  1.0
  H  H217  1  0.664200  0.183700  0.134300  1.0
  H  H218  1  0.835800  0.183700  0.365700  1.0
  H  H219  1  0.335800  0.816300  0.865700  1.0
  H  H220  1  0.164200  0.816300  0.634300  1.0
  H  H221  1  0.768100  0.184100  0.163900  1.0
  H  H222  1  0.731900  0.184100  0.336100  1.0
  H  H223  1  0.231900  0.815900  0.836100  1.0
  H  H224  1  0.268100  0.815900  0.663900  1.0
  H  H225  1  0.539800  0.223100  0.213500  1.0
  H  H226  1  0.960200  0.223100  0.286500  1.0
  H  H227  1  0.460200  0.776900  0.786500  1.0
  H  H228  1  0.039800  0.776900  0.713500  1.0
  H  H229  1  0.370800  0.200600  0.094900  1.0
  H  H230  1  0.129200  0.200600  0.405100  1.0
  H  H231  1  0.629200  0.799400  0.905100  1.0
  H  H232  1  0.870800  0.799400  0.594900  1.0
  H  H233  1  0.318200  0.216200  0.200800  1.0
  H  H234  1  0.181800  0.216200  0.299200  1.0
  H  H235  1  0.681800  0.783800  0.799200  1.0
  H  H236  1  0.818200  0.783800  0.700800  1.0
  H  H237  1  0.427900  0.220100  0.226500  1.0
  H  H238  1  0.072100  0.220100  0.273500  1.0
  H  H239  1  0.572100  0.779900  0.773500  1.0
  H  H240  1  0.927900  0.779900  0.726500  1.0
  H  H241  1  0.278800  0.178000  0.076000  1.0
  H  H242  1  0.221200  0.178000  0.424000  1.0
  H  H243  1  0.721200  0.822000  0.924000  1.0
  H  H244  1  0.778800  0.822000  0.576000  1.0
  H  H245  1  0.119600  0.232400  0.141500  1.0
  H  H246  1  0.380400  0.232400  0.358500  1.0
  H  H247  1  0.880400  0.767600  0.858500  1.0
  H  H248  1  0.619600  0.767600  0.641500  1.0
  H  H249  1  0.227900  0.239700  0.170100  1.0
  H  H250  1  0.272100  0.239700  0.329900  1.0
  H  H251  1  0.772100  0.760300  0.829900  1.0
  H  H252  1  0.727900  0.760300  0.670100  1.0
  H  H253  1  0.047400  0.207900  0.087400  1.0
  H  H254  1  0.452600  0.207900  0.412600  1.0
  H  H255  1  0.952600  0.792100  0.912600  1.0
  H  H256  1  0.547400  0.792100  0.587400  1.0
  H  H257  1  0.023800  0.202600  0.975400  1.0
  H  H258  1  0.476200  0.202600  0.524600  1.0
  H  H259  1  0.976200  0.797400  0.024600  1.0
  H  H260  1  0.523800  0.797400  0.475400  1.0
  H  H261  1  0.924700  0.188400  0.941700  1.0
  H  H262  1  0.575300  0.188400  0.558300  1.0
  H  H263  1  0.075300  0.811600  0.058300  1.0
  H  H264  1  0.424700  0.811600  0.441700  1.0
  H  H265  1  0.877100  0.123000  0.035500  1.0
  H  H266  1  0.622900  0.123000  0.464500  1.0
  H  H267  1  0.122900  0.877000  0.964500  1.0
  H  H268  1  0.377100  0.877000  0.535500  1.0
  H  H269  1  0.976200  0.137200  0.069200  1.0
  H  H270  1  0.523800  0.137200  0.430800  1.0
  H  H271  1  0.023800  0.862800  0.930800  1.0
  H  H272  1  0.476200  0.862800  0.569200  1.0
  H  H273  1  0.795900  0.149300  0.981600  1.0
  H  H274  1  0.704100  0.149300  0.518400  1.0
  H  H275  1  0.204100  0.850700  0.018400  1.0
  H  H276  1  0.295900  0.850700  0.481600  1.0
  H  H277  1  0.823800  0.115200  0.955000  1.0
  H  H278  1  0.676200  0.115200  0.545000  1.0
  H  H279  1  0.176200  0.884800  0.045000  1.0
  H  H280  1  0.323800  0.884800  0.455000  1.0
  H  H281  1  0.812700  0.162400  0.940100  1.0
  H  H282  1  0.687300  0.162400  0.559900  1.0
  H  H283  1  0.187300  0.837600  0.059900  1.0
  H  H284  1  0.312700  0.837600  0.440100  1.0
  H  H285  1  0.081600  0.940600  0.936200  1.0
  H  H286  1  0.418400  0.940600  0.563800  1.0
  H  H287  1  0.918400  0.059400  0.063800  1.0
  H  H288  1  0.581600  0.059400  0.436200  1.0
  H  H289  1  0.066300  0.956600  0.891900  1.0
  H  H290  1  0.433700  0.956600  0.608100  1.0
  H  H291  1  0.933700  0.043400  0.108100  1.0
  H  H292  1  0.566300  0.043400  0.391900  1.0
  H  H293  1  0.012400  0.956600  0.920200  1.0
  H  H294  1  0.487600  0.956600  0.579800  1.0
  H  H295  1  0.987600  0.043400  0.079800  1.0
  H  H296  1  0.512400  0.043400  0.420200  1.0
  H  H297  1  0.023400  0.010200  0.973700  1.0
  H  H298  1  0.476600  0.010200  0.526300  1.0
  H  H299  1  0.976600  0.989800  0.026300  1.0
  H  H300  1  0.523400  0.989800  0.473700  1.0
  H  H301  1  0.043900  0.079000  0.993700  1.0
  H  H302  1  0.456100  0.079000  0.506300  1.0
  H  H303  1  0.956100  0.921000  0.006300  1.0
  H  H304  1  0.543900  0.921000  0.493700  1.0
  H  H305  1  0.162300  0.089800  0.908600  1.0
  H  H306  1  0.337700  0.089800  0.591400  1.0
  H  H307  1  0.837700  0.910200  0.091400  1.0
  H  H308  1  0.662300  0.910200  0.408600  1.0
  H  H309  1  0.129000  0.016300  0.888200  1.0
  H  H310  1  0.371000  0.016300  0.611800  1.0
  H  H311  1  0.871000  0.983700  0.111800  1.0
  H  H312  1  0.629000  0.983700  0.388200  1.0
  H  H313  1  0.121600  0.155300  0.910800  1.0
  H  H314  1  0.378400  0.155300  0.589200  1.0
  H  H315  1  0.878400  0.844700  0.089200  1.0
  H  H316  1  0.621600  0.844700  0.410800  1.0
  H  H317  1  0.177700  0.258500  0.027000  1.0
  H  H318  1  0.322300  0.258500  0.473000  1.0
  H  H319  1  0.822300  0.741500  0.973000  1.0
  H  H320  1  0.677700  0.741500  0.527000  1.0
  H  H321  1  0.173600  0.301200  0.913900  1.0
  H  H322  1  0.326400  0.301200  0.586100  1.0
  H  H323  1  0.826400  0.698800  0.086100  1.0
  H  H324  1  0.673600  0.698800  0.413900  1.0
  H  H325  1  0.142800  0.233000  0.891900  1.0
  H  H326  1  0.357200  0.233000  0.608100  1.0
  H  H327  1  0.857200  0.767000  0.108100  1.0
  H  H328  1  0.642800  0.767000  0.391900  1.0
  H  H329  1  0.408100  0.264400  0.916600  1.0
  H  H330  1  0.091900  0.264400  0.583400  1.0
  H  H331  1  0.591900  0.735600  0.083400  1.0
  H  H332  1  0.908100  0.735600  0.416600  1.0
  H  H333  1  0.342600  0.275300  0.891300  1.0
  H  H334  1  0.157400  0.275300  0.608700  1.0
  H  H335  1  0.657400  0.724700  0.108700  1.0
  H  H336  1  0.842600  0.724700  0.391300  1.0
  H  H337  1  0.382500  0.234600  0.880300  1.0
  H  H338  1  0.117500  0.234600  0.619700  1.0
  H  H339  1  0.617500  0.765400  0.119700  1.0
  H  H340  1  0.882500  0.765400  0.380300  1.0
  H  H341  1  0.319700  0.175000  0.887900  1.0
  H  H342  1  0.180300  0.175000  0.612100  1.0
  H  H343  1  0.680300  0.825000  0.112100  1.0
  H  H344  1  0.819700  0.825000  0.387900  1.0
  H  H345  1  0.280900  0.125200  0.933700  1.0
  H  H346  1  0.219100  0.125200  0.566300  1.0
  H  H347  1  0.719100  0.874800  0.066300  1.0
  H  H348  1  0.780900  0.874800  0.433700  1.0
  H  H349  1  0.293900  0.217300  0.016900  1.0
  H  H350  1  0.206100  0.217300  0.483100  1.0
  H  H351  1  0.706100  0.782700  0.983100  1.0
  H  H352  1  0.793900  0.782700  0.516900  1.0
  H  H353  1  0.337900  0.266000  0.975200  1.0
  H  H354  1  0.162100  0.266000  0.524800  1.0
  H  H355  1  0.662100  0.734000  0.024800  1.0
  H  H356  1  0.837900  0.734000  0.475200  1.0
  H  H357  1  0.290600  0.088000  0.993700  1.0
  H  H358  1  0.209400  0.088000  0.506300  1.0
  H  H359  1  0.709400  0.912000  0.006300  1.0
  H  H360  1  0.790600  0.912000  0.493700  1.0
  H  H361  1  0.109700  0.086600  0.080100  1.0
  H  H362  1  0.390300  0.086600  0.419900  1.0
  H  H363  1  0.890300  0.913400  0.919900  1.0
  H  H364  1  0.609700  0.913400  0.580100  1.0
  H  H365  1  0.206300  0.979500  0.065100  1.0
  H  H366  1  0.293700  0.979500  0.434900  1.0
  H  H367  1  0.793700  0.020500  0.934900  1.0
  H  H368  1  0.706300  0.020500  0.565100  1.0
  H  H369  1  0.268300  0.018600  0.028400  1.0
  H  H370  1  0.231700  0.018600  0.471600  1.0
  H  H371  1  0.731700  0.981400  0.971600  1.0
  H  H372  1  0.768300  0.981400  0.528400  1.0
  H  H373  1  0.100800  0.016600  0.540600  1.0
  H  H374  1  0.399200  0.016600  0.959400  1.0
  H  H375  1  0.899200  0.983400  0.459400  1.0
  H  H376  1  0.600800  0.983400  0.040600  1.0
  H  H377  1  0.115700  0.000300  0.498700  1.0
  H  H378  1  0.384300  0.000300  0.001300  1.0
  H  H379  1  0.884300  0.999700  0.501300  1.0
  H  H380  1  0.615700  0.999700  0.998700  1.0
  H  H381  1  0.045500  0.998300  0.509800  1.0
  H  H382  1  0.454500  0.998300  0.990200  1.0
  H  H383  1  0.954500  0.001700  0.490200  1.0
  H  H384  1  0.545500  0.001700  0.009800  1.0
  H  H385  1  0.022700  0.079700  0.539300  1.0
  H  H386  1  0.477300  0.079700  0.960700  1.0
  H  H387  1  0.977300  0.920300  0.460700  1.0
  H  H388  1  0.522700  0.920300  0.039300  1.0
  H  H389  1  0.000200  0.150600  0.519600  1.0
  H  H390  1  0.499800  0.150600  0.980400  1.0
  H  H391  1  0.999800  0.849400  0.480400  1.0
  H  H392  1  0.500200  0.849400  0.019600  1.0
  H  H393  1  0.115100  0.054600  0.447600  1.0
  H  H394  1  0.384900  0.054600  0.052400  1.0
  H  H395  1  0.884900  0.945400  0.552400  1.0
  H  H396  1  0.615100  0.945400  0.947600  1.0
  H  H397  1  0.095900  0.127500  0.425700  1.0
  H  H398  1  0.404100  0.127500  0.074300  1.0
  H  H399  1  0.904100  0.872500  0.574300  1.0
  H  H400  1  0.595900  0.872500  0.925700  1.0
  H  H401  1  0.056600  0.222300  0.502800  1.0
  H  H402  1  0.443400  0.222300  0.997200  1.0
  H  H403  1  0.943400  0.777700  0.497200  1.0
  H  H404  1  0.556600  0.777700  0.002800  1.0
  H  H405  1  0.973800  0.301300  0.376200  1.0
  H  H406  1  0.526200  0.301300  0.123800  1.0
  H  H407  1  0.026200  0.698700  0.623800  1.0
  H  H408  1  0.473800  0.698700  0.876200  1.0
  H  H409  1  0.007900  0.364200  0.478100  1.0
  H  H410  1  0.492100  0.364200  0.021900  1.0
  H  H411  1  0.992100  0.635800  0.521900  1.0
  H  H412  1  0.507900  0.635800  0.978100  1.0
  H  H413  1  0.034300  0.300100  0.509400  1.0
  H  H414  1  0.465700  0.300100  0.990600  1.0
  H  H415  1  0.965700  0.699900  0.490600  1.0
  H  H416  1  0.534300  0.699900  0.009400  1.0
  H  H417  1  0.023000  0.372900  0.359000  1.0
  H  H418  1  0.477000  0.372900  0.141000  1.0
  H  H419  1  0.977000  0.627100  0.641000  1.0
  H  H420  1  0.523000  0.627100  0.859000  1.0
  H  H421  1  0.888200  0.466000  0.410300  1.0
  H  H422  1  0.611800  0.466000  0.089700  1.0
  H  H423  1  0.111800  0.534000  0.589700  1.0
  H  H424  1  0.388200  0.534000  0.910300  1.0
  H  H425  1  0.915200  0.401900  0.442500  1.0
  H  H426  1  0.584800  0.401900  0.057500  1.0
  H  H427  1  0.084800  0.598100  0.557500  1.0
  H  H428  1  0.415200  0.598100  0.942500  1.0
  H  H429  1  0.895900  0.511000  0.350200  1.0
  H  H430  1  0.604100  0.511000  0.149800  1.0
  H  H431  1  0.104100  0.489000  0.649800  1.0
  H  H432  1  0.395900  0.489000  0.850200  1.0
  H  H433  1  0.955300  0.583200  0.342900  1.0
  H  H434  1  0.544700  0.583200  0.157100  1.0
  H  H435  1  0.044700  0.416800  0.657100  1.0
  H  H436  1  0.455300  0.416800  0.842900  1.0
  H  H437  1  0.924300  0.647400  0.311100  1.0
  H  H438  1  0.575700  0.647400  0.188900  1.0
  H  H439  1  0.075700  0.352600  0.688900  1.0
  H  H440  1  0.424300  0.352600  0.811100  1.0
  H  H441  1  0.901700  0.584900  0.207200  1.0
  H  H442  1  0.598300  0.584900  0.292800  1.0
  H  H443  1  0.098300  0.415100  0.792800  1.0
  H  H444  1  0.401700  0.415100  0.707200  1.0
  H  H445  1  0.932700  0.520700  0.239000  1.0
  H  H446  1  0.567300  0.520700  0.261000  1.0
  H  H447  1  0.067300  0.479300  0.761000  1.0
  H  H448  1  0.432700  0.479300  0.739000  1.0
  H  H449  1  0.844200  0.671300  0.236000  1.0
  H  H450  1  0.655800  0.671300  0.264000  1.0
  H  H451  1  0.155800  0.328700  0.764000  1.0
  H  H452  1  0.344200  0.328700  0.736000  1.0
  H  H453  1  0.895800  0.664300  0.206700  1.0
  H  H454  1  0.604200  0.664300  0.293300  1.0
  H  H455  1  0.104200  0.335700  0.793300  1.0
  H  H456  1  0.395800  0.335700  0.706700  1.0
  H  H457  1  0.913400  0.690000  0.246800  1.0
  H  H458  1  0.586600  0.690000  0.253200  1.0
  H  H459  1  0.086600  0.310000  0.753200  1.0
  H  H460  1  0.413400  0.310000  0.746800  1.0
  H  H461  1  0.723200  0.457100  0.161600  1.0
  H  H462  1  0.776800  0.457100  0.338400  1.0
  H  H463  1  0.276800  0.542900  0.838400  1.0
  H  H464  1  0.223200  0.542900  0.661600  1.0
  H  H465  1  0.693200  0.452200  0.201800  1.0
  H  H466  1  0.806800  0.452200  0.298200  1.0
  H  H467  1  0.306800  0.547800  0.798200  1.0
  H  H468  1  0.193200  0.547800  0.701800  1.0
  H  H469  1  0.692800  0.412400  0.172400  1.0
  H  H470  1  0.807200  0.412400  0.327600  1.0
  H  H471  1  0.307200  0.587600  0.827600  1.0
  H  H472  1  0.192800  0.587600  0.672400  1.0
  H  H473  1  0.804600  0.485200  0.197500  1.0
  H  H474  1  0.695400  0.485200  0.302500  1.0
  H  H475  1  0.195400  0.514800  0.802500  1.0
  H  H476  1  0.304600  0.514800  0.697500  1.0
  H  H477  1  0.908200  0.480300  0.227200  1.0
  H  H478  1  0.591800  0.480300  0.272800  1.0
  H  H479  1  0.091800  0.519700  0.772800  1.0
  H  H480  1  0.408200  0.519700  0.727200  1.0
  H  H481  1  0.883600  0.353500  0.246600  1.0
  H  H482  1  0.616400  0.353500  0.253400  1.0
  H  H483  1  0.116400  0.646500  0.753400  1.0
  H  H484  1  0.383600  0.646500  0.746600  1.0
  H  H485  1  0.779900  0.358500  0.216900  1.0
  H  H486  1  0.720100  0.358500  0.283100  1.0
  H  H487  1  0.220100  0.641500  0.783100  1.0
  H  H488  1  0.279900  0.641500  0.716900  1.0
  H  H489  1  0.972800  0.357400  0.239300  1.0
  H  H490  1  0.527200  0.357400  0.260700  1.0
  H  H491  1  0.027200  0.642600  0.760700  1.0
  H  H492  1  0.472800  0.642600  0.739300  1.0
  H  H493  1  0.160500  0.425800  0.332300  1.0
  H  H494  1  0.339500  0.425800  0.167700  1.0
  H  H495  1  0.839500  0.574200  0.667700  1.0
  H  H496  1  0.660500  0.574200  0.832300  1.0
  H  H497  1  0.180700  0.305000  0.287300  1.0
  H  H498  1  0.319300  0.305000  0.212700  1.0
  H  H499  1  0.819300  0.695000  0.712700  1.0
  H  H500  1  0.680700  0.695000  0.787300  1.0
  H  H501  1  0.078600  0.310700  0.254400  1.0
  H  H502  1  0.421400  0.310700  0.245600  1.0
  H  H503  1  0.921400  0.689300  0.745600  1.0
  H  H504  1  0.578600  0.689300  0.754400  1.0
  H  H505  1  0.112000  0.473200  0.518700  1.0
  H  H506  1  0.388000  0.473200  0.981300  1.0
  H  H507  1  0.888000  0.526800  0.481300  1.0
  H  H508  1  0.612000  0.526800  0.018700  1.0
  H  H509  1  0.042900  0.493100  0.515500  1.0
  H  H510  1  0.457100  0.493100  0.984500  1.0
  H  H511  1  0.957100  0.506900  0.484500  1.0
  H  H512  1  0.542900  0.506900  0.015500  1.0
  H  H513  1  0.102700  0.524100  0.519900  1.0
  H  H514  1  0.397300  0.524100  0.980100  1.0
  H  H515  1  0.897300  0.475900  0.480100  1.0
  H  H516  1  0.602700  0.475900  0.019900  1.0
  H  H517  1  0.059400  0.563500  0.453700  1.0
  H  H518  1  0.440600  0.563500  0.046300  1.0
  H  H519  1  0.940600  0.436500  0.546300  1.0
  H  H520  1  0.559400  0.436500  0.953700  1.0
  H  H521  1  0.068500  0.560200  0.388600  1.0
  H  H522  1  0.431500  0.560200  0.111400  1.0
  H  H523  1  0.931500  0.439800  0.611400  1.0
  H  H524  1  0.568500  0.439800  0.888600  1.0
  H  H525  1  0.106000  0.435800  0.392900  1.0
  H  H526  1  0.394000  0.435800  0.107100  1.0
  H  H527  1  0.894000  0.564200  0.607100  1.0
  H  H528  1  0.606000  0.564200  0.892900  1.0
  H  H529  1  0.104000  0.434200  0.461200  1.0
  H  H530  1  0.396000  0.434200  0.038800  1.0
  H  H531  1  0.896000  0.565800  0.538800  1.0
  H  H532  1  0.604000  0.565800  0.961200  1.0
  H  H533  1  0.130600  0.549400  0.338600  1.0
  H  H534  1  0.369400  0.549400  0.161400  1.0
  H  H535  1  0.869400  0.450600  0.661400  1.0
  H  H536  1  0.630600  0.450600  0.838600  1.0
  H  H537  1  0.045400  0.467400  0.210400  1.0
  H  H538  1  0.454600  0.467400  0.289600  1.0
  H  H539  1  0.954600  0.532600  0.789600  1.0
  H  H540  1  0.545400  0.532600  0.710400  1.0
  H  H541  1  0.144600  0.576500  0.207300  1.0
  H  H542  1  0.355400  0.576500  0.292700  1.0
  H  H543  1  0.855400  0.423500  0.792700  1.0
  H  H544  1  0.644600  0.423500  0.707300  1.0
  H  H545  1  0.154200  0.580800  0.273800  1.0
  H  H546  1  0.345800  0.580800  0.226200  1.0
  H  H547  1  0.845800  0.419200  0.726200  1.0
  H  H548  1  0.654200  0.419200  0.773800  1.0
  H  H549  1  0.105700  0.453900  0.157200  1.0
  H  H550  1  0.394300  0.453900  0.342800  1.0
  H  H551  1  0.894300  0.546100  0.842800  1.0
  H  H552  1  0.605700  0.546100  0.657200  1.0
  H  H553  1  0.057200  0.571800  0.078600  1.0
  H  H554  1  0.442800  0.571800  0.421400  1.0
  H  H555  1  0.942800  0.428200  0.921400  1.0
  H  H556  1  0.557200  0.428200  0.578600  1.0
  H  H557  1  0.066700  0.578600  0.148400  1.0
  H  H558  1  0.433300  0.578600  0.351600  1.0
  H  H559  1  0.933300  0.421400  0.851600  1.0
  H  H560  1  0.566700  0.421400  0.648400  1.0
  H  H561  1  0.064200  0.522200  0.019900  1.0
  H  H562  1  0.435800  0.522200  0.480100  1.0
  H  H563  1  0.935800  0.477800  0.980100  1.0
  H  H564  1  0.564200  0.477800  0.519900  1.0
  H  H565  1  0.124900  0.519800  0.973800  1.0
  H  H566  1  0.375100  0.519800  0.526200  1.0
  H  H567  1  0.875100  0.480200  0.026200  1.0
  H  H568  1  0.624900  0.480200  0.473800  1.0
  H  H569  1  0.116400  0.511500  0.903000  1.0
  H  H570  1  0.383600  0.511500  0.597000  1.0
  H  H571  1  0.883600  0.488500  0.097000  1.0
  H  H572  1  0.616400  0.488500  0.403000  1.0
  H  H573  1  0.064200  0.388000  0.913900  1.0
  H  H574  1  0.435800  0.388000  0.586100  1.0
  H  H575  1  0.935800  0.612000  0.086100  1.0
  H  H576  1  0.564200  0.612000  0.413900  1.0
  H  H577  1  0.069500  0.398400  0.983300  1.0
  H  H578  1  0.430500  0.398400  0.516700  1.0
  H  H579  1  0.930500  0.601600  0.016700  1.0
  H  H580  1  0.569500  0.601600  0.483300  1.0
  H  H581  1  0.112700  0.417000  0.852900  1.0
  H  H582  1  0.387300  0.417000  0.647100  1.0
  H  H583  1  0.887300  0.583000  0.147100  1.0
  H  H584  1  0.612700  0.583000  0.352900  1.0
  H  H585  1  0.112400  0.468100  0.848300  1.0
  H  H586  1  0.387600  0.468100  0.651700  1.0
  H  H587  1  0.887600  0.531900  0.151700  1.0
  H  H588  1  0.612400  0.531900  0.348300  1.0
  H  H589  1  0.047500  0.442400  0.846100  1.0
  H  H590  1  0.452500  0.442400  0.653900  1.0
  H  H591  1  0.952500  0.557600  0.153900  1.0
  H  H592  1  0.547500  0.557600  0.346100  1.0
  H  H593  1  0.296000  0.640300  0.134300  1.0
  H  H594  1  0.204000  0.640300  0.365700  1.0
  H  H595  1  0.704000  0.359700  0.865700  1.0
  H  H596  1  0.796000  0.359700  0.634300  1.0
  H  H597  1  0.235300  0.632400  0.156200  1.0
  H  H598  1  0.264700  0.632400  0.343800  1.0
  H  H599  1  0.764700  0.367600  0.843800  1.0
  H  H600  1  0.735300  0.367600  0.656200  1.0
  H  H601  1  0.227900  0.652700  0.113200  1.0
  H  H602  1  0.272100  0.652700  0.386800  1.0
  H  H603  1  0.772100  0.347300  0.886800  1.0
  H  H604  1  0.727900  0.347300  0.613200  1.0
  H  H605  1  0.247700  0.605400  0.059000  1.0
  H  H606  1  0.252300  0.605400  0.441000  1.0
  H  H607  1  0.752300  0.394600  0.941000  1.0
  H  H608  1  0.747700  0.394600  0.559000  1.0
  H  H609  1  0.237300  0.539000  0.030700  1.0
  H  H610  1  0.262700  0.539000  0.469300  1.0
  H  H611  1  0.762700  0.461000  0.969300  1.0
  H  H612  1  0.737300  0.461000  0.530700  1.0
  H  H613  1  0.228500  0.488800  0.140000  1.0
  H  H614  1  0.271500  0.488800  0.360000  1.0
  H  H615  1  0.771500  0.511200  0.860000  1.0
  H  H616  1  0.728500  0.511200  0.640000  1.0
  H  H617  1  0.239400  0.557600  0.163800  1.0
  H  H618  1  0.260600  0.557600  0.336200  1.0
  H  H619  1  0.760600  0.442400  0.836200  1.0
  H  H620  1  0.739400  0.442400  0.663800  1.0
  H  H621  1  0.280400  0.467300  0.030000  1.0
  H  H622  1  0.219600  0.467300  0.470000  1.0
  H  H623  1  0.719600  0.532700  0.970000  1.0
  H  H624  1  0.780400  0.532700  0.530000  1.0
  H  H625  1  0.137300  0.334100  0.029300  1.0
  H  H626  1  0.362700  0.334100  0.470700  1.0
  H  H627  1  0.862700  0.665900  0.970700  1.0
  H  H628  1  0.637300  0.665900  0.529300  1.0
  H  H629  1  0.267500  0.344200  0.956600  1.0
  H  H630  1  0.232500  0.344200  0.543400  1.0
  H  H631  1  0.732500  0.655800  0.043400  1.0
  H  H632  1  0.767500  0.655800  0.456600  1.0
  H  H633  1  0.295300  0.410000  0.982900  1.0
  H  H634  1  0.204700  0.410000  0.517100  1.0
  H  H635  1  0.704700  0.590000  0.017100  1.0
  H  H636  1  0.795300  0.590000  0.482900  1.0
  H  H637  1  0.691000  0.341300  0.538700  1.0
  H  H638  1  0.809000  0.341300  0.961300  1.0
  H  H639  1  0.309000  0.658700  0.461300  1.0
  H  H640  1  0.191000  0.658700  0.038700  1.0
  H  H641  1  0.643700  0.304400  0.548900  1.0
  H  H642  1  0.856300  0.304400  0.951100  1.0
  H  H643  1  0.356300  0.695600  0.451100  1.0
  H  H644  1  0.143700  0.695600  0.048900  1.0
  H  H645  1  0.632800  0.352900  0.561800  1.0
  H  H646  1  0.867200  0.352900  0.938200  1.0
  H  H647  1  0.367200  0.647100  0.438200  1.0
  H  H648  1  0.132800  0.647100  0.061800  1.0
  H  H649  1  0.618700  0.408000  0.493100  1.0
  H  H650  1  0.881300  0.408000  0.006900  1.0
  H  H651  1  0.381300  0.592000  0.506900  1.0
  H  H652  1  0.118700  0.592000  0.993100  1.0
  H  H653  1  0.523100  0.427900  0.457800  1.0
  H  H654  1  0.976900  0.427900  0.042200  1.0
  H  H655  1  0.476900  0.572100  0.542200  1.0
  H  H656  1  0.023100  0.572100  0.957800  1.0
  H  H657  1  0.465900  0.304000  0.456100  1.0
  H  H658  1  0.034100  0.304000  0.043900  1.0
  H  H659  1  0.534100  0.696000  0.543900  1.0
  H  H660  1  0.965900  0.696000  0.956100  1.0
  H  H661  1  0.561500  0.284100  0.491400  1.0
  H  H662  1  0.938500  0.284100  0.008600  1.0
  H  H663  1  0.438500  0.715900  0.508600  1.0
  H  H664  1  0.061500  0.715900  0.991400  1.0
  H  H665  1  0.454500  0.338000  0.381200  1.0
  H  H666  1  0.045500  0.338000  0.118800  1.0
  H  H667  1  0.545500  0.662000  0.618800  1.0
  H  H668  1  0.954500  0.662000  0.881200  1.0
  H  H669  1  0.235600  0.406400  0.373300  1.0
  H  H670  1  0.264400  0.406400  0.126700  1.0
  H  H671  1  0.764400  0.593600  0.626700  1.0
  H  H672  1  0.735600  0.593600  0.873300  1.0
  H  H673  1  0.278700  0.324600  0.291600  1.0
  H  H674  1  0.221300  0.324600  0.208400  1.0
  H  H675  1  0.721300  0.675400  0.708400  1.0
  H  H676  1  0.778700  0.675400  0.791600  1.0
  H  H677  1  0.381200  0.322600  0.322100  1.0
  H  H678  1  0.118800  0.322600  0.177900  1.0
  H  H679  1  0.618800  0.677400  0.677900  1.0
  H  H680  1  0.881200  0.677400  0.822100  1.0
  C  C681  1  0.894900  0.867600  0.333700  1.0
  C  C682  1  0.605100  0.867600  0.166300  1.0
  C  C683  1  0.105100  0.132400  0.666300  1.0
  C  C684  1  0.394900  0.132400  0.833700  1.0
  C  C685  1  0.925000  0.892400  0.299400  1.0
  C  C686  1  0.575000  0.892400  0.200600  1.0
  C  C687  1  0.075000  0.107600  0.700600  1.0
  C  C688  1  0.425000  0.107600  0.799400  1.0
  C  C689  1  0.962300  0.871800  0.274800  1.0
  C  C690  1  0.537700  0.871800  0.225200  1.0
  C  C691  1  0.037700  0.128200  0.725200  1.0
  C  C692  1  0.462300  0.128200  0.774800  1.0
  C  C693  1  0.987100  0.894800  0.245700  1.0
  C  C694  1  0.512900  0.894800  0.254300  1.0
  C  C695  1  0.012900  0.105200  0.754300  1.0
  C  C696  1  0.487100  0.105200  0.745700  1.0
  C  C697  1  0.974700  0.938400  0.241200  1.0
  C  C698  1  0.525300  0.938400  0.258800  1.0
  C  C699  1  0.025300  0.061600  0.758800  1.0
  C  C700  1  0.474700  0.061600  0.741200  1.0
  C  C701  1  0.937400  0.959000  0.265900  1.0
  C  C702  1  0.562600  0.959000  0.234100  1.0
  C  C703  1  0.062600  0.041000  0.734100  1.0
  C  C704  1  0.437400  0.041000  0.765900  1.0
  C  C705  1  0.912600  0.936000  0.294900  1.0
  C  C706  1  0.587400  0.936000  0.205100  1.0
  C  C707  1  0.087400  0.064000  0.705100  1.0
  C  C708  1  0.412600  0.064000  0.794900  1.0
  C  C709  1  0.010800  0.941900  0.182000  1.0
  C  C710  1  0.489200  0.941900  0.318000  1.0
  C  C711  1  0.989200  0.058100  0.818000  1.0
  C  C712  1  0.510800  0.058100  0.682000  1.0
  C  C713  1  0.045200  0.964500  0.155000  1.0
  C  C714  1  0.454800  0.964500  0.345000  1.0
  C  C715  1  0.954800  0.035500  0.845000  1.0
  C  C716  1  0.545200  0.035500  0.655000  1.0
  C  C717  1  0.100900  0.026000  0.139200  1.0
  C  C718  1  0.399100  0.026000  0.360800  1.0
  C  C719  1  0.899100  0.974000  0.860800  1.0
  C  C720  1  0.600900  0.974000  0.639200  1.0
  C  C721  1  0.117000  0.008400  0.103900  1.0
  C  C722  1  0.383000  0.008400  0.396100  1.0
  C  C723  1  0.883000  0.991600  0.896100  1.0
  C  C724  1  0.617000  0.991600  0.603900  1.0
  C  C725  1  0.094000  0.967700  0.093400  1.0
  C  C726  1  0.406000  0.967700  0.406600  1.0
  C  C727  1  0.906000  0.032300  0.906600  1.0
  C  C728  1  0.594000  0.032300  0.593400  1.0
  C  C729  1  0.059900  0.945100  0.118900  1.0
  C  C730  1  0.440100  0.945100  0.381100  1.0
  C  C731  1  0.940100  0.054900  0.881100  1.0
  C  C732  1  0.559900  0.054900  0.618900  1.0
  C  C733  1  0.720000  0.071600  0.178100  1.0
  C  C734  1  0.780000  0.071600  0.321900  1.0
  C  C735  1  0.280000  0.928400  0.821900  1.0
  C  C736  1  0.220000  0.928400  0.678100  1.0
  C  C737  1  0.933200  0.070200  0.205200  1.0
  C  C738  1  0.566800  0.070200  0.294800  1.0
  C  C739  1  0.066800  0.929800  0.794800  1.0
  C  C740  1  0.433200  0.929800  0.705200  1.0
  C  C741  1  0.902800  0.034500  0.187700  1.0
  C  C742  1  0.597200  0.034500  0.312300  1.0
  C  C743  1  0.097200  0.965500  0.812300  1.0
  C  C744  1  0.402800  0.965500  0.687700  1.0
  C  C745  1  0.837800  0.034200  0.179700  1.0
  C  C746  1  0.662200  0.034200  0.320300  1.0
  C  C747  1  0.162200  0.965800  0.820300  1.0
  C  C748  1  0.337800  0.965800  0.679700  1.0
  C  C749  1  0.803200  0.069600  0.189100  1.0
  C  C750  1  0.696800  0.069600  0.310900  1.0
  C  C751  1  0.196800  0.930400  0.810900  1.0
  C  C752  1  0.303200  0.930400  0.689100  1.0
  C  C753  1  0.833600  0.105300  0.206600  1.0
  C  C754  1  0.666400  0.105300  0.293400  1.0
  C  C755  1  0.166400  0.894700  0.793400  1.0
  C  C756  1  0.333600  0.894700  0.706600  1.0
  C  C757  1  0.898600  0.105600  0.214700  1.0
  C  C758  1  0.601400  0.105600  0.285300  1.0
  C  C759  1  0.101400  0.894400  0.785300  1.0
  C  C760  1  0.398600  0.894400  0.714700  1.0
  C  C761  1  0.020200  0.103500  0.207100  1.0
  C  C762  1  0.479800  0.103500  0.292900  1.0
  C  C763  1  0.979800  0.896500  0.792900  1.0
  C  C764  1  0.520200  0.896500  0.707100  1.0
  C  C765  1  0.088200  0.109700  0.217600  1.0
  C  C766  1  0.411800  0.109700  0.282400  1.0
  C  C767  1  0.911800  0.890300  0.782400  1.0
  C  C768  1  0.588200  0.890300  0.717600  1.0
  C  C769  1  0.181700  0.072700  0.241900  1.0
  C  C770  1  0.318300  0.072700  0.258100  1.0
  C  C771  1  0.818300  0.927300  0.758100  1.0
  C  C772  1  0.681700  0.927300  0.741900  1.0
  C  C773  1  0.215400  0.108700  0.243000  1.0
  C  C774  1  0.284600  0.108700  0.257000  1.0
  C  C775  1  0.784600  0.891300  0.757000  1.0
  C  C776  1  0.715400  0.891300  0.743000  1.0
  C  C777  1  0.185500  0.148800  0.230300  1.0
  C  C778  1  0.314500  0.148800  0.269700  1.0
  C  C779  1  0.814500  0.851200  0.769700  1.0
  C  C780  1  0.685500  0.851200  0.730300  1.0
  C  C781  1  0.121400  0.145500  0.216700  1.0
  C  C782  1  0.378600  0.145500  0.283300  1.0
  C  C783  1  0.878600  0.854500  0.783300  1.0
  C  C784  1  0.621400  0.854500  0.716700  1.0
  C  C785  1  0.264200  0.875200  0.137500  1.0
  C  C786  1  0.235800  0.875200  0.362500  1.0
  C  C787  1  0.735800  0.124800  0.862500  1.0
  C  C788  1  0.764200  0.124800  0.637500  1.0
  C  C789  1  0.228400  0.900500  0.166300  1.0
  C  C790  1  0.271600  0.900500  0.333700  1.0
  C  C791  1  0.771600  0.099500  0.833700  1.0
  C  C792  1  0.728400  0.099500  0.666300  1.0
  C  C793  1  0.197700  0.877900  0.190700  1.0
  C  C794  1  0.302300  0.877900  0.309300  1.0
  C  C795  1  0.802300  0.122100  0.809300  1.0
  C  C796  1  0.697700  0.122100  0.690700  1.0
  C  C797  1  0.164600  0.901800  0.217600  1.0
  C  C798  1  0.335400  0.901800  0.282400  1.0
  C  C799  1  0.835400  0.098200  0.782400  1.0
  C  C800  1  0.664600  0.098200  0.717600  1.0
  C  C801  1  0.165200  0.945100  0.217200  1.0
  C  C802  1  0.334800  0.945100  0.282800  1.0
  C  C803  1  0.834800  0.054900  0.782800  1.0
  C  C804  1  0.665200  0.054900  0.717200  1.0
  C  C805  1  0.202700  0.967200  0.193400  1.0
  C  C806  1  0.297300  0.967200  0.306600  1.0
  C  C807  1  0.797300  0.032800  0.806600  1.0
  C  C808  1  0.702700  0.032800  0.693400  1.0
  C  C809  1  0.234300  0.945800  0.166900  1.0
  C  C810  1  0.265700  0.945800  0.333100  1.0
  C  C811  1  0.765700  0.054200  0.833100  1.0
  C  C812  1  0.734300  0.054200  0.666900  1.0
  C  C813  1  0.127500  0.957600  0.278400  1.0
  C  C814  1  0.372500  0.957600  0.221600  1.0
  C  C815  1  0.872500  0.042400  0.721600  1.0
  C  C816  1  0.627500  0.042400  0.778400  1.0
  C  C817  1  0.090700  0.980800  0.302700  1.0
  C  C818  1  0.409300  0.980800  0.197300  1.0
  C  C819  1  0.909300  0.019200  0.697300  1.0
  C  C820  1  0.590700  0.019200  0.802700  1.0
  C  C821  1  0.024100  0.042200  0.307100  1.0
  C  C822  1  0.475900  0.042200  0.192900  1.0
  C  C823  1  0.975900  0.957800  0.692900  1.0
  C  C824  1  0.524100  0.957800  0.807100  1.0
  C  C825  1  0.020800  0.033200  0.346300  1.0
  C  C826  1  0.479200  0.033200  0.153700  1.0
  C  C827  1  0.979200  0.966800  0.653700  1.0
  C  C828  1  0.520800  0.966800  0.846300  1.0
  C  C829  1  0.052400  0.998000  0.363800  1.0
  C  C830  1  0.447600  0.998000  0.136200  1.0
  C  C831  1  0.947600  0.002000  0.636200  1.0
  C  C832  1  0.552400  0.002000  0.863800  1.0
  C  C833  1  0.087400  0.971800  0.342000  1.0
  C  C834  1  0.412600  0.971800  0.158000  1.0
  C  C835  1  0.912600  0.028200  0.658000  1.0
  C  C836  1  0.587400  0.028200  0.842000  1.0
  C  C837  1  0.985900  0.061800  0.369100  1.0
  C  C838  1  0.514100  0.061800  0.130900  1.0
  C  C839  1  0.014100  0.938200  0.630900  1.0
  C  C840  1  0.485900  0.938200  0.869100  1.0
  C  C841  1  0.993900  0.105800  0.365100  1.0
  C  C842  1  0.506100  0.105800  0.134900  1.0
  C  C843  1  0.006100  0.894200  0.634900  1.0
  C  C844  1  0.493900  0.894200  0.865100  1.0
  C  C845  1  0.922800  0.118500  0.412900  1.0
  C  C846  1  0.577200  0.118500  0.087100  1.0
  C  C847  1  0.077200  0.881500  0.587100  1.0
  C  C848  1  0.422800  0.881500  0.912900  1.0
  C  C849  1  0.914900  0.074500  0.416900  1.0
  C  C850  1  0.585100  0.074500  0.083100  1.0
  C  C851  1  0.085100  0.925500  0.583100  1.0
  C  C852  1  0.414900  0.925500  0.916900  1.0
  C  C853  1  0.946400  0.046200  0.395000  1.0
  C  C854  1  0.553600  0.046200  0.105000  1.0
  C  C855  1  0.053600  0.953800  0.605000  1.0
  C  C856  1  0.446400  0.953800  0.895000  1.0
  C  C857  1  0.894800  0.149500  0.435100  1.0
  C  C858  1  0.605200  0.149500  0.064900  1.0
  C  C859  1  0.105200  0.850500  0.564900  1.0
  C  C860  1  0.394800  0.850500  0.935100  1.0
  C  C861  1  0.876300  0.219300  0.453900  1.0
  C  C862  1  0.623700  0.219300  0.046100  1.0
  C  C863  1  0.123700  0.780700  0.546100  1.0
  C  C864  1  0.376300  0.780700  0.953900  1.0
  C  C865  1  0.864500  0.260100  0.438600  1.0
  C  C866  1  0.635500  0.260100  0.061400  1.0
  C  C867  1  0.135500  0.739900  0.561400  1.0
  C  C868  1  0.364500  0.739900  0.938600  1.0
  C  C869  1  0.853400  0.293900  0.463100  1.0
  C  C870  1  0.646600  0.293900  0.036900  1.0
  C  C871  1  0.146600  0.706100  0.536900  1.0
  C  C872  1  0.353400  0.706100  0.963100  1.0
  C  C873  1  0.854000  0.286900  0.503000  1.0
  C  C874  1  0.646000  0.286900  0.997000  1.0
  C  C875  1  0.146000  0.713100  0.497000  1.0
  C  C876  1  0.354000  0.713100  0.003000  1.0
  C  C877  1  0.865800  0.246000  0.518400  1.0
  C  C878  1  0.634200  0.246000  0.981600  1.0
  C  C879  1  0.134200  0.754000  0.481600  1.0
  C  C880  1  0.365800  0.754000  0.018400  1.0
  C  C881  1  0.876900  0.212200  0.493800  1.0
  C  C882  1  0.623100  0.212200  0.006200  1.0
  C  C883  1  0.123100  0.787800  0.506200  1.0
  C  C884  1  0.376900  0.787800  0.993800  1.0
  C  C885  1  0.839600  0.331300  0.531100  1.0
  C  C886  1  0.660400  0.331300  0.968900  1.0
  C  C887  1  0.160400  0.668700  0.468900  1.0
  C  C888  1  0.339600  0.668700  0.031100  1.0
  C  C889  1  0.824000  0.223700  0.225900  1.0
  C  C890  1  0.676000  0.223700  0.274100  1.0
  C  C891  1  0.176000  0.776300  0.774100  1.0
  C  C892  1  0.324000  0.776300  0.725900  1.0
  C  C893  1  0.753800  0.225300  0.208000  1.0
  C  C894  1  0.746200  0.225300  0.292000  1.0
  C  C895  1  0.246200  0.774700  0.792000  1.0
  C  C896  1  0.253800  0.774700  0.708000  1.0
  C  C897  1  0.708700  0.249600  0.223700  1.0
  C  C898  1  0.791300  0.249600  0.276300  1.0
  C  C899  1  0.291300  0.750400  0.776300  1.0
  C  C900  1  0.208700  0.750400  0.723700  1.0
  C  C901  1  0.646900  0.249300  0.206100  1.0
  C  C902  1  0.853100  0.249300  0.293900  1.0
  C  C903  1  0.353100  0.750700  0.793900  1.0
  C  C904  1  0.146900  0.750700  0.706100  1.0
  C  C905  1  0.630400  0.224700  0.172800  1.0
  C  C906  1  0.869600  0.224700  0.327200  1.0
  C  C907  1  0.369600  0.775300  0.827200  1.0
  C  C908  1  0.130400  0.775300  0.672800  1.0
  C  C909  1  0.675500  0.200400  0.157000  1.0
  C  C910  1  0.824500  0.200400  0.343000  1.0
  C  C911  1  0.324500  0.799600  0.843000  1.0
  C  C912  1  0.175500  0.799600  0.657000  1.0
  C  C913  1  0.737300  0.200700  0.174700  1.0
  C  C914  1  0.762700  0.200700  0.325300  1.0
  C  C915  1  0.262700  0.799300  0.825300  1.0
  C  C916  1  0.237300  0.799300  0.674700  1.0
  C  C917  1  0.524500  0.218400  0.186800  1.0
  C  C918  1  0.975500  0.218400  0.313200  1.0
  C  C919  1  0.475500  0.781600  0.813200  1.0
  C  C920  1  0.024500  0.781600  0.686800  1.0
  C  C921  1  0.457000  0.213000  0.173300  1.0
  C  C922  1  0.043000  0.213000  0.326700  1.0
  C  C923  1  0.543000  0.787000  0.826700  1.0
  C  C924  1  0.957000  0.787000  0.673300  1.0
  C  C925  1  0.381700  0.204000  0.122300  1.0
  C  C926  1  0.118300  0.204000  0.377700  1.0
  C  C927  1  0.618300  0.796000  0.877700  1.0
  C  C928  1  0.881700  0.796000  0.622300  1.0
  C  C929  1  0.332800  0.206800  0.144400  1.0
  C  C930  1  0.167200  0.206800  0.355600  1.0
  C  C931  1  0.667200  0.793200  0.855600  1.0
  C  C932  1  0.832800  0.793200  0.644400  1.0
  C  C933  1  0.349700  0.213400  0.183800  1.0
  C  C934  1  0.150300  0.213400  0.316200  1.0
  C  C935  1  0.650300  0.786600  0.816200  1.0
  C  C936  1  0.849700  0.786600  0.683800  1.0
  C  C937  1  0.415100  0.216200  0.199300  1.0
  C  C938  1  0.084900  0.216200  0.300700  1.0
  C  C939  1  0.584900  0.783800  0.800700  1.0
  C  C940  1  0.915100  0.783800  0.699300  1.0
  C  C941  1  0.265200  0.206500  0.128500  1.0
  C  C942  1  0.234800  0.206500  0.371500  1.0
  C  C943  1  0.734800  0.793500  0.871500  1.0
  C  C944  1  0.765200  0.793500  0.628500  1.0
  C  C945  1  0.247100  0.188200  0.090700  1.0
  C  C946  1  0.252900  0.188200  0.409300  1.0
  C  C947  1  0.752900  0.811800  0.909300  1.0
  C  C948  1  0.747100  0.811800  0.590700  1.0
  C  C949  1  0.144100  0.202100  0.093800  1.0
  C  C950  1  0.355900  0.202100  0.406200  1.0
  C  C951  1  0.855900  0.797900  0.906200  1.0
  C  C952  1  0.644100  0.797900  0.593800  1.0
  C  C953  1  0.153300  0.221500  0.128900  1.0
  C  C954  1  0.346700  0.221500  0.371100  1.0
  C  C955  1  0.846700  0.778500  0.871100  1.0
  C  C956  1  0.653300  0.778500  0.628900  1.0
  C  C957  1  0.218100  0.224700  0.146200  1.0
  C  C958  1  0.281900  0.224700  0.353800  1.0
  C  C959  1  0.781900  0.775300  0.853800  1.0
  C  C960  1  0.718100  0.775300  0.646200  1.0
  C  C961  1  0.081600  0.196200  0.075700  1.0
  C  C962  1  0.418400  0.196200  0.424300  1.0
  C  C963  1  0.918400  0.803800  0.924300  1.0
  C  C964  1  0.581600  0.803800  0.575700  1.0
  C  C965  1  0.009300  0.171200  0.025500  1.0
  C  C966  1  0.490700  0.171200  0.474500  1.0
  C  C967  1  0.990700  0.828800  0.974500  1.0
  C  C968  1  0.509300  0.828800  0.525500  1.0
  C  C969  1  0.994000  0.186400  0.987600  1.0
  C  C970  1  0.506000  0.186400  0.512400  1.0
  C  C971  1  0.006000  0.813600  0.012400  1.0
  C  C972  1  0.494000  0.813600  0.487600  1.0
  C  C973  1  0.935200  0.178000  0.967600  1.0
  C  C974  1  0.564800  0.178000  0.532400  1.0
  C  C975  1  0.064800  0.822000  0.032400  1.0
  C  C976  1  0.435200  0.822000  0.467600  1.0
  C  C977  1  0.891600  0.154400  0.985400  1.0
  C  C978  1  0.608400  0.154400  0.514600  1.0
  C  C979  1  0.108400  0.845600  0.014600  1.0
  C  C980  1  0.391600  0.845600  0.485400  1.0
  C  C981  1  0.906900  0.139200  0.023300  1.0
  C  C982  1  0.593100  0.139200  0.476700  1.0
  C  C983  1  0.093100  0.860800  0.976700  1.0
  C  C984  1  0.406900  0.860800  0.523300  1.0
  C  C985  1  0.966000  0.147600  0.043300  1.0
  C  C986  1  0.534000  0.147600  0.456700  1.0
  C  C987  1  0.034000  0.852400  0.956700  1.0
  C  C988  1  0.466000  0.852400  0.543300  1.0
  C  C989  1  0.824700  0.144800  0.962600  1.0
  C  C990  1  0.675300  0.144800  0.537400  1.0
  C  C991  1  0.175300  0.855200  0.037400  1.0
  C  C992  1  0.324700  0.855200  0.462600  1.0
  C  C993  1  0.057300  0.961100  0.918800  1.0
  C  C994  1  0.442700  0.961100  0.581200  1.0
  C  C995  1  0.942700  0.038900  0.081200  1.0
  C  C996  1  0.557300  0.038900  0.418800  1.0
  C  C997  1  0.076500  0.009900  0.932500  1.0
  C  C998  1  0.423500  0.009900  0.567500  1.0
  C  C999  1  0.923500  0.990100  0.067500  1.0
  C  C1000  1  0.576500  0.990100  0.432500  1.0
  C  C1001  1  0.051200  0.027000  0.960600  1.0
  C  C1002  1  0.448800  0.027000  0.539400  1.0
  C  C1003  1  0.948800  0.973000  0.039400  1.0
  C  C1004  1  0.551200  0.973000  0.460600  1.0
  C  C1005  1  0.062300  0.067300  0.972300  1.0
  C  C1006  1  0.437700  0.067300  0.527700  1.0
  C  C1007  1  0.937700  0.932700  0.027700  1.0
  C  C1008  1  0.562300  0.932700  0.472300  1.0
  C  C1009  1  0.104500  0.093200  0.950600  1.0
  C  C1010  1  0.395500  0.093200  0.549400  1.0
  C  C1011  1  0.895500  0.906800  0.049400  1.0
  C  C1012  1  0.604500  0.906800  0.450600  1.0
  C  C1013  1  0.132300  0.074600  0.921400  1.0
  C  C1014  1  0.367700  0.074600  0.578600  1.0
  C  C1015  1  0.867700  0.925400  0.078600  1.0
  C  C1016  1  0.632300  0.925400  0.421400  1.0
  C  C1017  1  0.114400  0.029900  0.910100  1.0
  C  C1018  1  0.385600  0.029900  0.589900  1.0
  C  C1019  1  0.885600  0.970100  0.089900  1.0
  C  C1020  1  0.614400  0.970100  0.410100  1.0
  C  C1021  1  0.127300  0.163200  0.937600  1.0
  C  C1022  1  0.372700  0.163200  0.562400  1.0
  C  C1023  1  0.872700  0.836800  0.062400  1.0
  C  C1024  1  0.627300  0.836800  0.437600  1.0
  C  C1025  1  0.144000  0.208100  0.947100  1.0
  C  C1026  1  0.356000  0.208100  0.552900  1.0
  C  C1027  1  0.856000  0.791900  0.052900  1.0
  C  C1028  1  0.644000  0.791900  0.447100  1.0
  C  C1029  1  0.169600  0.254000  0.999500  1.0
  C  C1030  1  0.330400  0.254000  0.500500  1.0
  C  C1031  1  0.830400  0.746000  0.000500  1.0
  C  C1032  1  0.669600  0.746000  0.499500  1.0
  C  C1033  1  0.176900  0.287600  0.974900  1.0
  C  C1034  1  0.323100  0.287600  0.525100  1.0
  C  C1035  1  0.823100  0.712400  0.025100  1.0
  C  C1036  1  0.676900  0.712400  0.474900  1.0
  C  C1037  1  0.167500  0.279000  0.931900  1.0
  C  C1038  1  0.332500  0.279000  0.568100  1.0
  C  C1039  1  0.832500  0.721000  0.068100  1.0
  C  C1040  1  0.667500  0.721000  0.431900  1.0
  C  C1041  1  0.150300  0.239300  0.919000  1.0
  C  C1042  1  0.349700  0.239300  0.581000  1.0
  C  C1043  1  0.849700  0.760700  0.081000  1.0
  C  C1044  1  0.650300  0.760700  0.419000  1.0
  C  C1045  1  0.370400  0.252100  0.901800  1.0
  C  C1046  1  0.129600  0.252100  0.598200  1.0
  C  C1047  1  0.629600  0.747900  0.098200  1.0
  C  C1048  1  0.870400  0.747900  0.401800  1.0
  C  C1049  1  0.334600  0.222600  0.930300  1.0
  C  C1050  1  0.165400  0.222600  0.569700  1.0
  C  C1051  1  0.665400  0.777400  0.069700  1.0
  C  C1052  1  0.834600  0.777400  0.430300  1.0
  C  C1053  1  0.315800  0.182500  0.914200  1.0
  C  C1054  1  0.184200  0.182500  0.585800  1.0
  C  C1055  1  0.684200  0.817500  0.085800  1.0
  C  C1056  1  0.815800  0.817500  0.414200  1.0
  C  C1057  1  0.290400  0.154100  0.941000  1.0
  C  C1058  1  0.209600  0.154100  0.559000  1.0
  C  C1059  1  0.709600  0.845900  0.059000  1.0
  C  C1060  1  0.790400  0.845900  0.441000  1.0
  C  C1061  1  0.280000  0.168500  0.977000  1.0
  C  C1062  1  0.220000  0.168500  0.523000  1.0
  C  C1063  1  0.720000  0.831500  0.023000  1.0
  C  C1064  1  0.780000  0.831500  0.477000  1.0
  C  C1065  1  0.299300  0.209200  0.990900  1.0
  C  C1066  1  0.200700  0.209200  0.509100  1.0
  C  C1067  1  0.700700  0.790800  0.009100  1.0
  C  C1068  1  0.799300  0.790800  0.490900  1.0
  C  C1069  1  0.326100  0.237700  0.966900  1.0
  C  C1070  1  0.173900  0.237700  0.533100  1.0
  C  C1071  1  0.673900  0.762300  0.033100  1.0
  C  C1072  1  0.826100  0.762300  0.466900  1.0
  C  C1073  1  0.258900  0.101000  0.006700  1.0
  C  C1074  1  0.241100  0.101000  0.493300  1.0
  C  C1075  1  0.741100  0.899000  0.993300  1.0
  C  C1076  1  0.758900  0.899000  0.506700  1.0
  C  C1077  1  0.223900  0.074200  0.030900  1.0
  C  C1078  1  0.276100  0.074200  0.469100  1.0
  C  C1079  1  0.776100  0.925800  0.969100  1.0
  C  C1080  1  0.723900  0.925800  0.530900  1.0
  C  C1081  1  0.142600  0.072400  0.069000  1.0
  C  C1082  1  0.357400  0.072400  0.431000  1.0
  C  C1083  1  0.857400  0.927600  0.931000  1.0
  C  C1084  1  0.642600  0.927600  0.569000  1.0
  C  C1085  1  0.154200  0.031100  0.079200  1.0
  C  C1086  1  0.345800  0.031100  0.420800  1.0
  C  C1087  1  0.845800  0.968900  0.920800  1.0
  C  C1088  1  0.654200  0.968900  0.579200  1.0
  C  C1089  1  0.199900  0.009400  0.061400  1.0
  C  C1090  1  0.300100  0.009400  0.438600  1.0
  C  C1091  1  0.800100  0.990600  0.938600  1.0
  C  C1092  1  0.699900  0.990600  0.561400  1.0
  C  C1093  1  0.234700  0.032400  0.039000  1.0
  C  C1094  1  0.265300  0.032400  0.461000  1.0
  C  C1095  1  0.765300  0.967600  0.961000  1.0
  C  C1096  1  0.734700  0.967600  0.539000  1.0
  C  C1097  1  0.084700  0.014700  0.512800  1.0
  C  C1098  1  0.415300  0.014700  0.987200  1.0
  C  C1099  1  0.915300  0.985300  0.487200  1.0
  C  C1100  1  0.584700  0.985300  0.012800  1.0
  C  C1101  1  0.071300  0.064300  0.494600  1.0
  C  C1102  1  0.428700  0.064300  0.005400  1.0
  C  C1103  1  0.928700  0.935700  0.505400  1.0
  C  C1104  1  0.571300  0.935700  0.994600  1.0
  C  C1105  1  0.037600  0.090600  0.516400  1.0
  C  C1106  1  0.462400  0.090600  0.983600  1.0
  C  C1107  1  0.962400  0.909400  0.483600  1.0
  C  C1108  1  0.537600  0.909400  0.016400  1.0
  C  C1109  1  0.025100  0.132600  0.505400  1.0
  C  C1110  1  0.474900  0.132600  0.994600  1.0
  C  C1111  1  0.974900  0.867400  0.494600  1.0
  C  C1112  1  0.525100  0.867400  0.005400  1.0
  C  C1113  1  0.051400  0.147800  0.471400  1.0
  C  C1114  1  0.448600  0.147800  0.028600  1.0
  C  C1115  1  0.948600  0.852200  0.528600  1.0
  C  C1116  1  0.551400  0.852200  0.971400  1.0
  C  C1117  1  0.093400  0.074500  0.462000  1.0
  C  C1118  1  0.406600  0.074500  0.038000  1.0
  C  C1119  1  0.906600  0.925500  0.538000  1.0
  C  C1120  1  0.593400  0.925500  0.962000  1.0
  C  C1121  1  0.082100  0.118300  0.449500  1.0
  C  C1122  1  0.417900  0.118300  0.050500  1.0
  C  C1123  1  0.917900  0.881700  0.550500  1.0
  C  C1124  1  0.582100  0.881700  0.949500  1.0
  C  C1125  1  0.040200  0.223400  0.475900  1.0
  C  C1126  1  0.459800  0.223400  0.024100  1.0
  C  C1127  1  0.959800  0.776600  0.524100  1.0
  C  C1128  1  0.540200  0.776600  0.975900  1.0
  C  C1129  1  0.021800  0.263600  0.460200  1.0
  C  C1130  1  0.478200  0.263600  0.039800  1.0
  C  C1131  1  0.978200  0.736400  0.539800  1.0
  C  C1132  1  0.521800  0.736400  0.960200  1.0
  C  C1133  1  0.987500  0.300700  0.403400  1.0
  C  C1134  1  0.512500  0.300700  0.096600  1.0
  C  C1135  1  0.012500  0.699300  0.596600  1.0
  C  C1136  1  0.487500  0.699300  0.903400  1.0
  C  C1137  1  0.990800  0.340800  0.424200  1.0
  C  C1138  1  0.509200  0.340800  0.075800  1.0
  C  C1139  1  0.009200  0.659200  0.575800  1.0
  C  C1140  1  0.490800  0.659200  0.924200  1.0
  C  C1141  1  0.007200  0.338600  0.463100  1.0
  C  C1142  1  0.492800  0.338600  0.036900  1.0
  C  C1143  1  0.992800  0.661400  0.536900  1.0
  C  C1144  1  0.507200  0.661400  0.963100  1.0
  C  C1145  1  0.022900  0.300700  0.481900  1.0
  C  C1146  1  0.477100  0.300700  0.018100  1.0
  C  C1147  1  0.977100  0.699300  0.518100  1.0
  C  C1148  1  0.522900  0.699300  0.981900  1.0
  C  C1149  1  0.971700  0.379000  0.401800  1.0
  C  C1150  1  0.528300  0.379000  0.098200  1.0
  C  C1151  1  0.028300  0.621000  0.598200  1.0
  C  C1152  1  0.471700  0.621000  0.901800  1.0
  C  C1153  1  0.994100  0.391800  0.368900  1.0
  C  C1154  1  0.505900  0.391800  0.131100  1.0
  C  C1155  1  0.005900  0.608200  0.631100  1.0
  C  C1156  1  0.494100  0.608200  0.868900  1.0
  C  C1157  1  0.938500  0.455200  0.363400  1.0
  C  C1158  1  0.561500  0.455200  0.136600  1.0
  C  C1159  1  0.061500  0.544800  0.636600  1.0
  C  C1160  1  0.438500  0.544800  0.863400  1.0
  C  C1161  1  0.914800  0.446100  0.399500  1.0
  C  C1162  1  0.585200  0.446100  0.100500  1.0
  C  C1163  1  0.085200  0.553900  0.600500  1.0
  C  C1164  1  0.414800  0.553900  0.899500  1.0
  C  C1165  1  0.930900  0.408500  0.418500  1.0
  C  C1166  1  0.569100  0.408500  0.081500  1.0
  C  C1167  1  0.069100  0.591500  0.581500  1.0
  C  C1168  1  0.430900  0.591500  0.918500  1.0
  C  C1169  1  0.926300  0.491900  0.342000  1.0
  C  C1170  1  0.573700  0.491900  0.158000  1.0
  C  C1171  1  0.073700  0.508100  0.658000  1.0
  C  C1172  1  0.426300  0.508100  0.842000  1.0
  C  C1173  1  0.946900  0.545900  0.293900  1.0
  C  C1174  1  0.553100  0.545900  0.206100  1.0
  C  C1175  1  0.053100  0.454100  0.706100  1.0
  C  C1176  1  0.446900  0.454100  0.793900  1.0
  C  C1177  1  0.944400  0.583500  0.315400  1.0
  C  C1178  1  0.555600  0.583500  0.184600  1.0
  C  C1179  1  0.055600  0.416500  0.684600  1.0
  C  C1180  1  0.444400  0.416500  0.815400  1.0
  C  C1181  1  0.926000  0.621600  0.296500  1.0
  C  C1182  1  0.574000  0.621600  0.203500  1.0
  C  C1183  1  0.074000  0.378400  0.703500  1.0
  C  C1184  1  0.426000  0.378400  0.796500  1.0
  C  C1185  1  0.910100  0.622100  0.256100  1.0
  C  C1186  1  0.589900  0.622100  0.243900  1.0
  C  C1187  1  0.089900  0.377900  0.743900  1.0
  C  C1188  1  0.410100  0.377900  0.756100  1.0
  C  C1189  1  0.912600  0.584500  0.234700  1.0
  C  C1190  1  0.587400  0.584500  0.265300  1.0
  C  C1191  1  0.087400  0.415500  0.765300  1.0
  C  C1192  1  0.412600  0.415500  0.734700  1.0
  C  C1193  1  0.931000  0.546400  0.253600  1.0
  C  C1194  1  0.569000  0.546400  0.246400  1.0
  C  C1195  1  0.069000  0.453600  0.746400  1.0
  C  C1196  1  0.431000  0.453600  0.753600  1.0
  C  C1197  1  0.888800  0.666200  0.234300  1.0
  C  C1198  1  0.611200  0.666200  0.265700  1.0
  C  C1199  1  0.111200  0.333800  0.765700  1.0
  C  C1200  1  0.388800  0.333800  0.734300  1.0
  C  C1201  1  0.717000  0.437500  0.183000  1.0
  C  C1202  1  0.783000  0.437500  0.317000  1.0
  C  C1203  1  0.283000  0.562500  0.817000  1.0
  C  C1204  1  0.217000  0.562500  0.683000  1.0
  C  C1205  1  0.782500  0.422300  0.204400  1.0
  C  C1206  1  0.717500  0.422300  0.295600  1.0
  C  C1207  1  0.217500  0.577700  0.795600  1.0
  C  C1208  1  0.282500  0.577700  0.704400  1.0
  C  C1209  1  0.820600  0.458500  0.207500  1.0
  C  C1210  1  0.679400  0.458500  0.292500  1.0
  C  C1211  1  0.179400  0.541500  0.792500  1.0
  C  C1212  1  0.320600  0.541500  0.707500  1.0
  C  C1213  1  0.882200  0.455600  0.225100  1.0
  C  C1214  1  0.617800  0.455600  0.274900  1.0
  C  C1215  1  0.117800  0.544400  0.774900  1.0
  C  C1216  1  0.382200  0.544400  0.725100  1.0
  C  C1217  1  0.905600  0.416400  0.239700  1.0
  C  C1218  1  0.594400  0.416400  0.260300  1.0
  C  C1219  1  0.094400  0.583600  0.760300  1.0
  C  C1220  1  0.405600  0.583600  0.739700  1.0
  C  C1221  1  0.867500  0.380300  0.236600  1.0
  C  C1222  1  0.632500  0.380300  0.263400  1.0
  C  C1223  1  0.132500  0.619700  0.763400  1.0
  C  C1224  1  0.367500  0.619700  0.736600  1.0
  C  C1225  1  0.806000  0.383200  0.219000  1.0
  C  C1226  1  0.694000  0.383200  0.281000  1.0
  C  C1227  1  0.194000  0.616800  0.781000  1.0
  C  C1228  1  0.306000  0.616800  0.719000  1.0
  C  C1229  1  0.993900  0.379100  0.255200  1.0
  C  C1230  1  0.506100  0.379100  0.244800  1.0
  C  C1231  1  0.006100  0.620900  0.744800  1.0
  C  C1232  1  0.493900  0.620900  0.755200  1.0
  C  C1233  1  0.060800  0.373500  0.276300  1.0
  C  C1234  1  0.439200  0.373500  0.223700  1.0
  C  C1235  1  0.939200  0.626500  0.723700  1.0
  C  C1236  1  0.560800  0.626500  0.776300  1.0
  C  C1237  1  0.144400  0.403100  0.315700  1.0
  C  C1238  1  0.355600  0.403100  0.184300  1.0
  C  C1239  1  0.855600  0.596900  0.684300  1.0
  C  C1240  1  0.644400  0.596900  0.815700  1.0
  C  C1241  1  0.184000  0.367100  0.309900  1.0
  C  C1242  1  0.316000  0.367100  0.190100  1.0
  C  C1243  1  0.816000  0.632900  0.690100  1.0
  C  C1244  1  0.684000  0.632900  0.809900  1.0
  C  C1245  1  0.157200  0.330600  0.288700  1.0
  C  C1246  1  0.342800  0.330600  0.211300  1.0
  C  C1247  1  0.842800  0.669400  0.711300  1.0
  C  C1248  1  0.657200  0.669400  0.788700  1.0
  C  C1249  1  0.096800  0.333400  0.270300  1.0
  C  C1250  1  0.403200  0.333400  0.229700  1.0
  C  C1251  1  0.903200  0.666600  0.729700  1.0
  C  C1252  1  0.596800  0.666600  0.770300  1.0
  C  C1253  1  0.085400  0.497100  0.508500  1.0
  C  C1254  1  0.414600  0.497100  0.991500  1.0
  C  C1255  1  0.914600  0.502900  0.491500  1.0
  C  C1256  1  0.585400  0.502900  0.008500  1.0
  C  C1257  1  0.083300  0.498900  0.464700  1.0
  C  C1258  1  0.416700  0.498900  0.035300  1.0
  C  C1259  1  0.916700  0.501100  0.535300  1.0
  C  C1260  1  0.583300  0.501100  0.964700  1.0
  C  C1261  1  0.070200  0.537400  0.442000  1.0
  C  C1262  1  0.429800  0.537400  0.058000  1.0
  C  C1263  1  0.929800  0.462600  0.558000  1.0
  C  C1264  1  0.570200  0.462600  0.942000  1.0
  C  C1265  1  0.074000  0.534800  0.403900  1.0
  C  C1266  1  0.426000  0.534800  0.096100  1.0
  C  C1267  1  0.926000  0.465200  0.596100  1.0
  C  C1268  1  0.574000  0.465200  0.903900  1.0
  C  C1269  1  0.085800  0.495900  0.385000  1.0
  C  C1270  1  0.414200  0.495900  0.115000  1.0
  C  C1271  1  0.914200  0.504100  0.615000  1.0
  C  C1272  1  0.585800  0.504100  0.885000  1.0
  C  C1273  1  0.096900  0.461500  0.405900  1.0
  C  C1274  1  0.403100  0.461500  0.094100  1.0
  C  C1275  1  0.903100  0.538500  0.594100  1.0
  C  C1276  1  0.596900  0.538500  0.905900  1.0
  C  C1277  1  0.096200  0.459900  0.446700  1.0
  C  C1278  1  0.403800  0.459900  0.053300  1.0
  C  C1279  1  0.903800  0.540100  0.553300  1.0
  C  C1280  1  0.596200  0.540100  0.946700  1.0
  C  C1281  1  0.108300  0.526900  0.324500  1.0
  C  C1282  1  0.391700  0.526900  0.175500  1.0
  C  C1283  1  0.891700  0.473100  0.675500  1.0
  C  C1284  1  0.608300  0.473100  0.824500  1.0
  C  C1285  1  0.102300  0.527000  0.283200  1.0
  C  C1286  1  0.397700  0.527000  0.216800  1.0
  C  C1287  1  0.897700  0.473000  0.716800  1.0
  C  C1288  1  0.602300  0.473000  0.783200  1.0
  C  C1289  1  0.065700  0.491500  0.223100  1.0
  C  C1290  1  0.434300  0.491500  0.276900  1.0
  C  C1291  1  0.934300  0.508500  0.776900  1.0
  C  C1292  1  0.565700  0.508500  0.723100  1.0
  C  C1293  1  0.091600  0.522000  0.200400  1.0
  C  C1294  1  0.408400  0.522000  0.299600  1.0
  C  C1295  1  0.908400  0.478000  0.799600  1.0
  C  C1296  1  0.591600  0.478000  0.700400  1.0
  C  C1297  1  0.125200  0.555200  0.221500  1.0
  C  C1298  1  0.374800  0.555200  0.278500  1.0
  C  C1299  1  0.874800  0.444800  0.778500  1.0
  C  C1300  1  0.625200  0.444800  0.721500  1.0
  C  C1301  1  0.130900  0.558000  0.260900  1.0
  C  C1302  1  0.369100  0.558000  0.239100  1.0
  C  C1303  1  0.869100  0.442000  0.739100  1.0
  C  C1304  1  0.630900  0.442000  0.760900  1.0
  C  C1305  1  0.089600  0.516500  0.159100  1.0
  C  C1306  1  0.410400  0.516500  0.340900  1.0
  C  C1307  1  0.910400  0.483500  0.840900  1.0
  C  C1308  1  0.589600  0.483500  0.659100  1.0
  C  C1309  1  0.097500  0.478700  0.141300  1.0
  C  C1310  1  0.402500  0.478700  0.358700  1.0
  C  C1311  1  0.902500  0.521300  0.858700  1.0
  C  C1312  1  0.597500  0.521300  0.641300  1.0
  C  C1313  1  0.078200  0.508300  0.078600  1.0
  C  C1314  1  0.421800  0.508300  0.421400  1.0
  C  C1315  1  0.921800  0.491700  0.921400  1.0
  C  C1316  1  0.578200  0.491700  0.578600  1.0
  C  C1317  1  0.068000  0.547700  0.094800  1.0
  C  C1318  1  0.432000  0.547700  0.405200  1.0
  C  C1319  1  0.932000  0.452300  0.905200  1.0
  C  C1320  1  0.568000  0.452300  0.594800  1.0
  C  C1321  1  0.073800  0.551800  0.136600  1.0
  C  C1322  1  0.426200  0.551800  0.363400  1.0
  C  C1323  1  0.926200  0.448200  0.863400  1.0
  C  C1324  1  0.573800  0.448200  0.636600  1.0
  C  C1325  1  0.077800  0.499700  0.037500  1.0
  C  C1326  1  0.422200  0.499700  0.462500  1.0
  C  C1327  1  0.922200  0.500300  0.962500  1.0
  C  C1328  1  0.577800  0.500300  0.537500  1.0
  C  C1329  1  0.092500  0.459700  0.981600  1.0
  C  C1330  1  0.407500  0.459700  0.518400  1.0
  C  C1331  1  0.907500  0.540300  0.018400  1.0
  C  C1332  1  0.592500  0.540300  0.481600  1.0
  C  C1333  1  0.110800  0.493800  0.961300  1.0
  C  C1334  1  0.389200  0.493800  0.538700  1.0
  C  C1335  1  0.889200  0.506200  0.038700  1.0
  C  C1336  1  0.610800  0.506200  0.461300  1.0
  C  C1337  1  0.107600  0.488200  0.919400  1.0
  C  C1338  1  0.392400  0.488200  0.580600  1.0
  C  C1339  1  0.892400  0.511800  0.080600  1.0
  C  C1340  1  0.607600  0.511800  0.419400  1.0
  C  C1341  1  0.091600  0.448500  0.903700  1.0
  C  C1342  1  0.408400  0.448500  0.596300  1.0
  C  C1343  1  0.908400  0.551500  0.096300  1.0
  C  C1344  1  0.591600  0.551500  0.403700  1.0
  C  C1345  1  0.076100  0.414900  0.925500  1.0
  C  C1346  1  0.423900  0.414900  0.574500  1.0
  C  C1347  1  0.923900  0.585100  0.074500  1.0
  C  C1348  1  0.576100  0.585100  0.425500  1.0
  C  C1349  1  0.078200  0.421400  0.966700  1.0
  C  C1350  1  0.421800  0.421400  0.533300  1.0
  C  C1351  1  0.921800  0.578600  0.033300  1.0
  C  C1352  1  0.578200  0.578600  0.466700  1.0
  C  C1353  1  0.091000  0.443600  0.858600  1.0
  C  C1354  1  0.409000  0.443600  0.641400  1.0
  C  C1355  1  0.909000  0.556400  0.141400  1.0
  C  C1356  1  0.591000  0.556400  0.358600  1.0
  C  C1357  1  0.251500  0.632200  0.130800  1.0
  C  C1358  1  0.248500  0.632200  0.369200  1.0
  C  C1359  1  0.748500  0.367800  0.869200  1.0
  C  C1360  1  0.751500  0.367800  0.630800  1.0
  C  C1361  1  0.244200  0.585800  0.112600  1.0
  C  C1362  1  0.255800  0.585800  0.387400  1.0
  C  C1363  1  0.755800  0.414200  0.887400  1.0
  C  C1364  1  0.744200  0.414200  0.612600  1.0
  C  C1365  1  0.243700  0.580900  0.074900  1.0
  C  C1366  1  0.256300  0.580900  0.425100  1.0
  C  C1367  1  0.756300  0.419100  0.925100  1.0
  C  C1368  1  0.743700  0.419100  0.574900  1.0
  C  C1369  1  0.237600  0.542200  0.058200  1.0
  C  C1370  1  0.262400  0.542200  0.441800  1.0
  C  C1371  1  0.762400  0.457800  0.941800  1.0
  C  C1372  1  0.737600  0.457800  0.558200  1.0
  C  C1373  1  0.231400  0.505100  0.083100  1.0
  C  C1374  1  0.268600  0.505100  0.416900  1.0
  C  C1375  1  0.768600  0.494900  0.916900  1.0
  C  C1376  1  0.731400  0.494900  0.583100  1.0
  C  C1377  1  0.232300  0.512100  0.122700  1.0
  C  C1378  1  0.267700  0.512100  0.377300  1.0
  C  C1379  1  0.767700  0.487900  0.877300  1.0
  C  C1380  1  0.732300  0.487900  0.622700  1.0
  C  C1381  1  0.238800  0.552600  0.136500  1.0
  C  C1382  1  0.261200  0.552600  0.363500  1.0
  C  C1383  1  0.761200  0.447400  0.863500  1.0
  C  C1384  1  0.738800  0.447400  0.636500  1.0
  C  C1385  1  0.247700  0.450600  0.038600  1.0
  C  C1386  1  0.252300  0.450600  0.461400  1.0
  C  C1387  1  0.752300  0.549400  0.961400  1.0
  C  C1388  1  0.747700  0.549400  0.538600  1.0
  C  C1389  1  0.233000  0.409600  0.022100  1.0
  C  C1390  1  0.267000  0.409600  0.477900  1.0
  C  C1391  1  0.767000  0.590400  0.977900  1.0
  C  C1392  1  0.733000  0.590400  0.522100  1.0
  C  C1393  1  0.170000  0.349500  0.019300  1.0
  C  C1394  1  0.330000  0.349500  0.480700  1.0
  C  C1395  1  0.830000  0.650500  0.980700  1.0
  C  C1396  1  0.670000  0.650500  0.519300  1.0
  C  C1397  1  0.200200  0.331000  0.990100  1.0
  C  C1398  1  0.299800  0.331000  0.509900  1.0
  C  C1399  1  0.799800  0.669000  0.009900  1.0
  C  C1400  1  0.700200  0.669000  0.490100  1.0
  C  C1401  1  0.246200  0.355000  0.977200  1.0
  C  C1402  1  0.253800  0.355000  0.522800  1.0
  C  C1403  1  0.753800  0.645000  0.022800  1.0
  C  C1404  1  0.746200  0.645000  0.477200  1.0
  C  C1405  1  0.262900  0.393900  0.992600  1.0
  C  C1406  1  0.237100  0.393900  0.507400  1.0
  C  C1407  1  0.737100  0.606100  0.007400  1.0
  C  C1408  1  0.762900  0.606100  0.492600  1.0
  C  C1409  1  0.647100  0.334600  0.541500  1.0
  C  C1410  1  0.852900  0.334600  0.958500  1.0
  C  C1411  1  0.352900  0.665400  0.458500  1.0
  C  C1412  1  0.147100  0.665400  0.041500  1.0
  C  C1413  1  0.599100  0.344200  0.495600  1.0
  C  C1414  1  0.900900  0.344200  0.004400  1.0
  C  C1415  1  0.400900  0.655800  0.504400  1.0
  C  C1416  1  0.099100  0.655800  0.995600  1.0
  C  C1417  1  0.587700  0.386900  0.485600  1.0
  C  C1418  1  0.912300  0.386900  0.014400  1.0
  C  C1419  1  0.412300  0.613100  0.514400  1.0
  C  C1420  1  0.087700  0.613100  0.985600  1.0
  C  C1421  1  0.530900  0.398700  0.464600  1.0
  C  C1422  1  0.969100  0.398700  0.035400  1.0
  C  C1423  1  0.469100  0.601300  0.535400  1.0
  C  C1424  1  0.030900  0.601300  0.964600  1.0
  C  C1425  1  0.485500  0.367800  0.453700  1.0
  C  C1426  1  0.014500  0.367800  0.046300  1.0
  C  C1427  1  0.514500  0.632200  0.546300  1.0
  C  C1428  1  0.985500  0.632200  0.953700  1.0
  C  C1429  1  0.496900  0.325100  0.463600  1.0
  C  C1430  1  0.003100  0.325100  0.036400  1.0
  C  C1431  1  0.503100  0.674900  0.536400  1.0
  C  C1432  1  0.996900  0.674900  0.963600  1.0
  C  C1433  1  0.553700  0.313300  0.484600  1.0
  C  C1434  1  0.946300  0.313300  0.015400  1.0
  C  C1435  1  0.446300  0.686700  0.515400  1.0
  C  C1436  1  0.053700  0.686700  0.984600  1.0
  C  C1437  1  0.422400  0.354800  0.390400  1.0
  C  C1438  1  0.077600  0.354800  0.109600  1.0
  C  C1439  1  0.577600  0.645200  0.609600  1.0
  C  C1440  1  0.922400  0.645200  0.890400  1.0
  C  C1441  1  0.360300  0.360700  0.366100  1.0
  C  C1442  1  0.139700  0.360700  0.133900  1.0
  C  C1443  1  0.639700  0.639300  0.633900  1.0
  C  C1444  1  0.860300  0.639300  0.866100  1.0
  C  C1445  1  0.266100  0.390200  0.361800  1.0
  C  C1446  1  0.233900  0.390200  0.138200  1.0
  C  C1447  1  0.733900  0.609800  0.638200  1.0
  C  C1448  1  0.766100  0.609800  0.861800  1.0
  C  C1449  1  0.246800  0.365200  0.326300  1.0
  C  C1450  1  0.253200  0.365200  0.173700  1.0
  C  C1451  1  0.753200  0.634800  0.673700  1.0
  C  C1452  1  0.746800  0.634800  0.826300  1.0
  C  C1453  1  0.289600  0.341400  0.314400  1.0
  C  C1454  1  0.210400  0.341400  0.185600  1.0
  C  C1455  1  0.710400  0.658600  0.685600  1.0
  C  C1456  1  0.789600  0.658600  0.814400  1.0
  C  C1457  1  0.349600  0.338700  0.332500  1.0
  C  C1458  1  0.150400  0.338700  0.167500  1.0
  C  C1459  1  0.650400  0.661300  0.667500  1.0
  C  C1460  1  0.849600  0.661300  0.832500  1.0
  N  N1461  1  0.059000  0.016000  0.285300  1.0
  N  N1462  1  0.441000  0.016000  0.214700  1.0
  N  N1463  1  0.941000  0.984000  0.714700  1.0
  N  N1464  1  0.559000  0.984000  0.785300  1.0
  N  N1465  1  0.962300  0.134100  0.387000  1.0
  N  N1466  1  0.537700  0.134100  0.113000  1.0
  N  N1467  1  0.037700  0.865900  0.613000  1.0
  N  N1468  1  0.462300  0.865900  0.887000  1.0
  N  N1469  1  0.002900  0.959400  0.213400  1.0
  N  N1470  1  0.497100  0.959400  0.286600  1.0
  N  N1471  1  0.997100  0.040600  0.786600  1.0
  N  N1472  1  0.502900  0.040600  0.713400  1.0
  N  N1473  1  0.067500  0.003500  0.163900  1.0
  N  N1474  1  0.432500  0.003500  0.336100  1.0
  N  N1475  1  0.932500  0.996500  0.836100  1.0
  N  N1476  1  0.567500  0.996500  0.663900  1.0
  N  N1477  1  0.993300  0.069800  0.212900  1.0
  N  N1478  1  0.506700  0.069800  0.287100  1.0
  N  N1479  1  0.006700  0.930200  0.787100  1.0
  N  N1480  1  0.493300  0.930200  0.712900  1.0
  N  N1481  1  0.119400  0.071500  0.228200  1.0
  N  N1482  1  0.380600  0.071500  0.271800  1.0
  N  N1483  1  0.880600  0.928500  0.771800  1.0
  N  N1484  1  0.619400  0.928500  0.728200  1.0
  N  N1485  1  0.132000  0.970400  0.244200  1.0
  N  N1486  1  0.368000  0.970400  0.255800  1.0
  N  N1487  1  0.868000  0.029600  0.755800  1.0
  N  N1488  1  0.632000  0.029600  0.744200  1.0
  N  N1489  1  0.902000  0.187800  0.430500  1.0
  N  N1490  1  0.598000  0.187800  0.069500  1.0
  N  N1491  1  0.098000  0.812200  0.569500  1.0
  N  N1492  1  0.402000  0.812200  0.930500  1.0
  N  N1493  1  0.561000  0.216200  0.160000  1.0
  N  N1494  1  0.939000  0.216200  0.340000  1.0
  N  N1495  1  0.439000  0.783800  0.840000  1.0
  N  N1496  1  0.061000  0.783800  0.660000  1.0
  N  N1497  1  0.438500  0.205400  0.133900  1.0
  N  N1498  1  0.061500  0.205400  0.366100  1.0
  N  N1499  1  0.561500  0.794600  0.866100  1.0
  N  N1500  1  0.938500  0.794600  0.633900  1.0
  N  N1501  1  0.190000  0.185000  0.076100  1.0
  N  N1502  1  0.310000  0.185000  0.423900  1.0
  N  N1503  1  0.810000  0.815000  0.923900  1.0
  N  N1504  1  0.690000  0.815000  0.576100  1.0
  N  N1505  1  0.071500  0.175400  0.044000  1.0
  N  N1506  1  0.428500  0.175400  0.456000  1.0
  N  N1507  1  0.928500  0.824600  0.956000  1.0
  N  N1508  1  0.571500  0.824600  0.544000  1.0
  N  N1509  1  0.120300  0.134900  0.962000  1.0
  N  N1510  1  0.379700  0.134900  0.538000  1.0
  N  N1511  1  0.879700  0.865100  0.038000  1.0
  N  N1512  1  0.620300  0.865100  0.462000  1.0
  N  N1513  1  0.152300  0.217100  0.986900  1.0
  N  N1514  1  0.347700  0.217100  0.513100  1.0
  N  N1515  1  0.847700  0.782900  0.013100  1.0
  N  N1516  1  0.652300  0.782900  0.486900  1.0
  N  N1517  1  0.249400  0.141200  0.002000  1.0
  N  N1518  1  0.250600  0.141200  0.498000  1.0
  N  N1519  1  0.750600  0.858800  0.998000  1.0
  N  N1520  1  0.749400  0.858800  0.502000  1.0
  N  N1521  1  0.173500  0.094500  0.044900  1.0
  N  N1522  1  0.326500  0.094500  0.455100  1.0
  N  N1523  1  0.826500  0.905500  0.955100  1.0
  N  N1524  1  0.673500  0.905500  0.544900  1.0
  N  N1525  1  0.036700  0.188000  0.456700  1.0
  N  N1526  1  0.463300  0.188000  0.043300  1.0
  N  N1527  1  0.963300  0.812000  0.543300  1.0
  N  N1528  1  0.536700  0.812000  0.956700  1.0
  N  N1529  1  0.001900  0.263700  0.419500  1.0
  N  N1530  1  0.498100  0.263700  0.080500  1.0
  N  N1531  1  0.998100  0.736300  0.580500  1.0
  N  N1532  1  0.501900  0.736300  0.919500  1.0
  N  N1533  1  0.981800  0.425700  0.349500  1.0
  N  N1534  1  0.518200  0.425700  0.150500  1.0
  N  N1535  1  0.018200  0.574300  0.650500  1.0
  N  N1536  1  0.481800  0.574300  0.849500  1.0
  N  N1537  1  0.951700  0.502400  0.312700  1.0
  N  N1538  1  0.548300  0.502400  0.187300  1.0
  N  N1539  1  0.048300  0.497600  0.687300  1.0
  N  N1540  1  0.451700  0.497600  0.812700  1.0
  N  N1541  1  0.968300  0.416600  0.261100  1.0
  N  N1542  1  0.531700  0.416600  0.238900  1.0
  N  N1543  1  0.031700  0.583400  0.738900  1.0
  N  N1544  1  0.468300  0.583400  0.761100  1.0
  N  N1545  1  0.088300  0.405500  0.299000  1.0
  N  N1546  1  0.411700  0.405500  0.201000  1.0
  N  N1547  1  0.911700  0.594500  0.701000  1.0
  N  N1548  1  0.588300  0.594500  0.799000  1.0
  N  N1549  1  0.084300  0.497100  0.343000  1.0
  N  N1550  1  0.415700  0.497100  0.157000  1.0
  N  N1551  1  0.915700  0.502900  0.657000  1.0
  N  N1552  1  0.584300  0.502900  0.843000  1.0
  N  N1553  1  0.068100  0.494600  0.263800  1.0
  N  N1554  1  0.431900  0.494600  0.236200  1.0
  N  N1555  1  0.931900  0.505400  0.736200  1.0
  N  N1556  1  0.568100  0.505400  0.763800  1.0
  N  N1557  1  0.094400  0.474600  0.104200  1.0
  N  N1558  1  0.405600  0.474600  0.395800  1.0
  N  N1559  1  0.905600  0.525400  0.895800  1.0
  N  N1560  1  0.594400  0.525400  0.604200  1.0
  N  N1561  1  0.093100  0.466700  0.023800  1.0
  N  N1562  1  0.406900  0.466700  0.476200  1.0
  N  N1563  1  0.906900  0.533300  0.976200  1.0
  N  N1564  1  0.593100  0.533300  0.523800  1.0
  N  N1565  1  0.217400  0.464200  0.064500  1.0
  N  N1566  1  0.282600  0.464200  0.435500  1.0
  N  N1567  1  0.782600  0.535800  0.935500  1.0
  N  N1568  1  0.717400  0.535800  0.564500  1.0
  N  N1569  1  0.185700  0.388500  0.033800  1.0
  N  N1570  1  0.314300  0.388500  0.466200  1.0
  N  N1571  1  0.814300  0.611500  0.966200  1.0
  N  N1572  1  0.685700  0.611500  0.533800  1.0
  N  N1573  1  0.324200  0.390800  0.378000  1.0
  N  N1574  1  0.175800  0.390800  0.122000  1.0
  N  N1575  1  0.675800  0.609200  0.622000  1.0
  N  N1576  1  0.824200  0.609200  0.878000  1.0
  N  N1577  1  0.431000  0.374000  0.425600  1.0
  N  N1578  1  0.069000  0.374000  0.074400  1.0
  N  N1579  1  0.569000  0.626000  0.574400  1.0
  N  N1580  1  0.931000  0.626000  0.925600  1.0
  Cl  Cl1581  1  0.301800  0.086300  0.149060  1
  Cl  Cl1582  1  0.198200  0.086300  0.350940  1
  Cl  Cl1583  1  0.698200  0.913700  0.850940  1
  Cl  Cl1584  1  0.801800  0.913700  0.649060  1
  Cl  Cl1585  1  0.250000  0.456800  0.250000  1
  Cl  Cl1586  1  0.750000  0.543200  0.750000  1
  Cl  Cl1587  1  0.996400  0.249800  0.191800  1
  Cl  Cl1588  1  0.503600  0.249800  0.308200  1
  Cl  Cl1589  1  0.003600  0.750200  0.808200  1
  Cl  Cl1590  1  0.496400  0.750200  0.691800  1
  Cl  Cl1591  1  0.743800  0.419300  0.056000  1
  Cl  Cl1592  1  0.756200  0.419300  0.444000  1
  Cl  Cl1593  1  0.256200  0.580700  0.944000  1
  Cl  Cl1594  1  0.243800  0.580700  0.556000  1
  Cl  Cl1595  1  0.576300  0.613700  0.071600  1
  Cl  Cl1596  1  0.923700  0.613700  0.428400  1
  Cl  Cl1597  1  0.423700  0.386300  0.928400  1
  Cl  Cl1598  1  0.076300  0.386300  0.571600  1
  Cl  Cl1599  1  0.356400  0.914400  0.045800  1
  Cl  Cl1600  1  0.143600  0.914400  0.454200  1
  Cl  Cl1601  1  0.643600  0.085600  0.954200  1
  Cl  Cl1602  1  0.856400  0.085600  0.545800  1
  Cl  Cl1603  1  0.696100  0.960100  0.107700  1
  Cl  Cl1604  1  0.803900  0.960100  0.392300  1
  Cl  Cl1605  1  0.303900  0.039900  0.892300  1
  Cl  Cl1606  1  0.196100  0.039900  0.607700  1
  Cl  Cl1607  1  0.250000  0.253300  0.250000  1
  Cl  Cl1608  1  0.750000  0.746700  0.750000  1
  Cl  Cl1609  1  0.324700  0.314100  0.087300  1
  Cl  Cl1610  1  0.175300  0.314100  0.412700  1
  Cl  Cl1611  1  0.675300  0.685900  0.912700  1
  Cl  Cl1612  1  0.824700  0.685900  0.587300  1
  O  O1613  1  0.243200  0.104600  0.151600  1
  O  O1614  1  0.256800  0.104600  0.348400  1
  O  O1615  1  0.756800  0.895400  0.848400  1
  O  O1616  1  0.743200  0.895400  0.651600  1
  O  O1617  1  0.354100  0.107100  0.174400  1
  O  O1618  1  0.145900  0.107100  0.325600  1
  O  O1619  1  0.645900  0.892900  0.825600  1
  O  O1620  1  0.854100  0.892900  0.674400  1
  O  O1621  1  0.297200  0.045000  0.162100  1
  O  O1622  1  0.202800  0.045000  0.337900  1
  O  O1623  1  0.702800  0.955000  0.837900  1
  O  O1624  1  0.797200  0.955000  0.662100  1
  O  O1625  1  0.315700  0.090200  0.110900  1
  O  O1626  1  0.184300  0.090200  0.389100  1
  O  O1627  1  0.684300  0.909800  0.889100  1
  O  O1628  1  0.815700  0.909800  0.610900  1
  O  O1629  1  0.066200  0.251000  0.204600  1
  O  O1630  1  0.433800  0.251000  0.295400  1
  O  O1631  1  0.933800  0.749000  0.795400  1
  O  O1632  1  0.566200  0.749000  0.704600  1
  O  O1633  1  0.972900  0.209500  0.206000  1
  O  O1634  1  0.527100  0.209500  0.294000  1
  O  O1635  1  0.027100  0.790500  0.794000  1
  O  O1636  1  0.472900  0.790500  0.706000  1
  O  O1637  1  0.970000  0.251600  0.149000  1
  O  O1638  1  0.530000  0.251600  0.351000  1
  O  O1639  1  0.030000  0.748400  0.851000  1
  O  O1640  1  0.470000  0.748400  0.649000  1
  O  O1641  1  0.961000  0.277100  0.213500  1
  O  O1642  1  0.539000  0.277100  0.286500  1
  O  O1643  1  0.039000  0.722900  0.786500  1
  O  O1644  1  0.461000  0.722900  0.713500  1
  O  O1645  1  0.682300  0.401400  0.037800  1
  O  O1646  1  0.817700  0.401400  0.462200  1
  O  O1647  1  0.317700  0.598600  0.962200  1
  O  O1648  1  0.182300  0.598600  0.537800  1
  O  O1649  1  0.801800  0.408100  0.036800  1
  O  O1650  1  0.698200  0.408100  0.463200  1
  O  O1651  1  0.198200  0.591900  0.963200  1
  O  O1652  1  0.301800  0.591900  0.536800  1
  O  O1653  1  0.733500  0.476100  0.038400  1
  O  O1654  1  0.766500  0.476100  0.461600  1
  O  O1655  1  0.266500  0.523900  0.961600  1
  O  O1656  1  0.233500  0.523900  0.538400  1
  O  O1657  1  0.753000  0.427700  0.099200  1
  O  O1658  1  0.747000  0.427700  0.400800  1
  O  O1659  1  0.247000  0.572300  0.900800  1
  O  O1660  1  0.253000  0.572300  0.599200  1
  O  O1661  1  0.625000  0.636900  0.070100  1
  O  O1662  1  0.875000  0.636900  0.429900  1
  O  O1663  1  0.375000  0.363100  0.929900  1
  O  O1664  1  0.125000  0.363100  0.570100  1
  O  O1665  1  0.511300  0.621300  0.055300  1
  O  O1666  1  0.988700  0.621300  0.444700  1
  O  O1667  1  0.488700  0.378700  0.944700  1
  O  O1668  1  0.011300  0.378700  0.555300  1
  O  O1669  1  0.584900  0.574200  0.089500  1
  O  O1670  1  0.915100  0.574200  0.410500  1
  O  O1671  1  0.415100  0.425800  0.910500  1
  O  O1672  1  0.084900  0.425800  0.589500  1
  O  O1673  1  0.589000  0.596200  0.027900  1
  O  O1674  1  0.911000  0.596200  0.472100  1
  O  O1675  1  0.411000  0.403800  0.972100  1
  O  O1676  1  0.089000  0.403800  0.527900  1
  O  O1677  1  0.336500  0.871100  0.052500  1
  O  O1678  1  0.163500  0.871100  0.447500  1
  O  O1679  1  0.663500  0.128900  0.947500  1
  O  O1680  1  0.836500  0.128900  0.552500  1
  O  O1681  1  0.306500  0.936900  0.050900  1
  O  O1682  1  0.193500  0.936900  0.449100  1
  O  O1683  1  0.693500  0.063100  0.949100  1
  O  O1684  1  0.806500  0.063100  0.550900  1
  O  O1685  1  0.412600  0.920400  0.068400  1
  O  O1686  1  0.087400  0.920400  0.431600  1
  O  O1687  1  0.587400  0.079600  0.931600  1
  O  O1688  1  0.912600  0.079600  0.568400  1
  O  O1689  1  0.364600  0.912800  0.007400  1
  O  O1690  1  0.135400  0.912800  0.492600  1
  O  O1691  1  0.635400  0.087200  0.992600  1
  O  O1692  1  0.864600  0.087200  0.507400  1
  O  O1693  1  0.625100  0.947600  0.106200  1
  O  O1694  1  0.874900  0.947600  0.393800  1
  O  O1695  1  0.374900  0.052400  0.893800  1
  O  O1696  1  0.125100  0.052400  0.606200  1
  O  O1697  1  0.715800  0.959300  0.066900  1
  O  O1698  1  0.784200  0.959300  0.433100  1
  O  O1699  1  0.284200  0.040700  0.933100  1
  O  O1700  1  0.215800  0.040700  0.566900  1
  O  O1701  1  0.706500  0.005400  0.109400  1
  O  O1702  1  0.793500  0.005400  0.390600  1
  O  O1703  1  0.293500  0.994600  0.890600  1
  O  O1704  1  0.206500  0.994600  0.609400  1
  O  O1705  1  0.739000  0.939900  0.137800  1
  O  O1706  1  0.761000  0.939900  0.362200  1
  O  O1707  1  0.261000  0.060100  0.862200  1
  O  O1708  1  0.239000  0.060100  0.637800  1
  O  O1709  1  0.333200  0.356900  0.078000  1
  O  O1710  1  0.166800  0.356900  0.422000  1
  O  O1711  1  0.666800  0.643100  0.922000  1
  O  O1712  1  0.833200  0.643100  0.578000  1
  O  O1713  1  0.367800  0.306100  0.122000  1
  O  O1714  1  0.132200  0.306100  0.378000  1
  O  O1715  1  0.632200  0.693900  0.878000  1
  O  O1716  1  0.867800  0.693900  0.622000  1
  O  O1717  1  0.260900  0.305400  0.090300  1
  O  O1718  1  0.239100  0.305400  0.409700  1
  O  O1719  1  0.739100  0.694600  0.909700  1
  O  O1720  1  0.760900  0.694600  0.590300  1
  O  O1721  1  0.340800  0.288300  0.058700  1
  O  O1722  1  0.159200  0.288300  0.441300  1
  O  O1723  1  0.659200  0.711700  0.941300  1
  O  O1724  1  0.840800  0.711700  0.558700  1
  O  O1725  1  0.266100  0.482200  0.219400  1.0
  O  O1726  1  0.233900  0.482200  0.280600  1.0
  O  O1727  1  0.733900  0.517800  0.780600  1.0
  O  O1728  1  0.766100  0.517800  0.719400  1.0
  O  O1729  1  0.195400  0.433200  0.235800  1.0
  O  O1730  1  0.304600  0.433200  0.264200  1.0
  O  O1731  1  0.804600  0.566800  0.764200  1.0
  O  O1732  1  0.695400  0.566800  0.735800  1.0
