
#######################################################################
#
#                 Cambridge Crystallographic Data Centre
#                                CCDC 
#
#######################################################################
#
# If this CIF has been generated from an entry in the Cambridge 
# Structural Database, then it will include bibliographic, chemical, 
# crystal, experimental, refinement or atomic coordinate data resulting 
# from the CCDC's data processing and validation procedures.
#
#######################################################################

data_DEHDOL
_chemical_formula_moiety         
'10(Co1 2+),15(C26 H22 N4),Cl1 1-,7.5(F6 P1 1-),11.5(C2 F6 N1 O4 S2 1-),4.5(C2 H3 N1)'
_chemical_name_systematic        
"Deca-cobalt pentadecakis(6,6'-bis(p-tolyliminomethyl)-3,3'-bipyridine) chloride octakis(hexafluorophosphate) dodecakis(bis(trifluoromethylsulfonyl)amide) acetonitrile solvate"
_symmetry_cell_setting           orthorhombic
_symmetry_space_group_name_H-M   'F d d d'
_symmetry_Int_Tables_number      70
_space_group_name_Hall           '-F 2uv 2vw'
loop_
_symmetry_equiv_pos_site_id
_symmetry_equiv_pos_as_xyz
1 x,y,z
2 1/4-x,1/4-y,z
3 x,1/4-y,1/4-z
4 1/4-x,y,1/4-z
5 x,1/2+y,1/2+z
6 1/4-x,3/4-y,1/2+z
7 x,3/4-y,3/4-z
8 1/4-x,1/2+y,3/4-z
9 1/2+x,y,1/2+z
10 3/4-x,1/4-y,1/2+z
11 1/2+x,1/4-y,3/4-z
12 3/4-x,y,3/4-z
13 1/2+x,1/2+y,z
14 3/4-x,3/4-y,z
15 1/2+x,3/4-y,1/4-z
16 3/4-x,1/2+y,1/4-z
17 -x,-y,-z
18 3/4+x,3/4+y,-z
19 -x,3/4+y,3/4+z
20 3/4+x,-y,3/4+z
21 -x,1/2-y,1/2-z
22 3/4+x,1/4+y,1/2-z
23 -x,1/4+y,1/4+z
24 3/4+x,1/2-y,1/4+z
25 1/2-x,-y,1/2-z
26 1/4+x,3/4+y,1/2-z
27 1/2-x,3/4+y,1/4+z
28 1/4+x,-y,1/4+z
29 1/2-x,1/2-y,-z
30 1/4+x,1/4+y,-z
31 1/2-x,1/4+y,3/4+z
32 1/4+x,1/2-y,3/4+z
_cell_length_a                   70.5877(7)
_cell_length_b                   79.1494(10)
_cell_length_c                   80.8163(10)
_cell_angle_alpha                90
_cell_angle_beta                 90
_cell_angle_gamma                90
_cell_volume                     451519
_exptl_crystal_colour            orange
_exptl_crystal_description       prism
_cell_formula_units_Z            32
loop_
_atom_site_label
_atom_site_type_symbol
_atom_site_fract_x
_atom_site_fract_y
_atom_site_fract_z
C391 C -0.1103(2) 0.0239(3) 0.0731(3)
C392 C -0.0882(6) 0.0823(5) 0.0946(5)
N61 N -0.1084(3) 0.0557(3) 0.0826(3)
F42 F -0.12796(19) 0.02600(19) 0.06719(19)
F43 F -0.1092(2) 0.00739(19) 0.07703(19)
F44 F -0.09894(19) 0.02576(18) 0.05990(19)
F45 F -0.1052(3) 0.0872(2) 0.0994(2)
F46 F -0.0819(2) 0.0708(2) 0.1072(2)
F47 F -0.0768(3) 0.0931(2) 0.0920(2)
S1 S -0.10419(13) 0.03737(10) 0.09013(11)
S2 S -0.09316(12) 0.06885(11) 0.07653(11)
O1 O -0.1179(3) 0.0322(3) 0.1033(3)
O2 O -0.0837(3) 0.0339(2) 0.0922(2)
O3 O -0.1026(3) 0.0806(2) 0.0661(2)
O4 O -0.0748(3) 0.0608(3) 0.0713(2)
C393 C 0.1556(6) 0.3394(4) 0.0027(4)
C394 C 0.1488(6) 0.3629(6) 0.0588(7)
N63 N 0.1462(4) 0.3415(3) 0.0339(4)
F48 F 0.1507(3) 0.3436(3) -0.0128(3)
F49 F 0.1592(4) 0.3227(4) 0.0034(3)
F50 F 0.1721(4) 0.3471(3) 0.0061(3)
F51 F 0.1615(3) 0.3699(3) 0.0689(3)
F52 F 0.1391(3) 0.3744(2) 0.0505(2)
F53 F 0.1364(3) 0.3525(2) 0.0656(2)
S3 S 0.14016(13) 0.34781(12) 0.01653(13)
S4 S 0.16300(19) 0.35101(18) 0.04454(18)
O5 O 0.1228(3) 0.3381(3) 0.0120(3)
O6 O 0.1389(3) 0.3658(3) 0.0142(2)
O7 O 0.1727(4) 0.3412(4) 0.0585(4)
O8 O 0.1739(4) 0.3640(4) 0.0368(3)
C395 C 0.0964(5) 0.2024(4) -0.0122(4)
C396 C 0.1167(5) 0.2080(5) -0.0076(4)
H331 H 0.1229 0.1991 -0.0013
H332 H 0.1161 0.2184 -0.0010
H333 H 0.1239 0.2102 -0.0178
N66 N 0.0827(4) 0.1974(3) -0.0160(3)
C397 C -0.0787(5) 0.3236(4) -0.0073(4)
C398 C -0.1006(5) 0.3191(5) -0.0070(5)
H334 H -0.1033 0.3113 0.0021
H335 H -0.1042 0.3138 -0.0175
H336 H -0.1080 0.3295 -0.0055
N64 N -0.0649(4) 0.3270(3) -0.0048(3)
C399 C 0.1093(4) 0.3015(3) 0.0191(3)
C400 C 0.1282(4) 0.2942(3) 0.0218(3)
H337 H 0.1271 0.2841 0.0287
H338 H 0.1363 0.3025 0.0275
H339 H 0.1339 0.2913 0.0111
N62 N 0.0952(3) 0.3054(2) 0.0174(2)
C401 C 0.0867(7) 0.1994(5) 0.0516(5)
C402 C 0.1097(6) 0.2023(6) 0.0465(5)
H340 H 0.1171 0.2045 0.0565
H341 H 0.1108 0.2119 0.0389
H342 H 0.1145 0.1921 0.0410
N65 N 0.0714(5) 0.1977(4) 0.0530(4)
C403 C -0.0954(6) 0.2199(6) -0.0201(6)
C404 C -0.1147(7) 0.2275(7) -0.0150(6)
H343 H -0.1198 0.2211 -0.0056
H344 H -0.1235 0.2269 -0.0243
H345 H -0.1129 0.2393 -0.0117
N67 N -0.0826(5) 0.2152(4) -0.0224(4)
F1 F 0.0208(2) 0.27895(18) 0.08885(17)
F2 F 0.0017(2) 0.29685(19) 0.10456(19)
F3 F 0.01355(15) 0.30527(13) 0.08012(13)
F4 F 0.00140(16) 0.28223(15) 0.06827(15)
F5 F -0.0171(2) 0.29903(18) 0.08369(17)
F6 F -0.00996(14) 0.27327(13) 0.09275(12)
P1 P 0.00181(8) 0.28910(7) 0.08636(7)
F7 F 0.01445(14) 0.31952(13) 0.00621(12)
F8 F 0.03829(16) 0.33712(14) 0.01336(14)
F9 F 0.02199(16) 0.35919(15) 0.00290(14)
F10 F 0.02809(14) 0.33654(13) -0.01320(13)
F11 F 0.00906(14) 0.34256(13) 0.02245(12)
F12 F -0.00162(17) 0.34162(15) -0.00410(15)
P2 P 0.01848(8) 0.33932(7) 0.00470(7)
F13 F 0.02037(18) 0.18694(15) -0.03703(15)
F14 F -0.02415(18) 0.18522(15) -0.02762(15)
F15 F -0.00362(17) 0.16917(16) -0.04221(15)
F16 F -0.00625(15) 0.19700(14) -0.04867(13)
F17 F 0.00290(14) 0.17535(13) -0.01609(12)
F18 F 0.00079(15) 0.20294(14) -0.02219(13)
P4 P -0.00168(9) 0.18601(7) -0.03233(7)
F19 F 0.1088(2) 0.24580(18) 0.02033(18)
F20 F 0.0874(2) 0.26676(19) 0.01968(17)
F21 F 0.0834(2) 0.2467(2) 0.0377(2)
F22 F 0.0887(2) 0.24839(18) -0.00126(18)
F23 F 0.0845(3) 0.2272(2) 0.0180(2)
F25 F 0.06423(16) 0.24805(14) 0.01676(14)
P6 P 0.08639(8) 0.24683(8) 0.01828(8)
F24 F 0.00938(17) 0.18663(15) 0.05998(15)
F26 F -0.01692(17) 0.18014(16) 0.07550(15)
F27 F -0.01936(14) 0.18335(13) 0.04802(12)
F28 F -0.00275(14) 0.20537(12) 0.07791(12)
F29 F -0.00563(14) 0.20923(13) 0.05074(12)
F30 F -0.03125(16) 0.20281(14) 0.06602(14)
P5 P -0.01089(7) 0.19474(6) 0.06328(6)
F31 F 0.01404(15) 0.27091(14) -0.04941(14)
F32 F 0.03837(18) 0.27914(16) -0.06534(15)
F33 F 0.01930(19) 0.27902(17) -0.08718(17)
F34 F 0.02163(14) 0.25522(13) -0.07170(12)
F35 F -0.00531(19) 0.27038(17) -0.07154(16)
F36 F 0.01093(14) 0.29442(13) -0.06515(12)
P3 P 0.01639(8) 0.27501(7) -0.06835(7)
F37 F -0.0979(2) 0.2714(2) 0.0034(2)
F38 F -0.0787(2) 0.2544(2) 0.0186(2)
F39 F -0.05377(18) 0.26478(15) 0.00512(15)
F40 F -0.0740(4) 0.2815(3) -0.0088(3)
F41 F -0.0782(3) 0.2507(3) -0.0073(3)
F54 F -0.0753(3) 0.2812(3) 0.0187(3)
P7 P -0.07613(9) 0.26739(9) 0.00444(10)
F55 F 0.0214(3) 0.3824(2) -0.1117(2)
F56 F 0.0056(2) 0.3581(2) -0.1148(2)
F57 F -0.0085(3) 0.3817(2) -0.1120(2)
P8 P 0.0071(2) 0.3750 -0.1250
F55F F 0.0214(3) 0.3676(2) -0.1383(2)
F56F F 0.0056(2) 0.3919(2) -0.1352(2)
F57F F -0.0085(3) 0.3683(2) -0.1380(2)
Cl1 Cl 0.00516(6) 0.25672(5) 0.01063(5)
S5 S 0.1120(2) 0.1380(2) -0.0398(2)
O9 O 0.0935(5) 0.1420(5) -0.0286(5)
O10 O 0.1050(5) 0.1337(5) -0.0549(5)
C405 C 0.1226(11) 0.1603(10) -0.0366(12)
F58 F 0.1384(5) 0.1559(4) -0.0477(5)
F59 F 0.1285(5) 0.1645(4) -0.0252(5)
F60 F 0.1151(5) 0.1688(4) -0.0495(4)
N68 N 0.1259(12) 0.1312(8) -0.0267(6)
S5A S 0.1380(2) 0.1120(2) -0.0398(2)
O9A O 0.1565(5) 0.1080(5) -0.0286(5)
O10A O 0.1450(5) 0.1163(5) -0.0549(5)
C405A C 0.1274(11) 0.0897(10) -0.0366(12)
F58A F 0.1116(5) 0.0941(4) -0.0477(5)
F59A F 0.1215(5) 0.0855(4) -0.0252(5)
F60A F 0.1349(5) 0.0812(4) -0.0495(4)
N68A N 0.1241(12) 0.1188(8) -0.0267(6)
C1 C 0.0672(4) 0.0801(3) -0.0271(3)
H1 H 0.0808 0.0783 -0.0290
H2 H 0.0611 0.0835 -0.0374
H3 H 0.0615 0.0696 -0.0231
C2 C 0.0646(3) 0.0941(3) -0.0140(3)
C3 C 0.0546(3) 0.0900(2) 0.0003(3)
H4 H 0.0493 0.0790 0.0016
C4 C 0.0524(3) 0.1019(3) 0.0128(2)
H5 H 0.0456 0.0991 0.0226
C5 C 0.0602(3) 0.1179(3) 0.0110(3)
C6 C 0.0702(3) 0.1220(2) -0.0033(3)
H6 H 0.0755 0.1330 -0.0045
C7 C 0.0723(3) 0.1101(3) -0.0158(2)
H7 H 0.0791 0.1129 -0.0255
C8 C 0.0575(3) 0.1256(3) 0.0391(3)
H8 H 0.0614 0.1145 0.0420
C9 C 0.0522(3) 0.1375(3) 0.0516(3)
C10 C 0.0430(3) 0.1654(3) 0.0586(2)
H9 H 0.0399 0.1766 0.0552
C11 C 0.0423(3) 0.1613(2) 0.0755(2)
C12 C 0.0457(3) 0.1435(3) 0.0801(3)
H10 H 0.0439 0.1400 0.0912
C13 C 0.0514(3) 0.1315(3) 0.0682(3)
H11 H 0.0546 0.1202 0.0711
C14 C 0.0349(3) 0.1728(2) 0.0875(2)
C15 C 0.0415(3) 0.1898(3) 0.0874(2)
H12 H 0.0507 0.1931 0.0794
C16 C 0.0212(3) 0.1964(3) 0.1098(3)
C17 C 0.0146(3) 0.1798(2) 0.1106(2)
H13 H 0.0054 0.1766 0.1186
C18 C 0.0219(3) 0.1681(3) 0.0994(2)
H14 H 0.0178 0.1567 0.1000
C19 C 0.0127(3) 0.2095(3) 0.1210(3)
H15 H 0.0028 0.2068 0.1286
C20 C 0.0133(3) 0.2365(3) 0.1303(3)
C21 C 0.0123(3) 0.2537(3) 0.1244(3)
H16 H 0.0155 0.2564 0.1133
C22 C 0.0061(3) 0.2665(3) 0.1359(3)
H17 H 0.0055 0.2779 0.1323
C23 C 0.0011(3) 0.2628(3) 0.1515(3)
C24 C 0.0017(3) 0.2458(3) 0.1571(3)
H18 H -0.0027 0.2431 0.1679
C25 C 0.0085(3) 0.2331(3) 0.1470(3)
H19 H 0.0099 0.2220 0.1512
C26 C -0.0052(3) 0.2788(3) 0.1630(3)
H20 H 0.0027 0.2886 0.1605
H21 H -0.0038 0.2757 0.1747
H22 H -0.0185 0.2816 0.1608
C27 C -0.0193(3) 0.1154(3) 0.0774(3)
H23 H -0.0276 0.1242 0.0818
H24 H -0.0099 0.1122 0.0858
H25 H -0.0268 0.1054 0.0744
C28 C -0.0088(3) 0.1222(3) 0.0617(3)
C29 C -0.0050(3) 0.1386(3) 0.0600(3)
H26 H -0.0082 0.1459 0.0689
C30 C 0.0035(3) 0.1456(3) 0.0461(3)
H27 H 0.0056 0.1575 0.0456
C31 C 0.0089(3) 0.1352(3) 0.0325(3)
C32 C 0.0039(3) 0.1169(3) 0.0340(3)
H28 H 0.0066 0.1093 0.0253
C33 C -0.0050(3) 0.1111(3) 0.0486(3)
H29 H -0.0084 0.0995 0.0495
C34 C 0.0155(3) 0.1364(2) 0.0050(3)
H30 H 0.0054 0.1287 0.0033
C35 C 0.0264(3) 0.1420(3) -0.0085(2)
C36 C 0.0502(3) 0.1598(3) -0.0174(3)
H31 H 0.0592 0.1684 -0.0148
C37 C 0.0480(3) 0.1553(3) -0.0340(3)
C38 C 0.0338(3) 0.1438(3) -0.0372(3)
H32 H 0.0314 0.1410 -0.0484
C39 C 0.0234(3) 0.1365(3) -0.0256(2)
H33 H 0.0143 0.1280 -0.0282
C40 C 0.0575(3) 0.1642(3) -0.0478(3)
C41 C 0.0595(3) 0.1815(3) -0.0485(3)
H34 H 0.0543 0.1880 -0.0397
C42 C 0.0754(3) 0.1805(3) -0.0729(3)
C43 C 0.0764(3) 0.1629(3) -0.0734(3)
H35 H 0.0836 0.1568 -0.0814
C44 C 0.0662(3) 0.1556(3) -0.0616(3)
H36 H 0.0644 0.1437 -0.0622
C45 C 0.0840(3) 0.1904(3) -0.0868(3)
H37 H 0.0889 0.1848 -0.0963
C46 C 0.0920(4) 0.2163(4) -0.0981(4)
C47 C 0.1030(4) 0.2301(3) -0.0949(3)
H38 H 0.1067 0.2323 -0.0837
C48 C 0.1089(4) 0.2409(3) -0.1071(3)
H39 H 0.1174 0.2498 -0.1043
C49 C 0.1034(4) 0.2393(3) -0.1223(4)
C50 C 0.0936(3) 0.2254(3) -0.1277(3)
H40 H 0.0913 0.2235 -0.1391
C51 C 0.0871(3) 0.2140(3) -0.1151(3)
H41 H 0.0793 0.2048 -0.1182
C52 C 0.1099(3) 0.2536(3) -0.1351(3)
H42 H 0.1222 0.2582 -0.1316
H43 H 0.1004 0.2627 -0.1352
H44 H 0.1111 0.2487 -0.1461
C53 C 0.1460(4) 0.1470(4) 0.0285(4)
H45 H 0.1540 0.1536 0.0210
H46 H 0.1483 0.1349 0.0268
H47 H 0.1489 0.1500 0.0400
C54 C 0.1249(3) 0.1510(3) 0.0249(4)
C55 C 0.1124(4) 0.1509(3) 0.0382(2)
H48 H 0.1164 0.1466 0.0486
C56 C 0.0942(3) 0.1572(3) 0.0364(3)
H49 H 0.0857 0.1571 0.0455
C57 C 0.0883(3) 0.1635(3) 0.0211(4)
C58 C 0.1008(4) 0.1636(3) 0.0078(2)
H50 H 0.0968 0.1679 -0.0026
C59 C 0.1190(3) 0.1573(3) 0.0097(3)
H51 H 0.1275 0.1573 0.0005
C60 C 0.0662(3) 0.1868(3) 0.0185(2)
H52 H 0.0762 0.1948 0.0185
C61 C 0.0466(3) 0.1921(3) 0.0169(2)
C62 C 0.0147(3) 0.1846(2) 0.0190(2)
H53 H 0.0055 0.1763 0.0218
C63 C 0.0082(2) 0.1998(2) 0.01498(19)
C64 C 0.0217(3) 0.2118(2) 0.0127(2)
H54 H 0.0180 0.2230 0.0102
C65 C 0.0399(3) 0.2079(3) 0.0139(2)
H55 H 0.0489 0.2168 0.0126
C66 C -0.0119(2) 0.2038(2) 0.0139(2)
C67 C -0.0254(3) 0.1906(3) 0.0132(2)
H56 H -0.0207 0.1794 0.0128
C68 C -0.0506(3) 0.2093(3) 0.0140(2)
C69 C -0.0386(3) 0.2225(3) 0.0144(2)
H57 H -0.0431 0.2338 0.0149
C70 C -0.0189(3) 0.2191(3) 0.0142(2)
H58 H -0.0104 0.2284 0.0142
C71 C -0.0715(3) 0.2106(3) 0.0146(3)
H59 H -0.0777 0.2212 0.0139
C72 C -0.1014(3) 0.2014(4) 0.0199(3)
C73 C -0.1081(4) 0.2137(3) 0.0307(3)
H60 H -0.0994 0.2207 0.0365
C74 C -0.1275(4) 0.2157(3) 0.0330(3)
H61 H -0.1321 0.2241 0.0403
C75 C -0.1401(3) 0.2054(4) 0.0245(3)
C76 C -0.1334(4) 0.1931(3) 0.0137(3)
H62 H -0.1421 0.1861 0.0079
C77 C -0.1140(5) 0.1911(3) 0.0114(3)
H63 H -0.1094 0.1827 0.0041
C78 C -0.1617(3) 0.2084(4) 0.0263(4)
H64 H -0.1671 0.2113 0.0155
H65 H -0.1639 0.2178 0.0341
H66 H -0.1677 0.1981 0.0306
C79 C 0.0527(4) 0.1496(3) 0.1520(4)
H67 H 0.0409 0.1485 0.1582
H68 H 0.0635 0.1470 0.1592
H69 H 0.0527 0.1417 0.1426
C80 C 0.0547(3) 0.1679(3) 0.1454(2)
C81 C 0.0635(3) 0.1709(3) 0.1303(2)
H70 H 0.0680 0.1617 0.1239
C82 C 0.0657(3) 0.1873(3) 0.1246(2)
H71 H 0.0717 0.1894 0.1143
C83 C 0.0591(3) 0.2008(3) 0.1340(3)
C84 C 0.0503(3) 0.1979(3) 0.1491(3)
H72 H 0.0458 0.2071 0.1555
C85 C 0.0481(3) 0.1814(3) 0.1548(2)
H73 H 0.0421 0.1794 0.1651
C86 C 0.0632(3) 0.2297(3) 0.1357(3)
H74 H 0.0657 0.2276 0.1470
C87 C 0.0635(4) 0.2467(3) 0.1293(4)
C88 C 0.0549(3) 0.2642(3) 0.1076(3)
H75 H 0.0521 0.2652 0.0961
C89 C 0.0583(3) 0.2795(3) 0.1168(3)
C90 C 0.0661(4) 0.2769(4) 0.1335(4)
H76 H 0.0683 0.2863 0.1406
C91 C 0.0698(4) 0.2614(4) 0.1385(4)
H77 H 0.0769 0.2598 0.1484
C92 C 0.0558(3) 0.2959(2) 0.1099(2)
C93 C 0.0613(3) 0.2998(3) 0.0938(2)
H78 H 0.0682 0.2917 0.0875
C94 C 0.0461(3) 0.3268(3) 0.0955(3)
C95 C 0.0403(3) 0.3235(3) 0.1120(3)
H79 H 0.0326 0.3313 0.1179
C96 C 0.0464(3) 0.3086(3) 0.1191(3)
H80 H 0.0441 0.3068 0.1306
C97 C 0.0419(3) 0.3428(3) 0.0882(3)
H81 H 0.0351 0.3513 0.0938
C98 C 0.0454(3) 0.3602(3) 0.0650(3)
C99 C 0.0407(3) 0.3612(3) 0.0479(3)
H82 H 0.0394 0.3510 0.0418
C100 C 0.0378(3) 0.3767(3) 0.0397(3)
H83 H 0.0346 0.3772 0.0283
C101 C 0.0399(3) 0.3918(3) 0.0494(3)
C102 C 0.0444(3) 0.3908(3) 0.0648(3)
H84 H 0.0461 0.4012 0.0705
C103 C 0.0469(3) 0.3758(3) 0.0741(3)
H85 H 0.0495 0.3760 0.0856
C104 C 0.0360(3) 0.4083(3) 0.0398(3)
H86 H 0.0236 0.4128 0.0429
H87 H 0.0362 0.4060 0.0279
H88 H 0.0458 0.4167 0.0425
C105 C 0.1464(4) 0.2028(4) 0.1027(4)
H89 H 0.1531 0.2101 0.1106
H90 H 0.1532 0.2027 0.0922
H91 H 0.1457 0.1913 0.1071
C106 C 0.1239(2) 0.2105(4) 0.0997(3)
C107 C 0.1186(3) 0.2274(3) 0.1011(2)
H92 H 0.1275 0.2355 0.1049
C108 C 0.1003(4) 0.2323(2) 0.0971(3)
H93 H 0.0966 0.2438 0.0980
C109 C 0.0872(2) 0.2204(4) 0.0916(3)
C110 C 0.0926(3) 0.2035(3) 0.0901(2)
H94 H 0.0837 0.1954 0.0864
C111 C 0.1109(4) 0.1986(2) 0.0942(3)
H95 H 0.1145 0.1871 0.0932
C112 C 0.0650(3) 0.2313(2) 0.0732(3)
H96 H 0.0748 0.2323 0.0652
C113 C 0.0451(3) 0.2354(2) 0.0693(2)
C114 C 0.0154(3) 0.2398(2) 0.0799(2)
H97 H 0.0076 0.2410 0.0894
C115 C 0.0072(3) 0.2428(2) 0.0647(2)
C116 C 0.0194(3) 0.2429(2) 0.0506(2)
H98 H 0.0146 0.2455 0.0399
C117 C 0.0393(3) 0.2390(2) 0.0529(2)
H99 H 0.0480 0.2388 0.0439
C118 C -0.0130(2) 0.2464(2) 0.0622(2)
C119 C -0.0256(3) 0.2440(2) 0.0751(2)
H100 H -0.0211 0.2395 0.0853
C120 C -0.0510(3) 0.2533(3) 0.0591(3)
C121 C -0.0391(3) 0.2571(2) 0.0462(3)
H101 H -0.0437 0.2624 0.0364
C122 C -0.0197(3) 0.2529(2) 0.0479(2)
H102 H -0.0113 0.2547 0.0389
C123 C -0.0713(3) 0.2559(3) 0.0589(3)
H103 H -0.0777 0.2593 0.0492
C124 C -0.1014(3) 0.2560(3) 0.0731(2)
C125 C -0.1116(3) 0.2411(2) 0.0718(2)
H104 H -0.1050 0.2306 0.0705
C126 C -0.1312(3) 0.2413(2) 0.0722(3)
H105 H -0.1382 0.2311 0.0712
C127 C -0.1408(3) 0.2566(3) 0.0740(3)
C128 C -0.1306(3) 0.2716(2) 0.0753(3)
H106 H -0.1371 0.2820 0.0765
C129 C -0.1109(3) 0.2713(2) 0.0749(2)
H107 H -0.1040 0.2815 0.0758
C130 C -0.1620(3) 0.2575(4) 0.0682(5)
H108 H -0.1650 0.2691 0.0648
H109 H -0.1703 0.2543 0.0774
H110 H -0.1640 0.2499 0.0589
C131 C 0.1013(3) 0.3379(3) 0.1498(3)
H111 H 0.1137 0.3335 0.1531
H112 H 0.0913 0.3312 0.1549
H113 H 0.1002 0.3497 0.1533
C132 C 0.0992(3) 0.3369(3) 0.1290(3)
C133 C 0.0997(3) 0.3241(3) 0.1205(3)
H114 H 0.1017 0.3133 0.1254
C134 C 0.0972(3) 0.3257(3) 0.1031(3)
H115 H 0.0999 0.3165 0.0960
C135 C 0.0907(3) 0.3408(3) 0.0966(3)
C136 C 0.0872(3) 0.3545(3) 0.1058(3)
H116 H 0.0816 0.3643 0.1011
C137 C 0.0924(3) 0.3539(3) 0.1232(3)
H117 H 0.0916 0.3634 0.1303
C138 C 0.0931(3) 0.3541(3) 0.07066(15)
H118 H 0.0999 0.3630 0.0760
N1 N 0.07998(16) 0.34139(13) 0.04649(13)
C139 C 0.07583(15) 0.34087(13) 0.02968(14)
H119 H 0.0693 0.3314 0.0252
C140 C 0.08126(18) 0.35413(16) 0.01946(11)
C141 C 0.09084(18) 0.36792(14) 0.02604(16)
H120 H 0.0946 0.3770 0.0191
C142 C 0.09500(18) 0.36844(14) 0.04285(17)
H121 H 0.1015 0.3779 0.0473
C143 C 0.08956(18) 0.35518(16) 0.05307(11)
C144 C 0.0753(3) 0.3539(2) 0.0024(2)
C145 C 0.0771(3) 0.3401(3) -0.0074(3)
H122 H 0.0826 0.3305 -0.0024
C146 C 0.0626(3) 0.3519(2) -0.0301(2)
C147 C 0.0601(3) 0.3676(3) -0.0217(2)
H123 H 0.0542 0.3770 -0.0268
C148 C 0.0670(3) 0.3681(3) -0.0048(3)
H124 H 0.0658 0.3783 0.0014
C149 C 0.0555(3) 0.3504(3) -0.0459(2)
H125 H 0.0487 0.3595 -0.0507
C150 C 0.0526(3) 0.3341(3) -0.0718(3)
C151 C 0.0458(3) 0.3191(3) -0.0771(3)
H126 H 0.0442 0.3101 -0.0695
C152 C 0.0413(3) 0.3166(3) -0.0934(3)
H127 H 0.0371 0.3059 -0.0971
C153 C 0.0428(3) 0.3297(3) -0.1044(3)
C154 C 0.0492(3) 0.3450(3) -0.0987(3)
H128 H 0.0508 0.3538 -0.1066
C155 C 0.0533(3) 0.3486(3) -0.0830(3)
H129 H 0.0564 0.3596 -0.0793
C156 C 0.0392(3) 0.3258(3) -0.1228(2)
H130 H 0.0334 0.3356 -0.1281
H131 H 0.0306 0.3160 -0.1237
H132 H 0.0512 0.3231 -0.1282
C157 C 0.1642(3) 0.2944(3) 0.0771(3)
H133 H 0.1719 0.2955 0.0671
H134 H 0.1665 0.2833 0.0821
H135 H 0.1677 0.3032 0.0851
C158 C 0.14204(17) 0.2961(2) 0.07247(19)
C159 C 0.1369(2) 0.31110(18) 0.06471(19)
H136 H 0.1462 0.3195 0.0627
C160 C 0.1182(2) 0.31372(17) 0.05993(18)
H137 H 0.1147 0.3240 0.0546
C161 C 0.10466(17) 0.3014(2) 0.06292(19)
C162 C 0.1098(2) 0.28637(18) 0.07068(19)
H138 H 0.1005 0.2779 0.0727
C163 C 0.1285(2) 0.28375(16) 0.07546(18)
H139 H 0.1320 0.2735 0.0808
C164 C 0.0770(3) 0.2943(3) 0.0509(2)
H140 H 0.0836 0.2843 0.0479
C165 C 0.0568(3) 0.2956(2) 0.0456(2)
C166 C 0.0309(3) 0.3140(2) 0.0473(2)
H141 H 0.0258 0.3248 0.0498
C167 C 0.0191(2) 0.3019(2) 0.0402(2)
C168 C 0.0274(2) 0.2868(2) 0.0358(2)
H142 H 0.0198 0.2783 0.0308
C169 C 0.0461(3) 0.2835(2) 0.0383(2)
H143 H 0.0515 0.2730 0.0350
C170 C -0.0014(2) 0.3053(2) 0.0374(2)
C171 C -0.0101(3) 0.3192(3) 0.0451(3)
H144 H -0.0024 0.3261 0.0519
C172 C -0.0388(3) 0.3139(3) 0.0340(2)
C173 C -0.0314(3) 0.2994(2) 0.0249(2)
H145 H -0.0391 0.2927 0.0179
C174 C -0.0123(3) 0.2964(2) 0.0272(2)
H146 H -0.0066 0.2874 0.0212
C175 C -0.0582(3) 0.3193(3) 0.0329(3)
H147 H -0.0671 0.3125 0.0271
C176 C -0.0830(3) 0.3373(3) 0.0404(4)
C177 C -0.0907(4) 0.3467(3) 0.0275(3)
H148 H -0.0832 0.3493 0.0181
C178 C -0.1094(4) 0.3523(3) 0.0283(3)
H149 H -0.1146 0.3587 0.0195
C179 C -0.1204(3) 0.3484(3) 0.0421(4)
C180 C -0.1127(4) 0.3391(3) 0.0550(3)
H150 H -0.1202 0.3364 0.0644
C181 C -0.0940(4) 0.3335(3) 0.0542(3)
H151 H -0.0888 0.3271 0.0630
C182 C -0.1428(4) 0.3509(4) 0.0393(4)
H152 H -0.1474 0.3601 0.0464
H153 H -0.1494 0.3405 0.0421
H154 H -0.1452 0.3538 0.0277
C183 C 0.1049(3) 0.4030(2) -0.0271(3)
H155 H 0.1045 0.4109 -0.0364
H156 H 0.1164 0.4050 -0.0205
H157 H 0.0937 0.4045 -0.0201
C184 C 0.1053(3) 0.3844(3) -0.0339(3)
C185 C 0.0996(3) 0.3826(3) -0.0493(3)
H158 H 0.0967 0.3924 -0.0556
C186 C 0.0975(3) 0.3659(3) -0.0571(3)
H159 H 0.0931 0.3643 -0.0681
C187 C 0.1025(3) 0.3534(3) -0.0472(3)
C188 C 0.1093(3) 0.3547(3) -0.0325(3)
H160 H 0.1134 0.3450 -0.0265
C189 C 0.1107(3) 0.3714(3) -0.0252(3)
H161 H 0.1154 0.3728 -0.0143
C190 C 0.1024(3) 0.3310(2) -0.0682(3)
H162 H 0.1094 0.3379 -0.0756
C191 C 0.0957(3) 0.3147(2) -0.0734(3)
C192 C 0.0786(3) 0.2913(3) -0.0661(2)
H163 H 0.0717 0.2852 -0.0579
C193 C 0.0804(3) 0.2840(3) -0.0823(3)
C194 C 0.0919(4) 0.2947(3) -0.0949(3)
H164 H 0.0938 0.2911 -0.1060
C195 C 0.0988(3) 0.3093(3) -0.0893(3)
H165 H 0.1062 0.3161 -0.0965
C196 C 0.0711(3) 0.2678(3) -0.0878(3)
C197 C 0.0722(3) 0.2536(3) -0.0768(3)
H166 H 0.0800 0.2544 -0.0672
C198 C 0.0543(3) 0.2384(3) -0.0941(3)
C199 C 0.0533(3) 0.2520(3) -0.1066(3)
H167 H 0.0467 0.2507 -0.1168
C200 C 0.0623(3) 0.2662(3) -0.1025(3)
H168 H 0.0625 0.2753 -0.1102
C201 C 0.0425(3) 0.2231(3) -0.0971(3)
H169 H 0.0339 0.2226 -0.1062
C202 C 0.0349(4) 0.1958(4) -0.0906(3)
C203 C 0.0271(3) 0.1863(3) -0.0775(3)
H170 H 0.0280 0.1905 -0.0665
C204 C 0.0178(3) 0.1703(3) -0.0804(3)
H171 H 0.0119 0.1641 -0.0718
C205 C 0.0179(3) 0.1647(3) -0.0968(3)
C206 C 0.0250(3) 0.1740(3) -0.1109(3)
H172 H 0.0228 0.1704 -0.1220
C207 C 0.0350(3) 0.1884(3) -0.1072(3)
H173 H 0.0423 0.1936 -0.1156
C208 C 0.0065(3) 0.1470(3) -0.1006(3)
H174 H -0.0070 0.1485 -0.0981
H175 H 0.0117 0.1380 -0.0936
H176 H 0.0080 0.1439 -0.1122
C209 C 0.1739(3) 0.2875(3) -0.0228(3)
H177 H 0.1776 0.2852 -0.0113
H178 H 0.1809 0.2973 -0.0269
H179 H 0.1768 0.2776 -0.0296
C210 C 0.1521(4) 0.2912(3) -0.0235(3)
C211 C 0.1401(4) 0.2794(3) -0.0185(3)
H180 H 0.1449 0.2691 -0.0141
C212 C 0.1202(4) 0.2818(3) -0.0196(3)
H181 H 0.1117 0.2732 -0.0164
C213 C 0.1136(4) 0.2968(3) -0.0254(3)
C214 C 0.1265(4) 0.3088(3) -0.0313(3)
H182 H 0.1216 0.3189 -0.0360
C215 C 0.1468(4) 0.3068(3) -0.0306(3)
H183 H 0.1556 0.3150 -0.0345
C216 C 0.0833(3) 0.2926(2) -0.0170(2)
H184 H 0.0887 0.2850 -0.0093
C217 C 0.0629(3) 0.2941(2) -0.0183(2)
C218 C 0.0375(3) 0.3058(2) -0.0325(2)
H185 H 0.0331 0.3131 -0.0411
C219 C 0.0245(3) 0.2978(2) -0.0234(2)
C220 C 0.0315(3) 0.2876(2) -0.0103(2)
H186 H 0.0227 0.2822 -0.0031
C221 C 0.0504(3) 0.2854(2) -0.0078(2)
H187 H 0.0549 0.2782 0.0007
C222 C 0.0041(3) 0.2997(2) -0.0258(2)
C223 C -0.0031(3) 0.3128(2) -0.0349(2)
H188 H 0.0056 0.3209 -0.0391
C224 C -0.0339(3) 0.3035(3) -0.0315(2)
C225 C -0.0285(3) 0.2895(3) -0.0221(2)
H189 H -0.0376 0.2816 -0.0181
C226 C -0.0091(3) 0.2875(2) -0.0190(2)
H190 H -0.0047 0.2783 -0.0124
C227 C -0.0545(3) 0.3066(3) -0.0359(3)
H191 H -0.0643 0.2999 -0.0313
C228 C -0.0779(2) 0.3203(3) -0.0496(2)
C229 C -0.0856(3) 0.3365(3) -0.0498(2)
H192 H -0.0779 0.3459 -0.0471
C230 C -0.1045(4) 0.3388(2) -0.0541(2)
H193 H -0.1097 0.3498 -0.0543
C231 C -0.1157(2) 0.3250(3) -0.0582(2)
C232 C -0.1080(3) 0.3088(3) -0.0580(2)
H194 H -0.1157 0.2993 -0.0608
C233 C -0.0891(4) 0.3065(2) -0.0537(2)
H195 H -0.0839 0.2954 -0.0536
C234 C -0.1377(4) 0.3314(4) -0.0595(4)
H196 H -0.1382 0.3437 -0.0580
H197 H -0.1453 0.3259 -0.0509
H198 H -0.1428 0.3284 -0.0704
C235 C 0.1657(5) 0.2221(5) -0.0467(4)
H199 H 0.1698 0.2106 -0.0494
H200 H 0.1701 0.2251 -0.0356
H201 H 0.1710 0.2300 -0.0548
C236 C 0.1432(7) 0.2231(7) -0.0473(5)
C237 C 0.1340(7) 0.2084(6) -0.0505(5)
H202 H 0.1406 0.1980 -0.0518
C238 C 0.1144(7) 0.2094(6) -0.0518(5)
H203 H 0.1078 0.1994 -0.0545
C239 C 0.1038(7) 0.2241(7) -0.0495(5)
C240 C 0.1157(7) 0.2375(6) -0.0434(5)
H204 H 0.1097 0.2475 -0.0397
C241 C 0.1351(7) 0.2369(6) -0.0426(5)
H205 H 0.1422 0.2463 -0.0388
C242 C 0.0761(3) 0.2303(3) -0.0363(3)
H206 H 0.0836 0.2338 -0.0272
C243 C 0.0545(3) 0.2320(2) -0.0362(2)
C244 C 0.0273(3) 0.2264(2) -0.0498(2)
H207 H 0.0210 0.2214 -0.0590
C245 C 0.0160(3) 0.2346(2) -0.0386(2)
C246 C 0.0261(3) 0.2418(2) -0.0251(2)
H208 H 0.0194 0.2478 -0.0167
C247 C 0.0455(3) 0.2401(2) -0.0239(2)
H209 H 0.0523 0.2445 -0.0147
C248 C -0.0043(3) 0.2364(2) -0.0401(2)
C249 C -0.0134(3) 0.2331(2) -0.0553(3)
H210 H -0.0059 0.2296 -0.0645
C250 C -0.0435(3) 0.2389(3) -0.0437(3)
C251 C -0.0361(3) 0.2422(3) -0.0282(3)
H211 H -0.0438 0.2453 -0.0190
C252 C -0.0161(3) 0.2408(2) -0.0271(3)
H212 H -0.0104 0.2429 -0.0167
C253 C -0.0639(4) 0.2401(3) -0.0470(4)
H213 H -0.0723 0.2442 -0.0388
C254 C -0.1015(3) 0.2239(2) -0.0648(2)
H214 H -0.0954 0.2133 -0.0636
C255 C -0.1210(3) 0.2246(3) -0.0672(3)
H215 H -0.1282 0.2145 -0.0676
C256 C -0.1299(2) 0.2402(4) -0.0690(2)
C257 C -0.1194(3) 0.2550(3) -0.0684(3)
H216 H -0.1255 0.2656 -0.0696
C258 C -0.0999(3) 0.2543(2) -0.0660(2)
H217 H -0.0927 0.2644 -0.0655
C259 C -0.0910(2) 0.2387(2) -0.06416(13)
C260 C -0.1499(3) 0.2482(4) -0.0704(4)
H218 H -0.1489 0.2605 -0.0690
H219 H -0.1582 0.2435 -0.0618
H220 H -0.1553 0.2457 -0.0813
C261 C -0.0253(4) 0.1105(3) -0.0363(3)
H221 H -0.0359 0.1103 -0.0440
H222 H -0.0226 0.0989 -0.0325
H223 H -0.0140 0.1150 -0.0418
C262 C -0.0303(4) 0.1215(4) -0.0215(3)
C263 C -0.0289(3) 0.1379(4) -0.0215(3)
H224 H -0.0243 0.1434 -0.0311
C264 C -0.0339(3) 0.1480(3) -0.0078(3)
H225 H -0.0319 0.1598 -0.0084
C265 C -0.0412(3) 0.1416(3) 0.0058(3)
C266 C -0.0434(3) 0.1250(3) 0.0072(3)
H226 H -0.0481 0.1200 0.0171
C267 C -0.0385(4) 0.1150(4) -0.0065(3)
H227 H -0.0408 0.1031 -0.0058
C268 C -0.0460(3) 0.1482(3) 0.0333(3)
H228 H -0.0395 0.1381 0.0360
C269 C -0.0537(3) 0.1585(3) 0.0464(3)
C270 C -0.0676(3) 0.1841(3) 0.0541(3)
H229 H -0.0724 0.1949 0.0509
C271 C -0.0676(3) 0.1805(3) 0.0704(2)
C272 C -0.0605(3) 0.1651(3) 0.0750(3)
H230 H -0.0608 0.1621 0.0864
C273 C -0.0528(3) 0.1535(3) 0.0634(3)
H231 H -0.0474 0.1430 0.0667
C274 C -0.0738(3) 0.1920(3) 0.0823(3)
C275 C -0.0704(3) 0.2104(3) 0.0808(3)
H232 H -0.0637 0.2138 0.0711
C276 C -0.0855(4) 0.2170(3) 0.1045(3)
C277 C -0.0893(4) 0.1999(4) 0.1076(3)
H233 H -0.0959 0.1966 0.1173
C278 C -0.0835(3) 0.1879(3) 0.0964(3)
H234 H -0.0863 0.1763 0.0985
C279 C -0.0906(3) 0.2309(3) 0.1156(3)
H235 H -0.0971 0.2286 0.1256
C280 C -0.0916(5) 0.2604(5) 0.1222(5)
C281 C -0.0974(4) 0.2738(4) 0.1147(4)
H236 H -0.0976 0.2750 0.1030
C282 C -0.1037(4) 0.2878(4) 0.1267(4)
H237 H -0.1105 0.2973 0.1227
C283 C -0.0999(4) 0.2866(4) 0.1417(5)
C284 C -0.0926(4) 0.2729(4) 0.1501(4)
H238 H -0.0907 0.2729 0.1618
C285 C -0.0879(4) 0.2580(4) 0.1395(4)
H239 H -0.0830 0.2477 0.1438
C286 C -0.1071(4) 0.3022(4) 0.1542(3)
H240 H -0.0970 0.3049 0.1621
H241 H -0.1184 0.2986 0.1603
H242 H -0.1101 0.3122 0.1476
C287 C -0.1103(3) 0.1250(3) 0.0792(2)
H243 H -0.1118 0.1127 0.0778
H244 H -0.1222 0.1298 0.0833
H245 H -0.1001 0.1273 0.0871
C288 C -0.1052(3) 0.1333(3) 0.0618(3)
C289 C -0.1070(3) 0.1501(3) 0.0596(3)
H246 H -0.1119 0.1569 0.0683
C290 C -0.1018(3) 0.1575(3) 0.0448(3)
H247 H -0.1041 0.1692 0.0431
C291 C -0.0935(3) 0.1481(3) 0.0326(3)
C292 C -0.0900(3) 0.1299(3) 0.0343(3)
H248 H -0.0845 0.1228 0.0261
C293 C -0.0962(3) 0.1246(3) 0.0501(3)
H249 H -0.0936 0.1131 0.0527
C294 C -0.0911(3) 0.1484(3) 0.0041(3)
H250 H -0.0991 0.1387 0.0036
C295 C -0.0835(3) 0.1554(3) -0.0110(3)
C296 C -0.0636(3) 0.1774(3) -0.0228(3)
H251 H -0.0569 0.1877 -0.0216
C297 C -0.0652(4) 0.1704(3) -0.0391(3)
C298 C -0.0787(4) 0.1557(4) -0.0413(4)
H252 H -0.0824 0.1516 -0.0519
C299 C -0.0854(4) 0.1486(4) -0.0262(4)
H253 H -0.0918 0.1381 -0.0270
C300 C -0.0546(3) 0.1770(3) -0.0530(3)
C301 C -0.0556(3) 0.1941(3) -0.0552(3)
H254 H -0.0625 0.2010 -0.0477
C302 C -0.0350(4) 0.1906(4) -0.0775(3)
C303 C -0.0349(3) 0.1733(3) -0.0758(3)
H255 H -0.0283 0.1659 -0.0831
C304 C -0.0452(3) 0.1678(3) -0.0626(3)
H256 H -0.0453 0.1560 -0.0604
C305 C -0.0236(4) 0.2006(4) -0.0910(3)
H257 H -0.0151 0.1948 -0.0982
C306 C -0.0147(4) 0.2242(4) -0.1050(4)
C307 C -0.0064(3) 0.2407(3) -0.1012(3)
H258 H -0.0065 0.2452 -0.0903
C308 C 0.0017(4) 0.2497(3) -0.1142(3)
H259 H 0.0064 0.2607 -0.1124
C309 C 0.0030(4) 0.2425(4) -0.1303(3)
C310 C -0.0040(4) 0.2257(3) -0.1335(3)
H260 H -0.0014 0.2202 -0.1437
C311 C -0.0147(4) 0.2177(3) -0.1209(3)
H261 H -0.0220 0.2078 -0.1234
C312 C 0.0134(3) 0.2524(3) -0.1444(3)
H262 H 0.0265 0.2482 -0.1454
H263 H 0.0137 0.2644 -0.1417
H264 H 0.0067 0.2506 -0.1549
C313 C -0.0348(3) 0.1704(3) 0.1345(3)
H265 H -0.0464 0.1670 0.1403
H266 H -0.0239 0.1690 0.1418
H267 H -0.0332 0.1634 0.1246
C314 C -0.0364(3) 0.1898(3) 0.1291(3)
C315 C -0.0429(3) 0.2014(3) 0.1399(3)
H268 H -0.0453 0.1980 0.1510
C316 C -0.0459(3) 0.2176(3) 0.1354(3)
H269 H -0.0506 0.2257 0.1431
C317 C -0.0418(3) 0.2221(3) 0.1182(3)
C318 C -0.0360(3) 0.2102(3) 0.1079(3)
H270 H -0.0338 0.2130 0.0967
C319 C -0.0331(3) 0.1944(3) 0.1129(3)
H271 H -0.0288 0.1861 0.1052
C320 C -0.0401(3) 0.2526(3) 0.1233(3)
H272 H -0.0335 0.2510 0.1334
C321 C -0.0457(3) 0.2696(3) 0.1167(3)
C322 C -0.0575(3) 0.2865(3) 0.0959(3)
H273 H -0.0628 0.2880 0.0852
C323 C -0.0529(3) 0.3003(3) 0.1054(3)
C324 C -0.0456(3) 0.2990(3) 0.1196(3)
H274 H -0.0430 0.3089 0.1257
C325 C -0.0413(3) 0.2831(3) 0.1264(3)
H275 H -0.0356 0.2819 0.1370
C326 C -0.0563(4) 0.3170(3) 0.0972(3)
C327 C -0.0519(3) 0.3202(4) 0.0807(3)
H276 H -0.0477 0.3113 0.0737
C328 C -0.0614(4) 0.3492(4) 0.0822(4)
C329 C -0.0659(5) 0.3474(5) 0.0977(5)
H277 H -0.0707 0.3570 0.1032
C330 C -0.0640(5) 0.3299(5) 0.1084(5)
H278 H -0.0673 0.3284 0.1197
C331 C -0.0615(4) 0.3658(4) 0.0771(4)
H279 H -0.0651 0.3751 0.0839
C332 C -0.0553(3) 0.3832(2) 0.0545(3)
C333 C -0.0471(3) 0.3967(3) 0.06277(19)
H280 H -0.0427 0.3954 0.0738
C334 C -0.0452(3) 0.4123(2) 0.0549(3)
H281 H -0.0396 0.4215 0.0605
C335 C -0.0516(3) 0.4142(2) 0.0387(3)
C336 C -0.0598(3) 0.4007(3) 0.03044(19)
H282 H -0.0641 0.4020 0.0194
C337 C -0.0616(3) 0.3851(2) 0.0383(3)
H283 H -0.0672 0.3759 0.0327
C338 C -0.0482(4) 0.4333(4) 0.0299(4)
H284 H -0.0580 0.4411 0.0339
H285 H -0.0491 0.4322 0.0179
H286 H -0.0357 0.4376 0.0330
C339 C 0.0003(3) 0.3516(3) 0.1321(3)
H287 H -0.0117 0.3530 0.1380
H288 H 0.0095 0.3600 0.1361
H289 H 0.0052 0.3402 0.1340
C340 C -0.0029(4) 0.3542(3) 0.1140(3)
C341 C -0.0028(3) 0.3704(3) 0.1060(3)
H290 H 0.0016 0.3800 0.1119
C342 C -0.0093(3) 0.3722(3) 0.0900(3)
H291 H -0.0114 0.3830 0.0852
C343 C -0.0128(4) 0.3561(4) 0.0802(4)
C344 C -0.0113(3) 0.3401(3) 0.0879(3)
H292 H -0.0135 0.3300 0.0818
C345 C -0.0069(3) 0.3395(3) 0.1030(3)
H293 H -0.0062 0.3286 0.1078
C346 C -0.0113(3) 0.3686(3) 0.05339(17)
H294 H -0.0018 0.3760 0.0576
N2 N -0.03045(17) 0.35841(13) 0.03123(16)
C347 C -0.03611(16) 0.35818(14) 0.01476(18)
H295 H -0.0449 0.3499 0.0110
C348 C -0.0289(2) 0.37006(18) 0.00374(13)
C349 C -0.01612(19) 0.38216(15) 0.00919(15)
H296 H -0.0112 0.3903 0.0017
C350 C -0.01046(17) 0.38239(15) 0.02567(17)
H297 H -0.0017 0.3907 0.0294
C351 C -0.01762(19) 0.37052(17) 0.03668(12)
C352 C -0.0347(3) 0.3690(3) -0.0137(3)
C353 C -0.0362(3) 0.3537(3) -0.0224(3)
H298 H -0.0352 0.3434 -0.0164
C354 C -0.0431(3) 0.3676(4) -0.0468(3)
C355 C -0.0428(3) 0.3827(3) -0.0392(3)
H299 H -0.0455 0.3926 -0.0455
C356 C -0.0388(3) 0.3843(3) -0.0228(3)
H300 H -0.0387 0.3950 -0.0175
C357 C -0.0477(4) 0.3635(4) -0.0652(3)
H301 H -0.0506 0.3729 -0.0720
C358 C -0.0522(3) 0.3469(3) -0.0878(2)
C359 C -0.0437(3) 0.3563(2) -0.1003(3)
H302 H -0.0356 0.3654 -0.0976
C360 C -0.0472(3) 0.3524(3) -0.1168(3)
H303 H -0.0414 0.3588 -0.1253
C361 C -0.0592(3) 0.3390(3) -0.1208(2)
C362 C -0.0677(3) 0.3296(2) -0.1083(3)
H304 H -0.0758 0.3205 -0.1110
C363 C -0.0642(3) 0.3336(3) -0.0918(3)
H305 H -0.0700 0.3272 -0.0832
C364 C -0.0644(4) 0.3358(4) -0.1400(4)
H306 H -0.0617 0.3240 -0.1428
H307 H -0.0568 0.3432 -0.1470
H308 H -0.0779 0.3381 -0.1417
C365 C 0.0191(5) 0.4056(4) -0.0370(4)
H309 H 0.0327 0.4048 -0.0352
H310 H 0.0126 0.4067 -0.0264
H311 H 0.0163 0.4155 -0.0439
C366 C 0.0121(2) 0.3896(2) -0.0458(3)
C367 C 0.0077(2) 0.3882(2) -0.0625(2)
H312 H 0.0087 0.3979 -0.0695
C368 C 0.0018(2) 0.3728(3) -0.06901(18)
H313 H -0.0012 0.3719 -0.0804
C369 C 0.0004(2) 0.3588(2) -0.0588(3)
C370 C 0.0048(2) 0.3601(2) -0.0421(2)
H314 H 0.0038 0.3505 -0.0351
C371 C 0.0107(2) 0.3755(3) -0.03560(18)
H315 H 0.0137 0.3764 -0.0242
C372 C -0.0038(3) 0.3368(3) -0.0791(3)
H316 H 0.0058 0.3419 -0.0857
C373 C -0.0137(3) 0.3221(3) -0.0851(3)
C374 C -0.0357(3) 0.3013(3) -0.0799(3)
H317 H -0.0451 0.2965 -0.0729
C375 C -0.0318(3) 0.2933(3) -0.0947(3)
C376 C -0.0176(3) 0.3013(3) -0.1041(3)
H318 H -0.0140 0.2960 -0.1141
C377 C -0.0087(3) 0.3157(3) -0.0999(3)
H319 H 0.0004 0.3210 -0.1069
C378 C -0.0398(2) 0.27748(16) -0.0991(2)
C379 C -0.0420(2) 0.2649(2) -0.08726(16)
H320 H -0.0379 0.2669 -0.0762
N3 N -0.0502(2) 0.24959(18) -0.0915(2)
C380 C -0.0562(2) 0.24678(18) -0.1077(2)
C381 C -0.0539(2) 0.2593(3) -0.11957(16)
H321 H -0.0580 0.2574 -0.1306
C382 C -0.0457(2) 0.2747(2) -0.1153(2)
H322 H -0.0442 0.2832 -0.1234
C383 C -0.0633(2) 0.2300(2) -0.1107(4)
H323 H -0.0676 0.2271 -0.1215
C384 C -0.0725(5) 0.2032(3) -0.1021(6)
C385 C -0.0688(4) 0.1947(6) -0.1168(5)
H324 H -0.0611 0.1998 -0.1251
C386 C -0.0762(5) 0.1786(5) -0.1194(4)
H325 H -0.0737 0.1728 -0.1294
C387 C -0.0874(5) 0.1711(3) -0.1073(6)
C388 C -0.0912(4) 0.1797(6) -0.0926(5)
H326 H -0.0989 0.1745 -0.0844
C389 C -0.0837(5) 0.1957(6) -0.0900(4)
H327 H -0.0863 0.2015 -0.0800
C390 C -0.0989(6) 0.1545(4) -0.1072(6)
H328 H -0.0965 0.1483 -0.1175
H329 H -0.1124 0.1571 -0.1062
H330 H -0.0949 0.1476 -0.0977
N4 N 0.0569(2) 0.1305(2) 0.0241(2)
N5 N 0.0479(2) 0.15384(19) 0.04702(19)
N6 N 0.0349(2) 0.20155(19) 0.09867(19)
N7 N 0.0194(2) 0.2245(2) 0.1196(2)
N8 N 0.0194(2) 0.14144(18) 0.01940(19)
N9 N 0.0403(2) 0.15293(18) -0.00484(19)
N10 N 0.0685(3) 0.1901(2) -0.06141(19)
N11 N 0.0847(3) 0.2064(2) -0.0859(2)
N12 N 0.0697(2) 0.1711(2) 0.0199(2)
N13 N 0.0329(2) 0.17972(18) 0.01940(18)
N14 N -0.0445(2) 0.19254(19) 0.01314(18)
N15 N -0.0811(2) 0.1965(3) 0.0160(2)
N16 N 0.0596(2) 0.2178(2) 0.1261(2)
N17 N 0.0556(2) 0.2490(2) 0.11396(19)
N18 N 0.0571(2) 0.3147(2) 0.08713(17)
N19 N 0.0482(2) 0.34459(18) 0.0733(2)
N20 N 0.0682(2) 0.2262(2) 0.0876(2)
N21 N 0.0331(2) 0.23540(16) 0.08239(17)
N22 N -0.0439(2) 0.24782(19) 0.07363(18)
N23 N -0.0810(2) 0.25312(18) 0.07330(14)
N24 N 0.0877(2) 0.34212(18) 0.0787(2)
N25 N 0.07201(19) 0.33839(19) -0.02343(18)
N26 N 0.0581(2) 0.3362(2) -0.05419(19)
N27 N 0.0859(2) 0.30482(17) 0.05872(18)
N28 N 0.0496(2) 0.31097(19) 0.05073(17)
N29 N -0.0285(2) 0.3236(2) 0.0436(2)
N30 N -0.0634(2) 0.3325(2) 0.0393(3)
N31 N 0.0986(2) 0.3363(2) -0.0530(2)
N32 N 0.0859(2) 0.30599(17) -0.06194(18)
N33 N 0.0628(2) 0.23997(19) -0.0796(2)
N34 N 0.0443(3) 0.2110(2) -0.08737(19)
N35 N 0.0939(2) 0.30102(19) -0.02587(18)
N36 N 0.0560(2) 0.30432(17) -0.03045(17)
N37 N -0.0217(2) 0.31514(19) -0.03820(17)
N38 N -0.0581(2) 0.3185(2) -0.0461(2)
N39 N 0.0835(2) 0.22409(19) -0.04889(19)
N40 N 0.0456(2) 0.22446(17) -0.04949(17)
N41 N -0.0320(3) 0.2346(2) -0.0571(2)
N42 N -0.0704(2) 0.2353(3) -0.06196(18)
N43 N -0.0477(2) 0.15249(19) 0.0186(2)
N44 N -0.0615(2) 0.1738(2) 0.04217(19)
N45 N -0.0752(2) 0.2222(2) 0.0908(2)
N46 N -0.0864(3) 0.2455(3) 0.1118(3)
N47 N -0.0870(2) 0.1551(2) 0.0179(2)
N48 N -0.0716(2) 0.1698(2) -0.0087(2)
N49 N -0.0464(3) 0.2011(3) -0.0687(3)
N50 N -0.0259(3) 0.2161(2) -0.0922(2)
N51 N -0.0454(2) 0.2393(2) 0.1130(2)
N52 N -0.0544(2) 0.2710(2) 0.1019(2)
N53 N -0.0538(3) 0.3365(3) 0.0744(3)
N54 N -0.0561(3) 0.3672(2) 0.0621(4)
N55 N -0.0179(2) 0.3574(2) 0.0624(2)
N56 N -0.0390(2) 0.3530(2) -0.0384(3)
N57 N -0.0480(3) 0.3497(2) -0.0719(2)
N58 N -0.0082(2) 0.3435(2) -0.0642(3)
N59 N -0.0271(2) 0.3153(2) -0.0748(2)
N60 N -0.0637(3) 0.2189(3) -0.0990(3)
Co1 Co 0.04505(4) 0.15545(4) 0.02075(4)
Co2 Co 0.04565(4) 0.22582(4) 0.10436(4)
Co3 Co 0.06840(4) 0.32586(4) 0.06502(4)
Co4 Co 0.07814(4) 0.31951(4) -0.04105(4)
Co5 Co 0.06516(5) 0.21571(4) -0.06764(4)
Co6 Co -0.06610(5) 0.17467(4) 0.01585(4)
Co7 Co -0.06473(5) 0.24656(5) 0.09309(5)
Co8 Co -0.04197(5) 0.34528(4) 0.05180(5)
Co9 Co -0.03437(5) 0.33212(4) -0.05461(4)
Co10 Co -0.04828(6) 0.22651(5) -0.07812(5)
loop_
_geom_bond_atom_site_label_1
_geom_bond_atom_site_label_2
_geom_bond_site_symmetry_1
_geom_bond_site_symmetry_2
C1 H1 1_555 1_555
H2 C1 1_555 1_555
H3 C1 1_555 1_555
C2 C1 1_555 1_555
C3 C2 1_555 1_555
H4 C3 1_555 1_555
C4 C3 1_555 1_555
H5 C4 1_555 1_555
C5 C4 1_555 1_555
C6 C5 1_555 1_555
H6 C6 1_555 1_555
C7 C2 1_555 1_555
H7 C7 1_555 1_555
C8 H8 1_555 1_555
C9 C8 1_555 1_555
C10 H9 1_555 1_555
C11 C10 1_555 1_555
C12 C11 1_555 1_555
H10 C12 1_555 1_555
C13 C9 1_555 1_555
H11 C13 1_555 1_555
C14 C11 1_555 1_555
C15 C14 1_555 1_555
H12 C15 1_555 1_555
C16 C17 1_555 1_555
C17 H13 1_555 1_555
C18 C14 1_555 1_555
H14 C18 1_555 1_555
C19 C16 1_555 1_555
H15 C19 1_555 1_555
C20 C21 1_555 1_555
C21 H16 1_555 1_555
C22 C21 1_555 1_555
H17 C22 1_555 1_555
C23 C22 1_555 1_555
C24 C23 1_555 1_555
H18 C24 1_555 1_555
C25 C20 1_555 1_555
H19 C25 1_555 1_555
C26 C23 1_555 1_555
H20 C26 1_555 1_555
H21 C26 1_555 1_555
H22 C26 1_555 1_555
C27 H23 1_555 1_555
H24 C27 1_555 1_555
H25 C27 1_555 1_555
C28 C27 1_555 1_555
C29 C28 1_555 1_555
H26 C29 1_555 1_555
C30 C29 1_555 1_555
H27 C30 1_555 1_555
C31 C30 1_555 1_555
C32 C31 1_555 1_555
H28 C32 1_555 1_555
C33 C28 1_555 1_555
H29 C33 1_555 1_555
C34 H30 1_555 1_555
C35 C34 1_555 1_555
C36 H31 1_555 1_555
C37 C36 1_555 1_555
C38 C37 1_555 1_555
H32 C38 1_555 1_555
C39 C35 1_555 1_555
H33 C39 1_555 1_555
C40 C37 1_555 1_555
C41 C40 1_555 1_555
H34 C41 1_555 1_555
C42 C43 1_555 1_555
C43 H35 1_555 1_555
C44 C40 1_555 1_555
H36 C44 1_555 1_555
C45 C42 1_555 1_555
H37 C45 1_555 1_555
C46 C47 1_555 1_555
C47 H38 1_555 1_555
C48 C47 1_555 1_555
H39 C48 1_555 1_555
C49 C48 1_555 1_555
C50 C49 1_555 1_555
H40 C50 1_555 1_555
C51 C46 1_555 1_555
H41 C51 1_555 1_555
C52 C49 1_555 1_555
H42 C52 1_555 1_555
H43 C52 1_555 1_555
H44 C52 1_555 1_555
C53 H45 1_555 1_555
H46 C53 1_555 1_555
H47 C53 1_555 1_555
C54 C53 1_555 1_555
C55 C54 1_555 1_555
H48 C55 1_555 1_555
C56 C55 1_555 1_555
H49 C56 1_555 1_555
C57 C56 1_555 1_555
C58 C57 1_555 1_555
H50 C58 1_555 1_555
C59 C54 1_555 1_555
H51 C59 1_555 1_555
C60 H52 1_555 1_555
C61 C60 1_555 1_555
C62 H53 1_555 1_555
C63 C62 1_555 1_555
C64 C63 1_555 1_555
H54 C64 1_555 1_555
C65 C61 1_555 1_555
H55 C65 1_555 1_555
C66 C63 1_555 1_555
C67 C66 1_555 1_555
H56 C67 1_555 1_555
C68 C69 1_555 1_555
C69 H57 1_555 1_555
C70 C66 1_555 1_555
H58 C70 1_555 1_555
C71 C68 1_555 1_555
H59 C71 1_555 1_555
C72 C73 1_555 1_555
C73 H60 1_555 1_555
C74 C73 1_555 1_555
H61 C74 1_555 1_555
C75 C74 1_555 1_555
C76 C75 1_555 1_555
H62 C76 1_555 1_555
C77 C72 1_555 1_555
H63 C77 1_555 1_555
C78 C75 1_555 1_555
H64 C78 1_555 1_555
H65 C78 1_555 1_555
H66 C78 1_555 1_555
C79 H67 1_555 1_555
H68 C79 1_555 1_555
H69 C79 1_555 1_555
C80 C79 1_555 1_555
C81 C80 1_555 1_555
H70 C81 1_555 1_555
C82 C81 1_555 1_555
H71 C82 1_555 1_555
C83 C82 1_555 1_555
C84 C83 1_555 1_555
H72 C84 1_555 1_555
C85 C80 1_555 1_555
H73 C85 1_555 1_555
C86 H74 1_555 1_555
C87 C86 1_555 1_555
C88 H75 1_555 1_555
C89 C88 1_555 1_555
C90 C89 1_555 1_555
H76 C90 1_555 1_555
C91 C87 1_555 1_555
H77 C91 1_555 1_555
C92 C89 1_555 1_555
C93 C92 1_555 1_555
H78 C93 1_555 1_555
C94 C95 1_555 1_555
C95 H79 1_555 1_555
C96 C92 1_555 1_555
H80 C96 1_555 1_555
C97 C94 1_555 1_555
H81 C97 1_555 1_555
C98 C99 1_555 1_555
C99 H82 1_555 1_555
C100 C99 1_555 1_555
H83 C100 1_555 1_555
C101 C100 1_555 1_555
C102 C101 1_555 1_555
H84 C102 1_555 1_555
C103 C98 1_555 1_555
H85 C103 1_555 1_555
C104 C101 1_555 1_555
H86 C104 1_555 1_555
H87 C104 1_555 1_555
H88 C104 1_555 1_555
C105 H89 1_555 1_555
H90 C105 1_555 1_555
H91 C105 1_555 1_555
C106 C105 1_555 1_555
C107 C106 1_555 1_555
H92 C107 1_555 1_555
C108 C107 1_555 1_555
H93 C108 1_555 1_555
C109 C108 1_555 1_555
C110 C109 1_555 1_555
H94 C110 1_555 1_555
C111 C106 1_555 1_555
H95 C111 1_555 1_555
C112 H96 1_555 1_555
C113 C112 1_555 1_555
C114 H97 1_555 1_555
C115 C114 1_555 1_555
C116 C115 1_555 1_555
H98 C116 1_555 1_555
C117 C113 1_555 1_555
H99 C117 1_555 1_555
C118 C115 1_555 1_555
C119 C118 1_555 1_555
H100 C119 1_555 1_555
C120 C121 1_555 1_555
C121 H101 1_555 1_555
C122 C118 1_555 1_555
H102 C122 1_555 1_555
C123 C120 1_555 1_555
H103 C123 1_555 1_555
C124 C125 1_555 1_555
C125 H104 1_555 1_555
C126 C125 1_555 1_555
H105 C126 1_555 1_555
C127 C126 1_555 1_555
C128 C127 1_555 1_555
H106 C128 1_555 1_555
C129 C124 1_555 1_555
H107 C129 1_555 1_555
C130 C127 1_555 1_555
H108 C130 1_555 1_555
H109 C130 1_555 1_555
H110 C130 1_555 1_555
C131 H111 1_555 1_555
H112 C131 1_555 1_555
H113 C131 1_555 1_555
C132 C131 1_555 1_555
C133 C132 1_555 1_555
H114 C133 1_555 1_555
C134 C133 1_555 1_555
H115 C134 1_555 1_555
C135 C134 1_555 1_555
C136 C135 1_555 1_555
H116 C136 1_555 1_555
C137 C132 1_555 1_555
H117 C137 1_555 1_555
C138 H118 1_555 1_555
N1 C139 1_555 1_555
C139 H119 1_555 1_555
C140 C139 1_555 1_555
C141 C140 1_555 1_555
H120 C141 1_555 1_555
C142 C141 1_555 1_555
H121 C142 1_555 1_555
C143 C138 1_555 1_555
C144 C140 1_555 1_555
C145 C144 1_555 1_555
H122 C145 1_555 1_555
C146 C147 1_555 1_555
C147 H123 1_555 1_555
C148 C144 1_555 1_555
H124 C148 1_555 1_555
C149 C146 1_555 1_555
H125 C149 1_555 1_555
C150 C151 1_555 1_555
C151 H126 1_555 1_555
C152 C151 1_555 1_555
H127 C152 1_555 1_555
C153 C152 1_555 1_555
C154 C153 1_555 1_555
H128 C154 1_555 1_555
C155 C150 1_555 1_555
H129 C155 1_555 1_555
C156 C153 1_555 1_555
H130 C156 1_555 1_555
H131 C156 1_555 1_555
H132 C156 1_555 1_555
C157 H133 1_555 1_555
H134 C157 1_555 1_555
H135 C157 1_555 1_555
C158 C157 1_555 1_555
C159 C158 1_555 1_555
H136 C159 1_555 1_555
C160 C159 1_555 1_555
H137 C160 1_555 1_555
C161 C160 1_555 1_555
C162 C161 1_555 1_555
H138 C162 1_555 1_555
C163 C158 1_555 1_555
H139 C163 1_555 1_555
C164 H140 1_555 1_555
C165 C164 1_555 1_555
C166 H141 1_555 1_555
C167 C166 1_555 1_555
C168 C167 1_555 1_555
H142 C168 1_555 1_555
C169 C165 1_555 1_555
H143 C169 1_555 1_555
C170 C167 1_555 1_555
C171 C170 1_555 1_555
H144 C171 1_555 1_555
C172 C173 1_555 1_555
C173 H145 1_555 1_555
C174 C170 1_555 1_555
H146 C174 1_555 1_555
C175 C172 1_555 1_555
H147 C175 1_555 1_555
C176 C177 1_555 1_555
C177 H148 1_555 1_555
C178 C177 1_555 1_555
H149 C178 1_555 1_555
C179 C178 1_555 1_555
C180 C179 1_555 1_555
H150 C180 1_555 1_555
C181 C176 1_555 1_555
H151 C181 1_555 1_555
C182 C179 1_555 1_555
H152 C182 1_555 1_555
H153 C182 1_555 1_555
H154 C182 1_555 1_555
C183 H155 1_555 1_555
H156 C183 1_555 1_555
H157 C183 1_555 1_555
C184 C183 1_555 1_555
C185 C184 1_555 1_555
H158 C185 1_555 1_555
C186 C185 1_555 1_555
H159 C186 1_555 1_555
C187 C186 1_555 1_555
C188 C187 1_555 1_555
H160 C188 1_555 1_555
C189 C184 1_555 1_555
H161 C189 1_555 1_555
C190 H162 1_555 1_555
C191 C190 1_555 1_555
C192 H163 1_555 1_555
C193 C192 1_555 1_555
C194 C193 1_555 1_555
H164 C194 1_555 1_555
C195 C191 1_555 1_555
H165 C195 1_555 1_555
C196 C193 1_555 1_555
C197 C196 1_555 1_555
H166 C197 1_555 1_555
C198 C199 1_555 1_555
C199 H167 1_555 1_555
C200 C196 1_555 1_555
H168 C200 1_555 1_555
C201 C198 1_555 1_555
H169 C201 1_555 1_555
C202 C203 1_555 1_555
C203 H170 1_555 1_555
C204 C203 1_555 1_555
H171 C204 1_555 1_555
C205 C204 1_555 1_555
C206 C205 1_555 1_555
H172 C206 1_555 1_555
C207 C202 1_555 1_555
H173 C207 1_555 1_555
C208 C205 1_555 1_555
H174 C208 1_555 1_555
H175 C208 1_555 1_555
H176 C208 1_555 1_555
C209 H177 1_555 1_555
H178 C209 1_555 1_555
H179 C209 1_555 1_555
C210 C209 1_555 1_555
C211 C210 1_555 1_555
H180 C211 1_555 1_555
C212 C211 1_555 1_555
H181 C212 1_555 1_555
C213 C212 1_555 1_555
C214 C213 1_555 1_555
H182 C214 1_555 1_555
C215 C210 1_555 1_555
H183 C215 1_555 1_555
C216 H184 1_555 1_555
C217 C216 1_555 1_555
C218 H185 1_555 1_555
C219 C218 1_555 1_555
C220 C219 1_555 1_555
H186 C220 1_555 1_555
C221 C217 1_555 1_555
H187 C221 1_555 1_555
C222 C219 1_555 1_555
C223 C222 1_555 1_555
H188 C223 1_555 1_555
C224 C225 1_555 1_555
C225 H189 1_555 1_555
C226 C222 1_555 1_555
H190 C226 1_555 1_555
C227 C224 1_555 1_555
H191 C227 1_555 1_555
C228 C229 1_555 1_555
C229 H192 1_555 1_555
C230 C229 1_555 1_555
H193 C230 1_555 1_555
C231 C230 1_555 1_555
C232 C231 1_555 1_555
H194 C232 1_555 1_555
C233 C228 1_555 1_555
H195 C233 1_555 1_555
C234 C231 1_555 1_555
H196 C234 1_555 1_555
H197 C234 1_555 1_555
H198 C234 1_555 1_555
C235 H199 1_555 1_555
H200 C235 1_555 1_555
H201 C235 1_555 1_555
C236 C235 1_555 1_555
C237 C236 1_555 1_555
H202 C237 1_555 1_555
C238 C237 1_555 1_555
H203 C238 1_555 1_555
C239 C238 1_555 1_555
C240 C239 1_555 1_555
H204 C240 1_555 1_555
C241 C236 1_555 1_555
H205 C241 1_555 1_555
C242 H206 1_555 1_555
C243 C242 1_555 1_555
C244 H207 1_555 1_555
C245 C244 1_555 1_555
C246 C245 1_555 1_555
H208 C246 1_555 1_555
C247 C243 1_555 1_555
H209 C247 1_555 1_555
C248 C245 1_555 1_555
C249 C248 1_555 1_555
H210 C249 1_555 1_555
C250 C251 1_555 1_555
C251 H211 1_555 1_555
C252 C248 1_555 1_555
H212 C252 1_555 1_555
C253 C250 1_555 1_555
H213 C253 1_555 1_555
C254 H214 1_555 1_555
C255 C254 1_555 1_555
H215 C255 1_555 1_555
C256 C255 1_555 1_555
C257 C256 1_555 1_555
H216 C257 1_555 1_555
C258 C257 1_555 1_555
H217 C258 1_555 1_555
C259 C254 1_555 1_555
C260 C256 1_555 1_555
H218 C260 1_555 1_555
H219 C260 1_555 1_555
H220 C260 1_555 1_555
C261 H221 1_555 1_555
H222 C261 1_555 1_555
H223 C261 1_555 1_555
C262 C261 1_555 1_555
C263 C262 1_555 1_555
H224 C263 1_555 1_555
C264 C263 1_555 1_555
H225 C264 1_555 1_555
C265 C264 1_555 1_555
C266 C265 1_555 1_555
H226 C266 1_555 1_555
C267 C262 1_555 1_555
H227 C267 1_555 1_555
C268 H228 1_555 1_555
C269 C268 1_555 1_555
C270 H229 1_555 1_555
C271 C270 1_555 1_555
C272 C271 1_555 1_555
H230 C272 1_555 1_555
C273 C269 1_555 1_555
H231 C273 1_555 1_555
C274 C271 1_555 1_555
C275 C274 1_555 1_555
H232 C275 1_555 1_555
C276 C277 1_555 1_555
C277 H233 1_555 1_555
C278 C274 1_555 1_555
H234 C278 1_555 1_555
C279 C276 1_555 1_555
H235 C279 1_555 1_555
C280 C281 1_555 1_555
C281 H236 1_555 1_555
C282 C281 1_555 1_555
H237 C282 1_555 1_555
C283 C282 1_555 1_555
C284 C283 1_555 1_555
H238 C284 1_555 1_555
C285 C280 1_555 1_555
H239 C285 1_555 1_555
C286 C283 1_555 1_555
H240 C286 1_555 1_555
H241 C286 1_555 1_555
H242 C286 1_555 1_555
C287 H243 1_555 1_555
H244 C287 1_555 1_555
H245 C287 1_555 1_555
C288 C287 1_555 1_555
C289 C288 1_555 1_555
H246 C289 1_555 1_555
C290 C289 1_555 1_555
H247 C290 1_555 1_555
C291 C290 1_555 1_555
C292 C291 1_555 1_555
H248 C292 1_555 1_555
C293 C288 1_555 1_555
H249 C293 1_555 1_555
C294 H250 1_555 1_555
C295 C294 1_555 1_555
C296 H251 1_555 1_555
C297 C296 1_555 1_555
C298 C297 1_555 1_555
H252 C298 1_555 1_555
C299 C295 1_555 1_555
H253 C299 1_555 1_555
C300 C297 1_555 1_555
C301 C300 1_555 1_555
H254 C301 1_555 1_555
C302 C303 1_555 1_555
C303 H255 1_555 1_555
C304 C300 1_555 1_555
H256 C304 1_555 1_555
C305 C302 1_555 1_555
H257 C305 1_555 1_555
C306 C307 1_555 1_555
C307 H258 1_555 1_555
C308 C307 1_555 1_555
H259 C308 1_555 1_555
C309 C308 1_555 1_555
C310 C309 1_555 1_555
H260 C310 1_555 1_555
C311 C306 1_555 1_555
H261 C311 1_555 1_555
C312 C309 1_555 1_555
H262 C312 1_555 1_555
H263 C312 1_555 1_555
H264 C312 1_555 1_555
C313 H265 1_555 1_555
H266 C313 1_555 1_555
H267 C313 1_555 1_555
C314 C313 1_555 1_555
C315 C314 1_555 1_555
H268 C315 1_555 1_555
C316 C315 1_555 1_555
H269 C316 1_555 1_555
C317 C316 1_555 1_555
C318 C317 1_555 1_555
H270 C318 1_555 1_555
C319 C314 1_555 1_555
H271 C319 1_555 1_555
C320 H272 1_555 1_555
C321 C320 1_555 1_555
C322 H273 1_555 1_555
C323 C322 1_555 1_555
C324 C323 1_555 1_555
H274 C324 1_555 1_555
C325 C321 1_555 1_555
H275 C325 1_555 1_555
C326 C323 1_555 1_555
C327 C326 1_555 1_555
H276 C327 1_555 1_555
C328 C329 1_555 1_555
C329 H277 1_555 1_555
C330 C326 1_555 1_555
H278 C330 1_555 1_555
C331 C328 1_555 1_555
H279 C331 1_555 1_555
C332 C333 1_555 1_555
C333 H280 1_555 1_555
C334 C333 1_555 1_555
H281 C334 1_555 1_555
C335 C334 1_555 1_555
C336 C335 1_555 1_555
H282 C336 1_555 1_555
C337 C332 1_555 1_555
H283 C337 1_555 1_555
C338 C335 1_555 1_555
H284 C338 1_555 1_555
H285 C338 1_555 1_555
H286 C338 1_555 1_555
C339 H287 1_555 1_555
H288 C339 1_555 1_555
H289 C339 1_555 1_555
C340 C339 1_555 1_555
C341 C340 1_555 1_555
H290 C341 1_555 1_555
C342 C341 1_555 1_555
H291 C342 1_555 1_555
C343 C342 1_555 1_555
C344 C343 1_555 1_555
H292 C344 1_555 1_555
C345 C340 1_555 1_555
H293 C345 1_555 1_555
C346 H294 1_555 1_555
N2 C347 1_555 1_555
C347 H295 1_555 1_555
C348 C347 1_555 1_555
C349 C348 1_555 1_555
H296 C349 1_555 1_555
C350 C349 1_555 1_555
H297 C350 1_555 1_555
C351 C346 1_555 1_555
C352 C348 1_555 1_555
C353 C352 1_555 1_555
H298 C353 1_555 1_555
C354 C355 1_555 1_555
C355 H299 1_555 1_555
C356 C352 1_555 1_555
H300 C356 1_555 1_555
C357 C354 1_555 1_555
H301 C357 1_555 1_555
C358 C359 1_555 1_555
C359 H302 1_555 1_555
C360 C359 1_555 1_555
H303 C360 1_555 1_555
C361 C360 1_555 1_555
C362 C361 1_555 1_555
H304 C362 1_555 1_555
C363 C358 1_555 1_555
H305 C363 1_555 1_555
C364 C361 1_555 1_555
H306 C364 1_555 1_555
H307 C364 1_555 1_555
H308 C364 1_555 1_555
C365 H309 1_555 1_555
H310 C365 1_555 1_555
H311 C365 1_555 1_555
C366 C365 1_555 1_555
C367 C366 1_555 1_555
H312 C367 1_555 1_555
C368 C367 1_555 1_555
H313 C368 1_555 1_555
C369 C368 1_555 1_555
C370 C369 1_555 1_555
H314 C370 1_555 1_555
C371 C366 1_555 1_555
H315 C371 1_555 1_555
C372 H316 1_555 1_555
C373 C372 1_555 1_555
C374 H317 1_555 1_555
C375 C374 1_555 1_555
C376 C375 1_555 1_555
H318 C376 1_555 1_555
C377 C373 1_555 1_555
H319 C377 1_555 1_555
C378 C375 1_555 1_555
C379 C378 1_555 1_555
H320 C379 1_555 1_555
N3 C379 1_555 1_555
C380 N3 1_555 1_555
C381 C380 1_555 1_555
H321 C381 1_555 1_555
C382 C378 1_555 1_555
H322 C382 1_555 1_555
C383 C380 1_555 1_555
H323 C383 1_555 1_555
C384 C385 1_555 1_555
C385 H324 1_555 1_555
C386 C385 1_555 1_555
H325 C386 1_555 1_555
C387 C386 1_555 1_555
C388 C387 1_555 1_555
H326 C388 1_555 1_555
C389 C384 1_555 1_555
H327 C389 1_555 1_555
C390 C387 1_555 1_555
H328 C390 1_555 1_555
H329 C390 1_555 1_555
H330 C390 1_555 1_555
C391 F42 1_555 1_555
C392 F45 1_555 1_555
C393 F48 1_555 1_555
C394 F51 1_555 1_555
C395 C396 1_555 1_555
C396 H331 1_555 1_555
H332 C396 1_555 1_555
H333 C396 1_555 1_555
C397 C398 1_555 1_555
C398 H334 1_555 1_555
H335 C398 1_555 1_555
H336 C398 1_555 1_555
C399 C400 1_555 1_555
C400 H337 1_555 1_555
H338 C400 1_555 1_555
H339 C400 1_555 1_555
C401 C402 1_555 1_555
C402 H340 1_555 1_555
H341 C402 1_555 1_555
H342 C402 1_555 1_555
C403 C404 1_555 1_555
C404 H343 1_555 1_555
H344 C404 1_555 1_555
H345 C404 1_555 1_555
N4 C5 1_555 1_555
N5 C9 1_555 1_555
N6 C15 1_555 1_555
N7 C19 1_555 1_555
N8 C31 1_555 1_555
N9 C35 1_555 1_555
N10 C41 1_555 1_555
N11 C45 1_555 1_555
N12 C57 1_555 1_555
N13 C61 1_555 1_555
N14 C67 1_555 1_555
N15 C71 1_555 1_555
N16 C83 1_555 1_555
N17 C87 1_555 1_555
N18 C93 1_555 1_555
N19 C97 1_555 1_555
N20 C109 1_555 1_555
N21 C113 1_555 1_555
N22 C119 1_555 1_555
N23 C123 1_555 1_555
N24 C135 1_555 1_555
N25 C145 1_555 1_555
N26 C149 1_555 1_555
N27 C161 1_555 1_555
N28 C165 1_555 1_555
N29 C171 1_555 1_555
N30 C175 1_555 1_555
N31 C187 1_555 1_555
N32 C191 1_555 1_555
N33 C197 1_555 1_555
N34 C201 1_555 1_555
N35 C213 1_555 1_555
N36 C217 1_555 1_555
N37 C223 1_555 1_555
N38 C227 1_555 1_555
N39 C239 1_555 1_555
N40 C243 1_555 1_555
N41 C249 1_555 1_555
N42 C253 1_555 1_555
N43 C265 1_555 1_555
N44 C269 1_555 1_555
N45 C275 1_555 1_555
N46 C279 1_555 1_555
N47 C291 1_555 1_555
N48 C295 1_555 1_555
N49 C301 1_555 1_555
N50 C305 1_555 1_555
N51 C317 1_555 1_555
N52 C321 1_555 1_555
N53 C327 1_555 1_555
N54 C331 1_555 1_555
N55 C343 1_555 1_555
N56 C353 1_555 1_555
N57 C357 1_555 1_555
N58 C369 1_555 1_555
N59 C373 1_555 1_555
N60 C383 1_555 1_555
N61 S1 1_555 1_555
N62 C399 1_555 1_555
N63 S3 1_555 1_555
N64 C397 1_555 1_555
N65 C401 1_555 1_555
N66 C395 1_555 1_555
N67 C403 1_555 1_555
F1 P1 1_555 1_555
F2 P1 1_555 1_555
F3 P1 1_555 1_555
F4 P1 1_555 1_555
F5 P1 1_555 1_555
F6 P1 1_555 1_555
F7 P2 1_555 1_555
F8 P2 1_555 1_555
F9 P2 1_555 1_555
F10 P2 1_555 1_555
F11 P2 1_555 1_555
F12 P2 1_555 1_555
F13 P4 1_555 1_555
F14 P4 1_555 1_555
F15 P4 1_555 1_555
F16 P4 1_555 1_555
F17 P4 1_555 1_555
F18 P4 1_555 1_555
F19 P6 1_555 1_555
F20 P6 1_555 1_555
F21 P6 1_555 1_555
F22 P6 1_555 1_555
F23 P6 1_555 1_555
F24 P5 1_555 1_555
F25 P6 1_555 1_555
F26 P5 1_555 1_555
F27 P5 1_555 1_555
F28 P5 1_555 1_555
F29 P5 1_555 1_555
F30 P5 1_555 1_555
F31 P3 1_555 1_555
F32 P3 1_555 1_555
F33 P3 1_555 1_555
F34 P3 1_555 1_555
F35 P3 1_555 1_555
F36 P3 1_555 1_555
F37 P7 1_555 1_555
F38 P7 1_555 1_555
F39 P7 1_555 1_555
F40 P7 1_555 1_555
F41 P7 1_555 1_555
F43 C391 1_555 1_555
F44 C391 1_555 1_555
F46 C392 1_555 1_555
F47 C392 1_555 1_555
F49 C393 1_555 1_555
F50 C393 1_555 1_555
F52 C394 1_555 1_555
F53 C394 1_555 1_555
F54 P7 1_555 1_555
F55 P8 1_555 1_555
F56 P8 1_555 1_555
F57 P8 1_555 1_555
P8 F55F 1_555 1_555
Co1 N4 1_555 1_555
Co2 N6 1_555 1_555
Co3 N1 1_555 1_555
Co4 N25 1_555 1_555
Co5 N10 1_555 1_555
Co6 N14 1_555 1_555
Co7 N22 1_555 1_555
Co8 N2 1_555 1_555
Co9 N37 1_555 1_555
Co10 N3 1_555 1_555
S1 C391 1_555 1_555
S2 C392 1_555 1_555
S3 C393 1_555 1_555
S4 C394 1_555 1_555
O1 S1 1_555 1_555
O2 S1 1_555 1_555
O3 S2 1_555 1_555
O4 S2 1_555 1_555
O5 S3 1_555 1_555
O6 S3 1_555 1_555
O7 S4 1_555 1_555
O8 S4 1_555 1_555
S5 O9 1_555 1_555
O10 S5 1_555 1_555
C405 S5 1_555 1_555
F58 C405 1_555 1_555
F59 C405 1_555 1_555
F60 C405 1_555 1_555
N68 S5 1_555 1_555
F56F P8 1_555 1_555
F57F P8 1_555 1_555
S5A N68 1_555 1_555
O9A S5A 1_555 1_555
O10A S5A 1_555 1_555
C405A S5A 1_555 1_555
F58A C405A 1_555 1_555
F59A C405A 1_555 1_555
F60A C405A 1_555 1_555
N68A S5 1_555 1_555
C6 C7 1_555 1_555
C8 N4 1_555 1_555
C10 N5 1_555 1_555
C12 C13 1_555 1_555
C16 N6 1_555 1_555
C17 C18 1_555 1_555
C20 N7 1_555 1_555
C24 C25 1_555 1_555
C32 C33 1_555 1_555
C34 N8 1_555 1_555
C36 N9 1_555 1_555
C38 C39 1_555 1_555
C42 N10 1_555 1_555
C43 C44 1_555 1_555
C46 N11 1_555 1_555
C50 C51 1_555 1_555
C58 C59 1_555 1_555
C60 N12 1_555 1_555
C62 N13 1_555 1_555
C64 C65 1_555 1_555
C68 N14 1_555 1_555
C69 C70 1_555 1_555
C72 N15 1_555 1_555
C76 C77 1_555 1_555
C84 C85 1_555 1_555
C86 N16 1_555 1_555
C88 N17 1_555 1_555
C90 C91 1_555 1_555
C94 N18 1_555 1_555
C95 C96 1_555 1_555
C98 N19 1_555 1_555
C102 C103 1_555 1_555
C110 C111 1_555 1_555
C112 N20 1_555 1_555
C114 N21 1_555 1_555
C116 C117 1_555 1_555
C120 N22 1_555 1_555
C121 C122 1_555 1_555
C124 N23 1_555 1_555
C128 C129 1_555 1_555
C136 C137 1_555 1_555
C138 N24 1_555 1_555
N1 C143 1_555 1_555
C142 C143 1_555 1_555
C146 N25 1_555 1_555
C147 C148 1_555 1_555
C150 N26 1_555 1_555
C154 C155 1_555 1_555
C162 C163 1_555 1_555
C164 N27 1_555 1_555
C166 N28 1_555 1_555
C168 C169 1_555 1_555
C172 N29 1_555 1_555
C173 C174 1_555 1_555
C176 N30 1_555 1_555
C180 C181 1_555 1_555
C188 C189 1_555 1_555
C190 N31 1_555 1_555
C192 N32 1_555 1_555
C194 C195 1_555 1_555
C198 N33 1_555 1_555
C199 C200 1_555 1_555
C202 N34 1_555 1_555
C206 C207 1_555 1_555
C214 C215 1_555 1_555
C216 N35 1_555 1_555
C218 N36 1_555 1_555
C220 C221 1_555 1_555
C224 N37 1_555 1_555
C225 C226 1_555 1_555
C228 N38 1_555 1_555
C232 C233 1_555 1_555
C240 C241 1_555 1_555
C242 N39 1_555 1_555
C244 N40 1_555 1_555
C246 C247 1_555 1_555
C250 N41 1_555 1_555
C251 C252 1_555 1_555
C258 C259 1_555 1_555
C259 N42 1_555 1_555
C266 C267 1_555 1_555
C268 N43 1_555 1_555
C270 N44 1_555 1_555
C272 C273 1_555 1_555
C276 N45 1_555 1_555
C277 C278 1_555 1_555
C280 N46 1_555 1_555
C284 C285 1_555 1_555
C292 C293 1_555 1_555
C294 N47 1_555 1_555
C296 N48 1_555 1_555
C298 C299 1_555 1_555
C302 N49 1_555 1_555
C303 C304 1_555 1_555
C306 N50 1_555 1_555
C310 C311 1_555 1_555
C318 C319 1_555 1_555
C320 N51 1_555 1_555
C322 N52 1_555 1_555
C324 C325 1_555 1_555
C328 N53 1_555 1_555
C329 C330 1_555 1_555
C332 N54 1_555 1_555
C336 C337 1_555 1_555
C344 C345 1_555 1_555
C346 N55 1_555 1_555
N2 C351 1_555 1_555
C350 C351 1_555 1_555
C354 N56 1_555 1_555
C355 C356 1_555 1_555
C358 N57 1_555 1_555
C362 C363 1_555 1_555
C370 C371 1_555 1_555
C372 N58 1_555 1_555
C374 N59 1_555 1_555
C376 C377 1_555 1_555
C381 C382 1_555 1_555
C384 N60 1_555 1_555
C388 C389 1_555 1_555
N5 Co1 1_555 1_555
N7 Co2 1_555 1_555
N8 Co1 1_555 1_555
N9 Co1 1_555 1_555
N11 Co5 1_555 1_555
N12 Co1 1_555 1_555
N13 Co1 1_555 1_555
N15 Co6 1_555 1_555
N16 Co2 1_555 1_555
N17 Co2 1_555 1_555
N18 Co3 1_555 1_555
N19 Co3 1_555 1_555
N20 Co2 1_555 1_555
N21 Co2 1_555 1_555
N23 Co7 1_555 1_555
N24 Co3 1_555 1_555
N26 Co4 1_555 1_555
N27 Co3 1_555 1_555
N28 Co3 1_555 1_555
N29 Co8 1_555 1_555
N30 Co8 1_555 1_555
N31 Co4 1_555 1_555
N32 Co4 1_555 1_555
N33 Co5 1_555 1_555
N34 Co5 1_555 1_555
N35 Co4 1_555 1_555
N36 Co4 1_555 1_555
N38 Co9 1_555 1_555
N39 Co5 1_555 1_555
N40 Co5 1_555 1_555
N41 Co10 1_555 1_555
N42 Co10 1_555 1_555
N43 Co6 1_555 1_555
N44 Co6 1_555 1_555
N45 Co7 1_555 1_555
N46 Co7 1_555 1_555
N47 Co6 1_555 1_555
N48 Co6 1_555 1_555
N49 Co10 1_555 1_555
N50 Co10 1_555 1_555
N51 Co7 1_555 1_555
N52 Co7 1_555 1_555
N53 Co8 1_555 1_555
N54 Co8 1_555 1_555
N55 Co8 1_555 1_555
N56 Co9 1_555 1_555
N57 Co9 1_555 1_555
N58 Co9 1_555 1_555
N59 Co9 1_555 1_555
N60 Co10 1_555 1_555
N61 S2 1_555 1_555
N63 S4 1_555 1_555
N68 N68A 1_555 1_555
S5A N68A 1_555 1_555

#END
