# generated using pymatgen
data_Co20P15H690C810S10N136Cl2(OF6)20
_symmetry_space_group_name_H-M   'P 1'
_cell_length_a   53.02652853
_cell_length_b   53.02652853
_cell_length_c   53.65141596
_cell_angle_alpha   115.96667581
_cell_angle_beta   115.96667581
_cell_angle_gamma   96.54501429
_symmetry_Int_Tables_number   1
_chemical_formula_structural   Co20P15H690C810S10N136Cl2(OF6)20
_chemical_formula_sum   'Co80 P60 H2760 C3240 S40 N544 Cl8 O80 F480'
_cell_volume   112879.64378754
_cell_formula_units_Z   4
loop_
 _symmetry_equiv_pos_site_id
 _symmetry_equiv_pos_as_xyz
  1  'x, y, z'
loop_
 _atom_site_type_symbol
 _atom_site_label
 _atom_site_symmetry_multiplicity
 _atom_site_fract_x
 _atom_site_fract_y
 _atom_site_fract_z
 _atom_site_occupancy
  C  C1  1  0.013300  0.061100  0.853800  1
  C  C2  1  0.340500  0.792700  0.853800  1
  C  C3  1  0.707300  0.159500  0.646200  1
  C  C4  1  0.438900  0.486700  0.646200  1
  C  C5  1  0.986700  0.938900  0.146200  1
  C  C6  1  0.659500  0.207300  0.146200  1
  C  C7  1  0.292700  0.840500  0.353800  1
  C  C8  1  0.561100  0.513300  0.353800  1
  C  C9  1  0.911300  0.075900  0.810800  1
  C  C10  1  0.399500  0.734900  0.810800  1
  C  C11  1  0.765100  0.100500  0.689200  1
  C  C12  1  0.424100  0.588700  0.689200  1
  C  C13  1  0.088700  0.924100  0.189200  1
  C  C14  1  0.600500  0.265100  0.189200  1
  C  C15  1  0.234900  0.899500  0.310800  1
  C  C16  1  0.575900  0.411300  0.310800  1
  C  C17  1  0.502300  0.181100  0.994600  1
  C  C18  1  0.992300  0.813500  0.994600  1
  C  C19  1  0.686500  0.507700  0.505400  1
  C  C20  1  0.318900  0.997700  0.505400  1
  C  C21  1  0.497700  0.818900  0.005400  1
  C  C22  1  0.007700  0.186500  0.005400  1
  C  C23  1  0.313500  0.492300  0.494600  1
  C  C24  1  0.681100  0.002300  0.494600  1
  C  C25  1  0.429500  0.155300  0.882400  1
  C  C26  1  0.952900  0.727100  0.882400  1
  C  C27  1  0.772900  0.547100  0.617600  1
  C  C28  1  0.344700  0.070500  0.617600  1
  C  C29  1  0.570500  0.844700  0.117600  1
  C  C30  1  0.047100  0.272900  0.117600  1
  C  C31  1  0.227100  0.452900  0.382400  1
  C  C32  1  0.655300  0.929500  0.382400  1
  C  C33  1  0.713400  0.118200  0.024400  1
  C  C34  1  0.811000  0.906200  0.024400  1
  C  C35  1  0.593800  0.689000  0.475600  1
  C  C36  1  0.381800  0.786600  0.475600  1
  C  C37  1  0.286600  0.881800  0.975600  1
  C  C38  1  0.189000  0.093800  0.975600  1
  C  C39  1  0.406200  0.311000  0.524400  1
  C  C40  1  0.618200  0.213400  0.524400  1
  C  C41  1  0.682900  0.098900  0.015200  1
  C  C42  1  0.832300  0.916300  0.015200  1
  C  C43  1  0.583700  0.667700  0.484800  1
  C  C44  1  0.401100  0.817100  0.484800  1
  C  C45  1  0.317100  0.901100  0.984800  1
  C  C46  1  0.167700  0.083700  0.984800  1
  C  C47  1  0.416300  0.332300  0.515200  1
  C  C48  1  0.598900  0.182900  0.515200  1
  C  C49  1  0.762400  0.409600  0.014600  1
  C  C50  1  0.752200  0.605000  0.014600  1
  C  C51  1  0.895000  0.747800  0.485400  1
  C  C52  1  0.090400  0.737600  0.485400  1
  C  C53  1  0.237600  0.590400  0.985400  1
  C  C54  1  0.247800  0.395000  0.985400  1
  C  C55  1  0.105000  0.252200  0.514600  1
  C  C56  1  0.909600  0.262400  0.514600  1
  C  C57  1  0.788500  0.426700  0.014000  1
  C  C58  1  0.725500  0.587300  0.014000  1
  C  C59  1  0.912700  0.774500  0.486000  1
  C  C60  1  0.073300  0.711500  0.486000  1
  C  C61  1  0.211500  0.573300  0.986000  1
  C  C62  1  0.274500  0.412700  0.986000  1
  C  C63  1  0.087300  0.225500  0.514000  1
  C  C64  1  0.926700  0.288500  0.514000  1
  C  C65  1  0.570100  0.173100  0.961800  1
  C  C66  1  0.891700  0.788700  0.961800  1
  C  C67  1  0.711300  0.608300  0.538200  1
  C  C68  1  0.326900  0.929900  0.538200  1
  C  C69  1  0.429900  0.826900  0.038200  1
  C  C70  1  0.108300  0.211300  0.038200  1
  C  C71  1  0.288700  0.391700  0.461800  1
  C  C72  1  0.673100  0.070100  0.461800  1
  C  C73  1  0.555800  0.144200  0.956400  1
  C  C74  1  0.900600  0.812200  0.956400  1
  C  C75  1  0.687800  0.599400  0.543600  1
  C  C76  1  0.355800  0.944200  0.543600  1
  C  C77  1  0.444200  0.855800  0.043600  1
  C  C78  1  0.099400  0.187800  0.043600  1
  C  C79  1  0.312200  0.400600  0.456400  1
  C  C80  1  0.644200  0.055800  0.456400  1
  C  C81  1  0.662300  0.061100  0.896800  1
  C  C82  1  0.734500  0.835700  0.896800  1
  C  C83  1  0.664300  0.765500  0.603200  1
  C  C84  1  0.438900  0.837700  0.603200  1
  C  C85  1  0.337700  0.938900  0.103200  1
  C  C86  1  0.265500  0.164300  0.103200  1
  C  C87  1  0.335700  0.234500  0.396800  1
  C  C88  1  0.561100  0.162300  0.396800  1
  C  C89  1  0.641500  0.046100  0.907000  1
  C  C90  1  0.765500  0.860900  0.907000  1
  C  C91  1  0.639100  0.734500  0.593000  1
  C  C92  1  0.453900  0.858500  0.593000  1
  C  C93  1  0.358500  0.953900  0.093000  1
  C  C94  1  0.234500  0.139100  0.093000  1
  C  C95  1  0.360900  0.265500  0.407000  1
  C  C96  1  0.546100  0.141500  0.407000  1
  C  C97  1  0.895600  0.335400  0.040200  1
  C  C98  1  0.644600  0.704800  0.040200  1
  C  C99  1  0.795200  0.855400  0.459800  1
  C  C100  1  0.164600  0.604400  0.459800  1
  C  C101  1  0.104400  0.664600  0.959800  1
  C  C102  1  0.355400  0.295200  0.959800  1
  C  C103  1  0.204800  0.144600  0.540200  1
  C  C104  1  0.835400  0.395600  0.540200  1
  C  C105  1  0.902200  0.357200  0.030000  1
  C  C106  1  0.627800  0.672800  0.030000  1
  C  C107  1  0.827200  0.872200  0.470000  1
  C  C108  1  0.142800  0.597800  0.470000  1
  C  C109  1  0.097800  0.642800  0.970000  1
  C  C110  1  0.372200  0.327200  0.970000  1
  C  C111  1  0.172800  0.127800  0.530000  1
  C  C112  1  0.857200  0.402200  0.530000  1
  C  C113  1  0.879800  0.040000  0.054200  1
  C  C114  1  0.674400  0.014200  0.054200  1
  C  C115  1  0.485800  0.825600  0.445800  1
  C  C116  1  0.460000  0.620200  0.445800  1
  C  C117  1  0.120200  0.960000  0.945800  1
  C  C118  1  0.325600  0.985800  0.945800  1
  C  C119  1  0.514200  0.174400  0.554200  1
  C  C120  1  0.540000  0.379800  0.554200  1
  C  C121  1  0.855300  0.043500  0.028000  1
  C  C122  1  0.672700  0.984500  0.028000  1
  C  C123  1  0.515500  0.827300  0.472000  1
  C  C124  1  0.456500  0.644700  0.472000  1
  C  C125  1  0.144700  0.956500  0.972000  1
  C  C126  1  0.327300  0.015500  0.972000  1
  C  C127  1  0.484500  0.172700  0.528000  1
  C  C128  1  0.543500  0.355300  0.528000  1
  C  C129  1  0.855100  0.035100  0.999400  1
  C  C130  1  0.644300  0.964300  0.999400  1
  C  C131  1  0.535700  0.855700  0.500600  1
  C  C132  1  0.464900  0.644900  0.500600  1
  C  C133  1  0.144900  0.964900  0.000600  1
  C  C134  1  0.355700  0.035700  0.000600  1
  C  C135  1  0.464300  0.144300  0.499400  1
  C  C136  1  0.535100  0.355100  0.499400  1
  C  C137  1  0.832900  0.036700  0.974400  1
  C  C138  1  0.641500  0.937700  0.974400  1
  C  C139  1  0.562300  0.858500  0.525600  1
  C  C140  1  0.463300  0.667100  0.525600  1
  C  C141  1  0.167100  0.963300  0.025600  1
  C  C142  1  0.358500  0.062300  0.025600  1
  C  C143  1  0.437700  0.141500  0.474400  1
  C  C144  1  0.536700  0.332900  0.474400  1
  C  C145  1  0.810900  0.046700  0.978000  1
  C  C146  1  0.667100  0.931300  0.978000  1
  C  C147  1  0.568700  0.832900  0.522000  1
  C  C148  1  0.453300  0.689100  0.522000  1
  C  C149  1  0.189100  0.953300  0.022000  1
  C  C150  1  0.332900  0.068700  0.022000  1
  C  C151  1  0.431300  0.167100  0.478000  1
  C  C152  1  0.546700  0.310900  0.478000  1
  C  C153  1  0.811100  0.055100  0.006600  1
  C  C154  1  0.695500  0.951500  0.006600  1
  C  C155  1  0.548500  0.804500  0.493400  1
  C  C156  1  0.444900  0.688900  0.493400  1
  C  C157  1  0.188900  0.944900  0.993400  1
  C  C158  1  0.304500  0.048500  0.993400  1
  C  C159  1  0.451500  0.195500  0.506600  1
  C  C160  1  0.555100  0.311100  0.506600  1
  C  C161  1  0.833400  0.053600  0.031600  1
  C  C162  1  0.698200  0.978000  0.031600  1
  C  C163  1  0.522000  0.801800  0.468400  1
  C  C164  1  0.446400  0.666600  0.468400  1
  C  C165  1  0.166600  0.946400  0.968400  1
  C  C166  1  0.301800  0.022000  0.968400  1
  C  C167  1  0.478000  0.198200  0.531600  1
  C  C168  1  0.553600  0.333400  0.531600  1
  C  C169  1  0.777800  0.029000  0.921800  1
  C  C170  1  0.644000  0.892800  0.921800  1
  C  C171  1  0.607200  0.856000  0.578200  1
  C  C172  1  0.471000  0.722200  0.578200  1
  C  C173  1  0.222200  0.971000  0.078200  1
  C  C174  1  0.356000  0.107200  0.078200  1
  C  C175  1  0.392800  0.144000  0.421800  1
  C  C176  1  0.529000  0.277800  0.421800  1
  C  C177  1  0.758700  0.033700  0.896800  1
  C  C178  1  0.638100  0.863100  0.896800  1
  C  C179  1  0.636900  0.861900  0.603200  1
  C  C180  1  0.466300  0.741300  0.603200  1
  C  C181  1  0.241300  0.966300  0.103200  1
  C  C182  1  0.361900  0.136900  0.103200  1
  C  C183  1  0.363100  0.138100  0.396800  1
  C  C184  1  0.533700  0.258700  0.396800  1
  C  C185  1  0.733000  0.063800  0.882800  1
  C  C186  1  0.649800  0.819000  0.882800  1
  C  C187  1  0.681000  0.850200  0.617200  1
  C  C188  1  0.436200  0.767000  0.617200  1
  C  C189  1  0.267000  0.936200  0.117200  1
  C  C190  1  0.350200  0.181000  0.117200  1
  C  C191  1  0.319000  0.149800  0.382800  1
  C  C192  1  0.563800  0.233000  0.382800  1
  C  C193  1  0.720900  0.043500  0.849000  1
  C  C194  1  0.628100  0.805500  0.849000  1
  C  C195  1  0.694500  0.871900  0.651000  1
  C  C196  1  0.456500  0.779100  0.651000  1
  C  C197  1  0.279100  0.956500  0.151000  1
  C  C198  1  0.371900  0.194500  0.151000  1
  C  C199  1  0.305500  0.128100  0.349000  1
  C  C200  1  0.543500  0.220900  0.349000  1
  C  C201  1  0.730700  0.017700  0.839800  1
  C  C202  1  0.609100  0.822100  0.839800  1
  C  C203  1  0.677900  0.890900  0.660200  1
  C  C204  1  0.482300  0.769300  0.660200  1
  C  C205  1  0.269300  0.982300  0.160200  1
  C  C206  1  0.390900  0.177900  0.160200  1
  C  C207  1  0.322100  0.109100  0.339800  1
  C  C208  1  0.517700  0.230700  0.339800  1
  C  C209  1  0.748900  0.011900  0.863600  1
  C  C210  1  0.614700  0.851700  0.863600  1
  C  C211  1  0.648300  0.885300  0.636400  1
  C  C212  1  0.488100  0.751100  0.636400  1
  C  C213  1  0.251100  0.988100  0.136400  1
  C  C214  1  0.385300  0.148300  0.136400  1
  C  C215  1  0.351700  0.114700  0.363600  1
  C  C216  1  0.511900  0.248900  0.363600  1
  C  C217  1  0.704800  0.050400  0.825000  1
  C  C218  1  0.620200  0.774600  0.825000  1
  C  C219  1  0.725400  0.879800  0.675000  1
  C  C220  1  0.449600  0.795200  0.675000  1
  C  C221  1  0.295200  0.949600  0.175000  1
  C  C222  1  0.379800  0.225400  0.175000  1
  C  C223  1  0.274600  0.120200  0.325000  1
  C  C224  1  0.550400  0.204800  0.325000  1
  C  C225  1  0.681300  0.060900  0.825200  1
  C  C226  1  0.643900  0.764300  0.825200  1
  C  C227  1  0.735700  0.856100  0.674800  1
  C  C228  1  0.439100  0.818700  0.674800  1
  C  C229  1  0.318700  0.939100  0.174800  1
  C  C230  1  0.356100  0.235700  0.174800  1
  C  C231  1  0.264300  0.143900  0.325200  1
  C  C232  1  0.560900  0.181300  0.325200  1
  C  C233  1  0.672600  0.065400  0.780400  1
  C  C234  1  0.607800  0.715000  0.780400  1
  C  C235  1  0.785000  0.892200  0.719600  1
  C  C236  1  0.434600  0.827400  0.719600  1
  C  C237  1  0.327400  0.934600  0.219600  1
  C  C238  1  0.392200  0.285000  0.219600  1
  C  C239  1  0.215000  0.107800  0.280400  1
  C  C240  1  0.565400  0.172600  0.280400  1
  C  C241  1  0.695000  0.054600  0.778800  1
  C  C242  1  0.583800  0.724200  0.778800  1
  C  C243  1  0.775800  0.916200  0.721200  1
  C  C244  1  0.445400  0.805000  0.721200  1
  C  C245  1  0.305000  0.945400  0.221200  1
  C  C246  1  0.416200  0.275800  0.221200  1
  C  C247  1  0.224200  0.083800  0.278800  1
  C  C248  1  0.554600  0.195000  0.278800  1
  C  C249  1  0.710600  0.046800  0.801200  1
  C  C250  1  0.590600  0.754400  0.801200  1
  C  C251  1  0.745600  0.909400  0.698800  1
  C  C252  1  0.453200  0.789400  0.698800  1
  C  C253  1  0.289400  0.953200  0.198800  1
  C  C254  1  0.409400  0.245600  0.198800  1
  C  C255  1  0.254400  0.090600  0.301200  1
  C  C256  1  0.546800  0.210600  0.301200  1
  C  C257  1  0.656800  0.075800  0.758000  1
  C  C258  1  0.601200  0.682200  0.758000  1
  C  C259  1  0.817800  0.898800  0.742000  1
  C  C260  1  0.424200  0.843200  0.742000  1
  C  C261  1  0.343200  0.924200  0.242000  1
  C  C262  1  0.398800  0.317800  0.242000  1
  C  C263  1  0.182200  0.101200  0.258000  1
  C  C264  1  0.575800  0.156800  0.258000  1
  C  C265  1  0.619900  0.092900  0.739400  1
  C  C266  1  0.619500  0.646500  0.739400  1
  C  C267  1  0.853500  0.880500  0.760600  1
  C  C268  1  0.407100  0.880100  0.760600  1
  C  C269  1  0.380100  0.907100  0.260600  1
  C  C270  1  0.380500  0.353500  0.260600  1
  C  C271  1  0.146500  0.119500  0.239400  1
  C  C272  1  0.592900  0.119900  0.239400  1
  C  C273  1  0.609600  0.117000  0.751200  1
  C  C274  1  0.641600  0.634200  0.751200  1
  C  C275  1  0.865800  0.858400  0.748800  1
  C  C276  1  0.383000  0.890400  0.748800  1
  C  C277  1  0.390400  0.883000  0.248800  1
  C  C278  1  0.358400  0.365800  0.248800  1
  C  C279  1  0.134200  0.141600  0.251200  1
  C  C280  1  0.617000  0.109600  0.251200  1
  C  C281  1  0.591500  0.124500  0.728200  1
  C  C282  1  0.636700  0.603700  0.728200  1
  C  C283  1  0.896300  0.863300  0.771800  1
  C  C284  1  0.375500  0.908500  0.771800  1
  C  C285  1  0.408500  0.875500  0.271800  1
  C  C286  1  0.363300  0.396300  0.271800  1
  C  C287  1  0.103700  0.136700  0.228200  1
  C  C288  1  0.624500  0.091500  0.228200  1
  C  C289  1  0.584600  0.110200  0.697000  1
  C  C290  1  0.612400  0.586800  0.697000  1
  C  C291  1  0.913200  0.887600  0.803000  1
  C  C292  1  0.389800  0.915400  0.803000  1
  C  C293  1  0.415400  0.889800  0.303000  1
  C  C294  1  0.387600  0.413200  0.303000  1
  C  C295  1  0.086800  0.112400  0.197000  1
  C  C296  1  0.610200  0.084600  0.197000  1
  C  C297  1  0.595400  0.087000  0.685800  1
  C  C298  1  0.590400  0.598800  0.685800  1
  C  C299  1  0.901200  0.909600  0.814200  1
  C  C300  1  0.413000  0.904600  0.814200  1
  C  C301  1  0.404600  0.913000  0.314200  1
  C  C302  1  0.409600  0.401200  0.314200  1
  C  C303  1  0.098800  0.090400  0.185800  1
  C  C304  1  0.587000  0.095400  0.185800  1
  C  C305  1  0.611400  0.077600  0.706000  1
  C  C306  1  0.594600  0.628400  0.706000  1
  C  C307  1  0.871600  0.905400  0.794000  1
  C  C308  1  0.422400  0.888600  0.794000  1
  C  C309  1  0.388600  0.922400  0.294000  1
  C  C310  1  0.405400  0.371600  0.294000  1
  C  C311  1  0.128400  0.094600  0.206000  1
  C  C312  1  0.577600  0.111400  0.206000  1
  C  C313  1  0.563400  0.121000  0.674000  1
  C  C314  1  0.610600  0.553000  0.674000  1
  C  C315  1  0.947000  0.889400  0.826000  1
  C  C316  1  0.379000  0.936600  0.826000  1
  C  C317  1  0.436600  0.879000  0.326000  1
  C  C318  1  0.389400  0.447000  0.326000  1
  C  C319  1  0.053000  0.110600  0.174000  1
  C  C320  1  0.621000  0.063400  0.174000  1
  C  C321  1  0.826500  0.057300  0.845200  1
  C  C322  1  0.518700  0.787900  0.845200  1
  C  C323  1  0.712100  0.981300  0.654800  1
  C  C324  1  0.442700  0.673500  0.654800  1
  C  C325  1  0.173500  0.942700  0.154800  1
  C  C326  1  0.481300  0.212100  0.154800  1
  C  C327  1  0.287900  0.018700  0.345200  1
  C  C328  1  0.557300  0.326500  0.345200  1
  C  C329  1  0.824900  0.069300  0.876600  1
  C  C330  1  0.551700  0.807300  0.876600  1
  C  C331  1  0.692700  0.948300  0.623400  1
  C  C332  1  0.430700  0.675100  0.623400  1
  C  C333  1  0.175100  0.930700  0.123400  1
  C  C334  1  0.448300  0.192700  0.123400  1
  C  C335  1  0.307300  0.051700  0.376600  1
  C  C336  1  0.569300  0.324900  0.376600  1
  C  C337  1  0.806400  0.083600  0.880000  1
  C  C338  1  0.573600  0.796400  0.880000  1
  C  C339  1  0.703600  0.926400  0.620000  1
  C  C340  1  0.416400  0.693600  0.620000  1
  C  C341  1  0.193600  0.916400  0.120000  1
  C  C342  1  0.426400  0.203600  0.120000  1
  C  C343  1  0.296400  0.073600  0.380000  1
  C  C344  1  0.583600  0.306400  0.380000  1
  C  C345  1  0.804800  0.096000  0.907800  1
  C  C346  1  0.603000  0.811800  0.907800  1
  C  C347  1  0.688200  0.897000  0.592200  1
  C  C348  1  0.404000  0.695200  0.592200  1
  C  C349  1  0.195200  0.904000  0.092200  1
  C  C350  1  0.397000  0.188200  0.092200  1
  C  C351  1  0.311800  0.103000  0.407800  1
  C  C352  1  0.596000  0.304800  0.407800  1
  C  C353  1  0.823400  0.093800  0.935000  1
  C  C354  1  0.611600  0.841200  0.935000  1
  C  C355  1  0.658800  0.888400  0.565000  1
  C  C356  1  0.406200  0.676600  0.565000  1
  C  C357  1  0.176600  0.906200  0.065000  1
  C  C358  1  0.388400  0.158800  0.065000  1
  C  C359  1  0.341200  0.111600  0.435000  1
  C  C360  1  0.593800  0.323400  0.435000  1
  C  C361  1  0.845200  0.079000  0.932000  1
  C  C362  1  0.586800  0.853000  0.932000  1
  C  C363  1  0.647000  0.913200  0.568000  1
  C  C364  1  0.421000  0.654800  0.568000  1
  C  C365  1  0.154800  0.921000  0.068000  1
  C  C366  1  0.413200  0.147000  0.068000  1
  C  C367  1  0.353000  0.086800  0.432000  1
  C  C368  1  0.579000  0.345200  0.432000  1
  C  C369  1  0.845300  0.067500  0.902800  1
  C  C370  1  0.557500  0.835300  0.902800  1
  C  C371  1  0.664700  0.942500  0.597200  1
  C  C372  1  0.432500  0.654700  0.597200  1
  C  C373  1  0.154700  0.932500  0.097200  1
  C  C374  1  0.442500  0.164700  0.097200  1
  C  C375  1  0.335300  0.057500  0.402800  1
  C  C376  1  0.567500  0.345300  0.402800  1
  C  C377  1  0.843100  0.115900  0.990000  1
  C  C378  1  0.646900  0.874100  0.990000  1
  C  C379  1  0.625900  0.853100  0.510000  1
  C  C380  1  0.384100  0.656900  0.510000  1
  C  C381  1  0.156900  0.884100  0.010000  1
  C  C382  1  0.353100  0.125900  0.010000  1
  C  C383  1  0.374100  0.146900  0.490000  1
  C  C384  1  0.615900  0.343100  0.490000  1
  C  C385  1  0.840100  0.124100  0.017000  1
  C  C386  1  0.676900  0.892900  0.017000  1
  C  C387  1  0.607100  0.823100  0.483000  1
  C  C388  1  0.375900  0.659900  0.483000  1
  C  C389  1  0.159900  0.875900  0.983000  1
  C  C390  1  0.323100  0.107100  0.983000  1
  C  C391  1  0.392900  0.176900  0.517000  1
  C  C392  1  0.624100  0.340100  0.517000  1
  C  C393  1  0.807400  0.127000  0.034800  1
  C  C394  1  0.727400  0.907800  0.034800  1
  C  C395  1  0.592200  0.772600  0.465200  1
  C  C396  1  0.373000  0.692600  0.465200  1
  C  C397  1  0.192600  0.873000  0.965200  1
  C  C398  1  0.272600  0.092200  0.965200  1
  C  C399  1  0.407800  0.227400  0.534800  1
  C  C400  1  0.627000  0.307400  0.534800  1
  C  C401  1  0.830700  0.141300  0.068000  1
  C  C402  1  0.737300  0.926700  0.068000  1
  C  C403  1  0.573300  0.762700  0.432000  1
  C  C404  1  0.358700  0.669300  0.432000  1
  C  C405  1  0.169300  0.858700  0.932000  1
  C  C406  1  0.262700  0.073300  0.932000  1
  C  C407  1  0.426700  0.237300  0.568000  1
  C  C408  1  0.641300  0.330700  0.568000  1
  C  C409  1  0.859600  0.147200  0.074400  1
  C  C410  1  0.714800  0.927200  0.074400  1
  C  C411  1  0.572800  0.785200  0.425600  1
  C  C412  1  0.352800  0.640400  0.425600  1
  C  C413  1  0.140400  0.852800  0.925600  1
  C  C414  1  0.285200  0.072800  0.925600  1
  C  C415  1  0.427200  0.214800  0.574400  1
  C  C416  1  0.647200  0.359600  0.574400  1
  C  C417  1  0.865700  0.138700  0.051200  1
  C  C418  1  0.685500  0.912500  0.051200  1
  C  C419  1  0.587500  0.814500  0.448800  1
  C  C420  1  0.361300  0.634300  0.448800  1
  C  C421  1  0.134300  0.861300  0.948800  1
  C  C422  1  0.314500  0.087500  0.948800  1
  C  C423  1  0.412500  0.185500  0.551200  1
  C  C424  1  0.638700  0.365700  0.551200  1
  C  C425  1  0.826100  0.154500  0.095600  1
  C  C426  1  0.769500  0.941100  0.095600  1
  C  C427  1  0.558900  0.730500  0.404400  1
  C  C428  1  0.345500  0.673900  0.404400  1
  C  C429  1  0.173900  0.845500  0.904400  1
  C  C430  1  0.230500  0.058900  0.904400  1
  C  C431  1  0.441100  0.269500  0.595600  1
  C  C432  1  0.654500  0.326100  0.595600  1
  C  C433  1  0.807500  0.170500  0.097000  1
  C  C434  1  0.789500  0.926500  0.097000  1
  C  C435  1  0.573500  0.710500  0.403000  1
  C  C436  1  0.329500  0.692500  0.403000  1
  C  C437  1  0.192500  0.829500  0.903000  1
  C  C438  1  0.210500  0.073500  0.903000  1
  C  C439  1  0.426500  0.289500  0.597000  1
  C  C440  1  0.670500  0.307500  0.597000  1
  C  C441  1  0.817000  0.178000  0.145800  1
  C  C442  1  0.828800  0.967800  0.145800  1
  C  C443  1  0.532200  0.671200  0.354200  1
  C  C444  1  0.322000  0.683000  0.354200  1
  C  C445  1  0.183000  0.822000  0.854200  1
  C  C446  1  0.171200  0.032200  0.854200  1
  C  C447  1  0.467800  0.328800  0.645800  1
  C  C448  1  0.678000  0.317000  0.645800  1
  C  C449  1  0.834100  0.159900  0.146800  1
  C  C450  1  0.812700  0.986900  0.146800  1
  C  C451  1  0.513100  0.687300  0.353200  1
  C  C452  1  0.340100  0.665900  0.353200  1
  C  C453  1  0.165900  0.840100  0.853200  1
  C  C454  1  0.187300  0.013100  0.853200  1
  C  C455  1  0.486900  0.312700  0.646800  1
  C  C456  1  0.659900  0.334100  0.646800  1
  C  C457  1  0.839800  0.151000  0.123200  1
  C  C458  1  0.783400  0.972200  0.123200  1
  C  C459  1  0.527800  0.716600  0.376800  1
  C  C460  1  0.349000  0.660200  0.376800  1
  C  C461  1  0.160200  0.849000  0.876800  1
  C  C462  1  0.216600  0.027800  0.876800  1
  C  C463  1  0.472200  0.283400  0.623200  1
  C  C464  1  0.651000  0.339800  0.623200  1
  C  C465  1  0.812400  0.193200  0.173600  1
  C  C466  1  0.861200  0.980400  0.173600  1
  C  C467  1  0.519600  0.638800  0.326400  1
  C  C468  1  0.306800  0.687600  0.326400  1
  C  C469  1  0.187600  0.806800  0.826400  1
  C  C470  1  0.138800  0.019600  0.826400  1
  C  C471  1  0.480400  0.361200  0.673600  1
  C  C472  1  0.693200  0.312400  0.673600  1
  C  C473  1  0.789800  0.222400  0.196200  1
  C  C474  1  0.906400  0.973800  0.196200  1
  C  C475  1  0.526200  0.593600  0.303800  1
  C  C476  1  0.277600  0.710200  0.303800  1
  C  C477  1  0.210200  0.777600  0.803800  1
  C  C478  1  0.093600  0.026200  0.803800  1
  C  C479  1  0.473800  0.406400  0.696200  1
  C  C480  1  0.722400  0.289800  0.696200  1
  C  C481  1  0.761800  0.222000  0.189800  1
  C  C482  1  0.928000  0.967800  0.189800  1
  C  C483  1  0.532200  0.572000  0.310200  1
  C  C484  1  0.278000  0.738200  0.310200  1
  C  C485  1  0.238200  0.778000  0.810200  1
  C  C486  1  0.072000  0.032200  0.810200  1
  C  C487  1  0.467800  0.428000  0.689800  1
  C  C488  1  0.722000  0.261800  0.689800  1
  C  C489  1  0.757300  0.239100  0.214200  1
  C  C490  1  0.956900  0.975100  0.214200  1
  C  C491  1  0.524900  0.543100  0.285800  1
  C  C492  1  0.260900  0.742700  0.285800  1
  C  C493  1  0.242700  0.760900  0.785800  1
  C  C494  1  0.043100  0.024900  0.785800  1
  C  C495  1  0.475100  0.456900  0.714200  1
  C  C496  1  0.739100  0.257300  0.714200  1
  C  C497  1  0.779600  0.258200  0.244600  1
  C  C498  1  0.965000  0.986400  0.244600  1
  C  C499  1  0.513600  0.535000  0.255400  1
  C  C500  1  0.241800  0.720400  0.255400  1
  C  C501  1  0.220400  0.741800  0.755400  1
  C  C502  1  0.035000  0.013600  0.755400  1
  C  C503  1  0.486400  0.465000  0.744600  1
  C  C504  1  0.758200  0.279600  0.744600  1
  C  C505  1  0.808700  0.259500  0.255400  1
  C  C506  1  0.946700  0.995900  0.255400  1
  C  C507  1  0.504100  0.553300  0.244600  1
  C  C508  1  0.240500  0.691300  0.244600  1
  C  C509  1  0.191300  0.740500  0.744600  1
  C  C510  1  0.053300  0.004100  0.744600  1
  C  C511  1  0.495900  0.446700  0.755400  1
  C  C512  1  0.759500  0.308700  0.755400  1
  C  C513  1  0.814000  0.242000  0.230200  1
  C  C514  1  0.916200  0.988200  0.230200  1
  C  C515  1  0.511800  0.583800  0.269800  1
  C  C516  1  0.258000  0.686000  0.269800  1
  C  C517  1  0.186000  0.758000  0.769800  1
  C  C518  1  0.083800  0.011800  0.769800  1
  C  C519  1  0.488200  0.416200  0.730200  1
  C  C520  1  0.742000  0.314000  0.730200  1
  C  C521  1  0.771600  0.278800  0.270200  1
  C  C522  1  0.998600  0.991400  0.270200  1
  C  C523  1  0.508600  0.501400  0.229800  1
  C  C524  1  0.221200  0.728400  0.229800  1
  C  C525  1  0.228400  0.721200  0.729800  1
  C  C526  1  0.001400  0.008600  0.729800  1
  C  C527  1  0.491400  0.498600  0.770200  1
  C  C528  1  0.778800  0.271600  0.770200  1
  C  C529  1  0.678500  0.972500  0.943000  1
  C  C530  1  0.764500  0.970500  0.943000  1
  C  C531  1  0.529500  0.735500  0.557000  1
  C  C532  1  0.527500  0.821500  0.557000  1
  C  C533  1  0.321500  0.027500  0.057000  1
  C  C534  1  0.235500  0.029500  0.057000  1
  C  C535  1  0.470500  0.264500  0.443000  1
  C  C536  1  0.472500  0.178500  0.443000  1
  C  C537  1  0.699200  0.001200  0.950200  1
  C  C538  1  0.751000  0.949000  0.950200  1
  C  C539  1  0.551000  0.749000  0.549800  1
  C  C540  1  0.498800  0.800800  0.549800  1
  C  C541  1  0.300800  0.998800  0.049800  1
  C  C542  1  0.249000  0.051000  0.049800  1
  C  C543  1  0.449000  0.251000  0.450200  1
  C  C544  1  0.501200  0.199200  0.450200  1
  C  C545  1  0.698500  0.000300  0.923600  1
  C  C546  1  0.725100  0.923300  0.923600  1
  C  C547  1  0.576700  0.774900  0.576400  1
  C  C548  1  0.499700  0.801500  0.576400  1
  C  C549  1  0.301500  0.999700  0.076400  1
  C  C550  1  0.274900  0.076700  0.076400  1
  C  C551  1  0.423300  0.225100  0.423600  1
  C  C552  1  0.500300  0.198500  0.423600  1
  C  C553  1  0.712200  0.026600  0.927200  1
  C  C554  1  0.715000  0.900600  0.927200  1
  C  C555  1  0.599400  0.785000  0.572800  1
  C  C556  1  0.473400  0.787800  0.572800  1
  C  C557  1  0.287800  0.973400  0.072800  1
  C  C558  1  0.285000  0.099400  0.072800  1
  C  C559  1  0.400600  0.215000  0.427200  1
  C  C560  1  0.526600  0.212200  0.427200  1
  C  C561  1  0.727100  0.054100  0.957800  1
  C  C562  1  0.730700  0.903700  0.957800  1
  C  C563  1  0.596300  0.769300  0.542200  1
  C  C564  1  0.445900  0.772900  0.542200  1
  C  C565  1  0.272900  0.945900  0.042200  1
  C  C566  1  0.269300  0.096300  0.042200  1
  C  C567  1  0.403700  0.230700  0.457800  1
  C  C568  1  0.554100  0.227100  0.457800  1
  C  C569  1  0.727800  0.055000  0.984400  1
  C  C570  1  0.756600  0.929400  0.984400  1
  C  C571  1  0.570600  0.743400  0.515600  1
  C  C572  1  0.445000  0.772200  0.515600  1
  C  C573  1  0.272200  0.945000  0.015600  1
  C  C574  1  0.243400  0.070600  0.015600  1
  C  C575  1  0.429400  0.256600  0.484400  1
  C  C576  1  0.555000  0.227800  0.484400  1
  C  C577  1  0.714000  0.028600  0.980600  1
  C  C578  1  0.766600  0.952000  0.980600  1
  C  C579  1  0.548000  0.733400  0.519400  1
  C  C580  1  0.471400  0.786000  0.519400  1
  C  C581  1  0.286000  0.971400  0.019400  1
  C  C582  1  0.233400  0.048000  0.019400  1
  C  C583  1  0.452000  0.266600  0.480600  1
  C  C584  1  0.528600  0.214000  0.480600  1
  C  C585  1  0.728500  0.102100  0.963000  1
  C  C586  1  0.734500  0.860900  0.963000  1
  C  C587  1  0.639100  0.765500  0.537000  1
  C  C588  1  0.397900  0.771500  0.537000  1
  C  C589  1  0.271500  0.897900  0.037000  1
  C  C590  1  0.265500  0.139100  0.037000  1
  C  C591  1  0.360900  0.234500  0.463000  1
  C  C592  1  0.602100  0.228500  0.463000  1
  C  C593  1  0.744400  0.128600  0.966200  1
  C  C594  1  0.721800  0.837600  0.966200  1
  C  C595  1  0.662400  0.778200  0.533800  1
  C  C596  1  0.371400  0.755600  0.533800  1
  C  C597  1  0.255600  0.871400  0.033800  1
  C  C598  1  0.278200  0.162400  0.033800  1
  C  C599  1  0.337600  0.221800  0.466200  1
  C  C600  1  0.628600  0.244400  0.466200  1
  C  C601  1  0.781700  0.150900  0.962000  1
  C  C602  1  0.680300  0.811100  0.962000  1
  C  C603  1  0.688900  0.819700  0.538000  1
  C  C604  1  0.349100  0.718300  0.538000  1
  C  C605  1  0.218300  0.849100  0.038000  1
  C  C606  1  0.319700  0.188900  0.038000  1
  C  C607  1  0.311100  0.180300  0.462000  1
  C  C608  1  0.650900  0.281700  0.462000  1
  C  C609  1  0.777020  0.176620  0.970040  1
  C  C610  1  0.693020  0.793420  0.970040  1
  C  C611  1  0.706580  0.806980  0.529960  1
  C  C612  1  0.323380  0.722980  0.529960  1
  C  C613  1  0.222980  0.823380  0.029960  1
  C  C614  1  0.306980  0.206580  0.029960  1
  C  C615  1  0.293420  0.193020  0.470040  1
  C  C616  1  0.676620  0.277020  0.470040  1
  C  C617  1  0.753800  0.177400  0.974600  1
  C  C618  1  0.720800  0.797200  0.974600  1
  C  C619  1  0.702800  0.779200  0.525400  1
  C  C620  1  0.322600  0.746200  0.525400  1
  C  C621  1  0.246200  0.822600  0.025400  1
  C  C622  1  0.279200  0.202800  0.025400  1
  C  C623  1  0.297200  0.220800  0.474600  1
  C  C624  1  0.677400  0.253800  0.474600  1
  C  C625  1  0.738300  0.154100  0.972200  1
  C  C626  1  0.733900  0.818100  0.972200  1
  C  C627  1  0.681900  0.766100  0.527800  1
  C  C628  1  0.345900  0.761700  0.527800  1
  C  C629  1  0.261700  0.845900  0.027800  1
  C  C630  1  0.266100  0.181900  0.027800  1
  C  C631  1  0.318100  0.233900  0.472200  1
  C  C632  1  0.654100  0.238300  0.472200  1
  C  C633  1  0.794200  0.201800  0.972200  1
  C  C634  1  0.678000  0.770400  0.972200  1
  C  C635  1  0.729600  0.822000  0.527800  1
  C  C636  1  0.298200  0.705800  0.527800  1
  C  C637  1  0.205800  0.798200  0.027800  1
  C  C638  1  0.322000  0.229600  0.027800  1
  C  C639  1  0.270400  0.178000  0.472200  1
  C  C640  1  0.701800  0.294200  0.472200  1
  C  C641  1  0.821600  0.202800  0.973600  1
  C  C642  1  0.652000  0.770800  0.973600  1
  C  C643  1  0.729200  0.848000  0.526400  1
  C  C644  1  0.297200  0.678400  0.526400  1
  C  C645  1  0.178400  0.797200  0.026400  1
  C  C646  1  0.348000  0.229200  0.026400  1
  C  C647  1  0.270800  0.152000  0.473600  1
  C  C648  1  0.702800  0.321600  0.473600  1
  C  C649  1  0.827300  0.245900  0.972000  1
  C  C650  1  0.644700  0.726100  0.972000  1
  C  C651  1  0.773900  0.855300  0.528000  1
  C  C652  1  0.254100  0.672700  0.528000  1
  C  C653  1  0.172700  0.754100  0.028000  1
  C  C654  1  0.355300  0.273900  0.028000  1
  C  C655  1  0.226100  0.144700  0.472000  1
  C  C656  1  0.745900  0.327300  0.472000  1
  C  C657  1  0.801700  0.246700  0.971200  1
  C  C658  1  0.669500  0.724500  0.971200  1
  C  C659  1  0.775500  0.830500  0.528800  1
  C  C660  1  0.253300  0.698300  0.528800  1
  C  C661  1  0.198300  0.753300  0.028800  1
  C  C662  1  0.330500  0.275500  0.028800  1
  C  C663  1  0.224500  0.169500  0.471200  1
  C  C664  1  0.746700  0.301700  0.471200  1
  C  C665  1  0.785600  0.223800  0.971600  1
  C  C666  1  0.686000  0.747800  0.971600  1
  C  C667  1  0.752200  0.814000  0.528400  1
  C  C668  1  0.276200  0.714400  0.528400  1
  C  C669  1  0.214400  0.776200  0.028400  1
  C  C670  1  0.314000  0.252200  0.028400  1
  C  C671  1  0.247800  0.186000  0.471600  1
  C  C672  1  0.723800  0.285600  0.471600  1
  C  C673  1  0.846300  0.267500  0.970800  1
  C  C674  1  0.624500  0.703300  0.970800  1
  C  C675  1  0.796700  0.875500  0.529200  1
  C  C676  1  0.232500  0.653700  0.529200  1
  C  C677  1  0.153700  0.732500  0.029200  1
  C  C678  1  0.375500  0.296700  0.029200  1
  C  C679  1  0.203300  0.124500  0.470800  1
  C  C680  1  0.767500  0.346300  0.470800  1
  C  C681  1  0.880100  0.282900  0.960200  1
  C  C682  1  0.580100  0.677300  0.960200  1
  C  C683  1  0.822700  0.919900  0.539800  1
  C  C684  1  0.217100  0.619900  0.539800  1
  C  C685  1  0.119900  0.717100  0.039800  1
  C  C686  1  0.419900  0.322700  0.039800  1
  C  C687  1  0.177300  0.080100  0.460200  1
  C  C688  1  0.782900  0.380100  0.460200  1
  C  C689  1  0.863700  0.291100  0.938600  1
  C  C690  1  0.574900  0.647500  0.938600  1
  C  C691  1  0.852500  0.925100  0.561400  1
  C  C692  1  0.208900  0.636300  0.561400  1
  C  C693  1  0.136300  0.708900  0.061400  1
  C  C694  1  0.425100  0.352500  0.061400  1
  C  C695  1  0.147500  0.074900  0.438600  1
  C  C696  1  0.791100  0.363700  0.438600  1
  C  C697  1  0.878800  0.310200  0.934000  1
  C  C698  1  0.555200  0.623800  0.934000  1
  C  C699  1  0.876200  0.944800  0.566000  1
  C  C700  1  0.189800  0.621200  0.566000  1
  C  C701  1  0.121200  0.689800  0.066000  1
  C  C702  1  0.444800  0.376200  0.066000  1
  C  C703  1  0.123800  0.055200  0.434000  1
  C  C704  1  0.810200  0.378800  0.434000  1
  C  C705  1  0.910200  0.321000  0.951000  1
  C  C706  1  0.540800  0.630000  0.951000  1
  C  C707  1  0.870000  0.959200  0.549000  1
  C  C708  1  0.179000  0.589800  0.549000  1
  C  C709  1  0.089800  0.679000  0.049000  1
  C  C710  1  0.459200  0.370000  0.049000  1
  C  C711  1  0.130000  0.040800  0.451000  1
  C  C712  1  0.821000  0.410200  0.451000  1
  C  C713  1  0.926600  0.312800  0.972600  1
  C  C714  1  0.546000  0.659800  0.972600  1
  C  C715  1  0.840200  0.954000  0.527400  1
  C  C716  1  0.187200  0.573400  0.527400  1
  C  C717  1  0.073400  0.687200  0.027400  1
  C  C718  1  0.454000  0.340200  0.027400  1
  C  C719  1  0.159800  0.046000  0.472600  1
  C  C720  1  0.812800  0.426600  0.472600  1
  C  C721  1  0.911500  0.293700  0.977200  1
  C  C722  1  0.565700  0.683500  0.977200  1
  C  C723  1  0.816500  0.934300  0.522800  1
  C  C724  1  0.206300  0.588500  0.522800  1
  C  C725  1  0.088500  0.706300  0.022800  1
  C  C726  1  0.434300  0.316500  0.022800  1
  C  C727  1  0.183500  0.065700  0.477200  1
  C  C728  1  0.793700  0.411500  0.477200  1
  C  C729  1  0.927000  0.343800  0.947400  1
  C  C730  1  0.520400  0.603600  0.947400  1
  C  C731  1  0.896400  0.979600  0.552600  1
  C  C732  1  0.156200  0.573000  0.552600  1
  C  C733  1  0.073000  0.656200  0.052600  1
  C  C734  1  0.479600  0.396400  0.052600  1
  C  C735  1  0.103600  0.020400  0.447400  1
  C  C736  1  0.843800  0.427000  0.447400  1
  C  C737  1  0.645700  0.944900  0.696000  1
  C  C738  1  0.550300  0.751100  0.696000  1
  C  C739  1  0.748900  0.949700  0.804000  1
  C  C740  1  0.555100  0.854300  0.804000  1
  C  C741  1  0.354300  0.055100  0.304000  1
  C  C742  1  0.449700  0.248900  0.304000  1
  C  C743  1  0.251100  0.050300  0.196000  1
  C  C744  1  0.444900  0.145700  0.196000  1
  C  C745  1  0.632000  0.967800  0.709200  1
  C  C746  1  0.577200  0.741400  0.709200  1
  C  C747  1  0.758600  0.922800  0.790800  1
  C  C748  1  0.532200  0.868000  0.790800  1
  C  C749  1  0.368000  0.032200  0.290800  1
  C  C750  1  0.422800  0.258600  0.290800  1
  C  C751  1  0.241400  0.077200  0.209200  1
  C  C752  1  0.467800  0.132000  0.209200  1
  C  C753  1  0.635300  0.977100  0.739400  1
  C  C754  1  0.604100  0.762300  0.739400  1
  C  C755  1  0.737700  0.895900  0.760600  1
  C  C756  1  0.522900  0.864700  0.760600  1
  C  C757  1  0.364700  0.022900  0.260600  1
  C  C758  1  0.395900  0.237700  0.260600  1
  C  C759  1  0.262300  0.104100  0.239400  1
  C  C760  1  0.477100  0.135300  0.239400  1
  C  C761  1  0.622400  0.997000  0.750800  1
  C  C762  1  0.628400  0.753800  0.750800  1
  C  C763  1  0.746200  0.871600  0.749200  1
  C  C764  1  0.503000  0.877600  0.749200  1
  C  C765  1  0.377600  0.003000  0.249200  1
  C  C766  1  0.371600  0.246200  0.249200  1
  C  C767  1  0.253800  0.128400  0.250800  1
  C  C768  1  0.497000  0.122400  0.250800  1
  C  C769  1  0.606100  0.007700  0.732000  1
  C  C770  1  0.625900  0.724300  0.732000  1
  C  C771  1  0.775700  0.874100  0.768000  1
  C  C772  1  0.492300  0.893900  0.768000  1
  C  C773  1  0.393900  0.992300  0.268000  1
  C  C774  1  0.374100  0.275700  0.268000  1
  C  C775  1  0.224300  0.125900  0.232000  1
  C  C776  1  0.507700  0.106100  0.232000  1
  C  C777  1  0.602700  0.998500  0.701800  1
  C  C778  1  0.599100  0.703300  0.701800  1
  C  C779  1  0.796700  0.900900  0.798200  1
  C  C780  1  0.501500  0.897300  0.798200  1
  C  C781  1  0.397300  0.001500  0.298200  1
  C  C782  1  0.400900  0.296700  0.298200  1
  C  C783  1  0.203300  0.099100  0.201800  1
  C  C784  1  0.498500  0.102700  0.201800  1
  C  C785  1  0.615700  0.978500  0.690400  1
  C  C786  1  0.574700  0.711900  0.690400  1
  C  C787  1  0.788100  0.925300  0.809600  1
  C  C788  1  0.521500  0.884300  0.809600  1
  C  C789  1  0.384300  0.021500  0.309600  1
  C  C790  1  0.425300  0.288100  0.309600  1
  C  C791  1  0.211900  0.074700  0.190400  1
  C  C792  1  0.478500  0.115700  0.190400  1
  C  C793  1  0.571400  0.030800  0.728600  1
  C  C794  1  0.657200  0.697800  0.728600  1
  C  C795  1  0.802200  0.842800  0.771400  1
  C  C796  1  0.469200  0.928600  0.771400  1
  C  C797  1  0.428600  0.969200  0.271400  1
  C  C798  1  0.342800  0.302200  0.271400  1
  C  C799  1  0.197800  0.157200  0.228600  1
  C  C800  1  0.530800  0.071400  0.228600  1
  C  C801  1  0.560500  0.053900  0.741400  1
  C  C802  1  0.680900  0.687500  0.741400  1
  C  C803  1  0.812500  0.819100  0.758600  1
  C  C804  1  0.446100  0.939500  0.758600  1
  C  C805  1  0.439500  0.946100  0.258600  1
  C  C806  1  0.319100  0.312500  0.258600  1
  C  C807  1  0.187500  0.180900  0.241400  1
  C  C808  1  0.553900  0.060500  0.241400  1
  C  C809  1  0.573300  0.101700  0.784800  1
  C  C810  1  0.711500  0.683100  0.784800  1
  C  C811  1  0.816900  0.788500  0.715200  1
  C  C812  1  0.398300  0.926700  0.715200  1
  C  C813  1  0.426700  0.898300  0.215200  1
  C  C814  1  0.288500  0.316900  0.215200  1
  C  C815  1  0.183100  0.211500  0.284800  1
  C  C816  1  0.601700  0.073300  0.284800  1
  C  C817  1  0.545400  0.104400  0.766400  1
  C  C818  1  0.721000  0.662000  0.766400  1
  C  C819  1  0.838000  0.779000  0.733600  1
  C  C820  1  0.395600  0.954600  0.733600  1
  C  C821  1  0.454600  0.895600  0.233600  1
  C  C822  1  0.279000  0.338000  0.233600  1
  C  C823  1  0.162000  0.221000  0.266400  1
  C  C824  1  0.604400  0.045400  0.266400  1
  C  C825  1  0.523500  0.077300  0.733000  1
  C  C826  1  0.709500  0.655700  0.733000  1
  C  C827  1  0.844300  0.790500  0.767000  1
  C  C828  1  0.422700  0.976500  0.767000  1
  C  C829  1  0.476500  0.922700  0.267000  1
  C  C830  1  0.290500  0.344300  0.267000  1
  C  C831  1  0.155700  0.209500  0.233000  1
  C  C832  1  0.577300  0.023500  0.233000  1
  C  C833  1  0.530300  0.053100  0.723000  1
  C  C834  1  0.692700  0.669900  0.723000  1
  C  C835  1  0.830100  0.807300  0.777000  1
  C  C836  1  0.446900  0.969700  0.777000  1
  C  C837  1  0.469700  0.946900  0.277000  1
  C  C838  1  0.307300  0.330100  0.277000  1
  C  C839  1  0.169900  0.192700  0.223000  1
  C  C840  1  0.553100  0.030300  0.223000  1
  C  C841  1  0.538400  0.130200  0.780200  1
  C  C842  1  0.741800  0.650000  0.780200  1
  C  C843  1  0.850000  0.758200  0.719800  1
  C  C844  1  0.369800  0.961600  0.719800  1
  C  C845  1  0.461600  0.869800  0.219800  1
  C  C846  1  0.258200  0.350000  0.219800  1
  C  C847  1  0.150000  0.241800  0.280200  1
  C  C848  1  0.630200  0.038400  0.280200  1
  C  C849  1  0.545100  0.144700  0.812400  1
  C  C850  1  0.767300  0.667700  0.812400  1
  C  C851  1  0.832300  0.732700  0.687600  1
  C  C852  1  0.355300  0.954900  0.687600  1
  C  C853  1  0.454900  0.855300  0.187600  1
  C  C854  1  0.232700  0.332300  0.187600  1
  C  C855  1  0.167700  0.267300  0.312400  1
  C  C856  1  0.644700  0.045100  0.312400  1
  C  C857  1  0.531600  0.185200  0.809000  1
  C  C858  1  0.777400  0.623800  0.809000  1
  C  C859  1  0.876200  0.722600  0.691000  1
  C  C860  1  0.314800  0.968400  0.691000  1
  C  C861  1  0.468400  0.814800  0.191000  1
  C  C862  1  0.222600  0.376200  0.191000  1
  C  C863  1  0.123800  0.277400  0.309000  1
  C  C864  1  0.685200  0.031600  0.309000  1
  C  C865  1  0.524200  0.171200  0.776000  1
  C  C866  1  0.751800  0.604800  0.776000  1
  C  C867  1  0.895200  0.748200  0.724000  1
  C  C868  1  0.328800  0.975800  0.724000  1
  C  C869  1  0.475800  0.828800  0.224000  1
  C  C870  1  0.248200  0.395200  0.224000  1
  C  C871  1  0.104800  0.251800  0.276000  1
  C  C872  1  0.671200  0.024200  0.276000  1
  C  C873  1  0.525900  0.143100  0.761800  1
  C  C874  1  0.735900  0.618700  0.761800  1
  C  C875  1  0.881300  0.764100  0.738200  1
  C  C876  1  0.356900  0.974100  0.738200  1
  C  C877  1  0.474100  0.856900  0.238200  1
  C  C878  1  0.264100  0.381300  0.238200  1
  C  C879  1  0.118700  0.235900  0.261800  1
  C  C880  1  0.643100  0.025900  0.261800  1
  C  C881  1  0.527100  0.212700  0.823600  1
  C  C882  1  0.796500  0.610900  0.823600  1
  C  C883  1  0.889100  0.703500  0.676400  1
  C  C884  1  0.287300  0.972900  0.676400  1
  C  C885  1  0.472900  0.787300  0.176400  1
  C  C886  1  0.203500  0.389100  0.176400  1
  C  C887  1  0.110900  0.296500  0.323600  1
  C  C888  1  0.712700  0.027100  0.323600  1
  C  C889  1  0.529400  0.249800  0.870000  1
  C  C890  1  0.840600  0.620200  0.870000  1
  C  C891  1  0.879800  0.659400  0.630000  1
  C  C892  1  0.250200  0.970600  0.630000  1
  C  C893  1  0.470600  0.750200  0.130000  1
  C  C894  1  0.159400  0.379800  0.130000  1
  C  C895  1  0.120200  0.340600  0.370000  1
  C  C896  1  0.749800  0.029400  0.370000  1
  C  C897  1  0.550200  0.272600  0.904200  1
  C  C898  1  0.854000  0.631600  0.904200  1
  C  C899  1  0.868400  0.646000  0.595800  1
  C  C900  1  0.227400  0.949800  0.595800  1
  C  C901  1  0.449800  0.727400  0.095800  1
  C  C902  1  0.146000  0.368400  0.095800  1
  C  C903  1  0.131600  0.354000  0.404200  1
  C  C904  1  0.772600  0.050200  0.404200  1
  C  C905  1  0.545800  0.299200  0.920600  1
  C  C906  1  0.874800  0.621400  0.920600  1
  C  C907  1  0.878600  0.625200  0.579400  1
  C  C908  1  0.200800  0.954200  0.579400  1
  C  C909  1  0.454200  0.700800  0.079400  1
  C  C910  1  0.125200  0.378600  0.079400  1
  C  C911  1  0.121400  0.374800  0.420600  1
  C  C912  1  0.799200  0.045800  0.420600  1
  C  C913  1  0.518900  0.302500  0.901200  1
  C  C914  1  0.882300  0.598700  0.901200  1
  C  C915  1  0.901300  0.617700  0.598800  1
  C  C916  1  0.197500  0.981100  0.598800  1
  C  C917  1  0.481100  0.697500  0.098800  1
  C  C918  1  0.117700  0.401300  0.098800  1
  C  C919  1  0.098700  0.382300  0.401200  1
  C  C920  1  0.802500  0.018900  0.401200  1
  C  C921  1  0.500000  0.281600  0.870400  1
  C  C922  1  0.870400  0.588800  0.870400  1
  C  C923  1  0.911200  0.629600  0.629600  1
  C  C924  1  0.218400  0.000000  0.629600  1
  C  C925  1  0.500000  0.718400  0.129600  1
  C  C926  1  0.129600  0.411200  0.129600  1
  C  C927  1  0.088800  0.370400  0.370400  1
  C  C928  1  0.781600  0.000000  0.370400  1
  C  C929  1  0.503200  0.254800  0.851800  1
  C  C930  1  0.848600  0.597000  0.851800  1
  C  C931  1  0.903000  0.651400  0.648200  1
  C  C932  1  0.245200  0.996800  0.648200  1
  C  C933  1  0.496800  0.745200  0.148200  1
  C  C934  1  0.151400  0.403000  0.148200  1
  C  C935  1  0.097000  0.348600  0.351800  1
  C  C936  1  0.754800  0.003200  0.351800  1
  C  C937  1  0.515900  0.332500  0.920400  1
  C  C938  1  0.904500  0.587900  0.920400  1
  C  C939  1  0.912100  0.595500  0.579600  1
  C  C940  1  0.167500  0.984100  0.579600  1
  C  C941  1  0.484100  0.667500  0.079600  1
  C  C942  1  0.095500  0.412100  0.079600  1
  C  C943  1  0.087900  0.404500  0.420400  1
  C  C944  1  0.832500  0.015900  0.420400  1
  C  C945  1  0.548100  0.953700  0.794600  1
  C  C946  1  0.746500  0.840900  0.794600  1
  C  C947  1  0.659100  0.753500  0.705400  1
  C  C948  1  0.546300  0.951900  0.705400  1
  C  C949  1  0.451900  0.046300  0.205400  1
  C  C950  1  0.253500  0.159100  0.205400  1
  C  C951  1  0.340900  0.246500  0.294600  1
  C  C952  1  0.453700  0.048100  0.294600  1
  C  C953  1  0.565900  0.986900  0.800600  1
  C  C954  1  0.734700  0.813700  0.800600  1
  C  C955  1  0.686300  0.765300  0.699400  1
  C  C956  1  0.513100  0.934100  0.699400  1
  C  C957  1  0.434100  0.013100  0.199400  1
  C  C958  1  0.265300  0.186300  0.199400  1
  C  C959  1  0.313700  0.234700  0.300600  1
  C  C960  1  0.486900  0.065900  0.300600  1
  C  C961  1  0.552900  0.007700  0.797800  1
  C  C962  1  0.744900  0.790100  0.797800  1
  C  C963  1  0.709900  0.755100  0.702200  1
  C  C964  1  0.492300  0.947100  0.702200  1
  C  C965  1  0.447100  0.992300  0.202200  1
  C  C966  1  0.255100  0.209900  0.202200  1
  C  C967  1  0.290100  0.244900  0.297800  1
  C  C968  1  0.507700  0.052900  0.297800  1
  C  C969  1  0.570300  0.034900  0.805800  1
  C  C970  1  0.735500  0.770900  0.805800  1
  C  C971  1  0.729100  0.764500  0.694200  1
  C  C972  1  0.465100  0.929700  0.694200  1
  C  C973  1  0.429700  0.965100  0.194200  1
  C  C974  1  0.264500  0.229100  0.194200  1
  C  C975  1  0.270900  0.235500  0.305800  1
  C  C976  1  0.534900  0.070300  0.305800  1
  C  C977  1  0.600800  0.041600  0.816800  1
  C  C978  1  0.716000  0.775200  0.816800  1
  C  C979  1  0.724800  0.784000  0.683200  1
  C  C980  1  0.458400  0.899200  0.683200  1
  C  C981  1  0.399200  0.958400  0.183200  1
  C  C982  1  0.284000  0.224800  0.183200  1
  C  C983  1  0.275200  0.216000  0.316800  1
  C  C984  1  0.541600  0.100800  0.316800  1
  C  C985  1  0.613800  0.020800  0.819800  1
  C  C986  1  0.706000  0.799000  0.819800  1
  C  C987  1  0.701000  0.794000  0.680200  1
  C  C988  1  0.479200  0.886200  0.680200  1
  C  C989  1  0.386200  0.979200  0.180200  1
  C  C990  1  0.294000  0.201000  0.180200  1
  C  C991  1  0.299000  0.206000  0.319800  1
  C  C992  1  0.520800  0.113800  0.319800  1
  C  C993  1  0.596300  0.993500  0.811600  1
  C  C994  1  0.715300  0.818100  0.811600  1
  C  C995  1  0.681900  0.784700  0.688400  1
  C  C996  1  0.506500  0.903700  0.688400  1
  C  C997  1  0.403700  0.006500  0.188400  1
  C  C998  1  0.284700  0.181900  0.188400  1
  C  C999  1  0.318100  0.215300  0.311600  1
  C  C1000  1  0.493500  0.096300  0.311600  1
  C  C1001  1  0.630500  0.093100  0.853600  1
  C  C1002  1  0.723100  0.760500  0.853600  1
  C  C1003  1  0.739500  0.776900  0.646400  1
  C  C1004  1  0.406900  0.869500  0.646400  1
  C  C1005  1  0.369500  0.906900  0.146400  1
  C  C1006  1  0.276900  0.239500  0.146400  1
  C  C1007  1  0.260500  0.223100  0.353600  1
  C  C1008  1  0.593100  0.130500  0.353600  1
  C  C1009  1  0.650200  0.121000  0.861400  1
  C  C1010  1  0.711200  0.740400  0.861400  1
  C  C1011  1  0.759600  0.788800  0.638600  1
  C  C1012  1  0.379000  0.849800  0.638600  1
  C  C1013  1  0.349800  0.879000  0.138600  1
  C  C1014  1  0.288800  0.259600  0.138600  1
  C  C1015  1  0.240400  0.211200  0.361400  1
  C  C1016  1  0.621000  0.150200  0.361400  1
  C  C1017  1  0.664900  0.144500  0.840200  1
  C  C1018  1  0.675300  0.695700  0.840200  1
  C  C1019  1  0.804300  0.824700  0.659800  1
  C  C1020  1  0.355500  0.835100  0.659800  1
  C  C1021  1  0.335100  0.855500  0.159800  1
  C  C1022  1  0.324700  0.304300  0.159800  1
  C  C1023  1  0.195700  0.175300  0.340200  1
  C  C1024  1  0.644500  0.164900  0.340200  1
  C  C1025  1  0.685300  0.170900  0.870600  1
  C  C1026  1  0.685300  0.699700  0.870600  1
  C  C1027  1  0.800300  0.814700  0.629400  1
  C  C1028  1  0.329100  0.814700  0.629400  1
  C  C1029  1  0.314700  0.829100  0.129400  1
  C  C1030  1  0.314700  0.300300  0.129400  1
  C  C1031  1  0.199700  0.185300  0.370600  1
  C  C1032  1  0.670900  0.185300  0.370600  1
  C  C1033  1  0.687100  0.172900  0.898800  1
  C  C1034  1  0.711700  0.725900  0.898800  1
  C  C1035  1  0.774100  0.788300  0.601200  1
  C  C1036  1  0.327100  0.812900  0.601200  1
  C  C1037  1  0.312900  0.827100  0.101200  1
  C  C1038  1  0.288300  0.274100  0.101200  1
  C  C1039  1  0.225900  0.211700  0.398800  1
  C  C1040  1  0.672900  0.187100  0.398800  1
  C  C1041  1  0.668800  0.146800  0.894200  1
  C  C1042  1  0.725400  0.747400  0.894200  1
  C  C1043  1  0.752600  0.774600  0.605800  1
  C  C1044  1  0.353200  0.831200  0.605800  1
  C  C1045  1  0.331200  0.853200  0.105800  1
  C  C1046  1  0.274600  0.252600  0.105800  1
  C  C1047  1  0.247400  0.225400  0.394200  1
  C  C1048  1  0.646800  0.168800  0.394200  1
  C  C1049  1  0.704400  0.197200  0.875600  1
  C  C1050  1  0.671200  0.678400  0.875600  1
  C  C1051  1  0.821600  0.828800  0.624400  1
  C  C1052  1  0.302800  0.795600  0.624400  1
  C  C1053  1  0.295600  0.802800  0.124400  1
  C  C1054  1  0.328800  0.321600  0.124400  1
  C  C1055  1  0.178400  0.171200  0.375600  1
  C  C1056  1  0.697200  0.204400  0.375600  1
  C  C1057  1  0.706500  0.194500  0.849800  1
  C  C1058  1  0.643300  0.655300  0.849800  1
  C  C1059  1  0.844700  0.856700  0.650200  1
  C  C1060  1  0.305500  0.793500  0.650200  1
  C  C1061  1  0.293500  0.805500  0.150200  1
  C  C1062  1  0.356700  0.344700  0.150200  1
  C  C1063  1  0.155300  0.143300  0.349800  1
  C  C1064  1  0.694500  0.206500  0.349800  1
  C  C1065  1  0.738600  0.245200  0.881800  1
  C  C1066  1  0.643200  0.636600  0.881800  1
  C  C1067  1  0.863400  0.856800  0.618200  1
  C  C1068  1  0.254800  0.761400  0.618200  1
  C  C1069  1  0.261400  0.754800  0.118200  1
  C  C1070  1  0.356800  0.363400  0.118200  1
  C  C1071  1  0.136600  0.143200  0.381800  1
  C  C1072  1  0.745200  0.238600  0.381800  1
  C  C1073  1  0.735800  0.250000  0.907600  1
  C  C1074  1  0.671800  0.657600  0.907600  1
  C  C1075  1  0.842400  0.828200  0.592400  1
  C  C1076  1  0.250000  0.764200  0.592400  1
  C  C1077  1  0.264200  0.750000  0.092400  1
  C  C1078  1  0.328200  0.342400  0.092400  1
  C  C1079  1  0.157600  0.171800  0.407600  1
  C  C1080  1  0.750000  0.235800  0.407600  1
  C  C1081  1  0.718900  0.224700  0.904200  1
  C  C1082  1  0.685300  0.679500  0.904200  1
  C  C1083  1  0.820500  0.814700  0.595800  1
  C  C1084  1  0.275300  0.781100  0.595800  1
  C  C1085  1  0.281100  0.775300  0.095800  1
  C  C1086  1  0.314700  0.320500  0.095800  1
  C  C1087  1  0.179500  0.185300  0.404200  1
  C  C1088  1  0.724700  0.218900  0.404200  1
  C  C1089  1  0.756500  0.268300  0.882200  1
  C  C1090  1  0.625700  0.613900  0.882200  1
  C  C1091  1  0.886100  0.874300  0.617800  1
  C  C1092  1  0.231700  0.743500  0.617800  1
  C  C1093  1  0.243500  0.731700  0.117800  1
  C  C1094  1  0.374300  0.386100  0.117800  1
  C  C1095  1  0.113900  0.125700  0.382200  1
  C  C1096  1  0.768300  0.256500  0.382200  1
  C  C1097  1  0.772300  0.284300  0.853800  1
  C  C1098  1  0.581500  0.569500  0.853800  1
  C  C1099  1  0.930500  0.918500  0.646200  1
  C  C1100  1  0.215700  0.727700  0.646200  1
  C  C1101  1  0.227700  0.715700  0.146200  1
  C  C1102  1  0.418500  0.430500  0.146200  1
  C  C1103  1  0.069500  0.081500  0.353800  1
  C  C1104  1  0.784300  0.272300  0.353800  1
  C  C1105  1  0.798700  0.280900  0.856400  1
  C  C1106  1  0.557700  0.575500  0.856400  1
  C  C1107  1  0.924500  0.942300  0.643600  1
  C  C1108  1  0.219100  0.701300  0.643600  1
  C  C1109  1  0.201300  0.719100  0.143600  1
  C  C1110  1  0.442300  0.424500  0.143600  1
  C  C1111  1  0.075500  0.057700  0.356400  1
  C  C1112  1  0.780900  0.298700  0.356400  1
  C  C1113  1  0.817700  0.300300  0.855600  1
  C  C1114  1  0.537900  0.555300  0.855600  1
  C  C1115  1  0.944700  0.962100  0.644400  1
  C  C1116  1  0.199700  0.682300  0.644400  1
  C  C1117  1  0.182300  0.699700  0.144400  1
  C  C1118  1  0.462100  0.444700  0.144400  1
  C  C1119  1  0.055300  0.037900  0.355600  1
  C  C1120  1  0.800300  0.317700  0.355600  1
  C  C1121  1  0.810200  0.323400  0.852000  1
  C  C1122  1  0.541800  0.528600  0.852000  1
  C  C1123  1  0.971400  0.958200  0.648000  1
  C  C1124  1  0.176600  0.689800  0.648000  1
  C  C1125  1  0.189800  0.676600  0.148000  1
  C  C1126  1  0.458200  0.471400  0.148000  1
  C  C1127  1  0.028600  0.041800  0.352000  1
  C  C1128  1  0.823400  0.310200  0.352000  1
  C  C1129  1  0.783700  0.326900  0.849400  1
  C  C1130  1  0.565700  0.522500  0.849400  1
  C  C1131  1  0.977500  0.934300  0.650600  1
  C  C1132  1  0.173100  0.716300  0.650600  1
  C  C1133  1  0.216300  0.673100  0.150600  1
  C  C1134  1  0.434300  0.477500  0.150600  1
  C  C1135  1  0.022500  0.065700  0.349400  1
  C  C1136  1  0.826900  0.283700  0.349400  1
  C  C1137  1  0.764700  0.307300  0.850200  1
  C  C1138  1  0.585500  0.542900  0.850200  1
  C  C1139  1  0.957100  0.914500  0.649800  1
  C  C1140  1  0.192700  0.735300  0.649800  1
  C  C1141  1  0.235300  0.692700  0.149800  1
  C  C1142  1  0.414500  0.457100  0.149800  1
  C  C1143  1  0.042900  0.085500  0.350200  1
  C  C1144  1  0.807300  0.264700  0.350200  1
  C  C1145  1  0.836300  0.351300  0.863600  1
  C  C1146  1  0.527300  0.512300  0.863600  1
  C  C1147  1  0.987700  0.972700  0.636400  1
  C  C1148  1  0.148700  0.663700  0.636400  1
  C  C1149  1  0.163700  0.648700  0.136400  1
  C  C1150  1  0.472700  0.487700  0.136400  1
  C  C1151  1  0.012300  0.027300  0.363600  1
  C  C1152  1  0.851300  0.336300  0.363600  1
  C  C1153  1  0.411000  0.086800  0.700400  1
  C  C1154  1  0.789400  0.613600  0.700400  1
  C  C1155  1  0.886400  0.710600  0.799600  1
  C  C1156  1  0.413200  0.089000  0.799600  1
  C  C1157  1  0.589000  0.913200  0.299600  1
  C  C1158  1  0.210600  0.386400  0.299600  1
  C  C1159  1  0.113600  0.289400  0.200400  1
  C  C1160  1  0.586800  0.911000  0.200400  1
  C  C1161  1  0.434900  0.108700  0.742000  1
  C  C1162  1  0.807100  0.633300  0.742000  1
  C  C1163  1  0.866700  0.692900  0.758000  1
  C  C1164  1  0.391300  0.065100  0.758000  1
  C  C1165  1  0.565100  0.891300  0.258000  1
  C  C1166  1  0.192900  0.366700  0.258000  1
  C  C1167  1  0.133300  0.307100  0.242000  1
  C  C1168  1  0.608700  0.934900  0.242000  1
  C  C1169  1  0.455700  0.103900  0.759000  1
  C  C1170  1  0.803300  0.655100  0.759000  1
  C  C1171  1  0.844900  0.696700  0.741000  1
  C  C1172  1  0.396100  0.044300  0.741000  1
  C  C1173  1  0.544300  0.896100  0.241000  1
  C  C1174  1  0.196700  0.344900  0.241000  1
  C  C1175  1  0.155100  0.303300  0.259000  1
  C  C1176  1  0.603900  0.955700  0.259000  1
  C  C1177  1  0.474000  0.125400  0.793800  1
  C  C1178  1  0.819800  0.668400  0.793800  1
  C  C1179  1  0.831600  0.680200  0.706200  1
  C  C1180  1  0.374600  0.026000  0.706200  1
  C  C1181  1  0.526000  0.874600  0.206200  1
  C  C1182  1  0.180200  0.331600  0.206200  1
  C  C1183  1  0.168400  0.319800  0.293800  1
  C  C1184  1  0.625400  0.974000  0.293800  1
  C  C1185  1  0.471900  0.153500  0.806800  1
  C  C1186  1  0.834900  0.653300  0.806800  1
  C  C1187  1  0.846700  0.665100  0.693200  1
  C  C1188  1  0.346500  0.028100  0.693200  1
  C  C1189  1  0.528100  0.846500  0.193200  1
  C  C1190  1  0.165100  0.346700  0.193200  1
  C  C1191  1  0.153300  0.334900  0.306800  1
  C  C1192  1  0.653500  0.971900  0.306800  1
  C  C1193  1  0.452500  0.161500  0.788400  1
  C  C1194  1  0.835900  0.626900  0.788400  1
  C  C1195  1  0.873100  0.664100  0.711600  1
  C  C1196  1  0.338500  0.047500  0.711600  1
  C  C1197  1  0.547500  0.838500  0.211600  1
  C  C1198  1  0.164100  0.373100  0.211600  1
  C  C1199  1  0.126900  0.335900  0.288400  1
  C  C1200  1  0.661500  0.952500  0.288400  1
  C  C1201  1  0.430500  0.138300  0.753600  1
  C  C1202  1  0.823100  0.615300  0.753600  1
  C  C1203  1  0.884700  0.676900  0.746400  1
  C  C1204  1  0.361700  0.069500  0.746400  1
  C  C1205  1  0.569500  0.861700  0.246400  1
  C  C1206  1  0.176900  0.384700  0.246400  1
  C  C1207  1  0.115300  0.323100  0.253600  1
  C  C1208  1  0.638300  0.930500  0.253600  1
  C  C1209  1  0.482140  0.190340  0.858680  1
  C  C1210  1  0.876540  0.668340  0.858680  1
  C  C1211  1  0.831660  0.623460  0.641320  1
  C  C1212  1  0.309660  0.017860  0.641320  1
  C  C1213  1  0.517860  0.809660  0.141320  1
  C  C1214  1  0.123460  0.331660  0.141320  1
  C  C1215  1  0.168340  0.376540  0.358680  1
  C  C1216  1  0.690340  0.982140  0.358680  1
  C  C1217  1  0.553620  0.235360  0.940640  1
  C  C1218  1  0.887020  0.705280  0.940640  1
  C  C1219  1  0.794720  0.612980  0.559360  1
  C  C1220  1  0.264640  0.946380  0.559360  1
  C  C1221  1  0.446380  0.764640  0.059360  1
  C  C1222  1  0.112980  0.294720  0.059360  1
  C  C1223  1  0.205280  0.387020  0.440640  1
  C  C1224  1  0.735360  0.053620  0.440640  1
  C  C1225  1  0.545150  0.253410  0.961080  1
  C  C1226  1  0.915930  0.707670  0.961080  1
  C  C1227  1  0.792330  0.584070  0.538920  1
  C  C1228  1  0.246590  0.954850  0.538920  1
  C  C1229  1  0.454850  0.746590  0.038920  1
  C  C1230  1  0.084070  0.292330  0.038920  1
  C  C1231  1  0.207670  0.415930  0.461080  1
  C  C1232  1  0.753410  0.045150  0.461080  1
  C  C1233  1  0.515200  0.251040  0.947920  1
  C  C1234  1  0.932720  0.696880  0.947920  1
  C  C1235  1  0.803120  0.567280  0.552080  1
  C  C1236  1  0.248960  0.984800  0.552080  1
  C  C1237  1  0.484800  0.748960  0.052080  1
  C  C1238  1  0.067280  0.303120  0.052080  1
  C  C1239  1  0.196880  0.432720  0.447920  1
  C  C1240  1  0.751040  0.015200  0.447920  1
  C  C1241  1  0.493710  0.230590  0.914300  1
  C  C1242  1  0.920590  0.683710  0.914300  1
  C  C1243  1  0.816290  0.579410  0.585700  1
  C  C1244  1  0.269410  0.006290  0.585700  1
  C  C1245  1  0.506290  0.769410  0.085700  1
  C  C1246  1  0.079410  0.316290  0.085700  1
  C  C1247  1  0.183710  0.420590  0.414300  1
  C  C1248  1  0.730590  0.993710  0.414300  1
  C  C1249  1  0.502190  0.212550  0.893860  1
  C  C1250  1  0.891670  0.681310  0.893860  1
  C  C1251  1  0.818690  0.608330  0.606140  1
  C  C1252  1  0.287450  0.997810  0.606140  1
  C  C1253  1  0.497810  0.787450  0.106140  1
  C  C1254  1  0.108330  0.318690  0.106140  1
  C  C1255  1  0.181310  0.391670  0.393860  1
  C  C1256  1  0.712550  0.002190  0.393860  1
  C  C1257  1  0.568400  0.276200  0.995200  1
  C  C1258  1  0.926800  0.719000  0.995200  1
  C  C1259  1  0.781000  0.573200  0.504800  1
  C  C1260  1  0.223800  0.931600  0.504800  1
  C  C1261  1  0.431600  0.723800  0.004800  1
  C  C1262  1  0.073200  0.281000  0.004800  1
  C  C1263  1  0.219000  0.426800  0.495200  1
  C  C1264  1  0.776200  0.068400  0.495200  1
  C  C1265  1  0.590200  0.270400  0.014800  1
  C  C1266  1  0.924600  0.744400  0.014800  1
  C  C1267  1  0.755600  0.575400  0.485200  1
  C  C1268  1  0.229600  0.909800  0.485200  1
  C  C1269  1  0.409800  0.729600  0.985200  1
  C  C1270  1  0.075400  0.255600  0.985200  1
  C  C1271  1  0.244400  0.424600  0.514800  1
  C  C1272  1  0.770400  0.090200  0.514800  1
  C  C1273  1  0.615600  0.319400  0.060200  1
  C  C1274  1  0.944600  0.740800  0.060200  1
  C  C1275  1  0.759200  0.555400  0.439800  1
  C  C1276  1  0.180600  0.884400  0.439800  1
  C  C1277  1  0.384400  0.680600  0.939800  1
  C  C1278  1  0.055400  0.259200  0.939800  1
  C  C1279  1  0.240800  0.444600  0.560200  1
  C  C1280  1  0.819400  0.115600  0.560200  1
  C  C1281  1  0.594000  0.329200  0.043400  1
  C  C1282  1  0.949400  0.714200  0.043400  1
  C  C1283  1  0.785800  0.550600  0.456600  1
  C  C1284  1  0.170800  0.906000  0.456600  1
  C  C1285  1  0.406000  0.670800  0.956600  1
  C  C1286  1  0.050600  0.285800  0.956600  1
  C  C1287  1  0.214200  0.449400  0.543400  1
  C  C1288  1  0.829200  0.094000  0.543400  1
  C  C1289  1  0.569700  0.305900  0.009600  1
  C  C1290  1  0.939900  0.703700  0.009600  1
  C  C1291  1  0.796300  0.560100  0.490400  1
  C  C1292  1  0.194100  0.930300  0.490400  1
  C  C1293  1  0.430300  0.694100  0.990400  1
  C  C1294  1  0.060100  0.296300  0.990400  1
  C  C1295  1  0.203700  0.439900  0.509600  1
  C  C1296  1  0.805900  0.069700  0.509600  1
  C  C1297  1  0.640000  0.340800  0.091800  1
  C  C1298  1  0.951800  0.751000  0.091800  1
  C  C1299  1  0.749000  0.548200  0.408200  1
  C  C1300  1  0.159200  0.860000  0.408200  1
  C  C1301  1  0.360000  0.659200  0.908200  1
  C  C1302  1  0.048200  0.249000  0.908200  1
  C  C1303  1  0.251000  0.451800  0.591800  1
  C  C1304  1  0.840800  0.140000  0.591800  1
  C  C1305  1  0.685100  0.353300  0.143600  1
  C  C1306  1  0.958500  0.790300  0.143600  1
  C  C1307  1  0.709700  0.541500  0.356400  1
  C  C1308  1  0.146700  0.814900  0.356400  1
  C  C1309  1  0.314900  0.646700  0.856400  1
  C  C1310  1  0.041500  0.209700  0.856400  1
  C  C1311  1  0.290300  0.458500  0.643600  1
  C  C1312  1  0.853300  0.185100  0.643600  1
  C  C1313  1  0.712200  0.350400  0.154200  1
  C  C1314  1  0.942000  0.803800  0.154200  1
  C  C1315  1  0.696200  0.558000  0.345800  1
  C  C1316  1  0.149600  0.787800  0.345800  1
  C  C1317  1  0.287800  0.649600  0.845800  1
  C  C1318  1  0.058000  0.196200  0.845800  1
  C  C1319  1  0.303800  0.442000  0.654200  1
  C  C1320  1  0.850400  0.212200  0.654200  1
  C  C1321  1  0.735500  0.368700  0.186800  1
  C  C1322  1  0.951300  0.818100  0.186800  1
  C  C1323  1  0.681900  0.548700  0.313200  1
  C  C1324  1  0.131300  0.764500  0.313200  1
  C  C1325  1  0.264500  0.631300  0.813200  1
  C  C1326  1  0.048700  0.181900  0.813200  1
  C  C1327  1  0.318100  0.451300  0.686800  1
  C  C1328  1  0.868700  0.235500  0.686800  1
  C  C1329  1  0.731900  0.391300  0.208800  1
  C  C1330  1  0.976900  0.817500  0.208800  1
  C  C1331  1  0.682500  0.523100  0.291200  1
  C  C1332  1  0.108700  0.768100  0.291200  1
  C  C1333  1  0.268100  0.608700  0.791200  1
  C  C1334  1  0.023100  0.182500  0.791200  1
  C  C1335  1  0.317500  0.476900  0.708800  1
  C  C1336  1  0.891300  0.231900  0.708800  1
  C  C1337  1  0.704500  0.394500  0.197400  1
  C  C1338  1  0.992900  0.802900  0.197400  1
  C  C1339  1  0.697100  0.507100  0.302600  1
  C  C1340  1  0.105500  0.795500  0.302600  1
  C  C1341  1  0.295500  0.605500  0.802600  1
  C  C1342  1  0.007100  0.197100  0.802600  1
  C  C1343  1  0.302900  0.492900  0.697400  1
  C  C1344  1  0.894500  0.204500  0.697400  1
  C  C1345  1  0.681100  0.378300  0.166000  1
  C  C1346  1  0.984900  0.787700  0.166000  1
  C  C1347  1  0.712300  0.515100  0.334000  1
  C  C1348  1  0.121700  0.818900  0.334000  1
  C  C1349  1  0.318900  0.621700  0.834000  1
  C  C1350  1  0.015100  0.212300  0.834000  1
  C  C1351  1  0.287700  0.484900  0.666000  1
  C  C1352  1  0.878300  0.181100  0.666000  1
  C  C1353  1  0.757800  0.409400  0.245600  1
  C  C1354  1  0.987800  0.836200  0.245600  1
  C  C1355  1  0.663800  0.512200  0.254400  1
  C  C1356  1  0.090600  0.742200  0.254400  1
  C  C1357  1  0.242200  0.590600  0.754400  1
  C  C1358  1  0.012200  0.163800  0.754400  1
  C  C1359  1  0.336200  0.487800  0.745600  1
  C  C1360  1  0.909400  0.257800  0.745600  1
  C  C1361  1  0.464300  0.053100  0.845800  1
  C  C1362  1  0.881500  0.792700  0.845800  1
  C  C1363  1  0.707300  0.618500  0.654200  1
  C  C1364  1  0.446900  0.035700  0.654200  1
  C  C1365  1  0.535700  0.946900  0.154200  1
  C  C1366  1  0.118500  0.207300  0.154200  1
  C  C1367  1  0.292700  0.381500  0.345800  1
  C  C1368  1  0.553100  0.964300  0.345800  1
  C  C1369  1  0.489390  0.081590  0.855060  1
  C  C1370  1  0.865670  0.773470  0.855060  1
  C  C1371  1  0.726530  0.634330  0.644940  1
  C  C1372  1  0.418410  0.010610  0.644940  1
  C  C1373  1  0.510610  0.918410  0.144940  1
  C  C1374  1  0.134330  0.226530  0.144940  1
  C  C1375  1  0.273470  0.365670  0.355060  1
  C  C1376  1  0.581590  0.989390  0.355060  1
  C  C1377  1  0.487290  0.109490  0.870580  1
  C  C1378  1  0.883290  0.761090  0.870580  1
  C  C1379  1  0.738910  0.616710  0.629420  1
  C  C1380  1  0.390510  0.012710  0.629420  1
  C  C1381  1  0.512710  0.890510  0.129420  1
  C  C1382  1  0.116710  0.238910  0.129420  1
  C  C1383  1  0.261090  0.383290  0.370580  1
  C  C1384  1  0.609490  0.987290  0.370580  1
  C  C1385  1  0.508150  0.135590  0.880140  1
  C  C1386  1  0.871990  0.744550  0.880140  1
  C  C1387  1  0.755450  0.628010  0.619860  1
  C  C1388  1  0.364410  0.991850  0.619860  1
  C  C1389  1  0.491850  0.864410  0.119860  1
  C  C1390  1  0.128010  0.255450  0.119860  1
  C  C1391  1  0.244550  0.371990  0.380140  1
  C  C1392  1  0.635590  0.008150  0.380140  1
  C  C1393  1  0.531020  0.133820  0.874160  1
  C  C1394  1  0.843140  0.740340  0.874160  1
  C  C1395  1  0.759660  0.656860  0.625840  1
  C  C1396  1  0.366180  0.968980  0.625840  1
  C  C1397  1  0.468980  0.866180  0.125840  1
  C  C1398  1  0.156860  0.259660  0.125840  1
  C  C1399  1  0.240340  0.343140  0.374160  1
  C  C1400  1  0.633820  0.031020  0.374160  1
  C  C1401  1  0.533150  0.105890  0.858640  1
  C  C1402  1  0.825490  0.752750  0.858640  1
  C  C1403  1  0.747250  0.674510  0.641360  1
  C  C1404  1  0.394110  0.966850  0.641360  1
  C  C1405  1  0.466850  0.894110  0.141360  1
  C  C1406  1  0.174510  0.247250  0.141360  1
  C  C1407  1  0.252750  0.325490  0.358640  1
  C  C1408  1  0.605890  0.033150  0.358640  1
  C  C1409  1  0.512290  0.079790  0.849080  1
  C  C1410  1  0.836790  0.769290  0.849080  1
  C  C1411  1  0.730710  0.663210  0.650920  1
  C  C1412  1  0.420210  0.987710  0.650920  1
  C  C1413  1  0.487710  0.920210  0.150920  1
  C  C1414  1  0.163210  0.230710  0.150920  1
  C  C1415  1  0.269290  0.336790  0.349080  1
  C  C1416  1  0.579790  0.012290  0.349080  1
  C  C1417  1  0.577800  0.166400  0.898200  1
  C  C1418  1  0.820400  0.731800  0.898200  1
  C  C1419  1  0.768200  0.679600  0.601800  1
  C  C1420  1  0.333600  0.922200  0.601800  1
  C  C1421  1  0.422200  0.833600  0.101800  1
  C  C1422  1  0.179600  0.268200  0.101800  1
  C  C1423  1  0.231800  0.320400  0.398200  1
  C  C1424  1  0.666400  0.077800  0.398200  1
  C  C1425  1  0.602000  0.193200  0.908800  1
  C  C1426  1  0.806800  0.715600  0.908800  1
  C  C1427  1  0.784400  0.693200  0.591200  1
  C  C1428  1  0.306800  0.898000  0.591200  1
  C  C1429  1  0.398000  0.806800  0.091200  1
  C  C1430  1  0.193200  0.284400  0.091200  1
  C  C1431  1  0.215600  0.306800  0.408800  1
  C  C1432  1  0.693200  0.102000  0.408800  1
  C  C1433  1  0.607800  0.235800  0.905400  1
  C  C1434  1  0.797600  0.669600  0.905400  1
  C  C1435  1  0.830400  0.702400  0.594600  1
  C  C1436  1  0.264200  0.892200  0.594600  1
  C  C1437  1  0.392200  0.764200  0.094600  1
  C  C1438  1  0.202400  0.330400  0.094600  1
  C  C1439  1  0.169600  0.297600  0.405400  1
  C  C1440  1  0.735800  0.107800  0.405400  1
  C  C1441  1  0.638800  0.242600  0.919600  1
  C  C1442  1  0.780800  0.677000  0.919600  1
  C  C1443  1  0.823000  0.719200  0.580400  1
  C  C1444  1  0.257400  0.861200  0.580400  1
  C  C1445  1  0.361200  0.757400  0.080400  1
  C  C1446  1  0.219200  0.323000  0.080400  1
  C  C1447  1  0.177000  0.280800  0.419600  1
  C  C1448  1  0.742600  0.138800  0.419600  1
  C  C1449  1  0.650000  0.223600  0.928400  1
  C  C1450  1  0.778400  0.704800  0.928400  1
  C  C1451  1  0.795200  0.721600  0.571600  1
  C  C1452  1  0.276400  0.850000  0.571600  1
  C  C1453  1  0.350000  0.776400  0.071600  1
  C  C1454  1  0.221600  0.295200  0.071600  1
  C  C1455  1  0.204800  0.278400  0.428400  1
  C  C1456  1  0.723600  0.150000  0.428400  1
  C  C1457  1  0.632100  0.199100  0.923400  1
  C  C1458  1  0.791300  0.724300  0.923400  1
  C  C1459  1  0.775700  0.708700  0.576600  1
  C  C1460  1  0.300900  0.867900  0.576600  1
  C  C1461  1  0.367900  0.800900  0.076600  1
  C  C1462  1  0.208700  0.275700  0.076600  1
  C  C1463  1  0.224300  0.291300  0.423400  1
  C  C1464  1  0.699100  0.132100  0.423400  1
  C  C1465  1  0.658700  0.269300  0.925200  1
  C  C1466  1  0.766500  0.655900  0.925200  1
  C  C1467  1  0.844100  0.733500  0.574800  1
  C  C1468  1  0.230700  0.841300  0.574800  1
  C  C1469  1  0.341300  0.730700  0.074800  1
  C  C1470  1  0.233500  0.344100  0.074800  1
  C  C1471  1  0.155900  0.266500  0.425200  1
  C  C1472  1  0.769300  0.158700  0.425200  1
  C  C1473  1  0.645800  0.284200  0.909800  1
  C  C1474  1  0.764000  0.625600  0.909800  1
  C  C1475  1  0.874400  0.736000  0.590200  1
  C  C1476  1  0.215800  0.854200  0.590200  1
  C  C1477  1  0.354200  0.715800  0.090200  1
  C  C1478  1  0.236000  0.374400  0.090200  1
  C  C1479  1  0.125600  0.264000  0.409800  1
  C  C1480  1  0.784200  0.145800  0.409800  1
  C  C1481  1  0.690900  0.318700  0.932000  1
  C  C1482  1  0.741100  0.613300  0.932000  1
  C  C1483  1  0.886700  0.758900  0.568000  1
  C  C1484  1  0.181300  0.809100  0.568000  1
  C  C1485  1  0.309100  0.681300  0.068000  1
  C  C1486  1  0.258900  0.386700  0.068000  1
  C  C1487  1  0.113300  0.241100  0.432000  1
  C  C1488  1  0.818700  0.190900  0.432000  1
  C  C1489  1  0.707100  0.305900  0.950200  1
  C  C1490  1  0.743100  0.644300  0.950200  1
  C  C1491  1  0.855700  0.756900  0.549800  1
  C  C1492  1  0.194100  0.792900  0.549800  1
  C  C1493  1  0.292900  0.694100  0.049800  1
  C  C1494  1  0.256900  0.355700  0.049800  1
  C  C1495  1  0.144300  0.243100  0.450200  1
  C  C1496  1  0.805900  0.207100  0.450200  1
  C  C1497  1  0.688700  0.281500  0.945600  1
  C  C1498  1  0.756900  0.664100  0.945600  1
  C  C1499  1  0.835900  0.743100  0.554400  1
  C  C1500  1  0.218500  0.811300  0.554400  1
  C  C1501  1  0.311300  0.718500  0.054400  1
  C  C1502  1  0.243100  0.335900  0.054400  1
  C  C1503  1  0.164100  0.256900  0.445600  1
  C  C1504  1  0.781500  0.188700  0.445600  1
  C  C1505  1  0.706000  0.344600  0.934200  1
  C  C1506  1  0.728200  0.589600  0.934200  1
  C  C1507  1  0.910400  0.771800  0.565800  1
  C  C1508  1  0.155400  0.794000  0.565800  1
  C  C1509  1  0.294000  0.655400  0.065800  1
  C  C1510  1  0.271800  0.410400  0.065800  1
  C  C1511  1  0.089600  0.228200  0.434200  1
  C  C1512  1  0.844600  0.206000  0.434200  1
  C  C1513  1  0.705300  0.379900  0.919200  1
  C  C1514  1  0.713900  0.539300  0.919200  1
  C  C1515  1  0.960700  0.786100  0.580800  1
  C  C1516  1  0.120100  0.794700  0.580800  1
  C  C1517  1  0.294700  0.620100  0.080800  1
  C  C1518  1  0.286100  0.460700  0.080800  1
  C  C1519  1  0.039300  0.213900  0.419200  1
  C  C1520  1  0.879900  0.205300  0.419200  1
  C  C1521  1  0.716500  0.409900  0.945000  1
  C  C1522  1  0.728500  0.535100  0.945000  1
  C  C1523  1  0.964900  0.771500  0.555000  1
  C  C1524  1  0.090100  0.783500  0.555000  1
  C  C1525  1  0.283500  0.590100  0.055000  1
  C  C1526  1  0.271500  0.464900  0.055000  1
  C  C1527  1  0.035100  0.228500  0.445000  1
  C  C1528  1  0.909900  0.216500  0.445000  1
  C  C1529  1  0.728800  0.433400  0.943400  1
  C  C1530  1  0.714600  0.510000  0.943400  1
  C  C1531  1  0.990000  0.785400  0.556600  1
  C  C1532  1  0.066600  0.771200  0.556600  1
  C  C1533  1  0.271200  0.566600  0.056600  1
  C  C1534  1  0.285400  0.490000  0.056600  1
  C  C1535  1  0.010000  0.214600  0.443400  1
  C  C1536  1  0.933400  0.228800  0.443400  1
  C  C1537  1  0.729900  0.426700  0.915800  1
  C  C1538  1  0.685900  0.489100  0.915800  1
  C  C1539  1  0.010900  0.814100  0.584200  1
  C  C1540  1  0.073300  0.770100  0.584200  1
  C  C1541  1  0.270100  0.573300  0.084200  1
  C  C1542  1  0.314100  0.510900  0.084200  1
  C  C1543  1  0.989100  0.185900  0.415800  1
  C  C1544  1  0.926700  0.229900  0.415800  1
  C  C1545  1  0.718600  0.396800  0.890000  1
  C  C1546  1  0.671400  0.493200  0.890000  1
  C  C1547  1  0.006800  0.828600  0.610000  1
  C  C1548  1  0.103200  0.781400  0.610000  1
  C  C1549  1  0.281400  0.603200  0.110000  1
  C  C1550  1  0.328600  0.506800  0.110000  1
  C  C1551  1  0.993200  0.171400  0.390000  1
  C  C1552  1  0.896800  0.218600  0.390000  1
  C  C1553  1  0.706300  0.373300  0.891600  1
  C  C1554  1  0.685300  0.518300  0.891600  1
  C  C1555  1  0.981700  0.814700  0.608400  1
  C  C1556  1  0.126700  0.793700  0.608400  1
  C  C1557  1  0.293700  0.626700  0.108400  1
  C  C1558  1  0.314700  0.481700  0.108400  1
  C  C1559  1  0.018300  0.185300  0.391600  1
  C  C1560  1  0.873300  0.206300  0.391600  1
  C  C1561  1  0.752600  0.454400  0.921400  1
  C  C1562  1  0.668800  0.467000  0.921400  1
  C  C1563  1  0.033000  0.831200  0.578600  1
  C  C1564  1  0.045600  0.747400  0.578600  1
  C  C1565  1  0.247400  0.545600  0.078600  1
  C  C1566  1  0.331200  0.533000  0.078600  1
  C  C1567  1  0.967000  0.168800  0.421400  1
  C  C1568  1  0.954400  0.252600  0.421400  1
  C  C1569  1  0.519200  0.325200  0.054200  1
  C  C1570  1  0.035000  0.729000  0.054200  1
  C  C1571  1  0.771000  0.465000  0.445800  1
  C  C1572  1  0.174800  0.980800  0.445800  1
  C  C1573  1  0.480800  0.674800  0.945800  1
  C  C1574  1  0.965000  0.271000  0.945800  1
  C  C1575  1  0.229000  0.535000  0.554200  1
  C  C1576  1  0.825200  0.019200  0.554200  1
  C  C1577  1  0.544200  0.313000  0.067800  1
  C  C1578  1  0.023600  0.754800  0.067800  1
  C  C1579  1  0.745200  0.476400  0.432200  1
  C  C1580  1  0.187000  0.955800  0.432200  1
  C  C1581  1  0.455800  0.687000  0.932200  1
  C  C1582  1  0.976400  0.245200  0.932200  1
  C  C1583  1  0.254800  0.523600  0.567800  1
  C  C1584  1  0.813000  0.044200  0.567800  1
  C  C1585  1  0.567100  0.332300  0.098600  1
  C  C1586  1  0.031500  0.766300  0.098600  1
  C  C1587  1  0.733700  0.468500  0.401400  1
  C  C1588  1  0.167700  0.932900  0.401400  1
  C  C1589  1  0.432900  0.667700  0.901400  1
  C  C1590  1  0.968500  0.233700  0.901400  1
  C  C1591  1  0.266300  0.531500  0.598600  1
  C  C1592  1  0.832300  0.067100  0.598600  1
  C  C1593  1  0.593700  0.325500  0.114200  1
  C  C1594  1  0.020500  0.788700  0.114200  1
  C  C1595  1  0.711300  0.479500  0.385800  1
  C  C1596  1  0.174500  0.906300  0.385800  1
  C  C1597  1  0.406300  0.674500  0.885800  1
  C  C1598  1  0.979500  0.211300  0.885800  1
  C  C1599  1  0.288700  0.520500  0.614200  1
  C  C1600  1  0.825500  0.093700  0.614200  1
  C  C1601  1  0.591300  0.298100  0.094400  1
  C  C1602  1  0.003100  0.796300  0.094400  1
  C  C1603  1  0.703700  0.496900  0.405600  1
  C  C1604  1  0.201900  0.908700  0.405600  1
  C  C1605  1  0.408700  0.701900  0.905600  1
  C  C1606  1  0.996900  0.203700  0.905600  1
  C  C1607  1  0.296300  0.503100  0.594400  1
  C  C1608  1  0.798100  0.091300  0.594400  1
  C  C1609  1  0.568500  0.277900  0.065000  1
  C  C1610  1  0.996500  0.787100  0.065000  1
  C  C1611  1  0.712900  0.503500  0.435000  1
  C  C1612  1  0.222100  0.931500  0.435000  1
  C  C1613  1  0.431500  0.722100  0.935000  1
  C  C1614  1  0.003500  0.212900  0.935000  1
  C  C1615  1  0.287100  0.496500  0.565000  1
  C  C1616  1  0.777900  0.068500  0.565000  1
  C  C1617  1  0.543100  0.285900  0.050400  1
  C  C1618  1  0.007300  0.764500  0.050400  1
  C  C1619  1  0.735500  0.492700  0.449600  1
  C  C1620  1  0.214100  0.956900  0.449600  1
  C  C1621  1  0.456900  0.714100  0.949600  1
  C  C1622  1  0.992700  0.235500  0.949600  1
  C  C1623  1  0.264500  0.507300  0.550400  1
  C  C1624  1  0.785900  0.043100  0.550400  1
  C  C1625  1  0.634800  0.296800  0.136400  1
  C  C1626  1  0.001600  0.839600  0.136400  1
  C  C1627  1  0.660400  0.498400  0.363600  1
  C  C1628  1  0.203200  0.865200  0.363600  1
  C  C1629  1  0.365200  0.703200  0.863600  1
  C  C1630  1  0.998400  0.160400  0.863600  1
  C  C1631  1  0.339600  0.501600  0.636400  1
  C  C1632  1  0.796800  0.134800  0.636400  1
  C  C1633  1  0.663000  0.292400  0.146800  1
  C  C1634  1  0.983800  0.854400  0.146800  1
  C  C1635  1  0.645600  0.516200  0.353200  1
  C  C1636  1  0.207600  0.837000  0.353200  1
  C  C1637  1  0.337000  0.707600  0.853200  1
  C  C1638  1  0.016200  0.145600  0.853200  1
  C  C1639  1  0.354400  0.483800  0.646800  1
  C  C1640  1  0.792400  0.163000  0.646800  1
  C  C1641  1  0.696200  0.278800  0.132200  1
  C  C1642  1  0.936000  0.853400  0.132200  1
  C  C1643  1  0.646600  0.564000  0.367800  1
  C  C1644  1  0.221200  0.803800  0.367800  1
  C  C1645  1  0.303800  0.721200  0.867800  1
  C  C1646  1  0.064000  0.146600  0.867800  1
  C  C1647  1  0.353400  0.436000  0.632200  1
  C  C1648  1  0.778800  0.196200  0.632200  1
  C  C1649  1  0.717900  0.285900  0.164600  1
  C  C1650  1  0.946700  0.878700  0.164600  1
  C  C1651  1  0.621300  0.553300  0.335400  1
  C  C1652  1  0.214100  0.782100  0.335400  1
  C  C1653  1  0.282100  0.714100  0.835400  1
  C  C1654  1  0.053300  0.121300  0.835400  1
  C  C1655  1  0.378700  0.446700  0.664600  1
  C  C1656  1  0.785900  0.217900  0.664600  1
  C  C1657  1  0.708300  0.297700  0.189800  1
  C  C1658  1  0.981500  0.892100  0.189800  1
  C  C1659  1  0.607900  0.518500  0.310200  1
  C  C1660  1  0.202300  0.791700  0.310200  1
  C  C1661  1  0.291700  0.702300  0.810200  1
  C  C1662  1  0.018500  0.107900  0.810200  1
  C  C1663  1  0.392100  0.481500  0.689800  1
  C  C1664  1  0.797700  0.208300  0.689800  1
  C  C1665  1  0.681200  0.299800  0.178600  1
  C  C1666  1  0.997400  0.878800  0.178600  1
  C  C1667  1  0.621200  0.502600  0.321400  1
  C  C1668  1  0.200200  0.818800  0.321400  1
  C  C1669  1  0.318800  0.700200  0.821400  1
  C  C1670  1  0.002600  0.121200  0.821400  1
  C  C1671  1  0.378800  0.497400  0.678600  1
  C  C1672  1  0.799800  0.181200  0.678600  1
  C  C1673  1  0.748900  0.284500  0.175600  1
  C  C1674  1  0.926700  0.891100  0.175600  1
  C  C1675  1  0.608900  0.573300  0.324400  1
  C  C1676  1  0.215500  0.751100  0.324400  1
  C  C1677  1  0.251100  0.715500  0.824400  1
  C  C1678  1  0.073300  0.108900  0.824400  1
  C  C1679  1  0.391100  0.426700  0.675600  1
  C  C1680  1  0.784500  0.248900  0.675600  1
  C  C1681  1  0.751000  0.258200  0.153600  1
  C  C1682  1  0.902600  0.895400  0.153600  1
  C  C1683  1  0.604600  0.597400  0.346400  1
  C  C1684  1  0.241800  0.749000  0.346400  1
  C  C1685  1  0.249000  0.741800  0.846400  1
  C  C1686  1  0.097400  0.104600  0.846400  1
  C  C1687  1  0.395400  0.402600  0.653600  1
  C  C1688  1  0.758200  0.251000  0.653600  1
  C  C1689  1  0.801400  0.278200  0.188200  1
  C  C1690  1  0.886800  0.910000  0.188200  1
  C  C1691  1  0.590000  0.613200  0.311800  1
  C  C1692  1  0.221800  0.698600  0.311800  1
  C  C1693  1  0.198600  0.721800  0.811800  1
  C  C1694  1  0.113200  0.090000  0.811800  1
  C  C1695  1  0.410000  0.386800  0.688200  1
  C  C1696  1  0.778200  0.301400  0.688200  1
  C  C1697  1  0.801300  0.305300  0.213200  1
  C  C1698  1  0.911900  0.907900  0.213200  1
  C  C1699  1  0.592100  0.588100  0.286800  1
  C  C1700  1  0.194700  0.698700  0.286800  1
  C  C1701  1  0.198700  0.694700  0.786800  1
  C  C1702  1  0.088100  0.092100  0.786800  1
  C  C1703  1  0.407900  0.411900  0.713200  1
  C  C1704  1  0.805300  0.301300  0.713200  1
  C  C1705  1  0.774000  0.306400  0.205000  1
  C  C1706  1  0.931000  0.898600  0.205000  1
  C  C1707  1  0.601400  0.569000  0.295000  1
  C  C1708  1  0.193600  0.726000  0.295000  1
  C  C1709  1  0.226000  0.693600  0.795000  1
  C  C1710  1  0.069000  0.101400  0.795000  1
  C  C1711  1  0.398600  0.431000  0.705000  1
  C  C1712  1  0.806400  0.274000  0.705000  1
  C  C1713  1  0.831500  0.277700  0.194200  1
  C  C1714  1  0.862700  0.916500  0.194200  1
  C  C1715  1  0.583500  0.637300  0.305800  1
  C  C1716  1  0.222300  0.668500  0.305800  1
  C  C1717  1  0.168500  0.722300  0.805800  1
  C  C1718  1  0.137300  0.083500  0.805800  1
  C  C1719  1  0.416500  0.362700  0.694200  1
  C  C1720  1  0.777700  0.331500  0.694200  1
  C  C1721  1  0.859900  0.251500  0.181200  1
  C  C1722  1  0.821300  0.929700  0.181200  1
  C  C1723  1  0.570300  0.678700  0.318800  1
  C  C1724  1  0.248500  0.640100  0.318800  1
  C  C1725  1  0.140100  0.748500  0.818800  1
  C  C1726  1  0.178700  0.070300  0.818800  1
  C  C1727  1  0.429700  0.321300  0.681200  1
  C  C1728  1  0.751500  0.359900  0.681200  1
  C  C1729  1  0.864100  0.236700  0.155000  1
  C  C1730  1  0.790900  0.918300  0.155000  1
  C  C1731  1  0.581700  0.709100  0.345000  1
  C  C1732  1  0.263300  0.635900  0.345000  1
  C  C1733  1  0.135900  0.763300  0.845000  1
  C  C1734  1  0.209100  0.081700  0.845000  1
  C  C1735  1  0.418300  0.290900  0.655000  1
  C  C1736  1  0.736700  0.364100  0.655000  1
  C  C1737  1  0.892300  0.232900  0.160800  1
  C  C1738  1  0.768500  0.927900  0.160800  1
  C  C1739  1  0.572100  0.731500  0.339200  1
  C  C1740  1  0.267100  0.607700  0.339200  1
  C  C1741  1  0.107700  0.767100  0.839200  1
  C  C1742  1  0.231500  0.072100  0.839200  1
  C  C1743  1  0.427900  0.268500  0.660800  1
  C  C1744  1  0.732900  0.392300  0.660800  1
  C  C1745  1  0.914200  0.243600  0.193600  1
  C  C1746  1  0.779400  0.950000  0.193600  1
  C  C1747  1  0.550000  0.720600  0.306400  1
  C  C1748  1  0.256400  0.585800  0.306400  1
  C  C1749  1  0.085800  0.756400  0.806400  1
  C  C1750  1  0.220600  0.050000  0.806400  1
  C  C1751  1  0.450000  0.279400  0.693600  1
  C  C1752  1  0.743600  0.414200  0.693600  1
  C  C1753  1  0.911900  0.259900  0.221800  1
  C  C1754  1  0.809900  0.961900  0.221800  1
  C  C1755  1  0.538100  0.690100  0.278200  1
  C  C1756  1  0.240100  0.588100  0.278200  1
  C  C1757  1  0.088100  0.740100  0.778200  1
  C  C1758  1  0.190100  0.038100  0.778200  1
  C  C1759  1  0.461900  0.309900  0.721800  1
  C  C1760  1  0.759900  0.411900  0.721800  1
  C  C1761  1  0.883800  0.260600  0.214400  1
  C  C1762  1  0.830600  0.953800  0.214400  1
  C  C1763  1  0.546200  0.669400  0.285600  1
  C  C1764  1  0.239400  0.616200  0.285600  1
  C  C1765  1  0.116200  0.739400  0.785600  1
  C  C1766  1  0.169400  0.046200  0.785600  1
  C  C1767  1  0.453800  0.330600  0.714400  1
  C  C1768  1  0.760600  0.383800  0.714400  1
  C  C1769  1  0.947100  0.241100  0.201200  1
  C  C1770  1  0.754100  0.960100  0.201200  1
  C  C1771  1  0.539900  0.745900  0.298800  1
  C  C1772  1  0.258900  0.552900  0.298800  1
  C  C1773  1  0.052900  0.758900  0.798800  1
  C  C1774  1  0.245900  0.039900  0.798800  1
  C  C1775  1  0.460100  0.254100  0.701200  1
  C  C1776  1  0.741100  0.447100  0.701200  1
  C  C1777  1  0.561400  0.136400  0.045600  1
  C  C1778  1  0.984200  0.909200  0.045600  1
  C  C1779  1  0.590800  0.515800  0.454400  1
  C  C1780  1  0.363600  0.938600  0.454400  1
  C  C1781  1  0.438600  0.863600  0.954400  1
  C  C1782  1  0.015800  0.090800  0.954400  1
  C  C1783  1  0.409200  0.484200  0.545600  1
  C  C1784  1  0.636400  0.061400  0.545600  1
  C  C1785  1  0.580200  0.162600  0.047000  1
  C  C1786  1  0.966800  0.884400  0.047000  1
  C  C1787  1  0.615600  0.533200  0.453000  1
  C  C1788  1  0.337400  0.919800  0.453000  1
  C  C1789  1  0.419800  0.837400  0.953000  1
  C  C1790  1  0.033200  0.115600  0.953000  1
  C  C1791  1  0.384400  0.466800  0.547000  1
  C  C1792  1  0.662600  0.080200  0.547000  1
  C  C1793  1  0.599000  0.157800  0.037000  1
  C  C1794  1  0.938000  0.879200  0.037000  1
  C  C1795  1  0.620800  0.562000  0.463000  1
  C  C1796  1  0.342200  0.901000  0.463000  1
  C  C1797  1  0.401000  0.842200  0.963000  1
  C  C1798  1  0.062000  0.120800  0.963000  1
  C  C1799  1  0.379200  0.438000  0.537000  1
  C  C1800  1  0.657800  0.099000  0.537000  1
  C  C1801  1  0.617600  0.181200  0.039200  1
  C  C1802  1  0.921600  0.858000  0.039200  1
  C  C1803  1  0.642000  0.578400  0.460800  1
  C  C1804  1  0.318800  0.882400  0.460800  1
  C  C1805  1  0.382400  0.818800  0.960800  1
  C  C1806  1  0.078400  0.142000  0.960800  1
  C  C1807  1  0.358000  0.421600  0.539200  1
  C  C1808  1  0.681200  0.117600  0.539200  1
  C  C1809  1  0.615000  0.208600  0.050800  1
  C  C1810  1  0.935800  0.842200  0.050800  1
  C  C1811  1  0.657800  0.564200  0.449200  1
  C  C1812  1  0.291400  0.885000  0.449200  1
  C  C1813  1  0.385000  0.791400  0.949200  1
  C  C1814  1  0.064200  0.157800  0.949200  1
  C  C1815  1  0.342200  0.435800  0.550800  1
  C  C1816  1  0.708600  0.115000  0.550800  1
  C  C1817  1  0.596000  0.213600  0.062600  1
  C  C1818  1  0.966600  0.849000  0.062600  1
  C  C1819  1  0.651000  0.533400  0.437400  1
  C  C1820  1  0.286400  0.904000  0.437400  1
  C  C1821  1  0.404000  0.786400  0.937400  1
  C  C1822  1  0.033400  0.151000  0.937400  1
  C  C1823  1  0.349000  0.466600  0.562600  1
  C  C1824  1  0.713600  0.096000  0.562600  1
  C  C1825  1  0.577000  0.190600  0.061200  1
  C  C1826  1  0.984200  0.870600  0.061200  1
  C  C1827  1  0.629400  0.515800  0.438800  1
  C  C1828  1  0.309400  0.923000  0.438800  1
  C  C1829  1  0.423000  0.809400  0.938800  1
  C  C1830  1  0.015800  0.129400  0.938800  1
  C  C1831  1  0.370600  0.484200  0.561200  1
  C  C1832  1  0.690600  0.077000  0.561200  1
  C  C1833  1  0.641100  0.226300  0.034000  1
  C  C1834  1  0.892900  0.807700  0.034000  1
  C  C1835  1  0.692300  0.607100  0.466000  1
  C  C1836  1  0.273700  0.858900  0.466000  1
  C  C1837  1  0.358900  0.773700  0.966000  1
  C  C1838  1  0.107100  0.192300  0.966000  1
  C  C1839  1  0.307700  0.392900  0.534000  1
  C  C1840  1  0.726300  0.141100  0.534000  1
  C  C1841  1  0.661300  0.249500  0.036600  1
  C  C1842  1  0.875300  0.787100  0.036600  1
  C  C1843  1  0.712900  0.624700  0.463400  1
  C  C1844  1  0.250500  0.838700  0.463400  1
  C  C1845  1  0.338700  0.750500  0.963400  1
  C  C1846  1  0.124700  0.212900  0.963400  1
  C  C1847  1  0.287100  0.375300  0.536600  1
  C  C1848  1  0.749500  0.161300  0.536600  1
  C  C1849  1  0.689200  0.300800  0.065000  1
  C  C1850  1  0.875800  0.764200  0.065000  1
  C  C1851  1  0.735800  0.624200  0.435000  1
  C  C1852  1  0.199200  0.810800  0.435000  1
  C  C1853  1  0.310800  0.699200  0.935000  1
  C  C1854  1  0.124200  0.235800  0.935000  1
  C  C1855  1  0.264200  0.375800  0.565000  1
  C  C1856  1  0.800800  0.189200  0.565000  1
  C  C1857  1  0.701100  0.296700  0.046800  1
  C  C1858  1  0.845700  0.750100  0.046800  1
  C  C1859  1  0.749900  0.654300  0.453200  1
  C  C1860  1  0.203300  0.798900  0.453200  1
  C  C1861  1  0.298900  0.703300  0.953200  1
  C  C1862  1  0.154300  0.249900  0.953200  1
  C  C1863  1  0.250100  0.345700  0.546800  1
  C  C1864  1  0.796700  0.201100  0.546800  1
  C  C1865  1  0.691200  0.266400  0.020600  1
  C  C1866  1  0.829400  0.754200  0.020600  1
  C  C1867  1  0.745800  0.670600  0.479400  1
  C  C1868  1  0.233600  0.808800  0.479400  1
  C  C1869  1  0.308800  0.733600  0.979400  1
  C  C1870  1  0.170600  0.245800  0.979400  1
  C  C1871  1  0.254200  0.329400  0.520600  1
  C  C1872  1  0.766400  0.191200  0.520600  1
  C  C1873  1  0.672000  0.242800  0.015600  1
  C  C1874  1  0.843600  0.772800  0.015600  1
  C  C1875  1  0.727200  0.656400  0.484400  1
  C  C1876  1  0.257200  0.828000  0.484400  1
  C  C1877  1  0.328000  0.757200  0.984400  1
  C  C1878  1  0.156400  0.227200  0.984400  1
  C  C1879  1  0.272800  0.343600  0.515600  1
  C  C1880  1  0.742800  0.172000  0.515600  1
  C  C1881  1  0.722000  0.321400  0.051600  1
  C  C1882  1  0.829600  0.730200  0.051600  1
  C  C1883  1  0.769800  0.670400  0.448400  1
  C  C1884  1  0.178600  0.778000  0.448400  1
  C  C1885  1  0.278000  0.678600  0.948400  1
  C  C1886  1  0.170400  0.269800  0.948400  1
  C  C1887  1  0.230200  0.329600  0.551600  1
  C  C1888  1  0.821400  0.222000  0.551600  1
  C  C1889  1  0.725200  0.350800  0.069800  1
  C  C1890  1  0.844600  0.719000  0.069800  1
  C  C1891  1  0.781000  0.655400  0.430200  1
  C  C1892  1  0.149200  0.774800  0.430200  1
  C  C1893  1  0.274800  0.649200  0.930200  1
  C  C1894  1  0.155400  0.281000  0.930200  1
  C  C1895  1  0.219000  0.344600  0.569800  1
  C  C1896  1  0.850800  0.225200  0.569800  1
  C  C1897  1  0.761900  0.368900  0.063000  1
  C  C1898  1  0.801100  0.694100  0.063000  1
  C  C1899  1  0.805900  0.698900  0.437000  1
  C  C1900  1  0.131100  0.738100  0.437000  1
  C  C1901  1  0.238100  0.631100  0.937000  1
  C  C1902  1  0.198900  0.305900  0.937000  1
  C  C1903  1  0.194100  0.301100  0.563000  1
  C  C1904  1  0.868900  0.261900  0.563000  1
  C  C1905  1  0.761100  0.340100  0.044200  1
  C  C1906  1  0.783100  0.704100  0.044200  1
  C  C1907  1  0.795900  0.716900  0.455800  1
  C  C1908  1  0.159900  0.738900  0.455800  1
  C  C1909  1  0.238900  0.659900  0.955800  1
  C  C1910  1  0.216900  0.295900  0.955800  1
  C  C1911  1  0.204100  0.283100  0.544200  1
  C  C1912  1  0.840100  0.261100  0.544200  1
  C  C1913  1  0.740600  0.315600  0.038000  1
  C  C1914  1  0.797400  0.722400  0.038000  1
  C  C1915  1  0.777600  0.702600  0.462000  1
  C  C1916  1  0.184400  0.759400  0.462000  1
  C  C1917  1  0.259400  0.684400  0.962000  1
  C  C1918  1  0.202600  0.277600  0.962000  1
  C  C1919  1  0.222400  0.297400  0.538000  1
  C  C1920  1  0.815600  0.240600  0.538000  1
  C  C1921  1  0.783800  0.397000  0.071800  1
  C  C1922  1  0.788000  0.674800  0.071800  1
  C  C1923  1  0.825200  0.712000  0.428200  1
  C  C1924  1  0.103000  0.716200  0.428200  1
  C  C1925  1  0.216200  0.603000  0.928200  1
  C  C1926  1  0.212000  0.325200  0.928200  1
  C  C1927  1  0.174800  0.288000  0.571800  1
  C  C1928  1  0.897000  0.283800  0.571800  1
  C  C1929  1  0.807200  0.447800  0.099200  1
  C  C1930  1  0.792000  0.651400  0.099200  1
  C  C1931  1  0.848600  0.708000  0.400800  1
  C  C1932  1  0.052200  0.692800  0.400800  1
  C  C1933  1  0.192800  0.552200  0.900800  1
  C  C1934  1  0.208000  0.348600  0.900800  1
  C  C1935  1  0.151400  0.292000  0.599200  1
  C  C1936  1  0.947800  0.307200  0.599200  1
  C  C1937  1  0.798900  0.471900  0.099600  1
  C  C1938  1  0.800700  0.627700  0.099600  1
  C  C1939  1  0.872300  0.699300  0.400400  1
  C  C1940  1  0.028100  0.701100  0.400400  1
  C  C1941  1  0.201100  0.528100  0.900400  1
  C  C1942  1  0.199300  0.372300  0.900400  1
  C  C1943  1  0.127700  0.300700  0.599600  1
  C  C1944  1  0.971900  0.298900  0.599600  1
  C  C1945  1  0.819800  0.497400  0.108200  1
  C  C1946  1  0.788400  0.610800  0.108200  1
  C  C1947  1  0.889200  0.711600  0.391800  1
  C  C1948  1  0.002600  0.680200  0.391800  1
  C  C1949  1  0.180200  0.502600  0.891800  1
  C  C1950  1  0.211600  0.389200  0.891800  1
  C  C1951  1  0.110800  0.288400  0.608200  1
  C  C1952  1  0.997400  0.319800  0.608200  1
  C  C1953  1  0.848900  0.498900  0.116400  1
  C  C1954  1  0.767500  0.617500  0.116400  1
  C  C1955  1  0.882500  0.732500  0.383600  1
  C  C1956  1  0.001100  0.651100  0.383600  1
  C  C1957  1  0.151100  0.501100  0.883600  1
  C  C1958  1  0.232500  0.382500  0.883600  1
  C  C1959  1  0.117500  0.267500  0.616400  1
  C  C1960  1  0.998900  0.348900  0.616400  1
  C  C1961  1  0.857200  0.474800  0.116000  1
  C  C1962  1  0.758800  0.641200  0.116000  1
  C  C1963  1  0.858800  0.741200  0.384000  1
  C  C1964  1  0.025200  0.642800  0.384000  1
  C  C1965  1  0.142800  0.525200  0.884000  1
  C  C1966  1  0.241200  0.358800  0.884000  1
  C  C1967  1  0.141200  0.258800  0.616000  1
  C  C1968  1  0.974800  0.357200  0.616000  1
  C  C1969  1  0.836300  0.449300  0.107400  1
  C  C1970  1  0.771100  0.658100  0.107400  1
  C  C1971  1  0.841900  0.728900  0.392600  1
  C  C1972  1  0.050700  0.663700  0.392600  1
  C  C1973  1  0.163700  0.550700  0.892600  1
  C  C1974  1  0.228900  0.341900  0.892600  1
  C  C1975  1  0.158100  0.271100  0.607400  1
  C  C1976  1  0.949300  0.336300  0.607400  1
  C  C1977  1  0.865800  0.528600  0.119000  1
  C  C1978  1  0.753200  0.590400  0.119000  1
  C  C1979  1  0.909600  0.746800  0.381000  1
  C  C1980  1  0.971400  0.634200  0.381000  1
  C  C1981  1  0.134200  0.471400  0.881000  1
  C  C1982  1  0.246800  0.409600  0.881000  1
  C  C1983  1  0.090400  0.253200  0.619000  1
  C  C1984  1  0.028600  0.365800  0.619000  1
  C  C1985  1  0.658900  0.103100  0.093400  1
  C  C1986  1  0.934500  0.990300  0.093400  1
  C  C1987  1  0.509700  0.565500  0.406600  1
  C  C1988  1  0.396900  0.841100  0.406600  1
  C  C1989  1  0.341100  0.896900  0.906600  1
  C  C1990  1  0.065500  0.009700  0.906600  1
  C  C1991  1  0.490300  0.434500  0.593400  1
  C  C1992  1  0.603100  0.158900  0.593400  1
  C  C1993  1  0.681000  0.127200  0.094600  1
  C  C1994  1  0.913600  0.967400  0.094600  1
  C  C1995  1  0.532600  0.586400  0.405400  1
  C  C1996  1  0.372800  0.819000  0.405400  1
  C  C1997  1  0.319000  0.872800  0.905400  1
  C  C1998  1  0.086400  0.032600  0.905400  1
  C  C1999  1  0.467400  0.413600  0.594600  1
  C  C2000  1  0.627200  0.181000  0.594600  1
  C  C2001  1  0.708100  0.124900  0.101000  1
  C  C2002  1  0.892900  0.976100  0.101000  1
  C  C2003  1  0.523900  0.607100  0.399000  1
  C  C2004  1  0.375100  0.791900  0.399000  1
  C  C2005  1  0.291900  0.875100  0.899000  1
  C  C2006  1  0.107100  0.023900  0.899000  1
  C  C2007  1  0.476100  0.392900  0.601000  1
  C  C2008  1  0.624900  0.208100  0.601000  1
  C  C2009  1  0.728000  0.146800  0.103600  1
  C  C2010  1  0.875600  0.956800  0.103600  1
  C  C2011  1  0.543200  0.624400  0.396400  1
  C  C2012  1  0.353200  0.772000  0.396400  1
  C  C2013  1  0.272000  0.853200  0.896400  1
  C  C2014  1  0.124400  0.043200  0.896400  1
  C  C2015  1  0.456800  0.375600  0.603600  1
  C  C2016  1  0.646800  0.228000  0.603600  1
  C  C2017  1  0.721600  0.169800  0.099000  1
  C  C2018  1  0.877400  0.929200  0.099000  1
  C  C2019  1  0.570800  0.622600  0.401000  1
  C  C2020  1  0.330200  0.778400  0.401000  1
  C  C2021  1  0.278400  0.830200  0.901000  1
  C  C2022  1  0.122600  0.070800  0.901000  1
  C  C2023  1  0.429200  0.377400  0.599000  1
  C  C2024  1  0.669800  0.221600  0.599000  1
  C  C2025  1  0.690200  0.165200  0.086800  1
  C  C2026  1  0.896600  0.921600  0.086800  1
  C  C2027  1  0.578400  0.603400  0.413200  1
  C  C2028  1  0.334800  0.809800  0.413200  1
  C  C2029  1  0.309800  0.834800  0.913200  1
  C  C2030  1  0.103400  0.078400  0.913200  1
  C  C2031  1  0.421600  0.396600  0.586800  1
  C  C2032  1  0.665200  0.190200  0.586800  1
  C  C2033  1  0.670600  0.144400  0.085200  1
  C  C2034  1  0.914600  0.940800  0.085200  1
  C  C2035  1  0.559200  0.585400  0.414800  1
  C  C2036  1  0.355600  0.829400  0.414800  1
  C  C2037  1  0.329400  0.855600  0.914800  1
  C  C2038  1  0.085400  0.059200  0.914800  1
  C  C2039  1  0.440800  0.414600  0.585200  1
  C  C2040  1  0.644400  0.170600  0.585200  1
  C  C2041  1  0.729900  0.190500  0.072600  1
  C  C2042  1  0.842700  0.882100  0.072600  1
  C  C2043  1  0.617900  0.657300  0.427400  1
  C  C2044  1  0.309500  0.770100  0.427400  1
  C  C2045  1  0.270100  0.809500  0.927400  1
  C  C2046  1  0.157300  0.117900  0.927400  1
  C  C2047  1  0.382100  0.342700  0.572600  1
  C  C2048  1  0.690500  0.229900  0.572600  1
  C  C2049  1  0.749700  0.213700  0.072400  1
  C  C2050  1  0.822700  0.858700  0.072400  1
  C  C2051  1  0.641300  0.677300  0.427600  1
  C  C2052  1  0.286300  0.750300  0.427600  1
  C  C2053  1  0.250300  0.786300  0.927600  1
  C  C2054  1  0.177300  0.141300  0.927600  1
  C  C2055  1  0.358700  0.322700  0.572400  1
  C  C2056  1  0.713700  0.249700  0.572400  1
  C  C2057  1  0.796100  0.248900  0.099600  1
  C  C2058  1  0.803500  0.850700  0.099600  1
  C  C2059  1  0.649300  0.696500  0.400400  1
  C  C2060  1  0.251100  0.703900  0.400400  1
  C  C2061  1  0.203900  0.751100  0.900400  1
  C  C2062  1  0.196500  0.149300  0.900400  1
  C  C2063  1  0.350700  0.303500  0.599600  1
  C  C2064  1  0.748900  0.296100  0.599600  1
  C  C2065  1  0.788000  0.257200  0.077200  1
  C  C2066  1  0.789200  0.820000  0.077200  1
  C  C2067  1  0.680000  0.710800  0.422800  1
  C  C2068  1  0.242800  0.712000  0.422800  1
  C  C2069  1  0.212000  0.742800  0.922800  1
  C  C2070  1  0.210800  0.180000  0.922800  1
  C  C2071  1  0.320000  0.289200  0.577200  1
  C  C2072  1  0.757200  0.288000  0.577200  1
  C  C2073  1  0.757200  0.240800  0.050200  1
  C  C2074  1  0.793000  0.809400  0.050200  1
  C  C2075  1  0.690600  0.707000  0.449800  1
  C  C2076  1  0.259200  0.742800  0.449800  1
  C  C2077  1  0.242800  0.759200  0.949800  1
  C  C2078  1  0.207000  0.190600  0.949800  1
  C  C2079  1  0.309400  0.293000  0.550200  1
  C  C2080  1  0.740800  0.257200  0.550200  1
  C  C2081  1  0.738300  0.218500  0.047800  1
  C  C2082  1  0.809500  0.829300  0.047800  1
  C  C2083  1  0.670700  0.690500  0.452200  1
  C  C2084  1  0.281500  0.761700  0.452200  1
  C  C2085  1  0.261700  0.781500  0.952200  1
  C  C2086  1  0.190500  0.170700  0.952200  1
  C  C2087  1  0.329300  0.309500  0.547800  1
  C  C2088  1  0.718500  0.238300  0.547800  1
  C  C2089  1  0.808000  0.280800  0.080200  1
  C  C2090  1  0.772200  0.799400  0.080200  1
  C  C2091  1  0.700600  0.727800  0.419800  1
  C  C2092  1  0.219200  0.692000  0.419800  1
  C  C2093  1  0.192000  0.719200  0.919800  1
  C  C2094  1  0.227800  0.200600  0.919800  1
  C  C2095  1  0.299400  0.272200  0.580200  1
  C  C2096  1  0.780800  0.308000  0.580200  1
  C  C2097  1  0.835600  0.301800  0.110600  1
  C  C2098  1  0.775000  0.808800  0.110600  1
  C  C2099  1  0.691200  0.725000  0.389400  1
  C  C2100  1  0.198200  0.664400  0.389400  1
  C  C2101  1  0.164400  0.698200  0.889400  1
  C  C2102  1  0.225000  0.191200  0.889400  1
  C  C2103  1  0.308800  0.275000  0.610600  1
  C  C2104  1  0.801800  0.335600  0.610600  1
  C  C2105  1  0.848300  0.326100  0.087400  1
  C  C2106  1  0.739100  0.761300  0.087400  1
  C  C2107  1  0.738700  0.760900  0.412600  1
  C  C2108  1  0.173900  0.651700  0.412600  1
  C  C2109  1  0.151700  0.673900  0.912600  1
  C  C2110  1  0.260900  0.238700  0.912600  1
  C  C2111  1  0.261300  0.239100  0.587400  1
  C  C2112  1  0.826100  0.348300  0.587400  1
  C  C2113  1  0.822100  0.306500  0.056400  1
  C  C2114  1  0.734300  0.749900  0.056400  1
  C  C2115  1  0.750100  0.765700  0.443600  1
  C  C2116  1  0.193500  0.677900  0.443600  1
  C  C2117  1  0.177900  0.693500  0.943600  1
  C  C2118  1  0.265700  0.250100  0.943600  1
  C  C2119  1  0.249900  0.234300  0.556400  1
  C  C2120  1  0.806500  0.322100  0.556400  1
  C  C2121  1  0.802400  0.284000  0.054200  1
  C  C2122  1  0.751800  0.770200  0.054200  1
  C  C2123  1  0.729800  0.748200  0.445800  1
  C  C2124  1  0.216000  0.697600  0.445800  1
  C  C2125  1  0.197600  0.716000  0.945800  1
  C  C2126  1  0.248200  0.229800  0.945800  1
  C  C2127  1  0.270200  0.251800  0.554200  1
  C  C2128  1  0.784000  0.302400  0.554200  1
  C  C2129  1  0.870800  0.351000  0.094000  1
  C  C2130  1  0.723200  0.743000  0.094000  1
  C  C2131  1  0.757000  0.776800  0.406000  1
  C  C2132  1  0.149000  0.629200  0.406000  1
  C  C2133  1  0.129200  0.649000  0.906000  1
  C  C2134  1  0.276800  0.257000  0.906000  1
  C  C2135  1  0.243000  0.223200  0.594000  1
  C  C2136  1  0.851000  0.370800  0.594000  1
  C  C2137  1  0.942400  0.390200  0.129600  1
  C  C2138  1  0.687200  0.739400  0.129600  1
  C  C2139  1  0.760600  0.812800  0.370400  1
  C  C2140  1  0.109800  0.557600  0.370400  1
  C  C2141  1  0.057600  0.609800  0.870400  1
  C  C2142  1  0.312800  0.260600  0.870400  1
  C  C2143  1  0.239400  0.187200  0.629600  1
  C  C2144  1  0.890200  0.442400  0.629600  1
  C  C2145  1  0.963600  0.412800  0.134400  1
  C  C2146  1  0.670800  0.721600  0.134400  1
  C  C2147  1  0.778400  0.829200  0.365600  1
  C  C2148  1  0.087200  0.536400  0.365600  1
  C  C2149  1  0.036400  0.587200  0.865600  1
  C  C2150  1  0.329200  0.278400  0.865600  1
  C  C2151  1  0.221600  0.170800  0.634400  1
  C  C2152  1  0.912800  0.463600  0.634400  1
  C  C2153  1  0.958700  0.439100  0.138000  1
  C  C2154  1  0.679300  0.698900  0.138000  1
  C  C2155  1  0.801100  0.820700  0.362000  1
  C  C2156  1  0.060900  0.541300  0.362000  1
  C  C2157  1  0.041300  0.560900  0.862000  1
  C  C2158  1  0.320700  0.301100  0.862000  1
  C  C2159  1  0.198900  0.179300  0.638000  1
  C  C2160  1  0.939100  0.458700  0.638000  1
  C  C2161  1  0.932800  0.442800  0.136800  1
  C  C2162  1  0.704000  0.694000  0.136800  1
  C  C2163  1  0.806000  0.796000  0.363200  1
  C  C2164  1  0.057200  0.567200  0.363200  1
  C  C2165  1  0.067200  0.557200  0.863200  1
  C  C2166  1  0.296000  0.306000  0.863200  1
  C  C2167  1  0.194000  0.204000  0.636800  1
  C  C2168  1  0.942800  0.432800  0.636800  1
  C  C2169  1  0.911600  0.420200  0.132000  1
  C  C2170  1  0.720400  0.711800  0.132000  1
  C  C2171  1  0.788200  0.779600  0.368000  1
  C  C2172  1  0.079800  0.588400  0.368000  1
  C  C2173  1  0.088400  0.579800  0.868000  1
  C  C2174  1  0.279600  0.288200  0.868000  1
  C  C2175  1  0.211800  0.220400  0.632000  1
  C  C2176  1  0.920200  0.411600  0.632000  1
  C  C2177  1  0.916460  0.393860  0.128320  1
  C  C2178  1  0.711860  0.734460  0.128320  1
  C  C2179  1  0.765540  0.788140  0.371680  1
  C  C2180  1  0.106140  0.583540  0.371680  1
  C  C2181  1  0.083540  0.606140  0.871680  1
  C  C2182  1  0.288140  0.265540  0.871680  1
  C  C2183  1  0.234460  0.211860  0.628320  1
  C  C2184  1  0.893860  0.416460  0.628320  1
  C  C2185  1  0.972100  0.468500  0.140800  1
  C  C2186  1  0.668700  0.672300  0.140800  1
  C  C2187  1  0.827700  0.831300  0.359200  1
  C  C2188  1  0.031500  0.527900  0.359200  1
  C  C2189  1  0.027900  0.531500  0.859200  1
  C  C2190  1  0.331300  0.327700  0.859200  1
  C  C2191  1  0.172300  0.168700  0.640800  1
  C  C2192  1  0.968500  0.472100  0.640800  1
  C  C2193  1  0.951100  0.172100  0.072600  1
  C  C2194  1  0.621500  0.900500  0.072600  1
  C  C2195  1  0.599500  0.878500  0.427400  1
  C  C2196  1  0.327900  0.548900  0.427400  1
  C  C2197  1  0.048900  0.827900  0.927400  1
  C  C2198  1  0.378500  0.099500  0.927400  1
  C  C2199  1  0.400500  0.121500  0.572600  1
  C  C2200  1  0.672100  0.451100  0.572600  1
  C  C2201  1  0.930300  0.173300  0.043000  1
  C  C2202  1  0.612700  0.869700  0.043000  1
  C  C2203  1  0.630300  0.887300  0.457000  1
  C  C2204  1  0.326700  0.569700  0.457000  1
  C  C2205  1  0.069700  0.826700  0.957000  1
  C  C2206  1  0.387300  0.130300  0.957000  1
  C  C2207  1  0.369700  0.112700  0.543000  1
  C  C2208  1  0.673300  0.430300  0.543000  1
  C  C2209  1  0.912500  0.188300  0.043000  1
  C  C2210  1  0.630500  0.854700  0.043000  1
  C  C2211  1  0.645300  0.869500  0.457000  1
  C  C2212  1  0.311700  0.587500  0.457000  1
  C  C2213  1  0.087500  0.811700  0.957000  1
  C  C2214  1  0.369500  0.145300  0.957000  1
  C  C2215  1  0.354700  0.130500  0.543000  1
  C  C2216  1  0.688300  0.412500  0.543000  1
  C  C2217  1  0.893700  0.189700  0.015600  1
  C  C2218  1  0.621900  0.825900  0.015600  1
  C  C2219  1  0.674100  0.878100  0.484400  1
  C  C2220  1  0.310300  0.606300  0.484400  1
  C  C2221  1  0.106300  0.810300  0.984400  1
  C  C2222  1  0.378100  0.174100  0.984400  1
  C  C2223  1  0.325900  0.121900  0.515600  1
  C  C2224  1  0.689700  0.393700  0.515600  1
  C  C2225  1  0.893800  0.177000  0.988400  1
  C  C2226  1  0.594600  0.811400  0.988400  1
  C  C2227  1  0.688600  0.905400  0.511600  1
  C  C2228  1  0.323000  0.606200  0.511600  1
  C  C2229  1  0.106200  0.823000  0.011600  1
  C  C2230  1  0.405400  0.188600  0.011600  1
  C  C2231  1  0.311400  0.094600  0.488400  1
  C  C2232  1  0.677000  0.393800  0.488400  1
  C  C2233  1  0.911200  0.161200  0.985600  1
  C  C2234  1  0.574400  0.824400  0.985600  1
  C  C2235  1  0.675600  0.925600  0.514400  1
  C  C2236  1  0.338800  0.588800  0.514400  1
  C  C2237  1  0.088800  0.838800  0.014400  1
  C  C2238  1  0.425600  0.175600  0.014400  1
  C  C2239  1  0.324400  0.074400  0.485600  1
  C  C2240  1  0.661200  0.411200  0.485600  1
  C  C2241  1  0.930000  0.160000  0.013000  1
  C  C2242  1  0.583000  0.853000  0.013000  1
  C  C2243  1  0.647000  0.917000  0.487000  1
  C  C2244  1  0.340000  0.570000  0.487000  1
  C  C2245  1  0.070000  0.840000  0.987000  1
  C  C2246  1  0.417000  0.147000  0.987000  1
  C  C2247  1  0.353000  0.083000  0.513000  1
  C  C2248  1  0.660000  0.430000  0.513000  1
  C  C2249  1  0.864500  0.160900  0.933400  1
  C  C2250  1  0.568900  0.772500  0.933400  1
  C  C2251  1  0.727500  0.931100  0.566600  1
  C  C2252  1  0.339100  0.635500  0.566600  1
  C  C2253  1  0.135500  0.839100  0.066600  1
  C  C2254  1  0.431100  0.227500  0.066600  1
  C  C2255  1  0.272500  0.068900  0.433400  1
  C  C2256  1  0.660900  0.364500  0.433400  1
  C  C2257  1  0.848800  0.165800  0.907200  1
  C  C2258  1  0.558400  0.741400  0.907200  1
  C  C2259  1  0.758600  0.941600  0.592800  1
  C  C2260  1  0.334200  0.651200  0.592800  1
  C  C2261  1  0.151200  0.834200  0.092800  1
  C  C2262  1  0.441600  0.258600  0.092800  1
  C  C2263  1  0.241400  0.058400  0.407200  1
  C  C2264  1  0.665800  0.348800  0.407200  1
  C  C2265  1  0.829400  0.197600  0.891800  1
  C  C2266  1  0.562400  0.694200  0.891800  1
  C  C2267  1  0.805800  0.937600  0.608200  1
  C  C2268  1  0.302400  0.670600  0.608200  1
  C  C2269  1  0.170600  0.802400  0.108200  1
  C  C2270  1  0.437600  0.305800  0.108200  1
  C  C2271  1  0.194200  0.062400  0.391800  1
  C  C2272  1  0.697600  0.329400  0.391800  1
  C  C2273  1  0.816700  0.177700  0.859200  1
  C  C2274  1  0.542500  0.681500  0.859200  1
  C  C2275  1  0.818500  0.957500  0.640800  1
  C  C2276  1  0.322300  0.683300  0.640800  1
  C  C2277  1  0.183300  0.822300  0.140800  1
  C  C2278  1  0.457500  0.318500  0.140800  1
  C  C2279  1  0.181500  0.042500  0.359200  1
  C  C2280  1  0.677700  0.316700  0.359200  1
  C  C2281  1  0.820400  0.150600  0.850000  1
  C  C2282  1  0.529600  0.699400  0.850000  1
  C  C2283  1  0.800600  0.970400  0.650000  1
  C  C2284  1  0.349400  0.679600  0.650000  1
  C  C2285  1  0.179600  0.849400  0.150000  1
  C  C2286  1  0.470400  0.300600  0.150000  1
  C  C2287  1  0.199400  0.029600  0.350000  1
  C  C2288  1  0.650600  0.320400  0.350000  1
  C  C2289  1  0.835900  0.142900  0.873200  1
  C  C2290  1  0.537300  0.730300  0.873200  1
  C  C2291  1  0.769700  0.962700  0.626800  1
  C  C2292  1  0.357100  0.664100  0.626800  1
  C  C2293  1  0.164100  0.857100  0.126800  1
  C  C2294  1  0.462700  0.269700  0.126800  1
  C  C2295  1  0.230300  0.037300  0.373200  1
  C  C2296  1  0.642900  0.335900  0.373200  1
  C  C2297  1  0.799500  0.183500  0.835400  1
  C  C2298  1  0.535900  0.651900  0.835400  1
  C  C2299  1  0.848100  0.964100  0.664600  1
  C  C2300  1  0.316500  0.700500  0.664600  1
  C  C2301  1  0.200500  0.816500  0.164600  1
  C  C2302  1  0.464100  0.348100  0.164600  1
  C  C2303  1  0.151900  0.035900  0.335400  1
  C  C2304  1  0.683500  0.299500  0.335400  1
  C  C2305  1  0.779200  0.200000  0.838400  1
  C  C2306  1  0.559200  0.638400  0.838400  1
  C  C2307  1  0.861600  0.940800  0.661600  1
  C  C2308  1  0.300000  0.720800  0.661600  1
  C  C2309  1  0.220800  0.800000  0.161600  1
  C  C2310  1  0.440800  0.361600  0.161600  1
  C  C2311  1  0.138400  0.059200  0.338400  1
  C  C2312  1  0.700000  0.279200  0.338400  1
  C  C2313  1  0.764000  0.198000  0.791000  1
  C  C2314  1  0.527000  0.593000  0.791000  1
  C  C2315  1  0.907000  0.973000  0.709000  1
  C  C2316  1  0.302000  0.736000  0.709000  1
  C  C2317  1  0.236000  0.802000  0.209000  1
  C  C2318  1  0.473000  0.407000  0.209000  1
  C  C2319  1  0.093000  0.027000  0.291000  1
  C  C2320  1  0.698000  0.264000  0.291000  1
  C  C2321  1  0.781800  0.181600  0.784800  1
  C  C2322  1  0.503000  0.603200  0.784800  1
  C  C2323  1  0.896800  0.997000  0.715200  1
  C  C2324  1  0.318400  0.718200  0.715200  1
  C  C2325  1  0.218200  0.818400  0.215200  1
  C  C2326  1  0.497000  0.396800  0.215200  1
  C  C2327  1  0.103200  0.003000  0.284800  1
  C  C2328  1  0.681600  0.281800  0.284800  1
  C  C2329  1  0.799200  0.175000  0.807200  1
  C  C2330  1  0.508000  0.632200  0.807200  1
  C  C2331  1  0.867800  0.992000  0.692800  1
  C  C2332  1  0.325000  0.700800  0.692800  1
  C  C2333  1  0.200800  0.825000  0.192800  1
  C  C2334  1  0.492000  0.367800  0.192800  1
  C  C2335  1  0.132200  0.008000  0.307200  1
  C  C2336  1  0.675000  0.299200  0.307200  1
  C  C2337  1  0.744100  0.205900  0.768800  1
  C  C2338  1  0.524700  0.562900  0.768800  1
  C  C2339  1  0.937100  0.975300  0.731200  1
  C  C2340  1  0.294100  0.755900  0.731200  1
  C  C2341  1  0.255900  0.794100  0.231200  1
  C  C2342  1  0.475300  0.437100  0.231200  1
  C  C2343  1  0.062900  0.024700  0.268800  1
  C  C2344  1  0.705900  0.244100  0.268800  1
  C  C2345  1  0.709000  0.229800  0.755600  1
  C  C2346  1  0.546600  0.525800  0.755600  1
  C  C2347  1  0.974200  0.953400  0.744400  1
  C  C2348  1  0.270200  0.791000  0.744400  1
  C  C2349  1  0.291000  0.770200  0.244400  1
  C  C2350  1  0.453400  0.474200  0.244400  1
  C  C2351  1  0.025800  0.046600  0.255600  1
  C  C2352  1  0.729800  0.209000  0.255600  1
  C  C2353  1  0.708900  0.256500  0.770600  1
  C  C2354  1  0.561700  0.514100  0.770600  1
  C  C2355  1  0.985900  0.938300  0.729400  1
  C  C2356  1  0.243500  0.791100  0.729400  1
  C  C2357  1  0.291100  0.743500  0.229400  1
  C  C2358  1  0.438300  0.485900  0.229400  1
  C  C2359  1  0.014100  0.061700  0.270600  1
  C  C2360  1  0.756500  0.208900  0.270600  1
  C  C2361  1  0.689200  0.264800  0.746600  1
  C  C2362  1  0.557400  0.481800  0.746600  1
  C  C2363  1  0.018200  0.942600  0.753400  1
  C  C2364  1  0.235200  0.810800  0.753400  1
  C  C2365  1  0.310800  0.735200  0.253400  1
  C  C2366  1  0.442600  0.518200  0.253400  1
  C  C2367  1  0.981800  0.057400  0.246600  1
  C  C2368  1  0.764800  0.189200  0.246600  1
  C  C2369  1  0.671600  0.244800  0.716600  1
  C  C2370  1  0.545000  0.471800  0.716600  1
  C  C2371  1  0.028200  0.955000  0.783400  1
  C  C2372  1  0.255200  0.828400  0.783400  1
  C  C2373  1  0.328400  0.755200  0.283400  1
  C  C2374  1  0.455000  0.528200  0.283400  1
  C  C2375  1  0.971800  0.045000  0.216600  1
  C  C2376  1  0.744800  0.171600  0.216600  1
  C  C2377  1  0.669600  0.215400  0.699800  1
  C  C2378  1  0.530200  0.484400  0.699800  1
  C  C2379  1  0.015600  0.969800  0.800200  1
  C  C2380  1  0.284600  0.830400  0.800200  1
  C  C2381  1  0.330400  0.784600  0.300200  1
  C  C2382  1  0.469800  0.515600  0.300200  1
  C  C2383  1  0.984400  0.030200  0.199800  1
  C  C2384  1  0.715400  0.169600  0.199800  1
  C  C2385  1  0.690400  0.206400  0.721000  1
  C  C2386  1  0.530600  0.514600  0.721000  1
  C  C2387  1  0.985400  0.969400  0.779000  1
  C  C2388  1  0.293600  0.809600  0.779000  1
  C  C2389  1  0.309600  0.793600  0.279000  1
  C  C2390  1  0.469400  0.485400  0.279000  1
  C  C2391  1  0.014600  0.030600  0.221000  1
  C  C2392  1  0.706400  0.190400  0.221000  1
  C  C2393  1  0.650700  0.255100  0.691600  1
  C  C2394  1  0.540900  0.436500  0.691600  1
  C  C2395  1  0.063500  0.959100  0.808400  1
  C  C2396  1  0.244900  0.849300  0.808400  1
  C  C2397  1  0.349300  0.744900  0.308400  1
  C  C2398  1  0.459100  0.563500  0.308400  1
  C  C2399  1  0.936500  0.040900  0.191600  1
  C  C2400  1  0.755100  0.150700  0.191600  1
  C  C2401  1  0.906100  0.156100  0.841600  1
  C  C2402  1  0.435500  0.685500  0.841600  1
  C  C2403  1  0.814500  0.064500  0.658400  1
  C  C2404  1  0.343900  0.593900  0.658400  1
  C  C2405  1  0.093900  0.843900  0.158400  1
  C  C2406  1  0.564500  0.314500  0.158400  1
  C  C2407  1  0.185500  0.935500  0.341600  1
  C  C2408  1  0.656100  0.406100  0.341600  1
  C  C2409  1  0.910100  0.176700  0.876400  1
  C  C2410  1  0.466300  0.699700  0.876400  1
  C  C2411  1  0.800300  0.033700  0.623600  1
  C  C2412  1  0.323300  0.589900  0.623600  1
  C  C2413  1  0.089900  0.823300  0.123600  1
  C  C2414  1  0.533700  0.300300  0.123600  1
  C  C2415  1  0.199700  0.966300  0.376400  1
  C  C2416  1  0.676700  0.410100  0.376400  1
  C  C2417  1  0.897300  0.197500  0.880800  1
  C  C2418  1  0.483500  0.683300  0.880800  1
  C  C2419  1  0.816700  0.016500  0.619200  1
  C  C2420  1  0.302500  0.602700  0.619200  1
  C  C2421  1  0.102700  0.802500  0.119200  1
  C  C2422  1  0.516500  0.316700  0.119200  1
  C  C2423  1  0.183300  0.983500  0.380800  1
  C  C2424  1  0.697500  0.397300  0.380800  1
  C  C2425  1  0.899500  0.214500  0.910400  1
  C  C2426  1  0.510900  0.695900  0.910400  1
  C  C2427  1  0.804100  0.989100  0.589600  1
  C  C2428  1  0.285500  0.600500  0.589600  1
  C  C2429  1  0.100500  0.785500  0.089600  1
  C  C2430  1  0.489100  0.304100  0.089600  1
  C  C2431  1  0.195900  0.010900  0.410400  1
  C  C2432  1  0.714500  0.399500  0.410400  1
  C  C2433  1  0.912800  0.209000  0.934800  1
  C  C2434  1  0.522000  0.725800  0.934800  1
  C  C2435  1  0.774200  0.978000  0.565200  1
  C  C2436  1  0.291000  0.587200  0.565200  1
  C  C2437  1  0.087200  0.791000  0.065200  1
  C  C2438  1  0.478000  0.274200  0.065200  1
  C  C2439  1  0.225800  0.022000  0.434800  1
  C  C2440  1  0.709000  0.412800  0.434800  1
  C  C2441  1  0.925800  0.185600  0.931400  1
  C  C2442  1  0.505600  0.745800  0.931400  1
  C  C2443  1  0.754200  0.994400  0.568600  1
  C  C2444  1  0.314400  0.574200  0.568600  1
  C  C2445  1  0.074200  0.814400  0.068600  1
  C  C2446  1  0.494400  0.254200  0.068600  1
  C  C2447  1  0.245800  0.005600  0.431400  1
  C  C2448  1  0.685600  0.425800  0.431400  1
  C  C2449  1  0.921500  0.170700  0.899800  1
  C  C2450  1  0.478300  0.729100  0.899800  1
  C  C2451  1  0.770900  0.021700  0.600200  1
  C  C2452  1  0.329300  0.578500  0.600200  1
  C  C2453  1  0.078500  0.829300  0.100200  1
  C  C2454  1  0.521700  0.270900  0.100200  1
  C  C2455  1  0.229100  0.978300  0.399800  1
  C  C2456  1  0.670700  0.421500  0.399800  1
  C  C2457  1  0.938600  0.235400  0.991800  1
  C  C2458  1  0.553200  0.756400  0.991800  1
  C  C2459  1  0.743600  0.946800  0.508200  1
  C  C2460  1  0.264600  0.561400  0.508200  1
  C  C2461  1  0.061400  0.764600  0.008200  1
  C  C2462  1  0.446800  0.243600  0.008200  1
  C  C2463  1  0.256400  0.053200  0.491800  1
  C  C2464  1  0.735400  0.438600  0.491800  1
  C  C2465  1  0.939100  0.249900  0.022000  1
  C  C2466  1  0.582900  0.772100  0.022000  1
  C  C2467  1  0.727900  0.917100  0.478000  1
  C  C2468  1  0.250100  0.560900  0.478000  1
  C  C2469  1  0.060900  0.750100  0.978000  1
  C  C2470  1  0.417100  0.227900  0.978000  1
  C  C2471  1  0.272100  0.082900  0.522000  1
  C  C2472  1  0.749900  0.439100  0.522000  1
  C  C2473  1  0.909000  0.263800  0.045600  1
  C  C2474  1  0.636600  0.781800  0.045600  1
  C  C2475  1  0.718200  0.863400  0.454400  1
  C  C2476  1  0.236200  0.591000  0.454400  1
  C  C2477  1  0.091000  0.736200  0.954400  1
  C  C2478  1  0.363400  0.218200  0.954400  1
  C  C2479  1  0.281800  0.136600  0.545600  1
  C  C2480  1  0.763800  0.409000  0.545600  1
  C  C2481  1  0.933900  0.274700  0.078200  1
  C  C2482  1  0.644300  0.803500  0.078200  1
  C  C2483  1  0.696500  0.855700  0.421800  1
  C  C2484  1  0.225300  0.566100  0.421800  1
  C  C2485  1  0.066100  0.725300  0.921800  1
  C  C2486  1  0.355700  0.196500  0.921800  1
  C  C2487  1  0.303500  0.144300  0.578200  1
  C  C2488  1  0.774700  0.433900  0.578200  1
  C  C2489  1  0.964300  0.275700  0.082600  1
  C  C2490  1  0.618300  0.806900  0.082600  1
  C  C2491  1  0.693100  0.881700  0.417400  1
  C  C2492  1  0.224300  0.535700  0.417400  1
  C  C2493  1  0.035700  0.724300  0.917400  1
  C  C2494  1  0.381700  0.193100  0.917400  1
  C  C2495  1  0.306900  0.118300  0.582600  1
  C  C2496  1  0.775700  0.464300  0.582600  1
  C  C2497  1  0.963000  0.260200  0.052400  1
  C  C2498  1  0.589400  0.792200  0.052400  1
  C  C2499  1  0.707800  0.910600  0.447600  1
  C  C2500  1  0.239800  0.537000  0.447600  1
  C  C2501  1  0.037000  0.739800  0.947600  1
  C  C2502  1  0.410600  0.207800  0.947600  1
  C  C2503  1  0.292200  0.089400  0.552400  1
  C  C2504  1  0.760200  0.463000  0.552400  1
  C  C2505  1  0.930600  0.284600  0.106000  1
  C  C2506  1  0.675400  0.821400  0.106000  1
  C  C2507  1  0.678600  0.824600  0.394000  1
  C  C2508  1  0.215400  0.569400  0.394000  1
  C  C2509  1  0.069400  0.715400  0.894000  1
  C  C2510  1  0.324600  0.178600  0.894000  1
  C  C2511  1  0.321400  0.175400  0.606000  1
  C  C2512  1  0.784600  0.430600  0.606000  1
  C  C2513  1  0.916700  0.304900  0.110400  1
  C  C2514  1  0.693700  0.805500  0.110400  1
  C  C2515  1  0.694500  0.806300  0.389600  1
  C  C2516  1  0.195100  0.583300  0.389600  1
  C  C2517  1  0.083300  0.695100  0.889600  1
  C  C2518  1  0.306300  0.194500  0.889600  1
  C  C2519  1  0.305500  0.193700  0.610400  1
  C  C2520  1  0.804900  0.416700  0.610400  1
  C  C2521  1  0.921900  0.303100  0.155000  1
  C  C2522  1  0.733100  0.851900  0.155000  1
  C  C2523  1  0.648100  0.766900  0.345000  1
  C  C2524  1  0.196900  0.578100  0.345000  1
  C  C2525  1  0.078100  0.696900  0.845000  1
  C  C2526  1  0.266900  0.148100  0.845000  1
  C  C2527  1  0.351900  0.233100  0.655000  1
  C  C2528  1  0.803100  0.421900  0.655000  1
  C  C2529  1  0.937400  0.284000  0.151600  1
  C  C2530  1  0.714200  0.867600  0.151600  1
  C  C2531  1  0.632400  0.785800  0.348400  1
  C  C2532  1  0.216000  0.562600  0.348400  1
  C  C2533  1  0.062600  0.716000  0.848400  1
  C  C2534  1  0.285800  0.132400  0.848400  1
  C  C2535  1  0.367600  0.214200  0.651600  1
  C  C2536  1  0.784000  0.437400  0.651600  1
  C  C2537  1  0.940000  0.275600  0.125200  1
  C  C2538  1  0.685200  0.849600  0.125200  1
  C  C2539  1  0.650400  0.814800  0.374800  1
  C  C2540  1  0.224400  0.560000  0.374800  1
  C  C2541  1  0.060000  0.724400  0.874800  1
  C  C2542  1  0.314800  0.150400  0.874800  1
  C  C2543  1  0.349600  0.185200  0.625200  1
  C  C2544  1  0.775600  0.440000  0.625200  1
  C  C2545  1  0.914000  0.315200  0.182000  1
  C  C2546  1  0.768000  0.866800  0.182000  1
  C  C2547  1  0.633200  0.732000  0.318000  1
  C  C2548  1  0.184800  0.586000  0.318000  1
  C  C2549  1  0.086000  0.684800  0.818000  1
  C  C2550  1  0.232000  0.133200  0.818000  1
  C  C2551  1  0.366800  0.268000  0.682000  1
  C  C2552  1  0.815200  0.414000  0.682000  1
  C  C2553  1  0.895500  0.343900  0.210000  1
  C  C2554  1  0.814500  0.866100  0.210000  1
  C  C2555  1  0.633900  0.685500  0.290000  1
  C  C2556  1  0.156100  0.604500  0.290000  1
  C  C2557  1  0.104500  0.656100  0.790000  1
  C  C2558  1  0.185500  0.133900  0.790000  1
  C  C2559  1  0.366100  0.314500  0.710000  1
  C  C2560  1  0.843900  0.395500  0.710000  1
  C  C2561  1  0.866900  0.348300  0.202400  1
  C  C2562  1  0.835500  0.854100  0.202400  1
  C  C2563  1  0.645900  0.664500  0.297600  1
  C  C2564  1  0.151700  0.633100  0.297600  1
  C  C2565  1  0.133100  0.651700  0.797600  1
  C  C2566  1  0.164500  0.145900  0.797600  1
  C  C2567  1  0.354100  0.335500  0.702400  1
  C  C2568  1  0.848300  0.366900  0.702400  1
  C  C2569  1  0.862800  0.362200  0.228400  1
  C  C2570  1  0.865600  0.866200  0.228400  1
  C  C2571  1  0.633800  0.634400  0.271600  1
  C  C2572  1  0.137800  0.637200  0.271600  1
  C  C2573  1  0.137200  0.637800  0.771600  1
  C  C2574  1  0.134400  0.133800  0.771600  1
  C  C2575  1  0.366200  0.365600  0.728400  1
  C  C2576  1  0.862200  0.362800  0.728400  1
  C  C2577  1  0.884800  0.369800  0.260600  1
  C  C2578  1  0.875800  0.890800  0.260600  1
  C  C2579  1  0.609200  0.624200  0.239400  1
  C  C2580  1  0.130200  0.615200  0.239400  1
  C  C2581  1  0.115200  0.630200  0.739400  1
  C  C2582  1  0.124200  0.109200  0.739400  1
  C  C2583  1  0.390800  0.375800  0.760600  1
  C  C2584  1  0.869800  0.384800  0.760600  1
  C  C2585  1  0.911800  0.363200  0.267000  1
  C  C2586  1  0.855200  0.903800  0.267000  1
  C  C2587  1  0.596200  0.644800  0.233000  1
  C  C2588  1  0.136800  0.588200  0.233000  1
  C  C2589  1  0.088200  0.636800  0.733000  1
  C  C2590  1  0.144800  0.096200  0.733000  1
  C  C2591  1  0.403800  0.355200  0.767000  1
  C  C2592  1  0.863200  0.411800  0.767000  1
  C  C2593  1  0.917900  0.353300  0.241800  1
  C  C2594  1  0.823900  0.888500  0.241800  1
  C  C2595  1  0.611500  0.676100  0.258200  1
  C  C2596  1  0.146700  0.582100  0.258200  1
  C  C2597  1  0.082100  0.646700  0.758200  1
  C  C2598  1  0.176100  0.111500  0.758200  1
  C  C2599  1  0.388500  0.323900  0.741800  1
  C  C2600  1  0.853300  0.417900  0.741800  1
  C  C2601  1  0.878600  0.383400  0.288800  1
  C  C2602  1  0.910200  0.905400  0.288800  1
  C  C2603  1  0.594600  0.589800  0.211200  1
  C  C2604  1  0.116600  0.621400  0.211200  1
  C  C2605  1  0.121400  0.616600  0.711200  1
  C  C2606  1  0.089800  0.094600  0.711200  1
  C  C2607  1  0.405400  0.410200  0.788800  1
  C  C2608  1  0.883400  0.378600  0.788800  1
  C  C2609  1  0.729900  0.070700  0.731000  1
  C  C2610  1  0.501100  0.660300  0.731000  1
  C  C2611  1  0.839700  0.998900  0.769000  1
  C  C2612  1  0.429300  0.770100  0.769000  1
  C  C2613  1  0.270100  0.929300  0.269000  1
  C  C2614  1  0.498900  0.339700  0.269000  1
  C  C2615  1  0.160300  0.001100  0.231000  1
  C  C2616  1  0.570700  0.229900  0.231000  1
  C  C2617  1  0.717500  0.097100  0.741800  1
  C  C2618  1  0.524300  0.644700  0.741800  1
  C  C2619  1  0.855300  0.975700  0.758200  1
  C  C2620  1  0.402900  0.782500  0.758200  1
  C  C2621  1  0.282500  0.902900  0.258200  1
  C  C2622  1  0.475700  0.355300  0.258200  1
  C  C2623  1  0.144700  0.024300  0.241800  1
  C  C2624  1  0.597100  0.217500  0.241800  1
  C  C2625  1  0.701600  0.104400  0.720200  1
  C  C2626  1  0.518600  0.615800  0.720200  1
  C  C2627  1  0.884200  0.981400  0.779800  1
  C  C2628  1  0.395600  0.798400  0.779800  1
  C  C2629  1  0.298400  0.895600  0.279800  1
  C  C2630  1  0.481400  0.384200  0.279800  1
  C  C2631  1  0.115800  0.018600  0.220200  1
  C  C2632  1  0.604400  0.201600  0.220200  1
  C  C2633  1  0.692900  0.128100  0.729200  1
  C  C2634  1  0.536300  0.601100  0.729200  1
  C  C2635  1  0.898900  0.963700  0.770800  1
  C  C2636  1  0.371900  0.807100  0.770800  1
  C  C2637  1  0.307100  0.871900  0.270800  1
  C  C2638  1  0.463700  0.398900  0.270800  1
  C  C2639  1  0.101100  0.036300  0.229200  1
  C  C2640  1  0.628100  0.192900  0.229200  1
  C  C2641  1  0.701500  0.145700  0.763600  1
  C  C2642  1  0.562100  0.617900  0.763600  1
  C  C2643  1  0.882100  0.937900  0.736400  1
  C  C2644  1  0.354300  0.798500  0.736400  1
  C  C2645  1  0.298500  0.854300  0.236400  1
  C  C2646  1  0.437900  0.382100  0.236400  1
  C  C2647  1  0.117900  0.062100  0.263600  1
  C  C2648  1  0.645700  0.201500  0.263600  1
  C  C2649  1  0.717900  0.138300  0.784200  1
  C  C2650  1  0.566300  0.645900  0.784200  1
  C  C2651  1  0.854100  0.933700  0.715800  1
  C  C2652  1  0.361700  0.782100  0.715800  1
  C  C2653  1  0.282100  0.861700  0.215800  1
  C  C2654  1  0.433700  0.354100  0.215800  1
  C  C2655  1  0.145900  0.066300  0.284200  1
  C  C2656  1  0.638300  0.217900  0.284200  1
  C  C2657  1  0.725800  0.114600  0.774200  1
  C  C2658  1  0.548400  0.659600  0.774200  1
  C  C2659  1  0.840400  0.951600  0.725800  1
  C  C2660  1  0.385400  0.774200  0.725800  1
  C  C2661  1  0.274200  0.885400  0.225800  1
  C  C2662  1  0.451600  0.340400  0.225800  1
  C  C2663  1  0.159600  0.048400  0.274200  1
  C  C2664  1  0.614600  0.225800  0.274200  1
  C  C2665  1  0.664200  0.169400  0.753400  1
  C  C2666  1  0.589200  0.584000  0.753400  1
  C  C2667  1  0.916000  0.910800  0.746600  1
  C  C2668  1  0.330600  0.835800  0.746600  1
  C  C2669  1  0.335800  0.830600  0.246600  1
  C  C2670  1  0.410800  0.416000  0.246600  1
  C  C2671  1  0.084000  0.089200  0.253400  1
  C  C2672  1  0.669400  0.164200  0.253400  1
  C  C2673  1  0.659400  0.198600  0.766600  1
  C  C2674  1  0.607200  0.568000  0.766600  1
  C  C2675  1  0.932000  0.892800  0.733400  1
  C  C2676  1  0.301400  0.840600  0.733400  1
  C  C2677  1  0.340600  0.801400  0.233400  1
  C  C2678  1  0.392800  0.432000  0.233400  1
  C  C2679  1  0.068000  0.107200  0.266600  1
  C  C2680  1  0.698600  0.159400  0.266600  1
  C  C2681  1  0.675100  0.248100  0.808200  1
  C  C2682  1  0.633100  0.560100  0.808200  1
  C  C2683  1  0.939900  0.866900  0.691800  1
  C  C2684  1  0.251900  0.824900  0.691800  1
  C  C2685  1  0.324900  0.751900  0.191800  1
  C  C2686  1  0.366900  0.439900  0.191800  1
  C  C2687  1  0.060100  0.133100  0.308200  1
  C  C2688  1  0.748100  0.175100  0.308200  1
  C  C2689  1  0.647200  0.247800  0.789200  1
  C  C2690  1  0.642000  0.541400  0.789200  1
  C  C2691  1  0.958600  0.858000  0.710800  1
  C  C2692  1  0.252200  0.852800  0.710800  1
  C  C2693  1  0.352800  0.752200  0.210800  1
  C  C2694  1  0.358000  0.458600  0.210800  1
  C  C2695  1  0.041400  0.142000  0.289200  1
  C  C2696  1  0.747800  0.147200  0.289200  1
  C  C2697  1  0.627000  0.225000  0.760800  1
  C  C2698  1  0.633800  0.535800  0.760800  1
  C  C2699  1  0.964200  0.866200  0.739200  1
  C  C2700  1  0.275000  0.873000  0.739200  1
  C  C2701  1  0.373000  0.775000  0.239200  1
  C  C2702  1  0.366200  0.464200  0.239200  1
  C  C2703  1  0.035800  0.133800  0.260800  1
  C  C2704  1  0.725000  0.127000  0.260800  1
  C  C2705  1  0.631800  0.198000  0.747200  1
  C  C2706  1  0.615400  0.549200  0.747200  1
  C  C2707  1  0.950800  0.884600  0.752800  1
  C  C2708  1  0.302000  0.868200  0.752800  1
  C  C2709  1  0.368200  0.802000  0.252800  1
  C  C2710  1  0.384600  0.450800  0.252800  1
  C  C2711  1  0.049200  0.115400  0.247200  1
  C  C2712  1  0.698000  0.131800  0.247200  1
  C  C2713  1  0.642100  0.276100  0.805600  1
  C  C2714  1  0.663500  0.529500  0.805600  1
  C  C2715  1  0.970500  0.836500  0.694400  1
  C  C2716  1  0.223900  0.857900  0.694400  1
  C  C2717  1  0.357900  0.723900  0.194400  1
  C  C2718  1  0.336500  0.470500  0.194400  1
  C  C2719  1  0.029500  0.163500  0.305600  1
  C  C2720  1  0.776100  0.142100  0.305600  1
  C  C2721  1  0.651000  0.291400  0.838600  1
  C  C2722  1  0.687600  0.547200  0.838600  1
  C  C2723  1  0.952800  0.812400  0.661400  1
  C  C2724  1  0.208600  0.849000  0.661400  1
  C  C2725  1  0.349000  0.708600  0.161400  1
  C  C2726  1  0.312400  0.452800  0.161400  1
  C  C2727  1  0.047200  0.187600  0.338600  1
  C  C2728  1  0.791400  0.151000  0.338600  1
  C  C2729  1  0.630000  0.328400  0.835600  1
  C  C2730  1  0.705600  0.507200  0.835600  1
  C  C2731  1  0.992800  0.794400  0.664400  1
  C  C2732  1  0.171600  0.870000  0.664400  1
  C  C2733  1  0.370000  0.671600  0.164400  1
  C  C2734  1  0.294400  0.492800  0.164400  1
  C  C2735  1  0.007200  0.205600  0.335600  1
  C  C2736  1  0.828400  0.130000  0.335600  1
  C  C2737  1  0.620800  0.315600  0.804600  1
  C  C2738  1  0.683800  0.489000  0.804600  1
  C  C2739  1  0.011000  0.816200  0.695400  1
  C  C2740  1  0.184400  0.879200  0.695400  1
  C  C2741  1  0.379200  0.684400  0.195400  1
  C  C2742  1  0.316200  0.511000  0.195400  1
  C  C2743  1  0.989000  0.183800  0.304600  1
  C  C2744  1  0.815600  0.120800  0.304600  1
  C  C2745  1  0.625700  0.285500  0.783200  1
  C  C2746  1  0.657500  0.497700  0.783200  1
  C  C2747  1  0.002300  0.842500  0.716800  1
  C  C2748  1  0.214500  0.874300  0.716800  1
  C  C2749  1  0.374300  0.714500  0.216800  1
  C  C2750  1  0.342500  0.502300  0.216800  1
  C  C2751  1  0.997700  0.157500  0.283200  1
  C  C2752  1  0.785500  0.125700  0.283200  1
  C  C2753  1  0.618600  0.350200  0.845800  1
  C  C2754  1  0.727200  0.495600  0.845800  1
  C  C2755  1  0.004400  0.772800  0.654200  1
  C  C2756  1  0.149800  0.881400  0.654200  1
  C  C2757  1  0.381400  0.649800  0.154200  1
  C  C2758  1  0.272800  0.504400  0.154200  1
  C  C2759  1  0.995600  0.227200  0.345800  1
  C  C2760  1  0.850200  0.118600  0.345800  1
  C  C2761  1  0.617600  0.384000  0.891000  1
  C  C2762  1  0.773400  0.507000  0.891000  1
  C  C2763  1  0.993000  0.726600  0.609000  1
  C  C2764  1  0.116000  0.882400  0.609000  1
  C  C2765  1  0.382400  0.616000  0.109000  1
  C  C2766  1  0.226600  0.493000  0.109000  1
  C  C2767  1  0.007000  0.273400  0.391000  1
  C  C2768  1  0.884000  0.117600  0.391000  1
  C  C2769  1  0.587630  0.381030  0.874460  1
  C  C2770  1  0.786830  0.493430  0.874460  1
  C  C2771  1  0.006570  0.713170  0.625540  1
  C  C2772  1  0.118970  0.912370  0.625540  1
  C  C2773  1  0.412370  0.618970  0.125540  1
  C  C2774  1  0.213170  0.506570  0.125540  1
  C  C2775  1  0.993430  0.286830  0.374460  1
  C  C2776  1  0.881030  0.087630  0.374460  1
  C  C2777  1  0.578000  0.402600  0.890200  1
  C  C2778  1  0.812200  0.487600  0.890200  1
  C  C2779  1  0.012400  0.687800  0.609800  1
  C  C2780  1  0.097400  0.922000  0.609800  1
  C  C2781  1  0.422000  0.597400  0.109800  1
  C  C2782  1  0.187800  0.512400  0.109800  1
  C  C2783  1  0.987600  0.312200  0.390200  1
  C  C2784  1  0.902600  0.078000  0.390200  1
  C  C2785  1  0.598700  0.427100  0.922600  1
  C  C2786  1  0.823900  0.495500  0.922600  1
  C  C2787  1  0.004500  0.676100  0.577400  1
  C  C2788  1  0.072900  0.901300  0.577400  1
  C  C2789  1  0.401300  0.572900  0.077400  1
  C  C2790  1  0.176100  0.504500  0.077400  1
  C  C2791  1  0.995500  0.323900  0.422600  1
  C  C2792  1  0.927100  0.098700  0.422600  1
  C  C2793  1  0.628660  0.430060  0.939120  1
  C  C2794  1  0.810460  0.509060  0.939120  1
  C  C2795  1  0.990940  0.689540  0.560880  1
  C  C2796  1  0.069940  0.871340  0.560880  1
  C  C2797  1  0.371340  0.569940  0.060880  1
  C  C2798  1  0.189540  0.490940  0.060880  1
  C  C2799  1  0.009060  0.310460  0.439120  1
  C  C2800  1  0.930060  0.128660  0.439120  1
  C  C2801  1  0.638200  0.408400  0.923400  1
  C  C2802  1  0.785200  0.515000  0.923400  1
  C  C2803  1  0.985000  0.714800  0.576600  1
  C  C2804  1  0.091600  0.861800  0.576600  1
  C  C2805  1  0.361800  0.591600  0.076600  1
  C  C2806  1  0.214800  0.485000  0.076600  1
  C  C2807  1  0.015000  0.285200  0.423400  1
  C  C2808  1  0.908400  0.138200  0.423400  1
  C  C2809  1  0.585000  0.451600  0.940200  1
  C  C2810  1  0.855200  0.488600  0.940200  1
  C  C2811  1  0.011400  0.644800  0.559800  1
  C  C2812  1  0.048400  0.915000  0.559800  1
  C  C2813  1  0.415000  0.548400  0.059800  1
  C  C2814  1  0.144800  0.511400  0.059800  1
  C  C2815  1  0.988600  0.355200  0.440200  1
  C  C2816  1  0.951600  0.085000  0.440200  1
  C  C2817  1  0.516000  0.219200  0.735800  1
  C  C2818  1  0.719800  0.516600  0.735800  1
  C  C2819  1  0.983400  0.780200  0.764200  1
  C  C2820  1  0.280800  0.984000  0.764200  1
  C  C2821  1  0.484000  0.780800  0.264200  1
  C  C2822  1  0.280200  0.483400  0.264200  1
  C  C2823  1  0.016600  0.219800  0.235800  1
  C  C2824  1  0.719200  0.016000  0.235800  1
  C  C2825  1  0.534700  0.243100  0.772000  1
  C  C2826  1  0.737300  0.528900  0.772000  1
  C  C2827  1  0.971100  0.762700  0.728000  1
  C  C2828  1  0.256900  0.965300  0.728000  1
  C  C2829  1  0.465300  0.756900  0.228000  1
  C  C2830  1  0.262700  0.471100  0.228000  1
  C  C2831  1  0.028900  0.237300  0.272000  1
  C  C2832  1  0.743100  0.034700  0.272000  1
  C  C2833  1  0.526400  0.267200  0.788000  1
  C  C2834  1  0.761600  0.520800  0.788000  1
  C  C2835  1  0.979200  0.738400  0.712000  1
  C  C2836  1  0.232800  0.973600  0.712000  1
  C  C2837  1  0.473600  0.732800  0.212000  1
  C  C2838  1  0.238400  0.479200  0.212000  1
  C  C2839  1  0.020800  0.261600  0.288000  1
  C  C2840  1  0.767200  0.026400  0.288000  1
  C  C2841  1  0.547100  0.291500  0.820000  1
  C  C2842  1  0.772900  0.528500  0.820000  1
  C  C2843  1  0.971500  0.727100  0.680000  1
  C  C2844  1  0.208500  0.952900  0.680000  1
  C  C2845  1  0.452900  0.708500  0.180000  1
  C  C2846  1  0.227100  0.471500  0.180000  1
  C  C2847  1  0.028500  0.272900  0.320000  1
  C  C2848  1  0.791500  0.047100  0.320000  1
  C  C2849  1  0.576500  0.288700  0.839600  1
  C  C2850  1  0.763100  0.550900  0.839600  1
  C  C2851  1  0.949100  0.736900  0.660400  1
  C  C2852  1  0.211300  0.923500  0.660400  1
  C  C2853  1  0.423500  0.711300  0.160400  1
  C  C2854  1  0.236900  0.449100  0.160400  1
  C  C2855  1  0.050900  0.263100  0.339600  1
  C  C2856  1  0.788700  0.076500  0.339600  1
  C  C2857  1  0.583300  0.263500  0.824200  1
  C  C2858  1  0.740900  0.560700  0.824200  1
  C  C2859  1  0.939300  0.759100  0.675800  1
  C  C2860  1  0.236500  0.916700  0.675800  1
  C  C2861  1  0.416700  0.736500  0.175800  1
  C  C2862  1  0.259100  0.439300  0.175800  1
  C  C2863  1  0.060700  0.240900  0.324200  1
  C  C2864  1  0.763500  0.083300  0.324200  1
  C  C2865  1  0.564400  0.243400  0.794000  1
  C  C2866  1  0.729600  0.550600  0.794000  1
  C  C2867  1  0.949400  0.770400  0.706000  1
  C  C2868  1  0.256600  0.935600  0.706000  1
  C  C2869  1  0.435600  0.756600  0.206000  1
  C  C2870  1  0.270400  0.449400  0.206000  1
  C  C2871  1  0.050600  0.229600  0.294000  1
  C  C2872  1  0.743400  0.064400  0.294000  1
  C  C2873  1  0.589310  0.326510  0.893220  1
  C  C2874  1  0.803910  0.566710  0.893220  1
  C  C2875  1  0.933290  0.696090  0.606780  1
  C  C2876  1  0.173490  0.910690  0.606780  1
  C  C2877  1  0.410690  0.673490  0.106780  1
  C  C2878  1  0.196090  0.433290  0.106780  1
  C  C2879  1  0.066710  0.303910  0.393220  1
  C  C2880  1  0.826510  0.089310  0.393220  1
  C  C2881  1  0.663170  0.379530  0.970480  1
  C  C2882  1  0.807310  0.590950  0.970480  1
  C  C2883  1  0.909050  0.692690  0.529520  1
  C  C2884  1  0.120470  0.836830  0.529520  1
  C  C2885  1  0.336830  0.620470  0.029520  1
  C  C2886  1  0.192690  0.409050  0.029520  1
  C  C2887  1  0.090950  0.307310  0.470480  1
  C  C2888  1  0.879530  0.163170  0.470480  1
  C  C2889  1  0.655100  0.395220  0.992520  1
  C  C2890  1  0.837420  0.597300  0.992520  1
  C  C2891  1  0.902700  0.662580  0.507480  1
  C  C2892  1  0.104780  0.844900  0.507480  1
  C  C2893  1  0.344900  0.604780  0.007480  1
  C  C2894  1  0.162580  0.402700  0.007480  1
  C  C2895  1  0.097300  0.337420  0.492520  1
  C  C2896  1  0.895220  0.155100  0.492520  1
  C  C2897  1  0.624770  0.389090  0.981620  1
  C  C2898  1  0.856850  0.592530  0.981620  1
  C  C2899  1  0.907470  0.643150  0.518380  1
  C  C2900  1  0.110910  0.875230  0.518380  1
  C  C2901  1  0.375230  0.610910  0.018380  1
  C  C2902  1  0.143150  0.407470  0.018380  1
  C  C2903  1  0.092530  0.356850  0.481620  1
  C  C2904  1  0.889090  0.124770  0.481620  1
  C  C2905  1  0.602400  0.367180  0.948660  1
  C  C2906  1  0.846260  0.581480  0.948660  1
  C  C2907  1  0.918520  0.653740  0.551340  1
  C  C2908  1  0.132820  0.897600  0.551340  1
  C  C2909  1  0.397600  0.632820  0.051340  1
  C  C2910  1  0.153740  0.418520  0.051340  1
  C  C2911  1  0.081480  0.346260  0.448660  1
  C  C2912  1  0.867180  0.102400  0.448660  1
  C  C2913  1  0.610420  0.351460  0.926640  1
  C  C2914  1  0.816220  0.575180  0.926640  1
  C  C2915  1  0.924820  0.683780  0.573360  1
  C  C2916  1  0.148540  0.889580  0.573360  1
  C  C2917  1  0.389580  0.648540  0.073360  1
  C  C2918  1  0.183780  0.424820  0.073360  1
  C  C2919  1  0.075180  0.316220  0.426640  1
  C  C2920  1  0.851460  0.110420  0.426640  1
  C  C2921  1  0.679400  0.417400  0.027400  1
  C  C2922  1  0.848000  0.610000  0.027400  1
  C  C2923  1  0.890000  0.652000  0.472600  1
  C  C2924  1  0.082600  0.820600  0.472600  1
  C  C2925  1  0.320600  0.582600  0.972600  1
  C  C2926  1  0.152000  0.390000  0.972600  1
  C  C2927  1  0.110000  0.348000  0.527400  1
  C  C2928  1  0.917400  0.179400  0.527400  1
  C  C2929  1  0.704900  0.412300  0.044800  1
  C  C2930  1  0.839900  0.632500  0.044800  1
  C  C2931  1  0.867500  0.660100  0.455200  1
  C  C2932  1  0.087700  0.795100  0.455200  1
  C  C2933  1  0.295100  0.587700  0.955200  1
  C  C2934  1  0.160100  0.367500  0.955200  1
  C  C2935  1  0.132500  0.339900  0.544800  1
  C  C2936  1  0.912300  0.204900  0.544800  1
  C  C2937  1  0.722300  0.457500  0.093600  1
  C  C2938  1  0.871300  0.636100  0.093600  1
  C  C2939  1  0.863900  0.628700  0.406400  1
  C  C2940  1  0.042500  0.777700  0.406400  1
  C  C2941  1  0.277700  0.542500  0.906400  1
  C  C2942  1  0.128700  0.363900  0.906400  1
  C  C2943  1  0.136100  0.371300  0.593600  1
  C  C2944  1  0.957500  0.222300  0.593600  1
  C  C2945  1  0.699300  0.464700  0.078400  1
  C  C2946  1  0.879100  0.613700  0.078400  1
  C  C2947  1  0.886300  0.620900  0.421600  1
  C  C2948  1  0.035300  0.800700  0.421600  1
  C  C2949  1  0.300700  0.535300  0.921600  1
  C  C2950  1  0.120900  0.386300  0.921600  1
  C  C2951  1  0.113700  0.379100  0.578400  1
  C  C2952  1  0.964700  0.199300  0.578400  1
  C  C2953  1  0.677300  0.445900  0.045600  1
  C  C2954  1  0.868300  0.599700  0.045600  1
  C  C2955  1  0.900300  0.631700  0.454400  1
  C  C2956  1  0.054100  0.822700  0.454400  1
  C  C2957  1  0.322700  0.554100  0.954400  1
  C  C2958  1  0.131700  0.400300  0.954400  1
  C  C2959  1  0.099700  0.368300  0.545600  1
  C  C2960  1  0.945900  0.177300  0.545600  1
  C  C2961  1  0.749400  0.476400  0.130400  1
  C  C2962  1  0.881000  0.654000  0.130400  1
  C  C2963  1  0.846000  0.619000  0.369600  1
  C  C2964  1  0.023600  0.750600  0.369600  1
  C  C2965  1  0.250600  0.523600  0.869600  1
  C  C2966  1  0.119000  0.346000  0.869600  1
  C  C2967  1  0.154000  0.381000  0.630400  1
  C  C2968  1  0.976400  0.249400  0.630400  1
  C  C2969  1  0.793100  0.486900  0.175600  1
  C  C2970  1  0.882500  0.688700  0.175600  1
  C  C2971  1  0.811300  0.617500  0.324400  1
  C  C2972  1  0.013100  0.706900  0.324400  1
  C  C2973  1  0.206900  0.513100  0.824400  1
  C  C2974  1  0.117500  0.311300  0.824400  1
  C  C2975  1  0.188700  0.382500  0.675600  1
  C  C2976  1  0.986900  0.293100  0.675600  1
  C  C2977  1  0.787700  0.500300  0.200600  1
  C  C2978  1  0.912900  0.700300  0.200600  1
  C  C2979  1  0.799700  0.587100  0.299400  1
  C  C2980  1  0.999700  0.712300  0.299400  1
  C  C2981  1  0.212300  0.499700  0.799400  1
  C  C2982  1  0.087100  0.299700  0.799400  1
  C  C2983  1  0.200300  0.412900  0.700600  1
  C  C2984  1  0.000300  0.287700  0.700600  1
  C  C2985  1  0.811600  0.516400  0.233600  1
  C  C2986  1  0.922000  0.717200  0.233600  1
  C  C2987  1  0.782800  0.578000  0.266400  1
  C  C2988  1  0.983600  0.688400  0.266400  1
  C  C2989  1  0.188400  0.483600  0.766400  1
  C  C2990  1  0.078000  0.282800  0.766400  1
  C  C2991  1  0.217200  0.422000  0.733600  1
  C  C2992  1  0.016400  0.311600  0.733600  1
  C  C2993  1  0.841000  0.519000  0.241600  1
  C  C2994  1  0.900600  0.722600  0.241600  1
  C  C2995  1  0.777400  0.599400  0.258400  1
  C  C2996  1  0.981000  0.659000  0.258400  1
  C  C2997  1  0.159000  0.481000  0.758400  1
  C  C2998  1  0.099400  0.277400  0.758400  1
  C  C2999  1  0.222600  0.400600  0.741600  1
  C  C3000  1  0.019000  0.341000  0.741600  1
  C  C3001  1  0.846400  0.505600  0.216600  1
  C  C3002  1  0.870200  0.711000  0.216600  1
  C  C3003  1  0.789000  0.629800  0.283400  1
  C  C3004  1  0.994400  0.653600  0.283400  1
  C  C3005  1  0.153600  0.494400  0.783400  1
  C  C3006  1  0.129800  0.289000  0.783400  1
  C  C3007  1  0.211000  0.370200  0.716600  1
  C  C3008  1  0.005600  0.346400  0.716600  1
  C  C3009  1  0.822400  0.489600  0.183600  1
  C  C3010  1  0.861200  0.694000  0.183600  1
  C  C3011  1  0.806000  0.638800  0.316400  1
  C  C3012  1  0.010400  0.677600  0.316400  1
  C  C3013  1  0.177600  0.510400  0.816400  1
  C  C3014  1  0.138800  0.306000  0.816400  1
  C  C3015  1  0.194000  0.361200  0.683600  1
  C  C3016  1  0.989600  0.322400  0.683600  1
  C  C3017  1  0.868600  0.540200  0.280000  1
  C  C3018  1  0.911400  0.739800  0.280000  1
  C  C3019  1  0.760200  0.588600  0.220000  1
  C  C3020  1  0.959800  0.631400  0.220000  1
  C  C3021  1  0.131400  0.459800  0.720000  1
  C  C3022  1  0.088600  0.260200  0.720000  1
  C  C3023  1  0.239800  0.411400  0.780000  1
  C  C3024  1  0.040200  0.368600  0.780000  1
  C  C3025  1  0.612300  0.423500  0.074000  1
  C  C3026  1  0.961700  0.650500  0.074000  1
  C  C3027  1  0.849500  0.538300  0.426000  1
  C  C3028  1  0.076500  0.887700  0.426000  1
  C  C3029  1  0.387700  0.576500  0.926000  1
  C  C3030  1  0.038300  0.349500  0.926000  1
  C  C3031  1  0.150500  0.461700  0.574000  1
  C  C3032  1  0.923500  0.112300  0.574000  1
  C  C3033  1  0.644100  0.423300  0.091600  1
  C  C3034  1  0.947500  0.668300  0.091600  1
  C  C3035  1  0.831700  0.552500  0.408400  1
  C  C3036  1  0.076700  0.855900  0.408400  1
  C  C3037  1  0.355900  0.576700  0.908400  1
  C  C3038  1  0.052500  0.331700  0.908400  1
  C  C3039  1  0.168300  0.447500  0.591600  1
  C  C3040  1  0.923300  0.144100  0.591600  1
  C  C3041  1  0.666600  0.443000  0.125000  1
  C  C3042  1  0.958400  0.682000  0.125000  1
  C  C3043  1  0.818000  0.541600  0.375000  1
  C  C3044  1  0.057000  0.833400  0.375000  1
  C  C3045  1  0.333400  0.557000  0.875000  1
  C  C3046  1  0.041600  0.318000  0.875000  1
  C  C3047  1  0.182000  0.458400  0.625000  1
  C  C3048  1  0.943000  0.166600  0.625000  1
  C  C3049  1  0.694410  0.440010  0.138020  1
  C  C3050  1  0.943610  0.698010  0.138020  1
  C  C3051  1  0.801990  0.556390  0.361980  1
  C  C3052  1  0.059990  0.805590  0.361980  1
  C  C3053  1  0.305590  0.559990  0.861980  1
  C  C3054  1  0.056390  0.301990  0.861980  1
  C  C3055  1  0.198010  0.443610  0.638020  1
  C  C3056  1  0.940010  0.194410  0.638020  1
  C  C3057  1  0.699600  0.417200  0.117600  1
  C  C3058  1  0.918000  0.700400  0.117600  1
  C  C3059  1  0.799600  0.582000  0.382400  1
  C  C3060  1  0.082800  0.800400  0.382400  1
  C  C3061  1  0.300400  0.582800  0.882400  1
  C  C3062  1  0.082000  0.299600  0.882400  1
  C  C3063  1  0.200400  0.418000  0.617600  1
  C  C3064  1  0.917200  0.199600  0.617600  1
  C  C3065  1  0.677200  0.397400  0.084200  1
  C  C3066  1  0.907000  0.686800  0.084200  1
  C  C3067  1  0.813200  0.593000  0.415800  1
  C  C3068  1  0.102600  0.822800  0.415800  1
  C  C3069  1  0.322800  0.602600  0.915800  1
  C  C3070  1  0.093000  0.313200  0.915800  1
  C  C3071  1  0.186800  0.407000  0.584200  1
  C  C3072  1  0.897400  0.177200  0.584200  1
  C  C3073  1  0.649400  0.400400  0.071200  1
  C  C3074  1  0.921800  0.670800  0.071200  1
  C  C3075  1  0.829200  0.578200  0.428800  1
  C  C3076  1  0.099600  0.850600  0.428800  1
  C  C3077  1  0.350600  0.599600  0.928800  1
  C  C3078  1  0.078200  0.329200  0.928800  1
  C  C3079  1  0.170800  0.421800  0.571200  1
  C  C3080  1  0.900400  0.149400  0.571200  1
  C  C3081  1  0.746100  0.419700  0.158200  1
  C  C3082  1  0.912100  0.738500  0.158200  1
  C  C3083  1  0.761500  0.587900  0.341800  1
  C  C3084  1  0.080300  0.753900  0.341800  1
  C  C3085  1  0.253900  0.580300  0.841800  1
  C  C3086  1  0.087900  0.261500  0.841800  1
  C  C3087  1  0.238500  0.412100  0.658200  1
  C  C3088  1  0.919700  0.246100  0.658200  1
  C  C3089  1  0.776700  0.420900  0.170200  1
  C  C3090  1  0.893500  0.749300  0.170200  1
  C  C3091  1  0.750700  0.606500  0.329800  1
  C  C3092  1  0.079100  0.723300  0.329800  1
  C  C3093  1  0.223300  0.579100  0.829800  1
  C  C3094  1  0.106500  0.250700  0.829800  1
  C  C3095  1  0.249300  0.393500  0.670200  1
  C  C3096  1  0.920900  0.276700  0.670200  1
  C  C3097  1  0.814300  0.416900  0.159800  1
  C  C3098  1  0.845500  0.742900  0.159800  1
  C  C3099  1  0.757100  0.654500  0.340200  1
  C  C3100  1  0.083100  0.685700  0.340200  1
  C  C3101  1  0.185700  0.583100  0.840200  1
  C  C3102  1  0.154500  0.257100  0.840200  1
  C  C3103  1  0.242900  0.345500  0.659800  1
  C  C3104  1  0.916900  0.314300  0.659800  1
  C  C3105  1  0.833200  0.419800  0.189400  1
  C  C3106  1  0.856200  0.769600  0.189400  1
  C  C3107  1  0.730400  0.643800  0.310600  1
  C  C3108  1  0.080200  0.666800  0.310600  1
  C  C3109  1  0.166800  0.580200  0.810600  1
  C  C3110  1  0.143800  0.230400  0.810600  1
  C  C3111  1  0.269600  0.356200  0.689400  1
  C  C3112  1  0.919800  0.333200  0.689400  1
  C  C3113  1  0.820400  0.423000  0.208200  1
  C  C3114  1  0.887800  0.785200  0.208200  1
  C  C3115  1  0.714800  0.612200  0.291800  1
  C  C3116  1  0.077000  0.679600  0.291800  1
  C  C3117  1  0.179600  0.577000  0.791800  1
  C  C3118  1  0.112200  0.214800  0.791800  1
  C  C3119  1  0.285200  0.387800  0.708200  1
  C  C3120  1  0.923000  0.320400  0.708200  1
  C  C3121  1  0.792900  0.424300  0.199800  1
  C  C3122  1  0.906900  0.775500  0.199800  1
  C  C3123  1  0.724500  0.593100  0.300200  1
  C  C3124  1  0.075700  0.707100  0.300200  1
  C  C3125  1  0.207100  0.575700  0.800200  1
  C  C3126  1  0.093100  0.224500  0.800200  1
  C  C3127  1  0.275500  0.406900  0.699800  1
  C  C3128  1  0.924300  0.292900  0.699800  1
  C  C3129  1  0.861420  0.416380  0.198200  1
  C  C3130  1  0.836780  0.781820  0.198200  1
  C  C3131  1  0.718180  0.663220  0.301800  1
  C  C3132  1  0.083620  0.638580  0.301800  1
  C  C3133  1  0.138580  0.583620  0.801800  1
  C  C3134  1  0.163220  0.218180  0.801800  1
  C  C3135  1  0.281820  0.336780  0.698200  1
  C  C3136  1  0.916380  0.361420  0.698200  1
  C  C3137  1  0.864360  0.394160  0.174520  1
  C  C3138  1  0.810160  0.780360  0.174520  1
  C  C3139  1  0.719640  0.689840  0.325480  1
  C  C3140  1  0.105840  0.635640  0.325480  1
  C  C3141  1  0.135640  0.605840  0.825480  1
  C  C3142  1  0.189840  0.219640  0.825480  1
  C  C3143  1  0.280360  0.310160  0.674520  1
  C  C3144  1  0.894160  0.364360  0.674520  1
  C  C3145  1  0.917120  0.410680  0.215400  1
  C  C3146  1  0.798280  0.804720  0.215400  1
  C  C3147  1  0.695280  0.701720  0.284600  1
  C  C3148  1  0.089320  0.582880  0.284600  1
  C  C3149  1  0.082880  0.589320  0.784600  1
  C  C3150  1  0.201720  0.195280  0.784600  1
  C  C3151  1  0.304720  0.298280  0.715400  1
  C  C3152  1  0.910680  0.417120  0.715400  1
  C  C3153  1  0.914170  0.432770  0.239140  1
  C  C3154  1  0.824970  0.806370  0.239140  1
  C  C3155  1  0.693630  0.675030  0.260860  1
  C  C3156  1  0.067230  0.585830  0.260860  1
  C  C3157  1  0.085830  0.567230  0.760860  1
  C  C3158  1  0.175030  0.193630  0.760860  1
  C  C3159  1  0.306370  0.324970  0.739140  1
  C  C3160  1  0.932770  0.414170  0.739140  1
  C  C3161  1  0.886300  0.435700  0.230600  1
  C  C3162  1  0.844300  0.794900  0.230600  1
  C  C3163  1  0.705100  0.655700  0.269400  1
  C  C3164  1  0.064300  0.613700  0.269400  1
  C  C3165  1  0.113700  0.564300  0.769400  1
  C  C3166  1  0.155700  0.205100  0.769400  1
  C  C3167  1  0.294900  0.344300  0.730600  1
  C  C3168  1  0.935700  0.386300  0.730600  1
  C  C3169  1  0.944000  0.404000  0.221400  1
  C  C3170  1  0.777400  0.817400  0.221400  1
  C  C3171  1  0.682600  0.722600  0.278600  1
  C  C3172  1  0.096000  0.556000  0.278600  1
  C  C3173  1  0.056000  0.596000  0.778600  1
  C  C3174  1  0.222600  0.182600  0.778600  1
  C  C3175  1  0.317400  0.277400  0.721400  1
  C  C3176  1  0.904000  0.444000  0.721400  1
  C  C3177  1  0.971400  0.377800  0.204200  1
  C  C3178  1  0.732800  0.826400  0.204200  1
  C  C3179  1  0.673600  0.767200  0.295800  1
  C  C3180  1  0.122200  0.528600  0.295800  1
  C  C3181  1  0.028600  0.622200  0.795800  1
  C  C3182  1  0.267200  0.173600  0.795800  1
  C  C3183  1  0.326400  0.232800  0.704200  1
  C  C3184  1  0.877800  0.471400  0.704200  1
  C  C3185  1  0.990900  0.380300  0.233600  1
  C  C3186  1  0.742700  0.853300  0.233600  1
  C  C3187  1  0.646700  0.757300  0.266400  1
  C  C3188  1  0.119700  0.509100  0.266400  1
  C  C3189  1  0.009100  0.619700  0.766400  1
  C  C3190  1  0.257300  0.146700  0.766400  1
  C  C3191  1  0.353300  0.242700  0.733600  1
  C  C3192  1  0.880300  0.490900  0.733600  1
  C  C3193  1  0.017000  0.374200  0.238800  1
  C  C3194  1  0.721800  0.864600  0.238800  1
  C  C3195  1  0.635400  0.778200  0.261200  1
  C  C3196  1  0.125800  0.483000  0.261200  1
  C  C3197  1  0.983000  0.625800  0.761200  1
  C  C3198  1  0.278200  0.135400  0.761200  1
  C  C3199  1  0.364600  0.221800  0.738800  1
  C  C3200  1  0.874200  0.517000  0.738800  1
  C  C3201  1  0.023600  0.365800  0.214600  1
  C  C3202  1  0.691000  0.848800  0.214600  1
  C  C3203  1  0.651200  0.809000  0.285400  1
  C  C3204  1  0.134200  0.476400  0.285400  1
  C  C3205  1  0.976400  0.634200  0.785400  1
  C  C3206  1  0.309000  0.151200  0.785400  1
  C  C3207  1  0.348800  0.191000  0.714600  1
  C  C3208  1  0.865800  0.523600  0.714600  1
  C  C3209  1  0.004100  0.363500  0.185200  1
  C  C3210  1  0.681100  0.821700  0.185200  1
  C  C3211  1  0.678300  0.818900  0.314800  1
  C  C3212  1  0.136500  0.495900  0.314800  1
  C  C3213  1  0.995900  0.636500  0.814800  1
  C  C3214  1  0.318900  0.178300  0.814800  1
  C  C3215  1  0.321700  0.181100  0.685200  1
  C  C3216  1  0.863500  0.504100  0.685200  1
  C  C3217  1  0.978000  0.369400  0.180000  1
  C  C3218  1  0.702000  0.810600  0.180000  1
  C  C3219  1  0.689400  0.798000  0.320000  1
  C  C3220  1  0.130600  0.522000  0.320000  1
  C  C3221  1  0.022000  0.630600  0.820000  1
  C  C3222  1  0.298000  0.189400  0.820000  1
  C  C3223  1  0.310600  0.202000  0.680000  1
  C  C3224  1  0.869400  0.478000  0.680000  1
  C  C3225  1  0.051600  0.360600  0.214400  1
  C  C3226  1  0.662800  0.853800  0.214400  1
  C  C3227  1  0.646200  0.837200  0.285600  1
  C  C3228  1  0.139400  0.448400  0.285600  1
  C  C3229  1  0.948400  0.639400  0.785600  1
  C  C3230  1  0.337200  0.146200  0.785600  1
  C  C3231  1  0.353800  0.162800  0.714400  1
  C  C3232  1  0.860600  0.551600  0.714400  1
  C  C3233  1  0.753700  0.074300  0.073200  1.0
  C  C3234  1  0.819500  0.998900  0.073200  1.0
  C  C3235  1  0.501100  0.680500  0.426800  1.0
  C  C3236  1  0.425700  0.746300  0.426800  1.0
  C  C3237  1  0.246300  0.925700  0.926800  1.0
  C  C3238  1  0.180500  0.001100  0.926800  1.0
  C  C3239  1  0.498900  0.319500  0.573200  1.0
  C  C3240  1  0.574300  0.253700  0.573200  1.0
  Cl  Cl3241  1  0.727490  0.240930  0.978740  1
  Cl  Cl3242  1  0.751250  0.737810  0.978740  1
  Cl  Cl3243  1  0.762190  0.748750  0.521260  1
  Cl  Cl3244  1  0.259070  0.772510  0.521260  1
  Cl  Cl3245  1  0.272510  0.759070  0.021260  1
  Cl  Cl3246  1  0.248750  0.262190  0.021260  1
  Cl  Cl3247  1  0.237810  0.251250  0.478740  1
  Cl  Cl3248  1  0.740930  0.227490  0.478740  1
  Co  Co3249  1  0.778750  0.089650  0.958500  1
  Co  Co3250  1  0.679750  0.868850  0.958500  1
  Co  Co3251  1  0.631150  0.820250  0.541500  1
  Co  Co3252  1  0.410350  0.721250  0.541500  1
  Co  Co3253  1  0.221250  0.910350  0.041500  1
  Co  Co3254  1  0.320250  0.131150  0.041500  1
  Co  Co3255  1  0.368850  0.179750  0.458500  1
  Co  Co3256  1  0.589650  0.278750  0.458500  1
  Co  Co3257  1  0.624170  0.075810  0.791280  1
  Co  Co3258  1  0.667110  0.715470  0.791280  1
  Co  Co3259  1  0.784530  0.832890  0.708720  1
  Co  Co3260  1  0.424190  0.875830  0.708720  1
  Co  Co3261  1  0.375830  0.924190  0.208720  1
  Co  Co3262  1  0.332890  0.284530  0.208720  1
  Co  Co3263  1  0.215470  0.167110  0.291280  1
  Co  Co3264  1  0.575810  0.124170  0.291280  1
  Co  Co3265  1  0.540720  0.192440  0.869960  1
  Co  Co3266  1  0.829240  0.677520  0.869960  1
  Co  Co3267  1  0.822480  0.670760  0.630040  1
  Co  Co3268  1  0.307560  0.959280  0.630040  1
  Co  Co3269  1  0.459280  0.807560  0.130040  1
  Co  Co3270  1  0.170760  0.322480  0.130040  1
  Co  Co3271  1  0.177520  0.329240  0.369960  1
  Co  Co3272  1  0.692440  0.040720  0.369960  1
  Co  Co3273  1  0.643400  0.282420  0.082100  1
  Co  Co3274  1  0.938700  0.799680  0.082100  1
  Co  Co3275  1  0.700320  0.561300  0.417900  1
  Co  Co3276  1  0.217580  0.856600  0.417900  1
  Co  Co3277  1  0.356600  0.717580  0.917900  1
  Co  Co3278  1  0.061300  0.200320  0.917900  1
  Co  Co3279  1  0.299680  0.438700  0.582100  1
  Co  Co3280  1  0.782420  0.143400  0.582100  1
  Co  Co3281  1  0.786770  0.218190  0.135280  1
  Co  Co3282  1  0.848510  0.917090  0.135280  1
  Co  Co3283  1  0.582910  0.651490  0.364720  1
  Co  Co3284  1  0.281810  0.713230  0.364720  1
  Co  Co3285  1  0.213230  0.781810  0.864720  1
  Co  Co3286  1  0.151490  0.082910  0.864720  1
  Co  Co3287  1  0.417090  0.348510  0.635280  1
  Co  Co3288  1  0.718190  0.286770  0.635280  1
  Co  Co3289  1  0.875580  0.224920  0.968300  1
  Co  Co3290  1  0.592720  0.743380  0.968300  1
  Co  Co3291  1  0.756620  0.907280  0.531700  1
  Co  Co3292  1  0.275080  0.624420  0.531700  1
  Co  Co3293  1  0.124420  0.775080  0.031700  1
  Co  Co3294  1  0.407280  0.256620  0.031700  1
  Co  Co3295  1  0.243380  0.092720  0.468300  1
  Co  Co3296  1  0.724920  0.375580  0.468300  1
  Co  Co3297  1  0.725080  0.218200  0.813820  1
  Co  Co3298  1  0.588740  0.595620  0.813820  1
  Co  Co3299  1  0.904380  0.911260  0.686180  1
  Co  Co3300  1  0.281800  0.774920  0.686180  1
  Co  Co3301  1  0.274920  0.781800  0.186180  1
  Co  Co3302  1  0.411260  0.404380  0.186180  1
  Co  Co3303  1  0.095620  0.088740  0.313820  1
  Co  Co3304  1  0.718200  0.225080  0.313820  1
  Co  Co3305  1  0.644890  0.335450  0.896400  1
  Co  Co3306  1  0.751510  0.560950  0.896400  1
  Co  Co3307  1  0.939050  0.748490  0.603600  1
  Co  Co3308  1  0.164550  0.855110  0.603600  1
  Co  Co3309  1  0.355110  0.664550  0.103600  1
  Co  Co3310  1  0.248490  0.439050  0.103600  1
  Co  Co3311  1  0.060950  0.251510  0.396400  1
  Co  Co3312  1  0.835450  0.144890  0.396400  1
  Co  Co3313  1  0.756860  0.421100  0.109220  1
  Co  Co3314  1  0.852360  0.688120  0.109220  1
  Co  Co3315  1  0.811880  0.647640  0.390780  1
  Co  Co3316  1  0.078900  0.743140  0.390780  1
  Co  Co3317  1  0.243140  0.578900  0.890780  1
  Co  Co3318  1  0.147640  0.311880  0.890780  1
  Co  Co3319  1  0.188120  0.352360  0.609220  1
  Co  Co3320  1  0.921100  0.256860  0.609220  1
  Co  Co3321  1  0.899890  0.352910  0.156240  1
  Co  Co3322  1  0.756350  0.803330  0.156240  1
  Co  Co3323  1  0.696670  0.743650  0.343760  1
  Co  Co3324  1  0.147090  0.600110  0.343760  1
  Co  Co3325  1  0.100110  0.647090  0.843760  1
  Co  Co3326  1  0.243650  0.196670  0.843760  1
  Co  Co3327  1  0.303330  0.256350  0.656240  1
  Co  Co3328  1  0.852910  0.399890  0.656240  1
  F  F3329  1  0.034770  0.086770  0.865620  1
  F  F3330  1  0.330850  0.778850  0.865620  1
  F  F3331  1  0.721150  0.169150  0.634380  1
  F  F3332  1  0.413230  0.465230  0.634380  1
  F  F3333  1  0.965230  0.913230  0.134380  1
  F  F3334  1  0.669150  0.221150  0.134380  1
  F  F3335  1  0.278850  0.830850  0.365620  1
  F  F3336  1  0.586770  0.534770  0.365620  1
  F  F3337  1  0.024780  0.039560  0.845940  1
  F  F3338  1  0.321160  0.806380  0.845940  1
  F  F3339  1  0.693620  0.178840  0.654060  1
  F  F3340  1  0.460440  0.475220  0.654060  1
  F  F3341  1  0.975220  0.960440  0.154060  1
  F  F3342  1  0.678840  0.193620  0.154060  1
  F  F3343  1  0.306380  0.821160  0.345940  1
  F  F3344  1  0.539560  0.524780  0.345940  1
  F  F3345  1  0.013280  0.064800  0.880200  1
  F  F3346  1  0.366920  0.815400  0.880200  1
  F  F3347  1  0.684600  0.133080  0.619800  1
  F  F3348  1  0.435200  0.486720  0.619800  1
  F  F3349  1  0.986720  0.935200  0.119800  1
  F  F3350  1  0.633080  0.184600  0.119800  1
  F  F3351  1  0.315400  0.866920  0.380200  1
  F  F3352  1  0.564800  0.513280  0.380200  1
  F  F3353  1  0.918600  0.093000  0.801200  1
  F  F3354  1  0.382600  0.708200  0.801200  1
  F  F3355  1  0.791800  0.117400  0.698800  1
  F  F3356  1  0.407000  0.581400  0.698800  1
  F  F3357  1  0.081400  0.907000  0.198800  1
  F  F3358  1  0.617400  0.291800  0.198800  1
  F  F3359  1  0.208200  0.882600  0.301200  1
  F  F3360  1  0.593000  0.418600  0.301200  1
  F  F3361  1  0.903900  0.045500  0.785600  1
  F  F3362  1  0.381700  0.740100  0.785600  1
  F  F3363  1  0.759900  0.118300  0.714400  1
  F  F3364  1  0.454500  0.596100  0.714400  1
  F  F3365  1  0.096100  0.954500  0.214400  1
  F  F3366  1  0.618300  0.259900  0.214400  1
  F  F3367  1  0.240100  0.881700  0.285600  1
  F  F3368  1  0.545500  0.403900  0.285600  1
  F  F3369  1  0.891700  0.077900  0.816000  1
  F  F3370  1  0.424300  0.738100  0.816000  1
  F  F3371  1  0.761900  0.075700  0.684000  1
  F  F3372  1  0.422100  0.608300  0.684000  1
  F  F3373  1  0.108300  0.922100  0.184000  1
  F  F3374  1  0.575700  0.261900  0.184000  1
  F  F3375  1  0.238100  0.924300  0.316000  1
  F  F3376  1  0.577900  0.391700  0.316000  1
  F  F3377  1  0.518500  0.205700  0.025600  1
  F  F3378  1  0.007100  0.819900  0.025600  1
  F  F3379  1  0.680100  0.492900  0.474400  1
  F  F3380  1  0.294300  0.981500  0.474400  1
  F  F3381  1  0.481500  0.794300  0.974400  1
  F  F3382  1  0.992900  0.180100  0.974400  1
  F  F3383  1  0.319900  0.507100  0.525600  1
  F  F3384  1  0.705700  0.018500  0.525600  1
  F  F3385  1  0.514700  0.160100  0.993200  1
  F  F3386  1  0.978500  0.833100  0.993200  1
  F  F3387  1  0.666900  0.521500  0.506800  1
  F  F3388  1  0.339900  0.985300  0.506800  1
  F  F3389  1  0.485300  0.839900  0.006800  1
  F  F3390  1  0.021500  0.166900  0.006800  1
  F  F3391  1  0.333100  0.478500  0.493200  1
  F  F3392  1  0.660100  0.014700  0.493200  1
  F  F3393  1  0.474700  0.168900  0.987800  1
  F  F3394  1  0.013100  0.818900  0.987800  1
  F  F3395  1  0.681100  0.486900  0.512200  1
  F  F3396  1  0.331100  0.025300  0.512200  1
  F  F3397  1  0.525300  0.831100  0.012200  1
  F  F3398  1  0.986900  0.181100  0.012200  1
  F  F3399  1  0.318900  0.513100  0.487800  1
  F  F3400  1  0.668900  0.974700  0.487800  1
  F  F3401  1  0.399700  0.139500  0.862200  1
  F  F3402  1  0.962500  0.722700  0.862200  1
  F  F3403  1  0.777300  0.537500  0.637800  1
  F  F3404  1  0.360500  0.100300  0.637800  1
  F  F3405  1  0.600300  0.860500  0.137800  1
  F  F3406  1  0.037500  0.277300  0.137800  1
  F  F3407  1  0.222700  0.462500  0.362200  1
  F  F3408  1  0.639500  0.899700  0.362200  1
  F  F3409  1  0.436000  0.184800  0.899000  1
  F  F3410  1  0.963000  0.714200  0.899000  1
  F  F3411  1  0.785800  0.537000  0.601000  1
  F  F3412  1  0.315200  0.064000  0.601000  1
  F  F3413  1  0.564000  0.815200  0.101000  1
  F  F3414  1  0.037000  0.285800  0.101000  1
  F  F3415  1  0.214200  0.463000  0.399000  1
  F  F3416  1  0.684800  0.936000  0.399000  1
  F  F3417  1  0.445500  0.150500  0.868800  1
  F  F3418  1  0.923300  0.718300  0.868800  1
  F  F3419  1  0.781700  0.576700  0.631200  1
  F  F3420  1  0.349500  0.054500  0.631200  1
  F  F3421  1  0.554500  0.849500  0.131200  1
  F  F3422  1  0.076700  0.281700  0.131200  1
  F  F3423  1  0.218300  0.423300  0.368800  1
  F  F3424  1  0.650500  0.945500  0.368800  1
  F  F3425  1  0.611400  0.169300  0.822300  1
  F  F3426  1  0.710900  0.653000  0.822300  1
  F  F3427  1  0.847000  0.789100  0.677700  1
  F  F3428  1  0.330700  0.888600  0.677700  1
  F  F3429  1  0.388600  0.830700  0.177700  1
  F  F3430  1  0.289100  0.347000  0.177700  1
  F  F3431  1  0.153000  0.210900  0.322300  1
  F  F3432  1  0.669300  0.111400  0.322300  1
  F  F3433  1  0.596890  0.190590  0.790880  1
  F  F3434  1  0.693990  0.600290  0.790880  1
  F  F3435  1  0.899710  0.806010  0.709120  1
  F  F3436  1  0.309410  0.903110  0.709120  1
  F  F3437  1  0.403110  0.809410  0.209120  1
  F  F3438  1  0.306010  0.399710  0.209120  1
  F  F3439  1  0.100290  0.193990  0.290880  1
  F  F3440  1  0.690590  0.096890  0.290880  1
  F  F3441  1  0.601060  0.211600  0.839760  1
  F  F3442  1  0.738700  0.628160  0.839760  1
  F  F3443  1  0.871840  0.761300  0.660240  1
  F  F3444  1  0.288400  0.898940  0.660240  1
  F  F3445  1  0.398940  0.788400  0.160240  1
  F  F3446  1  0.261300  0.371840  0.160240  1
  F  F3447  1  0.128160  0.238700  0.339760  1
  F  F3448  1  0.711600  0.101060  0.339760  1
  F  F3449  1  0.648100  0.212560  0.863460  1
  F  F3450  1  0.715360  0.650900  0.863460  1
  F  F3451  1  0.849100  0.784640  0.636540  1
  F  F3452  1  0.287440  0.851900  0.636540  1
  F  F3453  1  0.351900  0.787440  0.136540  1
  F  F3454  1  0.284640  0.349100  0.136540  1
  F  F3455  1  0.150900  0.215360  0.363460  1
  F  F3456  1  0.712560  0.148100  0.363460  1
  F  F3457  1  0.634380  0.232440  0.832620  1
  F  F3458  1  0.698240  0.600180  0.832620  1
  F  F3459  1  0.899820  0.801760  0.667380  1
  F  F3460  1  0.267560  0.865620  0.667380  1
  F  F3461  1  0.365620  0.767560  0.167380  1
  F  F3462  1  0.301760  0.399820  0.167380  1
  F  F3463  1  0.100180  0.198240  0.332620  1
  F  F3464  1  0.732440  0.134380  0.332620  1
  F  F3465  1  0.643940  0.190480  0.814500  1
  F  F3466  1  0.670560  0.624020  0.814500  1
  F  F3467  1  0.875980  0.829440  0.685500  1
  F  F3468  1  0.309520  0.856060  0.685500  1
  F  F3469  1  0.356060  0.809520  0.185500  1
  F  F3470  1  0.329440  0.375980  0.185500  1
  F  F3471  1  0.124020  0.170560  0.314500  1
  F  F3472  1  0.690480  0.143940  0.314500  1
  F  F3473  1  0.659820  0.298860  0.987580  1
  F  F3474  1  0.827760  0.688720  0.987580  1
  F  F3475  1  0.811280  0.672240  0.512420  1
  F  F3476  1  0.201140  0.840180  0.512420  1
  F  F3477  1  0.340180  0.701140  0.012420  1
  F  F3478  1  0.172240  0.311280  0.012420  1
  F  F3479  1  0.188720  0.327760  0.487580  1
  F  F3480  1  0.798860  0.159820  0.487580  1
  F  F3481  1  0.611230  0.285470  0.973280  1
  F  F3482  1  0.862050  0.687810  0.973280  1
  F  F3483  1  0.812190  0.637950  0.526720  1
  F  F3484  1  0.214530  0.888770  0.526720  1
  F  F3485  1  0.388770  0.714530  0.026720  1
  F  F3486  1  0.137950  0.312190  0.026720  1
  F  F3487  1  0.187810  0.362050  0.473280  1
  F  F3488  1  0.785470  0.111230  0.473280  1
  F  F3489  1  0.615920  0.334300  0.994200  1
  F  F3490  1  0.878280  0.659900  0.994200  1
  F  F3491  1  0.840100  0.621720  0.505800  1
  F  F3492  1  0.165700  0.884080  0.505800  1
  F  F3493  1  0.384080  0.665700  0.005800  1
  F  F3494  1  0.121720  0.340100  0.005800  1
  F  F3495  1  0.159900  0.378280  0.494200  1
  F  F3496  1  0.834300  0.115920  0.494200  1
  F  F3497  1  0.648570  0.321650  0.026400  1
  F  F3498  1  0.877830  0.704750  0.026400  1
  F  F3499  1  0.795250  0.622170  0.473600  1
  F  F3500  1  0.178350  0.851430  0.473600  1
  F  F3501  1  0.351430  0.678350  0.973600  1
  F  F3502  1  0.122170  0.295250  0.973600  1
  F  F3503  1  0.204750  0.377830  0.526400  1
  F  F3504  1  0.821650  0.148570  0.526400  1
  F  F3505  1  0.625930  0.311050  0.955100  1
  F  F3506  1  0.829170  0.644050  0.955100  1
  F  F3507  1  0.855950  0.670830  0.544900  1
  F  F3508  1  0.188950  0.874070  0.544900  1
  F  F3509  1  0.374070  0.688950  0.044900  1
  F  F3510  1  0.170830  0.355950  0.044900  1
  F  F3511  1  0.144050  0.329170  0.455100  1
  F  F3512  1  0.811050  0.125930  0.455100  1
  F  F3513  1  0.664100  0.347340  0.008200  1
  F  F3514  1  0.844100  0.660860  0.008200  1
  F  F3515  1  0.839140  0.655900  0.491800  1
  F  F3516  1  0.152660  0.835900  0.491800  1
  F  F3517  1  0.335900  0.652660  0.991800  1
  F  F3518  1  0.155900  0.339140  0.991800  1
  F  F3519  1  0.160860  0.344100  0.508200  1
  F  F3520  1  0.847340  0.164100  0.508200  1
  F  F3521  1  0.829720  0.203600  0.074060  1
  F  F3522  1  0.744340  0.870460  0.074060  1
  F  F3523  1  0.629540  0.755660  0.425940  1
  F  F3524  1  0.296400  0.670280  0.425940  1
  F  F3525  1  0.170280  0.796400  0.925940  1
  F  F3526  1  0.255660  0.129540  0.925940  1
  F  F3527  1  0.370460  0.244340  0.574060  1
  F  F3528  1  0.703600  0.329720  0.574060  1
  F  F3529  1  0.866550  0.236990  0.055240  1
  F  F3530  1  0.688690  0.818250  0.055240  1
  F  F3531  1  0.681750  0.811310  0.444760  1
  F  F3532  1  0.263010  0.633450  0.444760  1
  F  F3533  1  0.133450  0.763010  0.944760  1
  F  F3534  1  0.311310  0.181750  0.944760  1
  F  F3535  1  0.318250  0.188690  0.555240  1
  F  F3536  1  0.736990  0.366550  0.555240  1
  F  F3537  1  0.876660  0.215000  0.084420  1
  F  F3538  1  0.707760  0.869420  0.084420  1
  F  F3539  1  0.630580  0.792240  0.415580  1
  F  F3540  1  0.285000  0.623340  0.415580  1
  F  F3541  1  0.123340  0.785000  0.915580  1
  F  F3542  1  0.292240  0.130580  0.915580  1
  F  F3543  1  0.369420  0.207760  0.584420  1
  F  F3544  1  0.715000  0.376660  0.584420  1
  F  F3545  1  0.857920  0.251920  0.097340  1
  F  F3546  1  0.739420  0.845420  0.097340  1
  F  F3547  1  0.654580  0.760580  0.402660  1
  F  F3548  1  0.248080  0.642080  0.402660  1
  F  F3549  1  0.142080  0.748080  0.902660  1
  F  F3550  1  0.260580  0.154580  0.902660  1
  F  F3551  1  0.345420  0.239420  0.597340  1
  F  F3552  1  0.751920  0.357920  0.597340  1
  F  F3553  1  0.837840  0.188540  0.032180  1
  F  F3554  1  0.694340  0.843640  0.032180  1
  F  F3555  1  0.656360  0.805660  0.467820  1
  F  F3556  1  0.311460  0.662160  0.467820  1
  F  F3557  1  0.162160  0.811460  0.967820  1
  F  F3558  1  0.305660  0.156360  0.967820  1
  F  F3559  1  0.343640  0.194340  0.532180  1
  F  F3560  1  0.688540  0.337840  0.532180  1
  F  F3561  1  0.818460  0.224340  0.044380  1
  F  F3562  1  0.725920  0.820040  0.044380  1
  F  F3563  1  0.679960  0.774080  0.455620  1
  F  F3564  1  0.275660  0.681540  0.455620  1
  F  F3565  1  0.181540  0.775660  0.955620  1
  F  F3566  1  0.274080  0.179960  0.955620  1
  F  F3567  1  0.320040  0.225920  0.544380  1
  F  F3568  1  0.724340  0.318460  0.544380  1
  F  F3569  1  0.625070  0.116670  0.959340  1
  F  F3570  1  0.834270  0.842670  0.959340  1
  F  F3571  1  0.657330  0.665730  0.540660  1
  F  F3572  1  0.383330  0.874930  0.540660  1
  F  F3573  1  0.374930  0.883330  0.040660  1
  F  F3574  1  0.165730  0.157330  0.040660  1
  F  F3575  1  0.342670  0.334270  0.459340  1
  F  F3576  1  0.616670  0.125070  0.459340  1
  F  F3577  1  0.626160  0.159680  0.960640  1
  F  F3578  1  0.834480  0.800960  0.960640  1
  F  F3579  1  0.699040  0.665520  0.539360  1
  F  F3580  1  0.340320  0.873840  0.539360  1
  F  F3581  1  0.373840  0.840320  0.039360  1
  F  F3582  1  0.165520  0.199040  0.039360  1
  F  F3583  1  0.300960  0.334480  0.460640  1
  F  F3584  1  0.659680  0.126160  0.460640  1
  F  F3585  1  0.632200  0.125600  0.924600  1
  F  F3586  1  0.792400  0.799000  0.924600  1
  F  F3587  1  0.701000  0.707600  0.575400  1
  F  F3588  1  0.374400  0.867800  0.575400  1
  F  F3589  1  0.367800  0.874400  0.075400  1
  F  F3590  1  0.207600  0.201000  0.075400  1
  F  F3591  1  0.299000  0.292400  0.424600  1
  F  F3592  1  0.625600  0.132200  0.424600  1
  F  F3593  1  0.664170  0.160950  0.002520  1
  F  F3594  1  0.838350  0.841570  0.002520  1
  F  F3595  1  0.658430  0.661650  0.497480  1
  F  F3596  1  0.339050  0.835830  0.497480  1
  F  F3597  1  0.335830  0.839050  0.997480  1
  F  F3598  1  0.161650  0.158430  0.997480  1
  F  F3599  1  0.341570  0.338350  0.502520  1
  F  F3600  1  0.660950  0.164170  0.502520  1
  F  F3601  1  0.670300  0.124700  0.964000  1
  F  F3602  1  0.793700  0.839300  0.964000  1
  F  F3603  1  0.660700  0.706300  0.536000  1
  F  F3604  1  0.375300  0.829700  0.536000  1
  F  F3605  1  0.329700  0.875300  0.036000  1
  F  F3606  1  0.206300  0.160700  0.036000  1
  F  F3607  1  0.339300  0.293700  0.464000  1
  F  F3608  1  0.624700  0.170300  0.464000  1
  F  F3609  1  0.670960  0.167060  0.966480  1
  F  F3610  1  0.795520  0.799420  0.966480  1
  F  F3611  1  0.700580  0.704480  0.533520  1
  F  F3612  1  0.332940  0.829040  0.533520  1
  F  F3613  1  0.329040  0.832940  0.033520  1
  F  F3614  1  0.204480  0.200580  0.033520  1
  F  F3615  1  0.299420  0.295520  0.466480  1
  F  F3616  1  0.667060  0.170960  0.466480  1
  F  F3617  1  0.744010  0.117270  0.880040  1
  F  F3618  1  0.636030  0.762770  0.880040  1
  F  F3619  1  0.737230  0.863970  0.619960  1
  F  F3620  1  0.382730  0.755990  0.619960  1
  F  F3621  1  0.255990  0.882730  0.119960  1
  F  F3622  1  0.363970  0.237230  0.119960  1
  F  F3623  1  0.262770  0.136030  0.380040  1
  F  F3624  1  0.617270  0.244010  0.380040  1
  F  F3625  1  0.761280  0.121560  0.849000  1
  F  F3626  1  0.587720  0.727440  0.849000  1
  F  F3627  1  0.772560  0.912280  0.651000  1
  F  F3628  1  0.378440  0.738720  0.651000  1
  F  F3629  1  0.238720  0.878440  0.151000  1
  F  F3630  1  0.412280  0.272560  0.151000  1
  F  F3631  1  0.227440  0.087720  0.349000  1
  F  F3632  1  0.621560  0.261280  0.349000  1
  F  F3633  1  0.787990  0.154690  0.903960  1
  F  F3634  1  0.615970  0.749270  0.903960  1
  F  F3635  1  0.750730  0.884030  0.596040  1
  F  F3636  1  0.345310  0.712010  0.596040  1
  F  F3637  1  0.212010  0.845310  0.096040  1
  F  F3638  1  0.384030  0.250730  0.096040  1
  F  F3639  1  0.249270  0.115970  0.403960  1
  F  F3640  1  0.654690  0.287990  0.403960  1
  F  F3641  1  0.719470  0.130210  0.844180  1
  F  F3642  1  0.624710  0.713970  0.844180  1
  F  F3643  1  0.786030  0.875290  0.655820  1
  F  F3644  1  0.369790  0.780530  0.655820  1
  F  F3645  1  0.280530  0.869790  0.155820  1
  F  F3646  1  0.375290  0.286030  0.155820  1
  F  F3647  1  0.213970  0.124710  0.344180  1
  F  F3648  1  0.630210  0.219470  0.344180  1
  F  F3649  1  0.745660  0.164120  0.898520  1
  F  F3650  1  0.652860  0.734400  0.898520  1
  F  F3651  1  0.765600  0.847140  0.601480  1
  F  F3652  1  0.335880  0.754340  0.601480  1
  F  F3653  1  0.254340  0.835880  0.101480  1
  F  F3654  1  0.347140  0.265600  0.101480  1
  F  F3655  1  0.234400  0.152860  0.398520  1
  F  F3656  1  0.664120  0.245660  0.398520  1
  F  F3657  1  0.762420  0.168040  0.867960  1
  F  F3658  1  0.605540  0.699920  0.867960  1
  F  F3659  1  0.800080  0.894460  0.632040  1
  F  F3660  1  0.331960  0.737580  0.632040  1
  F  F3661  1  0.237580  0.831960  0.132040  1
  F  F3662  1  0.394460  0.300080  0.132040  1
  F  F3663  1  0.199920  0.105540  0.367960  1
  F  F3664  1  0.668040  0.262420  0.367960  1
  F  F3665  1  0.764460  0.306280  0.098820  1
  F  F3666  1  0.834360  0.792540  0.098820  1
  F  F3667  1  0.707460  0.665640  0.401180  1
  F  F3668  1  0.193720  0.735540  0.401180  1
  F  F3669  1  0.235540  0.693720  0.901180  1
  F  F3670  1  0.165640  0.207460  0.901180  1
  F  F3671  1  0.292540  0.334360  0.598820  1
  F  F3672  1  0.806280  0.264460  0.598820  1
  F  F3673  1  0.747830  0.306110  0.130680  1
  F  F3674  1  0.882850  0.824570  0.130680  1
  F  F3675  1  0.675430  0.617150  0.369320  1
  F  F3676  1  0.193890  0.752170  0.369320  1
  F  F3677  1  0.252170  0.693890  0.869320  1
  F  F3678  1  0.117150  0.175430  0.869320  1
  F  F3679  1  0.324570  0.382850  0.630680  1
  F  F3680  1  0.806110  0.247830  0.630680  1
  F  F3681  1  0.788860  0.346900  0.174360  1
  F  F3682  1  0.885500  0.827460  0.174360  1
  F  F3683  1  0.672540  0.614500  0.325640  1
  F  F3684  1  0.153100  0.711140  0.325640  1
  F  F3685  1  0.211140  0.653100  0.825640  1
  F  F3686  1  0.114500  0.172540  0.825640  1
  F  F3687  1  0.327460  0.385500  0.674360  1
  F  F3688  1  0.846900  0.288860  0.674360  1
  F  F3689  1  0.794850  0.305290  0.143400  1
  F  F3690  1  0.848550  0.838110  0.143400  1
  F  F3691  1  0.661890  0.651450  0.356600  1
  F  F3692  1  0.194710  0.705150  0.356600  1
  F  F3693  1  0.205150  0.694710  0.856600  1
  F  F3694  1  0.151450  0.161890  0.856600  1
  F  F3695  1  0.338110  0.348550  0.643400  1
  F  F3696  1  0.805290  0.294850  0.643400  1
  F  F3697  1  0.806470  0.347230  0.143080  1
  F  F3698  1  0.836610  0.795850  0.143080  1
  F  F3699  1  0.704150  0.663390  0.356920  1
  F  F3700  1  0.152770  0.693530  0.356920  1
  F  F3701  1  0.193530  0.652770  0.856920  1
  F  F3702  1  0.163390  0.204150  0.856920  1
  F  F3703  1  0.295850  0.336610  0.643080  1
  F  F3704  1  0.847230  0.306470  0.643080  1
  F  F3705  1  0.759800  0.348640  0.130300  1
  F  F3706  1  0.870500  0.781660  0.130300  1
  F  F3707  1  0.718340  0.629500  0.369700  1
  F  F3708  1  0.151360  0.740200  0.369700  1
  F  F3709  1  0.240200  0.651360  0.869700  1
  F  F3710  1  0.129500  0.218340  0.869700  1
  F  F3711  1  0.281660  0.370500  0.630300  1
  F  F3712  1  0.848640  0.259800  0.630300  1
  F  F3713  1  0.823100  0.365900  0.993200  1
  F  F3714  1  0.670100  0.627300  0.993200  1
  F  F3715  1  0.872700  0.829900  0.506800  1
  F  F3716  1  0.134100  0.676900  0.506800  1
  F  F3717  1  0.176900  0.634100  0.006800  1
  F  F3718  1  0.329900  0.372700  0.006800  1
  F  F3719  1  0.127300  0.170100  0.493200  1
  F  F3720  1  0.865900  0.323100  0.493200  1
  F  F3721  1  0.805700  0.314500  0.962800  1
  F  F3722  1  0.657100  0.648300  0.962800  1
  F  F3723  1  0.851700  0.842900  0.537200  1
  F  F3724  1  0.185500  0.694300  0.537200  1
  F  F3725  1  0.194300  0.685500  0.037200  1
  F  F3726  1  0.342900  0.351700  0.037200  1
  F  F3727  1  0.148300  0.157100  0.462800  1
  F  F3728  1  0.814500  0.305700  0.462800  1
  F  F3729  1  0.783870  0.313430  0.989760  1
  F  F3730  1  0.705890  0.676330  0.989760  1
  F  F3731  1  0.823670  0.794110  0.510240  1
  F  F3732  1  0.186570  0.716130  0.510240  1
  F  F3733  1  0.216130  0.686570  0.010240  1
  F  F3734  1  0.294110  0.323670  0.010240  1
  F  F3735  1  0.176330  0.205890  0.489760  1
  F  F3736  1  0.813430  0.283870  0.489760  1
  F  F3737  1  0.801300  0.364300  0.017600  1
  F  F3738  1  0.716300  0.653300  0.017600  1
  F  F3739  1  0.846700  0.783700  0.482400  1
  F  F3740  1  0.135700  0.698700  0.482400  1
  F  F3741  1  0.198700  0.635700  0.982400  1
  F  F3742  1  0.283700  0.346700  0.982400  1
  F  F3743  1  0.153300  0.216300  0.517600  1
  F  F3744  1  0.864300  0.301300  0.517600  1
  F  F3745  1  0.834800  0.336200  0.014600  1
  F  F3746  1  0.679800  0.678400  0.014600  1
  F  F3747  1  0.821600  0.820200  0.485400  1
  F  F3748  1  0.163800  0.665200  0.485400  1
  F  F3749  1  0.165200  0.663800  0.985400  1
  F  F3750  1  0.320200  0.321600  0.985400  1
  F  F3751  1  0.178400  0.179800  0.514600  1
  F  F3752  1  0.836200  0.334800  0.514600  1
  F  F3753  1  0.775400  0.337800  0.962600  1
  F  F3754  1  0.687200  0.624800  0.962600  1
  F  F3755  1  0.875200  0.812800  0.537400  1
  F  F3756  1  0.162200  0.724600  0.537400  1
  F  F3757  1  0.224600  0.662200  0.037400  1
  F  F3758  1  0.312800  0.375200  0.037400  1
  F  F3759  1  0.124800  0.187200  0.462600  1
  F  F3760  1  0.837800  0.275400  0.462600  1
  F  F3761  1  0.707900  0.472700  0.223400  1.0
  F  F3762  1  0.015500  0.750700  0.223400  1.0
  F  F3763  1  0.749300  0.484500  0.276600  1.0
  F  F3764  1  0.027300  0.792100  0.276600  1.0
  F  F3765  1  0.292100  0.527300  0.776600  1.0
  F  F3766  1  0.984500  0.249300  0.776600  1.0
  F  F3767  1  0.250700  0.515500  0.723400  1.0
  F  F3768  1  0.972700  0.207900  0.723400  1.0
  F  F3769  1  0.751100  0.467300  0.229600  1.0
  F  F3770  1  0.978500  0.762300  0.229600  1.0
  F  F3771  1  0.737700  0.521500  0.270400  1.0
  F  F3772  1  0.032700  0.748900  0.270400  1.0
  F  F3773  1  0.248900  0.532700  0.770400  1.0
  F  F3774  1  0.021500  0.237700  0.770400  1.0
  F  F3775  1  0.262300  0.478500  0.729600  1.0
  F  F3776  1  0.967300  0.251100  0.729600  1.0
  F  F3777  1  0.738800  0.502200  0.224000  1.0
  F  F3778  1  0.985200  0.721800  0.224000  1.0
  F  F3779  1  0.778200  0.514800  0.276000  1.0
  F  F3780  1  0.997800  0.761200  0.276000  1.0
  F  F3781  1  0.261200  0.497800  0.776000  1.0
  F  F3782  1  0.014800  0.278200  0.776000  1.0
  F  F3783  1  0.221800  0.485200  0.724000  1.0
  F  F3784  1  0.002200  0.238800  0.724000  1.0
  F  F3785  1  0.753400  0.065200  0.095400  1.0
  F  F3786  1  0.842000  0.030200  0.095400  1.0
  F  F3787  1  0.469800  0.658000  0.404600  1.0
  F  F3788  1  0.434800  0.746600  0.404600  1.0
  F  F3789  1  0.246600  0.934800  0.904600  1.0
  F  F3790  1  0.158000  0.969800  0.904600  1.0
  F  F3791  1  0.530200  0.342000  0.595400  1.0
  F  F3792  1  0.565200  0.253400  0.595400  1.0
  F  F3793  1  0.732200  0.061200  0.050400  1.0
  F  F3794  1  0.818200  0.989200  0.050400  1.0
  F  F3795  1  0.510800  0.681800  0.449600  1.0
  F  F3796  1  0.438800  0.767800  0.449600  1.0
  F  F3797  1  0.267800  0.938800  0.949600  1.0
  F  F3798  1  0.181800  0.010800  0.949600  1.0
  F  F3799  1  0.489200  0.318200  0.550400  1.0
  F  F3800  1  0.561200  0.232200  0.550400  1.0
  F  F3801  1  0.765600  0.103200  0.099000  1.0
  F  F3802  1  0.833400  0.995800  0.099000  1.0
  F  F3803  1  0.504200  0.666600  0.401000  1.0
  F  F3804  1  0.396800  0.734400  0.401000  1.0
  F  F3805  1  0.234400  0.896800  0.901000  1.0
  F  F3806  1  0.166600  0.004200  0.901000  1.0
  F  F3807  1  0.495800  0.333400  0.599000  1.0
  F  F3808  1  0.603200  0.265600  0.599000  1.0
  H  H3809  1  0.679300  0.077500  0.002600  1
  H  H3810  1  0.823300  0.925100  0.002600  1
  H  H3811  1  0.574900  0.676700  0.497400  1
  H  H3812  1  0.422500  0.820700  0.497400  1
  H  H3813  1  0.320700  0.922500  0.997400  1
  H  H3814  1  0.176700  0.074900  0.997400  1
  H  H3815  1  0.425100  0.323300  0.502600  1
  H  H3816  1  0.577500  0.179300  0.502600  1
  H  H3817  1  0.666500  0.103300  0.002000  1
  H  H3818  1  0.835500  0.898700  0.002000  1
  H  H3819  1  0.601300  0.664500  0.498000  1
  H  H3820  1  0.396700  0.833500  0.498000  1
  H  H3821  1  0.333500  0.896700  0.998000  1
  H  H3822  1  0.164500  0.101300  0.998000  1
  H  H3823  1  0.398700  0.335500  0.502000  1
  H  H3824  1  0.603300  0.166500  0.502000  1
  H  H3825  1  0.683700  0.104100  0.035600  1
  H  H3826  1  0.851900  0.931500  0.035600  1
  H  H3827  1  0.568500  0.648100  0.464400  1
  H  H3828  1  0.395900  0.816300  0.464400  1
  H  H3829  1  0.316300  0.895900  0.964400  1
  H  H3830  1  0.148100  0.068500  0.964400  1
  H  H3831  1  0.431500  0.351900  0.535600  1
  H  H3832  1  0.604100  0.183700  0.535600  1
  H  H3833  1  0.789900  0.412500  0.995800  1
  H  H3834  1  0.705900  0.583300  0.995800  1
  H  H3835  1  0.916700  0.794100  0.504200  1
  H  H3836  1  0.087500  0.710100  0.504200  1
  H  H3837  1  0.210100  0.587500  0.004200  1
  H  H3838  1  0.294100  0.416700  0.004200  1
  H  H3839  1  0.083300  0.205900  0.495800  1
  H  H3840  1  0.912500  0.289900  0.495800  1
  H  H3841  1  0.807900  0.435500  0.035000  1
  H  H3842  1  0.727100  0.599500  0.035000  1
  H  H3843  1  0.900500  0.772900  0.465000  1
  H  H3844  1  0.064500  0.692100  0.465000  1
  H  H3845  1  0.192100  0.564500  0.965000  1
  H  H3846  1  0.272900  0.400500  0.965000  1
  H  H3847  1  0.099500  0.227100  0.535000  1
  H  H3848  1  0.935500  0.307900  0.535000  1
  H  H3849  1  0.784000  0.443000  0.011000  1
  H  H3850  1  0.727000  0.568000  0.011000  1
  H  H3851  1  0.932000  0.773000  0.489000  1
  H  H3852  1  0.057000  0.716000  0.489000  1
  H  H3853  1  0.216000  0.557000  0.989000  1
  H  H3854  1  0.273000  0.432000  0.989000  1
  H  H3855  1  0.068000  0.227000  0.511000  1
  H  H3856  1  0.943000  0.284000  0.511000  1
  H  H3857  1  0.560100  0.128300  0.942600  1
  H  H3858  1  0.882500  0.814300  0.942600  1
  H  H3859  1  0.685700  0.617500  0.557400  1
  H  H3860  1  0.371700  0.939900  0.557400  1
  H  H3861  1  0.439900  0.871700  0.057400  1
  H  H3862  1  0.117500  0.185700  0.057400  1
  H  H3863  1  0.314300  0.382500  0.442600  1
  H  H3864  1  0.628300  0.060100  0.442600  1
  H  H3865  1  0.533700  0.138700  0.945000  1
  H  H3866  1  0.911300  0.806300  0.945000  1
  H  H3867  1  0.693700  0.588700  0.555000  1
  H  H3868  1  0.361300  0.966300  0.555000  1
  H  H3869  1  0.466300  0.861300  0.055000  1
  H  H3870  1  0.088700  0.193700  0.055000  1
  H  H3871  1  0.306300  0.411300  0.445000  1
  H  H3872  1  0.638700  0.033700  0.445000  1
  H  H3873  1  0.563700  0.146300  0.977800  1
  H  H3874  1  0.914100  0.831500  0.977800  1
  H  H3875  1  0.668500  0.585900  0.522200  1
  H  H3876  1  0.353700  0.936300  0.522200  1
  H  H3877  1  0.436300  0.853700  0.022200  1
  H  H3878  1  0.085900  0.168500  0.022200  1
  H  H3879  1  0.331500  0.414100  0.477800  1
  H  H3880  1  0.646300  0.063700  0.477800  1
  H  H3881  1  0.621900  0.030900  0.887000  1
  H  H3882  1  0.765100  0.856100  0.887000  1
  H  H3883  1  0.643900  0.734900  0.613000  1
  H  H3884  1  0.469100  0.878100  0.613000  1
  H  H3885  1  0.378100  0.969100  0.113000  1
  H  H3886  1  0.234900  0.143900  0.113000  1
  H  H3887  1  0.356100  0.265100  0.387000  1
  H  H3888  1  0.530900  0.121900  0.387000  1
  H  H3889  1  0.638400  0.062200  0.922200  1
  H  H3890  1  0.783800  0.860000  0.922200  1
  H  H3891  1  0.640000  0.716200  0.577800  1
  H  H3892  1  0.437800  0.861600  0.577800  1
  H  H3893  1  0.361600  0.937800  0.077800  1
  H  H3894  1  0.216200  0.140000  0.077800  1
  H  H3895  1  0.360000  0.283800  0.422200  1
  H  H3896  1  0.562200  0.138400  0.422200  1
  H  H3897  1  0.652400  0.036600  0.918000  1
  H  H3898  1  0.765600  0.881400  0.918000  1
  H  H3899  1  0.618600  0.734400  0.582000  1
  H  H3900  1  0.463400  0.847600  0.582000  1
  H  H3901  1  0.347600  0.963400  0.082000  1
  H  H3902  1  0.234400  0.118600  0.082000  1
  H  H3903  1  0.381400  0.265600  0.418000  1
  H  H3904  1  0.536600  0.152400  0.418000  1
  H  H3905  1  0.904300  0.346500  0.011200  1
  H  H3906  1  0.606900  0.664700  0.011200  1
  H  H3907  1  0.835300  0.893100  0.488800  1
  H  H3908  1  0.153500  0.595700  0.488800  1
  H  H3909  1  0.095700  0.653500  0.988800  1
  H  H3910  1  0.393100  0.335300  0.988800  1
  H  H3911  1  0.164700  0.106900  0.511200  1
  H  H3912  1  0.846500  0.404300  0.511200  1
  H  H3913  1  0.920900  0.374700  0.048600  1
  H  H3914  1  0.627700  0.673900  0.048600  1
  H  H3915  1  0.826100  0.872300  0.451400  1
  H  H3916  1  0.125300  0.579100  0.451400  1
  H  H3917  1  0.079100  0.625300  0.951400  1
  H  H3918  1  0.372300  0.326100  0.951400  1
  H  H3919  1  0.173900  0.127700  0.548600  1
  H  H3920  1  0.874700  0.420900  0.548600  1
  H  H3921  1  0.885300  0.363900  0.023400  1
  H  H3922  1  0.638100  0.659500  0.023400  1
  H  H3923  1  0.840500  0.861900  0.476600  1
  H  H3924  1  0.136100  0.614700  0.476600  1
  H  H3925  1  0.114700  0.636100  0.976600  1
  H  H3926  1  0.361900  0.340500  0.976600  1
  H  H3927  1  0.159500  0.138100  0.523400  1
  H  H3928  1  0.863900  0.385300  0.523400  1
  H  H3929  1  0.869900  0.026500  0.058000  1
  H  H3930  1  0.688100  0.031500  0.058000  1
  H  H3931  1  0.468500  0.811900  0.442000  1
  H  H3932  1  0.473500  0.630100  0.442000  1
  H  H3933  1  0.130100  0.973500  0.942000  1
  H  H3934  1  0.311900  0.968500  0.942000  1
  H  H3935  1  0.531500  0.188100  0.558000  1
  H  H3936  1  0.526500  0.369900  0.558000  1
  H  H3937  1  0.892800  0.059800  0.074800  1
  H  H3938  1  0.682000  0.015000  0.074800  1
  H  H3939  1  0.485000  0.818000  0.425200  1
  H  H3940  1  0.440200  0.607200  0.425200  1
  H  H3941  1  0.107200  0.940200  0.925200  1
  H  H3942  1  0.318000  0.985000  0.925200  1
  H  H3943  1  0.515000  0.182000  0.574800  1
  H  H3944  1  0.559800  0.392800  0.574800  1
  H  H3945  1  0.892000  0.031200  0.046200  1
  H  H3946  1  0.654200  0.015000  0.046200  1
  H  H3947  1  0.485000  0.845800  0.453800  1
  H  H3948  1  0.468800  0.608000  0.453800  1
  H  H3949  1  0.108000  0.968800  0.953800  1
  H  H3950  1  0.345800  0.985000  0.953800  1
  H  H3951  1  0.515000  0.154200  0.546200  1
  H  H3952  1  0.531200  0.392000  0.546200  1
  H  H3953  1  0.870100  0.028100  0.996800  1
  H  H3954  1  0.626700  0.968700  0.996800  1
  H  H3955  1  0.531300  0.873300  0.503200  1
  H  H3956  1  0.471900  0.629900  0.503200  1
  H  H3957  1  0.129900  0.971900  0.003200  1
  H  H3958  1  0.373300  0.031300  0.003200  1
  H  H3959  1  0.468700  0.126700  0.496800  1
  H  H3960  1  0.528100  0.370100  0.496800  1
  H  H3961  1  0.832700  0.030900  0.954800  1
  H  H3962  1  0.622100  0.923900  0.954800  1
  H  H3963  1  0.576100  0.877900  0.545200  1
  H  H3964  1  0.469100  0.667300  0.545200  1
  H  H3965  1  0.167300  0.969100  0.045200  1
  H  H3966  1  0.377900  0.076100  0.045200  1
  H  H3967  1  0.423900  0.122100  0.454800  1
  H  H3968  1  0.530900  0.332700  0.454800  1
  H  H3969  1  0.796000  0.062000  0.009000  1
  H  H3970  1  0.713000  0.947000  0.009000  1
  H  H3971  1  0.553000  0.787000  0.491000  1
  H  H3972  1  0.438000  0.704000  0.491000  1
  H  H3973  1  0.204000  0.938000  0.991000  1
  H  H3974  1  0.287000  0.053000  0.991000  1
  H  H3975  1  0.447000  0.213000  0.509000  1
  H  H3976  1  0.562000  0.296000  0.509000  1
  H  H3977  1  0.833500  0.059300  0.051000  1
  H  H3978  1  0.717500  0.991700  0.051000  1
  H  H3979  1  0.508300  0.782500  0.449000  1
  H  H3980  1  0.440700  0.666500  0.449000  1
  H  H3981  1  0.166500  0.940700  0.949000  1
  H  H3982  1  0.282500  0.008300  0.949000  1
  H  H3983  1  0.491700  0.217500  0.551000  1
  H  H3984  1  0.559300  0.333500  0.551000  1
  H  H3985  1  0.782100  0.011100  0.916000  1
  H  H3986  1  0.633900  0.904900  0.916000  1
  H  H3987  1  0.595100  0.866100  0.584000  1
  H  H3988  1  0.488900  0.717900  0.584000  1
  H  H3989  1  0.217900  0.988900  0.084000  1
  H  H3990  1  0.366100  0.095100  0.084000  1
  H  H3991  1  0.404900  0.133900  0.416000  1
  H  H3992  1  0.511100  0.282100  0.416000  1
  H  H3993  1  0.728300  0.081500  0.889600  1
  H  H3994  1  0.661300  0.808100  0.889600  1
  H  H3995  1  0.691900  0.838700  0.610400  1
  H  H3996  1  0.418500  0.771700  0.610400  1
  H  H3997  1  0.271700  0.918500  0.110400  1
  H  H3998  1  0.338700  0.191900  0.110400  1
  H  H3999  1  0.308100  0.161300  0.389600  1
  H  H4000  1  0.581500  0.228300  0.389600  1
  H  H4001  1  0.724900  0.004900  0.817600  1
  H  H4002  1  0.592700  0.812700  0.817600  1
  H  H4003  1  0.687300  0.907300  0.682400  1
  H  H4004  1  0.495100  0.775100  0.682400  1
  H  H4005  1  0.275100  0.995100  0.182400  1
  H  H4006  1  0.407300  0.187300  0.182400  1
  H  H4007  1  0.312700  0.092700  0.317600  1
  H  H4008  1  0.504900  0.224900  0.317600  1
  H  H4009  1  0.754100  0.994500  0.857800  1
  H  H4010  1  0.603700  0.863300  0.857800  1
  H  H4011  1  0.636700  0.896300  0.642200  1
  H  H4012  1  0.505500  0.745900  0.642200  1
  H  H4013  1  0.245900  0.005500  0.142200  1
  H  H4014  1  0.396300  0.136700  0.142200  1
  H  H4015  1  0.363300  0.103700  0.357800  1
  H  H4016  1  0.494500  0.254100  0.357800  1
  H  H4017  1  0.676800  0.063000  0.841200  1
  H  H4018  1  0.664400  0.778200  0.841200  1
  H  H4019  1  0.721800  0.835600  0.658800  1
  H  H4020  1  0.437000  0.823200  0.658800  1
  H  H4021  1  0.323200  0.937000  0.158800  1
  H  H4022  1  0.335600  0.221800  0.158800  1
  H  H4023  1  0.278200  0.164400  0.341200  1
  H  H4024  1  0.563000  0.176800  0.341200  1
  H  H4025  1  0.699400  0.052600  0.762800  1
  H  H4026  1  0.563400  0.710200  0.762800  1
  H  H4027  1  0.789800  0.936600  0.737200  1
  H  H4028  1  0.447400  0.800600  0.737200  1
  H  H4029  1  0.300600  0.947400  0.237200  1
  H  H4030  1  0.436600  0.289800  0.237200  1
  H  H4031  1  0.210200  0.063400  0.262800  1
  H  H4032  1  0.552600  0.199400  0.262800  1
  H  H4033  1  0.725500  0.038900  0.800000  1
  H  H4034  1  0.574500  0.761100  0.800000  1
  H  H4035  1  0.738900  0.925500  0.700000  1
  H  H4036  1  0.461100  0.774500  0.700000  1
  H  H4037  1  0.274500  0.961100  0.200000  1
  H  H4038  1  0.425500  0.238900  0.200000  1
  H  H4039  1  0.261100  0.074500  0.300000  1
  H  H4040  1  0.538900  0.225500  0.300000  1
  H  H4041  1  0.661800  0.075400  0.742800  1
  H  H4042  1  0.581000  0.667400  0.742800  1
  H  H4043  1  0.832600  0.919000  0.757200  1
  H  H4044  1  0.424600  0.838200  0.757200  1
  H  H4045  1  0.338200  0.924600  0.257200  1
  H  H4046  1  0.419000  0.332600  0.257200  1
  H  H4047  1  0.167400  0.081000  0.242800  1
  H  H4048  1  0.575400  0.161800  0.242800  1
  H  H4049  1  0.614800  0.127600  0.773400  1
  H  H4050  1  0.658600  0.645800  0.773400  1
  H  H4051  1  0.854200  0.841400  0.726600  1
  H  H4052  1  0.372400  0.885200  0.726600  1
  H  H4053  1  0.385200  0.872400  0.226600  1
  H  H4054  1  0.341400  0.354200  0.226600  1
  H  H4055  1  0.145800  0.158600  0.273400  1
  H  H4056  1  0.627600  0.114800  0.273400  1
  H  H4057  1  0.584300  0.140100  0.735400  1
  H  H4058  1  0.651100  0.595300  0.735400  1
  H  H4059  1  0.904700  0.848900  0.764600  1
  H  H4060  1  0.359900  0.915700  0.764600  1
  H  H4061  1  0.415700  0.859900  0.264600  1
  H  H4062  1  0.348900  0.404700  0.264600  1
  H  H4063  1  0.095300  0.151100  0.235400  1
  H  H4064  1  0.640100  0.084300  0.235400  1
  H  H4065  1  0.591700  0.077900  0.664200  1
  H  H4066  1  0.572500  0.586300  0.664200  1
  H  H4067  1  0.913700  0.927500  0.835800  1
  H  H4068  1  0.422100  0.908300  0.835800  1
  H  H4069  1  0.408300  0.922100  0.335800  1
  H  H4070  1  0.427500  0.413700  0.335800  1
  H  H4071  1  0.086300  0.072500  0.164200  1
  H  H4072  1  0.577900  0.091700  0.164200  1
  H  H4073  1  0.616900  0.060900  0.697600  1
  H  H4074  1  0.580700  0.636700  0.697600  1
  H  H4075  1  0.863300  0.919300  0.802400  1
  H  H4076  1  0.439100  0.883100  0.802400  1
  H  H4077  1  0.383100  0.939100  0.302400  1
  H  H4078  1  0.419300  0.363300  0.302400  1
  H  H4079  1  0.136700  0.080700  0.197600  1
  H  H4080  1  0.560900  0.116900  0.197600  1
  H  H4081  1  0.548200  0.125400  0.679000  1
  H  H4082  1  0.630800  0.553600  0.679000  1
  H  H4083  1  0.946400  0.869200  0.821000  1
  H  H4084  1  0.374600  0.951800  0.821000  1
  H  H4085  1  0.451800  0.874600  0.321000  1
  H  H4086  1  0.369200  0.446400  0.321000  1
  H  H4087  1  0.053600  0.130800  0.179000  1
  H  H4088  1  0.625400  0.048200  0.179000  1
  H  H4089  1  0.553400  0.104800  0.650600  1
  H  H4090  1  0.597200  0.545800  0.650600  1
  H  H4091  1  0.954200  0.902800  0.849400  1
  H  H4092  1  0.395200  0.946600  0.849400  1
  H  H4093  1  0.446600  0.895200  0.349400  1
  H  H4094  1  0.402800  0.454200  0.349400  1
  H  H4095  1  0.045800  0.097200  0.150600  1
  H  H4096  1  0.604800  0.053400  0.150600  1
  H  H4097  1  0.576100  0.139300  0.678400  1
  H  H4098  1  0.602300  0.539100  0.678400  1
  H  H4099  1  0.960900  0.897700  0.821600  1
  H  H4100  1  0.360700  0.923900  0.821600  1
  H  H4101  1  0.423900  0.860700  0.321600  1
  H  H4102  1  0.397700  0.460900  0.321600  1
  H  H4103  1  0.039100  0.102300  0.178400  1
  H  H4104  1  0.639300  0.076100  0.178400  1
  H  H4105  1  0.821600  0.070000  0.836400  1
  H  H4106  1  0.514800  0.766400  0.836400  1
  H  H4107  1  0.733600  0.985200  0.663600  1
  H  H4108  1  0.430000  0.678400  0.663600  1
  H  H4109  1  0.178400  0.930000  0.163600  1
  H  H4110  1  0.485200  0.233600  0.163600  1
  H  H4111  1  0.266400  0.014800  0.336400  1
  H  H4112  1  0.570000  0.321600  0.336400  1
  H  H4113  1  0.811900  0.036300  0.828400  1
  H  H4114  1  0.516500  0.792100  0.828400  1
  H  H4115  1  0.707900  0.983500  0.671600  1
  H  H4116  1  0.463700  0.688100  0.671600  1
  H  H4117  1  0.188100  0.963700  0.171600  1
  H  H4118  1  0.483500  0.207900  0.171600  1
  H  H4119  1  0.292100  0.016500  0.328400  1
  H  H4120  1  0.536300  0.311900  0.328400  1
  H  H4121  1  0.847000  0.057800  0.851200  1
  H  H4122  1  0.504200  0.793400  0.851200  1
  H  H4123  1  0.706600  0.995800  0.648800  1
  H  H4124  1  0.442200  0.653000  0.648800  1
  H  H4125  1  0.153000  0.942200  0.148800  1
  H  H4126  1  0.495800  0.206600  0.148800  1
  H  H4127  1  0.293400  0.004200  0.351200  1
  H  H4128  1  0.557800  0.347000  0.351200  1
  H  H4129  1  0.793400  0.085200  0.862200  1
  H  H4130  1  0.568800  0.777000  0.862200  1
  H  H4131  1  0.723000  0.931200  0.637800  1
  H  H4132  1  0.414800  0.706600  0.637800  1
  H  H4133  1  0.206600  0.914800  0.137800  1
  H  H4134  1  0.431200  0.223000  0.137800  1
  H  H4135  1  0.277000  0.068800  0.362200  1
  H  H4136  1  0.585200  0.293400  0.362200  1
  H  H4137  1  0.791300  0.106300  0.908800  1
  H  H4138  1  0.617500  0.802500  0.908800  1
  H  H4139  1  0.697500  0.882500  0.591200  1
  H  H4140  1  0.393700  0.708700  0.591200  1
  H  H4141  1  0.208700  0.893700  0.091200  1
  H  H4142  1  0.382500  0.197500  0.091200  1
  H  H4143  1  0.302500  0.117500  0.408800  1
  H  H4144  1  0.606300  0.291300  0.408800  1
  H  H4145  1  0.858800  0.077400  0.949400  1
  H  H4146  1  0.590600  0.872000  0.949400  1
  H  H4147  1  0.628000  0.909400  0.550600  1
  H  H4148  1  0.422600  0.641200  0.550600  1
  H  H4149  1  0.141200  0.922600  0.050600  1
  H  H4150  1  0.409400  0.128000  0.050600  1
  H  H4151  1  0.372000  0.090600  0.449400  1
  H  H4152  1  0.577400  0.358800  0.449400  1
  H  H4153  1  0.859400  0.058400  0.901000  1
  H  H4154  1  0.541600  0.842600  0.901000  1
  H  H4155  1  0.657400  0.958400  0.599000  1
  H  H4156  1  0.441600  0.640600  0.599000  1
  H  H4157  1  0.140600  0.941600  0.099000  1
  H  H4158  1  0.458400  0.157400  0.099000  1
  H  H4159  1  0.342600  0.041600  0.401000  1
  H  H4160  1  0.558400  0.359400  0.401000  1
  H  H4161  1  0.862600  0.120000  0.993400  1
  H  H4162  1  0.630800  0.873400  0.993400  1
  H  H4163  1  0.626600  0.869200  0.506600  1
  H  H4164  1  0.380000  0.637400  0.506600  1
  H  H4165  1  0.137400  0.880000  0.006600  1
  H  H4166  1  0.369200  0.126600  0.006600  1
  H  H4167  1  0.373400  0.130800  0.493400  1
  H  H4168  1  0.620000  0.362600  0.493400  1
  H  H4169  1  0.787200  0.124000  0.029600  1
  H  H4170  1  0.742400  0.905600  0.029600  1
  H  H4171  1  0.594400  0.757600  0.470400  1
  H  H4172  1  0.376000  0.712800  0.470400  1
  H  H4173  1  0.212800  0.876000  0.970400  1
  H  H4174  1  0.257600  0.094400  0.970400  1
  H  H4175  1  0.405600  0.242400  0.529600  1
  H  H4176  1  0.624000  0.287200  0.529600  1
  H  H4177  1  0.876000  0.158000  0.096800  1
  H  H4178  1  0.720800  0.938800  0.096800  1
  H  H4179  1  0.561200  0.779200  0.403200  1
  H  H4180  1  0.342000  0.624000  0.403200  1
  H  H4181  1  0.124000  0.842000  0.903200  1
  H  H4182  1  0.279200  0.061200  0.903200  1
  H  H4183  1  0.438800  0.220800  0.596800  1
  H  H4184  1  0.658000  0.376000  0.596800  1
  H  H4185  1  0.885900  0.141900  0.056400  1
  H  H4186  1  0.670500  0.914500  0.056400  1
  H  H4187  1  0.585500  0.829500  0.443600  1
  H  H4188  1  0.358100  0.614100  0.443600  1
  H  H4189  1  0.114100  0.858100  0.943600  1
  H  H4190  1  0.329500  0.085500  0.943600  1
  H  H4191  1  0.414500  0.170500  0.556400  1
  H  H4192  1  0.641900  0.385900  0.556400  1
  H  H4193  1  0.797400  0.173400  0.079400  1
  H  H4194  1  0.782000  0.906000  0.079400  1
  H  H4195  1  0.594000  0.718000  0.420600  1
  H  H4196  1  0.326600  0.702600  0.420600  1
  H  H4197  1  0.202600  0.826600  0.920600  1
  H  H4198  1  0.218000  0.094000  0.920600  1
  H  H4199  1  0.406000  0.282000  0.579400  1
  H  H4200  1  0.673400  0.297400  0.579400  1
  H  H4201  1  0.841000  0.154600  0.162800  1
  H  H4202  1  0.821800  0.008200  0.162800  1
  H  H4203  1  0.491800  0.678200  0.337200  1
  H  H4204  1  0.345400  0.659000  0.337200  1
  H  H4205  1  0.159000  0.845400  0.837200  1
  H  H4206  1  0.178200  0.991800  0.837200  1
  H  H4207  1  0.508200  0.321800  0.662800  1
  H  H4208  1  0.654600  0.341000  0.662800  1
  H  H4209  1  0.854100  0.141500  0.124400  1
  H  H4210  1  0.770300  0.982900  0.124400  1
  H  H4211  1  0.517100  0.729700  0.375600  1
  H  H4212  1  0.358500  0.645900  0.375600  1
  H  H4213  1  0.145900  0.858500  0.875600  1
  H  H4214  1  0.229700  0.017100  0.875600  1
  H  H4215  1  0.482900  0.270300  0.624400  1
  H  H4216  1  0.641500  0.354100  0.624400  1
  H  H4217  1  0.822600  0.192200  0.192600  1
  H  H4218  1  0.870000  0.000400  0.192600  1
  H  H4219  1  0.499600  0.630000  0.307400  1
  H  H4220  1  0.307800  0.677400  0.307400  1
  H  H4221  1  0.177400  0.807800  0.807400  1
  H  H4222  1  0.130000  0.999600  0.807400  1
  H  H4223  1  0.500400  0.370000  0.692600  1
  H  H4224  1  0.692200  0.322600  0.692600  1
  H  H4225  1  0.744700  0.209300  0.167400  1
  H  H4226  1  0.922700  0.958100  0.167400  1
  H  H4227  1  0.541900  0.577300  0.332600  1
  H  H4228  1  0.290700  0.755300  0.332600  1
  H  H4229  1  0.255300  0.790700  0.832600  1
  H  H4230  1  0.077300  0.041900  0.832600  1
  H  H4231  1  0.458100  0.422700  0.667400  1
  H  H4232  1  0.709300  0.244700  0.667400  1
  H  H4233  1  0.737100  0.236700  0.208600  1
  H  H4234  1  0.971500  0.971900  0.208600  1
  H  H4235  1  0.528100  0.528500  0.291400  1
  H  H4236  1  0.263300  0.762900  0.291400  1
  H  H4237  1  0.262900  0.763300  0.791400  1
  H  H4238  1  0.028500  0.028100  0.791400  1
  H  H4239  1  0.471900  0.471500  0.708600  1
  H  H4240  1  0.736700  0.237100  0.708600  1
  H  H4241  1  0.824300  0.271300  0.278200  1
  H  H4242  1  0.953900  0.006900  0.278200  1
  H  H4243  1  0.493100  0.546100  0.221800  1
  H  H4244  1  0.228700  0.675700  0.221800  1
  H  H4245  1  0.175700  0.728700  0.721800  1
  H  H4246  1  0.046100  0.993100  0.721800  1
  H  H4247  1  0.506900  0.453900  0.778200  1
  H  H4248  1  0.771300  0.324300  0.778200  1
  H  H4249  1  0.834100  0.243700  0.236400  1
  H  H4250  1  0.902300  0.992700  0.236400  1
  H  H4251  1  0.507300  0.597700  0.263600  1
  H  H4252  1  0.256300  0.665900  0.263600  1
  H  H4253  1  0.165900  0.756300  0.763600  1
  H  H4254  1  0.097700  0.007300  0.763600  1
  H  H4255  1  0.492700  0.402300  0.736400  1
  H  H4256  1  0.743700  0.334100  0.736400  1
  H  H4257  1  0.751200  0.267600  0.263200  1
  H  H4258  1  0.012000  0.995600  0.263200  1
  H  H4259  1  0.504400  0.488000  0.236800  1
  H  H4260  1  0.232400  0.748800  0.236800  1
  H  H4261  1  0.248800  0.732400  0.736800  1
  H  H4262  1  0.988000  0.004400  0.736800  1
  H  H4263  1  0.495600  0.512000  0.763200  1
  H  H4264  1  0.767600  0.251200  0.763200  1
  H  H4265  1  0.772100  0.297500  0.270400  1
  H  H4266  1  0.998300  0.972900  0.270400  1
  H  H4267  1  0.527100  0.501700  0.229600  1
  H  H4268  1  0.202500  0.727900  0.229600  1
  H  H4269  1  0.227900  0.702500  0.729600  1
  H  H4270  1  0.001700  0.027100  0.729600  1
  H  H4271  1  0.472900  0.498300  0.770400  1
  H  H4272  1  0.797500  0.272100  0.770400  1
  H  H4273  1  0.786300  0.283700  0.292200  1
  H  H4274  1  0.005900  0.008500  0.292200  1
  H  H4275  1  0.491500  0.494100  0.207800  1
  H  H4276  1  0.216300  0.713700  0.207800  1
  H  H4277  1  0.213700  0.716300  0.707800  1
  H  H4278  1  0.994100  0.991500  0.707800  1
  H  H4279  1  0.508500  0.505900  0.792200  1
  H  H4280  1  0.783700  0.286300  0.792200  1
  H  H4281  1  0.671400  0.978600  0.958000  1
  H  H4282  1  0.786600  0.979400  0.958000  1
  H  H4283  1  0.520600  0.713400  0.542000  1
  H  H4284  1  0.521400  0.828600  0.542000  1
  H  H4285  1  0.328600  0.021400  0.042000  1
  H  H4286  1  0.213400  0.020600  0.042000  1
  H  H4287  1  0.479400  0.286600  0.458000  1
  H  H4288  1  0.478600  0.171400  0.458000  1
  H  H4289  1  0.690000  0.959800  0.946400  1
  H  H4290  1  0.756400  0.986600  0.946400  1
  H  H4291  1  0.513400  0.743600  0.553600  1
  H  H4292  1  0.540200  0.810000  0.553600  1
  H  H4293  1  0.310000  0.040200  0.053600  1
  H  H4294  1  0.243600  0.013400  0.053600  1
  H  H4295  1  0.486600  0.256400  0.446400  1
  H  H4296  1  0.459800  0.190000  0.446400  1
  H  H4297  1  0.661100  0.961100  0.920000  1
  H  H4298  1  0.758900  0.958900  0.920000  1
  H  H4299  1  0.541100  0.741100  0.580000  1
  H  H4300  1  0.538900  0.838900  0.580000  1
  H  H4301  1  0.338900  0.038900  0.080000  1
  H  H4302  1  0.241100  0.041100  0.080000  1
  H  H4303  1  0.458900  0.258900  0.420000  1
  H  H4304  1  0.461100  0.161100  0.420000  1
  H  H4305  1  0.688400  0.981600  0.902800  1
  H  H4306  1  0.714400  0.921200  0.902800  1
  H  H4307  1  0.578800  0.785600  0.597200  1
  H  H4308  1  0.518400  0.811600  0.597200  1
  H  H4309  1  0.311600  0.018400  0.097200  1
  H  H4310  1  0.285600  0.078800  0.097200  1
  H  H4311  1  0.421200  0.214400  0.402800  1
  H  H4312  1  0.481600  0.188400  0.402800  1
  H  H4313  1  0.711700  0.025900  0.909000  1
  H  H4314  1  0.697300  0.883100  0.909000  1
  H  H4315  1  0.616900  0.802700  0.591000  1
  H  H4316  1  0.474100  0.788300  0.591000  1
  H  H4317  1  0.288300  0.974100  0.091000  1
  H  H4318  1  0.302700  0.116900  0.091000  1
  H  H4319  1  0.383100  0.197300  0.409000  1
  H  H4320  1  0.525900  0.211700  0.409000  1
  H  H4321  1  0.737900  0.073700  0.005200  1
  H  H4322  1  0.767300  0.931500  0.005200  1
  H  H4323  1  0.568500  0.732700  0.494800  1
  H  H4324  1  0.426300  0.762100  0.494800  1
  H  H4325  1  0.262100  0.926300  0.994800  1
  H  H4326  1  0.232700  0.068500  0.994800  1
  H  H4327  1  0.431500  0.267300  0.505200  1
  H  H4328  1  0.573700  0.237900  0.505200  1
  H  H4329  1  0.714700  0.029300  0.999000  1
  H  H4330  1  0.784300  0.969700  0.999000  1
  H  H4331  1  0.530300  0.715700  0.501000  1
  H  H4332  1  0.470700  0.785300  0.501000  1
  H  H4333  1  0.285300  0.970700  0.001000  1
  H  H4334  1  0.215700  0.030300  0.001000  1
  H  H4335  1  0.469700  0.284300  0.499000  1
  H  H4336  1  0.529300  0.214700  0.499000  1
  H  H4337  1  0.710500  0.100100  0.963000  1
  H  H4338  1  0.752500  0.862900  0.963000  1
  H  H4339  1  0.637100  0.747500  0.537000  1
  H  H4340  1  0.399900  0.789500  0.537000  1
  H  H4341  1  0.289500  0.899900  0.037000  1
  H  H4342  1  0.247500  0.137100  0.037000  1
  H  H4343  1  0.362900  0.252500  0.463000  1
  H  H4344  1  0.600100  0.210500  0.463000  1
  H  H4345  1  0.796400  0.149000  0.956400  1
  H  H4346  1  0.660000  0.807400  0.956400  1
  H  H4347  1  0.692600  0.840000  0.543600  1
  H  H4348  1  0.351000  0.703600  0.543600  1
  H  H4349  1  0.203600  0.851000  0.043600  1
  H  H4350  1  0.340000  0.192600  0.043600  1
  H  H4351  1  0.307400  0.160000  0.456400  1
  H  H4352  1  0.649000  0.296400  0.456400  1
  H  H4353  1  0.748800  0.194800  0.979600  1
  H  H4354  1  0.730800  0.784800  0.979600  1
  H  H4355  1  0.715200  0.769200  0.520400  1
  H  H4356  1  0.305200  0.751200  0.520400  1
  H  H4357  1  0.251200  0.805200  0.020400  1
  H  H4358  1  0.269200  0.215200  0.020400  1
  H  H4359  1  0.284800  0.230800  0.479600  1
  H  H4360  1  0.694800  0.248800  0.479600  1
  H  H4361  1  0.721700  0.155300  0.974800  1
  H  H4362  1  0.753100  0.819500  0.974800  1
  H  H4363  1  0.680500  0.746900  0.525200  1
  H  H4364  1  0.344700  0.778300  0.525200  1
  H  H4365  1  0.278300  0.844700  0.025200  1
  H  H4366  1  0.246900  0.180500  0.025200  1
  H  H4367  1  0.319500  0.253100  0.474800  1
  H  H4368  1  0.655300  0.221700  0.474800  1
  H  H4369  1  0.828500  0.187300  0.974400  1
  H  H4370  1  0.645900  0.787100  0.974400  1
  H  H4371  1  0.712900  0.854100  0.525600  1
  H  H4372  1  0.312700  0.671500  0.525600  1
  H  H4373  1  0.171500  0.812700  0.025600  1
  H  H4374  1  0.354100  0.212900  0.025600  1
  H  H4375  1  0.287100  0.145900  0.474400  1
  H  H4376  1  0.687300  0.328500  0.474400  1
  H  H4377  1  0.794400  0.262000  0.970200  1
  H  H4378  1  0.675800  0.708200  0.970200  1
  H  H4379  1  0.791800  0.824200  0.529800  1
  H  H4380  1  0.238000  0.705600  0.529800  1
  H  H4381  1  0.205600  0.738000  0.029800  1
  H  H4382  1  0.324200  0.291800  0.029800  1
  H  H4383  1  0.208200  0.175800  0.470200  1
  H  H4384  1  0.762000  0.294400  0.470200  1
  H  H4385  1  0.767800  0.224600  0.971600  1
  H  H4386  1  0.703800  0.747000  0.971600  1
  H  H4387  1  0.753000  0.796200  0.528400  1
  H  H4388  1  0.275400  0.732200  0.528400  1
  H  H4389  1  0.232200  0.775400  0.028400  1
  H  H4390  1  0.296200  0.253000  0.028400  1
  H  H4391  1  0.247000  0.203800  0.471600  1
  H  H4392  1  0.724600  0.267800  0.471600  1
  H  H4393  1  0.842600  0.285000  0.972200  1
  H  H4394  1  0.629600  0.687200  0.972200  1
  H  H4395  1  0.812800  0.870400  0.527800  1
  H  H4396  1  0.215000  0.657400  0.527800  1
  H  H4397  1  0.157400  0.715000  0.027800  1
  H  H4398  1  0.370400  0.312800  0.027800  1
  H  H4399  1  0.187200  0.129600  0.472200  1
  H  H4400  1  0.785000  0.342600  0.472200  1
  H  H4401  1  0.842200  0.283600  0.927000  1
  H  H4402  1  0.584800  0.643400  0.927000  1
  H  H4403  1  0.856600  0.915200  0.573000  1
  H  H4404  1  0.216400  0.657800  0.573000  1
  H  H4405  1  0.157800  0.716400  0.073000  1
  H  H4406  1  0.415200  0.356600  0.073000  1
  H  H4407  1  0.143400  0.084800  0.427000  1
  H  H4408  1  0.783600  0.342200  0.427000  1
  H  H4409  1  0.867700  0.315900  0.919400  1
  H  H4410  1  0.551700  0.603500  0.919400  1
  H  H4411  1  0.896500  0.948300  0.580600  1
  H  H4412  1  0.184100  0.632300  0.580600  1
  H  H4413  1  0.132300  0.684100  0.080600  1
  H  H4414  1  0.448300  0.396500  0.080600  1
  H  H4415  1  0.103500  0.051700  0.419400  1
  H  H4416  1  0.815900  0.367700  0.419400  1
  H  H4417  1  0.948100  0.320300  0.984200  1
  H  H4418  1  0.536100  0.663900  0.984200  1
  H  H4419  1  0.836100  0.963900  0.515800  1
  H  H4420  1  0.179700  0.551900  0.515800  1
  H  H4421  1  0.051900  0.679700  0.015800  1
  H  H4422  1  0.463900  0.336100  0.015800  1
  H  H4423  1  0.163900  0.036100  0.484200  1
  H  H4424  1  0.820300  0.448100  0.484200  1
  H  H4425  1  0.922600  0.288000  0.991800  1
  H  H4426  1  0.569200  0.703800  0.991800  1
  H  H4427  1  0.796200  0.930800  0.508200  1
  H  H4428  1  0.212000  0.577400  0.508200  1
  H  H4429  1  0.077400  0.712000  0.008200  1
  H  H4430  1  0.430800  0.296200  0.008200  1
  H  H4431  1  0.203800  0.069200  0.491800  1
  H  H4432  1  0.788000  0.422600  0.491800  1
  H  H4433  1  0.940300  0.362900  0.969000  1
  H  H4434  1  0.528700  0.606100  0.969000  1
  H  H4435  1  0.893900  0.971300  0.531000  1
  H  H4436  1  0.137100  0.559700  0.531000  1
  H  H4437  1  0.059700  0.637100  0.031000  1
  H  H4438  1  0.471300  0.393900  0.031000  1
  H  H4439  1  0.106100  0.028700  0.469000  1
  H  H4440  1  0.862900  0.440300  0.469000  1
  H  H4441  1  0.912000  0.347600  0.931800  1
  H  H4442  1  0.519800  0.584200  0.931800  1
  H  H4443  1  0.915800  0.980200  0.568200  1
  H  H4444  1  0.152400  0.588000  0.568200  1
  H  H4445  1  0.088000  0.652400  0.068200  1
  H  H4446  1  0.480200  0.415800  0.068200  1
  H  H4447  1  0.084200  0.019800  0.431800  1
  H  H4448  1  0.847600  0.412000  0.431800  1
  H  H4449  1  0.939000  0.335200  0.938800  1
  H  H4450  1  0.499800  0.603600  0.938800  1
  H  H4451  1  0.896400  0.000200  0.561200  1
  H  H4452  1  0.164800  0.561000  0.561200  1
  H  H4453  1  0.061000  0.664800  0.061200  1
  H  H4454  1  0.500200  0.396400  0.061200  1
  H  H4455  1  0.103600  0.999800  0.438800  1
  H  H4456  1  0.835200  0.439000  0.438800  1
  H  H4457  1  0.652400  0.949400  0.683600  1
  H  H4458  1  0.531200  0.734200  0.683600  1
  H  H4459  1  0.765800  0.968800  0.816400  1
  H  H4460  1  0.550600  0.847600  0.816400  1
  H  H4461  1  0.347600  0.050600  0.316400  1
  H  H4462  1  0.468800  0.265800  0.316400  1
  H  H4463  1  0.234200  0.031200  0.183600  1
  H  H4464  1  0.449400  0.152400  0.183600  1
  H  H4465  1  0.630300  0.924300  0.681600  1
  H  H4466  1  0.551300  0.757300  0.681600  1
  H  H4467  1  0.742700  0.948700  0.818400  1
  H  H4468  1  0.575700  0.869700  0.818400  1
  H  H4469  1  0.369700  0.075700  0.318400  1
  H  H4470  1  0.448700  0.242700  0.318400  1
  H  H4471  1  0.257300  0.051300  0.181600  1
  H  H4472  1  0.424300  0.130300  0.181600  1
  H  H4473  1  0.663000  0.946400  0.714800  1
  H  H4474  1  0.551800  0.768400  0.714800  1
  H  H4475  1  0.731600  0.948200  0.785200  1
  H  H4476  1  0.553600  0.837000  0.785200  1
  H  H4477  1  0.337000  0.053600  0.285200  1
  H  H4478  1  0.448200  0.231600  0.285200  1
  H  H4479  1  0.268400  0.051800  0.214800  1
  H  H4480  1  0.446400  0.163000  0.214800  1
  H  H4481  1  0.646400  0.969800  0.752200  1
  H  H4482  1  0.605800  0.782400  0.752200  1
  H  H4483  1  0.717600  0.894200  0.747800  1
  H  H4484  1  0.530200  0.853600  0.747800  1
  H  H4485  1  0.353600  0.030200  0.247800  1
  H  H4486  1  0.394200  0.217600  0.247800  1
  H  H4487  1  0.282400  0.105800  0.252200  1
  H  H4488  1  0.469800  0.146400  0.252200  1
  H  H4489  1  0.624600  0.003400  0.771400  1
  H  H4490  1  0.646800  0.768000  0.771400  1
  H  H4491  1  0.732000  0.853200  0.728600  1
  H  H4492  1  0.496600  0.875400  0.728600  1
  H  H4493  1  0.375400  0.996600  0.228600  1
  H  H4494  1  0.353200  0.232000  0.228600  1
  H  H4495  1  0.268000  0.146800  0.271400  1
  H  H4496  1  0.503400  0.124600  0.271400  1
  H  H4497  1  0.591600  0.005800  0.689000  1
  H  H4498  1  0.597400  0.683200  0.689000  1
  H  H4499  1  0.816800  0.902600  0.811000  1
  H  H4500  1  0.494200  0.908400  0.811000  1
  H  H4501  1  0.408400  0.994200  0.311000  1
  H  H4502  1  0.402600  0.316800  0.311000  1
  H  H4503  1  0.183200  0.097400  0.189000  1
  H  H4504  1  0.505800  0.091600  0.189000  1
  H  H4505  1  0.613400  0.972200  0.669800  1
  H  H4506  1  0.556400  0.697600  0.669800  1
  H  H4507  1  0.802400  0.943600  0.830200  1
  H  H4508  1  0.527800  0.886600  0.830200  1
  H  H4509  1  0.386600  0.027800  0.330200  1
  H  H4510  1  0.443600  0.302400  0.330200  1
  H  H4511  1  0.197600  0.056400  0.169800  1
  H  H4512  1  0.472200  0.113400  0.169800  1
  H  H4513  1  0.559700  0.014900  0.706000  1
  H  H4514  1  0.646300  0.691100  0.706000  1
  H  H4515  1  0.808900  0.853700  0.794000  1
  H  H4516  1  0.485100  0.940300  0.794000  1
  H  H4517  1  0.440300  0.985100  0.294000  1
  H  H4518  1  0.353700  0.308900  0.294000  1
  H  H4519  1  0.191100  0.146300  0.206000  1
  H  H4520  1  0.514900  0.059700  0.206000  1
  H  H4521  1  0.586600  0.117000  0.807800  1
  H  H4522  1  0.721200  0.690800  0.807800  1
  H  H4523  1  0.809200  0.778800  0.692200  1
  H  H4524  1  0.383000  0.913400  0.692200  1
  H  H4525  1  0.413400  0.883000  0.192200  1
  H  H4526  1  0.278800  0.309200  0.192200  1
  H  H4527  1  0.190800  0.221200  0.307800  1
  H  H4528  1  0.617000  0.086600  0.307800  1
  H  H4529  1  0.504800  0.077400  0.718800  1
  H  H4530  1  0.714000  0.641400  0.718800  1
  H  H4531  1  0.858600  0.786000  0.781200  1
  H  H4532  1  0.422600  0.995200  0.781200  1
  H  H4533  1  0.495200  0.922600  0.281200  1
  H  H4534  1  0.286000  0.358600  0.281200  1
  H  H4535  1  0.141400  0.214000  0.218800  1
  H  H4536  1  0.577400  0.004800  0.218800  1
  H  H4537  1  0.514900  0.034500  0.703200  1
  H  H4538  1  0.688300  0.668700  0.703200  1
  H  H4539  1  0.831300  0.811700  0.796800  1
  H  H4540  1  0.465500  0.985100  0.796800  1
  H  H4541  1  0.485100  0.965500  0.296800  1
  H  H4542  1  0.311700  0.331300  0.296800  1
  H  H4543  1  0.168700  0.188300  0.203200  1
  H  H4544  1  0.534500  0.014900  0.203200  1
  H  H4545  1  0.552600  0.136000  0.825000  1
  H  H4546  1  0.772400  0.689000  0.825000  1
  H  H4547  1  0.811000  0.727600  0.675000  1
  H  H4548  1  0.364000  0.947400  0.675000  1
  H  H4549  1  0.447400  0.864000  0.175000  1
  H  H4550  1  0.227600  0.311000  0.175000  1
  H  H4551  1  0.189000  0.272400  0.325000  1
  H  H4552  1  0.636000  0.052600  0.325000  1
  H  H4553  1  0.518200  0.180800  0.764200  1
  H  H4554  1  0.746000  0.583400  0.764200  1
  H  H4555  1  0.916600  0.754000  0.735800  1
  H  H4556  1  0.319200  0.981800  0.735800  1
  H  H4557  1  0.481800  0.819200  0.235800  1
  H  H4558  1  0.254000  0.416600  0.235800  1
  H  H4559  1  0.083400  0.246000  0.264200  1
  H  H4560  1  0.680800  0.018200  0.264200  1
  H  H4561  1  0.518500  0.132100  0.738800  1
  H  H4562  1  0.720300  0.606700  0.738800  1
  H  H4563  1  0.893300  0.779700  0.761200  1
  H  H4564  1  0.367900  0.981500  0.761200  1
  H  H4565  1  0.481500  0.867900  0.261200  1
  H  H4566  1  0.279700  0.393300  0.261200  1
  H  H4567  1  0.106700  0.220300  0.238800  1
  H  H4568  1  0.632100  0.018500  0.238800  1
  H  H4569  1  0.519800  0.222400  0.812400  1
  H  H4570  1  0.792600  0.590000  0.812400  1
  H  H4571  1  0.910000  0.707400  0.687600  1
  H  H4572  1  0.277600  0.980200  0.687600  1
  H  H4573  1  0.480200  0.777600  0.187600  1
  H  H4574  1  0.207400  0.410000  0.187600  1
  H  H4575  1  0.090000  0.292600  0.312400  1
  H  H4576  1  0.722400  0.019800  0.312400  1
  H  H4577  1  0.567800  0.269800  0.916400  1
  H  H4578  1  0.848600  0.646600  0.916400  1
  H  H4579  1  0.853400  0.651400  0.583600  1
  H  H4580  1  0.230200  0.932200  0.583600  1
  H  H4581  1  0.432200  0.730200  0.083600  1
  H  H4582  1  0.151400  0.353400  0.083600  1
  H  H4583  1  0.146600  0.348600  0.416400  1
  H  H4584  1  0.769800  0.067800  0.416400  1
  H  H4585  1  0.559900  0.314300  0.943400  1
  H  H4586  1  0.883500  0.629100  0.943400  1
  H  H4587  1  0.870900  0.616500  0.556600  1
  H  H4588  1  0.185700  0.940100  0.556600  1
  H  H4589  1  0.440100  0.685700  0.056600  1
  H  H4590  1  0.116500  0.370900  0.056600  1
  H  H4591  1  0.129100  0.383500  0.443400  1
  H  H4592  1  0.814300  0.059900  0.443400  1
  H  H4593  1  0.482200  0.284600  0.859000  1
  H  H4594  1  0.876800  0.574400  0.859000  1
  H  H4595  1  0.925600  0.623200  0.641000  1
  H  H4596  1  0.215400  0.017800  0.641000  1
  H  H4597  1  0.517800  0.715400  0.141000  1
  H  H4598  1  0.123200  0.425600  0.141000  1
  H  H4599  1  0.074400  0.376800  0.359000  1
  H  H4600  1  0.784600  0.982200  0.359000  1
  H  H4601  1  0.488900  0.240900  0.828800  1
  H  H4602  1  0.839900  0.587900  0.828800  1
  H  H4603  1  0.912100  0.660100  0.671200  1
  H  H4604  1  0.259100  0.011100  0.671200  1
  H  H4605  1  0.511100  0.759100  0.171200  1
  H  H4606  1  0.160100  0.412100  0.171200  1
  H  H4607  1  0.087900  0.339900  0.328800  1
  H  H4608  1  0.740900  0.988900  0.328800  1
  H  H4609  1  0.520700  0.346300  0.914200  1
  H  H4610  1  0.893500  0.567900  0.914200  1
  H  H4611  1  0.932100  0.606500  0.585800  1
  H  H4612  1  0.153700  0.979300  0.585800  1
  H  H4613  1  0.479300  0.653700  0.085800  1
  H  H4614  1  0.106500  0.432100  0.085800  1
  H  H4615  1  0.067900  0.393500  0.414200  1
  H  H4616  1  0.846300  0.020700  0.414200  1
  H  H4617  1  0.529900  0.341900  0.944200  1
  H  H4618  1  0.914300  0.602300  0.944200  1
  H  H4619  1  0.897700  0.585700  0.555800  1
  H  H4620  1  0.158100  0.970100  0.555800  1
  H  H4621  1  0.470100  0.658100  0.055800  1
  H  H4622  1  0.085700  0.397700  0.055800  1
  H  H4623  1  0.102300  0.414300  0.444200  1
  H  H4624  1  0.841900  0.029900  0.444200  1
  H  H4625  1  0.495000  0.328400  0.915000  1
  H  H4626  1  0.920000  0.586600  0.915000  1
  H  H4627  1  0.913400  0.580000  0.585000  1
  H  H4628  1  0.171600  0.005000  0.585000  1
  H  H4629  1  0.505000  0.671600  0.085000  1
  H  H4630  1  0.080000  0.413400  0.085000  1
  H  H4631  1  0.086600  0.420000  0.415000  1
  H  H4632  1  0.828400  0.995000  0.415000  1
  H  H4633  1  0.526200  0.946400  0.778800  1
  H  H4634  1  0.752600  0.832400  0.778800  1
  H  H4635  1  0.667600  0.747400  0.721200  1
  H  H4636  1  0.553600  0.973800  0.721200  1
  H  H4637  1  0.473800  0.053600  0.221200  1
  H  H4638  1  0.247400  0.167600  0.221200  1
  H  H4639  1  0.332400  0.252600  0.278800  1
  H  H4640  1  0.446400  0.026200  0.278800  1
  H  H4641  1  0.551900  0.957300  0.815600  1
  H  H4642  1  0.763700  0.858300  0.815600  1
  H  H4643  1  0.641700  0.736300  0.684400  1
  H  H4644  1  0.542700  0.948100  0.684400  1
  H  H4645  1  0.448100  0.042700  0.184400  1
  H  H4646  1  0.236300  0.141700  0.184400  1
  H  H4647  1  0.358300  0.263700  0.315600  1
  H  H4648  1  0.457300  0.051900  0.315600  1
  H  H4649  1  0.555900  0.938500  0.785800  1
  H  H4650  1  0.729900  0.847300  0.785800  1
  H  H4651  1  0.652700  0.770100  0.714200  1
  H  H4652  1  0.561500  0.944100  0.714200  1
  H  H4653  1  0.444100  0.061500  0.214200  1
  H  H4654  1  0.270100  0.152700  0.214200  1
  H  H4655  1  0.347300  0.229900  0.285800  1
  H  H4656  1  0.438500  0.055900  0.285800  1
  H  H4657  1  0.532100  0.003100  0.790200  1
  H  H4658  1  0.758100  0.787100  0.790200  1
  H  H4659  1  0.712900  0.741900  0.709800  1
  H  H4660  1  0.496900  0.967900  0.709800  1
  H  H4661  1  0.467900  0.996900  0.209800  1
  H  H4662  1  0.241900  0.212900  0.209800  1
  H  H4663  1  0.287100  0.258100  0.290200  1
  H  H4664  1  0.503100  0.032100  0.290200  1
  H  H4665  1  0.561600  0.049200  0.804000  1
  H  H4666  1  0.742400  0.754800  0.804000  1
  H  H4667  1  0.745200  0.757600  0.696000  1
  H  H4668  1  0.450800  0.938400  0.696000  1
  H  H4669  1  0.438400  0.950800  0.196000  1
  H  H4670  1  0.257600  0.245200  0.196000  1
  H  H4671  1  0.254800  0.242400  0.304000  1
  H  H4672  1  0.549200  0.061600  0.304000  1
  H  H4673  1  0.634500  0.025300  0.827200  1
  H  H4674  1  0.692700  0.801900  0.827200  1
  H  H4675  1  0.698100  0.807300  0.672800  1
  H  H4676  1  0.474700  0.865500  0.672800  1
  H  H4677  1  0.365500  0.974700  0.172800  1
  H  H4678  1  0.307300  0.198100  0.172800  1
  H  H4679  1  0.301900  0.192700  0.327200  1
  H  H4680  1  0.525300  0.134500  0.327200  1
  H  H4681  1  0.605200  0.979400  0.813600  1
  H  H4682  1  0.708400  0.834200  0.813600  1
  H  H4683  1  0.665800  0.791600  0.686400  1
  H  H4684  1  0.520600  0.894800  0.686400  1
  H  H4685  1  0.394800  0.020600  0.186400  1
  H  H4686  1  0.291600  0.165800  0.186400  1
  H  H4687  1  0.334200  0.208400  0.313600  1
  H  H4688  1  0.479400  0.105200  0.313600  1
  H  H4689  1  0.627700  0.092300  0.869600  1
  H  H4690  1  0.741900  0.777300  0.869600  1
  H  H4691  1  0.722700  0.758100  0.630400  1
  H  H4692  1  0.407700  0.872300  0.630400  1
  H  H4693  1  0.372300  0.907700  0.130400  1
  H  H4694  1  0.258100  0.222700  0.130400  1
  H  H4695  1  0.277300  0.241900  0.369600  1
  H  H4696  1  0.592300  0.127700  0.369600  1
  H  H4697  1  0.662000  0.144000  0.821200  1
  H  H4698  1  0.659200  0.677200  0.821200  1
  H  H4699  1  0.822800  0.840800  0.678800  1
  H  H4700  1  0.356000  0.838000  0.678800  1
  H  H4701  1  0.338000  0.856000  0.178800  1
  H  H4702  1  0.340800  0.322800  0.178800  1
  H  H4703  1  0.177200  0.159200  0.321200  1
  H  H4704  1  0.644000  0.162000  0.321200  1
  H  H4705  1  0.700000  0.191000  0.920200  1
  H  H4706  1  0.720200  0.729200  0.920200  1
  H  H4707  1  0.770800  0.779800  0.579800  1
  H  H4708  1  0.309000  0.800000  0.579800  1
  H  H4709  1  0.300000  0.809000  0.079800  1
  H  H4710  1  0.279800  0.270800  0.079800  1
  H  H4711  1  0.229200  0.220200  0.420200  1
  H  H4712  1  0.691000  0.200000  0.420200  1
  H  H4713  1  0.669300  0.146900  0.912200  1
  H  H4714  1  0.742900  0.765300  0.912200  1
  H  H4715  1  0.734700  0.757100  0.587800  1
  H  H4716  1  0.353100  0.830700  0.587800  1
  H  H4717  1  0.330700  0.853100  0.087800  1
  H  H4718  1  0.257100  0.234700  0.087800  1
  H  H4719  1  0.265300  0.242900  0.412200  1
  H  H4720  1  0.646900  0.169300  0.412200  1
  H  H4721  1  0.696300  0.175300  0.829400  1
  H  H4722  1  0.633100  0.654100  0.829400  1
  H  H4723  1  0.845900  0.866900  0.670600  1
  H  H4724  1  0.324700  0.803700  0.670600  1
  H  H4725  1  0.303700  0.824700  0.170600  1
  H  H4726  1  0.366900  0.345900  0.170600  1
  H  H4727  1  0.154100  0.133100  0.329400  1
  H  H4728  1  0.675300  0.196300  0.329400  1
  H  H4729  1  0.744900  0.269700  0.927200  1
  H  H4730  1  0.682300  0.657500  0.927200  1
  H  H4731  1  0.842500  0.817700  0.572800  1
  H  H4732  1  0.230300  0.755100  0.572800  1
  H  H4733  1  0.255100  0.730300  0.072800  1
  H  H4734  1  0.317700  0.342500  0.072800  1
  H  H4735  1  0.157500  0.182300  0.427200  1
  H  H4736  1  0.769700  0.244900  0.427200  1
  H  H4737  1  0.717700  0.227100  0.922200  1
  H  H4738  1  0.704500  0.695100  0.922200  1
  H  H4739  1  0.804900  0.795500  0.577800  1
  H  H4740  1  0.272900  0.782300  0.577800  1
  H  H4741  1  0.282300  0.772900  0.077800  1
  H  H4742  1  0.295500  0.304900  0.077800  1
  H  H4743  1  0.195100  0.204500  0.422200  1
  H  H4744  1  0.727100  0.217700  0.422200  1
  H  H4745  1  0.769200  0.287800  0.901600  1
  H  H4746  1  0.632400  0.613800  0.901600  1
  H  H4747  1  0.886200  0.867600  0.598400  1
  H  H4748  1  0.212200  0.730800  0.598400  1
  H  H4749  1  0.230800  0.712200  0.098400  1
  H  H4750  1  0.367600  0.386200  0.098400  1
  H  H4751  1  0.113800  0.132400  0.401600  1
  H  H4752  1  0.787800  0.269200  0.401600  1
  H  H4753  1  0.803900  0.265100  0.859000  1
  H  H4754  1  0.555100  0.593900  0.859000  1
  H  H4755  1  0.906100  0.944900  0.641000  1
  H  H4756  1  0.234900  0.696100  0.641000  1
  H  H4757  1  0.196100  0.734900  0.141000  1
  H  H4758  1  0.444900  0.406100  0.141000  1
  H  H4759  1  0.093900  0.055100  0.359000  1
  H  H4760  1  0.765100  0.303900  0.359000  1
  H  H4761  1  0.835900  0.298100  0.857600  1
  H  H4762  1  0.521700  0.559500  0.857600  1
  H  H4763  1  0.940500  0.978300  0.642400  1
  H  H4764  1  0.201900  0.664100  0.642400  1
  H  H4765  1  0.164100  0.701900  0.142400  1
  H  H4766  1  0.478300  0.440500  0.142400  1
  H  H4767  1  0.059500  0.021700  0.357600  1
  H  H4768  1  0.798100  0.335900  0.357600  1
  H  H4769  1  0.778600  0.342600  0.847000  1
  H  H4770  1  0.568400  0.504400  0.847000  1
  H  H4771  1  0.995600  0.931600  0.653000  1
  H  H4772  1  0.157400  0.721400  0.653000  1
  H  H4773  1  0.221400  0.657400  0.153000  1
  H  H4774  1  0.431600  0.495600  0.153000  1
  H  H4775  1  0.004400  0.068400  0.347000  1
  H  H4776  1  0.842600  0.278600  0.347000  1
  H  H4777  1  0.746700  0.309700  0.848400  1
  H  H4778  1  0.601700  0.538700  0.848400  1
  H  H4779  1  0.961300  0.898300  0.651600  1
  H  H4780  1  0.190300  0.753300  0.651600  1
  H  H4781  1  0.253300  0.690300  0.151600  1
  H  H4782  1  0.398300  0.461300  0.151600  1
  H  H4783  1  0.038700  0.101700  0.348400  1
  H  H4784  1  0.809700  0.246700  0.348400  1
  H  H4785  1  0.831100  0.369300  0.870400  1
  H  H4786  1  0.539300  0.501100  0.870400  1
  H  H4787  1  0.998900  0.960700  0.629600  1
  H  H4788  1  0.130700  0.668900  0.629600  1
  H  H4789  1  0.168900  0.630700  0.129600  1
  H  H4790  1  0.460700  0.498900  0.129600  1
  H  H4791  1  0.001100  0.039300  0.370400  1
  H  H4792  1  0.869300  0.331100  0.370400  1
  H  H4793  1  0.838600  0.347200  0.845200  1
  H  H4794  1  0.506600  0.498000  0.845200  1
  H  H4795  1  0.002000  0.993400  0.654800  1
  H  H4796  1  0.152800  0.661400  0.654800  1
  H  H4797  1  0.161400  0.652800  0.154800  1
  H  H4798  1  0.493400  0.502000  0.154800  1
  H  H4799  1  0.998000  0.006600  0.345200  1
  H  H4800  1  0.847200  0.338600  0.345200  1
  H  H4801  1  0.855200  0.355000  0.882200  1
  H  H4802  1  0.527000  0.527200  0.882200  1
  H  H4803  1  0.972800  0.973000  0.617800  1
  H  H4804  1  0.145000  0.644800  0.617800  1
  H  H4805  1  0.144800  0.645000  0.117800  1
  H  H4806  1  0.473000  0.472800  0.117800  1
  H  H4807  1  0.027200  0.027000  0.382200  1
  H  H4808  1  0.855000  0.355200  0.382200  1
  H  H4809  1  0.399700  0.066700  0.693800  1
  H  H4810  1  0.794100  0.627100  0.693800  1
  H  H4811  1  0.872900  0.705900  0.806200  1
  H  H4812  1  0.433300  0.100300  0.806200  1
  H  H4813  1  0.600300  0.933300  0.306200  1
  H  H4814  1  0.205900  0.372900  0.306200  1
  H  H4815  1  0.127100  0.294100  0.193800  1
  H  H4816  1  0.566700  0.899700  0.193800  1
  H  H4817  1  0.422600  0.085000  0.690200  1
  H  H4818  1  0.767600  0.605200  0.690200  1
  H  H4819  1  0.894800  0.732400  0.809800  1
  H  H4820  1  0.415000  0.077400  0.809800  1
  H  H4821  1  0.577400  0.915000  0.309800  1
  H  H4822  1  0.232400  0.394800  0.309800  1
  H  H4823  1  0.105200  0.267600  0.190200  1
  H  H4824  1  0.585000  0.922600  0.190200  1
  H  H4825  1  0.396800  0.096200  0.693400  1
  H  H4826  1  0.796600  0.597200  0.693400  1
  H  H4827  1  0.902800  0.703400  0.806600  1
  H  H4828  1  0.403800  0.103200  0.806600  1
  H  H4829  1  0.603200  0.903800  0.306600  1
  H  H4830  1  0.203400  0.402800  0.306600  1
  H  H4831  1  0.097200  0.296600  0.193400  1
  H  H4832  1  0.596200  0.896800  0.193400  1
  H  H4833  1  0.459600  0.086200  0.749200  1
  H  H4834  1  0.789600  0.663000  0.749200  1
  H  H4835  1  0.837000  0.710400  0.750800  1
  H  H4836  1  0.413800  0.040400  0.750800  1
  H  H4837  1  0.540400  0.913800  0.250800  1
  H  H4838  1  0.210400  0.337000  0.250800  1
  H  H4839  1  0.163000  0.289600  0.249200  1
  H  H4840  1  0.586200  0.959600  0.249200  1
  H  H4841  1  0.487600  0.120600  0.808000  1
  H  H4842  1  0.820400  0.687400  0.808000  1
  H  H4843  1  0.812600  0.679600  0.692000  1
  H  H4844  1  0.379400  0.012400  0.692000  1
  H  H4845  1  0.512400  0.879400  0.192000  1
  H  H4846  1  0.179600  0.312600  0.192000  1
  H  H4847  1  0.187400  0.320400  0.308000  1
  H  H4848  1  0.620600  0.987600  0.308000  1
  H  H4849  1  0.453000  0.181600  0.797800  1
  H  H4850  1  0.844800  0.616200  0.797800  1
  H  H4851  1  0.883800  0.655200  0.702200  1
  H  H4852  1  0.318400  0.047000  0.702200  1
  H  H4853  1  0.547000  0.818400  0.202200  1
  H  H4854  1  0.155200  0.383800  0.202200  1
  H  H4855  1  0.116200  0.344800  0.297800  1
  H  H4856  1  0.681600  0.953000  0.297800  1
  H  H4857  1  0.414700  0.141500  0.739400  1
  H  H4858  1  0.824700  0.597900  0.739400  1
  H  H4859  1  0.902100  0.675300  0.760600  1
  H  H4860  1  0.358500  0.085300  0.760600  1
  H  H4861  1  0.585300  0.858500  0.260600  1
  H  H4862  1  0.175300  0.402100  0.260600  1
  H  H4863  1  0.097900  0.324700  0.239400  1
  H  H4864  1  0.641500  0.914700  0.239400  1
  H  H4865  1  0.461100  0.187100  0.848000  1
  H  H4866  1  0.886900  0.660900  0.848000  1
  H  H4867  1  0.839100  0.613100  0.652000  1
  H  H4868  1  0.312900  0.038900  0.652000  1
  H  H4869  1  0.538900  0.812900  0.152000  1
  H  H4870  1  0.113100  0.339100  0.152000  1
  H  H4871  1  0.160900  0.386900  0.348000  1
  H  H4872  1  0.687100  0.961100  0.348000  1
  H  H4873  1  0.574100  0.236900  0.949600  1
  H  H4874  1  0.875500  0.712700  0.949600  1
  H  H4875  1  0.787300  0.624500  0.550400  1
  H  H4876  1  0.263100  0.925900  0.550400  1
  H  H4877  1  0.425900  0.763100  0.050400  1
  H  H4878  1  0.124500  0.287300  0.050400  1
  H  H4879  1  0.212700  0.375500  0.449600  1
  H  H4880  1  0.736900  0.074100  0.449600  1
  H  H4881  1  0.509300  0.263300  0.961800  1
  H  H4882  1  0.952500  0.698500  0.961800  1
  H  H4883  1  0.801500  0.547500  0.538200  1
  H  H4884  1  0.236700  0.990700  0.538200  1
  H  H4885  1  0.490700  0.736700  0.038200  1
  H  H4886  1  0.047500  0.301500  0.038200  1
  H  H4887  1  0.198500  0.452500  0.461800  1
  H  H4888  1  0.763300  0.009300  0.461800  1
  H  H4889  1  0.473300  0.229100  0.905400  1
  H  H4890  1  0.932100  0.676300  0.905400  1
  H  H4891  1  0.823700  0.567900  0.594600  1
  H  H4892  1  0.270900  0.026700  0.594600  1
  H  H4893  1  0.526700  0.770900  0.094600  1
  H  H4894  1  0.067900  0.323700  0.094600  1
  H  H4895  1  0.176300  0.432100  0.405400  1
  H  H4896  1  0.729100  0.973300  0.405400  1
  H  H4897  1  0.589300  0.250300  0.004800  1
  H  H4898  1  0.915500  0.754500  0.004800  1
  H  H4899  1  0.745500  0.584500  0.495200  1
  H  H4900  1  0.249700  0.910700  0.495200  1
  H  H4901  1  0.410700  0.749700  0.995200  1
  H  H4902  1  0.084500  0.245500  0.995200  1
  H  H4903  1  0.254500  0.415500  0.504800  1
  H  H4904  1  0.750300  0.089300  0.504800  1
  H  H4905  1  0.595600  0.349600  0.053600  1
  H  H4906  1  0.958000  0.704000  0.053600  1
  H  H4907  1  0.796000  0.542000  0.446400  1
  H  H4908  1  0.150400  0.904400  0.446400  1
  H  H4909  1  0.404400  0.650400  0.946400  1
  H  H4910  1  0.042000  0.296000  0.946400  1
  H  H4911  1  0.204000  0.458000  0.553600  1
  H  H4912  1  0.849600  0.095600  0.553600  1
  H  H4913  1  0.554500  0.311100  0.997200  1
  H  H4914  1  0.942700  0.686100  0.997200  1
  H  H4915  1  0.813900  0.557300  0.502800  1
  H  H4916  1  0.188900  0.945500  0.502800  1
  H  H4917  1  0.445500  0.688900  0.002800  1
  H  H4918  1  0.057300  0.313900  0.002800  1
  H  H4919  1  0.186100  0.442700  0.497200  1
  H  H4920  1  0.811100  0.054500  0.497200  1
  H  H4921  1  0.642500  0.361500  0.101400  1
  H  H4922  1  0.958900  0.739900  0.101400  1
  H  H4923  1  0.760100  0.541100  0.398600  1
  H  H4924  1  0.138500  0.857500  0.398600  1
  H  H4925  1  0.357500  0.638500  0.898600  1
  H  H4926  1  0.041100  0.260100  0.898600  1
  H  H4927  1  0.239900  0.458900  0.601400  1
  H  H4928  1  0.861500  0.142500  0.601400  1
  H  H4929  1  0.715200  0.335400  0.139000  1
  H  H4930  1  0.923800  0.803600  0.139000  1
  H  H4931  1  0.696400  0.576200  0.361000  1
  H  H4932  1  0.164600  0.784800  0.361000  1
  H  H4933  1  0.284800  0.664600  0.861000  1
  H  H4934  1  0.076200  0.196400  0.861000  1
  H  H4935  1  0.303600  0.423800  0.639000  1
  H  H4936  1  0.835400  0.215200  0.639000  1
  H  H4937  1  0.754100  0.365900  0.194200  1
  H  H4938  1  0.940100  0.828300  0.194200  1
  H  H4939  1  0.671700  0.559900  0.305800  1
  H  H4940  1  0.134100  0.745900  0.305800  1
  H  H4941  1  0.245900  0.634100  0.805800  1
  H  H4942  1  0.059900  0.171700  0.805800  1
  H  H4943  1  0.328300  0.440100  0.694200  1
  H  H4944  1  0.865900  0.254100  0.694200  1
  H  H4945  1  0.702000  0.409600  0.213200  1
  H  H4946  1  0.011200  0.803600  0.213200  1
  H  H4947  1  0.696400  0.488800  0.286800  1
  H  H4948  1  0.090400  0.798000  0.286800  1
  H  H4949  1  0.298000  0.590400  0.786800  1
  H  H4950  1  0.988800  0.196400  0.786800  1
  H  H4951  1  0.303600  0.511200  0.713200  1
  H  H4952  1  0.909600  0.202000  0.713200  1
  H  H4953  1  0.663300  0.382500  0.158600  1
  H  H4954  1  0.995300  0.776100  0.158600  1
  H  H4955  1  0.723900  0.504700  0.341400  1
  H  H4956  1  0.117500  0.836700  0.341400  1
  H  H4957  1  0.336700  0.617500  0.841400  1
  H  H4958  1  0.004700  0.223900  0.841400  1
  H  H4959  1  0.276100  0.495300  0.658600  1
  H  H4960  1  0.882500  0.163300  0.658600  1
  H  H4961  1  0.759100  0.430300  0.256200  1
  H  H4962  1  0.997100  0.825900  0.256200  1
  H  H4963  1  0.674100  0.502900  0.243800  1
  H  H4964  1  0.069700  0.740900  0.243800  1
  H  H4965  1  0.240900  0.569700  0.743800  1
  H  H4966  1  0.002900  0.174100  0.743800  1
  H  H4967  1  0.325900  0.497100  0.756200  1
  H  H4968  1  0.930300  0.259100  0.756200  1
  H  H4969  1  0.777100  0.409100  0.247400  1
  H  H4970  1  0.970300  0.838300  0.247400  1
  H  H4971  1  0.661700  0.529700  0.252600  1
  H  H4972  1  0.090900  0.722900  0.252600  1
  H  H4973  1  0.222900  0.590900  0.752600  1
  H  H4974  1  0.029700  0.161700  0.752600  1
  H  H4975  1  0.338300  0.470300  0.747400  1
  H  H4976  1  0.909100  0.277100  0.747400  1
  H  H4977  1  0.753900  0.400100  0.256400  1
  H  H4978  1  0.002500  0.856300  0.256400  1
  H  H4979  1  0.643700  0.497500  0.243600  1
  H  H4980  1  0.099900  0.746100  0.243600  1
  H  H4981  1  0.246100  0.599900  0.743600  1
  H  H4982  1  0.997500  0.143700  0.743600  1
  H  H4983  1  0.356300  0.502500  0.756400  1
  H  H4984  1  0.900100  0.253900  0.756400  1
  H  H4985  1  0.465500  0.056500  0.865800  1
  H  H4986  1  0.900300  0.809300  0.865800  1
  H  H4987  1  0.690700  0.599700  0.634200  1
  H  H4988  1  0.443500  0.034500  0.634200  1
  H  H4989  1  0.534500  0.943500  0.134200  1
  H  H4990  1  0.099700  0.190700  0.134200  1
  H  H4991  1  0.309300  0.400300  0.365800  1
  H  H4992  1  0.556500  0.965500  0.365800  1
  H  H4993  1  0.468100  0.034700  0.835800  1
  H  H4994  1  0.867700  0.801100  0.835800  1
  H  H4995  1  0.698900  0.632300  0.664200  1
  H  H4996  1  0.465300  0.031900  0.664200  1
  H  H4997  1  0.531900  0.965300  0.164200  1
  H  H4998  1  0.132300  0.198900  0.164200  1
  H  H4999  1  0.301100  0.367700  0.335800  1
  H  H5000  1  0.534700  0.968100  0.335800  1
  H  H5001  1  0.444000  0.050400  0.829800  1
  H  H5002  1  0.885800  0.779400  0.829800  1
  H  H5003  1  0.720600  0.614200  0.670200  1
  H  H5004  1  0.449600  0.056000  0.670200  1
  H  H5005  1  0.556000  0.949600  0.170200  1
  H  H5006  1  0.114200  0.220600  0.170200  1
  H  H5007  1  0.279400  0.385800  0.329800  1
  H  H5008  1  0.550400  0.944000  0.329800  1
  H  H5009  1  0.471600  0.110600  0.874600  1
  H  H5010  1  0.903000  0.764000  0.874600  1
  H  H5011  1  0.736000  0.597000  0.625400  1
  H  H5012  1  0.389400  0.028400  0.625400  1
  H  H5013  1  0.528400  0.889400  0.125400  1
  H  H5014  1  0.097000  0.236000  0.125400  1
  H  H5015  1  0.264000  0.403000  0.374600  1
  H  H5016  1  0.610600  0.971600  0.374600  1
  H  H5017  1  0.506700  0.154700  0.890800  1
  H  H5018  1  0.884100  0.736100  0.890800  1
  H  H5019  1  0.763900  0.615900  0.609200  1
  H  H5020  1  0.345300  0.993300  0.609200  1
  H  H5021  1  0.493300  0.845300  0.109200  1
  H  H5022  1  0.115900  0.263900  0.109200  1
  H  H5023  1  0.236100  0.384100  0.390800  1
  H  H5024  1  0.654700  0.006700  0.390800  1
  H  H5025  1  0.548900  0.104700  0.854600  1
  H  H5026  1  0.805700  0.749900  0.854600  1
  H  H5027  1  0.750100  0.694300  0.645400  1
  H  H5028  1  0.395300  0.951100  0.645400  1
  H  H5029  1  0.451100  0.895300  0.145400  1
  H  H5030  1  0.194300  0.250100  0.145400  1
  H  H5031  1  0.249900  0.305700  0.354600  1
  H  H5032  1  0.604700  0.048900  0.354600  1
  H  H5033  1  0.513700  0.060700  0.838400  1
  H  H5034  1  0.824700  0.777700  0.838400  1
  H  H5035  1  0.722300  0.675300  0.661600  1
  H  H5036  1  0.439300  0.986300  0.661600  1
  H  H5037  1  0.486300  0.939300  0.161600  1
  H  H5038  1  0.175300  0.222300  0.161600  1
  H  H5039  1  0.277700  0.324700  0.338400  1
  H  H5040  1  0.560700  0.013700  0.338400  1
  H  H5041  1  0.584200  0.152800  0.904200  1
  H  H5042  1  0.820000  0.751400  0.904200  1
  H  H5043  1  0.748600  0.680000  0.595800  1
  H  H5044  1  0.347200  0.915800  0.595800  1
  H  H5045  1  0.415800  0.847200  0.095800  1
  H  H5046  1  0.180000  0.248600  0.095800  1
  H  H5047  1  0.251400  0.320000  0.404200  1
  H  H5048  1  0.652800  0.084200  0.404200  1
  H  H5049  1  0.599600  0.249200  0.900400  1
  H  H5050  1  0.800800  0.651200  0.900400  1
  H  H5051  1  0.848800  0.699200  0.599600  1
  H  H5052  1  0.250800  0.900400  0.599600  1
  H  H5053  1  0.400400  0.750800  0.099600  1
  H  H5054  1  0.199200  0.348800  0.099600  1
  H  H5055  1  0.151200  0.300800  0.400400  1
  H  H5056  1  0.749200  0.099600  0.400400  1
  H  H5057  1  0.671100  0.227700  0.938400  1
  H  H5058  1  0.767300  0.710700  0.938400  1
  H  H5059  1  0.789300  0.732700  0.561600  1
  H  H5060  1  0.272300  0.828900  0.561600  1
  H  H5061  1  0.328900  0.772300  0.061600  1
  H  H5062  1  0.232700  0.289300  0.061600  1
  H  H5063  1  0.210700  0.267300  0.438400  1
  H  H5064  1  0.727700  0.171100  0.438400  1
  H  H5065  1  0.640500  0.186500  0.930000  1
  H  H5066  1  0.789500  0.743500  0.930000  1
  H  H5067  1  0.756500  0.710500  0.570000  1
  H  H5068  1  0.313500  0.859500  0.570000  1
  H  H5069  1  0.359500  0.813500  0.070000  1
  H  H5070  1  0.210500  0.256500  0.070000  1
  H  H5071  1  0.243500  0.289500  0.430000  1
  H  H5072  1  0.686500  0.140500  0.430000  1
  H  H5073  1  0.624400  0.276600  0.896200  1
  H  H5074  1  0.771800  0.619600  0.896200  1
  H  H5075  1  0.880400  0.728200  0.603800  1
  H  H5076  1  0.223400  0.875600  0.603800  1
  H  H5077  1  0.375600  0.723400  0.103800  1
  H  H5078  1  0.228200  0.380400  0.103800  1
  H  H5079  1  0.119600  0.271800  0.396200  1
  H  H5080  1  0.776600  0.124400  0.396200  1
  H  H5081  1  0.728500  0.313900  0.964200  1
  H  H5082  1  0.735700  0.650300  0.964200  1
  H  H5083  1  0.849700  0.764300  0.535800  1
  H  H5084  1  0.186100  0.771500  0.535800  1
  H  H5085  1  0.271500  0.686100  0.035800  1
  H  H5086  1  0.264300  0.349700  0.035800  1
  H  H5087  1  0.150300  0.235700  0.464200  1
  H  H5088  1  0.813900  0.228500  0.464200  1
  H  H5089  1  0.698000  0.272800  0.957600  1
  H  H5090  1  0.759600  0.684800  0.957600  1
  H  H5091  1  0.815200  0.740400  0.542400  1
  H  H5092  1  0.227200  0.802000  0.542400  1
  H  H5093  1  0.302000  0.727200  0.042400  1
  H  H5094  1  0.240400  0.315200  0.042400  1
  H  H5095  1  0.184800  0.259600  0.457600  1
  H  H5096  1  0.772800  0.198000  0.457600  1
  H  H5097  1  0.727500  0.352500  0.945800  1
  H  H5098  1  0.718300  0.593300  0.945800  1
  H  H5099  1  0.906700  0.781700  0.554200  1
  H  H5100  1  0.147500  0.772500  0.554200  1
  H  H5101  1  0.272500  0.647500  0.054200  1
  H  H5102  1  0.281700  0.406700  0.054200  1
  H  H5103  1  0.093300  0.218300  0.445800  1
  H  H5104  1  0.852500  0.227500  0.445800  1
  H  H5105  1  0.715800  0.414400  0.963800  1
  H  H5106  1  0.748000  0.549400  0.963800  1
  H  H5107  1  0.950600  0.752000  0.536200  1
  H  H5108  1  0.085600  0.784200  0.536200  1
  H  H5109  1  0.284200  0.585600  0.036200  1
  H  H5110  1  0.252000  0.450600  0.036200  1
  H  H5111  1  0.049400  0.248000  0.463800  1
  H  H5112  1  0.914400  0.215800  0.463800  1
  H  H5113  1  0.736400  0.453800  0.961000  1
  H  H5114  1  0.724600  0.507200  0.961000  1
  H  H5115  1  0.992800  0.775400  0.539000  1
  H  H5116  1  0.046200  0.763600  0.539000  1
  H  H5117  1  0.263600  0.546200  0.039000  1
  H  H5118  1  0.275400  0.492800  0.039000  1
  H  H5119  1  0.007200  0.224600  0.461000  1
  H  H5120  1  0.953800  0.236400  0.461000  1
  H  H5121  1  0.719400  0.392200  0.871200  1
  H  H5122  1  0.651800  0.479000  0.871200  1
  H  H5123  1  0.021000  0.848200  0.628800  1
  H  H5124  1  0.107800  0.780600  0.628800  1
  H  H5125  1  0.280600  0.607800  0.128800  1
  H  H5126  1  0.348200  0.521000  0.128800  1
  H  H5127  1  0.979000  0.151800  0.371200  1
  H  H5128  1  0.892200  0.219400  0.371200  1
  H  H5129  1  0.698700  0.352900  0.874000  1
  H  H5130  1  0.675300  0.521100  0.874000  1
  H  H5131  1  0.978900  0.824700  0.626000  1
  H  H5132  1  0.147100  0.801300  0.626000  1
  H  H5133  1  0.301300  0.647100  0.126000  1
  H  H5134  1  0.324700  0.478900  0.126000  1
  H  H5135  1  0.021100  0.175300  0.374000  1
  H  H5136  1  0.852900  0.198700  0.374000  1
  H  H5137  1  0.740900  0.461100  0.907200  1
  H  H5138  1  0.666300  0.446100  0.907200  1
  H  H5139  1  0.053900  0.833700  0.592800  1
  H  H5140  1  0.038900  0.759100  0.592800  1
  H  H5141  1  0.259100  0.538900  0.092800  1
  H  H5142  1  0.333700  0.553900  0.092800  1
  H  H5143  1  0.946100  0.166300  0.407200  1
  H  H5144  1  0.961100  0.240900  0.407200  1
  H  H5145  1  0.766800  0.447800  0.915800  1
  H  H5146  1  0.649000  0.468000  0.915800  1
  H  H5147  1  0.032000  0.851000  0.584200  1
  H  H5148  1  0.052200  0.733200  0.584200  1
  H  H5149  1  0.233200  0.552200  0.084200  1
  H  H5150  1  0.351000  0.532000  0.084200  1
  H  H5151  1  0.968000  0.149000  0.415800  1
  H  H5152  1  0.947800  0.266800  0.415800  1
  H  H5153  1  0.763700  0.471300  0.944600  1
  H  H5154  1  0.680900  0.473300  0.944600  1
  H  H5155  1  0.026700  0.819100  0.555400  1
  H  H5156  1  0.028700  0.736300  0.555400  1
  H  H5157  1  0.236300  0.528700  0.055400  1
  H  H5158  1  0.319100  0.526700  0.055400  1
  H  H5159  1  0.973300  0.180900  0.444600  1
  H  H5160  1  0.971300  0.263700  0.444600  1
  H  H5161  1  0.521000  0.342800  0.072800  1
  H  H5162  1  0.051800  0.730000  0.072800  1
  H  H5163  1  0.770000  0.448200  0.427200  1
  H  H5164  1  0.157200  0.979000  0.427200  1
  H  H5165  1  0.479000  0.657200  0.927200  1
  H  H5166  1  0.948200  0.270000  0.927200  1
  H  H5167  1  0.230000  0.551800  0.572800  1
  H  H5168  1  0.842800  0.021000  0.572800  1
  H  H5169  1  0.499100  0.309100  0.041000  1
  H  H5170  1  0.041900  0.731900  0.041000  1
  H  H5171  1  0.768100  0.458100  0.459000  1
  H  H5172  1  0.190900  0.000900  0.459000  1
  H  H5173  1  0.500900  0.690900  0.959000  1
  H  H5174  1  0.958100  0.268100  0.959000  1
  H  H5175  1  0.231900  0.541900  0.541000  1
  H  H5176  1  0.809100  0.999100  0.541000  1
  H  H5177  1  0.521900  0.330900  0.040200  1
  H  H5178  1  0.018300  0.709300  0.040200  1
  H  H5179  1  0.790700  0.481700  0.459800  1
  H  H5180  1  0.169100  0.978100  0.459800  1
  H  H5181  1  0.478100  0.669100  0.959800  1
  H  H5182  1  0.981700  0.290700  0.959800  1
  H  H5183  1  0.209300  0.518300  0.540200  1
  H  H5184  1  0.830900  0.021900  0.540200  1
  H  H5185  1  0.566500  0.351300  0.111200  1
  H  H5186  1  0.044700  0.759900  0.111200  1
  H  H5187  1  0.740100  0.455300  0.388800  1
  H  H5188  1  0.148700  0.933500  0.388800  1
  H  H5189  1  0.433500  0.648700  0.888800  1
  H  H5190  1  0.955300  0.240100  0.888800  1
  H  H5191  1  0.259900  0.544700  0.611200  1
  H  H5192  1  0.851300  0.066500  0.611200  1
  H  H5193  1  0.610700  0.339300  0.136200  1
  H  H5194  1  0.025500  0.796900  0.136200  1
  H  H5195  1  0.703100  0.474500  0.363800  1
  H  H5196  1  0.160700  0.889300  0.363800  1
  H  H5197  1  0.389300  0.660700  0.863800  1
  H  H5198  1  0.974500  0.203100  0.863800  1
  H  H5199  1  0.296900  0.525500  0.636200  1
  H  H5200  1  0.839300  0.110700  0.636200  1
  H  H5201  1  0.568100  0.258100  0.053000  1
  H  H5202  1  0.984900  0.794900  0.053000  1
  H  H5203  1  0.705100  0.515100  0.447000  1
  H  H5204  1  0.241900  0.931900  0.447000  1
  H  H5205  1  0.431900  0.741900  0.947000  1
  H  H5206  1  0.015100  0.205100  0.947000  1
  H  H5207  1  0.294900  0.484900  0.553000  1
  H  H5208  1  0.758100  0.068100  0.553000  1
  H  H5209  1  0.526100  0.271700  0.028600  1
  H  H5210  1  0.002500  0.756900  0.028600  1
  H  H5211  1  0.743100  0.497500  0.471400  1
  H  H5212  1  0.228300  0.973900  0.471400  1
  H  H5213  1  0.473900  0.728300  0.971400  1
  H  H5214  1  0.997500  0.243100  0.971400  1
  H  H5215  1  0.256900  0.502500  0.528600  1
  H  H5216  1  0.771700  0.026100  0.528600  1
  H  H5217  1  0.628300  0.304100  0.151200  1
  H  H5218  1  0.022900  0.847100  0.151200  1
  H  H5219  1  0.652900  0.477100  0.348800  1
  H  H5220  1  0.195900  0.871700  0.348800  1
  H  H5221  1  0.371700  0.695900  0.848800  1
  H  H5222  1  0.977100  0.152900  0.848800  1
  H  H5223  1  0.347100  0.522900  0.651200  1
  H  H5224  1  0.804100  0.128300  0.651200  1
  H  H5225  1  0.701000  0.271400  0.115800  1
  H  H5226  1  0.914800  0.844400  0.115800  1
  H  H5227  1  0.655600  0.585200  0.384200  1
  H  H5228  1  0.228600  0.799000  0.384200  1
  H  H5229  1  0.299000  0.728600  0.884200  1
  H  H5230  1  0.085200  0.155600  0.884200  1
  H  H5231  1  0.344400  0.414800  0.615800  1
  H  H5232  1  0.771400  0.201000  0.615800  1
  H  H5233  1  0.721100  0.303300  0.212000  1
  H  H5234  1  0.990900  0.908700  0.212000  1
  H  H5235  1  0.591300  0.509100  0.288000  1
  H  H5236  1  0.196700  0.778900  0.288000  1
  H  H5237  1  0.278900  0.696700  0.788000  1
  H  H5238  1  0.009100  0.091300  0.788000  1
  H  H5239  1  0.408700  0.490900  0.712000  1
  H  H5240  1  0.803300  0.221100  0.712000  1
  H  H5241  1  0.674200  0.306400  0.193000  1
  H  H5242  1  0.018800  0.886600  0.193000  1
  H  H5243  1  0.613400  0.481200  0.307000  1
  H  H5244  1  0.193600  0.825800  0.307000  1
  H  H5245  1  0.325800  0.693600  0.807000  1
  H  H5246  1  0.981200  0.113400  0.807000  1
  H  H5247  1  0.386600  0.518800  0.693000  1
  H  H5248  1  0.806400  0.174200  0.693000  1
  H  H5249  1  0.732800  0.241600  0.134400  1
  H  H5250  1  0.901600  0.892800  0.134400  1
  H  H5251  1  0.607200  0.598400  0.365600  1
  H  H5252  1  0.258400  0.767200  0.365600  1
  H  H5253  1  0.267200  0.758400  0.865600  1
  H  H5254  1  0.098400  0.107200  0.865600  1
  H  H5255  1  0.392800  0.401600  0.634400  1
  H  H5256  1  0.741600  0.232800  0.634400  1
  H  H5257  1  0.819400  0.320800  0.233600  1
  H  H5258  1  0.914200  0.912800  0.233600  1
  H  H5259  1  0.587200  0.585800  0.266400  1
  H  H5260  1  0.179200  0.680600  0.266400  1
  H  H5261  1  0.180600  0.679200  0.766400  1
  H  H5262  1  0.085800  0.087200  0.766400  1
  H  H5263  1  0.412800  0.414200  0.733600  1
  H  H5264  1  0.820800  0.319400  0.733600  1
  H  H5265  1  0.772400  0.323000  0.220400  1
  H  H5266  1  0.948000  0.897400  0.220400  1
  H  H5267  1  0.602600  0.552000  0.279600  1
  H  H5268  1  0.177000  0.727600  0.279600  1
  H  H5269  1  0.227600  0.677000  0.779600  1
  H  H5270  1  0.052000  0.102600  0.779600  1
  H  H5271  1  0.397400  0.448000  0.720400  1
  H  H5272  1  0.823000  0.272400  0.720400  1
  H  H5273  1  0.849700  0.294900  0.212400  1
  H  H5274  1  0.862700  0.917500  0.212400  1
  H  H5275  1  0.582500  0.637300  0.287600  1
  H  H5276  1  0.205100  0.650300  0.287600  1
  H  H5277  1  0.150300  0.705100  0.787600  1
  H  H5278  1  0.137300  0.082500  0.787600  1
  H  H5279  1  0.417500  0.362700  0.712400  1
  H  H5280  1  0.794900  0.349700  0.712400  1
  H  H5281  1  0.848000  0.229000  0.133000  1
  H  H5282  1  0.785000  0.904000  0.133000  1
  H  H5283  1  0.596000  0.715000  0.367000  1
  H  H5284  1  0.271000  0.652000  0.367000  1
  H  H5285  1  0.152000  0.771000  0.867000  1
  H  H5286  1  0.215000  0.096000  0.867000  1
  H  H5287  1  0.404000  0.285000  0.633000  1
  H  H5288  1  0.729000  0.348000  0.633000  1
  H  H5289  1  0.895800  0.224000  0.143600  1
  H  H5290  1  0.747800  0.919600  0.143600  1
  H  H5291  1  0.580400  0.752200  0.356400  1
  H  H5292  1  0.276000  0.604200  0.356400  1
  H  H5293  1  0.104200  0.776000  0.856400  1
  H  H5294  1  0.252200  0.080400  0.856400  1
  H  H5295  1  0.419600  0.247800  0.643600  1
  H  H5296  1  0.724000  0.395800  0.643600  1
  H  H5297  1  0.928800  0.269600  0.244000  1
  H  H5298  1  0.815200  0.974400  0.244000  1
  H  H5299  1  0.525600  0.684800  0.256000  1
  H  H5300  1  0.230400  0.571200  0.256000  1
  H  H5301  1  0.071200  0.730400  0.756000  1
  H  H5302  1  0.184800  0.025600  0.756000  1
  H  H5303  1  0.474400  0.315200  0.744000  1
  H  H5304  1  0.769600  0.428800  0.744000  1
  H  H5305  1  0.879700  0.266900  0.231200  1
  H  H5306  1  0.851500  0.964300  0.231200  1
  H  H5307  1  0.535700  0.648500  0.268800  1
  H  H5308  1  0.233100  0.620300  0.268800  1
  H  H5309  1  0.120300  0.733100  0.768800  1
  H  H5310  1  0.148500  0.035700  0.768800  1
  H  H5311  1  0.464300  0.351500  0.731200  1
  H  H5312  1  0.766900  0.379700  0.731200  1
  H  H5313  1  0.956600  0.253600  0.196200  1
  H  H5314  1  0.739600  0.942600  0.196200  1
  H  H5315  1  0.557400  0.760400  0.303800  1
  H  H5316  1  0.246400  0.543400  0.303800  1
  H  H5317  1  0.043400  0.746400  0.803800  1
  H  H5318  1  0.260400  0.057400  0.803800  1
  H  H5319  1  0.442600  0.239600  0.696200  1
  H  H5320  1  0.753600  0.456600  0.696200  1
  H  H5321  1  0.943900  0.219900  0.187200  1
  H  H5322  1  0.743300  0.967300  0.187200  1
  H  H5323  1  0.532700  0.756700  0.312800  1
  H  H5324  1  0.280100  0.556100  0.312800  1
  H  H5325  1  0.056100  0.780100  0.812800  1
  H  H5326  1  0.256700  0.032700  0.812800  1
  H  H5327  1  0.467300  0.243300  0.687200  1
  H  H5328  1  0.719900  0.443900  0.687200  1
  H  H5329  1  0.960300  0.248100  0.224400  1
  H  H5330  1  0.764100  0.976300  0.224400  1
  H  H5331  1  0.523700  0.735900  0.275600  1
  H  H5332  1  0.251900  0.539700  0.275600  1
  H  H5333  1  0.039700  0.751900  0.775600  1
  H  H5334  1  0.235900  0.023700  0.775600  1
  H  H5335  1  0.476300  0.264100  0.724400  1
  H  H5336  1  0.748100  0.460300  0.724400  1
  H  H5337  1  0.548500  0.118900  0.022600  1
  H  H5338  1  0.974100  0.903700  0.022600  1
  H  H5339  1  0.596300  0.525900  0.477400  1
  H  H5340  1  0.381100  0.951500  0.477400  1
  H  H5341  1  0.451500  0.881100  0.977400  1
  H  H5342  1  0.025900  0.096300  0.977400  1
  H  H5343  1  0.403700  0.474100  0.522600  1
  H  H5344  1  0.618900  0.048500  0.522600  1
  H  H5345  1  0.548700  0.143300  0.053800  1
  H  H5346  1  0.005100  0.910500  0.053800  1
  H  H5347  1  0.589500  0.494900  0.446200  1
  H  H5348  1  0.356700  0.951300  0.446200  1
  H  H5349  1  0.451300  0.856700  0.946200  1
  H  H5350  1  0.994900  0.089500  0.946200  1
  H  H5351  1  0.410500  0.505100  0.553800  1
  H  H5352  1  0.643300  0.048700  0.553800  1
  H  H5353  1  0.575200  0.130400  0.059200  1
  H  H5354  1  0.984000  0.928800  0.059200  1
  H  H5355  1  0.571200  0.516000  0.440800  1
  H  H5356  1  0.369600  0.924800  0.440800  1
  H  H5357  1  0.424800  0.869600  0.940800  1
  H  H5358  1  0.016000  0.071200  0.940800  1
  H  H5359  1  0.428800  0.484000  0.559200  1
  H  H5360  1  0.630400  0.075200  0.559200  1
  H  H5361  1  0.600100  0.138300  0.028200  1
  H  H5362  1  0.928100  0.889900  0.028200  1
  H  H5363  1  0.610100  0.571900  0.471800  1
  H  H5364  1  0.361700  0.899900  0.471800  1
  H  H5365  1  0.399900  0.861700  0.971800  1
  H  H5366  1  0.071900  0.110100  0.971800  1
  H  H5367  1  0.389900  0.428100  0.528200  1
  H  H5368  1  0.638300  0.100100  0.528200  1
  H  H5369  1  0.631500  0.177900  0.032800  1
  H  H5370  1  0.901300  0.854900  0.032800  1
  H  H5371  1  0.645100  0.598700  0.467200  1
  H  H5372  1  0.322100  0.868500  0.467200  1
  H  H5373  1  0.368500  0.822100  0.967200  1
  H  H5374  1  0.098700  0.145100  0.967200  1
  H  H5375  1  0.354900  0.401300  0.532800  1
  H  H5376  1  0.677900  0.131500  0.532800  1
  H  H5377  1  0.595500  0.233300  0.072000  1
  H  H5378  1  0.976500  0.838700  0.072000  1
  H  H5379  1  0.661300  0.523500  0.428000  1
  H  H5380  1  0.266700  0.904500  0.428000  1
  H  H5381  1  0.404500  0.766700  0.928000  1
  H  H5382  1  0.023500  0.161300  0.928000  1
  H  H5383  1  0.338700  0.476500  0.572000  1
  H  H5384  1  0.733300  0.095500  0.572000  1
  H  H5385  1  0.563900  0.193900  0.069000  1
  H  H5386  1  0.005100  0.875100  0.069000  1
  H  H5387  1  0.624900  0.494900  0.431000  1
  H  H5388  1  0.306100  0.936100  0.431000  1
  H  H5389  1  0.436100  0.806100  0.931000  1
  H  H5390  1  0.994900  0.124900  0.931000  1
  H  H5391  1  0.375100  0.505100  0.569000  1
  H  H5392  1  0.693900  0.063900  0.569000  1
  H  H5393  1  0.635600  0.205600  0.018600  1
  H  H5394  1  0.883000  0.813000  0.018600  1
  H  H5395  1  0.687000  0.617000  0.481400  1
  H  H5396  1  0.294400  0.864400  0.481400  1
  H  H5397  1  0.364400  0.794400  0.981400  1
  H  H5398  1  0.117000  0.187000  0.981400  1
  H  H5399  1  0.313000  0.383000  0.518600  1
  H  H5400  1  0.705600  0.135600  0.518600  1
  H  H5401  1  0.694900  0.321100  0.082200  1
  H  H5402  1  0.887300  0.761100  0.082200  1
  H  H5403  1  0.738900  0.612700  0.417800  1
  H  H5404  1  0.178900  0.805100  0.417800  1
  H  H5405  1  0.305100  0.678900  0.917800  1
  H  H5406  1  0.112700  0.238900  0.917800  1
  H  H5407  1  0.261100  0.387300  0.582200  1
  H  H5408  1  0.821100  0.194900  0.582200  1
  H  H5409  1  0.698200  0.262600  0.006200  1
  H  H5410  1  0.808000  0.743600  0.006200  1
  H  H5411  1  0.756400  0.692000  0.493800  1
  H  H5412  1  0.237400  0.801800  0.493800  1
  H  H5413  1  0.301800  0.737400  0.993800  1
  H  H5414  1  0.192000  0.256400  0.993800  1
  H  H5415  1  0.243600  0.308000  0.506200  1
  H  H5416  1  0.762600  0.198200  0.506200  1
  H  H5417  1  0.666200  0.222600  0.998600  1
  H  H5418  1  0.832400  0.776000  0.998600  1
  H  H5419  1  0.724000  0.667600  0.501400  1
  H  H5420  1  0.277400  0.833800  0.501400  1
  H  H5421  1  0.333800  0.777400  0.001400  1
  H  H5422  1  0.167600  0.224000  0.001400  1
  H  H5423  1  0.276000  0.332400  0.498600  1
  H  H5424  1  0.722600  0.166200  0.498600  1
  H  H5425  1  0.712600  0.354400  0.078200  1
  H  H5426  1  0.865600  0.723800  0.078200  1
  H  H5427  1  0.776200  0.634400  0.421800  1
  H  H5428  1  0.145600  0.787400  0.421800  1
  H  H5429  1  0.287400  0.645600  0.921800  1
  H  H5430  1  0.134400  0.276200  0.921800  1
  H  H5431  1  0.223800  0.365600  0.578200  1
  H  H5432  1  0.854400  0.212600  0.578200  1
  H  H5433  1  0.774100  0.337300  0.036200  1
  H  H5434  1  0.762100  0.698900  0.036200  1
  H  H5435  1  0.801100  0.737900  0.463800  1
  H  H5436  1  0.162700  0.725900  0.463800  1
  H  H5437  1  0.225900  0.662700  0.963800  1
  H  H5438  1  0.237900  0.301100  0.963800  1
  H  H5439  1  0.198900  0.262100  0.536200  1
  H  H5440  1  0.837300  0.274100  0.536200  1
  H  H5441  1  0.738800  0.295400  0.024800  1
  H  H5442  1  0.786000  0.729400  0.024800  1
  H  H5443  1  0.770600  0.714000  0.475200  1
  H  H5444  1  0.204600  0.761200  0.475200  1
  H  H5445  1  0.261200  0.704600  0.975200  1
  H  H5446  1  0.214000  0.270600  0.975200  1
  H  H5447  1  0.229400  0.286000  0.524800  1
  H  H5448  1  0.795400  0.238800  0.524800  1
  H  H5449  1  0.795700  0.395500  0.062600  1
  H  H5450  1  0.766900  0.667100  0.062600  1
  H  H5451  1  0.832900  0.733100  0.437400  1
  H  H5452  1  0.104500  0.704300  0.437400  1
  H  H5453  1  0.204300  0.604500  0.937400  1
  H  H5454  1  0.233100  0.332900  0.937400  1
  H  H5455  1  0.167100  0.266900  0.562600  1
  H  H5456  1  0.895500  0.295700  0.562600  1
  H  H5457  1  0.779100  0.470900  0.094200  1
  H  H5458  1  0.815100  0.623300  0.094200  1
  H  H5459  1  0.876700  0.684900  0.405800  1
  H  H5460  1  0.029100  0.720900  0.405800  1
  H  H5461  1  0.220900  0.529100  0.905800  1
  H  H5462  1  0.184900  0.376700  0.905800  1
  H  H5463  1  0.123300  0.315100  0.594200  1
  H  H5464  1  0.970900  0.279100  0.594200  1
  H  H5465  1  0.814200  0.513800  0.108600  1
  H  H5466  1  0.794400  0.594800  0.108600  1
  H  H5467  1  0.905200  0.705600  0.391400  1
  H  H5468  1  0.986200  0.685800  0.391400  1
  H  H5469  1  0.185800  0.486200  0.891400  1
  H  H5470  1  0.205600  0.405200  0.891400  1
  H  H5471  1  0.094800  0.294400  0.608600  1
  H  H5472  1  0.013800  0.314200  0.608600  1
  H  H5473  1  0.877200  0.475800  0.121600  1
  H  H5474  1  0.744400  0.645800  0.121600  1
  H  H5475  1  0.854200  0.755600  0.378400  1
  H  H5476  1  0.024200  0.622800  0.378400  1
  H  H5477  1  0.122800  0.524200  0.878400  1
  H  H5478  1  0.255600  0.354200  0.878400  1
  H  H5479  1  0.145800  0.244400  0.621600  1
  H  H5480  1  0.975800  0.377200  0.621600  1
  H  H5481  1  0.842100  0.432900  0.107200  1
  H  H5482  1  0.765100  0.674300  0.107200  1
  H  H5483  1  0.825700  0.734900  0.392800  1
  H  H5484  1  0.067100  0.657900  0.392800  1
  H  H5485  1  0.157900  0.567100  0.892800  1
  H  H5486  1  0.234900  0.325700  0.892800  1
  H  H5487  1  0.174300  0.265100  0.607200  1
  H  H5488  1  0.932900  0.342100  0.607200  1
  H  H5489  1  0.852500  0.539900  0.116000  1
  H  H5490  1  0.763500  0.576100  0.116000  1
  H  H5491  1  0.923900  0.736500  0.384000  1
  H  H5492  1  0.960100  0.647500  0.384000  1
  H  H5493  1  0.147500  0.460100  0.884000  1
  H  H5494  1  0.236500  0.423900  0.884000  1
  H  H5495  1  0.076100  0.263500  0.616000  1
  H  H5496  1  0.039900  0.352500  0.616000  1
  H  H5497  1  0.870300  0.522100  0.101800  1
  H  H5498  1  0.731500  0.579700  0.101800  1
  H  H5499  1  0.920300  0.768500  0.398200  1
  H  H5500  1  0.977900  0.629700  0.398200  1
  H  H5501  1  0.129700  0.477900  0.898200  1
  H  H5502  1  0.268500  0.420300  0.898200  1
  H  H5503  1  0.079700  0.231500  0.601800  1
  H  H5504  1  0.022100  0.370300  0.601800  1
  H  H5505  1  0.884800  0.541600  0.140800  1
  H  H5506  1  0.756000  0.599200  0.140800  1
  H  H5507  1  0.900800  0.744000  0.359200  1
  H  H5508  1  0.958400  0.615200  0.359200  1
  H  H5509  1  0.115200  0.458400  0.859200  1
  H  H5510  1  0.244000  0.400800  0.859200  1
  H  H5511  1  0.099200  0.256000  0.640800  1
  H  H5512  1  0.041600  0.384800  0.640800  1
  H  H5513  1  0.669000  0.090200  0.098800  1
  H  H5514  1  0.929800  0.008600  0.098800  1
  H  H5515  1  0.491400  0.570200  0.401200  1
  H  H5516  1  0.409800  0.831000  0.401200  1
  H  H5517  1  0.331000  0.909800  0.901200  1
  H  H5518  1  0.070200  0.991400  0.901200  1
  H  H5519  1  0.508600  0.429800  0.598800  1
  H  H5520  1  0.590200  0.169000  0.598800  1
  H  H5521  1  0.640400  0.090600  0.071200  1
  H  H5522  1  0.930800  0.980600  0.071200  1
  H  H5523  1  0.519400  0.569200  0.428800  1
  H  H5524  1  0.409400  0.859600  0.428800  1
  H  H5525  1  0.359600  0.909400  0.928800  1
  H  H5526  1  0.069200  0.019400  0.928800  1
  H  H5527  1  0.480600  0.430800  0.571200  1
  H  H5528  1  0.590600  0.140400  0.571200  1
  H  H5529  1  0.653800  0.113800  0.109600  1
  H  H5530  1  0.955800  0.995800  0.109600  1
  H  H5531  1  0.504200  0.544200  0.390400  1
  H  H5532  1  0.386200  0.846200  0.390400  1
  H  H5533  1  0.346200  0.886200  0.890400  1
  H  H5534  1  0.044200  0.004200  0.890400  1
  H  H5535  1  0.495800  0.455800  0.609600  1
  H  H5536  1  0.613800  0.153800  0.609600  1
  H  H5537  1  0.713200  0.109200  0.103600  1
  H  H5538  1  0.890400  0.994400  0.103600  1
  H  H5539  1  0.505600  0.609600  0.396400  1
  H  H5540  1  0.390800  0.786800  0.396400  1
  H  H5541  1  0.286800  0.890800  0.896400  1
  H  H5542  1  0.109600  0.005600  0.896400  1
  H  H5543  1  0.494400  0.390400  0.603600  1
  H  H5544  1  0.609200  0.213200  0.603600  1
  H  H5545  1  0.747300  0.146100  0.109000  1
  H  H5546  1  0.861700  0.962900  0.109000  1
  H  H5547  1  0.537100  0.638300  0.391000  1
  H  H5548  1  0.353900  0.752700  0.391000  1
  H  H5549  1  0.252700  0.853900  0.891000  1
  H  H5550  1  0.138300  0.037100  0.891000  1
  H  H5551  1  0.462900  0.361700  0.609000  1
  H  H5552  1  0.646100  0.247300  0.609000  1
  H  H5553  1  0.682500  0.177500  0.079400  1
  H  H5554  1  0.896900  0.901900  0.079400  1
  H  H5555  1  0.598100  0.603100  0.420600  1
  H  H5556  1  0.322500  0.817500  0.420600  1
  H  H5557  1  0.317500  0.822500  0.920600  1
  H  H5558  1  0.103100  0.098100  0.920600  1
  H  H5559  1  0.401900  0.396900  0.579400  1
  H  H5560  1  0.677500  0.182500  0.579400  1
  H  H5561  1  0.650300  0.142900  0.077600  1
  H  H5562  1  0.927300  0.934700  0.077600  1
  H  H5563  1  0.565300  0.572700  0.422400  1
  H  H5564  1  0.357100  0.849700  0.422400  1
  H  H5565  1  0.349700  0.857100  0.922400  1
  H  H5566  1  0.072700  0.065300  0.922400  1
  H  H5567  1  0.434700  0.427300  0.577600  1
  H  H5568  1  0.642900  0.150300  0.577600  1
  H  H5569  1  0.709800  0.177400  0.054400  1
  H  H5570  1  0.844600  0.877000  0.054400  1
  H  H5571  1  0.623000  0.655400  0.445600  1
  H  H5572  1  0.322600  0.790200  0.445600  1
  H  H5573  1  0.290200  0.822600  0.945600  1
  H  H5574  1  0.155400  0.123000  0.945600  1
  H  H5575  1  0.377000  0.344600  0.554400  1
  H  H5576  1  0.677400  0.209800  0.554400  1
  H  H5577  1  0.816600  0.259400  0.118000  1
  H  H5578  1  0.801400  0.858600  0.118000  1
  H  H5579  1  0.641400  0.698600  0.382000  1
  H  H5580  1  0.240600  0.683400  0.382000  1
  H  H5581  1  0.183400  0.740600  0.882000  1
  H  H5582  1  0.198600  0.141400  0.882000  1
  H  H5583  1  0.358600  0.301400  0.618000  1
  H  H5584  1  0.759400  0.316600  0.618000  1
  H  H5585  1  0.749500  0.245100  0.033400  1
  H  H5586  1  0.783900  0.788300  0.033400  1
  H  H5587  1  0.711700  0.716100  0.466600  1
  H  H5588  1  0.254900  0.750500  0.466600  1
  H  H5589  1  0.250500  0.754900  0.966600  1
  H  H5590  1  0.216100  0.211700  0.966600  1
  H  H5591  1  0.288300  0.283900  0.533400  1
  H  H5592  1  0.745100  0.249500  0.533400  1
  H  H5593  1  0.717900  0.206900  0.029400  1
  H  H5594  1  0.811500  0.822500  0.029400  1
  H  H5595  1  0.677500  0.688500  0.470600  1
  H  H5596  1  0.293100  0.782100  0.470600  1
  H  H5597  1  0.282100  0.793100  0.970600  1
  H  H5598  1  0.188500  0.177500  0.970600  1
  H  H5599  1  0.322500  0.311500  0.529400  1
  H  H5600  1  0.706900  0.217900  0.529400  1
  H  H5601  1  0.840800  0.300000  0.129000  1
  H  H5602  1  0.788200  0.829000  0.129000  1
  H  H5603  1  0.671000  0.711800  0.371000  1
  H  H5604  1  0.200000  0.659200  0.371000  1
  H  H5605  1  0.159200  0.700000  0.871000  1
  H  H5606  1  0.211800  0.171000  0.871000  1
  H  H5607  1  0.329000  0.288200  0.629000  1
  H  H5608  1  0.800000  0.340800  0.629000  1
  H  H5609  1  0.817500  0.308100  0.038000  1
  H  H5610  1  0.720500  0.729900  0.038000  1
  H  H5611  1  0.770100  0.779500  0.462000  1
  H  H5612  1  0.191900  0.682500  0.462000  1
  H  H5613  1  0.182500  0.691900  0.962000  1
  H  H5614  1  0.279500  0.270100  0.962000  1
  H  H5615  1  0.229900  0.220500  0.538000  1
  H  H5616  1  0.808100  0.317500  0.538000  1
  H  H5617  1  0.784200  0.270000  0.033400  1
  H  H5618  1  0.749200  0.763400  0.033400  1
  H  H5619  1  0.736600  0.750800  0.466600  1
  H  H5620  1  0.230000  0.715800  0.466600  1
  H  H5621  1  0.215800  0.730000  0.966600  1
  H  H5622  1  0.250800  0.236600  0.966600  1
  H  H5623  1  0.263400  0.249200  0.533400  1
  H  H5624  1  0.770000  0.284200  0.533400  1
  H  H5625  1  0.866900  0.355300  0.077600  1
  H  H5626  1  0.710700  0.722300  0.077600  1
  H  H5627  1  0.777700  0.789300  0.422400  1
  H  H5628  1  0.144700  0.633100  0.422400  1
  H  H5629  1  0.133100  0.644700  0.922400  1
  H  H5630  1  0.289300  0.277700  0.922400  1
  H  H5631  1  0.222300  0.210700  0.577600  1
  H  H5632  1  0.855300  0.366900  0.577600  1
  H  H5633  1  0.945700  0.372300  0.127200  1
  H  H5634  1  0.681500  0.754900  0.127200  1
  H  H5635  1  0.745100  0.818500  0.372800  1
  H  H5636  1  0.127700  0.554300  0.372800  1
  H  H5637  1  0.054300  0.627700  0.872800  1
  H  H5638  1  0.318500  0.245100  0.872800  1
  H  H5639  1  0.254900  0.181500  0.627200  1
  H  H5640  1  0.872300  0.445700  0.627200  1
  H  H5641  1  0.981300  0.410300  0.135200  1
  H  H5642  1  0.653900  0.724900  0.135200  1
  H  H5643  1  0.775100  0.846100  0.364800  1
  H  H5644  1  0.089700  0.518700  0.364800  1
  H  H5645  1  0.018700  0.589700  0.864800  1
  H  H5646  1  0.346100  0.275100  0.864800  1
  H  H5647  1  0.224900  0.153900  0.635200  1
  H  H5648  1  0.910300  0.481300  0.635200  1
  H  H5649  1  0.929500  0.460700  0.139200  1
  H  H5650  1  0.709700  0.678500  0.139200  1
  H  H5651  1  0.821500  0.790300  0.360800  1
  H  H5652  1  0.039300  0.570500  0.360800  1
  H  H5653  1  0.070500  0.539300  0.860800  1
  H  H5654  1  0.290300  0.321500  0.860800  1
  H  H5655  1  0.178500  0.209700  0.639200  1
  H  H5656  1  0.960700  0.429500  0.639200  1
  H  H5657  1  0.893800  0.422600  0.131000  1
  H  H5658  1  0.737200  0.708400  0.131000  1
  H  H5659  1  0.791600  0.762800  0.369000  1
  H  H5660  1  0.077400  0.606200  0.369000  1
  H  H5661  1  0.106200  0.577400  0.869000  1
  H  H5662  1  0.262800  0.291600  0.869000  1
  H  H5663  1  0.208400  0.237200  0.631000  1
  H  H5664  1  0.922600  0.393800  0.631000  1
  H  H5665  1  0.957400  0.478400  0.138000  1
  H  H5666  1  0.680600  0.659600  0.138000  1
  H  H5667  1  0.840400  0.819400  0.362000  1
  H  H5668  1  0.021600  0.542600  0.362000  1
  H  H5669  1  0.042600  0.521600  0.862000  1
  H  H5670  1  0.319400  0.340400  0.862000  1
  H  H5671  1  0.159600  0.180600  0.638000  1
  H  H5672  1  0.978400  0.457400  0.638000  1
  H  H5673  1  0.976500  0.463500  0.123600  1
  H  H5674  1  0.647100  0.660100  0.123600  1
  H  H5675  1  0.839900  0.852900  0.376400  1
  H  H5676  1  0.036500  0.523500  0.376400  1
  H  H5677  1  0.023500  0.536500  0.876400  1
  H  H5678  1  0.352900  0.339900  0.876400  1
  H  H5679  1  0.160100  0.147100  0.623600  1
  H  H5680  1  0.963500  0.476500  0.623600  1
  H  H5681  1  0.990900  0.482300  0.162600  1
  H  H5682  1  0.671700  0.680300  0.162600  1
  H  H5683  1  0.819700  0.828300  0.337400  1
  H  H5684  1  0.017700  0.509100  0.337400  1
  H  H5685  1  0.009100  0.517700  0.837400  1
  H  H5686  1  0.328300  0.319700  0.837400  1
  H  H5687  1  0.180300  0.171700  0.662600  1
  H  H5688  1  0.982300  0.490900  0.662600  1
  H  H5689  1  0.969600  0.190200  0.088000  1
  H  H5690  1  0.618400  0.897800  0.088000  1
  H  H5691  1  0.602200  0.881600  0.412000  1
  H  H5692  1  0.309800  0.530400  0.412000  1
  H  H5693  1  0.030400  0.809800  0.912000  1
  H  H5694  1  0.381600  0.102200  0.912000  1
  H  H5695  1  0.397800  0.118400  0.588000  1
  H  H5696  1  0.690200  0.469600  0.588000  1
  H  H5697  1  0.956200  0.154000  0.065000  1
  H  H5698  1  0.608800  0.911000  0.065000  1
  H  H5699  1  0.589000  0.891200  0.435000  1
  H  H5700  1  0.346000  0.543800  0.435000  1
  H  H5701  1  0.043800  0.846000  0.935000  1
  H  H5702  1  0.391200  0.089000  0.935000  1
  H  H5703  1  0.411000  0.108800  0.565000  1
  H  H5704  1  0.654000  0.456200  0.565000  1
  H  H5705  1  0.940800  0.170800  0.083600  1
  H  H5706  1  0.642800  0.912800  0.083600  1
  H  H5707  1  0.587200  0.857200  0.416400  1
  H  H5708  1  0.329200  0.559200  0.416400  1
  H  H5709  1  0.059200  0.829200  0.916400  1
  H  H5710  1  0.357200  0.087200  0.916400  1
  H  H5711  1  0.412800  0.142800  0.583600  1
  H  H5712  1  0.670800  0.440800  0.583600  1
  H  H5713  1  0.912000  0.198800  0.062200  1
  H  H5714  1  0.650200  0.863400  0.062200  1
  H  H5715  1  0.636600  0.849800  0.437800  1
  H  H5716  1  0.301200  0.588000  0.437800  1
  H  H5717  1  0.088000  0.801200  0.937800  1
  H  H5718  1  0.349800  0.136600  0.937800  1
  H  H5719  1  0.363400  0.150200  0.562200  1
  H  H5720  1  0.698800  0.412000  0.562200  1
  H  H5721  1  0.880500  0.200100  0.016800  1
  H  H5722  1  0.636300  0.816700  0.016800  1
  H  H5723  1  0.683300  0.863700  0.483200  1
  H  H5724  1  0.299900  0.619500  0.483200  1
  H  H5725  1  0.119500  0.799900  0.983200  1
  H  H5726  1  0.363700  0.183300  0.983200  1
  H  H5727  1  0.316700  0.136300  0.516800  1
  H  H5728  1  0.700100  0.380500  0.516800  1
  H  H5729  1  0.911000  0.151000  0.965800  1
  H  H5730  1  0.554800  0.814800  0.965800  1
  H  H5731  1  0.685200  0.945200  0.534200  1
  H  H5732  1  0.349000  0.589000  0.534200  1
  H  H5733  1  0.089000  0.849000  0.034200  1
  H  H5734  1  0.445200  0.185200  0.034200  1
  H  H5735  1  0.314800  0.054800  0.465800  1
  H  H5736  1  0.651000  0.411000  0.465800  1
  H  H5737  1  0.943500  0.149700  0.011600  1
  H  H5738  1  0.568100  0.861900  0.011600  1
  H  H5739  1  0.638100  0.931900  0.488400  1
  H  H5740  1  0.350300  0.556500  0.488400  1
  H  H5741  1  0.056500  0.850300  0.988400  1
  H  H5742  1  0.431900  0.138100  0.988400  1
  H  H5743  1  0.361900  0.068100  0.511600  1
  H  H5744  1  0.649700  0.443500  0.511600  1
  H  H5745  1  0.865400  0.141600  0.928000  1
  H  H5746  1  0.562600  0.786400  0.928000  1
  H  H5747  1  0.713600  0.937400  0.572000  1
  H  H5748  1  0.358400  0.634600  0.572000  1
  H  H5749  1  0.134600  0.858400  0.072000  1
  H  H5750  1  0.437400  0.213600  0.072000  1
  H  H5751  1  0.286400  0.062600  0.428000  1
  H  H5752  1  0.641600  0.365400  0.428000  1
  H  H5753  1  0.826600  0.216400  0.898200  1
  H  H5754  1  0.571600  0.681800  0.898200  1
  H  H5755  1  0.818200  0.928400  0.601800  1
  H  H5756  1  0.283600  0.673400  0.601800  1
  H  H5757  1  0.173400  0.783600  0.101800  1
  H  H5758  1  0.428400  0.318200  0.101800  1
  H  H5759  1  0.181800  0.071600  0.398200  1
  H  H5760  1  0.716400  0.326600  0.398200  1
  H  H5761  1  0.812300  0.136500  0.827200  1
  H  H5762  1  0.514900  0.690700  0.827200  1
  H  H5763  1  0.809300  0.985100  0.672800  1
  H  H5764  1  0.363500  0.687700  0.672800  1
  H  H5765  1  0.187700  0.863500  0.172800  1
  H  H5766  1  0.485100  0.309300  0.172800  1
  H  H5767  1  0.190700  0.014900  0.327200  1
  H  H5768  1  0.636500  0.312300  0.327200  1
  H  H5769  1  0.837700  0.123700  0.866600  1
  H  H5770  1  0.528900  0.742900  0.866600  1
  H  H5771  1  0.757100  0.971100  0.633400  1
  H  H5772  1  0.376300  0.662300  0.633400  1
  H  H5773  1  0.162300  0.876300  0.133400  1
  H  H5774  1  0.471100  0.257100  0.133400  1
  H  H5775  1  0.242900  0.028900  0.366600  1
  H  H5776  1  0.623700  0.337700  0.366600  1
  H  H5777  1  0.778800  0.206400  0.857800  1
  H  H5778  1  0.579000  0.651400  0.857800  1
  H  H5779  1  0.848600  0.921000  0.642200  1
  H  H5780  1  0.293600  0.721200  0.642200  1
  H  H5781  1  0.221200  0.793600  0.142200  1
  H  H5782  1  0.421000  0.348600  0.142200  1
  H  H5783  1  0.151400  0.079000  0.357800  1
  H  H5784  1  0.706400  0.278800  0.357800  1
  H  H5785  1  0.782000  0.175200  0.765400  1
  H  H5786  1  0.483400  0.590200  0.765400  1
  H  H5787  1  0.909800  0.016600  0.734600  1
  H  H5788  1  0.324800  0.718000  0.734600  1
  H  H5789  1  0.218000  0.824800  0.234600  1
  H  H5790  1  0.516600  0.409800  0.234600  1
  H  H5791  1  0.090200  0.983400  0.265400  1
  H  H5792  1  0.675200  0.282000  0.265400  1
  H  H5793  1  0.811500  0.164100  0.803000  1
  H  H5794  1  0.491500  0.638900  0.803000  1
  H  H5795  1  0.861100  0.008500  0.697000  1
  H  H5796  1  0.335900  0.688500  0.697000  1
  H  H5797  1  0.188500  0.835900  0.197000  1
  H  H5798  1  0.508500  0.361100  0.197000  1
  H  H5799  1  0.138900  0.991500  0.303000  1
  H  H5800  1  0.664100  0.311500  0.303000  1
  H  H5801  1  0.742900  0.200100  0.748800  1
  H  H5802  1  0.505900  0.548700  0.748800  1
  H  H5803  1  0.951300  0.994100  0.751200  1
  H  H5804  1  0.299900  0.757100  0.751200  1
  H  H5805  1  0.257100  0.799900  0.251200  1
  H  H5806  1  0.494100  0.451300  0.251200  1
  H  H5807  1  0.048700  0.005900  0.248800  1
  H  H5808  1  0.700100  0.242900  0.248800  1
  H  H5809  1  0.719600  0.269600  0.794000  1
  H  H5810  1  0.574400  0.524400  0.794000  1
  H  H5811  1  0.975600  0.925600  0.706000  1
  H  H5812  1  0.230400  0.780400  0.706000  1
  H  H5813  1  0.280400  0.730400  0.206000  1
  H  H5814  1  0.425600  0.475600  0.206000  1
  H  H5815  1  0.024400  0.074400  0.294000  1
  H  H5816  1  0.769600  0.219600  0.294000  1
  H  H5817  1  0.690500  0.285100  0.754600  1
  H  H5818  1  0.564100  0.469500  0.754600  1
  H  H5819  1  0.030500  0.935900  0.745400  1
  H  H5820  1  0.214900  0.809500  0.745400  1
  H  H5821  1  0.309500  0.714900  0.245400  1
  H  H5822  1  0.435900  0.530500  0.245400  1
  H  H5823  1  0.969500  0.064100  0.254600  1
  H  H5824  1  0.785100  0.190500  0.254600  1
  H  H5825  1  0.656000  0.201800  0.676400  1
  H  H5826  1  0.520400  0.474600  0.676400  1
  H  H5827  1  0.025400  0.979600  0.823600  1
  H  H5828  1  0.298200  0.844000  0.823600  1
  H  H5829  1  0.344000  0.798200  0.323600  1
  H  H5830  1  0.479600  0.525400  0.323600  1
  H  H5831  1  0.974600  0.020400  0.176400  1
  H  H5832  1  0.701800  0.156000  0.176400  1
  H  H5833  1  0.691500  0.186900  0.712400  1
  H  H5834  1  0.520900  0.525500  0.712400  1
  H  H5835  1  0.974500  0.979100  0.787600  1
  H  H5836  1  0.313100  0.808500  0.787600  1
  H  H5837  1  0.308500  0.813100  0.287600  1
  H  H5838  1  0.479100  0.474500  0.287600  1
  H  H5839  1  0.025500  0.020900  0.212400  1
  H  H5840  1  0.686900  0.191500  0.212400  1
  H  H5841  1  0.630000  0.239800  0.675800  1
  H  H5842  1  0.545800  0.436000  0.675800  1
  H  H5843  1  0.064000  0.954200  0.824200  1
  H  H5844  1  0.260200  0.870000  0.824200  1
  H  H5845  1  0.370000  0.760200  0.324200  1
  H  H5846  1  0.454200  0.564000  0.324200  1
  H  H5847  1  0.936000  0.045800  0.175800  1
  H  H5848  1  0.739800  0.130000  0.175800  1
  H  H5849  1  0.659500  0.256700  0.679400  1
  H  H5850  1  0.519900  0.422700  0.679400  1
  H  H5851  1  0.077300  0.980100  0.820600  1
  H  H5852  1  0.243300  0.840500  0.820600  1
  H  H5853  1  0.340500  0.743300  0.320600  1
  H  H5854  1  0.480100  0.577300  0.320600  1
  H  H5855  1  0.922700  0.019900  0.179400  1
  H  H5856  1  0.756700  0.159500  0.179400  1
  H  H5857  1  0.650300  0.274700  0.704800  1
  H  H5858  1  0.554500  0.430100  0.704800  1
  H  H5859  1  0.069900  0.945500  0.795200  1
  H  H5860  1  0.225300  0.849700  0.795200  1
  H  H5861  1  0.349700  0.725300  0.295200  1
  H  H5862  1  0.445500  0.569900  0.295200  1
  H  H5863  1  0.930100  0.054500  0.204800  1
  H  H5864  1  0.774700  0.150300  0.204800  1
  H  H5865  1  0.921300  0.146700  0.844400  1
  H  H5866  1  0.423100  0.697700  0.844400  1
  H  H5867  1  0.802300  0.076900  0.655600  1
  H  H5868  1  0.353300  0.578700  0.655600  1
  H  H5869  1  0.078700  0.853300  0.155600  1
  H  H5870  1  0.576900  0.302300  0.155600  1
  H  H5871  1  0.197700  0.923100  0.344400  1
  H  H5872  1  0.646700  0.421300  0.344400  1
  H  H5873  1  0.909100  0.168700  0.833400  1
  H  H5874  1  0.424300  0.664700  0.833400  1
  H  H5875  1  0.835300  0.075700  0.666600  1
  H  H5876  1  0.331300  0.590900  0.666600  1
  H  H5877  1  0.090900  0.831300  0.166600  1
  H  H5878  1  0.575700  0.335300  0.166600  1
  H  H5879  1  0.164700  0.924300  0.333400  1
  H  H5880  1  0.668700  0.409100  0.333400  1
  H  H5881  1  0.885700  0.140300  0.825800  1
  H  H5882  1  0.440100  0.685500  0.825800  1
  H  H5883  1  0.814500  0.059900  0.674200  1
  H  H5884  1  0.359700  0.614300  0.674200  1
  H  H5885  1  0.114300  0.859700  0.174200  1
  H  H5886  1  0.559900  0.314500  0.174200  1
  H  H5887  1  0.185500  0.940100  0.325800  1
  H  H5888  1  0.640300  0.385700  0.325800  1
  H  H5889  1  0.886700  0.200500  0.863400  1
  H  H5890  1  0.476700  0.662900  0.863400  1
  H  H5891  1  0.837100  0.023300  0.636600  1
  H  H5892  1  0.299500  0.613300  0.636600  1
  H  H5893  1  0.113300  0.799500  0.136600  1
  H  H5894  1  0.523300  0.337100  0.136600  1
  H  H5895  1  0.162900  0.976700  0.363400  1
  H  H5896  1  0.700500  0.386700  0.363400  1
  H  H5897  1  0.891800  0.230200  0.913800  1
  H  H5898  1  0.522000  0.683600  0.913800  1
  H  H5899  1  0.816400  0.978000  0.586200  1
  H  H5900  1  0.269800  0.608200  0.586200  1
  H  H5901  1  0.108200  0.769800  0.086200  1
  H  H5902  1  0.478000  0.316400  0.086200  1
  H  H5903  1  0.183600  0.022000  0.413800  1
  H  H5904  1  0.730200  0.391800  0.413800  1
  H  H5905  1  0.935600  0.181200  0.947800  1
  H  H5906  1  0.512200  0.766600  0.947800  1
  H  H5907  1  0.733400  0.987800  0.552200  1
  H  H5908  1  0.318800  0.564400  0.552200  1
  H  H5909  1  0.064400  0.818800  0.052200  1
  H  H5910  1  0.487800  0.233400  0.052200  1
  H  H5911  1  0.266600  0.012200  0.447800  1
  H  H5912  1  0.681200  0.435600  0.447800  1
  H  H5913  1  0.927800  0.154000  0.894600  1
  H  H5914  1  0.466800  0.740600  0.894600  1
  H  H5915  1  0.759400  0.033200  0.605400  1
  H  H5916  1  0.346000  0.572200  0.605400  1
  H  H5917  1  0.072200  0.846000  0.105400  1
  H  H5918  1  0.533200  0.259400  0.105400  1
  H  H5919  1  0.240600  0.966800  0.394600  1
  H  H5920  1  0.654000  0.427800  0.394600  1
  H  H5921  1  0.956800  0.234200  0.992800  1
  H  H5922  1  0.536000  0.758600  0.992800  1
  H  H5923  1  0.741400  0.964000  0.507200  1
  H  H5924  1  0.265800  0.543200  0.507200  1
  H  H5925  1  0.043200  0.765800  0.007200  1
  H  H5926  1  0.464000  0.241400  0.007200  1
  H  H5927  1  0.258600  0.036000  0.492800  1
  H  H5928  1  0.734200  0.456800  0.492800  1
  H  H5929  1  0.890800  0.266200  0.043200  1
  H  H5930  1  0.652400  0.777000  0.043200  1
  H  H5931  1  0.723000  0.847600  0.456800  1
  H  H5932  1  0.233800  0.609200  0.456800  1
  H  H5933  1  0.109200  0.733800  0.956800  1
  H  H5934  1  0.347600  0.223000  0.956800  1
  H  H5935  1  0.277000  0.152400  0.543200  1
  H  H5936  1  0.766200  0.390800  0.543200  1
  H  H5937  1  0.982700  0.285900  0.103800  1
  H  H5938  1  0.621100  0.817900  0.103800  1
  H  H5939  1  0.682100  0.878900  0.396200  1
  H  H5940  1  0.214100  0.517300  0.396200  1
  H  H5941  1  0.017300  0.714100  0.896200  1
  H  H5942  1  0.378900  0.182100  0.896200  1
  H  H5943  1  0.317900  0.121100  0.603800  1
  H  H5944  1  0.785900  0.482700  0.603800  1
  H  H5945  1  0.980700  0.256900  0.054000  1
  H  H5946  1  0.573300  0.797100  0.054000  1
  H  H5947  1  0.702900  0.926700  0.446000  1
  H  H5948  1  0.243100  0.519300  0.446000  1
  H  H5949  1  0.019300  0.743100  0.946000  1
  H  H5950  1  0.426700  0.202900  0.946000  1
  H  H5951  1  0.297100  0.073300  0.554000  1
  H  H5952  1  0.756900  0.480700  0.554000  1
  H  H5953  1  0.909200  0.311200  0.095400  1
  H  H5954  1  0.686200  0.784200  0.095400  1
  H  H5955  1  0.715800  0.813800  0.404600  1
  H  H5956  1  0.188800  0.590800  0.404600  1
  H  H5957  1  0.090800  0.688800  0.904600  1
  H  H5958  1  0.313800  0.215800  0.904600  1
  H  H5959  1  0.284200  0.186200  0.595400  1
  H  H5960  1  0.811200  0.409200  0.595400  1
  H  H5961  1  0.945500  0.277300  0.166200  1
  H  H5962  1  0.720700  0.888900  0.166200  1
  H  H5963  1  0.611100  0.779300  0.333800  1
  H  H5964  1  0.222700  0.554500  0.333800  1
  H  H5965  1  0.054500  0.722700  0.833800  1
  H  H5966  1  0.279300  0.111100  0.833800  1
  H  H5967  1  0.388900  0.220700  0.666200  1
  H  H5968  1  0.777300  0.445500  0.666200  1
  H  H5969  1  0.949700  0.261700  0.120800  1
  H  H5970  1  0.671100  0.859100  0.120800  1
  H  H5971  1  0.640900  0.828900  0.379200  1
  H  H5972  1  0.238300  0.550300  0.379200  1
  H  H5973  1  0.050300  0.738300  0.879200  1
  H  H5974  1  0.328900  0.140900  0.879200  1
  H  H5975  1  0.359100  0.171100  0.620800  1
  H  H5976  1  0.761700  0.449700  0.620800  1
  H  H5977  1  0.918500  0.308100  0.196400  1
  H  H5978  1  0.777900  0.888300  0.196400  1
  H  H5979  1  0.611700  0.722100  0.303600  1
  H  H5980  1  0.191900  0.581500  0.303600  1
  H  H5981  1  0.081500  0.691900  0.803600  1
  H  H5982  1  0.222100  0.111700  0.803600  1
  H  H5983  1  0.388300  0.277900  0.696400  1
  H  H5984  1  0.808100  0.418500  0.696400  1
  H  H5985  1  0.851600  0.342000  0.180600  1
  H  H5986  1  0.829000  0.838600  0.180600  1
  H  H5987  1  0.661400  0.671000  0.319400  1
  H  H5988  1  0.158000  0.648400  0.319400  1
  H  H5989  1  0.148400  0.658000  0.819400  1
  H  H5990  1  0.171000  0.161400  0.819400  1
  H  H5991  1  0.338600  0.329000  0.680600  1
  H  H5992  1  0.842000  0.351600  0.680600  1
  H  H5993  1  0.845300  0.366700  0.224800  1
  H  H5994  1  0.879500  0.858100  0.224800  1
  H  H5995  1  0.641900  0.620500  0.275200  1
  H  H5996  1  0.133300  0.654700  0.275200  1
  H  H5997  1  0.154700  0.633300  0.775200  1
  H  H5998  1  0.120500  0.141900  0.775200  1
  H  H5999  1  0.358100  0.379500  0.724800  1
  H  H6000  1  0.866700  0.345300  0.724800  1
  H  H6001  1  0.924900  0.365300  0.287400  1
  H  H6002  1  0.862500  0.922100  0.287400  1
  H  H6003  1  0.577900  0.637500  0.212600  1
  H  H6004  1  0.134700  0.575100  0.212600  1
  H  H6005  1  0.075100  0.634700  0.712600  1
  H  H6006  1  0.137500  0.077900  0.712600  1
  H  H6007  1  0.422100  0.362500  0.787400  1
  H  H6008  1  0.865300  0.424900  0.787400  1
  H  H6009  1  0.937600  0.353200  0.246800  1
  H  H6010  1  0.809200  0.893600  0.246800  1
  H  H6011  1  0.606400  0.690800  0.253200  1
  H  H6012  1  0.146800  0.562400  0.253200  1
  H  H6013  1  0.062400  0.646800  0.753200  1
  H  H6014  1  0.190800  0.106400  0.753200  1
  H  H6015  1  0.393600  0.309200  0.746800  1
  H  H6016  1  0.853200  0.437600  0.746800  1
  H  H6017  1  0.870700  0.367100  0.290800  1
  H  H6018  1  0.920100  0.923700  0.290800  1
  H  H6019  1  0.576300  0.579900  0.209200  1
  H  H6020  1  0.132900  0.629300  0.209200  1
  H  H6021  1  0.129300  0.632900  0.709200  1
  H  H6022  1  0.079900  0.076300  0.709200  1
  H  H6023  1  0.423700  0.420100  0.790800  1
  H  H6024  1  0.867100  0.370700  0.790800  1
  H  H6025  1  0.863600  0.392400  0.283400  1
  H  H6026  1  0.919800  0.891000  0.283400  1
  H  H6027  1  0.609000  0.580200  0.216600  1
  H  H6028  1  0.107600  0.636400  0.216600  1
  H  H6029  1  0.136400  0.607600  0.716600  1
  H  H6030  1  0.080200  0.109000  0.716600  1
  H  H6031  1  0.391000  0.419800  0.783400  1
  H  H6032  1  0.892400  0.363600  0.783400  1
  H  H6033  1  0.897600  0.398800  0.309800  1
  H  H6034  1  0.912200  0.911000  0.309800  1
  H  H6035  1  0.589000  0.587800  0.190200  1
  H  H6036  1  0.101200  0.602400  0.190200  1
  H  H6037  1  0.102400  0.601200  0.690200  1
  H  H6038  1  0.087800  0.089000  0.690200  1
  H  H6039  1  0.411000  0.412200  0.809800  1
  H  H6040  1  0.898800  0.397600  0.809800  1
  H  H6041  1  0.739100  0.073100  0.719400  1
  H  H6042  1  0.480300  0.646300  0.719400  1
  H  H6043  1  0.853700  0.019700  0.780600  1
  H  H6044  1  0.426900  0.760900  0.780600  1
  H  H6045  1  0.260900  0.926900  0.280600  1
  H  H6046  1  0.519700  0.353700  0.280600  1
  H  H6047  1  0.146300  0.980300  0.219400  1
  H  H6048  1  0.573100  0.239100  0.219400  1
  H  H6049  1  0.713100  0.051100  0.716400  1
  H  H6050  1  0.503300  0.665300  0.716400  1
  H  H6051  1  0.834700  0.996700  0.783600  1
  H  H6052  1  0.448900  0.786900  0.783600  1
  H  H6053  1  0.286900  0.948900  0.283600  1
  H  H6054  1  0.496700  0.334700  0.283600  1
  H  H6055  1  0.165300  0.003300  0.216400  1
  H  H6056  1  0.551100  0.213100  0.216400  1
  H  H6057  1  0.745200  0.072000  0.750800  1
  H  H6058  1  0.505600  0.678800  0.750800  1
  H  H6059  1  0.821200  0.994400  0.749200  1
  H  H6060  1  0.428000  0.754800  0.749200  1
  H  H6061  1  0.254800  0.928000  0.249200  1
  H  H6062  1  0.494400  0.321200  0.249200  1
  H  H6063  1  0.178800  0.005600  0.250800  1
  H  H6064  1  0.572000  0.245200  0.250800  1
  H  H6065  1  0.696300  0.092300  0.698000  1
  H  H6066  1  0.501700  0.605700  0.698000  1
  H  H6067  1  0.894300  0.998300  0.802000  1
  H  H6068  1  0.407700  0.803700  0.802000  1
  H  H6069  1  0.303700  0.907700  0.302000  1
  H  H6070  1  0.498300  0.394300  0.302000  1
  H  H6071  1  0.105700  0.001700  0.198000  1
  H  H6072  1  0.592300  0.196300  0.198000  1
  H  H6073  1  0.681800  0.133200  0.713800  1
  H  H6074  1  0.532000  0.580600  0.713800  1
  H  H6075  1  0.919400  0.968000  0.786200  1
  H  H6076  1  0.366800  0.818200  0.786200  1
  H  H6077  1  0.318200  0.866800  0.286200  1
  H  H6078  1  0.468000  0.419400  0.286200  1
  H  H6079  1  0.080600  0.032000  0.213800  1
  H  H6080  1  0.633200  0.181800  0.213800  1
  H  H6081  1  0.724100  0.150100  0.806600  1
  H  H6082  1  0.582500  0.656500  0.806600  1
  H  H6083  1  0.843500  0.917500  0.693400  1
  H  H6084  1  0.349900  0.775900  0.693400  1
  H  H6085  1  0.275900  0.849900  0.193400  1
  H  H6086  1  0.417500  0.343500  0.193400  1
  H  H6087  1  0.156500  0.082500  0.306600  1
  H  H6088  1  0.650100  0.224100  0.306600  1
  H  H6089  1  0.737500  0.109700  0.789600  1
  H  H6090  1  0.552100  0.679900  0.789600  1
  H  H6091  1  0.820100  0.947900  0.710400  1
  H  H6092  1  0.390300  0.762500  0.710400  1
  H  H6093  1  0.262500  0.890300  0.210400  1
  H  H6094  1  0.447900  0.320100  0.210400  1
  H  H6095  1  0.179900  0.052100  0.289600  1
  H  H6096  1  0.609700  0.237500  0.289600  1
  H  H6097  1  0.649100  0.151100  0.733200  1
  H  H6098  1  0.584100  0.582100  0.733200  1
  H  H6099  1  0.917900  0.915900  0.766800  1
  H  H6100  1  0.348900  0.850900  0.766800  1
  H  H6101  1  0.350900  0.848900  0.266800  1
  H  H6102  1  0.415900  0.417900  0.266800  1
  H  H6103  1  0.082100  0.084100  0.233200  1
  H  H6104  1  0.651100  0.149100  0.233200  1
  H  H6105  1  0.689600  0.265600  0.829600  1
  H  H6106  1  0.640000  0.564000  0.829600  1
  H  H6107  1  0.936000  0.860000  0.670400  1
  H  H6108  1  0.234400  0.810400  0.670400  1
  H  H6109  1  0.310400  0.734400  0.170400  1
  H  H6110  1  0.360000  0.436000  0.170400  1
  H  H6111  1  0.064000  0.140000  0.329600  1
  H  H6112  1  0.765600  0.189600  0.329600  1
  H  H6113  1  0.608400  0.226200  0.748600  1
  H  H6114  1  0.640200  0.522400  0.748600  1
  H  H6115  1  0.977600  0.859800  0.751400  1
  H  H6116  1  0.273800  0.891600  0.751400  1
  H  H6117  1  0.391600  0.773800  0.251400  1
  H  H6118  1  0.359800  0.477600  0.251400  1
  H  H6119  1  0.022400  0.140200  0.248600  1
  H  H6120  1  0.726200  0.108400  0.248600  1
  H  H6121  1  0.616700  0.180500  0.726000  1
  H  H6122  1  0.609300  0.545500  0.726000  1
  H  H6123  1  0.954500  0.890700  0.774000  1
  H  H6124  1  0.319500  0.883300  0.774000  1
  H  H6125  1  0.383300  0.819500  0.274000  1
  H  H6126  1  0.390700  0.454500  0.274000  1
  H  H6127  1  0.045500  0.109300  0.226000  1
  H  H6128  1  0.680500  0.116700  0.226000  1
  H  H6129  1  0.662700  0.285300  0.852600  1
  H  H6130  1  0.689900  0.567300  0.852600  1
  H  H6131  1  0.932700  0.810100  0.647400  1
  H  H6132  1  0.214700  0.837300  0.647400  1
  H  H6133  1  0.337300  0.714700  0.147400  1
  H  H6134  1  0.310100  0.432700  0.147400  1
  H  H6135  1  0.067300  0.189900  0.352600  1
  H  H6136  1  0.785300  0.162700  0.352600  1
  H  H6137  1  0.610500  0.324500  0.793600  1
  H  H6138  1  0.683100  0.469100  0.793600  1
  H  H6139  1  0.030900  0.816900  0.706400  1
  H  H6140  1  0.175500  0.889500  0.706400  1
  H  H6141  1  0.389500  0.675500  0.206400  1
  H  H6142  1  0.316900  0.530900  0.206400  1
  H  H6143  1  0.969100  0.183100  0.293600  1
  H  H6144  1  0.824500  0.110500  0.293600  1
  H  H6145  1  0.619200  0.276000  0.760600  1
  H  H6146  1  0.641400  0.484600  0.760600  1
  H  H6147  1  0.015400  0.858600  0.739400  1
  H  H6148  1  0.224000  0.880800  0.739400  1
  H  H6149  1  0.380800  0.724000  0.239400  1
  H  H6150  1  0.358600  0.515400  0.239400  1
  H  H6151  1  0.984600  0.141400  0.260600  1
  H  H6152  1  0.776000  0.119200  0.260600  1
  H  H6153  1  0.606100  0.356300  0.832200  1
  H  H6154  1  0.726100  0.475900  0.832200  1
  H  H6155  1  0.024100  0.773900  0.667800  1
  H  H6156  1  0.143700  0.893900  0.667800  1
  H  H6157  1  0.393900  0.643700  0.167800  1
  H  H6158  1  0.273900  0.524100  0.167800  1
  H  H6159  1  0.975900  0.226100  0.332200  1
  H  H6160  1  0.856300  0.106100  0.332200  1
  H  H6161  1  0.573500  0.364300  0.852400  1
  H  H6162  1  0.778900  0.488100  0.852400  1
  H  H6163  1  0.011900  0.721100  0.647600  1
  H  H6164  1  0.135700  0.926500  0.647600  1
  H  H6165  1  0.426500  0.635700  0.147600  1
  H  H6166  1  0.221100  0.511900  0.147600  1
  H  H6167  1  0.988100  0.278900  0.352400  1
  H  H6168  1  0.864300  0.073500  0.352400  1
  H  H6169  1  0.557600  0.400600  0.879000  1
  H  H6170  1  0.821400  0.478400  0.879000  1
  H  H6171  1  0.021600  0.678600  0.621000  1
  H  H6172  1  0.099400  0.942400  0.621000  1
  H  H6173  1  0.442400  0.599400  0.121000  1
  H  H6174  1  0.178600  0.521600  0.121000  1
  H  H6175  1  0.978400  0.321400  0.379000  1
  H  H6176  1  0.900600  0.057600  0.379000  1
  H  H6177  1  0.642700  0.446700  0.961200  1
  H  H6178  1  0.818500  0.514500  0.961200  1
  H  H6179  1  0.985500  0.681500  0.538800  1
  H  H6180  1  0.053300  0.857300  0.538800  1
  H  H6181  1  0.357300  0.553300  0.038800  1
  H  H6182  1  0.181500  0.485500  0.038800  1
  H  H6183  1  0.014500  0.318500  0.461200  1
  H  H6184  1  0.946700  0.142700  0.461200  1
  H  H6185  1  0.658600  0.410400  0.934600  1
  H  H6186  1  0.776000  0.524200  0.934600  1
  H  H6187  1  0.975800  0.724000  0.565400  1
  H  H6188  1  0.089600  0.841400  0.565400  1
  H  H6189  1  0.341400  0.589600  0.065400  1
  H  H6190  1  0.224000  0.475800  0.065400  1
  H  H6191  1  0.024200  0.276000  0.434600  1
  H  H6192  1  0.910400  0.158600  0.434600  1
  H  H6193  1  0.583000  0.465200  0.932200  1
  H  H6194  1  0.849200  0.467000  0.932200  1
  H  H6195  1  0.033000  0.650800  0.567800  1
  H  H6196  1  0.034800  0.917000  0.567800  1
  H  H6197  1  0.417000  0.534800  0.067800  1
  H  H6198  1  0.150800  0.533000  0.067800  1
  H  H6199  1  0.967000  0.349200  0.432200  1
  H  H6200  1  0.965200  0.083000  0.432200  1
  H  H6201  1  0.599000  0.463400  0.964200  1
  H  H6202  1  0.865200  0.500800  0.964200  1
  H  H6203  1  0.999200  0.634800  0.535800  1
  H  H6204  1  0.036600  0.901000  0.535800  1
  H  H6205  1  0.401000  0.536600  0.035800  1
  H  H6206  1  0.134800  0.499200  0.035800  1
  H  H6207  1  0.000800  0.365200  0.464200  1
  H  H6208  1  0.963400  0.099000  0.464200  1
  H  H6209  1  0.565100  0.440300  0.934000  1
  H  H6210  1  0.868900  0.493700  0.934000  1
  H  H6211  1  0.006300  0.631100  0.566000  1
  H  H6212  1  0.059700  0.934900  0.566000  1
  H  H6213  1  0.434900  0.559700  0.066000  1
  H  H6214  1  0.131100  0.506300  0.066000  1
  H  H6215  1  0.993700  0.368900  0.434000  1
  H  H6216  1  0.940300  0.065100  0.434000  1
  H  H6217  1  0.520700  0.226700  0.724000  1
  H  H6218  1  0.703300  0.497300  0.724000  1
  H  H6219  1  0.002700  0.796700  0.776000  1
  H  H6220  1  0.273300  0.979300  0.776000  1
  H  H6221  1  0.479300  0.773300  0.276000  1
  H  H6222  1  0.296700  0.502700  0.276000  1
  H  H6223  1  0.997300  0.203300  0.224000  1
  H  H6224  1  0.726700  0.020700  0.224000  1
  H  H6225  1  0.494400  0.214400  0.727800  1
  H  H6226  1  0.733400  0.513400  0.727800  1
  H  H6227  1  0.986600  0.766600  0.772200  1
  H  H6228  1  0.285600  0.005600  0.772200  1
  H  H6229  1  0.505600  0.785600  0.272200  1
  H  H6230  1  0.266600  0.486600  0.272200  1
  H  H6231  1  0.013400  0.233400  0.227800  1
  H  H6232  1  0.714400  0.994400  0.227800  1
  H  H6233  1  0.520600  0.201000  0.732000  1
  H  H6234  1  0.711400  0.531000  0.732000  1
  H  H6235  1  0.969000  0.788600  0.768000  1
  H  H6236  1  0.299000  0.979400  0.768000  1
  H  H6237  1  0.479400  0.799000  0.268000  1
  H  H6238  1  0.288600  0.469000  0.268000  1
  H  H6239  1  0.031000  0.211400  0.232000  1
  H  H6240  1  0.701000  0.020600  0.232000  1
  H  H6241  1  0.506500  0.266500  0.776200  1
  H  H6242  1  0.769700  0.509700  0.776200  1
  H  H6243  1  0.990300  0.730300  0.723800  1
  H  H6244  1  0.233500  0.993500  0.723800  1
  H  H6245  1  0.493500  0.733500  0.223800  1
  H  H6246  1  0.230300  0.490300  0.223800  1
  H  H6247  1  0.009700  0.269700  0.276200  1
  H  H6248  1  0.766500  0.006500  0.276200  1
  H  H6249  1  0.543200  0.309200  0.829600  1
  H  H6250  1  0.786400  0.520400  0.829600  1
  H  H6251  1  0.979600  0.713600  0.670400  1
  H  H6252  1  0.190800  0.956800  0.670400  1
  H  H6253  1  0.456800  0.690800  0.170400  1
  H  H6254  1  0.213600  0.479600  0.170400  1
  H  H6255  1  0.020400  0.286400  0.329600  1
  H  H6256  1  0.809200  0.043200  0.329600  1
  H  H6257  1  0.601700  0.261700  0.836400  1
  H  H6258  1  0.734700  0.574700  0.836400  1
  H  H6259  1  0.925300  0.765300  0.663600  1
  H  H6260  1  0.238300  0.898300  0.663600  1
  H  H6261  1  0.398300  0.738300  0.163600  1
  H  H6262  1  0.265300  0.425300  0.163600  1
  H  H6263  1  0.074700  0.234700  0.336400  1
  H  H6264  1  0.761700  0.101700  0.336400  1
  H  H6265  1  0.569800  0.227000  0.784400  1
  H  H6266  1  0.714600  0.557400  0.784400  1
  H  H6267  1  0.942600  0.785400  0.715600  1
  H  H6268  1  0.273000  0.930200  0.715600  1
  H  H6269  1  0.430200  0.773000  0.215600  1
  H  H6270  1  0.285400  0.442600  0.215600  1
  H  H6271  1  0.057400  0.214600  0.284400  1
  H  H6272  1  0.727000  0.069800  0.284400  1
  H  H6273  1  0.568200  0.320200  0.884800  1
  H  H6274  1  0.816600  0.564600  0.884800  1
  H  H6275  1  0.935400  0.683400  0.615200  1
  H  H6276  1  0.179800  0.931800  0.615200  1
  H  H6277  1  0.431800  0.679800  0.115200  1
  H  H6278  1  0.183400  0.435400  0.115200  1
  H  H6279  1  0.064600  0.316600  0.384800  1
  H  H6280  1  0.820200  0.068200  0.384800  1
  H  H6281  1  0.684000  0.383800  0.978000  1
  H  H6282  1  0.794000  0.594200  0.978000  1
  H  H6283  1  0.905800  0.706000  0.522000  1
  H  H6284  1  0.116200  0.816000  0.522000  1
  H  H6285  1  0.316000  0.616200  0.022000  1
  H  H6286  1  0.206000  0.405800  0.022000  1
  H  H6287  1  0.094200  0.294000  0.478000  1
  H  H6288  1  0.883800  0.184000  0.478000  1
  H  H6289  1  0.619200  0.399800  0.996600  1
  H  H6290  1  0.877400  0.596800  0.996600  1
  H  H6291  1  0.903200  0.622600  0.503400  1
  H  H6292  1  0.100200  0.880800  0.503400  1
  H  H6293  1  0.380800  0.600200  0.003400  1
  H  H6294  1  0.122600  0.403200  0.003400  1
  H  H6295  1  0.096800  0.377400  0.496600  1
  H  H6296  1  0.899800  0.119200  0.496600  1
  H  H6297  1  0.581600  0.363000  0.941200  1
  H  H6298  1  0.859600  0.578200  0.941200  1
  H  H6299  1  0.921800  0.640400  0.558800  1
  H  H6300  1  0.137000  0.918400  0.558800  1
  H  H6301  1  0.418400  0.637000  0.058800  1
  H  H6302  1  0.140400  0.421800  0.058800  1
  H  H6303  1  0.078200  0.359600  0.441200  1
  H  H6304  1  0.863000  0.081600  0.441200  1
  H  H6305  1  0.708200  0.395000  0.032800  1
  H  H6306  1  0.824600  0.637800  0.032800  1
  H  H6307  1  0.862200  0.675400  0.467200  1
  H  H6308  1  0.105000  0.791800  0.467200  1
  H  H6309  1  0.291800  0.605000  0.967200  1
  H  H6310  1  0.175400  0.362200  0.967200  1
  H  H6311  1  0.137800  0.324600  0.532800  1
  H  H6312  1  0.895000  0.208200  0.532800  1
  H  H6313  1  0.698400  0.483600  0.091000  1
  H  H6314  1  0.892600  0.607400  0.091000  1
  H  H6315  1  0.892600  0.607400  0.409000  1
  H  H6316  1  0.016400  0.801600  0.409000  1
  H  H6317  1  0.301600  0.516400  0.909000  1
  H  H6318  1  0.107400  0.392600  0.909000  1
  H  H6319  1  0.107400  0.392600  0.591000  1
  H  H6320  1  0.983600  0.198400  0.591000  1
  H  H6321  1  0.661200  0.451200  0.035000  1
  H  H6322  1  0.873800  0.583800  0.035000  1
  H  H6323  1  0.916200  0.626200  0.465000  1
  H  H6324  1  0.048800  0.838800  0.465000  1
  H  H6325  1  0.338800  0.548800  0.965000  1
  H  H6326  1  0.126200  0.416200  0.965000  1
  H  H6327  1  0.083800  0.373800  0.535000  1
  H  H6328  1  0.951200  0.161200  0.535000  1
  H  H6329  1  0.749700  0.495500  0.144000  1
  H  H6330  1  0.894300  0.648500  0.144000  1
  H  H6331  1  0.851500  0.605700  0.356000  1
  H  H6332  1  0.004500  0.750300  0.356000  1
  H  H6333  1  0.250300  0.504500  0.856000  1
  H  H6334  1  0.105700  0.351500  0.856000  1
  H  H6335  1  0.148500  0.394300  0.644000  1
  H  H6336  1  0.995500  0.249700  0.644000  1
  H  H6337  1  0.767800  0.498600  0.195200  1
  H  H6338  1  0.927400  0.696600  0.195200  1
  H  H6339  1  0.803400  0.572600  0.304800  1
  H  H6340  1  0.001400  0.732200  0.304800  1
  H  H6341  1  0.232200  0.501400  0.804800  1
  H  H6342  1  0.072600  0.303400  0.804800  1
  H  H6343  1  0.196600  0.427400  0.695200  1
  H  H6344  1  0.998600  0.267800  0.695200  1
  H  H6345  1  0.807900  0.525500  0.250600  1
  H  H6346  1  0.942700  0.725100  0.250600  1
  H  H6347  1  0.774900  0.557300  0.249400  1
  H  H6348  1  0.974500  0.692100  0.249400  1
  H  H6349  1  0.192100  0.474500  0.749400  1
  H  H6350  1  0.057300  0.274900  0.749400  1
  H  H6351  1  0.225100  0.442700  0.750600  1
  H  H6352  1  0.025500  0.307900  0.750600  1
  H  H6353  1  0.866300  0.507300  0.222000  1
  H  H6354  1  0.855700  0.714700  0.222000  1
  H  H6355  1  0.785300  0.644300  0.278000  1
  H  H6356  1  0.992700  0.633700  0.278000  1
  H  H6357  1  0.133700  0.492700  0.778000  1
  H  H6358  1  0.144300  0.285300  0.778000  1
  H  H6359  1  0.214700  0.355700  0.722000  1
  H  H6360  1  0.007300  0.366300  0.722000  1
  H  H6361  1  0.826000  0.480400  0.166400  1
  H  H6362  1  0.840400  0.686000  0.166400  1
  H  H6363  1  0.814000  0.659600  0.333600  1
  H  H6364  1  0.019600  0.674000  0.333600  1
  H  H6365  1  0.174000  0.519600  0.833600  1
  H  H6366  1  0.159600  0.314000  0.833600  1
  H  H6367  1  0.186000  0.340400  0.666400  1
  H  H6368  1  0.980400  0.326000  0.666400  1
  H  H6369  1  0.880500  0.528500  0.285600  1
  H  H6370  1  0.905100  0.757100  0.285600  1
  H  H6371  1  0.742900  0.594900  0.214400  1
  H  H6372  1  0.971500  0.619500  0.214400  1
  H  H6373  1  0.119500  0.471500  0.714400  1
  H  H6374  1  0.094900  0.242900  0.714400  1
  H  H6375  1  0.257100  0.405100  0.785600  1
  H  H6376  1  0.028500  0.380500  0.785600  1
  H  H6377  1  0.860600  0.547000  0.294000  1
  H  H6378  1  0.933400  0.747000  0.294000  1
  H  H6379  1  0.753000  0.566600  0.206000  1
  H  H6380  1  0.953000  0.639400  0.206000  1
  H  H6381  1  0.139400  0.453000  0.706000  1
  H  H6382  1  0.066600  0.253000  0.706000  1
  H  H6383  1  0.247000  0.433400  0.794000  1
  H  H6384  1  0.047000  0.360600  0.794000  1
  H  H6385  1  0.881500  0.557700  0.283400  1
  H  H6386  1  0.901900  0.725700  0.283400  1
  H  H6387  1  0.774300  0.598100  0.216600  1
  H  H6388  1  0.942300  0.618500  0.216600  1
  H  H6389  1  0.118500  0.442300  0.716600  1
  H  H6390  1  0.098100  0.274300  0.716600  1
  H  H6391  1  0.225700  0.401900  0.783400  1
  H  H6392  1  0.057700  0.381500  0.783400  1
  H  H6393  1  0.597700  0.407300  0.070400  1
  H  H6394  1  0.972700  0.663100  0.070400  1
  H  H6395  1  0.836900  0.527300  0.429600  1
  H  H6396  1  0.092700  0.902300  0.429600  1
  H  H6397  1  0.402300  0.592700  0.929600  1
  H  H6398  1  0.027300  0.336900  0.929600  1
  H  H6399  1  0.163100  0.472700  0.570400  1
  H  H6400  1  0.907300  0.097700  0.570400  1
  H  H6401  1  0.607100  0.420500  0.052800  1
  H  H6402  1  0.945700  0.632300  0.052800  1
  H  H6403  1  0.867700  0.554300  0.447200  1
  H  H6404  1  0.079500  0.892900  0.447200  1
  H  H6405  1  0.392900  0.579500  0.947200  1
  H  H6406  1  0.054300  0.367700  0.947200  1
  H  H6407  1  0.132300  0.445700  0.552800  1
  H  H6408  1  0.920500  0.107100  0.552800  1
  H  H6409  1  0.612100  0.443100  0.087800  1
  H  H6410  1  0.975700  0.644700  0.087800  1
  H  H6411  1  0.855300  0.524300  0.412200  1
  H  H6412  1  0.056900  0.887900  0.412200  1
  H  H6413  1  0.387900  0.556900  0.912200  1
  H  H6414  1  0.024300  0.355300  0.912200  1
  H  H6415  1  0.144700  0.475700  0.587800  1
  H  H6416  1  0.943100  0.112100  0.587800  1
  H  H6417  1  0.662900  0.458700  0.139000  1
  H  H6418  1  0.976100  0.680300  0.139000  1
  H  H6419  1  0.819700  0.523900  0.361000  1
  H  H6420  1  0.041300  0.837100  0.361000  1
  H  H6421  1  0.337100  0.541300  0.861000  1
  H  H6422  1  0.023900  0.319700  0.861000  1
  H  H6423  1  0.180300  0.476100  0.639000  1
  H  H6424  1  0.958700  0.162900  0.639000  1
  H  H6425  1  0.709700  0.453500  0.160800  1
  H  H6426  1  0.951100  0.707300  0.160800  1
  H  H6427  1  0.792700  0.548900  0.339200  1
  H  H6428  1  0.046500  0.790300  0.339200  1
  H  H6429  1  0.290300  0.546500  0.839200  1
  H  H6430  1  0.048900  0.292700  0.839200  1
  H  H6431  1  0.207300  0.451100  0.660800  1
  H  H6432  1  0.953500  0.209700  0.660800  1
  H  H6433  1  0.680800  0.381800  0.070200  1
  H  H6434  1  0.889400  0.688400  0.070200  1
  H  H6435  1  0.811600  0.610600  0.429800  1
  H  H6436  1  0.118200  0.819200  0.429800  1
  H  H6437  1  0.319200  0.618200  0.929800  1
  H  H6438  1  0.110600  0.311600  0.929800  1
  H  H6439  1  0.188400  0.389400  0.570200  1
  H  H6440  1  0.881800  0.180800  0.570200  1
  H  H6441  1  0.634100  0.386900  0.048400  1
  H  H6442  1  0.914300  0.661500  0.048400  1
  H  H6443  1  0.838500  0.585700  0.451600  1
  H  H6444  1  0.113100  0.865900  0.451600  1
  H  H6445  1  0.365900  0.613100  0.951600  1
  H  H6446  1  0.085700  0.338500  0.951600  1
  H  H6447  1  0.161500  0.414300  0.548400  1
  H  H6448  1  0.886900  0.134100  0.548400  1
  H  H6449  1  0.738000  0.421800  0.171400  1
  H  H6450  1  0.933400  0.749600  0.171400  1
  H  H6451  1  0.750400  0.566600  0.328600  1
  H  H6452  1  0.078200  0.762000  0.328600  1
  H  H6453  1  0.262000  0.578200  0.828600  1
  H  H6454  1  0.066600  0.250400  0.828600  1
  H  H6455  1  0.249600  0.433400  0.671400  1
  H  H6456  1  0.921800  0.238000  0.671400  1
  H  H6457  1  0.821500  0.414500  0.145800  1
  H  H6458  1  0.824300  0.731300  0.145800  1
  H  H6459  1  0.768700  0.675700  0.354200  1
  H  H6460  1  0.085500  0.678500  0.354200  1
  H  H6461  1  0.178500  0.585500  0.854200  1
  H  H6462  1  0.175700  0.268700  0.854200  1
  H  H6463  1  0.231300  0.324300  0.645800  1
  H  H6464  1  0.914500  0.321500  0.645800  1
  H  H6465  1  0.832100  0.424100  0.228200  1
  H  H6466  1  0.896100  0.804100  0.228200  1
  H  H6467  1  0.695900  0.603900  0.271800  1
  H  H6468  1  0.075900  0.667900  0.271800  1
  H  H6469  1  0.167900  0.575900  0.771800  1
  H  H6470  1  0.103900  0.195900  0.771800  1
  H  H6471  1  0.304100  0.396100  0.728200  1
  H  H6472  1  0.924100  0.332100  0.728200  1
  H  H6473  1  0.785500  0.427500  0.213800  1
  H  H6474  1  0.928300  0.786300  0.213800  1
  H  H6475  1  0.713700  0.571700  0.286200  1
  H  H6476  1  0.072500  0.714500  0.286200  1
  H  H6477  1  0.214500  0.572500  0.786200  1
  H  H6478  1  0.071700  0.213700  0.786200  1
  H  H6479  1  0.286300  0.428300  0.713800  1
  H  H6480  1  0.927500  0.285500  0.713800  1
  H  H6481  1  0.847200  0.381000  0.152400  1
  H  H6482  1  0.805200  0.771400  0.152400  1
  H  H6483  1  0.728600  0.694800  0.347600  1
  H  H6484  1  0.119000  0.652800  0.347600  1
  H  H6485  1  0.152800  0.619000  0.847600  1
  H  H6486  1  0.194800  0.228600  0.847600  1
  H  H6487  1  0.271400  0.305200  0.652400  1
  H  H6488  1  0.881000  0.347200  0.652400  1
  H  H6489  1  0.931200  0.446000  0.261200  1
  H  H6490  1  0.830000  0.815200  0.261200  1
  H  H6491  1  0.684800  0.670000  0.238800  1
  H  H6492  1  0.054000  0.568800  0.238800  1
  H  H6493  1  0.068800  0.554000  0.738800  1
  H  H6494  1  0.170000  0.184800  0.738800  1
  H  H6495  1  0.315200  0.330000  0.761200  1
  H  H6496  1  0.946000  0.431200  0.761200  1
  H  H6497  1  0.884400  0.450800  0.246800  1
  H  H6498  1  0.862400  0.796000  0.246800  1
  H  H6499  1  0.704000  0.637600  0.253200  1
  H  H6500  1  0.049200  0.615600  0.253200  1
  H  H6501  1  0.115600  0.549200  0.753200  1
  H  H6502  1  0.137600  0.204000  0.753200  1
  H  H6503  1  0.296000  0.362400  0.746800  1
  H  H6504  1  0.950800  0.384400  0.746800  1
  H  H6505  1  0.962000  0.416200  0.243000  1
  H  H6506  1  0.781000  0.826800  0.243000  1
  H  H6507  1  0.673200  0.719000  0.257000  1
  H  H6508  1  0.083800  0.538000  0.257000  1
  H  H6509  1  0.038000  0.583800  0.757000  1
  H  H6510  1  0.219000  0.173200  0.757000  1
  H  H6511  1  0.326800  0.281000  0.743000  1
  H  H6512  1  0.916200  0.462000  0.743000  1
  H  H6513  1  0.986400  0.386000  0.250200  1
  H  H6514  1  0.763800  0.864200  0.250200  1
  H  H6515  1  0.635800  0.736200  0.249800  1
  H  H6516  1  0.114000  0.513600  0.249800  1
  H  H6517  1  0.013600  0.614000  0.749800  1
  H  H6518  1  0.236200  0.135800  0.749800  1
  H  H6519  1  0.364200  0.263800  0.750200  1
  H  H6520  1  0.886000  0.486400  0.750200  1
  H  H6521  1  0.030300  0.375900  0.258800  1
  H  H6522  1  0.728500  0.882900  0.258800  1
  H  H6523  1  0.617100  0.771500  0.241200  1
  H  H6524  1  0.124100  0.469700  0.241200  1
  H  H6525  1  0.969700  0.624100  0.741200  1
  H  H6526  1  0.271500  0.117100  0.741200  1
  H  H6527  1  0.382900  0.228500  0.758800  1
  H  H6528  1  0.875900  0.530300  0.758800  1
  H  H6529  1  0.008800  0.357800  0.168800  1
  H  H6530  1  0.660000  0.811000  0.168800  1
  H  H6531  1  0.689000  0.840000  0.331200  1
  H  H6532  1  0.142200  0.491200  0.331200  1
  H  H6533  1  0.991200  0.642200  0.831200  1
  H  H6534  1  0.340000  0.189000  0.831200  1
  H  H6535  1  0.311000  0.160000  0.668800  1
  H  H6536  1  0.857800  0.508800  0.668800  1
  H  H6537  1  0.964800  0.367800  0.160000  1
  H  H6538  1  0.695200  0.792200  0.160000  1
  H  H6539  1  0.707800  0.804800  0.340000  1
  H  H6540  1  0.132200  0.535200  0.340000  1
  H  H6541  1  0.035200  0.632200  0.840000  1
  H  H6542  1  0.304800  0.207800  0.840000  1
  H  H6543  1  0.292200  0.195200  0.660000  1
  H  H6544  1  0.867800  0.464800  0.660000  1
  H  H6545  1  0.065700  0.362300  0.235000  1
  H  H6546  1  0.669300  0.872700  0.235000  1
  H  H6547  1  0.627300  0.830700  0.265000  1
  H  H6548  1  0.137700  0.434300  0.265000  1
  H  H6549  1  0.934300  0.637700  0.765000  1
  H  H6550  1  0.330700  0.127300  0.765000  1
  H  H6551  1  0.372700  0.169300  0.735000  1
  H  H6552  1  0.862300  0.565700  0.735000  1
  H  H6553  1  0.061500  0.375700  0.212400  1
  H  H6554  1  0.650900  0.836700  0.212400  1
  H  H6555  1  0.663300  0.849100  0.287600  1
  H  H6556  1  0.124300  0.438500  0.287600  1
  H  H6557  1  0.938500  0.624300  0.787600  1
  H  H6558  1  0.349100  0.163300  0.787600  1
  H  H6559  1  0.336700  0.150900  0.712400  1
  H  H6560  1  0.875700  0.561500  0.712400  1
  H  H6561  1  0.045000  0.340200  0.195400  1
  H  H6562  1  0.650400  0.855200  0.195400  1
  H  H6563  1  0.644800  0.849600  0.304600  1
  H  H6564  1  0.159800  0.455000  0.304600  1
  H  H6565  1  0.955000  0.659800  0.804600  1
  H  H6566  1  0.349600  0.144800  0.804600  1
  H  H6567  1  0.355200  0.150400  0.695400  1
  H  H6568  1  0.840200  0.545000  0.695400  1
  N  N6569  1  0.970100  0.081500  0.834800  1
  N  N6570  1  0.364700  0.753300  0.834800  1
  N  N6571  1  0.746700  0.135300  0.665200  1
  N  N6572  1  0.418500  0.529900  0.665200  1
  N  N6573  1  0.029900  0.918500  0.165200  1
  N  N6574  1  0.635300  0.246700  0.165200  1
  N  N6575  1  0.253300  0.864700  0.334800  1
  N  N6576  1  0.581500  0.470100  0.334800  1
  N  N6577  1  0.478400  0.161400  0.932200  1
  N  N6578  1  0.953800  0.770800  0.932200  1
  N  N6579  1  0.729200  0.546200  0.567800  1
  N  N6580  1  0.338600  0.021600  0.567800  1
  N  N6581  1  0.521600  0.838600  0.067800  1
  N  N6582  1  0.046200  0.229200  0.067800  1
  N  N6583  1  0.270800  0.453800  0.432200  1
  N  N6584  1  0.661400  0.978400  0.432200  1
  N  N6585  1  0.735900  0.130700  0.032000  1
  N  N6586  1  0.796100  0.901300  0.032000  1
  N  N6587  1  0.598700  0.703900  0.468000  1
  N  N6588  1  0.369300  0.764100  0.468000  1
  N  N6589  1  0.264100  0.869300  0.968000  1
  N  N6590  1  0.203900  0.098700  0.968000  1
  N  N6591  1  0.401300  0.296100  0.532000  1
  N  N6592  1  0.630700  0.235900  0.532000  1
  N  N6593  1  0.742700  0.396700  0.009600  1
  N  N6594  1  0.766900  0.612900  0.009600  1
  N  N6595  1  0.887100  0.733100  0.490400  1
  N  N6596  1  0.103300  0.757300  0.490400  1
  N  N6597  1  0.257300  0.603300  0.990400  1
  N  N6598  1  0.233100  0.387100  0.990400  1
  N  N6599  1  0.112900  0.266900  0.509600  1
  N  N6600  1  0.896700  0.242700  0.509600  1
  N  N6601  1  0.582000  0.192800  0.965200  1
  N  N6602  1  0.883200  0.772400  0.965200  1
  N  N6603  1  0.727600  0.616800  0.534800  1
  N  N6604  1  0.307200  0.918000  0.534800  1
  N  N6605  1  0.418000  0.807200  0.034800  1
  N  N6606  1  0.116800  0.227600  0.034800  1
  N  N6607  1  0.272400  0.383200  0.465200  1
  N  N6608  1  0.692800  0.082000  0.465200  1
  N  N6609  1  0.677900  0.073300  0.894000  1
  N  N6610  1  0.716100  0.820700  0.894000  1
  N  N6611  1  0.679300  0.783900  0.606000  1
  N  N6612  1  0.426700  0.822100  0.606000  1
  N  N6613  1  0.322100  0.926700  0.106000  1
  N  N6614  1  0.283900  0.179300  0.106000  1
  N  N6615  1  0.320700  0.216100  0.394000  1
  N  N6616  1  0.573300  0.177900  0.394000  1
  N  N6617  1  0.889800  0.320200  0.044800  1
  N  N6618  1  0.655000  0.724600  0.044800  1
  N  N6619  1  0.775400  0.845000  0.455200  1
  N  N6620  1  0.179800  0.610200  0.455200  1
  N  N6621  1  0.110200  0.679800  0.955200  1
  N  N6622  1  0.345000  0.275400  0.955200  1
  N  N6623  1  0.224600  0.155000  0.544800  1
  N  N6624  1  0.820200  0.389800  0.544800  1
  N  N6625  1  0.532140  0.214920  0.907020  1
  N  N6626  1  0.874880  0.692100  0.907020  1
  N  N6627  1  0.807900  0.625120  0.592980  1
  N  N6628  1  0.285080  0.967860  0.592980  1
  N  N6629  1  0.467860  0.785080  0.092980  1
  N  N6630  1  0.125120  0.307900  0.092980  1
  N  N6631  1  0.192100  0.374880  0.407020  1
  N  N6632  1  0.714920  0.032140  0.407020  1
  N  N6633  1  0.640810  0.357630  0.937540  1
  N  N6634  1  0.796730  0.579910  0.937540  1
  N  N6635  1  0.920090  0.703270  0.562460  1
  N  N6636  1  0.142370  0.859190  0.562460  1
  N  N6637  1  0.359190  0.642370  0.062460  1
  N  N6638  1  0.203270  0.420090  0.062460  1
  N  N6639  1  0.079910  0.296730  0.437540  1
  N  N6640  1  0.857630  0.140810  0.437540  1
  N  N6641  1  0.892110  0.391290  0.183000  1
  N  N6642  1  0.790890  0.791710  0.183000  1
  N  N6643  1  0.708290  0.709110  0.317000  1
  N  N6644  1  0.108710  0.607890  0.317000  1
  N  N6645  1  0.107890  0.608710  0.817000  1
  N  N6646  1  0.209110  0.208290  0.817000  1
  N  N6647  1  0.291710  0.290890  0.683000  1
  N  N6648  1  0.891290  0.392110  0.683000  1
  N  N6649  1  0.788500  0.049500  0.951800  1
  N  N6650  1  0.663300  0.902300  0.951800  1
  N  N6651  1  0.597700  0.836700  0.548200  1
  N  N6652  1  0.450500  0.711500  0.548200  1
  N  N6653  1  0.211500  0.950500  0.048200  1
  N  N6654  1  0.336700  0.097700  0.048200  1
  N  N6655  1  0.402300  0.163300  0.451800  1
  N  N6656  1  0.549500  0.288500  0.451800  1
  N  N6657  1  0.751240  0.058920  0.905960  1
  N  N6658  1  0.654720  0.847040  0.905960  1
  N  N6659  1  0.652960  0.845280  0.594040  1
  N  N6660  1  0.441080  0.748760  0.594040  1
  N  N6661  1  0.248760  0.941080  0.094040  1
  N  N6662  1  0.345280  0.152960  0.094040  1
  N  N6663  1  0.347040  0.154720  0.405960  1
  N  N6664  1  0.558920  0.251240  0.405960  1
  N  N6665  1  0.664880  0.067980  0.802660  1
  N  N6666  1  0.637780  0.734680  0.802660  1
  N  N6667  1  0.765320  0.862220  0.697340  1
  N  N6668  1  0.432020  0.835120  0.697340  1
  N  N6669  1  0.335120  0.932020  0.197340  1
  N  N6670  1  0.362220  0.265320  0.197340  1
  N  N6671  1  0.234680  0.137780  0.302660  1
  N  N6672  1  0.567980  0.164880  0.302660  1
  N  N6673  1  0.636500  0.085500  0.760800  1
  N  N6674  1  0.624300  0.675300  0.760800  1
  N  N6675  1  0.824700  0.875700  0.739200  1
  N  N6676  1  0.414500  0.863500  0.739200  1
  N  N6677  1  0.363500  0.914500  0.239200  1
  N  N6678  1  0.375700  0.324700  0.239200  1
  N  N6679  1  0.175300  0.124300  0.260800  1
  N  N6680  1  0.585500  0.136500  0.260800  1
  N  N6681  1  0.819760  0.102640  0.961200  1
  N  N6682  1  0.641440  0.858560  0.961200  1
  N  N6683  1  0.641440  0.858560  0.538800  1
  N  N6684  1  0.397360  0.680240  0.538800  1
  N  N6685  1  0.180240  0.897360  0.038800  1
  N  N6686  1  0.358560  0.141440  0.038800  1
  N  N6687  1  0.358560  0.141440  0.461200  1
  N  N6688  1  0.602640  0.319760  0.461200  1
  N  N6689  1  0.811610  0.117470  0.009680  1
  N  N6690  1  0.698070  0.892210  0.009680  1
  N  N6691  1  0.607790  0.801930  0.490320  1
  N  N6692  1  0.382530  0.688390  0.490320  1
  N  N6693  1  0.188390  0.882530  0.990320  1
  N  N6694  1  0.301930  0.107790  0.990320  1
  N  N6695  1  0.392210  0.198070  0.509680  1
  N  N6696  1  0.617470  0.311610  0.509680  1
  N  N6697  1  0.802810  0.183010  0.122820  1
  N  N6698  1  0.820010  0.939810  0.122820  1
  N  N6699  1  0.560190  0.679990  0.377180  1
  N  N6700  1  0.316990  0.697190  0.377180  1
  N  N6701  1  0.197190  0.816990  0.877180  1
  N  N6702  1  0.179990  0.060190  0.877180  1
  N  N6703  1  0.439810  0.320010  0.622820  1
  N  N6704  1  0.683010  0.302810  0.622820  1
  N  N6705  1  0.794800  0.207600  0.171800  1
  N  N6706  1  0.877000  0.964200  0.171800  1
  N  N6707  1  0.535800  0.623000  0.328200  1
  N  N6708  1  0.292400  0.705200  0.328200  1
  N  N6709  1  0.205200  0.792400  0.828200  1
  N  N6710  1  0.123000  0.035800  0.828200  1
  N  N6711  1  0.464200  0.377000  0.671800  1
  N  N6712  1  0.707600  0.294800  0.671800  1
  N  N6713  1  0.739300  0.081500  0.960200  1
  N  N6714  1  0.720900  0.878700  0.960200  1
  N  N6715  1  0.621300  0.779100  0.539800  1
  N  N6716  1  0.418500  0.760700  0.539800  1
  N  N6717  1  0.260700  0.918500  0.039800  1
  N  N6718  1  0.279100  0.121300  0.039800  1
  N  N6719  1  0.378700  0.220900  0.460200  1
  N  N6720  1  0.581500  0.239300  0.460200  1
  N  N6721  1  0.767980  0.127420  0.961200  1
  N  N6722  1  0.693220  0.833780  0.961200  1
  N  N6723  1  0.666220  0.806780  0.538800  1
  N  N6724  1  0.372580  0.732020  0.538800  1
  N  N6725  1  0.232020  0.872580  0.038800  1
  N  N6726  1  0.306780  0.166220  0.038800  1
  N  N6727  1  0.333780  0.193220  0.461200  1
  N  N6728  1  0.627420  0.267980  0.461200  1
  N  N6729  1  0.838820  0.223900  0.973720  1
  N  N6730  1  0.634900  0.749820  0.973720  1
  N  N6731  1  0.750180  0.865100  0.526280  1
  N  N6732  1  0.276100  0.661180  0.526280  1
  N  N6733  1  0.161180  0.776100  0.026280  1
  N  N6734  1  0.365100  0.250180  0.026280  1
  N  N6735  1  0.249820  0.134900  0.473720  1
  N  N6736  1  0.723900  0.338820  0.473720  1
  N  N6737  1  0.868600  0.261600  0.968000  1
  N  N6738  1  0.599400  0.706400  0.968000  1
  N  N6739  1  0.793600  0.900600  0.532000  1
  N  N6740  1  0.238400  0.631400  0.532000  1
  N  N6741  1  0.131400  0.738400  0.032000  1
  N  N6742  1  0.400600  0.293600  0.032000  1
  N  N6743  1  0.206400  0.099400  0.468000  1
  N  N6744  1  0.761600  0.368600  0.468000  1
  N  N6745  1  0.596500  0.032100  0.747800  1
  N  N6746  1  0.651300  0.715700  0.747800  1
  N  N6747  1  0.784300  0.848700  0.752200  1
  N  N6748  1  0.467900  0.903500  0.752200  1
  N  N6749  1  0.403500  0.967900  0.252200  1
  N  N6750  1  0.348700  0.284300  0.252200  1
  N  N6751  1  0.215700  0.151300  0.247800  1
  N  N6752  1  0.532100  0.096500  0.247800  1
  N  N6753  1  0.581440  0.079440  0.772080  1
  N  N6754  1  0.690640  0.692640  0.772080  1
  N  N6755  1  0.807360  0.809360  0.727920  1
  N  N6756  1  0.420560  0.918560  0.727920  1
  N  N6757  1  0.418560  0.920560  0.227920  1
  N  N6758  1  0.309360  0.307360  0.227920  1
  N  N6759  1  0.192640  0.190640  0.272080  1
  N  N6760  1  0.579440  0.081440  0.272080  1
  N  N6761  1  0.541070  0.170470  0.825740  1
  N  N6762  1  0.784670  0.655270  0.825740  1
  N  N6763  1  0.844730  0.715330  0.674260  1
  N  N6764  1  0.329530  0.958930  0.674260  1
  N  N6765  1  0.458930  0.829530  0.174260  1
  N  N6766  1  0.215330  0.344730  0.174260  1
  N  N6767  1  0.155270  0.284670  0.325740  1
  N  N6768  1  0.670470  0.041070  0.325740  1
  N  N6769  1  0.533910  0.223090  0.853400  1
  N  N6770  1  0.819490  0.630310  0.853400  1
  N  N6771  1  0.869690  0.680510  0.646600  1
  N  N6772  1  0.276910  0.966090  0.646600  1
  N  N6773  1  0.466090  0.776910  0.146600  1
  N  N6774  1  0.180510  0.369690  0.146600  1
  N  N6775  1  0.130310  0.319490  0.353400  1
  N  N6776  1  0.723090  0.033910  0.353400  1
  N  N6777  1  0.618000  0.070400  0.824800  1
  N  N6778  1  0.706800  0.754400  0.824800  1
  N  N6779  1  0.745600  0.793200  0.675200  1
  N  N6780  1  0.429600  0.882000  0.675200  1
  N  N6781  1  0.382000  0.929600  0.175200  1
  N  N6782  1  0.293200  0.245600  0.175200  1
  N  N6783  1  0.254400  0.206800  0.324800  1
  N  N6784  1  0.570400  0.118000  0.324800  1
  N  N6785  1  0.649110  0.119910  0.835220  1
  N  N6786  1  0.686110  0.715310  0.835220  1
  N  N6787  1  0.784690  0.813890  0.664780  1
  N  N6788  1  0.380090  0.850890  0.664780  1
  N  N6789  1  0.350890  0.880090  0.164780  1
  N  N6790  1  0.313890  0.284690  0.164780  1
  N  N6791  1  0.215310  0.186110  0.335220  1
  N  N6792  1  0.619910  0.149110  0.335220  1
  N  N6793  1  0.722450  0.218090  0.852740  1
  N  N6794  1  0.630290  0.634650  0.852740  1
  N  N6795  1  0.865350  0.869710  0.647260  1
  N  N6796  1  0.281910  0.777550  0.647260  1
  N  N6797  1  0.277550  0.781910  0.147260  1
  N  N6798  1  0.369710  0.365350  0.147260  1
  N  N6799  1  0.134650  0.130290  0.352740  1
  N  N6800  1  0.718090  0.222450  0.352740  1
  N  N6801  1  0.754580  0.260820  0.853400  1
  N  N6802  1  0.598820  0.592580  0.853400  1
  N  N6803  1  0.907420  0.901180  0.646600  1
  N  N6804  1  0.239180  0.745420  0.646600  1
  N  N6805  1  0.245420  0.739180  0.146600  1
  N  N6806  1  0.401180  0.407420  0.146600  1
  N  N6807  1  0.092580  0.098820  0.353400  1
  N  N6808  1  0.760820  0.254580  0.353400  1
  N  N6809  1  0.491480  0.175720  0.842600  1
  N  N6810  1  0.851120  0.666880  0.842600  1
  N  N6811  1  0.833120  0.648880  0.657400  1
  N  N6812  1  0.324280  0.008520  0.657400  1
  N  N6813  1  0.508520  0.824280  0.157400  1
  N  N6814  1  0.148880  0.333120  0.157400  1
  N  N6815  1  0.166880  0.351120  0.342600  1
  N  N6816  1  0.675720  0.991480  0.342600  1
  N  N6817  1  0.613030  0.289810  0.046860  1
  N  N6818  1  0.933830  0.757050  0.046860  1
  N  N6819  1  0.742950  0.566170  0.453140  1
  N  N6820  1  0.210190  0.886970  0.453140  1
  N  N6821  1  0.386970  0.710190  0.953140  1
  N  N6822  1  0.066170  0.242950  0.953140  1
  N  N6823  1  0.257050  0.433830  0.546860  1
  N  N6824  1  0.789810  0.113030  0.546860  1
  N  N6825  1  0.659890  0.332290  0.108380  1
  N  N6826  1  0.948490  0.776090  0.108380  1
  N  N6827  1  0.723910  0.551510  0.391620  1
  N  N6828  1  0.167710  0.840110  0.391620  1
  N  N6829  1  0.340110  0.667710  0.891620  1
  N  N6830  1  0.051510  0.223910  0.891620  1
  N  N6831  1  0.276090  0.448490  0.608380  1
  N  N6832  1  0.832290  0.159890  0.608380  1
  N  N6833  1  0.550560  0.160200  0.882560  1
  N  N6834  1  0.832000  0.722360  0.882560  1
  N  N6835  1  0.777640  0.668000  0.617440  1
  N  N6836  1  0.339800  0.949440  0.617440  1
  N  N6837  1  0.449440  0.839800  0.117440  1
  N  N6838  1  0.168000  0.277640  0.117440  1
  N  N6839  1  0.222360  0.332000  0.382560  1
  N  N6840  1  0.660200  0.050560  0.382560  1
  N  N6841  1  0.588700  0.210640  0.898540  1
  N  N6842  1  0.809840  0.687900  0.898540  1
  N  N6843  1  0.812100  0.690160  0.601460  1
  N  N6844  1  0.289360  0.911300  0.601460  1
  N  N6845  1  0.411300  0.789360  0.101460  1
  N  N6846  1  0.190160  0.312100  0.101460  1
  N  N6847  1  0.187900  0.309840  0.398540  1
  N  N6848  1  0.710640  0.088700  0.398540  1
  N  N6849  1  0.661300  0.308500  0.912800  1
  N  N6850  1  0.751500  0.604300  0.912800  1
  N  N6851  1  0.895700  0.748500  0.587200  1
  N  N6852  1  0.191500  0.838700  0.587200  1
  N  N6853  1  0.338700  0.691500  0.087200  1
  N  N6854  1  0.248500  0.395700  0.087200  1
  N  N6855  1  0.104300  0.251500  0.412800  1
  N  N6856  1  0.808500  0.161300  0.412800  1
  N  N6857  1  0.691600  0.356600  0.921400  1
  N  N6858  1  0.729800  0.564800  0.921400  1
  N  N6859  1  0.935200  0.770200  0.578600  1
  N  N6860  1  0.143400  0.808400  0.578600  1
  N  N6861  1  0.308400  0.643400  0.078600  1
  N  N6862  1  0.270200  0.435200  0.078600  1
  N  N6863  1  0.064800  0.229800  0.421400  1
  N  N6864  1  0.856600  0.191600  0.421400  1
  N  N6865  1  0.618100  0.290700  0.106000  1
  N  N6866  1  0.987900  0.815300  0.106000  1
  N  N6867  1  0.684700  0.512100  0.394000  1
  N  N6868  1  0.209300  0.881900  0.394000  1
  N  N6869  1  0.381900  0.709300  0.894000  1
  N  N6870  1  0.012100  0.184700  0.894000  1
  N  N6871  1  0.315300  0.487900  0.606000  1
  N  N6872  1  0.790700  0.118100  0.606000  1
  N  N6873  1  0.670050  0.282030  0.123880  1
  N  N6874  1  0.953830  0.841850  0.123880  1
  N  N6875  1  0.658150  0.546170  0.376120  1
  N  N6876  1  0.217970  0.829950  0.376120  1
  N  N6877  1  0.329950  0.717970  0.876120  1
  N  N6878  1  0.046170  0.158150  0.876120  1
  N  N6879  1  0.341850  0.453830  0.623880  1
  N  N6880  1  0.782030  0.170050  0.623880  1
  N  N6881  1  0.776830  0.256770  0.159200  1
  N  N6882  1  0.882370  0.902430  0.159200  1
  N  N6883  1  0.597570  0.617630  0.340800  1
  N  N6884  1  0.243230  0.723170  0.340800  1
  N  N6885  1  0.223170  0.743230  0.840800  1
  N  N6886  1  0.117630  0.097570  0.840800  1
  N  N6887  1  0.402430  0.382370  0.659200  1
  N  N6888  1  0.756770  0.276830  0.659200  1
  N  N6889  1  0.832070  0.254070  0.174740  1
  N  N6890  1  0.842670  0.920670  0.174740  1
  N  N6891  1  0.579330  0.657330  0.325260  1
  N  N6892  1  0.245930  0.667930  0.325260  1
  N  N6893  1  0.167930  0.745930  0.825260  1
  N  N6894  1  0.157330  0.079330  0.825260  1
  N  N6895  1  0.420670  0.342670  0.674740  1
  N  N6896  1  0.754070  0.332070  0.674740  1
  N  N6897  1  0.630950  0.232990  0.051740  1
  N  N6898  1  0.920790  0.818750  0.051740  1
  N  N6899  1  0.681250  0.579210  0.448260  1
  N  N6900  1  0.267010  0.869050  0.448260  1
  N  N6901  1  0.369050  0.767010  0.948260  1
  N  N6902  1  0.079210  0.181250  0.948260  1
  N  N6903  1  0.318750  0.420790  0.551740  1
  N  N6904  1  0.732990  0.130950  0.551740  1
  N  N6905  1  0.670130  0.278770  0.060900  1
  N  N6906  1  0.890770  0.782130  0.060900  1
  N  N6907  1  0.717870  0.609230  0.439100  1
  N  N6908  1  0.221230  0.829870  0.439100  1
  N  N6909  1  0.329870  0.721230  0.939100  1
  N  N6910  1  0.109230  0.217870  0.939100  1
  N  N6911  1  0.282130  0.390770  0.560900  1
  N  N6912  1  0.778770  0.170130  0.560900  1
  N  N6913  1  0.744760  0.375040  0.076400  1
  N  N6914  1  0.831640  0.701360  0.076400  1
  N  N6915  1  0.798640  0.668360  0.423600  1
  N  N6916  1  0.124960  0.755240  0.423600  1
  N  N6917  1  0.255240  0.624960  0.923600  1
  N  N6918  1  0.168360  0.298640  0.923600  1
  N  N6919  1  0.201360  0.331640  0.576400  1
  N  N6920  1  0.875040  0.244760  0.576400  1
  N  N6921  1  0.785700  0.422700  0.092200  1
  N  N6922  1  0.806500  0.669500  0.092200  1
  N  N6923  1  0.830500  0.693500  0.407800  1
  N  N6924  1  0.077300  0.714300  0.407800  1
  N  N6925  1  0.214300  0.577300  0.907800  1
  N  N6926  1  0.193500  0.330500  0.907800  1
  N  N6927  1  0.169500  0.306500  0.592200  1
  N  N6928  1  0.922700  0.285700  0.592200  1
  N  N6929  1  0.741300  0.189480  0.097780  1
  N  N6930  1  0.856480  0.908300  0.097780  1
  N  N6931  1  0.591700  0.643520  0.402220  1
  N  N6932  1  0.310520  0.758700  0.402220  1
  N  N6933  1  0.258700  0.810520  0.902220  1
  N  N6934  1  0.143520  0.091700  0.902220  1
  N  N6935  1  0.408300  0.356480  0.597780  1
  N  N6936  1  0.689480  0.241300  0.597780  1
  N  N6937  1  0.779430  0.228350  0.098980  1
  N  N6938  1  0.819550  0.870630  0.098980  1
  N  N6939  1  0.629370  0.680450  0.401020  1
  N  N6940  1  0.271650  0.720570  0.401020  1
  N  N6941  1  0.220570  0.771650  0.901020  1
  N  N6942  1  0.180450  0.129370  0.901020  1
  N  N6943  1  0.370630  0.319550  0.598980  1
  N  N6944  1  0.728350  0.279430  0.598980  1
  N  N6945  1  0.854500  0.323700  0.114200  1
  N  N6946  1  0.759700  0.790500  0.114200  1
  N  N6947  1  0.709500  0.740300  0.385800  1
  N  N6948  1  0.176300  0.645500  0.385800  1
  N  N6949  1  0.145500  0.676300  0.885800  1
  N  N6950  1  0.240300  0.209500  0.885800  1
  N  N6951  1  0.290500  0.259700  0.614200  1
  N  N6952  1  0.823700  0.354500  0.614200  1
  N  N6953  1  0.897060  0.367660  0.123920  1
  N  N6954  1  0.726860  0.756260  0.123920  1
  N  N6955  1  0.743740  0.773140  0.376080  1
  N  N6956  1  0.132340  0.602940  0.376080  1
  N  N6957  1  0.102940  0.632340  0.876080  1
  N  N6958  1  0.273140  0.243740  0.876080  1
  N  N6959  1  0.256260  0.226860  0.623920  1
  N  N6960  1  0.867660  0.397060  0.623920  1
  N  N6961  1  0.876610  0.181590  0.962800  1
  N  N6962  1  0.586190  0.781210  0.962800  1
  N  N6963  1  0.718790  0.913810  0.537200  1
  N  N6964  1  0.318410  0.623390  0.537200  1
  N  N6965  1  0.123390  0.818410  0.037200  1
  N  N6966  1  0.413810  0.218790  0.037200  1
  N  N6967  1  0.281210  0.086190  0.462800  1
  N  N6968  1  0.681590  0.376610  0.462800  1
  N  N6969  1  0.845530  0.193130  0.915660  1
  N  N6970  1  0.570130  0.722530  0.915660  1
  N  N6971  1  0.777470  0.929870  0.584340  1
  N  N6972  1  0.306870  0.654470  0.584340  1
  N  N6973  1  0.154470  0.806870  0.084340  1
  N  N6974  1  0.429870  0.277470  0.084340  1
  N  N6975  1  0.222530  0.070130  0.415660  1
  N  N6976  1  0.693130  0.345530  0.415660  1
  N  N6977  1  0.762200  0.206600  0.818400  1
  N  N6978  1  0.556200  0.611800  0.818400  1
  N  N6979  1  0.888200  0.943800  0.681600  1
  N  N6980  1  0.293400  0.737800  0.681600  1
  N  N6981  1  0.237800  0.793400  0.181600  1
  N  N6982  1  0.443800  0.388200  0.181600  1
  N  N6983  1  0.111800  0.056200  0.318400  1
  N  N6984  1  0.706600  0.262200  0.318400  1
  N  N6985  1  0.729100  0.220100  0.776400  1
  N  N6986  1  0.547300  0.556300  0.776400  1
  N  N6987  1  0.943700  0.952700  0.723600  1
  N  N6988  1  0.279900  0.770900  0.723600  1
  N  N6989  1  0.270900  0.779900  0.223600  1
  N  N6990  1  0.452700  0.443700  0.223600  1
  N  N6991  1  0.056300  0.047300  0.276400  1
  N  N6992  1  0.720100  0.229100  0.276400  1
  N  N6993  1  0.914000  0.224200  0.964200  1
  N  N6994  1  0.550200  0.740000  0.964200  1
  N  N6995  1  0.760000  0.949800  0.535800  1
  N  N6996  1  0.275800  0.586000  0.535800  1
  N  N6997  1  0.086000  0.775800  0.035800  1
  N  N6998  1  0.449800  0.260000  0.035800  1
  N  N6999  1  0.240000  0.050200  0.464200  1
  N  N7000  1  0.724200  0.414000  0.464200  1
  N  N7001  1  0.910500  0.250100  0.017400  1
  N  N7002  1  0.606900  0.767300  0.017400  1
  N  N7003  1  0.732700  0.893100  0.482600  1
  N  N7004  1  0.249900  0.589500  0.482600  1
  N  N7005  1  0.089500  0.749900  0.982600  1
  N  N7006  1  0.393100  0.232700  0.982600  1
  N  N7007  1  0.267300  0.106900  0.517400  1
  N  N7008  1  0.750100  0.410500  0.517400  1
  N  N7009  1  0.914000  0.316200  0.137400  1
  N  N7010  1  0.723400  0.821200  0.137400  1
  N  N7011  1  0.678800  0.776600  0.362600  1
  N  N7012  1  0.183800  0.586000  0.362600  1
  N  N7013  1  0.086000  0.683800  0.862600  1
  N  N7014  1  0.276600  0.178800  0.862600  1
  N  N7015  1  0.321200  0.223400  0.637400  1
  N  N7016  1  0.816200  0.414000  0.637400  1
  N  N7017  1  0.902000  0.334200  0.184400  1
  N  N7018  1  0.782400  0.850200  0.184400  1
  N  N7019  1  0.649800  0.717600  0.315600  1
  N  N7020  1  0.165800  0.598000  0.315600  1
  N  N7021  1  0.098000  0.665800  0.815600  1
  N  N7022  1  0.217600  0.149800  0.815600  1
  N  N7023  1  0.350200  0.282400  0.684400  1
  N  N7024  1  0.834200  0.402000  0.684400  1
  N  N7025  1  0.693100  0.171700  0.774000  1
  N  N7026  1  0.580900  0.602300  0.774000  1
  N  N7027  1  0.897700  0.919100  0.726000  1
  N  N7028  1  0.328300  0.806900  0.726000  1
  N  N7029  1  0.306900  0.828300  0.226000  1
  N  N7030  1  0.419100  0.397700  0.226000  1
  N  N7031  1  0.102300  0.080900  0.274000  1
  N  N7032  1  0.671700  0.193100  0.274000  1
  N  N7033  1  0.681500  0.223500  0.796200  1
  N  N7034  1  0.614700  0.572700  0.796200  1
  N  N7035  1  0.927300  0.885300  0.703800  1
  N  N7036  1  0.276500  0.818500  0.703800  1
  N  N7037  1  0.318500  0.776500  0.203800  1
  N  N7038  1  0.385300  0.427300  0.203800  1
  N  N7039  1  0.072700  0.114700  0.296200  1
  N  N7040  1  0.723500  0.181500  0.296200  1
  N  N7041  1  0.642900  0.315900  0.851200  1
  N  N7042  1  0.708300  0.535300  0.851200  1
  N  N7043  1  0.964700  0.791700  0.648800  1
  N  N7044  1  0.184100  0.857100  0.648800  1
  N  N7045  1  0.357100  0.684100  0.148800  1
  N  N7046  1  0.291700  0.464700  0.148800  1
  N  N7047  1  0.035300  0.208300  0.351200  1
  N  N7048  1  0.815900  0.142900  0.351200  1
  N  N7049  1  0.626800  0.361200  0.875800  1
  N  N7050  1  0.749000  0.514600  0.875800  1
  N  N7051  1  0.985400  0.751000  0.624200  1
  N  N7052  1  0.138800  0.873200  0.624200  1
  N  N7053  1  0.373200  0.638800  0.124200  1
  N  N7054  1  0.251000  0.485400  0.124200  1
  N  N7055  1  0.014600  0.249000  0.375800  1
  N  N7056  1  0.861200  0.126800  0.375800  1
  N  N7057  1  0.598100  0.312900  0.875200  1
  N  N7058  1  0.777100  0.562300  0.875200  1
  N  N7059  1  0.937700  0.722900  0.624800  1
  N  N7060  1  0.187100  0.901900  0.624800  1
  N  N7061  1  0.401900  0.687100  0.124800  1
  N  N7062  1  0.222900  0.437700  0.124800  1
  N  N7063  1  0.062300  0.277100  0.375200  1
  N  N7064  1  0.812900  0.098100  0.375200  1
  N  N7065  1  0.724400  0.430400  0.076800  1
  N  N7066  1  0.852400  0.646400  0.076800  1
  N  N7067  1  0.853600  0.647600  0.423200  1
  N  N7068  1  0.069600  0.775600  0.423200  1
  N  N7069  1  0.275600  0.569600  0.923200  1
  N  N7070  1  0.147600  0.353600  0.923200  1
  N  N7071  1  0.146400  0.352400  0.576800  1
  N  N7072  1  0.930400  0.224400  0.576800  1
  N  N7073  1  0.770200  0.469600  0.143800  1
  N  N7074  1  0.873600  0.674200  0.143800  1
  N  N7075  1  0.825800  0.626400  0.356200  1
  N  N7076  1  0.030400  0.729800  0.356200  1
  N  N7077  1  0.229800  0.530400  0.856200  1
  N  N7078  1  0.126400  0.325800  0.856200  1
  N  N7079  1  0.174200  0.373600  0.643800  1
  N  N7080  1  0.969600  0.270200  0.643800  1
  N  N7081  1  0.728900  0.415900  0.128400  1
  N  N7082  1  0.899500  0.712500  0.128400  1
  N  N7083  1  0.787500  0.600500  0.371600  1
  N  N7084  1  0.084100  0.771100  0.371600  1
  N  N7085  1  0.271100  0.584100  0.871600  1
  N  N7086  1  0.100500  0.287500  0.871600  1
  N  N7087  1  0.212500  0.399500  0.628400  1
  N  N7088  1  0.915900  0.228900  0.628400  1
  N  N7089  1  0.786600  0.417200  0.149600  1
  N  N7090  1  0.863000  0.732400  0.149600  1
  N  N7091  1  0.767600  0.637000  0.350400  1
  N  N7092  1  0.082800  0.713400  0.350400  1
  N  N7093  1  0.213400  0.582800  0.850400  1
  N  N7094  1  0.137000  0.267600  0.850400  1
  N  N7095  1  0.232400  0.363000  0.649600  1
  N  N7096  1  0.917200  0.286600  0.649600  1
  N  N7097  1  0.943800  0.381600  0.198000  1
  N  N7098  1  0.754200  0.816400  0.198000  1
  N  N7099  1  0.683600  0.745800  0.302000  1
  N  N7100  1  0.118400  0.556200  0.302000  1
  N  N7101  1  0.056200  0.618400  0.802000  1
  N  N7102  1  0.245800  0.183600  0.802000  1
  N  N7103  1  0.316400  0.254200  0.698000  1
  N  N7104  1  0.881600  0.443800  0.698000  1
  N  N7105  1  0.769600  0.032000  0.053400  1.0
  N  N7106  1  0.783800  0.021400  0.053400  1.0
  N  N7107  1  0.478600  0.716200  0.446600  1.0
  N  N7108  1  0.468000  0.730400  0.446600  1.0
  N  N7109  1  0.230400  0.968000  0.946600  1.0
  N  N7110  1  0.216200  0.978600  0.946600  1.0
  N  N7111  1  0.521400  0.283800  0.553400  1.0
  N  N7112  1  0.532000  0.269600  0.553400  1.0
  O  O7113  1  0.982400  0.046800  0.793400  1
  O  O7114  1  0.311000  0.746600  0.793400  1
  O  O7115  1  0.753400  0.189000  0.706600  1
  O  O7116  1  0.453200  0.517600  0.706600  1
  O  O7117  1  0.017600  0.953200  0.206600  1
  O  O7118  1  0.689000  0.253400  0.206600  1
  O  O7119  1  0.246600  0.811000  0.293400  1
  O  O7120  1  0.546800  0.482400  0.293400  1
  O  O7121  1  0.957600  0.025400  0.815600  1
  O  O7122  1  0.358000  0.790200  0.815600  1
  O  O7123  1  0.709800  0.142000  0.684400  1
  O  O7124  1  0.474600  0.542400  0.684400  1
  O  O7125  1  0.042400  0.974600  0.184400  1
  O  O7126  1  0.642000  0.209800  0.184400  1
  O  O7127  1  0.290200  0.858000  0.315600  1
  O  O7128  1  0.525400  0.457600  0.315600  1
  O  O7129  1  0.955900  0.117100  0.867800  1
  O  O7130  1  0.411900  0.750700  0.867800  1
  O  O7131  1  0.749300  0.088100  0.632200  1
  O  O7132  1  0.382900  0.544100  0.632200  1
  O  O7133  1  0.044100  0.882900  0.132200  1
  O  O7134  1  0.588100  0.249300  0.132200  1
  O  O7135  1  0.250700  0.911900  0.367800  1
  O  O7136  1  0.617100  0.455900  0.367800  1
  O  O7137  1  0.942700  0.064300  0.857400  1
  O  O7138  1  0.414700  0.793100  0.857400  1
  O  O7139  1  0.706900  0.085300  0.642600  1
  O  O7140  1  0.435700  0.557300  0.642600  1
  O  O7141  1  0.057300  0.935700  0.142600  1
  O  O7142  1  0.585300  0.206900  0.142600  1
  O  O7143  1  0.293100  0.914700  0.357400  1
  O  O7144  1  0.564300  0.442700  0.357400  1
  O  O7145  1  0.527100  0.203300  0.976000  1
  O  O7146  1  0.948900  0.772700  0.976000  1
  O  O7147  1  0.727300  0.551100  0.524000  1
  O  O7148  1  0.296700  0.972900  0.524000  1
  O  O7149  1  0.472900  0.796700  0.024000  1
  O  O7150  1  0.051100  0.227300  0.024000  1
  O  O7151  1  0.272700  0.448900  0.476000  1
  O  O7152  1  0.703300  0.027100  0.476000  1
  O  O7153  1  0.481100  0.212700  0.971600  1
  O  O7154  1  0.990500  0.758900  0.971600  1
  O  O7155  1  0.741100  0.509500  0.528400  1
  O  O7156  1  0.287300  0.018900  0.528400  1
  O  O7157  1  0.518900  0.787300  0.028400  1
  O  O7158  1  0.009500  0.241100  0.028400  1
  O  O7159  1  0.258900  0.490500  0.471600  1
  O  O7160  1  0.712700  0.981100  0.471600  1
  O  O7161  1  0.427600  0.110000  0.883000  1
  O  O7162  1  0.955400  0.773000  0.883000  1
  O  O7163  1  0.727000  0.544600  0.617000  1
  O  O7164  1  0.390000  0.072400  0.617000  1
  O  O7165  1  0.572400  0.890000  0.117000  1
  O  O7166  1  0.044600  0.227000  0.117000  1
  O  O7167  1  0.273000  0.455400  0.383000  1
  O  O7168  1  0.610000  0.927600  0.383000  1
  O  O7169  1  0.425300  0.153300  0.926400  1
  O  O7170  1  0.001100  0.773100  0.926400  1
  O  O7171  1  0.726900  0.498900  0.573600  1
  O  O7172  1  0.346700  0.074700  0.573600  1
  O  O7173  1  0.574700  0.846700  0.073600  1
  O  O7174  1  0.998900  0.226900  0.073600  1
  O  O7175  1  0.273100  0.501100  0.426400  1
  O  O7176  1  0.653300  0.925300  0.426400  1
  O  O7177  1  0.793100  0.077100  0.057200  1.0
  O  O7178  1  0.764100  0.980100  0.057200  1.0
  O  O7179  1  0.519900  0.735900  0.442800  1.0
  O  O7180  1  0.422900  0.706900  0.442800  1.0
  O  O7181  1  0.206900  0.922900  0.942800  1.0
  O  O7182  1  0.235900  0.019900  0.942800  1.0
  O  O7183  1  0.480100  0.264100  0.557200  1.0
  O  O7184  1  0.577100  0.293100  0.557200  1.0
  O  O7185  1  0.816200  0.083600  0.109800  1.0
  O  O7186  1  0.793600  0.026200  0.109800  1.0
  O  O7187  1  0.473800  0.706400  0.390200  1.0
  O  O7188  1  0.416400  0.683800  0.390200  1.0
  O  O7189  1  0.183800  0.916400  0.890200  1.0
  O  O7190  1  0.206400  0.973800  0.890200  1.0
  O  O7191  1  0.526200  0.293600  0.609800  1.0
  O  O7192  1  0.583600  0.316200  0.609800  1.0
  P  P7193  1  0.622730  0.200930  0.827280  1
  P  P7194  1  0.704550  0.626350  0.827280  1
  P  P7195  1  0.873650  0.795450  0.672720  1
  P  P7196  1  0.299070  0.877270  0.672720  1
  P  P7197  1  0.377270  0.799070  0.172720  1
  P  P7198  1  0.295450  0.373650  0.172720  1
  P  P7199  1  0.126350  0.204550  0.327280  1
  P  P7200  1  0.700930  0.122730  0.327280  1
  P  P7201  1  0.637500  0.316140  0.990600  1
  P  P7202  1  0.853100  0.674460  0.990600  1
  P  P7203  1  0.825540  0.646900  0.509400  1
  P  P7204  1  0.183860  0.862500  0.509400  1
  P  P7205  1  0.362500  0.683860  0.009400  1
  P  P7206  1  0.146900  0.325540  0.009400  1
  P  P7207  1  0.174460  0.353100  0.490600  1
  P  P7208  1  0.816140  0.137500  0.490600  1
  P  P7209  1  0.848000  0.220020  0.064660  1
  P  P7210  1  0.716660  0.844640  0.064660  1
  P  P7211  1  0.655360  0.783340  0.435340  1
  P  P7212  1  0.279980  0.652000  0.435340  1
  P  P7213  1  0.152000  0.779980  0.935340  1
  P  P7214  1  0.283340  0.155360  0.935340  1
  P  P7215  1  0.344640  0.216660  0.564660  1
  P  P7216  1  0.720020  0.348000  0.564660  1
  P  P7217  1  0.648500  0.142160  0.963440  1
  P  P7218  1  0.814940  0.821280  0.963440  1
  P  P7219  1  0.678720  0.685060  0.536560  1
  P  P7220  1  0.357840  0.851500  0.536560  1
  P  P7221  1  0.351500  0.857840  0.036560  1
  P  P7222  1  0.185060  0.178720  0.036560  1
  P  P7223  1  0.321280  0.314940  0.463440  1
  P  P7224  1  0.642160  0.148500  0.463440  1
  P  P7225  1  0.752870  0.142350  0.873440  1
  P  P7226  1  0.620570  0.731090  0.873440  1
  P  P7227  1  0.768910  0.879430  0.626560  1
  P  P7228  1  0.357650  0.747130  0.626560  1
  P  P7229  1  0.247130  0.857650  0.126560  1
  P  P7230  1  0.379430  0.268910  0.126560  1
  P  P7231  1  0.231090  0.120570  0.373440  1
  P  P7232  1  0.642350  0.252870  0.373440  1
  P  P7233  1  0.776950  0.326970  0.136700  1
  P  P7234  1  0.859750  0.809730  0.136700  1
  P  P7235  1  0.690270  0.640250  0.363300  1
  P  P7236  1  0.173030  0.723050  0.363300  1
  P  P7237  1  0.223050  0.673030  0.863300  1
  P  P7238  1  0.140250  0.190270  0.863300  1
  P  P7239  1  0.309730  0.359750  0.636700  1
  P  P7240  1  0.826970  0.276950  0.636700  1
  P  P7241  1  0.804300  0.339080  0.991120  1
  P  P7242  1  0.686820  0.652040  0.991120  1
  P  P7243  1  0.847960  0.813180  0.508880  1
  P  P7244  1  0.160920  0.695700  0.508880  1
  P  P7245  1  0.195700  0.660920  0.008880  1
  P  P7246  1  0.313180  0.347960  0.008880  1
  P  P7247  1  0.152040  0.186820  0.491120  1
  P  P7248  1  0.839080  0.304300  0.491120  1
  P  P7249  1  0.742900  0.492900  0.250000  1
  P  P7250  1  0.007100  0.757100  0.250000  1
  P  P7251  1  0.257100  0.507100  0.750000  1
  P  P7252  1  0.992900  0.242900  0.750000  1
  S  S7253  1  0.976690  0.051430  0.819740  1
  S  S7254  1  0.343050  0.768310  0.819740  1
  S  S7255  1  0.731690  0.156950  0.680260  1
  S  S7256  1  0.448570  0.523310  0.680260  1
  S  S7257  1  0.023310  0.948570  0.180260  1
  S  S7258  1  0.656950  0.231690  0.180260  1
  S  S7259  1  0.268310  0.843050  0.319740  1
  S  S7260  1  0.551430  0.476690  0.319740  1
  S  S7261  1  0.947780  0.085480  0.846940  1
  S  S7262  1  0.399160  0.761460  0.846940  1
  S  S7263  1  0.738540  0.100840  0.653060  1
  S  S7264  1  0.414520  0.552220  0.653060  1
  S  S7265  1  0.052220  0.914520  0.153060  1
  S  S7266  1  0.600840  0.238540  0.153060  1
  S  S7267  1  0.261460  0.899160  0.346940  1
  S  S7268  1  0.585480  0.447780  0.346940  1
  S  S7269  1  0.495500  0.191120  0.966940  1
  S  S7270  1  0.971440  0.775820  0.966940  1
  S  S7271  1  0.724180  0.528560  0.533060  1
  S  S7272  1  0.308880  0.004500  0.533060  1
  S  S7273  1  0.504500  0.808880  0.033060  1
  S  S7274  1  0.028560  0.224180  0.033060  1
  S  S7275  1  0.275820  0.471440  0.466940  1
  S  S7276  1  0.691120  0.995500  0.466940  1
  S  S7277  1  0.441450  0.143470  0.910920  1
  S  S7278  1  0.969470  0.767450  0.910920  1
  S  S7279  1  0.732550  0.530530  0.589080  1
  S  S7280  1  0.356530  0.058550  0.589080  1
  S  S7281  1  0.558550  0.856530  0.089080  1
  S  S7282  1  0.030530  0.232550  0.089080  1
  S  S7283  1  0.267450  0.469470  0.410920  1
  S  S7284  1  0.643470  0.941450  0.410920  1
  S  S7285  1  0.789800  0.065800  0.079600  1.0
  S  S7286  1  0.789800  0.013800  0.079600  1.0
  S  S7287  1  0.486200  0.710200  0.420400  1.0
  S  S7288  1  0.434200  0.710200  0.420400  1.0
  S  S7289  1  0.210200  0.934200  0.920400  1.0
  S  S7290  1  0.210200  0.986200  0.920400  1.0
  S  S7291  1  0.513800  0.289800  0.579600  1.0
  S  S7292  1  0.565800  0.289800  0.579600  1.0
