# generated using pymatgen
data_Co8H288C349S15N56(O16F21)3
_symmetry_space_group_name_H-M   'P 1'
_cell_length_a   24.75780000
_cell_length_b   24.75780000
_cell_length_c   41.41720000
_cell_angle_alpha   90.00000000
_cell_angle_beta   90.00000000
_cell_angle_gamma   120.00000000
_symmetry_Int_Tables_number   1
_chemical_formula_structural   Co8H288C349S15N56(O16F21)3
_chemical_formula_sum   'Co16 H576 C698 S30 N112 O96 F126'
_cell_volume   21985.45547695
_cell_formula_units_Z   2
loop_
 _symmetry_equiv_pos_site_id
 _symmetry_equiv_pos_as_xyz
  1  'x, y, z'
loop_
 _atom_site_type_symbol
 _atom_site_label
 _atom_site_symmetry_multiplicity
 _atom_site_fract_x
 _atom_site_fract_y
 _atom_site_fract_z
 _atom_site_occupancy
  Co  Co1  1  0.333333  0.666667  0.417250  1
  Co  Co2  1  0.666667  0.333333  0.582750  1
  Co  Co3  1  0.666667  0.333333  0.917250  1
  Co  Co4  1  0.333333  0.666667  0.082750  1
  Co  Co5  1  0.192570  0.401230  0.608410  1.0
  Co  Co6  1  0.208660  0.807430  0.608410  1.0
  Co  Co7  1  0.598770  0.791340  0.608410  1.0
  Co  Co8  1  0.401230  0.192570  0.391590  1.0
  Co  Co9  1  0.807430  0.208660  0.391590  1.0
  Co  Co10  1  0.791340  0.598770  0.391590  1.0
  Co  Co11  1  0.791340  0.598770  0.108410  1.0
  Co  Co12  1  0.807430  0.208660  0.108410  1.0
  Co  Co13  1  0.401230  0.192570  0.108410  1.0
  Co  Co14  1  0.192570  0.401230  0.891590  1.0
  Co  Co15  1  0.598770  0.791340  0.891590  1.0
  Co  Co16  1  0.208660  0.807430  0.891590  1.0
  H  H17  1  0.059100  0.496100  0.507600  1
  H  H18  1  0.437000  0.940900  0.507600  1
  H  H19  1  0.503900  0.563000  0.507600  1
  H  H20  1  0.496100  0.059100  0.492400  1
  H  H21  1  0.940900  0.437000  0.492400  1
  H  H22  1  0.563000  0.503900  0.492400  1
  H  H23  1  0.563000  0.503900  0.007600  1
  H  H24  1  0.940900  0.437000  0.007600  1
  H  H25  1  0.496100  0.059100  0.007600  1
  H  H26  1  0.059100  0.496100  0.992400  1
  H  H27  1  0.503900  0.563000  0.992400  1
  H  H28  1  0.437000  0.940900  0.992400  1
  H  H29  1  0.068300  0.561000  0.494600  1
  H  H30  1  0.492700  0.931700  0.494600  1
  H  H31  1  0.439000  0.507300  0.494600  1
  H  H32  1  0.561000  0.068300  0.505400  1
  H  H33  1  0.931700  0.492700  0.505400  1
  H  H34  1  0.507300  0.439000  0.505400  1
  H  H35  1  0.507300  0.439000  0.994600  1
  H  H36  1  0.931700  0.492700  0.994600  1
  H  H37  1  0.561000  0.068300  0.994600  1
  H  H38  1  0.068300  0.561000  0.005400  1
  H  H39  1  0.439000  0.507300  0.005400  1
  H  H40  1  0.492700  0.931700  0.005400  1
  H  H41  1  0.045000  0.539200  0.530800  1
  H  H42  1  0.494200  0.955000  0.530800  1
  H  H43  1  0.460800  0.505800  0.530800  1
  H  H44  1  0.539200  0.045000  0.469200  1
  H  H45  1  0.955000  0.494200  0.469200  1
  H  H46  1  0.505800  0.460800  0.469200  1
  H  H47  1  0.505800  0.460800  0.030800  1
  H  H48  1  0.955000  0.494200  0.030800  1
  H  H49  1  0.539200  0.045000  0.030800  1
  H  H50  1  0.045000  0.539200  0.969200  1
  H  H51  1  0.460800  0.505800  0.969200  1
  H  H52  1  0.494200  0.955000  0.969200  1
  H  H53  1  0.168700  0.120200  0.688900  1.0
  H  H54  1  0.951500  0.831300  0.688900  1.0
  H  H55  1  0.879800  0.048500  0.688900  1.0
  H  H56  1  0.120200  0.168700  0.311100  1.0
  H  H57  1  0.831300  0.951500  0.311100  1.0
  H  H58  1  0.048500  0.879800  0.311100  1.0
  H  H59  1  0.048500  0.879800  0.188900  1.0
  H  H60  1  0.831300  0.951500  0.188900  1.0
  H  H61  1  0.120200  0.168700  0.188900  1.0
  H  H62  1  0.168700  0.120200  0.811100  1.0
  H  H63  1  0.879800  0.048500  0.811100  1.0
  H  H64  1  0.951500  0.831300  0.811100  1.0
  H  H65  1  0.234400  0.166300  0.705400  1.0
  H  H66  1  0.931900  0.765600  0.705400  1.0
  H  H67  1  0.833700  0.068100  0.705400  1.0
  H  H68  1  0.166300  0.234400  0.294600  1.0
  H  H69  1  0.765600  0.931900  0.294600  1.0
  H  H70  1  0.068100  0.833700  0.294600  1.0
  H  H71  1  0.068100  0.833700  0.205400  1.0
  H  H72  1  0.765600  0.931900  0.205400  1.0
  H  H73  1  0.166300  0.234400  0.205400  1.0
  H  H74  1  0.234400  0.166300  0.794600  1.0
  H  H75  1  0.833700  0.068100  0.794600  1.0
  H  H76  1  0.931900  0.765600  0.794600  1.0
  H  H77  1  0.231600  0.129100  0.673300  1.0
  H  H78  1  0.897500  0.768400  0.673300  1.0
  H  H79  1  0.870900  0.102500  0.673300  1.0
  H  H80  1  0.129100  0.231600  0.326700  1.0
  H  H81  1  0.768400  0.897500  0.326700  1.0
  H  H82  1  0.102500  0.870900  0.326700  1.0
  H  H83  1  0.102500  0.870900  0.173300  1.0
  H  H84  1  0.768400  0.897500  0.173300  1.0
  H  H85  1  0.129100  0.231600  0.173300  1.0
  H  H86  1  0.231600  0.129100  0.826700  1.0
  H  H87  1  0.870900  0.102500  0.826700  1.0
  H  H88  1  0.897500  0.768400  0.826700  1.0
  H  H89  1  0.200800  0.153000  0.623100  1.0
  H  H90  1  0.952200  0.799200  0.623100  1.0
  H  H91  1  0.847000  0.047800  0.623100  1.0
  H  H92  1  0.153000  0.200800  0.376900  1.0
  H  H93  1  0.799200  0.952200  0.376900  1.0
  H  H94  1  0.047800  0.847000  0.376900  1.0
  H  H95  1  0.047800  0.847000  0.123100  1.0
  H  H96  1  0.799200  0.952200  0.123100  1.0
  H  H97  1  0.153000  0.200800  0.123100  1.0
  H  H98  1  0.200800  0.153000  0.876900  1.0
  H  H99  1  0.847000  0.047800  0.876900  1.0
  H  H100  1  0.952200  0.799200  0.876900  1.0
  H  H101  1  0.211100  0.232500  0.588600  1.0
  H  H102  1  0.021400  0.788900  0.588600  1.0
  H  H103  1  0.767500  0.978600  0.588600  1.0
  H  H104  1  0.232500  0.211100  0.411400  1.0
  H  H105  1  0.788900  0.021400  0.411400  1.0
  H  H106  1  0.978600  0.767500  0.411400  1.0
  H  H107  1  0.978600  0.767500  0.088600  1.0
  H  H108  1  0.788900  0.021400  0.088600  1.0
  H  H109  1  0.232500  0.211100  0.088600  1.0
  H  H110  1  0.211100  0.232500  0.911400  1.0
  H  H111  1  0.767500  0.978600  0.911400  1.0
  H  H112  1  0.021400  0.788900  0.911400  1.0
  H  H113  1  0.247500  0.346800  0.665500  1.0
  H  H114  1  0.099300  0.752500  0.665500  1.0
  H  H115  1  0.653200  0.900700  0.665500  1.0
  H  H116  1  0.346800  0.247500  0.334500  1.0
  H  H117  1  0.752500  0.099300  0.334500  1.0
  H  H118  1  0.900700  0.653200  0.334500  1.0
  H  H119  1  0.900700  0.653200  0.165500  1.0
  H  H120  1  0.752500  0.099300  0.165500  1.0
  H  H121  1  0.346800  0.247500  0.165500  1.0
  H  H122  1  0.247500  0.346800  0.834500  1.0
  H  H123  1  0.653200  0.900700  0.834500  1.0
  H  H124  1  0.099300  0.752500  0.834500  1.0
  H  H125  1  0.237200  0.267300  0.700000  1.0
  H  H126  1  0.030100  0.762800  0.700000  1.0
  H  H127  1  0.732700  0.969900  0.700000  1.0
  H  H128  1  0.267300  0.237200  0.300000  1.0
  H  H129  1  0.762800  0.030100  0.300000  1.0
  H  H130  1  0.969900  0.732700  0.300000  1.0
  H  H131  1  0.969900  0.732700  0.200000  1.0
  H  H132  1  0.762800  0.030100  0.200000  1.0
  H  H133  1  0.267300  0.237200  0.200000  1.0
  H  H134  1  0.237200  0.267300  0.800000  1.0
  H  H135  1  0.732700  0.969900  0.800000  1.0
  H  H136  1  0.030100  0.762800  0.800000  1.0
  H  H137  1  0.287100  0.331700  0.572000  1.0
  H  H138  1  0.044600  0.712900  0.572000  1.0
  H  H139  1  0.668300  0.955400  0.572000  1.0
  H  H140  1  0.331700  0.287100  0.428000  1.0
  H  H141  1  0.712900  0.044600  0.428000  1.0
  H  H142  1  0.955400  0.668300  0.428000  1.0
  H  H143  1  0.955400  0.668300  0.072000  1.0
  H  H144  1  0.712900  0.044600  0.072000  1.0
  H  H145  1  0.331700  0.287100  0.072000  1.0
  H  H146  1  0.287100  0.331700  0.928000  1.0
  H  H147  1  0.668300  0.955400  0.928000  1.0
  H  H148  1  0.044600  0.712900  0.928000  1.0
  H  H149  1  0.198700  0.477900  0.543900  1.0
  H  H150  1  0.279200  0.801300  0.543900  1.0
  H  H151  1  0.522100  0.720800  0.543900  1.0
  H  H152  1  0.477900  0.198700  0.456100  1.0
  H  H153  1  0.801300  0.279200  0.456100  1.0
  H  H154  1  0.720800  0.522100  0.456100  1.0
  H  H155  1  0.720800  0.522100  0.043900  1.0
  H  H156  1  0.801300  0.279200  0.043900  1.0
  H  H157  1  0.477900  0.198700  0.043900  1.0
  H  H158  1  0.198700  0.477900  0.956100  1.0
  H  H159  1  0.522100  0.720800  0.956100  1.0
  H  H160  1  0.279200  0.801300  0.956100  1.0
  H  H161  1  0.305800  0.453400  0.480200  1.0
  H  H162  1  0.147600  0.694200  0.480200  1.0
  H  H163  1  0.546600  0.852400  0.480200  1.0
  H  H164  1  0.453400  0.305800  0.519800  1.0
  H  H165  1  0.694200  0.147600  0.519800  1.0
  H  H166  1  0.852400  0.546600  0.519800  1.0
  H  H167  1  0.852400  0.546600  0.980200  1.0
  H  H168  1  0.694200  0.147600  0.980200  1.0
  H  H169  1  0.453400  0.305800  0.980200  1.0
  H  H170  1  0.305800  0.453400  0.019800  1.0
  H  H171  1  0.546600  0.852400  0.019800  1.0
  H  H172  1  0.147600  0.694200  0.019800  1.0
  H  H173  1  0.317600  0.388100  0.518800  1.0
  H  H174  1  0.070500  0.682400  0.518800  1.0
  H  H175  1  0.611900  0.929500  0.518800  1.0
  H  H176  1  0.388100  0.317600  0.481200  1.0
  H  H177  1  0.682400  0.070500  0.481200  1.0
  H  H178  1  0.929500  0.611900  0.481200  1.0
  H  H179  1  0.929500  0.611900  0.018800  1.0
  H  H180  1  0.682400  0.070500  0.018800  1.0
  H  H181  1  0.388100  0.317600  0.018800  1.0
  H  H182  1  0.317600  0.388100  0.981200  1.0
  H  H183  1  0.611900  0.929500  0.981200  1.0
  H  H184  1  0.070500  0.682400  0.981200  1.0
  H  H185  1  0.321100  0.572900  0.476100  1.0
  H  H186  1  0.251800  0.678900  0.476100  1.0
  H  H187  1  0.427100  0.748200  0.476100  1.0
  H  H188  1  0.572900  0.321100  0.523900  1.0
  H  H189  1  0.678900  0.251800  0.523900  1.0
  H  H190  1  0.748200  0.427100  0.523900  1.0
  H  H191  1  0.748200  0.427100  0.976100  1.0
  H  H192  1  0.678900  0.251800  0.976100  1.0
  H  H193  1  0.572900  0.321100  0.976100  1.0
  H  H194  1  0.321100  0.572900  0.023900  1.0
  H  H195  1  0.427100  0.748200  0.023900  1.0
  H  H196  1  0.251800  0.678900  0.023900  1.0
  H  H197  1  0.117500  0.493300  0.439400  1.0
  H  H198  1  0.375800  0.882500  0.439400  1.0
  H  H199  1  0.506700  0.624200  0.439400  1.0
  H  H200  1  0.493300  0.117500  0.560600  1.0
  H  H201  1  0.882500  0.375800  0.560600  1.0
  H  H202  1  0.624200  0.506700  0.560600  1.0
  H  H203  1  0.624200  0.506700  0.939400  1.0
  H  H204  1  0.882500  0.375800  0.939400  1.0
  H  H205  1  0.493300  0.117500  0.939400  1.0
  H  H206  1  0.117500  0.493300  0.060600  1.0
  H  H207  1  0.506700  0.624200  0.060600  1.0
  H  H208  1  0.375800  0.882500  0.060600  1.0
  H  H209  1  0.141200  0.452100  0.486100  1.0
  H  H210  1  0.310900  0.858800  0.486100  1.0
  H  H211  1  0.547900  0.689100  0.486100  1.0
  H  H212  1  0.452100  0.141200  0.513900  1.0
  H  H213  1  0.858800  0.310900  0.513900  1.0
  H  H214  1  0.689100  0.547900  0.513900  1.0
  H  H215  1  0.689100  0.547900  0.986100  1.0
  H  H216  1  0.858800  0.310900  0.986100  1.0
  H  H217  1  0.452100  0.141200  0.986100  1.0
  H  H218  1  0.141200  0.452100  0.013900  1.0
  H  H219  1  0.547900  0.689100  0.013900  1.0
  H  H220  1  0.310900  0.858800  0.013900  1.0
  H  H221  1  0.159900  0.574600  0.398700  1.0
  H  H222  1  0.414700  0.840100  0.398700  1.0
  H  H223  1  0.425400  0.585300  0.398700  1.0
  H  H224  1  0.574600  0.159900  0.601300  1.0
  H  H225  1  0.840100  0.414700  0.601300  1.0
  H  H226  1  0.585300  0.425400  0.601300  1.0
  H  H227  1  0.585300  0.425400  0.898700  1.0
  H  H228  1  0.840100  0.414700  0.898700  1.0
  H  H229  1  0.574600  0.159900  0.898700  1.0
  H  H230  1  0.159900  0.574600  0.101300  1.0
  H  H231  1  0.425400  0.585300  0.101300  1.0
  H  H232  1  0.414700  0.840100  0.101300  1.0
  H  H233  1  0.235000  0.739000  0.392700  1.0
  H  H234  1  0.504000  0.765000  0.392700  1.0
  H  H235  1  0.261000  0.496000  0.392700  1.0
  H  H236  1  0.739000  0.235000  0.607300  1.0
  H  H237  1  0.765000  0.504000  0.607300  1.0
  H  H238  1  0.496000  0.261000  0.607300  1.0
  H  H239  1  0.496000  0.261000  0.892700  1.0
  H  H240  1  0.765000  0.504000  0.892700  1.0
  H  H241  1  0.739000  0.235000  0.892700  1.0
  H  H242  1  0.235000  0.739000  0.107300  1.0
  H  H243  1  0.261000  0.496000  0.107300  1.0
  H  H244  1  0.504000  0.765000  0.107300  1.0
  H  H245  1  0.228000  0.793100  0.348000  1.0
  H  H246  1  0.565100  0.772000  0.348000  1.0
  H  H247  1  0.206900  0.434900  0.348000  1.0
  H  H248  1  0.793100  0.228000  0.652000  1.0
  H  H249  1  0.772000  0.565100  0.652000  1.0
  H  H250  1  0.434900  0.206900  0.652000  1.0
  H  H251  1  0.434900  0.206900  0.848000  1.0
  H  H252  1  0.772000  0.565100  0.848000  1.0
  H  H253  1  0.793100  0.228000  0.848000  1.0
  H  H254  1  0.228000  0.793100  0.152000  1.0
  H  H255  1  0.206900  0.434900  0.152000  1.0
  H  H256  1  0.565100  0.772000  0.152000  1.0
  H  H257  1  0.240300  0.670200  0.288100  1.0
  H  H258  1  0.429900  0.759700  0.288100  1.0
  H  H259  1  0.329800  0.570100  0.288100  1.0
  H  H260  1  0.670200  0.240300  0.711900  1.0
  H  H261  1  0.759700  0.429900  0.711900  1.0
  H  H262  1  0.570100  0.329800  0.711900  1.0
  H  H263  1  0.570100  0.329800  0.788100  1.0
  H  H264  1  0.759700  0.429900  0.788100  1.0
  H  H265  1  0.670200  0.240300  0.788100  1.0
  H  H266  1  0.240300  0.670200  0.211900  1.0
  H  H267  1  0.329800  0.570100  0.211900  1.0
  H  H268  1  0.429900  0.759700  0.211900  1.0
  H  H269  1  0.247400  0.616200  0.332800  1.0
  H  H270  1  0.368800  0.752600  0.332800  1.0
  H  H271  1  0.383800  0.631200  0.332800  1.0
  H  H272  1  0.616200  0.247400  0.667200  1.0
  H  H273  1  0.752600  0.368800  0.667200  1.0
  H  H274  1  0.631200  0.383800  0.667200  1.0
  H  H275  1  0.631200  0.383800  0.832800  1.0
  H  H276  1  0.752600  0.368800  0.832800  1.0
  H  H277  1  0.616200  0.247400  0.832800  1.0
  H  H278  1  0.247400  0.616200  0.167200  1.0
  H  H279  1  0.383800  0.631200  0.167200  1.0
  H  H280  1  0.368800  0.752600  0.167200  1.0
  H  H281  1  0.212700  0.741200  0.265800  1.0
  H  H282  1  0.528500  0.787300  0.265800  1.0
  H  H283  1  0.258800  0.471500  0.265800  1.0
  H  H284  1  0.741200  0.212700  0.734200  1.0
  H  H285  1  0.787300  0.528500  0.734200  1.0
  H  H286  1  0.471500  0.258800  0.734200  1.0
  H  H287  1  0.471500  0.258800  0.765800  1.0
  H  H288  1  0.787300  0.528500  0.765800  1.0
  H  H289  1  0.741200  0.212700  0.765800  1.0
  H  H290  1  0.212700  0.741200  0.234200  1.0
  H  H291  1  0.258800  0.471500  0.234200  1.0
  H  H292  1  0.528500  0.787300  0.234200  1.0
  H  H293  1  0.239500  0.805800  0.283200  1.0
  H  H294  1  0.566300  0.760500  0.283200  1.0
  H  H295  1  0.194200  0.433700  0.283200  1.0
  H  H296  1  0.805800  0.239500  0.716800  1.0
  H  H297  1  0.760500  0.566300  0.716800  1.0
  H  H298  1  0.433700  0.194200  0.716800  1.0
  H  H299  1  0.433700  0.194200  0.783200  1.0
  H  H300  1  0.760500  0.566300  0.783200  1.0
  H  H301  1  0.805800  0.239500  0.783200  1.0
  H  H302  1  0.239500  0.805800  0.216800  1.0
  H  H303  1  0.194200  0.433700  0.216800  1.0
  H  H304  1  0.566300  0.760500  0.216800  1.0
  H  H305  1  0.170400  0.753400  0.289300  1.0
  H  H306  1  0.583000  0.829600  0.289300  1.0
  H  H307  1  0.246600  0.417000  0.289300  1.0
  H  H308  1  0.753400  0.170400  0.710700  1.0
  H  H309  1  0.829600  0.583000  0.710700  1.0
  H  H310  1  0.417000  0.246600  0.710700  1.0
  H  H311  1  0.417000  0.246600  0.789300  1.0
  H  H312  1  0.829600  0.583000  0.789300  1.0
  H  H313  1  0.753400  0.170400  0.789300  1.0
  H  H314  1  0.170400  0.753400  0.210700  1.0
  H  H315  1  0.246600  0.417000  0.210700  1.0
  H  H316  1  0.583000  0.829600  0.210700  1.0
  H  H317  1  0.891500  0.215700  0.688400  1.0
  H  H318  1  0.324200  0.108500  0.688400  1.0
  H  H319  1  0.784300  0.675800  0.688400  1.0
  H  H320  1  0.215700  0.891500  0.311600  1.0
  H  H321  1  0.108500  0.324200  0.311600  1.0
  H  H322  1  0.675800  0.784300  0.311600  1.0
  H  H323  1  0.675800  0.784300  0.188400  1.0
  H  H324  1  0.108500  0.324200  0.188400  1.0
  H  H325  1  0.215700  0.891500  0.188400  1.0
  H  H326  1  0.891500  0.215700  0.811600  1.0
  H  H327  1  0.784300  0.675800  0.811600  1.0
  H  H328  1  0.324200  0.108500  0.811600  1.0
  H  H329  1  0.905800  0.270500  0.713500  1.0
  H  H330  1  0.364700  0.094200  0.713500  1.0
  H  H331  1  0.729500  0.635300  0.713500  1.0
  H  H332  1  0.270500  0.905800  0.286500  1.0
  H  H333  1  0.094200  0.364700  0.286500  1.0
  H  H334  1  0.635300  0.729500  0.286500  1.0
  H  H335  1  0.635300  0.729500  0.213500  1.0
  H  H336  1  0.094200  0.364700  0.213500  1.0
  H  H337  1  0.270500  0.905800  0.213500  1.0
  H  H338  1  0.905800  0.270500  0.786500  1.0
  H  H339  1  0.729500  0.635300  0.786500  1.0
  H  H340  1  0.364700  0.094200  0.786500  1.0
  H  H341  1  0.915600  0.213800  0.724000  1.0
  H  H342  1  0.298200  0.084400  0.724000  1.0
  H  H343  1  0.786200  0.701800  0.724000  1.0
  H  H344  1  0.213800  0.915600  0.276000  1.0
  H  H345  1  0.084400  0.298200  0.276000  1.0
  H  H346  1  0.701800  0.786200  0.276000  1.0
  H  H347  1  0.701800  0.786200  0.224000  1.0
  H  H348  1  0.084400  0.298200  0.224000  1.0
  H  H349  1  0.213800  0.915600  0.224000  1.0
  H  H350  1  0.915600  0.213800  0.776000  1.0
  H  H351  1  0.786200  0.701800  0.776000  1.0
  H  H352  1  0.298200  0.084400  0.776000  1.0
  H  H353  1  0.999200  0.209400  0.673500  1.0
  H  H354  1  0.210200  0.000800  0.673500  1.0
  H  H355  1  0.790600  0.789800  0.673500  1.0
  H  H356  1  0.209400  0.999200  0.326500  1.0
  H  H357  1  0.000800  0.210200  0.326500  1.0
  H  H358  1  0.789800  0.790600  0.326500  1.0
  H  H359  1  0.789800  0.790600  0.173500  1.0
  H  H360  1  0.000800  0.210200  0.173500  1.0
  H  H361  1  0.209400  0.999200  0.173500  1.0
  H  H362  1  0.999200  0.209400  0.826500  1.0
  H  H363  1  0.790600  0.789800  0.826500  1.0
  H  H364  1  0.210200  0.000800  0.826500  1.0
  H  H365  1  0.101500  0.274300  0.655500  1.0
  H  H366  1  0.172800  0.898500  0.655500  1.0
  H  H367  1  0.725700  0.827200  0.655500  1.0
  H  H368  1  0.274300  0.101500  0.344500  1.0
  H  H369  1  0.898500  0.172800  0.344500  1.0
  H  H370  1  0.827200  0.725700  0.344500  1.0
  H  H371  1  0.827200  0.725700  0.155500  1.0
  H  H372  1  0.898500  0.172800  0.155500  1.0
  H  H373  1  0.274300  0.101500  0.155500  1.0
  H  H374  1  0.101500  0.274300  0.844500  1.0
  H  H375  1  0.725700  0.827200  0.844500  1.0
  H  H376  1  0.172800  0.898500  0.844500  1.0
  H  H377  1  0.098600  0.424200  0.692800  1.0
  H  H378  1  0.325600  0.901400  0.692800  1.0
  H  H379  1  0.575800  0.674400  0.692800  1.0
  H  H380  1  0.424200  0.098600  0.307200  1.0
  H  H381  1  0.901400  0.325600  0.307200  1.0
  H  H382  1  0.674400  0.575800  0.307200  1.0
  H  H383  1  0.674400  0.575800  0.192800  1.0
  H  H384  1  0.901400  0.325600  0.192800  1.0
  H  H385  1  0.424200  0.098600  0.192800  1.0
  H  H386  1  0.098600  0.424200  0.807200  1.0
  H  H387  1  0.575800  0.674400  0.807200  1.0
  H  H388  1  0.325600  0.901400  0.807200  1.0
  H  H389  1  0.996400  0.359300  0.710800  1.0
  H  H390  1  0.362900  0.003600  0.710800  1.0
  H  H391  1  0.640700  0.637100  0.710800  1.0
  H  H392  1  0.359300  0.996400  0.289200  1.0
  H  H393  1  0.003600  0.362900  0.289200  1.0
  H  H394  1  0.637100  0.640700  0.289200  1.0
  H  H395  1  0.637100  0.640700  0.210800  1.0
  H  H396  1  0.003600  0.362900  0.210800  1.0
  H  H397  1  0.359300  0.996400  0.210800  1.0
  H  H398  1  0.996400  0.359300  0.789200  1.0
  H  H399  1  0.640700  0.637100  0.789200  1.0
  H  H400  1  0.362900  0.003600  0.789200  1.0
  H  H401  1  0.202300  0.446700  0.696700  1.0
  H  H402  1  0.244400  0.797700  0.696700  1.0
  H  H403  1  0.553300  0.755600  0.696700  1.0
  H  H404  1  0.446700  0.202300  0.303300  1.0
  H  H405  1  0.797700  0.244400  0.303300  1.0
  H  H406  1  0.755600  0.553300  0.303300  1.0
  H  H407  1  0.755600  0.553300  0.196700  1.0
  H  H408  1  0.797700  0.244400  0.196700  1.0
  H  H409  1  0.446700  0.202300  0.196700  1.0
  H  H410  1  0.202300  0.446700  0.803300  1.0
  H  H411  1  0.553300  0.755600  0.803300  1.0
  H  H412  1  0.244400  0.797700  0.803300  1.0
  H  H413  1  0.342400  0.502400  0.594700  1.0
  H  H414  1  0.160000  0.657600  0.594700  1.0
  H  H415  1  0.497600  0.840000  0.594700  1.0
  H  H416  1  0.502400  0.342400  0.405300  1.0
  H  H417  1  0.657600  0.160000  0.405300  1.0
  H  H418  1  0.840000  0.497600  0.405300  1.0
  H  H419  1  0.840000  0.497600  0.094700  1.0
  H  H420  1  0.657600  0.160000  0.094700  1.0
  H  H421  1  0.502400  0.342400  0.094700  1.0
  H  H422  1  0.342400  0.502400  0.905300  1.0
  H  H423  1  0.497600  0.840000  0.905300  1.0
  H  H424  1  0.160000  0.657600  0.905300  1.0
  H  H425  1  0.408900  0.604600  0.675800  1.0
  H  H426  1  0.195700  0.591100  0.675800  1.0
  H  H427  1  0.395400  0.804300  0.675800  1.0
  H  H428  1  0.604600  0.408900  0.324200  1.0
  H  H429  1  0.591100  0.195700  0.324200  1.0
  H  H430  1  0.804300  0.395400  0.324200  1.0
  H  H431  1  0.804300  0.395400  0.175800  1.0
  H  H432  1  0.591100  0.195700  0.175800  1.0
  H  H433  1  0.604600  0.408900  0.175800  1.0
  H  H434  1  0.408900  0.604600  0.824200  1.0
  H  H435  1  0.395400  0.804300  0.824200  1.0
  H  H436  1  0.195700  0.591100  0.824200  1.0
  H  H437  1  0.310600  0.536300  0.701800  1.0
  H  H438  1  0.225700  0.689400  0.701800  1.0
  H  H439  1  0.463700  0.774300  0.701800  1.0
  H  H440  1  0.536300  0.310600  0.298200  1.0
  H  H441  1  0.689400  0.225700  0.298200  1.0
  H  H442  1  0.774300  0.463700  0.298200  1.0
  H  H443  1  0.774300  0.463700  0.201800  1.0
  H  H444  1  0.689400  0.225700  0.201800  1.0
  H  H445  1  0.536300  0.310600  0.201800  1.0
  H  H446  1  0.310600  0.536300  0.798200  1.0
  H  H447  1  0.463700  0.774300  0.798200  1.0
  H  H448  1  0.225700  0.689400  0.798200  1.0
  H  H449  1  0.458900  0.677100  0.626800  1.0
  H  H450  1  0.218200  0.541100  0.626800  1.0
  H  H451  1  0.322900  0.781800  0.626800  1.0
  H  H452  1  0.677100  0.458900  0.373200  1.0
  H  H453  1  0.541100  0.218200  0.373200  1.0
  H  H454  1  0.781800  0.322900  0.373200  1.0
  H  H455  1  0.781800  0.322900  0.126800  1.0
  H  H456  1  0.541100  0.218200  0.126800  1.0
  H  H457  1  0.677100  0.458900  0.126800  1.0
  H  H458  1  0.458900  0.677100  0.873200  1.0
  H  H459  1  0.322900  0.781800  0.873200  1.0
  H  H460  1  0.218200  0.541100  0.873200  1.0
  H  H461  1  0.558000  0.577700  0.583600  1.0
  H  H462  1  0.019700  0.442000  0.583600  1.0
  H  H463  1  0.422300  0.980300  0.583600  1.0
  H  H464  1  0.577700  0.558000  0.416400  1.0
  H  H465  1  0.442000  0.019700  0.416400  1.0
  H  H466  1  0.980300  0.422300  0.416400  1.0
  H  H467  1  0.980300  0.422300  0.083600  1.0
  H  H468  1  0.442000  0.019700  0.083600  1.0
  H  H469  1  0.577700  0.558000  0.083600  1.0
  H  H470  1  0.558000  0.577700  0.916400  1.0
  H  H471  1  0.422300  0.980300  0.916400  1.0
  H  H472  1  0.019700  0.442000  0.916400  1.0
  H  H473  1  0.455300  0.517000  0.603800  1.0
  H  H474  1  0.061700  0.544700  0.603800  1.0
  H  H475  1  0.483000  0.938300  0.603800  1.0
  H  H476  1  0.517000  0.455300  0.396200  1.0
  H  H477  1  0.544700  0.061700  0.396200  1.0
  H  H478  1  0.938300  0.483000  0.396200  1.0
  H  H479  1  0.938300  0.483000  0.103800  1.0
  H  H480  1  0.544700  0.061700  0.103800  1.0
  H  H481  1  0.517000  0.455300  0.103800  1.0
  H  H482  1  0.455300  0.517000  0.896200  1.0
  H  H483  1  0.483000  0.938300  0.896200  1.0
  H  H484  1  0.061700  0.544700  0.896200  1.0
  H  H485  1  0.653400  0.682100  0.577300  1.0
  H  H486  1  0.028700  0.346600  0.577300  1.0
  H  H487  1  0.317900  0.971300  0.577300  1.0
  H  H488  1  0.682100  0.653400  0.422700  1.0
  H  H489  1  0.346600  0.028700  0.422700  1.0
  H  H490  1  0.971300  0.317900  0.422700  1.0
  H  H491  1  0.971300  0.317900  0.077300  1.0
  H  H492  1  0.346600  0.028700  0.077300  1.0
  H  H493  1  0.682100  0.653400  0.077300  1.0
  H  H494  1  0.653400  0.682100  0.922700  1.0
  H  H495  1  0.317900  0.971300  0.922700  1.0
  H  H496  1  0.028700  0.346600  0.922700  1.0
  H  H497  1  0.140500  0.282200  0.552800  1.0
  H  H498  1  0.141700  0.859500  0.552800  1.0
  H  H499  1  0.717800  0.858300  0.552800  1.0
  H  H500  1  0.282200  0.140500  0.447200  1.0
  H  H501  1  0.859500  0.141700  0.447200  1.0
  H  H502  1  0.858300  0.717800  0.447200  1.0
  H  H503  1  0.858300  0.717800  0.052800  1.0
  H  H504  1  0.859500  0.141700  0.052800  1.0
  H  H505  1  0.282200  0.140500  0.052800  1.0
  H  H506  1  0.140500  0.282200  0.947200  1.0
  H  H507  1  0.717800  0.858300  0.947200  1.0
  H  H508  1  0.141700  0.859500  0.947200  1.0
  H  H509  1  0.094900  0.177400  0.540200  1.0
  H  H510  1  0.082500  0.905100  0.540200  1.0
  H  H511  1  0.822600  0.917500  0.540200  1.0
  H  H512  1  0.177400  0.094900  0.459800  1.0
  H  H513  1  0.905100  0.082500  0.459800  1.0
  H  H514  1  0.917500  0.822600  0.459800  1.0
  H  H515  1  0.917500  0.822600  0.040200  1.0
  H  H516  1  0.905100  0.082500  0.040200  1.0
  H  H517  1  0.177400  0.094900  0.040200  1.0
  H  H518  1  0.094900  0.177400  0.959800  1.0
  H  H519  1  0.822600  0.917500  0.959800  1.0
  H  H520  1  0.082500  0.905100  0.959800  1.0
  H  H521  1  0.942200  0.146700  0.591900  1.0
  H  H522  1  0.204500  0.057800  0.591900  1.0
  H  H523  1  0.853300  0.795500  0.591900  1.0
  H  H524  1  0.146700  0.942200  0.408100  1.0
  H  H525  1  0.057800  0.204500  0.408100  1.0
  H  H526  1  0.795500  0.853300  0.408100  1.0
  H  H527  1  0.795500  0.853300  0.091900  1.0
  H  H528  1  0.057800  0.204500  0.091900  1.0
  H  H529  1  0.146700  0.942200  0.091900  1.0
  H  H530  1  0.942200  0.146700  0.908100  1.0
  H  H531  1  0.853300  0.795500  0.908100  1.0
  H  H532  1  0.204500  0.057800  0.908100  1.0
  H  H533  1  0.992200  0.248200  0.608000  1.0
  H  H534  1  0.256000  0.007800  0.608000  1.0
  H  H535  1  0.751800  0.744000  0.608000  1.0
  H  H536  1  0.248200  0.992200  0.392000  1.0
  H  H537  1  0.007800  0.256000  0.392000  1.0
  H  H538  1  0.744000  0.751800  0.392000  1.0
  H  H539  1  0.744000  0.751800  0.108000  1.0
  H  H540  1  0.007800  0.256000  0.108000  1.0
  H  H541  1  0.248200  0.992200  0.108000  1.0
  H  H542  1  0.992200  0.248200  0.892000  1.0
  H  H543  1  0.751800  0.744000  0.892000  1.0
  H  H544  1  0.256000  0.007800  0.892000  1.0
  H  H545  1  0.982200  0.057200  0.574800  1.0
  H  H546  1  0.075000  0.017800  0.574800  1.0
  H  H547  1  0.942800  0.925000  0.574800  1.0
  H  H548  1  0.057200  0.982200  0.425200  1.0
  H  H549  1  0.017800  0.075000  0.425200  1.0
  H  H550  1  0.925000  0.942800  0.425200  1.0
  H  H551  1  0.925000  0.942800  0.074800  1.0
  H  H552  1  0.017800  0.075000  0.074800  1.0
  H  H553  1  0.057200  0.982200  0.074800  1.0
  H  H554  1  0.982200  0.057200  0.925200  1.0
  H  H555  1  0.942800  0.925000  0.925200  1.0
  H  H556  1  0.075000  0.017800  0.925200  1.0
  H  H557  1  0.003100  0.074700  0.538000  1.0
  H  H558  1  0.071600  0.996900  0.538000  1.0
  H  H559  1  0.925300  0.928400  0.538000  1.0
  H  H560  1  0.074700  0.003100  0.462000  1.0
  H  H561  1  0.996900  0.071600  0.462000  1.0
  H  H562  1  0.928400  0.925300  0.462000  1.0
  H  H563  1  0.928400  0.925300  0.038000  1.0
  H  H564  1  0.996900  0.071600  0.038000  1.0
  H  H565  1  0.074700  0.003100  0.038000  1.0
  H  H566  1  0.003100  0.074700  0.962000  1.0
  H  H567  1  0.925300  0.928400  0.962000  1.0
  H  H568  1  0.071600  0.996900  0.962000  1.0
  H  H569  1  0.937400  0.065200  0.549800  1.0
  H  H570  1  0.127800  0.062600  0.549800  1.0
  H  H571  1  0.934800  0.872200  0.549800  1.0
  H  H572  1  0.065200  0.937400  0.450200  1.0
  H  H573  1  0.062600  0.127800  0.450200  1.0
  H  H574  1  0.872200  0.934800  0.450200  1.0
  H  H575  1  0.872200  0.934800  0.049800  1.0
  H  H576  1  0.062600  0.127800  0.049800  1.0
  H  H577  1  0.065200  0.937400  0.049800  1.0
  H  H578  1  0.937400  0.065200  0.950200  1.0
  H  H579  1  0.934800  0.872200  0.950200  1.0
  H  H580  1  0.127800  0.062600  0.950200  1.0
  H  H581  1  0.359800  0.708400  0.550300  1.0
  H  H582  1  0.348600  0.640200  0.550300  1.0
  H  H583  1  0.291600  0.651400  0.550300  1.0
  H  H584  1  0.708400  0.359800  0.449700  1.0
  H  H585  1  0.640200  0.348600  0.449700  1.0
  H  H586  1  0.651400  0.291600  0.449700  1.0
  H  H587  1  0.651400  0.291600  0.050300  1.0
  H  H588  1  0.640200  0.348600  0.050300  1.0
  H  H589  1  0.708400  0.359800  0.050300  1.0
  H  H590  1  0.359800  0.708400  0.949700  1.0
  H  H591  1  0.291600  0.651400  0.949700  1.0
  H  H592  1  0.348600  0.640200  0.949700  1.0
  C  C593  1  0.954300  0.583800  0.609000  1
  C  C594  1  0.629500  0.045700  0.609000  1
  C  C595  1  0.416200  0.370500  0.609000  1
  C  C596  1  0.583800  0.954300  0.391000  1
  C  C597  1  0.045700  0.629500  0.391000  1
  C  C598  1  0.370500  0.416200  0.391000  1
  C  C599  1  0.370500  0.416200  0.109000  1
  C  C600  1  0.045700  0.629500  0.109000  1
  C  C601  1  0.583800  0.954300  0.109000  1
  C  C602  1  0.954300  0.583800  0.891000  1
  C  C603  1  0.416200  0.370500  0.891000  1
  C  C604  1  0.629500  0.045700  0.891000  1
  C  C605  1  0.097500  0.516500  0.750000  1
  C  C606  1  0.419000  0.902500  0.750000  1
  C  C607  1  0.483500  0.581000  0.750000  1
  C  C608  1  0.516500  0.097500  0.250000  1
  C  C609  1  0.902500  0.419000  0.250000  1
  C  C610  1  0.581000  0.483500  0.250000  1
  C  C611  1  0.333333  0.666667  0.594000  1
  C  C612  1  0.666667  0.333333  0.406000  1
  C  C613  1  0.666667  0.333333  0.094000  1
  C  C614  1  0.333333  0.666667  0.906000  1
  C  C615  1  0.333333  0.666667  0.558100  1
  C  C616  1  0.666667  0.333333  0.441900  1
  C  C617  1  0.666667  0.333333  0.058100  1
  C  C618  1  0.333333  0.666667  0.941900  1
  C  C619  1  0.136900  0.570900  0.524600  1
  C  C620  1  0.434000  0.863100  0.524600  1
  C  C621  1  0.429100  0.566000  0.524600  1
  C  C622  1  0.570900  0.136900  0.475400  1
  C  C623  1  0.863100  0.434000  0.475400  1
  C  C624  1  0.566000  0.429100  0.475400  1
  C  C625  1  0.566000  0.429100  0.024600  1
  C  C626  1  0.863100  0.434000  0.024600  1
  C  C627  1  0.570900  0.136900  0.024600  1
  C  C628  1  0.136900  0.570900  0.975400  1
  C  C629  1  0.429100  0.566000  0.975400  1
  C  C630  1  0.434000  0.863100  0.975400  1
  C  C631  1  0.072000  0.539200  0.513500  1
  C  C632  1  0.467200  0.928000  0.513500  1
  C  C633  1  0.460800  0.532800  0.513500  1
  C  C634  1  0.539200  0.072000  0.486500  1
  C  C635  1  0.928000  0.467200  0.486500  1
  C  C636  1  0.532800  0.460800  0.486500  1
  C  C637  1  0.532800  0.460800  0.013500  1
  C  C638  1  0.928000  0.467200  0.013500  1
  C  C639  1  0.539200  0.072000  0.013500  1
  C  C640  1  0.072000  0.539200  0.986500  1
  C  C641  1  0.460800  0.532800  0.986500  1
  C  C642  1  0.467200  0.928000  0.986500  1
  C  C643  1  0.934000  0.744200  0.526400  1
  C  C644  1  0.810200  0.066000  0.526400  1
  C  C645  1  0.255800  0.189800  0.526400  1
  C  C646  1  0.744200  0.934000  0.473600  1
  C  C647  1  0.066000  0.810200  0.473600  1
  C  C648  1  0.189800  0.255800  0.473600  1
  C  C649  1  0.189800  0.255800  0.026400  1
  C  C650  1  0.066000  0.810200  0.026400  1
  C  C651  1  0.744200  0.934000  0.026400  1
  C  C652  1  0.934000  0.744200  0.973600  1
  C  C653  1  0.255800  0.189800  0.973600  1
  C  C654  1  0.810200  0.066000  0.973600  1
  C  C655  1  0.033000  0.315300  0.498500  1
  C  C656  1  0.282300  0.967000  0.498500  1
  C  C657  1  0.684700  0.717700  0.498500  1
  C  C658  1  0.315300  0.033000  0.501500  1
  C  C659  1  0.967000  0.282300  0.501500  1
  C  C660  1  0.717700  0.684700  0.501500  1
  C  C661  1  0.717700  0.684700  0.998500  1
  C  C662  1  0.967000  0.282300  0.998500  1
  C  C663  1  0.315300  0.033000  0.998500  1
  C  C664  1  0.033000  0.315300  0.001500  1
  C  C665  1  0.684700  0.717700  0.001500  1
  C  C666  1  0.282300  0.967000  0.001500  1
  C  C667  1  0.212700  0.150000  0.684800  1.0
  C  C668  1  0.937300  0.787300  0.684800  1.0
  C  C669  1  0.850000  0.062700  0.684800  1.0
  C  C670  1  0.150000  0.212700  0.315200  1.0
  C  C671  1  0.787300  0.937300  0.315200  1.0
  C  C672  1  0.062700  0.850000  0.315200  1.0
  C  C673  1  0.062700  0.850000  0.184800  1.0
  C  C674  1  0.787300  0.937300  0.184800  1.0
  C  C675  1  0.150000  0.212700  0.184800  1.0
  C  C676  1  0.212700  0.150000  0.815200  1.0
  C  C677  1  0.850000  0.062700  0.815200  1.0
  C  C678  1  0.937300  0.787300  0.815200  1.0
  C  C679  1  0.218000  0.202700  0.664800  1.0
  C  C680  1  0.984700  0.782000  0.664800  1.0
  C  C681  1  0.797300  0.015300  0.664800  1.0
  C  C682  1  0.202700  0.218000  0.335200  1.0
  C  C683  1  0.782000  0.984700  0.335200  1.0
  C  C684  1  0.015300  0.797300  0.335200  1.0
  C  C685  1  0.015300  0.797300  0.164800  1.0
  C  C686  1  0.782000  0.984700  0.164800  1.0
  C  C687  1  0.202700  0.218000  0.164800  1.0
  C  C688  1  0.218000  0.202700  0.835200  1.0
  C  C689  1  0.797300  0.015300  0.835200  1.0
  C  C690  1  0.984700  0.782000  0.835200  1.0
  C  C691  1  0.210200  0.192300  0.631700  1.0
  C  C692  1  0.982100  0.789800  0.631700  1.0
  C  C693  1  0.807700  0.017900  0.631700  1.0
  C  C694  1  0.192300  0.210200  0.368300  1.0
  C  C695  1  0.789800  0.982100  0.368300  1.0
  C  C696  1  0.017900  0.807700  0.368300  1.0
  C  C697  1  0.017900  0.807700  0.131700  1.0
  C  C698  1  0.789800  0.982100  0.131700  1.0
  C  C699  1  0.192300  0.210200  0.131700  1.0
  C  C700  1  0.210200  0.192300  0.868300  1.0
  C  C701  1  0.807700  0.017900  0.868300  1.0
  C  C702  1  0.982100  0.789800  0.868300  1.0
  C  C703  1  0.216400  0.239600  0.611220  1.0
  C  C704  1  0.023200  0.783600  0.611220  1.0
  C  C705  1  0.760400  0.976800  0.611220  1.0
  C  C706  1  0.239600  0.216400  0.388780  1.0
  C  C707  1  0.783600  0.023200  0.388780  1.0
  C  C708  1  0.976800  0.760400  0.388780  1.0
  C  C709  1  0.976800  0.760400  0.111220  1.0
  C  C710  1  0.783600  0.023200  0.111220  1.0
  C  C711  1  0.239600  0.216400  0.111220  1.0
  C  C712  1  0.216400  0.239600  0.888780  1.0
  C  C713  1  0.760400  0.976800  0.888780  1.0
  C  C714  1  0.023200  0.783600  0.888780  1.0
  C  C715  1  0.230200  0.297100  0.623800  1.0
  C  C716  1  0.066900  0.769800  0.623800  1.0
  C  C717  1  0.702900  0.933100  0.623800  1.0
  C  C718  1  0.297100  0.230200  0.376200  1.0
  C  C719  1  0.769800  0.066900  0.376200  1.0
  C  C720  1  0.933100  0.702900  0.376200  1.0
  C  C721  1  0.933100  0.702900  0.123800  1.0
  C  C722  1  0.769800  0.066900  0.123800  1.0
  C  C723  1  0.297100  0.230200  0.123800  1.0
  C  C724  1  0.230200  0.297100  0.876200  1.0
  C  C725  1  0.702900  0.933100  0.876200  1.0
  C  C726  1  0.066900  0.769800  0.876200  1.0
  C  C727  1  0.238100  0.307500  0.656900  1.0
  C  C728  1  0.069400  0.761900  0.656900  1.0
  C  C729  1  0.692500  0.930600  0.656900  1.0
  C  C730  1  0.307500  0.238100  0.343100  1.0
  C  C731  1  0.761900  0.069400  0.343100  1.0
  C  C732  1  0.930600  0.692500  0.343100  1.0
  C  C733  1  0.930600  0.692500  0.156900  1.0
  C  C734  1  0.761900  0.069400  0.156900  1.0
  C  C735  1  0.307500  0.238100  0.156900  1.0
  C  C736  1  0.238100  0.307500  0.843100  1.0
  C  C737  1  0.692500  0.930600  0.843100  1.0
  C  C738  1  0.069400  0.761900  0.843100  1.0
  C  C739  1  0.231900  0.260200  0.677410  1.0
  C  C740  1  0.028300  0.768100  0.677410  1.0
  C  C741  1  0.739800  0.971700  0.677410  1.0
  C  C742  1  0.260200  0.231900  0.322590  1.0
  C  C743  1  0.768100  0.028300  0.322590  1.0
  C  C744  1  0.971700  0.739800  0.322590  1.0
  C  C745  1  0.971700  0.739800  0.177410  1.0
  C  C746  1  0.768100  0.028300  0.177410  1.0
  C  C747  1  0.260200  0.231900  0.177410  1.0
  C  C748  1  0.231900  0.260200  0.822590  1.0
  C  C749  1  0.739800  0.971700  0.822590  1.0
  C  C750  1  0.028300  0.768100  0.822590  1.0
  C  C751  1  0.264400  0.352600  0.576100  1.0
  C  C752  1  0.088200  0.735600  0.576100  1.0
  C  C753  1  0.647400  0.911800  0.576100  1.0
  C  C754  1  0.352600  0.264400  0.423900  1.0
  C  C755  1  0.735600  0.088200  0.423900  1.0
  C  C756  1  0.911800  0.647400  0.423900  1.0
  C  C757  1  0.911800  0.647400  0.076100  1.0
  C  C758  1  0.735600  0.088200  0.076100  1.0
  C  C759  1  0.352600  0.264400  0.076100  1.0
  C  C760  1  0.264400  0.352600  0.923900  1.0
  C  C761  1  0.647400  0.911800  0.923900  1.0
  C  C762  1  0.088200  0.735600  0.923900  1.0
  C  C763  1  0.262800  0.396300  0.552700  1.0
  C  C764  1  0.133500  0.737200  0.552700  1.0
  C  C765  1  0.603700  0.866500  0.552700  1.0
  C  C766  1  0.396300  0.262800  0.447300  1.0
  C  C767  1  0.737200  0.133500  0.447300  1.0
  C  C768  1  0.866500  0.603700  0.447300  1.0
  C  C769  1  0.866500  0.603700  0.052700  1.0
  C  C770  1  0.737200  0.133500  0.052700  1.0
  C  C771  1  0.396300  0.262800  0.052700  1.0
  C  C772  1  0.262800  0.396300  0.947300  1.0
  C  C773  1  0.603700  0.866500  0.947300  1.0
  C  C774  1  0.133500  0.737200  0.947300  1.0
  C  C775  1  0.222700  0.459000  0.538300  1.0
  C  C776  1  0.236300  0.777300  0.538300  1.0
  C  C777  1  0.541000  0.763700  0.538300  1.0
  C  C778  1  0.459000  0.222700  0.461700  1.0
  C  C779  1  0.777300  0.236300  0.461700  1.0
  C  C780  1  0.763700  0.541000  0.461700  1.0
  C  C781  1  0.763700  0.541000  0.038300  1.0
  C  C782  1  0.777300  0.236300  0.038300  1.0
  C  C783  1  0.459000  0.222700  0.038300  1.0
  C  C784  1  0.222700  0.459000  0.961700  1.0
  C  C785  1  0.541000  0.763700  0.961700  1.0
  C  C786  1  0.236300  0.777300  0.961700  1.0
  C  C787  1  0.248200  0.470100  0.509100  1.0
  C  C788  1  0.221900  0.751800  0.509100  1.0
  C  C789  1  0.529900  0.778100  0.509100  1.0
  C  C790  1  0.470100  0.248200  0.490900  1.0
  C  C791  1  0.751800  0.221900  0.490900  1.0
  C  C792  1  0.778100  0.529900  0.490900  1.0
  C  C793  1  0.778100  0.529900  0.009100  1.0
  C  C794  1  0.751800  0.221900  0.009100  1.0
  C  C795  1  0.470100  0.248200  0.009100  1.0
  C  C796  1  0.248200  0.470100  0.990900  1.0
  C  C797  1  0.529900  0.778100  0.990900  1.0
  C  C798  1  0.221900  0.751800  0.990900  1.0
  C  C799  1  0.285800  0.445000  0.500600  1.0
  C  C800  1  0.159200  0.714200  0.500600  1.0
  C  C801  1  0.555000  0.840800  0.500600  1.0
  C  C802  1  0.445000  0.285800  0.499400  1.0
  C  C803  1  0.714200  0.159200  0.499400  1.0
  C  C804  1  0.840800  0.555000  0.499400  1.0
  C  C805  1  0.840800  0.555000  0.000600  1.0
  C  C806  1  0.714200  0.159200  0.000600  1.0
  C  C807  1  0.445000  0.285800  0.000600  1.0
  C  C808  1  0.285800  0.445000  0.999400  1.0
  C  C809  1  0.555000  0.840800  0.999400  1.0
  C  C810  1  0.159200  0.714200  0.999400  1.0
  C  C811  1  0.292800  0.406500  0.523500  1.0
  C  C812  1  0.113700  0.707200  0.523500  1.0
  C  C813  1  0.593500  0.886300  0.523500  1.0
  C  C814  1  0.406500  0.292800  0.476500  1.0
  C  C815  1  0.707200  0.113700  0.476500  1.0
  C  C816  1  0.886300  0.593500  0.476500  1.0
  C  C817  1  0.886300  0.593500  0.023500  1.0
  C  C818  1  0.707200  0.113700  0.023500  1.0
  C  C819  1  0.406500  0.292800  0.023500  1.0
  C  C820  1  0.292800  0.406500  0.976500  1.0
  C  C821  1  0.593500  0.886300  0.976500  1.0
  C  C822  1  0.113700  0.707200  0.976500  1.0
  C  C823  1  0.233100  0.505300  0.483700  1.0
  C  C824  1  0.272200  0.766900  0.483700  1.0
  C  C825  1  0.494700  0.727800  0.483700  1.0
  C  C826  1  0.505300  0.233100  0.516300  1.0
  C  C827  1  0.766900  0.272200  0.516300  1.0
  C  C828  1  0.727800  0.494700  0.516300  1.0
  C  C829  1  0.727800  0.494700  0.983700  1.0
  C  C830  1  0.766900  0.272200  0.983700  1.0
  C  C831  1  0.505300  0.233100  0.983700  1.0
  C  C832  1  0.233100  0.505300  0.016300  1.0
  C  C833  1  0.494700  0.727800  0.016300  1.0
  C  C834  1  0.272200  0.766900  0.016300  1.0
  C  C835  1  0.279300  0.556700  0.468900  1.0
  C  C836  1  0.277400  0.720700  0.468900  1.0
  C  C837  1  0.443300  0.722600  0.468900  1.0
  C  C838  1  0.556700  0.279300  0.531100  1.0
  C  C839  1  0.720700  0.277400  0.531100  1.0
  C  C840  1  0.722600  0.443300  0.531100  1.0
  C  C841  1  0.722600  0.443300  0.968900  1.0
  C  C842  1  0.720700  0.277400  0.968900  1.0
  C  C843  1  0.556700  0.279300  0.968900  1.0
  C  C844  1  0.279300  0.556700  0.031100  1.0
  C  C845  1  0.443300  0.722600  0.031100  1.0
  C  C846  1  0.277400  0.720700  0.031100  1.0
  C  C847  1  0.209300  0.564000  0.434300  1.0
  C  C848  1  0.354700  0.790700  0.434300  1.0
  C  C849  1  0.436000  0.645300  0.434300  1.0
  C  C850  1  0.564000  0.209300  0.565700  1.0
  C  C851  1  0.790700  0.354700  0.565700  1.0
  C  C852  1  0.645300  0.436000  0.565700  1.0
  C  C853  1  0.645300  0.436000  0.934300  1.0
  C  C854  1  0.790700  0.354700  0.934300  1.0
  C  C855  1  0.564000  0.209300  0.934300  1.0
  C  C856  1  0.209300  0.564000  0.065700  1.0
  C  C857  1  0.436000  0.645300  0.065700  1.0
  C  C858  1  0.354700  0.790700  0.065700  1.0
  C  C859  1  0.158800  0.510900  0.447500  1.0
  C  C860  1  0.352100  0.841200  0.447500  1.0
  C  C861  1  0.489100  0.647900  0.447500  1.0
  C  C862  1  0.510900  0.158800  0.552500  1.0
  C  C863  1  0.841200  0.352100  0.552500  1.0
  C  C864  1  0.647900  0.489100  0.552500  1.0
  C  C865  1  0.647900  0.489100  0.947500  1.0
  C  C866  1  0.841200  0.352100  0.947500  1.0
  C  C867  1  0.510900  0.158800  0.947500  1.0
  C  C868  1  0.158800  0.510900  0.052500  1.0
  C  C869  1  0.489100  0.647900  0.052500  1.0
  C  C870  1  0.352100  0.841200  0.052500  1.0
  C  C871  1  0.174100  0.485100  0.474300  1.0
  C  C872  1  0.311000  0.825900  0.474300  1.0
  C  C873  1  0.514900  0.689000  0.474300  1.0
  C  C874  1  0.485100  0.174100  0.525700  1.0
  C  C875  1  0.825900  0.311000  0.525700  1.0
  C  C876  1  0.689000  0.514900  0.525700  1.0
  C  C877  1  0.689000  0.514900  0.974300  1.0
  C  C878  1  0.825900  0.311000  0.974300  1.0
  C  C879  1  0.485100  0.174100  0.974300  1.0
  C  C880  1  0.174100  0.485100  0.025700  1.0
  C  C881  1  0.514900  0.689000  0.025700  1.0
  C  C882  1  0.311000  0.825900  0.025700  1.0
  C  C883  1  0.200500  0.590900  0.407500  1.0
  C  C884  1  0.390400  0.799500  0.407500  1.0
  C  C885  1  0.409100  0.609600  0.407500  1.0
  C  C886  1  0.590900  0.200500  0.592500  1.0
  C  C887  1  0.799500  0.390400  0.592500  1.0
  C  C888  1  0.609600  0.409100  0.592500  1.0
  C  C889  1  0.609600  0.409100  0.907500  1.0
  C  C890  1  0.799500  0.390400  0.907500  1.0
  C  C891  1  0.590900  0.200500  0.907500  1.0
  C  C892  1  0.200500  0.590900  0.092500  1.0
  C  C893  1  0.409100  0.609600  0.092500  1.0
  C  C894  1  0.390400  0.799500  0.092500  1.0
  C  C895  1  0.241800  0.672500  0.367000  1.0
  C  C896  1  0.430700  0.758200  0.367000  1.0
  C  C897  1  0.327500  0.569300  0.367000  1.0
  C  C898  1  0.672500  0.241800  0.633000  1.0
  C  C899  1  0.758200  0.430700  0.633000  1.0
  C  C900  1  0.569300  0.327500  0.633000  1.0
  C  C901  1  0.569300  0.327500  0.867000  1.0
  C  C902  1  0.758200  0.430700  0.867000  1.0
  C  C903  1  0.672500  0.241800  0.867000  1.0
  C  C904  1  0.241800  0.672500  0.133000  1.0
  C  C905  1  0.327500  0.569300  0.133000  1.0
  C  C906  1  0.430700  0.758200  0.133000  1.0
  C  C907  1  0.236100  0.725100  0.371500  1.0
  C  C908  1  0.489000  0.763900  0.371500  1.0
  C  C909  1  0.274900  0.511000  0.371500  1.0
  C  C910  1  0.725100  0.236100  0.628500  1.0
  C  C911  1  0.763900  0.489000  0.628500  1.0
  C  C912  1  0.511000  0.274900  0.628500  1.0
  C  C913  1  0.511000  0.274900  0.871500  1.0
  C  C914  1  0.763900  0.489000  0.871500  1.0
  C  C915  1  0.725100  0.236100  0.871500  1.0
  C  C916  1  0.236100  0.725100  0.128500  1.0
  C  C917  1  0.274900  0.511000  0.128500  1.0
  C  C918  1  0.489000  0.763900  0.128500  1.0
  C  C919  1  0.231900  0.757100  0.344900  1.0
  C  C920  1  0.525200  0.768100  0.344900  1.0
  C  C921  1  0.242900  0.474800  0.344900  1.0
  C  C922  1  0.757100  0.231900  0.655100  1.0
  C  C923  1  0.768100  0.525200  0.655100  1.0
  C  C924  1  0.474800  0.242900  0.655100  1.0
  C  C925  1  0.474800  0.242900  0.844900  1.0
  C  C926  1  0.768100  0.525200  0.844900  1.0
  C  C927  1  0.757100  0.231900  0.844900  1.0
  C  C928  1  0.231900  0.757100  0.155100  1.0
  C  C929  1  0.242900  0.474800  0.155100  1.0
  C  C930  1  0.525200  0.768100  0.155100  1.0
  C  C931  1  0.233500  0.736700  0.313900  1.0
  C  C932  1  0.503200  0.766500  0.313900  1.0
  C  C933  1  0.263300  0.496800  0.313900  1.0
  C  C934  1  0.736700  0.233500  0.686100  1.0
  C  C935  1  0.766500  0.503200  0.686100  1.0
  C  C936  1  0.496800  0.263300  0.686100  1.0
  C  C937  1  0.496800  0.263300  0.813900  1.0
  C  C938  1  0.766500  0.503200  0.813900  1.0
  C  C939  1  0.736700  0.233500  0.813900  1.0
  C  C940  1  0.233500  0.736700  0.186100  1.0
  C  C941  1  0.263300  0.496800  0.186100  1.0
  C  C942  1  0.503200  0.766500  0.186100  1.0
  C  C943  1  0.239200  0.684100  0.309400  1.0
  C  C944  1  0.444900  0.760800  0.309400  1.0
  C  C945  1  0.315900  0.555100  0.309400  1.0
  C  C946  1  0.684100  0.239200  0.690600  1.0
  C  C947  1  0.760800  0.444900  0.690600  1.0
  C  C948  1  0.555100  0.315900  0.690600  1.0
  C  C949  1  0.555100  0.315900  0.809400  1.0
  C  C950  1  0.760800  0.444900  0.809400  1.0
  C  C951  1  0.684100  0.239200  0.809400  1.0
  C  C952  1  0.239200  0.684100  0.190600  1.0
  C  C953  1  0.315900  0.555100  0.190600  1.0
  C  C954  1  0.444900  0.760800  0.190600  1.0
  C  C955  1  0.243400  0.652100  0.335900  1.0
  C  C956  1  0.408700  0.756600  0.335900  1.0
  C  C957  1  0.347900  0.591300  0.335900  1.0
  C  C958  1  0.652100  0.243400  0.664100  1.0
  C  C959  1  0.756600  0.408700  0.664100  1.0
  C  C960  1  0.591300  0.347900  0.664100  1.0
  C  C961  1  0.591300  0.347900  0.835900  1.0
  C  C962  1  0.756600  0.408700  0.835900  1.0
  C  C963  1  0.652100  0.243400  0.835900  1.0
  C  C964  1  0.243400  0.652100  0.164100  1.0
  C  C965  1  0.347900  0.591300  0.164100  1.0
  C  C966  1  0.408700  0.756600  0.164100  1.0
  C  C967  1  0.212100  0.761700  0.285300  1.0
  C  C968  1  0.549600  0.787900  0.285300  1.0
  C  C969  1  0.238300  0.450400  0.285300  1.0
  C  C970  1  0.761700  0.212100  0.714700  1.0
  C  C971  1  0.787900  0.549600  0.714700  1.0
  C  C972  1  0.450400  0.238300  0.714700  1.0
  C  C973  1  0.450400  0.238300  0.785300  1.0
  C  C974  1  0.787900  0.549600  0.785300  1.0
  C  C975  1  0.761700  0.212100  0.785300  1.0
  C  C976  1  0.212100  0.761700  0.214700  1.0
  C  C977  1  0.238300  0.450400  0.214700  1.0
  C  C978  1  0.549600  0.787900  0.214700  1.0
  C  C979  1  0.918700  0.241100  0.706100  1.0
  C  C980  1  0.322400  0.081300  0.706100  1.0
  C  C981  1  0.758900  0.677600  0.706100  1.0
  C  C982  1  0.241100  0.918700  0.293900  1.0
  C  C983  1  0.081300  0.322400  0.293900  1.0
  C  C984  1  0.677600  0.758900  0.293900  1.0
  C  C985  1  0.677600  0.758900  0.206100  1.0
  C  C986  1  0.081300  0.322400  0.206100  1.0
  C  C987  1  0.241100  0.918700  0.206100  1.0
  C  C988  1  0.918700  0.241100  0.793900  1.0
  C  C989  1  0.758900  0.677600  0.793900  1.0
  C  C990  1  0.322400  0.081300  0.793900  1.0
  C  C991  1  0.988200  0.278200  0.693800  1.0
  C  C992  1  0.290000  0.011800  0.693800  1.0
  C  C993  1  0.721800  0.710000  0.693800  1.0
  C  C994  1  0.278200  0.988200  0.306200  1.0
  C  C995  1  0.011800  0.290000  0.306200  1.0
  C  C996  1  0.710000  0.721800  0.306200  1.0
  C  C997  1  0.710000  0.721800  0.193800  1.0
  C  C998  1  0.011800  0.290000  0.193800  1.0
  C  C999  1  0.278200  0.988200  0.193800  1.0
  C  C1000  1  0.988200  0.278200  0.806200  1.0
  C  C1001  1  0.721800  0.710000  0.806200  1.0
  C  C1002  1  0.290000  0.011800  0.806200  1.0
  C  C1003  1  0.019400  0.253000  0.677400  1.0
  C  C1004  1  0.233600  0.980600  0.677400  1.0
  C  C1005  1  0.747000  0.766400  0.677400  1.0
  C  C1006  1  0.253000  0.019400  0.322600  1.0
  C  C1007  1  0.980600  0.233600  0.322600  1.0
  C  C1008  1  0.766400  0.747000  0.322600  1.0
  C  C1009  1  0.766400  0.747000  0.177400  1.0
  C  C1010  1  0.980600  0.233600  0.177400  1.0
  C  C1011  1  0.253000  0.019400  0.177400  1.0
  C  C1012  1  0.019400  0.253000  0.822600  1.0
  C  C1013  1  0.747000  0.766400  0.822600  1.0
  C  C1014  1  0.233600  0.980600  0.822600  1.0
  C  C1015  1  0.080100  0.291500  0.666667  1.0
  C  C1016  1  0.211400  0.919900  0.666667  1.0
  C  C1017  1  0.708500  0.788600  0.666667  1.0
  C  C1018  1  0.291500  0.080100  0.333333  1.0
  C  C1019  1  0.919900  0.211400  0.333333  1.0
  C  C1020  1  0.788600  0.708500  0.333333  1.0
  C  C1021  1  0.788600  0.708500  0.166667  1.0
  C  C1022  1  0.919900  0.211400  0.166667  1.0
  C  C1023  1  0.291500  0.080100  0.166667  1.0
  C  C1024  1  0.080100  0.291500  0.833333  1.0
  C  C1025  1  0.708500  0.788600  0.833333  1.0
  C  C1026  1  0.211400  0.919900  0.833333  1.0
  C  C1027  1  0.109600  0.355300  0.672500  1.0
  C  C1028  1  0.245700  0.890400  0.672500  1.0
  C  C1029  1  0.644700  0.754300  0.672500  1.0
  C  C1030  1  0.355300  0.109600  0.327500  1.0
  C  C1031  1  0.890400  0.245700  0.327500  1.0
  C  C1032  1  0.754300  0.644700  0.327500  1.0
  C  C1033  1  0.754300  0.644700  0.172500  1.0
  C  C1034  1  0.890400  0.245700  0.172500  1.0
  C  C1035  1  0.355300  0.109600  0.172500  1.0
  C  C1036  1  0.109600  0.355300  0.827500  1.0
  C  C1037  1  0.644700  0.754300  0.827500  1.0
  C  C1038  1  0.245700  0.890400  0.827500  1.0
  C  C1039  1  0.078500  0.380600  0.688900  1.0
  C  C1040  1  0.302100  0.921500  0.688900  1.0
  C  C1041  1  0.619400  0.697900  0.688900  1.0
  C  C1042  1  0.380600  0.078500  0.311100  1.0
  C  C1043  1  0.921500  0.302100  0.311100  1.0
  C  C1044  1  0.697900  0.619400  0.311100  1.0
  C  C1045  1  0.697900  0.619400  0.188900  1.0
  C  C1046  1  0.921500  0.302100  0.188900  1.0
  C  C1047  1  0.380600  0.078500  0.188900  1.0
  C  C1048  1  0.078500  0.380600  0.811100  1.0
  C  C1049  1  0.619400  0.697900  0.811100  1.0
  C  C1050  1  0.302100  0.921500  0.811100  1.0
  C  C1051  1  0.017700  0.342000  0.699600  1.0
  C  C1052  1  0.324300  0.982300  0.699600  1.0
  C  C1053  1  0.658000  0.675700  0.699600  1.0
  C  C1054  1  0.342000  0.017700  0.300400  1.0
  C  C1055  1  0.982300  0.324300  0.300400  1.0
  C  C1056  1  0.675700  0.658000  0.300400  1.0
  C  C1057  1  0.675700  0.658000  0.199600  1.0
  C  C1058  1  0.982300  0.324300  0.199600  1.0
  C  C1059  1  0.342000  0.017700  0.199600  1.0
  C  C1060  1  0.017700  0.342000  0.800400  1.0
  C  C1061  1  0.658000  0.675700  0.800400  1.0
  C  C1062  1  0.324300  0.982300  0.800400  1.0
  C  C1063  1  0.211100  0.440100  0.675200  1.0
  C  C1064  1  0.229000  0.788900  0.675200  1.0
  C  C1065  1  0.559900  0.771000  0.675200  1.0
  C  C1066  1  0.440100  0.211100  0.324800  1.0
  C  C1067  1  0.788900  0.229000  0.324800  1.0
  C  C1068  1  0.771000  0.559900  0.324800  1.0
  C  C1069  1  0.771000  0.559900  0.175200  1.0
  C  C1070  1  0.788900  0.229000  0.175200  1.0
  C  C1071  1  0.440100  0.211100  0.175200  1.0
  C  C1072  1  0.211100  0.440100  0.824800  1.0
  C  C1073  1  0.559900  0.771000  0.824800  1.0
  C  C1074  1  0.229000  0.788900  0.824800  1.0
  C  C1075  1  0.270200  0.481000  0.660900  1.0
  C  C1076  1  0.210800  0.729800  0.660900  1.0
  C  C1077  1  0.519000  0.789200  0.660900  1.0
  C  C1078  1  0.481000  0.270200  0.339100  1.0
  C  C1079  1  0.729800  0.210800  0.339100  1.0
  C  C1080  1  0.789200  0.519000  0.339100  1.0
  C  C1081  1  0.789200  0.519000  0.160900  1.0
  C  C1082  1  0.729800  0.210800  0.160900  1.0
  C  C1083  1  0.481000  0.270200  0.160900  1.0
  C  C1084  1  0.270200  0.481000  0.839100  1.0
  C  C1085  1  0.519000  0.789200  0.839100  1.0
  C  C1086  1  0.210800  0.729800  0.839100  1.0
  C  C1087  1  0.335200  0.509000  0.616500  1.0
  C  C1088  1  0.173800  0.664800  0.616500  1.0
  C  C1089  1  0.491000  0.826200  0.616500  1.0
  C  C1090  1  0.509000  0.335200  0.383500  1.0
  C  C1091  1  0.664800  0.173800  0.383500  1.0
  C  C1092  1  0.826200  0.491000  0.383500  1.0
  C  C1093  1  0.826200  0.491000  0.116500  1.0
  C  C1094  1  0.664800  0.173800  0.116500  1.0
  C  C1095  1  0.509000  0.335200  0.116500  1.0
  C  C1096  1  0.335200  0.509000  0.883500  1.0
  C  C1097  1  0.491000  0.826200  0.883500  1.0
  C  C1098  1  0.173800  0.664800  0.883500  1.0
  C  C1099  1  0.384300  0.557500  0.634600  1.0
  C  C1100  1  0.173200  0.615700  0.634600  1.0
  C  C1101  1  0.442500  0.826800  0.634600  1.0
  C  C1102  1  0.557500  0.384300  0.365400  1.0
  C  C1103  1  0.615700  0.173200  0.365400  1.0
  C  C1104  1  0.826800  0.442500  0.365400  1.0
  C  C1105  1  0.826800  0.442500  0.134600  1.0
  C  C1106  1  0.615700  0.173200  0.134600  1.0
  C  C1107  1  0.557500  0.384300  0.134600  1.0
  C  C1108  1  0.384300  0.557500  0.865400  1.0
  C  C1109  1  0.442500  0.826800  0.865400  1.0
  C  C1110  1  0.173200  0.615700  0.865400  1.0
  C  C1111  1  0.376500  0.570100  0.664700  1.0
  C  C1112  1  0.193600  0.623500  0.664700  1.0
  C  C1113  1  0.429900  0.806400  0.664700  1.0
  C  C1114  1  0.570100  0.376500  0.335300  1.0
  C  C1115  1  0.623500  0.193600  0.335300  1.0
  C  C1116  1  0.806400  0.429900  0.335300  1.0
  C  C1117  1  0.806400  0.429900  0.164700  1.0
  C  C1118  1  0.623500  0.193600  0.164700  1.0
  C  C1119  1  0.570100  0.376500  0.164700  1.0
  C  C1120  1  0.376500  0.570100  0.835300  1.0
  C  C1121  1  0.429900  0.806400  0.835300  1.0
  C  C1122  1  0.193600  0.623500  0.835300  1.0
  C  C1123  1  0.317800  0.530300  0.679900  1.0
  C  C1124  1  0.212500  0.682200  0.679900  1.0
  C  C1125  1  0.469700  0.787500  0.679900  1.0
  C  C1126  1  0.530300  0.317800  0.320100  1.0
  C  C1127  1  0.682200  0.212500  0.320100  1.0
  C  C1128  1  0.787500  0.469700  0.320100  1.0
  C  C1129  1  0.787500  0.469700  0.179900  1.0
  C  C1130  1  0.682200  0.212500  0.179900  1.0
  C  C1131  1  0.530300  0.317800  0.179900  1.0
  C  C1132  1  0.317800  0.530300  0.820100  1.0
  C  C1133  1  0.469700  0.787500  0.820100  1.0
  C  C1134  1  0.212500  0.682200  0.820100  1.0
  C  C1135  1  0.447500  0.591100  0.617500  1.0
  C  C1136  1  0.143600  0.552500  0.617500  1.0
  C  C1137  1  0.408900  0.856400  0.617500  1.0
  C  C1138  1  0.591100  0.447500  0.382500  1.0
  C  C1139  1  0.552500  0.143600  0.382500  1.0
  C  C1140  1  0.856400  0.408900  0.382500  1.0
  C  C1141  1  0.856400  0.408900  0.117500  1.0
  C  C1142  1  0.552500  0.143600  0.117500  1.0
  C  C1143  1  0.591100  0.447500  0.117500  1.0
  C  C1144  1  0.447500  0.591100  0.882500  1.0
  C  C1145  1  0.408900  0.856400  0.882500  1.0
  C  C1146  1  0.143600  0.552500  0.882500  1.0
  C  C1147  1  0.479500  0.656700  0.618100  1.0
  C  C1148  1  0.177200  0.520500  0.618100  1.0
  C  C1149  1  0.343300  0.822800  0.618100  1.0
  C  C1150  1  0.656700  0.479500  0.381900  1.0
  C  C1151  1  0.520500  0.177200  0.381900  1.0
  C  C1152  1  0.822800  0.343300  0.381900  1.0
  C  C1153  1  0.822800  0.343300  0.118100  1.0
  C  C1154  1  0.520500  0.177200  0.118100  1.0
  C  C1155  1  0.656700  0.479500  0.118100  1.0
  C  C1156  1  0.479500  0.656700  0.881900  1.0
  C  C1157  1  0.343300  0.822800  0.881900  1.0
  C  C1158  1  0.177200  0.520500  0.881900  1.0
  C  C1159  1  0.568300  0.661400  0.595800  1.0
  C  C1160  1  0.093100  0.431700  0.595800  1.0
  C  C1161  1  0.338600  0.906900  0.595800  1.0
  C  C1162  1  0.661400  0.568300  0.404200  1.0
  C  C1163  1  0.431700  0.093100  0.404200  1.0
  C  C1164  1  0.906900  0.338600  0.404200  1.0
  C  C1165  1  0.906900  0.338600  0.095800  1.0
  C  C1166  1  0.431700  0.093100  0.095800  1.0
  C  C1167  1  0.661400  0.568300  0.095800  1.0
  C  C1168  1  0.568300  0.661400  0.904200  1.0
  C  C1169  1  0.338600  0.906900  0.904200  1.0
  C  C1170  1  0.093100  0.431700  0.904200  1.0
  C  C1171  1  0.537600  0.597500  0.593200  1.0
  C  C1172  1  0.059900  0.462400  0.593200  1.0
  C  C1173  1  0.402500  0.940100  0.593200  1.0
  C  C1174  1  0.597500  0.537600  0.406800  1.0
  C  C1175  1  0.462400  0.059900  0.406800  1.0
  C  C1176  1  0.940100  0.402500  0.406800  1.0
  C  C1177  1  0.940100  0.402500  0.093200  1.0
  C  C1178  1  0.462400  0.059900  0.093200  1.0
  C  C1179  1  0.597500  0.537600  0.093200  1.0
  C  C1180  1  0.537600  0.597500  0.906800  1.0
  C  C1181  1  0.402500  0.940100  0.906800  1.0
  C  C1182  1  0.059900  0.462400  0.906800  1.0
  C  C1183  1  0.476200  0.561300  0.604800  1.0
  C  C1184  1  0.085100  0.523800  0.604800  1.0
  C  C1185  1  0.438700  0.914900  0.604800  1.0
  C  C1186  1  0.561300  0.476200  0.395200  1.0
  C  C1187  1  0.523800  0.085100  0.395200  1.0
  C  C1188  1  0.914900  0.438700  0.395200  1.0
  C  C1189  1  0.914900  0.438700  0.104800  1.0
  C  C1190  1  0.523800  0.085100  0.104800  1.0
  C  C1191  1  0.561300  0.476200  0.104800  1.0
  C  C1192  1  0.476200  0.561300  0.895200  1.0
  C  C1193  1  0.438700  0.914900  0.895200  1.0
  C  C1194  1  0.085100  0.523800  0.895200  1.0
  C  C1195  1  0.631200  0.700500  0.586400  1.0
  C  C1196  1  0.069300  0.368800  0.586400  1.0
  C  C1197  1  0.299500  0.930700  0.586400  1.0
  C  C1198  1  0.700500  0.631200  0.413600  1.0
  C  C1199  1  0.368800  0.069300  0.413600  1.0
  C  C1200  1  0.930700  0.299500  0.413600  1.0
  C  C1201  1  0.930700  0.299500  0.086400  1.0
  C  C1202  1  0.368800  0.069300  0.086400  1.0
  C  C1203  1  0.700500  0.631200  0.086400  1.0
  C  C1204  1  0.631200  0.700500  0.913600  1.0
  C  C1205  1  0.299500  0.930700  0.913600  1.0
  C  C1206  1  0.069300  0.368800  0.913600  1.0
  C  C1207  1  0.069400  0.275700  0.582000  1.0
  C  C1208  1  0.206300  0.930600  0.582000  1.0
  C  C1209  1  0.724300  0.793700  0.582000  1.0
  C  C1210  1  0.275700  0.069400  0.418000  1.0
  C  C1211  1  0.930600  0.206300  0.418000  1.0
  C  C1212  1  0.793700  0.724300  0.418000  1.0
  C  C1213  1  0.793700  0.724300  0.082000  1.0
  C  C1214  1  0.930600  0.206300  0.082000  1.0
  C  C1215  1  0.275700  0.069400  0.082000  1.0
  C  C1216  1  0.069400  0.275700  0.918000  1.0
  C  C1217  1  0.724300  0.793700  0.918000  1.0
  C  C1218  1  0.206300  0.930600  0.918000  1.0
  C  C1219  1  0.100400  0.253500  0.561200  1.0
  C  C1220  1  0.153100  0.899600  0.561200  1.0
  C  C1221  1  0.746500  0.846900  0.561200  1.0
  C  C1222  1  0.253500  0.100400  0.438800  1.0
  C  C1223  1  0.899600  0.153100  0.438800  1.0
  C  C1224  1  0.846900  0.746500  0.438800  1.0
  C  C1225  1  0.846900  0.746500  0.061200  1.0
  C  C1226  1  0.899600  0.153100  0.061200  1.0
  C  C1227  1  0.253500  0.100400  0.061200  1.0
  C  C1228  1  0.100400  0.253500  0.938800  1.0
  C  C1229  1  0.746500  0.846900  0.938800  1.0
  C  C1230  1  0.153100  0.899600  0.938800  1.0
  C  C1231  1  0.073100  0.191900  0.553200  1.0
  C  C1232  1  0.118800  0.926900  0.553200  1.0
  C  C1233  1  0.808100  0.881200  0.553200  1.0
  C  C1234  1  0.191900  0.073100  0.446800  1.0
  C  C1235  1  0.926900  0.118800  0.446800  1.0
  C  C1236  1  0.881200  0.808100  0.446800  1.0
  C  C1237  1  0.881200  0.808100  0.053200  1.0
  C  C1238  1  0.926900  0.118800  0.053200  1.0
  C  C1239  1  0.191900  0.073100  0.053200  1.0
  C  C1240  1  0.073100  0.191900  0.946800  1.0
  C  C1241  1  0.808100  0.881200  0.946800  1.0
  C  C1242  1  0.118800  0.926900  0.946800  1.0
  C  C1243  1  0.011800  0.149400  0.564400  1.0
  C  C1244  1  0.137600  0.988200  0.564400  1.0
  C  C1245  1  0.850600  0.862400  0.564400  1.0
  C  C1246  1  0.149400  0.011800  0.435600  1.0
  C  C1247  1  0.988200  0.137600  0.435600  1.0
  C  C1248  1  0.862400  0.850600  0.435600  1.0
  C  C1249  1  0.862400  0.850600  0.064400  1.0
  C  C1250  1  0.988200  0.137600  0.064400  1.0
  C  C1251  1  0.149400  0.011800  0.064400  1.0
  C  C1252  1  0.011800  0.149400  0.935600  1.0
  C  C1253  1  0.850600  0.862400  0.935600  1.0
  C  C1254  1  0.137600  0.988200  0.935600  1.0
  C  C1255  1  0.983400  0.173900  0.584400  1.0
  C  C1256  1  0.190500  0.016600  0.584400  1.0
  C  C1257  1  0.826100  0.809500  0.584400  1.0
  C  C1258  1  0.173900  0.983400  0.415600  1.0
  C  C1259  1  0.016600  0.190500  0.415600  1.0
  C  C1260  1  0.809500  0.826100  0.415600  1.0
  C  C1261  1  0.809500  0.826100  0.084400  1.0
  C  C1262  1  0.016600  0.190500  0.084400  1.0
  C  C1263  1  0.173900  0.983400  0.084400  1.0
  C  C1264  1  0.983400  0.173900  0.915600  1.0
  C  C1265  1  0.826100  0.809500  0.915600  1.0
  C  C1266  1  0.190500  0.016600  0.915600  1.0
  C  C1267  1  0.012400  0.234500  0.593400  1.0
  C  C1268  1  0.222100  0.987600  0.593400  1.0
  C  C1269  1  0.765500  0.777900  0.593400  1.0
  C  C1270  1  0.234500  0.012400  0.406600  1.0
  C  C1271  1  0.987600  0.222100  0.406600  1.0
  C  C1272  1  0.777900  0.765500  0.406600  1.0
  C  C1273  1  0.777900  0.765500  0.093400  1.0
  C  C1274  1  0.987600  0.222100  0.093400  1.0
  C  C1275  1  0.234500  0.012400  0.093400  1.0
  C  C1276  1  0.012400  0.234500  0.906600  1.0
  C  C1277  1  0.765500  0.777900  0.906600  1.0
  C  C1278  1  0.222100  0.987600  0.906600  1.0
  C  C1279  1  0.980900  0.080500  0.556000  1.0
  C  C1280  1  0.099600  0.019100  0.556000  1.0
  C  C1281  1  0.919500  0.900400  0.556000  1.0
  C  C1282  1  0.080500  0.980900  0.444000  1.0
  C  C1283  1  0.019100  0.099600  0.444000  1.0
  C  C1284  1  0.900400  0.919500  0.444000  1.0
  C  C1285  1  0.900400  0.919500  0.056000  1.0
  C  C1286  1  0.019100  0.099600  0.056000  1.0
  C  C1287  1  0.080500  0.980900  0.056000  1.0
  C  C1288  1  0.980900  0.080500  0.944000  1.0
  C  C1289  1  0.919500  0.900400  0.944000  1.0
  C  C1290  1  0.099600  0.019100  0.944000  1.0
  S  S1291  1  0.945700  0.546410  0.573690  1
  S  S1292  1  0.600710  0.054300  0.573690  1
  S  S1293  1  0.453590  0.399290  0.573690  1
  S  S1294  1  0.546410  0.945700  0.426310  1
  S  S1295  1  0.054300  0.600710  0.426310  1
  S  S1296  1  0.399290  0.453590  0.426310  1
  S  S1297  1  0.399290  0.453590  0.073690  1
  S  S1298  1  0.054300  0.600710  0.073690  1
  S  S1299  1  0.546410  0.945700  0.073690  1
  S  S1300  1  0.945700  0.546410  0.926310  1
  S  S1301  1  0.453590  0.399290  0.926310  1
  S  S1302  1  0.600710  0.054300  0.926310  1
  S  S1303  1  0.185400  0.549700  0.750000  1
  S  S1304  1  0.364300  0.814600  0.750000  1
  S  S1305  1  0.450300  0.635700  0.750000  1
  S  S1306  1  0.549700  0.185400  0.250000  1
  S  S1307  1  0.814600  0.364300  0.250000  1
  S  S1308  1  0.635700  0.450300  0.250000  1
  S  S1309  1  0.000000  0.361800  0.500000  1
  S  S1310  1  0.361800  0.000000  0.500000  1
  S  S1311  1  0.638200  0.638200  0.500000  1
  S  S1312  1  0.638200  0.638200  0.000000  1
  S  S1313  1  0.000000  0.361800  1.000000  1
  S  S1314  1  0.361800  0.000000  0.000000  1
  S  S1315  1  1.000000  0.782400  0.500000  1
  S  S1316  1  0.782400  0.000000  0.500000  1
  S  S1317  1  0.217600  0.217600  0.500000  1
  S  S1318  1  0.217600  0.217600  0.000000  1
  S  S1319  1  1.000000  0.782400  0.000000  1
  S  S1320  1  0.782400  0.000000  0.000000  1
  N  N1321  1  0.333333  0.666667  0.620500  1
  N  N1322  1  0.666667  0.333333  0.379500  1
  N  N1323  1  0.666667  0.333333  0.120500  1
  N  N1324  1  0.333333  0.666667  0.879500  1
  N  N1325  1  0.188300  0.592900  0.534600  1
  N  N1326  1  0.404600  0.811700  0.534600  1
  N  N1327  1  0.407100  0.595400  0.534600  1
  N  N1328  1  0.592900  0.188300  0.465400  1
  N  N1329  1  0.811700  0.404600  0.465400  1
  N  N1330  1  0.595400  0.407100  0.465400  1
  N  N1331  1  0.595400  0.407100  0.034600  1
  N  N1332  1  0.811700  0.404600  0.034600  1
  N  N1333  1  0.592900  0.188300  0.034600  1
  N  N1334  1  0.188300  0.592900  0.965400  1
  N  N1335  1  0.407100  0.595400  0.965400  1
  N  N1336  1  0.404600  0.811700  0.965400  1
  N  N1337  1  0.232500  0.343700  0.603400  1.0
  N  N1338  1  0.111200  0.767500  0.603400  1.0
  N  N1339  1  0.656300  0.888800  0.603400  1.0
  N  N1340  1  0.343700  0.232500  0.396600  1.0
  N  N1341  1  0.767500  0.111200  0.396600  1.0
  N  N1342  1  0.888800  0.656300  0.396600  1.0
  N  N1343  1  0.888800  0.656300  0.103400  1.0
  N  N1344  1  0.767500  0.111200  0.103400  1.0
  N  N1345  1  0.343700  0.232500  0.103400  1.0
  N  N1346  1  0.232500  0.343700  0.896600  1.0
  N  N1347  1  0.656300  0.888800  0.896600  1.0
  N  N1348  1  0.111200  0.767500  0.896600  1.0
  N  N1349  1  0.228600  0.423400  0.560100  1.0
  N  N1350  1  0.194800  0.771400  0.560100  1.0
  N  N1351  1  0.576600  0.805200  0.560100  1.0
  N  N1352  1  0.423400  0.228600  0.439900  1.0
  N  N1353  1  0.771400  0.194800  0.439900  1.0
  N  N1354  1  0.805200  0.576600  0.439900  1.0
  N  N1355  1  0.805200  0.576600  0.060100  1.0
  N  N1356  1  0.771400  0.194800  0.060100  1.0
  N  N1357  1  0.423400  0.228600  0.060100  1.0
  N  N1358  1  0.228600  0.423400  0.939900  1.0
  N  N1359  1  0.576600  0.805200  0.939900  1.0
  N  N1360  1  0.194800  0.771400  0.939900  1.0
  N  N1361  1  0.268100  0.586000  0.443900  1.0
  N  N1362  1  0.317900  0.731900  0.443900  1.0
  N  N1363  1  0.414000  0.682100  0.443900  1.0
  N  N1364  1  0.586000  0.268100  0.556100  1.0
  N  N1365  1  0.731900  0.317900  0.556100  1.0
  N  N1366  1  0.682100  0.414000  0.556100  1.0
  N  N1367  1  0.682100  0.414000  0.943900  1.0
  N  N1368  1  0.731900  0.317900  0.943900  1.0
  N  N1369  1  0.586000  0.268100  0.943900  1.0
  N  N1370  1  0.268100  0.586000  0.056100  1.0
  N  N1371  1  0.414000  0.682100  0.056100  1.0
  N  N1372  1  0.317900  0.731900  0.056100  1.0
  N  N1373  1  0.247200  0.638300  0.394200  1.0
  N  N1374  1  0.391100  0.752800  0.394200  1.0
  N  N1375  1  0.361700  0.608900  0.394200  1.0
  N  N1376  1  0.638300  0.247200  0.605800  1.0
  N  N1377  1  0.752800  0.391100  0.605800  1.0
  N  N1378  1  0.608900  0.361700  0.605800  1.0
  N  N1379  1  0.608900  0.361700  0.894200  1.0
  N  N1380  1  0.752800  0.391100  0.894200  1.0
  N  N1381  1  0.638300  0.247200  0.894200  1.0
  N  N1382  1  0.247200  0.638300  0.105800  1.0
  N  N1383  1  0.361700  0.608900  0.105800  1.0
  N  N1384  1  0.391100  0.752800  0.105800  1.0
  N  N1385  1  0.169900  0.394300  0.658600  1.0
  N  N1386  1  0.224400  0.830100  0.658600  1.0
  N  N1387  1  0.605700  0.775600  0.658600  1.0
  N  N1388  1  0.394300  0.169900  0.341400  1.0
  N  N1389  1  0.830100  0.224400  0.341400  1.0
  N  N1390  1  0.775600  0.605700  0.341400  1.0
  N  N1391  1  0.775600  0.605700  0.158600  1.0
  N  N1392  1  0.830100  0.224400  0.158600  1.0
  N  N1393  1  0.394300  0.169900  0.158600  1.0
  N  N1394  1  0.169900  0.394300  0.841400  1.0
  N  N1395  1  0.605700  0.775600  0.841400  1.0
  N  N1396  1  0.224400  0.830100  0.841400  1.0
  N  N1397  1  0.276300  0.470700  0.630300  1.0
  N  N1398  1  0.194400  0.723700  0.630300  1.0
  N  N1399  1  0.529300  0.805600  0.630300  1.0
  N  N1400  1  0.470700  0.276300  0.369700  1.0
  N  N1401  1  0.723700  0.194400  0.369700  1.0
  N  N1402  1  0.805600  0.529300  0.369700  1.0
  N  N1403  1  0.805600  0.529300  0.130300  1.0
  N  N1404  1  0.723700  0.194400  0.130300  1.0
  N  N1405  1  0.470700  0.276300  0.130300  1.0
  N  N1406  1  0.276300  0.470700  0.869700  1.0
  N  N1407  1  0.529300  0.805600  0.869700  1.0
  N  N1408  1  0.194400  0.723700  0.869700  1.0
  N  N1409  1  0.154200  0.463400  0.607300  1.0
  N  N1410  1  0.309200  0.845800  0.607300  1.0
  N  N1411  1  0.536600  0.690800  0.607300  1.0
  N  N1412  1  0.463400  0.154200  0.392700  1.0
  N  N1413  1  0.845800  0.309200  0.392700  1.0
  N  N1414  1  0.690800  0.536600  0.392700  1.0
  N  N1415  1  0.690800  0.536600  0.107300  1.0
  N  N1416  1  0.845800  0.309200  0.107300  1.0
  N  N1417  1  0.463400  0.154200  0.107300  1.0
  N  N1418  1  0.154200  0.463400  0.892700  1.0
  N  N1419  1  0.536600  0.690800  0.892700  1.0
  N  N1420  1  0.309200  0.845800  0.892700  1.0
  N  N1421  1  0.100800  0.341100  0.589800  1.0
  N  N1422  1  0.240300  0.899200  0.589800  1.0
  N  N1423  1  0.658900  0.759700  0.589800  1.0
  N  N1424  1  0.341100  0.100800  0.410200  1.0
  N  N1425  1  0.899200  0.240300  0.410200  1.0
  N  N1426  1  0.759700  0.658900  0.410200  1.0
  N  N1427  1  0.759700  0.658900  0.089800  1.0
  N  N1428  1  0.899200  0.240300  0.089800  1.0
  N  N1429  1  0.341100  0.100800  0.089800  1.0
  N  N1430  1  0.100800  0.341100  0.910200  1.0
  N  N1431  1  0.658900  0.759700  0.910200  1.0
  N  N1432  1  0.240300  0.899200  0.910200  1.0
  O  O1433  1  0.976500  0.587800  0.547900  1
  O  O1434  1  0.611300  0.023500  0.547900  1
  O  O1435  1  0.412200  0.388700  0.547900  1
  O  O1436  1  0.587800  0.976500  0.452100  1
  O  O1437  1  0.023500  0.611300  0.452100  1
  O  O1438  1  0.388700  0.412200  0.452100  1
  O  O1439  1  0.388700  0.412200  0.047900  1
  O  O1440  1  0.023500  0.611300  0.047900  1
  O  O1441  1  0.587800  0.976500  0.047900  1
  O  O1442  1  0.976500  0.587800  0.952100  1
  O  O1443  1  0.412200  0.388700  0.952100  1
  O  O1444  1  0.611300  0.023500  0.952100  1
  O  O1445  1  0.881000  0.526100  0.567100  1
  O  O1446  1  0.645100  0.119000  0.567100  1
  O  O1447  1  0.473900  0.354900  0.567100  1
  O  O1448  1  0.526100  0.881000  0.432900  1
  O  O1449  1  0.119000  0.645100  0.432900  1
  O  O1450  1  0.354900  0.473900  0.432900  1
  O  O1451  1  0.354900  0.473900  0.067100  1
  O  O1452  1  0.119000  0.645100  0.067100  1
  O  O1453  1  0.526100  0.881000  0.067100  1
  O  O1454  1  0.881000  0.526100  0.932900  1
  O  O1455  1  0.473900  0.354900  0.932900  1
  O  O1456  1  0.645100  0.119000  0.932900  1
  O  O1457  1  0.954400  0.495000  0.578100  1
  O  O1458  1  0.540600  0.045600  0.578100  1
  O  O1459  1  0.505000  0.459400  0.578100  1
  O  O1460  1  0.495000  0.954400  0.421900  1
  O  O1461  1  0.045600  0.540600  0.421900  1
  O  O1462  1  0.459400  0.505000  0.421900  1
  O  O1463  1  0.459400  0.505000  0.078100  1
  O  O1464  1  0.045600  0.540600  0.078100  1
  O  O1465  1  0.495000  0.954400  0.078100  1
  O  O1466  1  0.954400  0.495000  0.921900  1
  O  O1467  1  0.505000  0.459400  0.921900  1
  O  O1468  1  0.540600  0.045600  0.921900  1
  O  O1469  1  0.209100  0.614500  0.750000  1
  O  O1470  1  0.405400  0.790900  0.750000  1
  O  O1471  1  0.385500  0.594600  0.750000  1
  O  O1472  1  0.614500  0.209100  0.250000  1
  O  O1473  1  0.790900  0.405400  0.250000  1
  O  O1474  1  0.594600  0.385500  0.250000  1
  O  O1475  1  0.978400  0.374800  0.527700  1
  O  O1476  1  0.396400  0.021600  0.527700  1
  O  O1477  1  0.625200  0.603600  0.527700  1
  O  O1478  1  0.374800  0.978400  0.472300  1
  O  O1479  1  0.021600  0.396400  0.472300  1
  O  O1480  1  0.603600  0.625200  0.472300  1
  O  O1481  1  0.603600  0.625200  0.027700  1
  O  O1482  1  0.021600  0.396400  0.027700  1
  O  O1483  1  0.374800  0.978400  0.027700  1
  O  O1484  1  0.978400  0.374800  0.972300  1
  O  O1485  1  0.625200  0.603600  0.972300  1
  O  O1486  1  0.396400  0.021600  0.972300  1
  O  O1487  1  0.942000  0.321100  0.482900  1
  O  O1488  1  0.379100  0.058000  0.482900  1
  O  O1489  1  0.678900  0.620900  0.482900  1
  O  O1490  1  0.321100  0.942000  0.517100  1
  O  O1491  1  0.058000  0.379100  0.517100  1
  O  O1492  1  0.620900  0.678900  0.517100  1
  O  O1493  1  0.620900  0.678900  0.982900  1
  O  O1494  1  0.058000  0.379100  0.982900  1
  O  O1495  1  0.321100  0.942000  0.982900  1
  O  O1496  1  0.942000  0.321100  0.017100  1
  O  O1497  1  0.678900  0.620900  0.017100  1
  O  O1498  1  0.379100  0.058000  0.017100  1
  O  O1499  1  0.970200  0.738500  0.475500  1
  O  O1500  1  0.768300  0.029800  0.475500  1
  O  O1501  1  0.261500  0.231700  0.475500  1
  O  O1502  1  0.738500  0.970200  0.524500  1
  O  O1503  1  0.029800  0.768300  0.524500  1
  O  O1504  1  0.231700  0.261500  0.524500  1
  O  O1505  1  0.231700  0.261500  0.975500  1
  O  O1506  1  0.029800  0.768300  0.975500  1
  O  O1507  1  0.738500  0.970200  0.975500  1
  O  O1508  1  0.970200  0.738500  0.024500  1
  O  O1509  1  0.261500  0.231700  0.024500  1
  O  O1510  1  0.768300  0.029800  0.024500  1
  O  O1511  1  0.000000  0.838700  0.500000  1
  O  O1512  1  0.838700  0.000000  0.500000  1
  O  O1513  1  0.161300  0.161300  0.500000  1
  O  O1514  1  0.161300  0.161300  0.000000  1
  O  O1515  1  0.000000  0.838700  1.000000  1
  O  O1516  1  0.838700  0.000000  0.000000  1
  O  O1517  1  0.188500  0.531800  0.720700  1.0
  O  O1518  1  0.343300  0.811500  0.720700  1.0
  O  O1519  1  0.468200  0.656700  0.720700  1.0
  O  O1520  1  0.531800  0.188500  0.279300  1.0
  O  O1521  1  0.811500  0.343300  0.279300  1.0
  O  O1522  1  0.656700  0.468200  0.279300  1.0
  O  O1523  1  0.656700  0.468200  0.220700  1.0
  O  O1524  1  0.811500  0.343300  0.220700  1.0
  O  O1525  1  0.531800  0.188500  0.220700  1.0
  O  O1526  1  0.188500  0.531800  0.779300  1.0
  O  O1527  1  0.468200  0.656700  0.779300  1.0
  O  O1528  1  0.343300  0.811500  0.779300  1.0
  F  F1529  1  0.015000  0.610600  0.619200  1
  F  F1530  1  0.595600  0.985000  0.619200  1
  F  F1531  1  0.389400  0.404400  0.619200  1
  F  F1532  1  0.610600  0.015000  0.380800  1
  F  F1533  1  0.985000  0.595600  0.380800  1
  F  F1534  1  0.404400  0.389400  0.380800  1
  F  F1535  1  0.404400  0.389400  0.119200  1
  F  F1536  1  0.985000  0.595600  0.119200  1
  F  F1537  1  0.610600  0.015000  0.119200  1
  F  F1538  1  0.015000  0.610600  0.880800  1
  F  F1539  1  0.389400  0.404400  0.880800  1
  F  F1540  1  0.595600  0.985000  0.880800  1
  F  F1541  1  0.917900  0.548100  0.633800  1
  F  F1542  1  0.630200  0.082100  0.633800  1
  F  F1543  1  0.451900  0.369800  0.633800  1
  F  F1544  1  0.548100  0.917900  0.366200  1
  F  F1545  1  0.082100  0.630200  0.366200  1
  F  F1546  1  0.369800  0.451900  0.366200  1
  F  F1547  1  0.369800  0.451900  0.133800  1
  F  F1548  1  0.082100  0.630200  0.133800  1
  F  F1549  1  0.548100  0.917900  0.133800  1
  F  F1550  1  0.917900  0.548100  0.866200  1
  F  F1551  1  0.451900  0.369800  0.866200  1
  F  F1552  1  0.630200  0.082100  0.866200  1
  F  F1553  1  0.939500  0.630000  0.609500  1
  F  F1554  1  0.690500  0.060500  0.609500  1
  F  F1555  1  0.370000  0.309500  0.609500  1
  F  F1556  1  0.630000  0.939500  0.390500  1
  F  F1557  1  0.060500  0.690500  0.390500  1
  F  F1558  1  0.309500  0.370000  0.390500  1
  F  F1559  1  0.309500  0.370000  0.109500  1
  F  F1560  1  0.060500  0.690500  0.109500  1
  F  F1561  1  0.630000  0.939500  0.109500  1
  F  F1562  1  0.939500  0.630000  0.890500  1
  F  F1563  1  0.370000  0.309500  0.890500  1
  F  F1564  1  0.690500  0.060500  0.890500  1
  F  F1565  1  0.067700  0.453000  0.750000  1
  F  F1566  1  0.385300  0.932300  0.750000  1
  F  F1567  1  0.547000  0.614700  0.750000  1
  F  F1568  1  0.453000  0.067700  0.250000  1
  F  F1569  1  0.932300  0.385300  0.250000  1
  F  F1570  1  0.614700  0.547000  0.250000  1
  F  F1571  1  0.920600  0.683900  0.535900  1
  F  F1572  1  0.763300  0.079400  0.535900  1
  F  F1573  1  0.316100  0.236700  0.535900  1
  F  F1574  1  0.683900  0.920600  0.464100  1
  F  F1575  1  0.079400  0.763300  0.464100  1
  F  F1576  1  0.236700  0.316100  0.464100  1
  F  F1577  1  0.236700  0.316100  0.035900  1
  F  F1578  1  0.079400  0.763300  0.035900  1
  F  F1579  1  0.683900  0.920600  0.035900  1
  F  F1580  1  0.920600  0.683900  0.964100  1
  F  F1581  1  0.316100  0.236700  0.964100  1
  F  F1582  1  0.763300  0.079400  0.964100  1
  F  F1583  1  0.930200  0.768900  0.556400  1
  F  F1584  1  0.838700  0.069800  0.556400  1
  F  F1585  1  0.231100  0.161300  0.556400  1
  F  F1586  1  0.768900  0.930200  0.443600  1
  F  F1587  1  0.069800  0.838700  0.443600  1
  F  F1588  1  0.161300  0.231100  0.443600  1
  F  F1589  1  0.161300  0.231100  0.056400  1
  F  F1590  1  0.069800  0.838700  0.056400  1
  F  F1591  1  0.768900  0.930200  0.056400  1
  F  F1592  1  0.930200  0.768900  0.943600  1
  F  F1593  1  0.231100  0.161300  0.943600  1
  F  F1594  1  0.838700  0.069800  0.943600  1
  F  F1595  1  0.127900  0.851100  0.483500  1
  F  F1596  1  0.723200  0.872100  0.483500  1
  F  F1597  1  0.148900  0.276800  0.483500  1
  F  F1598  1  0.851100  0.127900  0.516500  1
  F  F1599  1  0.872100  0.723200  0.516500  1
  F  F1600  1  0.276800  0.148900  0.516500  1
  F  F1601  1  0.276800  0.148900  0.983500  1
  F  F1602  1  0.872100  0.723200  0.983500  1
  F  F1603  1  0.851100  0.127900  0.983500  1
  F  F1604  1  0.127900  0.851100  0.016500  1
  F  F1605  1  0.148900  0.276800  0.016500  1
  F  F1606  1  0.723200  0.872100  0.016500  1
  F  F1607  1  0.910900  0.254000  0.486100  1
  F  F1608  1  0.343100  0.089100  0.486100  1
  F  F1609  1  0.746000  0.656900  0.486100  1
  F  F1610  1  0.254000  0.910900  0.513900  1
  F  F1611  1  0.089100  0.343100  0.513900  1
  F  F1612  1  0.656900  0.746000  0.513900  1
  F  F1613  1  0.656900  0.746000  0.986100  1
  F  F1614  1  0.089100  0.343100  0.986100  1
  F  F1615  1  0.254000  0.910900  0.986100  1
  F  F1616  1  0.910900  0.254000  0.013900  1
  F  F1617  1  0.746000  0.656900  0.013900  1
  F  F1618  1  0.343100  0.089100  0.013900  1
  F  F1619  1  0.997800  0.261100  0.514600  1
  F  F1620  1  0.263300  0.002200  0.514600  1
  F  F1621  1  0.738900  0.736700  0.514600  1
  F  F1622  1  0.261100  0.997800  0.485400  1
  F  F1623  1  0.002200  0.263300  0.485400  1
  F  F1624  1  0.736700  0.738900  0.485400  1
  F  F1625  1  0.736700  0.738900  0.014600  1
  F  F1626  1  0.002200  0.263300  0.014600  1
  F  F1627  1  0.261100  0.997800  0.014600  1
  F  F1628  1  0.997800  0.261100  0.985400  1
  F  F1629  1  0.738900  0.736700  0.985400  1
  F  F1630  1  0.263300  0.002200  0.985400  1
  F  F1631  1  0.960100  0.253200  0.530400  1
  F  F1632  1  0.293100  0.039900  0.530400  1
  F  F1633  1  0.746800  0.706900  0.530400  1
  F  F1634  1  0.253200  0.960100  0.469600  1
  F  F1635  1  0.039900  0.293100  0.469600  1
  F  F1636  1  0.706900  0.746800  0.469600  1
  F  F1637  1  0.706900  0.746800  0.030400  1
  F  F1638  1  0.039900  0.293100  0.030400  1
  F  F1639  1  0.253200  0.960100  0.030400  1
  F  F1640  1  0.960100  0.253200  0.969600  1
  F  F1641  1  0.746800  0.706900  0.969600  1
  F  F1642  1  0.293100  0.039900  0.969600  1
  F  F1643  1  0.077800  0.533100  0.723100  1.0
  F  F1644  1  0.455300  0.922200  0.723100  1.0
  F  F1645  1  0.466900  0.544700  0.723100  1.0
  F  F1646  1  0.533100  0.077800  0.276900  1.0
  F  F1647  1  0.922200  0.455300  0.276900  1.0
  F  F1648  1  0.544700  0.466900  0.276900  1.0
  F  F1649  1  0.544700  0.466900  0.223100  1.0
  F  F1650  1  0.922200  0.455300  0.223100  1.0
  F  F1651  1  0.533100  0.077800  0.223100  1.0
  F  F1652  1  0.077800  0.533100  0.776900  1.0
  F  F1653  1  0.466900  0.544700  0.776900  1.0
  F  F1654  1  0.455300  0.922200  0.776900  1.0
