
#######################################################################
#
#                 Cambridge Crystallographic Data Centre
#                                CCDC 
#
#######################################################################
#
# If this CIF has been generated from an entry in the Cambridge 
# Structural Database, then it will include bibliographic, chemical, 
# crystal, experimental, refinement or atomic coordinate data resulting 
# from the CCDC's data processing and validation procedures.
#
#######################################################################

data_DEMWIC
_chemical_formula_moiety         
'6(C112 H60 F52 N8 O4 Pd2 4+),24(N1 O3 1-),5.8(C8 F18)'
_chemical_name_systematic        
"tetracosakis(\m~2~-2-(3,3,4,4,5,5,6,6,7,7,8,8,8-Tridecafluorooctyloxy)-1,3-bis(2-(4-pyridyl)ethynyl)benzene-N,N')-dodeca-palladium tetracosanitrate perfluoro-octane unknown clathrate unknown solvate"
_symmetry_cell_setting           tetragonal
_symmetry_space_group_name_H-M   'I 4/m'
_symmetry_Int_Tables_number      87
_space_group_name_Hall           '-I 4'
loop_
_symmetry_equiv_pos_site_id
_symmetry_equiv_pos_as_xyz
1 x,y,z
2 -y,x,z
3 y,-x,z
4 1/2+x,1/2+y,1/2+z
5 1/2-y,1/2+x,1/2+z
6 1/2+y,1/2-x,1/2+z
7 -x,-y,z
8 1/2-x,1/2-y,1/2+z
9 -x,-y,-z
10 y,-x,-z
11 -y,x,-z
12 1/2-x,1/2-y,1/2-z
13 1/2+y,1/2-x,1/2-z
14 1/2-y,1/2+x,1/2-z
15 x,y,-z
16 1/2+x,1/2+y,1/2-z
_cell_length_a                   43.970(6)
_cell_length_b                   43.970(6)
_cell_length_c                   42.521(9)
_cell_angle_alpha                90
_cell_angle_beta                 90
_cell_angle_gamma                90
_cell_volume                     82208.4
_exptl_crystal_colour            yellow
_exptl_crystal_description       block
_cell_formula_units_Z            1
_exptl_crystal_recrystallization_method 'dimethylsulfoxide/ethyl acetate'
loop_
_atom_site_label
_atom_site_type_symbol
_atom_site_fract_x
_atom_site_fract_y
_atom_site_fract_z
N10 N 0.3869(10) 0.1703(15) -0.3974(12)
O11 O 0.3906(8) 0.1984(9) -0.4161(9)
O12 O 0.3797(6) 0.1948(7) -0.3769(7)
O13 O 0.3752(13) 0.1530(12) -0.4010(13)
Pd1 Pd 0.63358(10) 0.18425(10) 0.0000
Pd2 Pd 0.75254(11) 0.40361(9) 0.33596(9)
N1 N 0.6631(4) 0.1968(6) 0.0339(4)
C1 C 0.6630(5) 0.2258(5) 0.0470(6)
H1 H 0.6493 0.2408 0.0393
C2 C 0.6829(6) 0.2329(4) 0.0713(6)
H2 H 0.6828 0.2527 0.0802
C3 C 0.7030(4) 0.2110(6) 0.0825(4)
C4 C 0.7031(4) 0.1820(5) 0.0694(5)
H3 H 0.7168 0.1671 0.0771
C5 C 0.6832(5) 0.1749(4) 0.0451(5)
H4 H 0.6833 0.1551 0.0362
C6 C 0.7220(9) 0.2197(8) 0.1101(9)
C7 C 0.7410(9) 0.2207(9) 0.1283(10)
N2 N 0.6047(6) 0.1703(7) -0.0343(6)
C8 C 0.5808(8) 0.1881(6) -0.0450(8)
H5 H 0.5768 0.2072 -0.0354
C9 C 0.5627(7) 0.1781(7) -0.0697(8)
H6 H 0.5488 0.1915 -0.0797
C10 C 0.5654(8) 0.1480(8) -0.0792(8)
C11 C 0.5879(9) 0.1293(6) -0.0671(9)
H7 H 0.5902 0.1091 -0.0747
C12 C 0.6072(7) 0.1403(7) -0.0435(8)
H8 H 0.6218 0.1273 -0.0341
C13 C 0.5453(10) 0.1385(10) -0.1058(10)
C14 C 0.5296(11) 0.1225(11) -0.1190(12)
N3 N 0.7560(8) 0.3663(7) 0.3098(7)
C15 C 0.7350(7) 0.3622(8) 0.2854(9)
H9 H 0.7173 0.3747 0.2845
C16 C 0.7397(7) 0.3401(8) 0.2627(7)
H10 H 0.7266 0.3388 0.2450
C17 C 0.7637(8) 0.3200(7) 0.2660(7)
C18 C 0.7843(6) 0.3231(7) 0.2907(8)
H11 H 0.8013 0.3099 0.2924
C19 C 0.7796(7) 0.3459(8) 0.3129(7)
H12 H 0.7929 0.3475 0.3305
C20 C 0.7655(9) 0.2957(9) 0.2419(9)
C21 C 0.7740(10) 0.2764(10) 0.2264(11)
N4 N 0.7226(9) 0.3830(8) 0.3608(10)
C22 C 0.7304(7) 0.3715(10) 0.3903(10)
H13 H 0.7494 0.3766 0.3995
C23 C 0.7103(9) 0.3523(10) 0.4064(9)
H14 H 0.7172 0.3389 0.4224
C24 C 0.6795(9) 0.3536(12) 0.3979(11)
C25 C 0.6727(8) 0.3615(12) 0.3669(11)
H15 H 0.6544 0.3547 0.3574
C26 C 0.6931(10) 0.3794(11) 0.3501(9)
H16 H 0.6868 0.3890 0.3312
C27 C 0.6588(12) 0.3335(13) 0.4165(12)
C28 C 0.6497(17) 0.3093(14) 0.4210(18)
C29 C 0.7591(12) 0.2269(14) 0.1571(13)
C30 C 0.7561(12) 0.2492(14) 0.1770(14)
C31 C 0.7766(13) 0.2488(12) 0.2048(12)
C32 C 0.7978(10) 0.2287(11) 0.2045(10)
H17 H 0.8126 0.2318 0.2205
C33 C 0.8040(10) 0.2032(11) 0.1856(13)
H18 H 0.8196 0.1885 0.1885
C34 C 0.7819(11) 0.2042(11) 0.1608(11)
H19 H 0.7824 0.1884 0.1457
C35 C 0.7042(12) 0.2702(10) 0.1881(12)
O1 O 0.7374(8) 0.2693(7) 0.1734(6)
O2 O 0.8374(10) 0.4925(10) 0.1641(9)
C36 C 0.8294(11) 0.5153(13) 0.1783(12)
N5 N 0.7854(9) 0.4242(8) 0.3073(7)
C38 C 0.8168(9) 0.4239(9) 0.3085(8)
H20 H 0.8265 0.4166 0.3270
C39 C 0.8346(7) 0.4338(10) 0.2837(10)
H21 H 0.8560 0.4305 0.2835
C40 C 0.8200(8) 0.4489(10) 0.2590(8)
C41 C 0.7889(8) 0.4505(9) 0.2586(8)
H22 H 0.7792 0.4599 0.2412
C42 C 0.7708(7) 0.4390(11) 0.2826(10)
H23 H 0.7493 0.4412 0.2821
C43 C 0.8398(10) 0.4613(12) 0.2338(10)
C44 C 0.8622(11) 0.4682(14) 0.2222(14)
N6 N 0.7467(12) 0.4413(8) 0.3631(11)
C45 C 0.7669(9) 0.4485(10) 0.3871(12)
H24 H 0.7819 0.4342 0.3935
C46 C 0.7652(10) 0.4767(13) 0.4018(9)
H25 H 0.7790 0.4817 0.4182
C47 C 0.7434(12) 0.4977(8) 0.3924(11)
C48 C 0.7232(8) 0.4904(10) 0.3684(11)
H26 H 0.7082 0.5047 0.3620
C49 C 0.7249(9) 0.4622(12) 0.3538(8)
H27 H 0.7111 0.4572 0.3374
C50 C 0.7465(17) 0.5290(15) 0.406(3)
C51 C 0.7601(16) 0.5496(15) 0.414(2)
C52 C 0.759(3) 0.5822(13) 0.430(2)
C53 C 0.733(2) 0.599(2) 0.4214(14)
C54 C 0.6290(15) 0.270(2) 0.4310(18)
C55 C 0.642(2) 0.2480(13) 0.4490(17)
H28 H 0.6628 0.2499 0.4556
C56 C 0.6260(18) 0.222(3) 0.4575(17)
H29 H 0.6352 0.2065 0.4698
C57 C 0.781(2) 0.596(2) 0.448(2)
H30 H 0.7989 0.5846 0.4537
O3 O 0.7027(16) 0.5899(13) 0.4092(13)
C58 C 0.672(2) 0.5800(16) 0.4084(17)
C59 C 0.8770(14) 0.4844(10) 0.1941(10)
C60 C 0.8660(8) 0.5028(11) 0.1701(14)
C61 C 0.5146(16) 0.1141(7) -0.1478(9)
C62 C 0.5079(14) 0.0832(10) -0.1494(10)
H31 H 0.5160 0.0697 -0.1342
C63 C 0.4895(8) 0.0722(12) -0.1734(15)
H32 H 0.4850 0.0511 -0.1746
C64 C 0.9079(16) 0.4777(8) 0.1958(10)
H33 H 0.9154 0.4651 0.2122
Pd1B Pd 0.18425(10) 0.36642(10) 0.0000
Pd1H Pd 0.36642(10) 0.81575(10) 0.0000
Pd1A Pd 0.81575(10) 0.63358(10) 0.0000
Pd2B Pd 0.40361(9) 0.24746(11) 0.33596(9)
Pd2I Pd 0.40361(9) 0.24746(11) -0.33596(9)
Pd2H Pd 0.24746(11) 0.59639(9) -0.33596(9)
Pd2F Pd 0.24746(11) 0.59639(9) 0.33596(9)
Pd2A Pd 0.59639(9) 0.75254(11) 0.33596(9)
Pd2J Pd 0.59639(9) 0.75254(11) -0.33596(9)
Pd2N Pd 0.75254(11) 0.40361(9) -0.33596(9)
N1B N 0.1968(6) 0.3369(4) 0.0339(4)
N1I N 0.1968(6) 0.3369(4) -0.0339(4)
N1H N 0.3369(4) 0.8032(6) -0.0339(4)
N1F N 0.3369(4) 0.8032(6) 0.0339(4)
N1A N 0.8032(6) 0.6631(4) 0.0339(4)
N1J N 0.8032(6) 0.6631(4) -0.0339(4)
N1N N 0.6631(4) 0.1968(6) -0.0339(4)
C1B C 0.2258(5) 0.3370(5) 0.0470(6)
C1I C 0.2258(5) 0.3370(5) -0.0470(6)
C1H C 0.3370(5) 0.7742(5) -0.0470(6)
C1F C 0.3370(5) 0.7742(5) 0.0470(6)
C1A C 0.7742(5) 0.6630(5) 0.0470(6)
C1J C 0.7742(5) 0.6630(5) -0.0470(6)
C1N C 0.6630(5) 0.2258(5) -0.0470(6)
H1I H 0.2408 0.3507 -0.0393
H1F H 0.3507 0.7592 0.0393
H1J H 0.7592 0.6493 -0.0393
H1N H 0.6493 0.2408 -0.0393
H1A H 0.7592 0.6493 0.0393
H1H H 0.3507 0.7592 -0.0393
H1B H 0.2408 0.3507 0.0393
C2B C 0.2329(4) 0.3171(6) 0.0713(6)
C2I C 0.2329(4) 0.3171(6) -0.0713(6)
C2H C 0.3171(6) 0.7671(4) -0.0713(6)
C2F C 0.3171(6) 0.7671(4) 0.0713(6)
C2A C 0.7671(4) 0.6829(6) 0.0713(6)
C2J C 0.7671(4) 0.6829(6) -0.0713(6)
C2N C 0.6829(6) 0.2329(4) -0.0713(6)
H2I H 0.2527 0.3172 -0.0802
H2F H 0.3172 0.7473 0.0802
H2J H 0.7473 0.6828 -0.0802
H2N H 0.6828 0.2527 -0.0802
H2A H 0.7473 0.6828 0.0802
H2H H 0.3172 0.7473 -0.0802
H2B H 0.2527 0.3172 0.0802
C3B C 0.2110(6) 0.2970(4) 0.0825(4)
C3I C 0.2110(6) 0.2970(4) -0.0825(4)
C3H C 0.2970(4) 0.7890(6) -0.0825(4)
C3F C 0.2970(4) 0.7890(6) 0.0825(4)
C3A C 0.7890(6) 0.7030(4) 0.0825(4)
C3J C 0.7890(6) 0.7030(4) -0.0825(4)
C3N C 0.7030(4) 0.2110(6) -0.0825(4)
C4I C 0.1820(5) 0.2969(4) -0.0694(5)
C4F C 0.2969(4) 0.8180(5) 0.0694(5)
C4J C 0.8180(5) 0.7031(4) -0.0694(5)
C4N C 0.7031(4) 0.1820(5) -0.0694(5)
C4A C 0.8180(5) 0.7031(4) 0.0694(5)
C4H C 0.2969(4) 0.8180(5) -0.0694(5)
C4B C 0.1820(5) 0.2969(4) 0.0694(5)
H3I H 0.1671 0.2832 -0.0771
H3F H 0.2832 0.8329 0.0771
H3J H 0.8329 0.7168 -0.0771
H3N H 0.7168 0.1671 -0.0771
H3A H 0.8329 0.7168 0.0771
H3H H 0.2832 0.8329 -0.0771
H3B H 0.1671 0.2832 0.0771
C5I C 0.1749(4) 0.3168(5) -0.0451(5)
C5F C 0.3168(5) 0.8251(4) 0.0451(5)
C5J C 0.8251(4) 0.6832(5) -0.0451(5)
C5N C 0.6832(5) 0.1749(4) -0.0451(5)
C5A C 0.8251(4) 0.6832(5) 0.0451(5)
C5H C 0.3168(5) 0.8251(4) -0.0451(5)
C5B C 0.1749(4) 0.3168(5) 0.0451(5)
H4I H 0.1551 0.3167 -0.0362
H4F H 0.3167 0.8449 0.0362
H4J H 0.8449 0.6833 -0.0362
H4N H 0.6833 0.1551 -0.0362
H4A H 0.8449 0.6833 0.0362
H4H H 0.3167 0.8449 -0.0362
H4B H 0.1551 0.3167 0.0362
C6B C 0.2197(8) 0.2780(9) 0.1101(9)
C6I C 0.2197(8) 0.2780(9) -0.1101(9)
C6H C 0.2780(9) 0.7803(8) -0.1101(9)
C6F C 0.2780(9) 0.7803(8) 0.1101(9)
C6A C 0.7803(8) 0.7220(9) 0.1101(9)
C6J C 0.7803(8) 0.7220(9) -0.1101(9)
C6N C 0.7220(9) 0.2197(8) -0.1101(9)
C7B C 0.2207(9) 0.2590(9) 0.1283(10)
C7I C 0.2207(9) 0.2590(9) -0.1283(10)
C7H C 0.2590(9) 0.7793(9) -0.1283(10)
C7F C 0.2590(9) 0.7793(9) 0.1283(10)
C7A C 0.7793(9) 0.7410(9) 0.1283(10)
C7J C 0.7793(9) 0.7410(9) -0.1283(10)
C7N C 0.7410(9) 0.2207(9) -0.1283(10)
N2A N 0.8297(7) 0.6047(6) -0.0343(6)
N2J N 0.8297(7) 0.6047(6) 0.0343(6)
N2H N 0.3953(6) 0.8297(7) 0.0343(6)
N2F N 0.3953(6) 0.8297(7) -0.0343(6)
N2B N 0.1703(7) 0.3953(6) -0.0343(6)
N2I N 0.1703(7) 0.3953(6) 0.0343(6)
N2N N 0.6047(6) 0.1703(7) 0.0343(6)
C8A C 0.8119(6) 0.5808(8) -0.0450(8)
C8J C 0.8119(6) 0.5808(8) 0.0450(8)
C8H C 0.4192(8) 0.8119(6) 0.0450(8)
C8F C 0.4192(8) 0.8119(6) -0.0450(8)
C8B C 0.1881(6) 0.4192(8) -0.0450(8)
C8I C 0.1881(6) 0.4192(8) 0.0450(8)
C8N C 0.5808(8) 0.1881(6) 0.0450(8)
H5J H 0.7928 0.5768 0.0354
H5F H 0.4232 0.7928 -0.0354
H5I H 0.2072 0.4232 0.0354
H5N H 0.5768 0.2072 0.0354
H5B H 0.2072 0.4232 -0.0354
H5H H 0.4232 0.7928 0.0354
H5A H 0.7928 0.5768 -0.0354
C9A C 0.8219(7) 0.5627(7) -0.0697(8)
C9J C 0.8219(7) 0.5627(7) 0.0697(8)
C9H C 0.4373(7) 0.8219(7) 0.0697(8)
C9F C 0.4373(7) 0.8219(7) -0.0697(8)
C9B C 0.1781(7) 0.4373(7) -0.0697(8)
C9I C 0.1781(7) 0.4373(7) 0.0697(8)
C9N C 0.5627(7) 0.1781(7) 0.0697(8)
H6J H 0.8085 0.5488 0.0797
H6F H 0.4512 0.8085 -0.0797
H6I H 0.1915 0.4512 0.0797
H6N H 0.5488 0.1915 0.0797
H6B H 0.1915 0.4512 -0.0797
H6H H 0.4512 0.8085 0.0797
H6A H 0.8085 0.5488 -0.0797
C10A C 0.8520(8) 0.5654(8) -0.0792(8)
C10J C 0.8520(8) 0.5654(8) 0.0792(8)
C10H C 0.4346(8) 0.8520(8) 0.0792(8)
C10F C 0.4346(8) 0.8520(8) -0.0792(8)
C10B C 0.1480(8) 0.4346(8) -0.0792(8)
C10I C 0.1480(8) 0.4346(8) 0.0792(8)
C10N C 0.5654(8) 0.1480(8) 0.0792(8)
C11J C 0.8707(6) 0.5879(9) 0.0671(9)
C11F C 0.4121(9) 0.8707(6) -0.0671(9)
C11I C 0.1293(6) 0.4121(9) 0.0671(9)
C11N C 0.5879(9) 0.1293(6) 0.0671(9)
C11B C 0.1293(6) 0.4121(9) -0.0671(9)
C11H C 0.4121(9) 0.8707(6) 0.0671(9)
C11A C 0.8707(6) 0.5879(9) -0.0671(9)
H7J H 0.8909 0.5902 0.0747
H7F H 0.4098 0.8909 -0.0747
H7I H 0.1091 0.4098 0.0747
H7N H 0.5902 0.1091 0.0747
H7B H 0.1091 0.4098 -0.0747
H7H H 0.4098 0.8909 0.0747
H7A H 0.8909 0.5902 -0.0747
C12J C 0.8597(7) 0.6072(7) 0.0435(8)
C12F C 0.3928(7) 0.8597(7) -0.0435(8)
C12I C 0.1403(7) 0.3928(7) 0.0435(8)
C12N C 0.6072(7) 0.1403(7) 0.0435(8)
C12B C 0.1403(7) 0.3928(7) -0.0435(8)
C12H C 0.3928(7) 0.8597(7) 0.0435(8)
C12A C 0.8597(7) 0.6072(7) -0.0435(8)
H8J H 0.8727 0.6218 0.0341
H8F H 0.3782 0.8727 -0.0341
H8I H 0.1273 0.3782 0.0341
H8N H 0.6218 0.1273 0.0341
H8B H 0.1273 0.3782 -0.0341
H8H H 0.3782 0.8727 0.0341
H8A H 0.8727 0.6218 -0.0341
C13A C 0.8615(10) 0.5453(10) -0.1058(10)
C13J C 0.8615(10) 0.5453(10) 0.1058(10)
C13H C 0.4547(10) 0.8615(10) 0.1058(10)
C13F C 0.4547(10) 0.8615(10) -0.1058(10)
C13B C 0.1385(10) 0.4547(10) -0.1058(10)
C13I C 0.1385(10) 0.4547(10) 0.1058(10)
C13N C 0.5453(10) 0.1385(10) 0.1058(10)
C14A C 0.8775(11) 0.5296(11) -0.1190(12)
C14J C 0.8775(11) 0.5296(11) 0.1190(12)
C14H C 0.4704(11) 0.8775(11) 0.1190(12)
C14F C 0.4704(11) 0.8775(11) -0.1190(12)
C14B C 0.1225(11) 0.4704(11) -0.1190(12)
C14I C 0.1225(11) 0.4704(11) 0.1190(12)
C14N C 0.5296(11) 0.1225(11) 0.1190(12)
N3B N 0.3663(7) 0.2440(8) 0.3098(7)
N3I N 0.3663(7) 0.2440(8) -0.3098(7)
N3H N 0.2440(8) 0.6337(7) -0.3098(7)
N3F N 0.2440(8) 0.6337(7) 0.3098(7)
N3A N 0.6337(7) 0.7560(8) 0.3098(7)
N3J N 0.6337(7) 0.7560(8) -0.3098(7)
N3N N 0.7560(8) 0.3663(7) -0.3098(7)
C15B C 0.3622(8) 0.2650(7) 0.2854(9)
C15I C 0.3622(8) 0.2650(7) -0.2854(9)
C15H C 0.2650(7) 0.6378(8) -0.2854(9)
C15F C 0.2650(7) 0.6378(8) 0.2854(9)
C15A C 0.6378(8) 0.7350(7) 0.2854(9)
C15J C 0.6378(8) 0.7350(7) -0.2854(9)
C15N C 0.7350(7) 0.3622(8) -0.2854(9)
H9B H 0.3747 0.2827 0.2845
H9H H 0.2827 0.6253 -0.2845
H9A H 0.6253 0.7173 0.2845
H9N H 0.7173 0.3747 -0.2845
H9J H 0.6253 0.7173 -0.2845
H9F H 0.2827 0.6253 0.2845
H9I H 0.3747 0.2827 -0.2845
C16B C 0.3401(8) 0.2603(7) 0.2627(7)
C16I C 0.3401(8) 0.2603(7) -0.2627(7)
C16H C 0.2603(7) 0.6599(8) -0.2627(7)
C16F C 0.2603(7) 0.6599(8) 0.2627(7)
C16A C 0.6599(8) 0.7397(7) 0.2627(7)
C16J C 0.6599(8) 0.7397(7) -0.2627(7)
C16N C 0.7397(7) 0.3401(8) -0.2627(7)
H10B H 0.3388 0.2734 0.2450
H10H H 0.2734 0.6612 -0.2450
H10A H 0.6612 0.7266 0.2450
H10N H 0.7266 0.3388 -0.2450
H10J H 0.6612 0.7266 -0.2450
H10F H 0.2734 0.6612 0.2450
H10I H 0.3388 0.2734 -0.2450
C17B C 0.3200(7) 0.2363(8) 0.2660(7)
C17I C 0.3200(7) 0.2363(8) -0.2660(7)
C17H C 0.2363(8) 0.6800(7) -0.2660(7)
C17F C 0.2363(8) 0.6800(7) 0.2660(7)
C17A C 0.6800(7) 0.7637(8) 0.2660(7)
C17J C 0.6800(7) 0.7637(8) -0.2660(7)
C17N C 0.7637(8) 0.3200(7) -0.2660(7)
C18B C 0.3231(7) 0.2157(6) 0.2907(8)
C18H C 0.2157(6) 0.6769(7) -0.2907(8)
C18A C 0.6769(7) 0.7843(6) 0.2907(8)
C18N C 0.7843(6) 0.3231(7) -0.2907(8)
C18J C 0.6769(7) 0.7843(6) -0.2907(8)
C18F C 0.2157(6) 0.6769(7) 0.2907(8)
C18I C 0.3231(7) 0.2157(6) -0.2907(8)
H11B H 0.3099 0.1987 0.2924
H11H H 0.1987 0.6901 -0.2924
H11A H 0.6901 0.8013 0.2924
H11N H 0.8013 0.3099 -0.2924
H11J H 0.6901 0.8013 -0.2924
H11F H 0.1987 0.6901 0.2924
H11I H 0.3099 0.1987 -0.2924
C19B C 0.3459(8) 0.2204(7) 0.3129(7)
C19H C 0.2204(7) 0.6541(8) -0.3129(7)
C19A C 0.6541(8) 0.7796(7) 0.3129(7)
C19N C 0.7796(7) 0.3459(8) -0.3129(7)
C19J C 0.6541(8) 0.7796(7) -0.3129(7)
C19F C 0.2204(7) 0.6541(8) 0.3129(7)
C19I C 0.3459(8) 0.2204(7) -0.3129(7)
H12B H 0.3475 0.2071 0.3305
H12H H 0.2071 0.6525 -0.3305
H12A H 0.6525 0.7929 0.3305
H12N H 0.7929 0.3475 -0.3305
H12J H 0.6525 0.7929 -0.3305
H12F H 0.2071 0.6525 0.3305
H12I H 0.3475 0.2071 -0.3305
C20B C 0.2957(9) 0.2345(9) 0.2419(9)
C20I C 0.2957(9) 0.2345(9) -0.2419(9)
C20H C 0.2345(9) 0.7043(9) -0.2419(9)
C20F C 0.2345(9) 0.7043(9) 0.2419(9)
C20A C 0.7043(9) 0.7655(9) 0.2419(9)
C20J C 0.7043(9) 0.7655(9) -0.2419(9)
C20N C 0.7655(9) 0.2957(9) -0.2419(9)
C21B C 0.2764(10) 0.2260(10) 0.2264(11)
C21I C 0.2764(10) 0.2260(10) -0.2264(11)
C21H C 0.2260(10) 0.7236(10) -0.2264(11)
C21F C 0.2260(10) 0.7236(10) 0.2264(11)
C21A C 0.7236(10) 0.7740(10) 0.2264(11)
C21J C 0.7236(10) 0.7740(10) -0.2264(11)
C21N C 0.7740(10) 0.2764(10) -0.2264(11)
N4I N 0.3830(8) 0.2774(9) -0.3608(10)
N4F N 0.2774(9) 0.6170(8) 0.3608(10)
N4J N 0.6170(8) 0.7226(9) -0.3608(10)
N4N N 0.7226(9) 0.3830(8) -0.3608(10)
N4A N 0.6170(8) 0.7226(9) 0.3608(10)
N4H N 0.2774(9) 0.6170(8) -0.3608(10)
N4B N 0.3830(8) 0.2774(9) 0.3608(10)
C22I C 0.3715(10) 0.2696(7) -0.3903(10)
C22F C 0.2696(7) 0.6285(10) 0.3903(10)
C22J C 0.6285(10) 0.7304(7) -0.3903(10)
C22N C 0.7304(7) 0.3715(10) -0.3903(10)
C22A C 0.6285(10) 0.7304(7) 0.3903(10)
C22H C 0.2696(7) 0.6285(10) -0.3903(10)
C22B C 0.3715(10) 0.2696(7) 0.3903(10)
H13I H 0.3766 0.2506 -0.3995
H13F H 0.2506 0.6234 0.3995
H13J H 0.6234 0.7494 -0.3995
H13B H 0.3766 0.2506 0.3995
H13H H 0.2506 0.6234 -0.3995
H13A H 0.6234 0.7494 0.3995
H13N H 0.7494 0.3766 -0.3995
C23I C 0.3523(10) 0.2897(9) -0.4064(9)
C23F C 0.2897(9) 0.6477(10) 0.4064(9)
C23J C 0.6477(10) 0.7103(9) -0.4064(9)
C23N C 0.7103(9) 0.3523(10) -0.4064(9)
C23A C 0.6477(10) 0.7103(9) 0.4064(9)
C23H C 0.2897(9) 0.6477(10) -0.4064(9)
C23B C 0.3523(10) 0.2897(9) 0.4064(9)
H14I H 0.3389 0.2828 -0.4224
H14F H 0.2828 0.6611 0.4224
H14J H 0.6611 0.7172 -0.4224
H14B H 0.3389 0.2828 0.4224
H14H H 0.2828 0.6611 -0.4224
H14A H 0.6611 0.7172 0.4224
H14N H 0.7172 0.3389 -0.4224
C24I C 0.3536(12) 0.3205(9) -0.3979(11)
C24F C 0.3205(9) 0.6464(12) 0.3979(11)
C24J C 0.6464(12) 0.6795(9) -0.3979(11)
C24N C 0.6795(9) 0.3536(12) -0.3979(11)
C24A C 0.6464(12) 0.6795(9) 0.3979(11)
C24H C 0.3205(9) 0.6464(12) -0.3979(11)
C24B C 0.3536(12) 0.3205(9) 0.3979(11)
C25I C 0.3615(12) 0.3273(8) -0.3669(11)
C25F C 0.3273(8) 0.6385(12) 0.3669(11)
C25J C 0.6385(12) 0.6727(8) -0.3669(11)
C25B C 0.3615(12) 0.3273(8) 0.3669(11)
C25H C 0.3273(8) 0.6385(12) -0.3669(11)
C25A C 0.6385(12) 0.6727(8) 0.3669(11)
C25N C 0.6727(8) 0.3615(12) -0.3669(11)
H15I H 0.3547 0.3456 -0.3574
H15F H 0.3456 0.6453 0.3574
H15J H 0.6453 0.6544 -0.3574
H15B H 0.3547 0.3456 0.3574
H15H H 0.3456 0.6453 -0.3574
H15A H 0.6453 0.6544 0.3574
H15N H 0.6544 0.3547 -0.3574
C26I C 0.3794(11) 0.3069(10) -0.3501(9)
C26F C 0.3069(10) 0.6206(11) 0.3501(9)
C26J C 0.6206(11) 0.6931(10) -0.3501(9)
C26B C 0.3794(11) 0.3069(10) 0.3501(9)
C26H C 0.3069(10) 0.6206(11) -0.3501(9)
C26A C 0.6206(11) 0.6931(10) 0.3501(9)
C26N C 0.6931(10) 0.3794(11) -0.3501(9)
H16I H 0.3890 0.3132 -0.3312
H16F H 0.3132 0.6110 0.3312
H16J H 0.6110 0.6868 -0.3312
H16B H 0.3890 0.3132 0.3312
H16H H 0.3132 0.6110 -0.3312
H16A H 0.6110 0.6868 0.3312
H16N H 0.6868 0.3890 -0.3312
C27I C 0.3335(13) 0.3412(12) -0.4165(12)
C27F C 0.3412(12) 0.6665(13) 0.4165(12)
C27J C 0.6665(13) 0.6588(12) -0.4165(12)
C27N C 0.6588(12) 0.3335(13) -0.4165(12)
C27A C 0.6665(13) 0.6588(12) 0.4165(12)
C27H C 0.3412(12) 0.6665(13) -0.4165(12)
C27B C 0.3335(13) 0.3412(12) 0.4165(12)
C28I C 0.3093(14) 0.3503(17) -0.4210(18)
C28F C 0.3503(17) 0.6907(14) 0.4210(18)
C28J C 0.6907(14) 0.6497(17) -0.4210(18)
C28N C 0.6497(17) 0.3093(14) -0.4210(18)
C28A C 0.6907(14) 0.6497(17) 0.4210(18)
C28H C 0.3503(17) 0.6907(14) -0.4210(18)
C28B C 0.3093(14) 0.3503(17) 0.4210(18)
C29B C 0.2269(14) 0.2409(12) 0.1571(13)
C29I C 0.2269(14) 0.2409(12) -0.1571(13)
C29H C 0.2409(12) 0.7731(14) -0.1571(13)
C29F C 0.2409(12) 0.7731(14) 0.1571(13)
C29A C 0.7731(14) 0.7591(12) 0.1571(13)
C29J C 0.7731(14) 0.7591(12) -0.1571(13)
C29N C 0.7591(12) 0.2269(14) -0.1571(13)
C30B C 0.2492(14) 0.2439(12) 0.1770(14)
C30I C 0.2492(14) 0.2439(12) -0.1770(14)
C30H C 0.2439(12) 0.7508(14) -0.1770(14)
C30F C 0.2439(12) 0.7508(14) 0.1770(14)
C30A C 0.7508(14) 0.7561(12) 0.1770(14)
C30J C 0.7508(14) 0.7561(12) -0.1770(14)
C30N C 0.7561(12) 0.2492(14) -0.1770(14)
C31B C 0.2488(12) 0.2234(13) 0.2048(12)
C31I C 0.2488(12) 0.2234(13) -0.2048(12)
C31H C 0.2234(13) 0.7512(12) -0.2048(12)
C31F C 0.2234(13) 0.7512(12) 0.2048(12)
C31A C 0.7512(12) 0.7766(13) 0.2048(12)
C31J C 0.7512(12) 0.7766(13) -0.2048(12)
C31N C 0.7766(13) 0.2488(12) -0.2048(12)
C32N C 0.7978(10) 0.2287(11) -0.2045(10)
C32J C 0.7713(11) 0.7978(10) -0.2045(10)
C32A C 0.7713(11) 0.7978(10) 0.2045(10)
C32F C 0.2022(10) 0.7713(11) 0.2045(10)
C32H C 0.2022(10) 0.7713(11) -0.2045(10)
C32I C 0.2287(11) 0.2022(10) -0.2045(10)
C32B C 0.2287(11) 0.2022(10) 0.2045(10)
H17N H 0.8126 0.2318 -0.2205
H17J H 0.7682 0.8126 -0.2205
H17A H 0.7682 0.8126 0.2205
H17F H 0.1874 0.7682 0.2205
H17H H 0.1874 0.7682 -0.2205
H17I H 0.2318 0.1874 -0.2205
H17B H 0.2318 0.1874 0.2205
C33N C 0.8040(10) 0.2032(11) -0.1856(13)
C33J C 0.7968(11) 0.8040(10) -0.1856(13)
C33A C 0.7968(11) 0.8040(10) 0.1856(13)
C33F C 0.1960(10) 0.7968(11) 0.1856(13)
C33H C 0.1960(10) 0.7968(11) -0.1856(13)
C33I C 0.2032(11) 0.1960(10) -0.1856(13)
C33B C 0.2032(11) 0.1960(10) 0.1856(13)
H18N H 0.8196 0.1885 -0.1885
H18J H 0.8115 0.8196 -0.1885
H18A H 0.8115 0.8196 0.1885
H18F H 0.1804 0.8115 0.1885
H18H H 0.1804 0.8115 -0.1885
H18I H 0.1885 0.1804 -0.1885
H18B H 0.1885 0.1804 0.1885
C34N C 0.7819(11) 0.2042(11) -0.1608(11)
C34J C 0.7958(11) 0.7819(11) -0.1608(11)
C34A C 0.7958(11) 0.7819(11) 0.1608(11)
C34F C 0.2181(11) 0.7958(11) 0.1608(11)
C34H C 0.2181(11) 0.7958(11) -0.1608(11)
C34I C 0.2042(11) 0.2181(11) -0.1608(11)
C34B C 0.2042(11) 0.2181(11) 0.1608(11)
H19N H 0.7824 0.1884 -0.1457
H19J H 0.8116 0.7824 -0.1457
H19A H 0.8116 0.7824 0.1457
H19F H 0.2176 0.8116 0.1457
H19H H 0.2176 0.8116 -0.1457
H19I H 0.1884 0.2176 -0.1457
H19B H 0.1884 0.2176 0.1457
C35N C 0.7042(12) 0.2702(10) -0.1881(12)
C35J C 0.7298(10) 0.7042(12) -0.1881(12)
C35A C 0.7298(10) 0.7042(12) 0.1881(12)
C35F C 0.2958(12) 0.7298(10) 0.1881(12)
C35H C 0.2958(12) 0.7298(10) -0.1881(12)
C35I C 0.2702(10) 0.2958(12) -0.1881(12)
C35B C 0.2702(10) 0.2958(12) 0.1881(12)
O1N O 0.7374(8) 0.2693(7) -0.1734(6)
O1J O 0.7307(7) 0.7374(8) -0.1734(6)
O1A O 0.7307(7) 0.7374(8) 0.1734(6)
O1F O 0.2626(8) 0.7307(7) 0.1734(6)
O1H O 0.2626(8) 0.7307(7) -0.1734(6)
O1I O 0.2693(7) 0.2626(8) -0.1734(6)
O1B O 0.2693(7) 0.2626(8) 0.1734(6)
O2I O 0.4925(10) 0.1626(10) -0.1641(9)
O2N O 0.8374(10) 0.4925(10) -0.1641(9)
O2A O 0.5075(10) 0.8374(10) 0.1641(9)
O2J O 0.5075(10) 0.8374(10) -0.1641(9)
O2H O 0.1626(10) 0.5075(10) -0.1641(9)
O2F O 0.1626(10) 0.5075(10) 0.1641(9)
O2B O 0.4925(10) 0.1626(10) 0.1641(9)
C36I C 0.5153(13) 0.1706(11) -0.1783(12)
C36N C 0.8294(11) 0.5153(13) -0.1783(12)
C36A C 0.4847(13) 0.8294(11) 0.1783(12)
C36J C 0.4847(13) 0.8294(11) -0.1783(12)
C36H C 0.1706(11) 0.4847(13) -0.1783(12)
C36F C 0.1706(11) 0.4847(13) 0.1783(12)
C36B C 0.5153(13) 0.1706(11) 0.1783(12)
N5I N 0.4242(8) 0.2146(9) -0.3073(7)
N5N N 0.7854(9) 0.4242(8) -0.3073(7)
N5A N 0.5758(8) 0.7854(9) 0.3073(7)
N5J N 0.5758(8) 0.7854(9) -0.3073(7)
N5H N 0.2146(9) 0.5758(8) -0.3073(7)
N5F N 0.2146(9) 0.5758(8) 0.3073(7)
N5B N 0.4242(8) 0.2146(9) 0.3073(7)
C38I C 0.4239(9) 0.1832(9) -0.3085(8)
C38N C 0.8168(9) 0.4239(9) -0.3085(8)
C38A C 0.5761(9) 0.8168(9) 0.3085(8)
C38J C 0.5761(9) 0.8168(9) -0.3085(8)
C38H C 0.1832(9) 0.5761(9) -0.3085(8)
C38F C 0.1832(9) 0.5761(9) 0.3085(8)
C38B C 0.4239(9) 0.1832(9) 0.3085(8)
H20N H 0.8265 0.4166 -0.3270
H20A H 0.5834 0.8265 0.3270
H20H H 0.1735 0.5834 -0.3270
H20B H 0.4166 0.1735 0.3270
H20F H 0.1735 0.5834 0.3270
H20J H 0.5834 0.8265 -0.3270
H20I H 0.4166 0.1735 -0.3270
C39I C 0.4338(10) 0.1654(7) -0.2837(10)
C39N C 0.8346(7) 0.4338(10) -0.2837(10)
C39A C 0.5662(10) 0.8346(7) 0.2837(10)
C39J C 0.5662(10) 0.8346(7) -0.2837(10)
C39H C 0.1654(7) 0.5662(10) -0.2837(10)
C39F C 0.1654(7) 0.5662(10) 0.2837(10)
C39B C 0.4338(10) 0.1654(7) 0.2837(10)
H21N H 0.8560 0.4305 -0.2835
H21A H 0.5695 0.8560 0.2835
H21H H 0.1440 0.5695 -0.2835
H21B H 0.4305 0.1440 0.2835
H21F H 0.1440 0.5695 0.2835
H21J H 0.5695 0.8560 -0.2835
H21I H 0.4305 0.1440 -0.2835
C40I C 0.4489(10) 0.1800(8) -0.2590(8)
C40N C 0.8200(8) 0.4489(10) -0.2590(8)
C40A C 0.5511(10) 0.8200(8) 0.2590(8)
C40J C 0.5511(10) 0.8200(8) -0.2590(8)
C40H C 0.1800(8) 0.5511(10) -0.2590(8)
C40F C 0.1800(8) 0.5511(10) 0.2590(8)
C40B C 0.4489(10) 0.1800(8) 0.2590(8)
C41N C 0.7889(8) 0.4505(9) -0.2586(8)
C41A C 0.5495(9) 0.7889(8) 0.2586(8)
C41H C 0.2111(8) 0.5495(9) -0.2586(8)
C41B C 0.4505(9) 0.2111(8) 0.2586(8)
C41F C 0.2111(8) 0.5495(9) 0.2586(8)
C41J C 0.5495(9) 0.7889(8) -0.2586(8)
C41I C 0.4505(9) 0.2111(8) -0.2586(8)
H22N H 0.7792 0.4599 -0.2412
H22A H 0.5401 0.7792 0.2412
H22H H 0.2208 0.5401 -0.2412
H22B H 0.4599 0.2208 0.2412
H22F H 0.2208 0.5401 0.2412
H22J H 0.5401 0.7792 -0.2412
H22I H 0.4599 0.2208 -0.2412
C42N C 0.7708(7) 0.4390(11) -0.2826(10)
C42A C 0.5610(11) 0.7708(7) 0.2826(10)
C42H C 0.2292(7) 0.5610(11) -0.2826(10)
C42B C 0.4390(11) 0.2292(7) 0.2826(10)
C42F C 0.2292(7) 0.5610(11) 0.2826(10)
C42J C 0.5610(11) 0.7708(7) -0.2826(10)
C42I C 0.4390(11) 0.2292(7) -0.2826(10)
H23N H 0.7493 0.4412 -0.2821
H23A H 0.5588 0.7493 0.2821
H23H H 0.2507 0.5588 -0.2821
H23B H 0.4412 0.2507 0.2821
H23F H 0.2507 0.5588 0.2821
H23J H 0.5588 0.7493 -0.2821
H23I H 0.4412 0.2507 -0.2821
C43I C 0.4613(12) 0.1602(10) -0.2338(10)
C43N C 0.8398(10) 0.4613(12) -0.2338(10)
C43A C 0.5387(12) 0.8398(10) 0.2338(10)
C43J C 0.5387(12) 0.8398(10) -0.2338(10)
C43H C 0.1602(10) 0.5387(12) -0.2338(10)
C43F C 0.1602(10) 0.5387(12) 0.2338(10)
C43B C 0.4613(12) 0.1602(10) 0.2338(10)
C44I C 0.4682(14) 0.1378(11) -0.2222(14)
C44N C 0.8622(11) 0.4682(14) -0.2222(14)
C44A C 0.5318(14) 0.8622(11) 0.2222(14)
C44J C 0.5318(14) 0.8622(11) -0.2222(14)
C44H C 0.1378(11) 0.5318(14) -0.2222(14)
C44F C 0.1378(11) 0.5318(14) 0.2222(14)
C44B C 0.4682(14) 0.1378(11) 0.2222(14)
N6B N 0.4413(8) 0.2533(12) 0.3631(11)
N6H N 0.2533(12) 0.5587(8) -0.3631(11)
N6A N 0.5587(8) 0.7467(12) 0.3631(11)
N6N N 0.7467(12) 0.4413(8) -0.3631(11)
N6I N 0.4413(8) 0.2533(12) -0.3631(11)
N6J N 0.5587(8) 0.7467(12) -0.3631(11)
N6F N 0.2533(12) 0.5587(8) 0.3631(11)
C45B C 0.4485(10) 0.2331(9) 0.3871(12)
C45H C 0.2331(9) 0.5515(10) -0.3871(12)
C45A C 0.5515(10) 0.7669(9) 0.3871(12)
C45N C 0.7669(9) 0.4485(10) -0.3871(12)
C45I C 0.4485(10) 0.2331(9) -0.3871(12)
C45J C 0.5515(10) 0.7669(9) -0.3871(12)
C45F C 0.2331(9) 0.5515(10) 0.3871(12)
H24I H 0.4342 0.2181 -0.3935
H24J H 0.5658 0.7819 -0.3935
H24F H 0.2181 0.5658 0.3935
H24N H 0.7819 0.4342 -0.3935
H24A H 0.5658 0.7819 0.3935
H24H H 0.2181 0.5658 -0.3935
H24B H 0.4342 0.2181 0.3935
C46B C 0.4767(13) 0.2348(10) 0.4018(9)
C46H C 0.2348(10) 0.5233(13) -0.4018(9)
C46A C 0.5233(13) 0.7652(10) 0.4018(9)
C46N C 0.7652(10) 0.4767(13) -0.4018(9)
C46I C 0.4767(13) 0.2348(10) -0.4018(9)
C46J C 0.5233(13) 0.7652(10) -0.4018(9)
C46F C 0.2348(10) 0.5233(13) 0.4018(9)
H25I H 0.4817 0.2210 -0.4182
H25J H 0.5183 0.7790 -0.4182
H25F H 0.2210 0.5183 0.4182
H25N H 0.7790 0.4817 -0.4182
H25A H 0.5183 0.7790 0.4182
H25H H 0.2210 0.5183 -0.4182
H25B H 0.4817 0.2210 0.4182
C47B C 0.4977(8) 0.2566(12) 0.3924(11)
C47H C 0.2566(12) 0.5023(8) -0.3924(11)
C47A C 0.5023(8) 0.7434(12) 0.3924(11)
C47N C 0.7434(12) 0.4977(8) -0.3924(11)
C47I C 0.4977(8) 0.2566(12) -0.3924(11)
C47J C 0.5023(8) 0.7434(12) -0.3924(11)
C47F C 0.2566(12) 0.5023(8) 0.3924(11)
C48I C 0.4904(10) 0.2768(8) -0.3684(11)
C48J C 0.5096(10) 0.7232(8) -0.3684(11)
C48F C 0.2768(8) 0.5096(10) 0.3684(11)
C48N C 0.7232(8) 0.4904(10) -0.3684(11)
C48A C 0.5096(10) 0.7232(8) 0.3684(11)
C48H C 0.2768(8) 0.5096(10) -0.3684(11)
C48B C 0.4904(10) 0.2768(8) 0.3684(11)
H26I H 0.5047 0.2918 -0.3620
H26J H 0.4953 0.7082 -0.3620
H26F H 0.2918 0.4953 0.3620
H26N H 0.7082 0.5047 -0.3620
H26A H 0.4953 0.7082 0.3620
H26H H 0.2918 0.4953 -0.3620
H26B H 0.5047 0.2918 0.3620
C49I C 0.4622(12) 0.2751(9) -0.3538(8)
C49J C 0.5378(12) 0.7249(9) -0.3538(8)
C49F C 0.2751(9) 0.5378(12) 0.3538(8)
C49N C 0.7249(9) 0.4622(12) -0.3538(8)
C49A C 0.5378(12) 0.7249(9) 0.3538(8)
C49H C 0.2751(9) 0.5378(12) -0.3538(8)
C49B C 0.4622(12) 0.2751(9) 0.3538(8)
H27I H 0.4572 0.2889 -0.3374
H27J H 0.5428 0.7111 -0.3374
H27F H 0.2889 0.5428 0.3374
H27N H 0.7111 0.4572 -0.3374
H27A H 0.5428 0.7111 0.3374
H27H H 0.2889 0.5428 -0.3374
H27B H 0.4572 0.2889 0.3374
C50B C 0.5290(15) 0.2535(17) 0.406(3)
C50H C 0.2535(17) 0.4710(15) -0.406(3)
C50A C 0.4710(15) 0.7465(17) 0.406(3)
C50N C 0.7465(17) 0.5290(15) -0.406(3)
C50I C 0.5290(15) 0.2535(17) -0.406(3)
C50J C 0.4710(15) 0.7465(17) -0.406(3)
C50F C 0.2535(17) 0.4710(15) 0.406(3)
C51B C 0.5496(15) 0.2399(16) 0.414(2)
C51H C 0.2399(16) 0.4504(15) -0.414(2)
C51A C 0.4504(15) 0.7601(16) 0.414(2)
C51N C 0.7601(16) 0.5496(15) -0.414(2)
C51I C 0.5496(15) 0.2399(16) -0.414(2)
C51J C 0.4504(15) 0.7601(16) -0.414(2)
C51F C 0.2399(16) 0.4504(15) 0.414(2)
C52B C 0.5822(13) 0.241(3) 0.430(2)
C52H C 0.241(3) 0.4178(13) -0.430(2)
C52A C 0.4178(13) 0.759(3) 0.430(2)
C52N C 0.759(3) 0.5822(13) -0.430(2)
C52I C 0.5822(13) 0.241(3) -0.430(2)
C52J C 0.4178(13) 0.759(3) -0.430(2)
C52F C 0.241(3) 0.4178(13) 0.430(2)
C53B C 0.599(2) 0.267(2) 0.4214(14)
C53H C 0.267(2) 0.401(2) -0.4214(14)
C53A C 0.401(2) 0.733(2) 0.4214(14)
C53N C 0.733(2) 0.599(2) -0.4214(14)
C53I C 0.599(2) 0.267(2) -0.4214(14)
C53J C 0.401(2) 0.733(2) -0.4214(14)
C53F C 0.267(2) 0.401(2) 0.4214(14)
C54I C 0.270(2) 0.3710(15) -0.4310(18)
C54F C 0.3710(15) 0.730(2) 0.4310(18)
C54J C 0.730(2) 0.6290(15) -0.4310(18)
C54N C 0.6290(15) 0.270(2) -0.4310(18)
C54A C 0.730(2) 0.6290(15) 0.4310(18)
C54H C 0.3710(15) 0.730(2) -0.4310(18)
C54B C 0.270(2) 0.3710(15) 0.4310(18)
C55B C 0.2480(13) 0.358(2) 0.4490(17)
C55H C 0.358(2) 0.7520(13) -0.4490(17)
C55A C 0.7520(13) 0.642(2) 0.4490(17)
C55N C 0.642(2) 0.2480(13) -0.4490(17)
C55J C 0.7520(13) 0.642(2) -0.4490(17)
C55F C 0.358(2) 0.7520(13) 0.4490(17)
C55I C 0.2480(13) 0.358(2) -0.4490(17)
H28B H 0.2499 0.3372 0.4556
H28H H 0.3372 0.7501 -0.4556
H28A H 0.7501 0.6628 0.4556
H28N H 0.6628 0.2499 -0.4556
H28J H 0.7501 0.6628 -0.4556
H28F H 0.3372 0.7501 0.4556
H28I H 0.2499 0.3372 -0.4556
C56B C 0.222(3) 0.3740(18) 0.4575(17)
C56H C 0.3740(18) 0.778(3) -0.4575(17)
C56A C 0.778(3) 0.6260(18) 0.4575(17)
C56N C 0.6260(18) 0.222(3) -0.4575(17)
C56J C 0.778(3) 0.6260(18) -0.4575(17)
C56F C 0.3740(18) 0.778(3) 0.4575(17)
C56I C 0.222(3) 0.3740(18) -0.4575(17)
H29B H 0.2065 0.3648 0.4698
H29H H 0.3648 0.7935 -0.4698
H29A H 0.7935 0.6352 0.4698
H29N H 0.6352 0.2065 -0.4698
H29J H 0.7935 0.6352 -0.4698
H29F H 0.3648 0.7935 0.4698
H29I H 0.2065 0.3648 -0.4698
C57F C 0.219(2) 0.404(2) 0.448(2)
C57J C 0.404(2) 0.781(2) -0.448(2)
C57I C 0.596(2) 0.219(2) -0.448(2)
C57N C 0.781(2) 0.596(2) -0.448(2)
C57A C 0.404(2) 0.781(2) 0.448(2)
C57H C 0.219(2) 0.404(2) -0.448(2)
C57B C 0.596(2) 0.219(2) 0.448(2)
H30F H 0.2011 0.4154 0.4537
H30J H 0.4154 0.7989 -0.4537
H30I H 0.5846 0.2011 -0.4537
H30N H 0.7989 0.5846 -0.4537
H30A H 0.4154 0.7989 0.4537
H30H H 0.2011 0.4154 -0.4537
H30B H 0.5846 0.2011 0.4537
O3F O 0.2973(16) 0.4101(13) 0.4092(13)
O3J O 0.4101(13) 0.7027(16) -0.4092(13)
O3I O 0.5899(13) 0.2973(16) -0.4092(13)
O3N O 0.7027(16) 0.5899(13) -0.4092(13)
O3A O 0.4101(13) 0.7027(16) 0.4092(13)
O3H O 0.2973(16) 0.4101(13) -0.4092(13)
O3B O 0.5899(13) 0.2973(16) 0.4092(13)
C58F C 0.328(2) 0.4200(16) 0.4084(17)
C58J C 0.4200(16) 0.672(2) -0.4084(17)
C58I C 0.5800(16) 0.328(2) -0.4084(17)
C58N C 0.672(2) 0.5800(16) -0.4084(17)
C58A C 0.4200(16) 0.672(2) 0.4084(17)
C58H C 0.328(2) 0.4200(16) -0.4084(17)
C58B C 0.5800(16) 0.328(2) 0.4084(17)
C59I C 0.4844(10) 0.1230(14) -0.1941(10)
C59N C 0.8770(14) 0.4844(10) -0.1941(10)
C59A C 0.5156(10) 0.8770(14) 0.1941(10)
C59J C 0.5156(10) 0.8770(14) -0.1941(10)
C59H C 0.1230(14) 0.5156(10) -0.1941(10)
C59F C 0.1230(14) 0.5156(10) 0.1941(10)
C59B C 0.4844(10) 0.1230(14) 0.1941(10)
C60I C 0.5028(11) 0.1340(8) -0.1701(14)
C60N C 0.8660(8) 0.5028(11) -0.1701(14)
C60A C 0.4972(11) 0.8660(8) 0.1701(14)
C60J C 0.4972(11) 0.8660(8) -0.1701(14)
C60H C 0.1340(8) 0.4972(11) -0.1701(14)
C60F C 0.1340(8) 0.4972(11) 0.1701(14)
C60B C 0.5028(11) 0.1340(8) 0.1701(14)
C61A C 0.8859(7) 0.5146(16) -0.1478(9)
C61J C 0.8859(7) 0.5146(16) 0.1478(9)
C61H C 0.4854(16) 0.8859(7) 0.1478(9)
C61F C 0.4854(16) 0.8859(7) -0.1478(9)
C61B C 0.1141(7) 0.4854(16) -0.1478(9)
C61I C 0.1141(7) 0.4854(16) 0.1478(9)
C61N C 0.5146(16) 0.1141(7) 0.1478(9)
C62N C 0.5079(14) 0.0832(10) 0.1494(10)
C62I C 0.0832(10) 0.4921(14) 0.1494(10)
C62B C 0.0832(10) 0.4921(14) -0.1494(10)
C62F C 0.4921(14) 0.9168(10) -0.1494(10)
C62H C 0.4921(14) 0.9168(10) 0.1494(10)
C62J C 0.9168(10) 0.5079(14) 0.1494(10)
C62A C 0.9168(10) 0.5079(14) -0.1494(10)
H31N H 0.5160 0.0697 0.1342
H31I H 0.0697 0.4840 0.1342
H31B H 0.0697 0.4840 -0.1342
H31F H 0.4840 0.9303 -0.1342
H31H H 0.4840 0.9303 0.1342
H31J H 0.9303 0.5160 0.1342
H31A H 0.9303 0.5160 -0.1342
C63N C 0.4895(8) 0.0722(12) 0.1734(15)
C63I C 0.0722(12) 0.5105(8) 0.1734(15)
C63B C 0.0722(12) 0.5105(8) -0.1734(15)
C63F C 0.5105(8) 0.9278(12) -0.1734(15)
C63H C 0.5105(8) 0.9278(12) 0.1734(15)
C63J C 0.9278(12) 0.4895(8) 0.1734(15)
C63A C 0.9278(12) 0.4895(8) -0.1734(15)
H32N H 0.4850 0.0511 0.1746
H32I H 0.0511 0.5150 0.1746
H32B H 0.0511 0.5150 -0.1746
H32F H 0.5150 0.9489 -0.1746
H32H H 0.5150 0.9489 0.1746
H32J H 0.9489 0.4850 0.1746
H32A H 0.9489 0.4850 -0.1746
C64B C 0.4777(8) 0.0921(16) 0.1958(10)
C64F C 0.0921(16) 0.5223(8) 0.1958(10)
C64H C 0.0921(16) 0.5223(8) -0.1958(10)
C64J C 0.5223(8) 0.9079(16) -0.1958(10)
C64A C 0.5223(8) 0.9079(16) 0.1958(10)
C64N C 0.9079(16) 0.4777(8) -0.1958(10)
C64I C 0.4777(8) 0.0921(16) -0.1958(10)
H33B H 0.4651 0.0846 0.2122
H33F H 0.0846 0.5349 0.2122
H33H H 0.0846 0.5349 -0.2122
H33J H 0.5349 0.9154 -0.2122
H33A H 0.5349 0.9154 0.2122
H33N H 0.9154 0.4651 -0.2122
H33I H 0.4651 0.0846 -0.2122
C37? C 0.9774(19) 0.5744(19) 0.208(2)
N7? N 0.4164(19) 0.3418(15) -0.2759(16)
O4? O 0.4363(18) 0.3362(18) -0.4221(19)
O5? O 0.4254(11) 0.2998(12) -0.2955(11)
O6? O 0.4422(12) 0.3277(12) -0.2762(11)
N8? N 0.0892(6) 0.3243(5) 0.0000
O7? O 0.0734(11) 0.3406(10) -0.0244(11)
O8? O 0.1167(8) 0.3401(7) 0.0000
N9? N 0.2437(16) 0.3976(15) 0.0000
O9? O 0.2747(11) 0.4111(11) 0.0000
O10? O 0.264(3) 0.387(3) 0.0000
C65? C 0.513(3) 0.177(3) 0.0000
C66? C 0.574(3) 0.066(2) 0.0000
C67? C 0.710(4) 0.259(5) 0.0000
C68? C 0.692(2) 0.291(2) 0.0000
C69? C 0.311(2) 0.125(2) -0.370(2)
C70? C 0.286(4) 0.131(4) -0.362(5)
C71? C 0.310(2) 0.150(2) -0.348(2)
C72? C 0.3408(16) 0.1117(15) -0.3458(17)
C73? C 0.3550(19) 0.132(2) -0.328(2)
C74? C 0.6329(14) 0.2270(13) 0.2351(15)
C75? C 0.7422(19) 0.4011(19) 0.202(2)
C76? C 0.748(3) 0.215(3) 0.0000
C77? C 0.9185(19) 0.3983(19) 0.266(2)
C78? C 0.8091(15) 0.5137(15) 0.3249(17)
C79? C 0.1293(11) 0.2480(11) 0.0184(11)
C80? C 0.6594(18) 0.3371(17) 0.2555(19)
C81? C 0.6505(18) 0.364(2) 0.289(2)
C82? C 0.627(3) 0.332(3) 0.298(3)
C83? C 0.782(2) 0.491(2) 0.5000
C84? C 0.6724(15) 0.3508(14) 0.1420(15)
C85? C 0.6395(17) 0.3325(16) 0.1611(17)
loop_
_geom_bond_atom_site_label_1
_geom_bond_atom_site_label_2
_geom_bond_site_symmetry_1
_geom_bond_site_symmetry_2
Pd1 N1 1_555 1_555
Pd2 N3 1_555 1_555
N1 C1 1_555 1_555
C1 H1 1_555 1_555
C2 C1 1_555 1_555
H2 C2 1_555 1_555
C3 C2 1_555 1_555
C4 C3 1_555 1_555
H3 C4 1_555 1_555
C5 N1 1_555 1_555
H4 C5 1_555 1_555
C6 C3 1_555 1_555
C7 C6 1_555 1_555
N2 Pd1 1_555 1_555
C8 N2 1_555 1_555
H5 C8 1_555 1_555
C9 C8 1_555 1_555
H6 C9 1_555 1_555
C10 C9 1_555 1_555
C11 C10 1_555 1_555
H7 C11 1_555 1_555
C12 N2 1_555 1_555
H8 C12 1_555 1_555
C13 C10 1_555 1_555
C14 C13 1_555 1_555
N3 C15 1_555 1_555
C15 H9 1_555 1_555
C16 C15 1_555 1_555
H10 C16 1_555 1_555
C17 C16 1_555 1_555
C18 C17 1_555 1_555
H11 C18 1_555 1_555
C19 N3 1_555 1_555
H12 C19 1_555 1_555
C20 C17 1_555 1_555
C21 C20 1_555 1_555
N4 Pd2 1_555 1_555
C22 N4 1_555 1_555
H13 C22 1_555 1_555
C23 C22 1_555 1_555
H14 C23 1_555 1_555
C24 C23 1_555 1_555
C25 C24 1_555 1_555
H15 C25 1_555 1_555
C26 N4 1_555 1_555
H16 C26 1_555 1_555
C27 C24 1_555 1_555
C28 C27 1_555 1_555
C29 C7 1_555 1_555
C30 C29 1_555 1_555
C31 C21 1_555 1_555
C32 C31 1_555 1_555
H17 C32 1_555 1_555
C33 C32 1_555 1_555
H18 C33 1_555 1_555
C34 C29 1_555 1_555
H19 C34 1_555 1_555
C35 O1 1_555 1_555
O1 C30 1_555 1_555
O2 C36 1_555 1_555
N5 Pd2 1_555 1_555
C38 N5 1_555 1_555
H20 C38 1_555 1_555
C39 C38 1_555 1_555
H21 C39 1_555 1_555
C40 C39 1_555 1_555
C41 C40 1_555 1_555
H22 C41 1_555 1_555
C42 N5 1_555 1_555
H23 C42 1_555 1_555
C43 C40 1_555 1_555
C44 C43 1_555 1_555
N6 Pd2 1_555 1_555
C45 N6 1_555 1_555
H24 C45 1_555 1_555
C46 C45 1_555 1_555
H25 C46 1_555 1_555
C47 C46 1_555 1_555
C48 C47 1_555 1_555
H26 C48 1_555 1_555
C49 N6 1_555 1_555
H27 C49 1_555 1_555
C50 C47 1_555 1_555
C51 C50 1_555 1_555
C52 C51 1_555 1_555
C53 C52 1_555 1_555
C54 C28 1_555 1_555
C55 C54 1_555 1_555
H28 C55 1_555 1_555
C56 C55 1_555 1_555
H29 C56 1_555 1_555
C57 C52 1_555 1_555
H30 C57 1_555 1_555
O3 C53 1_555 1_555
C58 O3 1_555 1_555
C59 C44 1_555 1_555
C60 O2 1_555 1_555
C61 C14 1_555 1_555
C62 C61 1_555 1_555
H31 C62 1_555 1_555
C63 C62 1_555 1_555
H32 C63 1_555 1_555
C64 C59 1_555 1_555
H33 C64 1_555 1_555
N10 O11 1_555 1_555
O12 N10 1_555 1_555
O13 N10 1_555 1_555
Pd1B N1B 1_555 1_555
Pd1H N1H 1_555 1_555
Pd1A N1A 1_555 1_555
Pd2B N3B 1_555 1_555
Pd2I N3I 1_555 1_555
Pd2H N3H 1_555 1_555
Pd2F N3F 1_555 1_555
Pd2A N3A 1_555 1_555
Pd2J N3J 1_555 1_555
Pd2N N3N 1_555 1_555
N1B C1B 1_555 1_555
N1I Pd1B 1_555 1_555
N1H C1H 1_555 1_555
N1F Pd1H 1_555 1_555
N1A C1A 1_555 1_555
N1J Pd1A 1_555 1_555
N1N Pd1 1_555 1_555
C1B H1B 1_555 1_555
C1I N1I 1_555 1_555
C1H H1H 1_555 1_555
C1F N1F 1_555 1_555
C1A H1A 1_555 1_555
C1J N1J 1_555 1_555
C1N N1N 1_555 1_555
H1I C1I 1_555 1_555
H1F C1F 1_555 1_555
H1J C1J 1_555 1_555
H1N C1N 1_555 1_555
C2B C1B 1_555 1_555
C2I C1I 1_555 1_555
C2H C1H 1_555 1_555
C2F C1F 1_555 1_555
C2A C1A 1_555 1_555
C2J C1J 1_555 1_555
C2N C1N 1_555 1_555
H2I C2I 1_555 1_555
H2F C2F 1_555 1_555
H2J C2J 1_555 1_555
H2N C2N 1_555 1_555
H2A C2A 1_555 1_555
H2H C2H 1_555 1_555
H2B C2B 1_555 1_555
C3B C2B 1_555 1_555
C3I C2I 1_555 1_555
C3H C2H 1_555 1_555
C3F C2F 1_555 1_555
C3A C2A 1_555 1_555
C3J C2J 1_555 1_555
C3N C2N 1_555 1_555
C4I C3I 1_555 1_555
C4F C3F 1_555 1_555
C4J C3J 1_555 1_555
C4N C3N 1_555 1_555
C4A C3A 1_555 1_555
C4H C3H 1_555 1_555
C4B C3B 1_555 1_555
H3I C4I 1_555 1_555
H3F C4F 1_555 1_555
H3J C4J 1_555 1_555
H3N C4N 1_555 1_555
H3A C4A 1_555 1_555
H3H C4H 1_555 1_555
H3B C4B 1_555 1_555
C5I N1I 1_555 1_555
C5F N1F 1_555 1_555
C5J N1J 1_555 1_555
C5N N1N 1_555 1_555
C5A N1A 1_555 1_555
C5H N1H 1_555 1_555
C5B N1B 1_555 1_555
H4I C5I 1_555 1_555
H4F C5F 1_555 1_555
H4J C5J 1_555 1_555
H4N C5N 1_555 1_555
H4A C5A 1_555 1_555
H4H C5H 1_555 1_555
H4B C5B 1_555 1_555
C6B C3B 1_555 1_555
C6I C3I 1_555 1_555
C6H C3H 1_555 1_555
C6F C3F 1_555 1_555
C6A C3A 1_555 1_555
C6J C3J 1_555 1_555
C6N C3N 1_555 1_555
C7B C6B 1_555 1_555
C7I C6I 1_555 1_555
C7H C6H 1_555 1_555
C7F C6F 1_555 1_555
C7A C6A 1_555 1_555
C7J C6J 1_555 1_555
C7N C6N 1_555 1_555
N2A Pd1A 1_555 1_555
N2J Pd1A 1_555 1_555
N2H Pd1H 1_555 1_555
N2F Pd1H 1_555 1_555
N2B Pd1B 1_555 1_555
N2I Pd1B 1_555 1_555
N2N Pd1 1_555 1_555
C8A N2A 1_555 1_555
C8J N2J 1_555 1_555
C8H N2H 1_555 1_555
C8F N2F 1_555 1_555
C8B N2B 1_555 1_555
C8I N2I 1_555 1_555
C8N N2N 1_555 1_555
H5J C8J 1_555 1_555
H5F C8F 1_555 1_555
H5I C8I 1_555 1_555
H5N C8N 1_555 1_555
H5B C8B 1_555 1_555
H5H C8H 1_555 1_555
H5A C8A 1_555 1_555
C9A C8A 1_555 1_555
C9J C8J 1_555 1_555
C9H C8H 1_555 1_555
C9F C8F 1_555 1_555
C9B C8B 1_555 1_555
C9I C8I 1_555 1_555
C9N C8N 1_555 1_555
H6J C9J 1_555 1_555
H6F C9F 1_555 1_555
H6I C9I 1_555 1_555
H6N C9N 1_555 1_555
H6B C9B 1_555 1_555
H6H C9H 1_555 1_555
H6A C9A 1_555 1_555
C10A C9A 1_555 1_555
C10J C9J 1_555 1_555
C10H C9H 1_555 1_555
C10F C9F 1_555 1_555
C10B C9B 1_555 1_555
C10I C9I 1_555 1_555
C10N C9N 1_555 1_555
C11J C10J 1_555 1_555
C11F C10F 1_555 1_555
C11I C10I 1_555 1_555
C11N C10N 1_555 1_555
C11B C10B 1_555 1_555
C11H C10H 1_555 1_555
C11A C10A 1_555 1_555
H7J C11J 1_555 1_555
H7F C11F 1_555 1_555
H7I C11I 1_555 1_555
H7N C11N 1_555 1_555
H7B C11B 1_555 1_555
H7H C11H 1_555 1_555
H7A C11A 1_555 1_555
C12J N2J 1_555 1_555
C12F N2F 1_555 1_555
C12I N2I 1_555 1_555
C12N N2N 1_555 1_555
C12B N2B 1_555 1_555
C12H N2H 1_555 1_555
C12A N2A 1_555 1_555
H8J C12J 1_555 1_555
H8F C12F 1_555 1_555
H8I C12I 1_555 1_555
H8N C12N 1_555 1_555
H8B C12B 1_555 1_555
H8H C12H 1_555 1_555
H8A C12A 1_555 1_555
C13A C10A 1_555 1_555
C13J C10J 1_555 1_555
C13H C10H 1_555 1_555
C13F C10F 1_555 1_555
C13B C10B 1_555 1_555
C13I C10I 1_555 1_555
C13N C10N 1_555 1_555
C14A C13A 1_555 1_555
C14J C13J 1_555 1_555
C14H C13H 1_555 1_555
C14F C13F 1_555 1_555
C14B C13B 1_555 1_555
C14I C13I 1_555 1_555
C14N C13N 1_555 1_555
N3B C15B 1_555 1_555
N3I C15I 1_555 1_555
N3H C15H 1_555 1_555
N3F C15F 1_555 1_555
N3A C15A 1_555 1_555
N3J C15J 1_555 1_555
N3N C15N 1_555 1_555
C15B H9B 1_555 1_555
C15I H9I 1_555 1_555
C15H H9H 1_555 1_555
C15F H9F 1_555 1_555
C15A H9A 1_555 1_555
C15J H9J 1_555 1_555
C15N H9N 1_555 1_555
C16B C15B 1_555 1_555
C16I C15I 1_555 1_555
C16H C15H 1_555 1_555
C16F C15F 1_555 1_555
C16A C15A 1_555 1_555
C16J C15J 1_555 1_555
C16N C15N 1_555 1_555
H10B C16B 1_555 1_555
H10H C16H 1_555 1_555
H10A C16A 1_555 1_555
H10N C16N 1_555 1_555
H10J C16J 1_555 1_555
H10F C16F 1_555 1_555
H10I C16I 1_555 1_555
C17B C16B 1_555 1_555
C17I C16I 1_555 1_555
C17H C16H 1_555 1_555
C17F C16F 1_555 1_555
C17A C16A 1_555 1_555
C17J C16J 1_555 1_555
C17N C16N 1_555 1_555
C18B C17B 1_555 1_555
C18H C17H 1_555 1_555
C18A C17A 1_555 1_555
C18N C17N 1_555 1_555
C18J C17J 1_555 1_555
C18F C17F 1_555 1_555
C18I C17I 1_555 1_555
H11B C18B 1_555 1_555
H11H C18H 1_555 1_555
H11A C18A 1_555 1_555
H11N C18N 1_555 1_555
H11J C18J 1_555 1_555
H11F C18F 1_555 1_555
H11I C18I 1_555 1_555
C19B N3B 1_555 1_555
C19H N3H 1_555 1_555
C19A N3A 1_555 1_555
C19N N3N 1_555 1_555
C19J N3J 1_555 1_555
C19F N3F 1_555 1_555
C19I N3I 1_555 1_555
H12B C19B 1_555 1_555
H12H C19H 1_555 1_555
H12A C19A 1_555 1_555
H12N C19N 1_555 1_555
H12J C19J 1_555 1_555
H12F C19F 1_555 1_555
H12I C19I 1_555 1_555
C20B C17B 1_555 1_555
C20I C17I 1_555 1_555
C20H C17H 1_555 1_555
C20F C17F 1_555 1_555
C20A C17A 1_555 1_555
C20J C17J 1_555 1_555
C20N C17N 1_555 1_555
C21B C20B 1_555 1_555
C21I C20I 1_555 1_555
C21H C20H 1_555 1_555
C21F C20F 1_555 1_555
C21A C20A 1_555 1_555
C21J C20J 1_555 1_555
C21N C20N 1_555 1_555
N4I Pd2I 1_555 1_555
N4F Pd2F 1_555 1_555
N4J Pd2J 1_555 1_555
N4N Pd2N 1_555 1_555
N4A Pd2A 1_555 1_555
N4H Pd2H 1_555 1_555
N4B Pd2B 1_555 1_555
C22I N4I 1_555 1_555
C22F N4F 1_555 1_555
C22J N4J 1_555 1_555
C22N N4N 1_555 1_555
C22A N4A 1_555 1_555
C22H N4H 1_555 1_555
C22B N4B 1_555 1_555
H13I C22I 1_555 1_555
H13F C22F 1_555 1_555
H13J C22J 1_555 1_555
H13B C22B 1_555 1_555
H13H C22H 1_555 1_555
H13A C22A 1_555 1_555
H13N C22N 1_555 1_555
C23I C22I 1_555 1_555
C23F C22F 1_555 1_555
C23J C22J 1_555 1_555
C23N C22N 1_555 1_555
C23A C22A 1_555 1_555
C23H C22H 1_555 1_555
C23B C22B 1_555 1_555
H14I C23I 1_555 1_555
H14F C23F 1_555 1_555
H14J C23J 1_555 1_555
H14B C23B 1_555 1_555
H14H C23H 1_555 1_555
H14A C23A 1_555 1_555
H14N C23N 1_555 1_555
C24I C23I 1_555 1_555
C24F C23F 1_555 1_555
C24J C23J 1_555 1_555
C24N C23N 1_555 1_555
C24A C23A 1_555 1_555
C24H C23H 1_555 1_555
C24B C23B 1_555 1_555
C25I C24I 1_555 1_555
C25F C24F 1_555 1_555
C25J C24J 1_555 1_555
C25B C24B 1_555 1_555
C25H C24H 1_555 1_555
C25A C24A 1_555 1_555
C25N C24N 1_555 1_555
H15I C25I 1_555 1_555
H15F C25F 1_555 1_555
H15J C25J 1_555 1_555
H15B C25B 1_555 1_555
H15H C25H 1_555 1_555
H15A C25A 1_555 1_555
H15N C25N 1_555 1_555
C26I N4I 1_555 1_555
C26F N4F 1_555 1_555
C26J N4J 1_555 1_555
C26B N4B 1_555 1_555
C26H N4H 1_555 1_555
C26A N4A 1_555 1_555
C26N N4N 1_555 1_555
H16I C26I 1_555 1_555
H16F C26F 1_555 1_555
H16J C26J 1_555 1_555
H16B C26B 1_555 1_555
H16H C26H 1_555 1_555
H16A C26A 1_555 1_555
H16N C26N 1_555 1_555
C27I C24I 1_555 1_555
C27F C24F 1_555 1_555
C27J C24J 1_555 1_555
C27N C24N 1_555 1_555
C27A C24A 1_555 1_555
C27H C24H 1_555 1_555
C27B C24B 1_555 1_555
C28I C27I 1_555 1_555
C28F C27F 1_555 1_555
C28J C27J 1_555 1_555
C28N C27N 1_555 1_555
C28A C27A 1_555 1_555
C28H C27H 1_555 1_555
C28B C27B 1_555 1_555
C29B C7B 1_555 1_555
C29I C7I 1_555 1_555
C29H C7H 1_555 1_555
C29F C7F 1_555 1_555
C29A C7A 1_555 1_555
C29J C7J 1_555 1_555
C29N C7N 1_555 1_555
C30B C29B 1_555 1_555
C30I C29I 1_555 1_555
C30H C29H 1_555 1_555
C30F C29F 1_555 1_555
C30A C29A 1_555 1_555
C30J C29J 1_555 1_555
C30N C29N 1_555 1_555
C31B C21B 1_555 1_555
C31I C21I 1_555 1_555
C31H C21H 1_555 1_555
C31F C21F 1_555 1_555
C31A C21A 1_555 1_555
C31J C21J 1_555 1_555
C31N C21N 1_555 1_555
C32N C31N 1_555 1_555
C32J C31J 1_555 1_555
C32A C31A 1_555 1_555
C32F C31F 1_555 1_555
C32H C31H 1_555 1_555
C32I C31I 1_555 1_555
C32B C31B 1_555 1_555
H17N C32N 1_555 1_555
H17J C32J 1_555 1_555
H17A C32A 1_555 1_555
H17F C32F 1_555 1_555
H17H C32H 1_555 1_555
H17I C32I 1_555 1_555
H17B C32B 1_555 1_555
C33N C32N 1_555 1_555
C33J C32J 1_555 1_555
C33A C32A 1_555 1_555
C33F C32F 1_555 1_555
C33H C32H 1_555 1_555
C33I C32I 1_555 1_555
C33B C32B 1_555 1_555
H18N C33N 1_555 1_555
H18J C33J 1_555 1_555
H18A C33A 1_555 1_555
H18F C33F 1_555 1_555
H18H C33H 1_555 1_555
H18I C33I 1_555 1_555
H18B C33B 1_555 1_555
C34N C29N 1_555 1_555
C34J C29J 1_555 1_555
C34A C29A 1_555 1_555
C34F C29F 1_555 1_555
C34H C29H 1_555 1_555
C34I C29I 1_555 1_555
C34B C29B 1_555 1_555
H19N C34N 1_555 1_555
H19J C34J 1_555 1_555
H19A C34A 1_555 1_555
H19F C34F 1_555 1_555
H19H C34H 1_555 1_555
H19I C34I 1_555 1_555
H19B C34B 1_555 1_555
C35N O1N 1_555 1_555
C35J O1J 1_555 1_555
C35A O1A 1_555 1_555
C35F O1F 1_555 1_555
C35H O1H 1_555 1_555
C35I O1I 1_555 1_555
C35B O1B 1_555 1_555
O1N C30N 1_555 1_555
O1J C30J 1_555 1_555
O1A C30A 1_555 1_555
O1F C30F 1_555 1_555
O1H C30H 1_555 1_555
O1I C30I 1_555 1_555
O1B C30B 1_555 1_555
O2I C36I 1_555 1_555
O2N C36N 1_555 1_555
O2A C36A 1_555 1_555
O2J C36J 1_555 1_555
O2H C36H 1_555 1_555
O2F C36F 1_555 1_555
O2B C36B 1_555 1_555
N5I Pd2I 1_555 1_555
N5N Pd2N 1_555 1_555
N5A Pd2A 1_555 1_555
N5J Pd2J 1_555 1_555
N5H Pd2H 1_555 1_555
N5F Pd2F 1_555 1_555
N5B Pd2B 1_555 1_555
C38I N5I 1_555 1_555
C38N N5N 1_555 1_555
C38A N5A 1_555 1_555
C38J N5J 1_555 1_555
C38H N5H 1_555 1_555
C38F N5F 1_555 1_555
C38B N5B 1_555 1_555
H20N C38N 1_555 1_555
H20A C38A 1_555 1_555
H20H C38H 1_555 1_555
H20B C38B 1_555 1_555
H20F C38F 1_555 1_555
H20J C38J 1_555 1_555
H20I C38I 1_555 1_555
C39I C38I 1_555 1_555
C39N C38N 1_555 1_555
C39A C38A 1_555 1_555
C39J C38J 1_555 1_555
C39H C38H 1_555 1_555
C39F C38F 1_555 1_555
C39B C38B 1_555 1_555
H21N C39N 1_555 1_555
H21A C39A 1_555 1_555
H21H C39H 1_555 1_555
H21B C39B 1_555 1_555
H21F C39F 1_555 1_555
H21J C39J 1_555 1_555
H21I C39I 1_555 1_555
C40I C39I 1_555 1_555
C40N C39N 1_555 1_555
C40A C39A 1_555 1_555
C40J C39J 1_555 1_555
C40H C39H 1_555 1_555
C40F C39F 1_555 1_555
C40B C39B 1_555 1_555
C41N C40N 1_555 1_555
C41A C40A 1_555 1_555
C41H C40H 1_555 1_555
C41B C40B 1_555 1_555
C41F C40F 1_555 1_555
C41J C40J 1_555 1_555
C41I C40I 1_555 1_555
H22N C41N 1_555 1_555
H22A C41A 1_555 1_555
H22H C41H 1_555 1_555
H22B C41B 1_555 1_555
H22F C41F 1_555 1_555
H22J C41J 1_555 1_555
H22I C41I 1_555 1_555
C42N N5N 1_555 1_555
C42A N5A 1_555 1_555
C42H N5H 1_555 1_555
C42B N5B 1_555 1_555
C42F N5F 1_555 1_555
C42J N5J 1_555 1_555
C42I N5I 1_555 1_555
H23N C42N 1_555 1_555
H23A C42A 1_555 1_555
H23H C42H 1_555 1_555
H23B C42B 1_555 1_555
H23F C42F 1_555 1_555
H23J C42J 1_555 1_555
H23I C42I 1_555 1_555
C43I C40I 1_555 1_555
C43N C40N 1_555 1_555
C43A C40A 1_555 1_555
C43J C40J 1_555 1_555
C43H C40H 1_555 1_555
C43F C40F 1_555 1_555
C43B C40B 1_555 1_555
C44I C43I 1_555 1_555
C44N C43N 1_555 1_555
C44A C43A 1_555 1_555
C44J C43J 1_555 1_555
C44H C43H 1_555 1_555
C44F C43F 1_555 1_555
C44B C43B 1_555 1_555
N6B Pd2B 1_555 1_555
N6H Pd2H 1_555 1_555
N6A Pd2A 1_555 1_555
N6N Pd2N 1_555 1_555
N6I Pd2I 1_555 1_555
N6J Pd2J 1_555 1_555
N6F Pd2F 1_555 1_555
C45B N6B 1_555 1_555
C45H N6H 1_555 1_555
C45A N6A 1_555 1_555
C45N N6N 1_555 1_555
C45I N6I 1_555 1_555
C45J N6J 1_555 1_555
C45F N6F 1_555 1_555
H24I C45I 1_555 1_555
H24J C45J 1_555 1_555
H24F C45F 1_555 1_555
H24N C45N 1_555 1_555
H24A C45A 1_555 1_555
H24H C45H 1_555 1_555
H24B C45B 1_555 1_555
C46B C45B 1_555 1_555
C46H C45H 1_555 1_555
C46A C45A 1_555 1_555
C46N C45N 1_555 1_555
C46I C45I 1_555 1_555
C46J C45J 1_555 1_555
C46F C45F 1_555 1_555
H25I C46I 1_555 1_555
H25J C46J 1_555 1_555
H25F C46F 1_555 1_555
H25N C46N 1_555 1_555
H25A C46A 1_555 1_555
H25H C46H 1_555 1_555
H25B C46B 1_555 1_555
C47B C46B 1_555 1_555
C47H C46H 1_555 1_555
C47A C46A 1_555 1_555
C47N C46N 1_555 1_555
C47I C46I 1_555 1_555
C47J C46J 1_555 1_555
C47F C46F 1_555 1_555
C48I C47I 1_555 1_555
C48J C47J 1_555 1_555
C48F C47F 1_555 1_555
C48N C47N 1_555 1_555
C48A C47A 1_555 1_555
C48H C47H 1_555 1_555
C48B C47B 1_555 1_555
H26I C48I 1_555 1_555
H26J C48J 1_555 1_555
H26F C48F 1_555 1_555
H26N C48N 1_555 1_555
H26A C48A 1_555 1_555
H26H C48H 1_555 1_555
H26B C48B 1_555 1_555
C49I N6I 1_555 1_555
C49J N6J 1_555 1_555
C49F N6F 1_555 1_555
C49N N6N 1_555 1_555
C49A N6A 1_555 1_555
C49H N6H 1_555 1_555
C49B N6B 1_555 1_555
H27I C49I 1_555 1_555
H27J C49J 1_555 1_555
H27F C49F 1_555 1_555
H27N C49N 1_555 1_555
H27A C49A 1_555 1_555
H27H C49H 1_555 1_555
H27B C49B 1_555 1_555
C50B C47B 1_555 1_555
C50H C47H 1_555 1_555
C50A C47A 1_555 1_555
C50N C47N 1_555 1_555
C50I C47I 1_555 1_555
C50J C47J 1_555 1_555
C50F C47F 1_555 1_555
C51B C50B 1_555 1_555
C51H C50H 1_555 1_555
C51A C50A 1_555 1_555
C51N C50N 1_555 1_555
C51I C50I 1_555 1_555
C51J C50J 1_555 1_555
C51F C50F 1_555 1_555
C52B C51B 1_555 1_555
C52H C51H 1_555 1_555
C52A C51A 1_555 1_555
C52N C51N 1_555 1_555
C52I C51I 1_555 1_555
C52J C51J 1_555 1_555
C52F C51F 1_555 1_555
C53B C54 1_555 1_555
C53H C52H 1_555 1_555
C53A C52A 1_555 1_555
C53N C52N 1_555 1_555
C53I C52I 1_555 1_555
C53J C52J 1_555 1_555
C53F C52F 1_555 1_555
C54I C28I 1_555 1_555
C54F C28F 1_555 1_555
C54J C28J 1_555 1_555
C54N C28N 1_555 1_555
C54A C53 1_555 1_555
C54H C28H 1_555 1_555
C54B C28B 1_555 1_555
C55B C54B 1_555 1_555
C55H C54H 1_555 1_555
C55A C54A 1_555 1_555
C55N C54N 1_555 1_555
C55J C54J 1_555 1_555
C55F C54F 1_555 1_555
C55I C54I 1_555 1_555
H28B C55B 1_555 1_555
H28H C55H 1_555 1_555
H28A C55A 1_555 1_555
H28N C55N 1_555 1_555
H28J C55J 1_555 1_555
H28F C55F 1_555 1_555
H28I C55I 1_555 1_555
C56B C55B 1_555 1_555
C56H C55H 1_555 1_555
C56A C57 1_555 1_555
C56N C55N 1_555 1_555
C56J C55J 1_555 1_555
C56F C55F 1_555 1_555
C56I C55I 1_555 1_555
H29B C56B 1_555 1_555
H29H C56H 1_555 1_555
H29A C56A 1_555 1_555
H29N C56N 1_555 1_555
H29J C56J 1_555 1_555
H29F C56F 1_555 1_555
H29I C56I 1_555 1_555
C57F C52F 1_555 1_555
C57J C52J 1_555 1_555
C57I C52I 1_555 1_555
C57N C52N 1_555 1_555
C57A C52A 1_555 1_555
C57H C52H 1_555 1_555
C57B C56 1_555 1_555
H30F C57F 1_555 1_555
H30J C57J 1_555 1_555
H30I C57I 1_555 1_555
H30N C57N 1_555 1_555
H30A C57A 1_555 1_555
H30H C57H 1_555 1_555
H30B C57B 1_555 1_555
O3F C53F 1_555 1_555
O3J C53J 1_555 1_555
O3I C53I 1_555 1_555
O3N C53N 1_555 1_555
O3A C53A 1_555 1_555
O3H C53H 1_555 1_555
O3B C53B 1_555 1_555
C58F O3F 1_555 1_555
C58J O3J 1_555 1_555
C58I O3I 1_555 1_555
C58N O3N 1_555 1_555
C58A O3A 1_555 1_555
C58H O3H 1_555 1_555
C58B O3B 1_555 1_555
C59I C44I 1_555 1_555
C59N C44N 1_555 1_555
C59A C44A 1_555 1_555
C59J C44J 1_555 1_555
C59H C44H 1_555 1_555
C59F C44F 1_555 1_555
C59B C44B 1_555 1_555
C60I C61 1_555 1_555
C60N O2N 1_555 1_555
C60A O2A 1_555 1_555
C60J O2J 1_555 1_555
C60H O2H 1_555 1_555
C60F O2F 1_555 1_555
C60B O2B 1_555 1_555
C61A C14A 1_555 1_555
C61J C60 1_555 1_555
C61H C14H 1_555 1_555
C61F C14F 1_555 1_555
C61B C14B 1_555 1_555
C61I C14I 1_555 1_555
C61N C14N 1_555 1_555
C62N C61N 1_555 1_555
C62I C61I 1_555 1_555
C62B C61B 1_555 1_555
C62F C61F 1_555 1_555
C62H C61H 1_555 1_555
C62J C61J 1_555 1_555
C62A C61A 1_555 1_555
H31N C62N 1_555 1_555
H31I C62I 1_555 1_555
H31B C62B 1_555 1_555
H31F C62F 1_555 1_555
H31H C62H 1_555 1_555
H31J C62J 1_555 1_555
H31A C62A 1_555 1_555
C63N C62N 1_555 1_555
C63I C62I 1_555 1_555
C63B C62B 1_555 1_555
C63F C62F 1_555 1_555
C63H C62H 1_555 1_555
C63J C64 1_555 1_555
C63A C62A 1_555 1_555
H32N C63N 1_555 1_555
H32I C63I 1_555 1_555
H32B C63B 1_555 1_555
H32F C63F 1_555 1_555
H32H C63H 1_555 1_555
H32J C63J 1_555 1_555
H32A C63A 1_555 1_555
C64B C59B 1_555 1_555
C64F C59F 1_555 1_555
C64H C59H 1_555 1_555
C64J C59J 1_555 1_555
C64A C59A 1_555 1_555
C64N C59N 1_555 1_555
C64I C63 1_555 1_555
H33B C64B 1_555 1_555
H33F C64F 1_555 1_555
H33H C64H 1_555 1_555
H33J C64J 1_555 1_555
H33A C64A 1_555 1_555
H33N C64N 1_555 1_555
H33I C64I 1_555 1_555
C4 C5 1_555 1_555
C11 C12 1_555 1_555
C18 C19 1_555 1_555
C25 C26 1_555 1_555
C30 C31 1_555 1_555
C33 C34 1_555 1_555
C41 C42 1_555 1_555
C48 C49 1_555 1_555
C59 C60 1_555 1_555
C4I C5I 1_555 1_555
C4F C5F 1_555 1_555
C4J C5J 1_555 1_555
C4N C5N 1_555 1_555
C4A C5A 1_555 1_555
C4H C5H 1_555 1_555
C4B C5B 1_555 1_555
C11J C12J 1_555 1_555
C11F C12F 1_555 1_555
C11I C12I 1_555 1_555
C11N C12N 1_555 1_555
C11B C12B 1_555 1_555
C11H C12H 1_555 1_555
C11A C12A 1_555 1_555
C14J C61J 1_555 1_555
C18B C19B 1_555 1_555
C18H C19H 1_555 1_555
C18A C19A 1_555 1_555
C18N C19N 1_555 1_555
C18J C19J 1_555 1_555
C18F C19F 1_555 1_555
C18I C19I 1_555 1_555
C25I C26I 1_555 1_555
C25F C26F 1_555 1_555
C25J C26J 1_555 1_555
C25B C26B 1_555 1_555
C25H C26H 1_555 1_555
C25A C26A 1_555 1_555
C25N C26N 1_555 1_555
C28A C54A 1_555 1_555
C30B C31B 1_555 1_555
C30I C31I 1_555 1_555
C30H C31H 1_555 1_555
C30F C31F 1_555 1_555
C30A C31A 1_555 1_555
C30J C31J 1_555 1_555
C30N C31N 1_555 1_555
C33N C34N 1_555 1_555
C33J C34J 1_555 1_555
C33A C34A 1_555 1_555
C33F C34F 1_555 1_555
C33H C34H 1_555 1_555
C33I C34I 1_555 1_555
C33B C34B 1_555 1_555
O2I C60I 1_555 1_555
C41N C42N 1_555 1_555
C41A C42A 1_555 1_555
C41H C42H 1_555 1_555
C41B C42B 1_555 1_555
C41F C42F 1_555 1_555
C41J C42J 1_555 1_555
C41I C42I 1_555 1_555
C48I C49I 1_555 1_555
C48J C49J 1_555 1_555
C48F C49F 1_555 1_555
C48N C49N 1_555 1_555
C48A C49A 1_555 1_555
C48H C49H 1_555 1_555
C48B C49B 1_555 1_555
C52B C53B 1_555 1_555
C52B C57B 1_555 1_555
C53H C54I 1_555 1_555
C53A C54F 1_555 1_555
C53N C54J 1_555 1_555
C53I C54N 1_555 1_555
C53J C54H 1_555 1_555
C53F C54B 1_555 1_555
C55A C56A 1_555 1_555
C56B C57F 1_555 1_555
C56H C57J 1_555 1_555
C56N C57I 1_555 1_555
C56J C57N 1_555 1_555
C56F C57A 1_555 1_555
C56I C57H 1_555 1_555
C59I C60I 1_555 1_555
C59I C64I 1_555 1_555
C59N C60N 1_555 1_555
C59A C60A 1_555 1_555
C59J C60J 1_555 1_555
C59H C60H 1_555 1_555
C59F C60F 1_555 1_555
C59B C60B 1_555 1_555
C60N C61A 1_555 1_555
C60A C61H 1_555 1_555
C60J C61F 1_555 1_555
C60H C61B 1_555 1_555
C60F C61I 1_555 1_555
C60B C61N 1_555 1_555
C62J C63J 1_555 1_555
C63N C64B 1_555 1_555
C63I C64F 1_555 1_555
C63B C64H 1_555 1_555
C63F C64J 1_555 1_555
C63H C64A 1_555 1_555
C63A C64N 1_555 1_555

#END
