# generated using pymatgen
data_H66Pd3C164N18O23
_symmetry_space_group_name_H-M   'P 1'
_cell_length_a   37.66549230
_cell_length_b   37.66549230
_cell_length_c   37.66549230
_cell_angle_alpha   108.57889543
_cell_angle_beta   108.57889543
_cell_angle_gamma   111.27100136
_symmetry_Int_Tables_number   1
_chemical_formula_structural   H66Pd3C164N18O23
_chemical_formula_sum   'H264 Pd12 C656 N72 O92'
_cell_volume   41104.21941445
_cell_formula_units_Z   4
loop_
 _symmetry_equiv_pos_site_id
 _symmetry_equiv_pos_as_xyz
  1  'x, y, z'
loop_
 _atom_site_type_symbol
 _atom_site_label
 _atom_site_symmetry_multiplicity
 _atom_site_fract_x
 _atom_site_fract_y
 _atom_site_fract_z
 _atom_site_occupancy
  C  C1  1  0.814600  0.217600  0.448200  1
  C  C2  1  0.366400  0.814600  0.597000  1
  C  C3  1  0.217600  0.769400  0.403000  1
  C  C4  1  0.769400  0.366400  0.551800  1
  C  C5  1  0.185400  0.782400  0.551800  1
  C  C6  1  0.633600  0.185400  0.403000  1
  C  C7  1  0.782400  0.230600  0.597000  1
  C  C8  1  0.230600  0.633600  0.448200  1
  C  C9  1  0.487000  0.823000  0.310000  1
  C  C10  1  0.177000  0.487000  0.664000  1
  C  C11  1  0.823000  0.513000  0.336000  1
  C  C12  1  0.513000  0.177000  0.690000  1
  C  C13  1  0.426000  0.934000  0.360000  1
  C  C14  1  0.066000  0.426000  0.492000  1
  C  C15  1  0.934000  0.574000  0.508000  1
  C  C16  1  0.574000  0.066000  0.640000  1
  C  C17  1  0.290000  0.741000  0.031000  1
  C  C18  1  0.259000  0.290000  0.549000  1
  C  C19  1  0.741000  0.710000  0.451000  1
  C  C20  1  0.710000  0.259000  0.969000  1
  C  C21  1  0.308000  0.709000  0.017000  1
  C  C22  1  0.291000  0.308000  0.599000  1
  C  C23  1  0.709000  0.692000  0.401000  1
  C  C24  1  0.692000  0.291000  0.983000  1
  C  C25  1  0.059000  0.245000  0.564000  1
  C  C26  1  0.495000  0.059000  0.814000  1
  C  C27  1  0.245000  0.681000  0.186000  1
  C  C28  1  0.681000  0.495000  0.436000  1
  C  C29  1  0.941000  0.755000  0.436000  1
  C  C30  1  0.505000  0.941000  0.186000  1
  C  C31  1  0.755000  0.319000  0.814000  1
  C  C32  1  0.319000  0.505000  0.564000  1
  C  C33  1  0.076000  0.231000  0.583000  1
  C  C34  1  0.493000  0.076000  0.845000  1
  C  C35  1  0.231000  0.648000  0.155000  1
  C  C36  1  0.648000  0.493000  0.417000  1
  C  C37  1  0.924000  0.769000  0.417000  1
  C  C38  1  0.507000  0.924000  0.155000  1
  C  C39  1  0.769000  0.352000  0.845000  1
  C  C40  1  0.352000  0.507000  0.583000  1
  C  C41  1  0.038000  0.198000  0.540000  1
  C  C42  1  0.498000  0.038000  0.840000  1
  C  C43  1  0.198000  0.658000  0.160000  1
  C  C44  1  0.658000  0.498000  0.460000  1
  C  C45  1  0.962000  0.802000  0.460000  1
  C  C46  1  0.502000  0.962000  0.160000  1
  C  C47  1  0.802000  0.342000  0.840000  1
  C  C48  1  0.342000  0.502000  0.540000  1
  C  C49  1  0.005000  0.234100  0.547500  1
  C  C50  1  0.457500  0.005000  0.770900  1
  C  C51  1  0.234100  0.686600  0.229100  1
  C  C52  1  0.686600  0.457500  0.452500  1
  C  C53  1  0.995000  0.765900  0.452500  1
  C  C54  1  0.542500  0.995000  0.229100  1
  C  C55  1  0.765900  0.313400  0.770900  1
  C  C56  1  0.313400  0.542500  0.547500  1
  C  C57  1  0.973000  0.196000  0.513000  1
  C  C58  1  0.460000  0.973000  0.777000  1
  C  C59  1  0.196000  0.683000  0.223000  1
  C  C60  1  0.683000  0.460000  0.487000  1
  C  C61  1  0.027000  0.804000  0.487000  1
  C  C62  1  0.540000  0.027000  0.223000  1
  C  C63  1  0.804000  0.317000  0.777000  1
  C  C64  1  0.317000  0.540000  0.513000  1
  C  C65  1  0.132000  0.537900  0.140100  1
  C  C66  1  0.991900  0.132000  0.594100  1
  C  C67  1  0.537900  0.397800  0.405900  1
  C  C68  1  0.397800  0.991900  0.859900  1
  C  C69  1  0.868000  0.462100  0.859900  1
  C  C70  1  0.008100  0.868000  0.405900  1
  C  C71  1  0.462100  0.602200  0.594100  1
  C  C72  1  0.602200  0.008100  0.140100  1
  C  C73  1  0.055800  0.396900  0.856700  1
  C  C74  1  0.199100  0.055800  0.658900  1
  C  C75  1  0.396900  0.540200  0.341100  1
  C  C76  1  0.540200  0.199100  0.143300  1
  C  C77  1  0.944200  0.603100  0.143300  1
  C  C78  1  0.800900  0.944200  0.341100  1
  C  C79  1  0.603100  0.459800  0.658900  1
  C  C80  1  0.459800  0.800900  0.856700  1
  C  C81  1  0.252000  0.785000  0.037000  1
  C  C82  1  0.215000  0.252000  0.467000  1
  C  C83  1  0.785000  0.748000  0.533000  1
  C  C84  1  0.748000  0.215000  0.963000  1
  C  C85  1  0.815500  0.335700  0.683200  1
  C  C86  1  0.132300  0.815500  0.479800  1
  C  C87  1  0.335700  0.652500  0.520200  1
  C  C88  1  0.652500  0.132300  0.316800  1
  C  C89  1  0.184500  0.664300  0.316800  1
  C  C90  1  0.867700  0.184500  0.520200  1
  C  C91  1  0.664300  0.347500  0.479800  1
  C  C92  1  0.347500  0.867700  0.683200  1
  C  C93  1  0.866000  0.161400  0.677200  1
  C  C94  1  0.188800  0.866000  0.704600  1
  C  C95  1  0.161400  0.484200  0.295400  1
  C  C96  1  0.484200  0.188800  0.322800  1
  C  C97  1  0.134000  0.838600  0.322800  1
  C  C98  1  0.811200  0.134000  0.295400  1
  C  C99  1  0.838600  0.515800  0.704600  1
  C  C100  1  0.515800  0.811200  0.677200  1
  C  C101  1  0.852300  0.733600  0.622700  1
  C  C102  1  0.229600  0.852300  0.118700  1
  C  C103  1  0.733600  0.110900  0.881300  1
  C  C104  1  0.110900  0.229600  0.377300  1
  C  C105  1  0.147700  0.266400  0.377300  1
  C  C106  1  0.770400  0.147700  0.881300  1
  C  C107  1  0.266400  0.889100  0.118700  1
  C  C108  1  0.889100  0.770400  0.622700  1
  C  C109  1  0.085100  0.407400  0.003500  1
  C  C110  1  0.081600  0.085100  0.677700  1
  C  C111  1  0.407400  0.403900  0.322300  1
  C  C112  1  0.403900  0.081600  0.996500  1
  C  C113  1  0.914900  0.592600  0.996500  1
  C  C114  1  0.918400  0.914900  0.322300  1
  C  C115  1  0.592600  0.596100  0.677700  1
  C  C116  1  0.596100  0.918400  0.003500  1
  C  C117  1  0.060500  0.347000  0.985500  1
  C  C118  1  0.075000  0.060500  0.713500  1
  C  C119  1  0.347000  0.361500  0.286500  1
  C  C120  1  0.361500  0.075000  0.014500  1
  C  C121  1  0.939500  0.653000  0.014500  1
  C  C122  1  0.925000  0.939500  0.286500  1
  C  C123  1  0.653000  0.638500  0.713500  1
  C  C124  1  0.638500  0.925000  0.985500  1
  C  C125  1  0.075000  0.370000  0.041000  1
  C  C126  1  0.034000  0.075000  0.705000  1
  C  C127  1  0.370000  0.329000  0.295000  1
  C  C128  1  0.329000  0.034000  0.959000  1
  C  C129  1  0.925000  0.630000  0.959000  1
  C  C130  1  0.966000  0.925000  0.295000  1
  C  C131  1  0.630000  0.671000  0.705000  1
  C  C132  1  0.671000  0.966000  0.041000  1
  C  C133  1  0.718000  0.009000  0.727000  1
  C  C134  1  0.991000  0.718000  0.709000  1
  C  C135  1  0.009000  0.282000  0.291000  1
  C  C136  1  0.282000  0.991000  0.273000  1
  C  C137  1  0.185600  0.507200  0.976800  1
  C  C138  1  0.208800  0.185600  0.678400  1
  C  C139  1  0.507200  0.530400  0.321600  1
  C  C140  1  0.530400  0.208800  0.023200  1
  C  C141  1  0.814400  0.492800  0.023200  1
  C  C142  1  0.791200  0.814400  0.321600  1
  C  C143  1  0.492800  0.469600  0.678400  1
  C  C144  1  0.469600  0.791200  0.976800  1
  C  C145  1  0.199400  0.506400  0.028000  1
  C  C146  1  0.171400  0.199400  0.693000  1
  C  C147  1  0.506400  0.478400  0.307000  1
  C  C148  1  0.478400  0.171400  0.972000  1
  C  C149  1  0.800600  0.493600  0.972000  1
  C  C150  1  0.828600  0.800600  0.307000  1
  C  C151  1  0.493600  0.521600  0.693000  1
  C  C152  1  0.521600  0.828600  0.028000  1
  C  C153  1  0.290000  0.727200  0.111200  1.0
  C  C154  1  0.178800  0.290000  0.562800  1.0
  C  C155  1  0.727200  0.616000  0.437200  1.0
  C  C156  1  0.616000  0.178800  0.888800  1.0
  C  C157  1  0.710000  0.272800  0.888800  1.0
  C  C158  1  0.821200  0.710000  0.437200  1.0
  C  C159  1  0.272800  0.384000  0.562800  1.0
  C  C160  1  0.384000  0.821200  0.111200  1.0
  C  C161  1  0.245800  0.695800  0.084200  1.0
  C  C162  1  0.161600  0.245800  0.550000  1.0
  C  C163  1  0.695800  0.611600  0.450000  1.0
  C  C164  1  0.611600  0.161600  0.915800  1.0
  C  C165  1  0.754200  0.304200  0.915800  1.0
  C  C166  1  0.838400  0.754200  0.450000  1.0
  C  C167  1  0.304200  0.388400  0.550000  1.0
  C  C168  1  0.388400  0.838400  0.084200  1.0
  C  C169  1  0.214500  0.706500  0.086000  1.0
  C  C170  1  0.128500  0.214500  0.508000  1.0
  C  C171  1  0.706500  0.620500  0.492000  1.0
  C  C172  1  0.620500  0.128500  0.914000  1.0
  C  C173  1  0.785500  0.293500  0.914000  1.0
  C  C174  1  0.871500  0.785500  0.492000  1.0
  C  C175  1  0.293500  0.379500  0.508000  1.0
  C  C176  1  0.379500  0.871500  0.086000  1.0
  C  C177  1  0.227500  0.748600  0.114900  1.0
  C  C178  1  0.112600  0.227500  0.478900  1.0
  C  C179  1  0.748600  0.633700  0.521100  1.0
  C  C180  1  0.633700  0.112600  0.885100  1.0
  C  C181  1  0.772500  0.251400  0.885100  1.0
  C  C182  1  0.887400  0.772500  0.521100  1.0
  C  C183  1  0.251400  0.366300  0.478900  1.0
  C  C184  1  0.366300  0.887400  0.114900  1.0
  C  C185  1  0.271700  0.780000  0.141900  1.0
  C  C186  1  0.129800  0.271700  0.491700  1.0
  C  C187  1  0.780000  0.638100  0.508300  1.0
  C  C188  1  0.638100  0.129800  0.858100  1.0
  C  C189  1  0.728300  0.220000  0.858100  1.0
  C  C190  1  0.870200  0.728300  0.508300  1.0
  C  C191  1  0.220000  0.361900  0.491700  1.0
  C  C192  1  0.361900  0.870200  0.141900  1.0
  C  C193  1  0.167900  0.670200  0.058300  1.0
  C  C194  1  0.109600  0.167900  0.497700  1.0
  C  C195  1  0.670200  0.611900  0.502300  1.0
  C  C196  1  0.611900  0.109600  0.941700  1.0
  C  C197  1  0.832100  0.329800  0.941700  1.0
  C  C198  1  0.890400  0.832100  0.502300  1.0
  C  C199  1  0.329800  0.388100  0.497700  1.0
  C  C200  1  0.388100  0.890400  0.058300  1.0
  C  C201  1  0.130700  0.651000  0.038300  1.0
  C  C202  1  0.092400  0.130700  0.479700  1.0
  C  C203  1  0.651000  0.612700  0.520300  1.0
  C  C204  1  0.612700  0.092400  0.961700  1.0
  C  C205  1  0.869300  0.349000  0.961700  1.0
  C  C206  1  0.907600  0.869300  0.520300  1.0
  C  C207  1  0.349000  0.387300  0.479700  1.0
  C  C208  1  0.387300  0.907600  0.038300  1.0
  C  C209  1  0.464200  0.856900  0.231100  1.0
  C  C210  1  0.233100  0.464200  0.607300  1.0
  C  C211  1  0.856900  0.625800  0.392700  1.0
  C  C212  1  0.625800  0.233100  0.768900  1.0
  C  C213  1  0.535800  0.143100  0.768900  1.0
  C  C214  1  0.766900  0.535800  0.392700  1.0
  C  C215  1  0.143100  0.374200  0.607300  1.0
  C  C216  1  0.374200  0.766900  0.231100  1.0
  C  C217  1  0.507000  0.891600  0.259200  1.0
  C  C218  1  0.247800  0.507000  0.615400  1.0
  C  C219  1  0.891600  0.632400  0.384600  1.0
  C  C220  1  0.632400  0.247800  0.740800  1.0
  C  C221  1  0.493000  0.108400  0.740800  1.0
  C  C222  1  0.752200  0.493000  0.384600  1.0
  C  C223  1  0.108400  0.367600  0.615400  1.0
  C  C224  1  0.367600  0.752200  0.259200  1.0
  C  C225  1  0.513800  0.931200  0.286600  1.0
  C  C226  1  0.227200  0.513800  0.582600  1.0
  C  C227  1  0.931200  0.644600  0.417400  1.0
  C  C228  1  0.644600  0.227200  0.713400  1.0
  C  C229  1  0.486200  0.068800  0.713400  1.0
  C  C230  1  0.772800  0.486200  0.417400  1.0
  C  C231  1  0.068800  0.355400  0.582600  1.0
  C  C232  1  0.355400  0.772800  0.286600  1.0
  C  C233  1  0.479200  0.937800  0.282800  1.0
  C  C234  1  0.196400  0.479200  0.541400  1.0
  C  C235  1  0.937800  0.655000  0.458600  1.0
  C  C236  1  0.655000  0.196400  0.717200  1.0
  C  C237  1  0.520800  0.062200  0.717200  1.0
  C  C238  1  0.803600  0.520800  0.458600  1.0
  C  C239  1  0.062200  0.345000  0.541400  1.0
  C  C240  1  0.345000  0.803600  0.282800  1.0
  C  C241  1  0.436300  0.903200  0.252500  1.0
  C  C242  1  0.183800  0.436300  0.533100  1.0
  C  C243  1  0.903200  0.650700  0.466900  1.0
  C  C244  1  0.650700  0.183800  0.747500  1.0
  C  C245  1  0.563700  0.096800  0.747500  1.0
  C  C246  1  0.816200  0.563700  0.466900  1.0
  C  C247  1  0.096800  0.349300  0.533100  1.0
  C  C248  1  0.349300  0.816200  0.252500  1.0
  C  C249  1  0.560500  0.967300  0.316200  1.0
  C  C250  1  0.244300  0.560500  0.593200  1.0
  C  C251  1  0.967300  0.651100  0.406800  1.0
  C  C252  1  0.651100  0.244300  0.683800  1.0
  C  C253  1  0.439500  0.032700  0.683800  1.0
  C  C254  1  0.755700  0.439500  0.406800  1.0
  C  C255  1  0.032700  0.348900  0.593200  1.0
  C  C256  1  0.348900  0.755700  0.316200  1.0
  C  C257  1  0.589400  0.996500  0.347900  1.0
  C  C258  1  0.241500  0.589400  0.592900  1.0
  C  C259  1  0.996500  0.648600  0.407100  1.0
  C  C260  1  0.648600  0.241500  0.652100  1.0
  C  C261  1  0.410600  0.003500  0.652100  1.0
  C  C262  1  0.758500  0.410600  0.407100  1.0
  C  C263  1  0.003500  0.351400  0.592900  1.0
  C  C264  1  0.351400  0.758500  0.347900  1.0
  C  C265  1  0.979600  0.352400  0.902800  1.0
  C  C266  1  0.076800  0.979600  0.627200  1.0
  C  C267  1  0.352400  0.449600  0.372800  1.0
  C  C268  1  0.449600  0.076800  0.097200  1.0
  C  C269  1  0.020400  0.647600  0.097200  1.0
  C  C270  1  0.923200  0.020400  0.372800  1.0
  C  C271  1  0.647600  0.550400  0.627200  1.0
  C  C272  1  0.550400  0.923200  0.902800  1.0
  C  C273  1  0.997600  0.397200  0.920200  1.0
  C  C274  1  0.077400  0.997600  0.600400  1.0
  C  C275  1  0.397200  0.477000  0.399600  1.0
  C  C276  1  0.477000  0.077400  0.079800  1.0
  C  C277  1  0.002400  0.602800  0.079800  1.0
  C  C278  1  0.922600  0.002400  0.399600  1.0
  C  C279  1  0.602800  0.523000  0.600400  1.0
  C  C280  1  0.523000  0.922600  0.920200  1.0
  C  C281  1  0.970300  0.414000  0.916300  1.0
  C  C282  1  0.054000  0.970300  0.556300  1.0
  C  C283  1  0.414000  0.497700  0.443700  1.0
  C  C284  1  0.497700  0.054000  0.083700  1.0
  C  C285  1  0.029700  0.586000  0.083700  1.0
  C  C286  1  0.946000  0.029700  0.443700  1.0
  C  C287  1  0.586000  0.502300  0.556300  1.0
  C  C288  1  0.502300  0.946000  0.916300  1.0
  C  C289  1  0.925000  0.386200  0.892600  1.0
  C  C290  1  0.032400  0.925000  0.538800  1.0
  C  C291  1  0.386200  0.493600  0.461200  1.0
  C  C292  1  0.493600  0.032400  0.107400  1.0
  C  C293  1  0.075000  0.613800  0.107400  1.0
  C  C294  1  0.967600  0.075000  0.461200  1.0
  C  C295  1  0.613800  0.506400  0.538800  1.0
  C  C296  1  0.506400  0.967600  0.892600  1.0
  C  C297  1  0.907500  0.341200  0.874500  1.0
  C  C298  1  0.033000  0.907500  0.566300  1.0
  C  C299  1  0.341200  0.466700  0.433700  1.0
  C  C300  1  0.466700  0.033000  0.125500  1.0
  C  C301  1  0.092500  0.658800  0.125500  1.0
  C  C302  1  0.967000  0.092500  0.433700  1.0
  C  C303  1  0.658800  0.533300  0.566300  1.0
  C  C304  1  0.533300  0.967000  0.874500  1.0
  C  C305  1  0.992600  0.462400  0.938800  1.0
  C  C306  1  0.053800  0.992600  0.530200  1.0
  C  C307  1  0.462400  0.523600  0.469800  1.0
  C  C308  1  0.523600  0.053800  0.061200  1.0
  C  C309  1  0.007400  0.537600  0.061200  1.0
  C  C310  1  0.946200  0.007400  0.469800  1.0
  C  C311  1  0.537600  0.476400  0.530200  1.0
  C  C312  1  0.476400  0.946200  0.938800  1.0
  C  C313  1  0.999600  0.497200  0.949600  1.0
  C  C314  1  0.050000  0.999600  0.502400  1.0
  C  C315  1  0.497200  0.547600  0.497600  1.0
  C  C316  1  0.547600  0.050000  0.050400  1.0
  C  C317  1  0.000400  0.502800  0.050400  1.0
  C  C318  1  0.950000  0.000400  0.497600  1.0
  C  C319  1  0.502800  0.452400  0.502400  1.0
  C  C320  1  0.452400  0.950000  0.949600  1.0
  C  C321  1  0.879300  0.238200  0.898100  1.0
  C  C322  1  0.981200  0.879300  0.641100  1.0
  C  C323  1  0.238200  0.340100  0.358900  1.0
  C  C324  1  0.340100  0.981200  0.101900  1.0
  C  C325  1  0.120700  0.761800  0.101900  1.0
  C  C326  1  0.018800  0.120700  0.358900  1.0
  C  C327  1  0.761800  0.659900  0.641100  1.0
  C  C328  1  0.659900  0.018800  0.898100  1.0
  C  C329  1  0.883300  0.241300  0.937400  1.0
  C  C330  1  0.945900  0.883300  0.642000  1.0
  C  C331  1  0.241300  0.303900  0.358000  1.0
  C  C332  1  0.303900  0.945900  0.062600  1.0
  C  C333  1  0.116700  0.758700  0.062600  1.0
  C  C334  1  0.054100  0.116700  0.358000  1.0
  C  C335  1  0.758700  0.696100  0.642000  1.0
  C  C336  1  0.696100  0.054100  0.937400  1.0
  C  C337  1  0.922600  0.248500  0.966900  1.0
  C  C338  1  0.955700  0.922600  0.674100  1.0
  C  C339  1  0.248500  0.281600  0.325900  1.0
  C  C340  1  0.281600  0.955700  0.033100  1.0
  C  C341  1  0.077400  0.751500  0.033100  1.0
  C  C342  1  0.044300  0.077400  0.325900  1.0
  C  C343  1  0.751500  0.718400  0.674100  1.0
  C  C344  1  0.718400  0.044300  0.966900  1.0
  C  C345  1  0.960400  0.271600  0.965800  1.0
  C  C346  1  0.994600  0.960400  0.688800  1.0
  C  C347  1  0.271600  0.305800  0.311200  1.0
  C  C348  1  0.305800  0.994600  0.034200  1.0
  C  C349  1  0.039600  0.728400  0.034200  1.0
  C  C350  1  0.005400  0.039600  0.311200  1.0
  C  C351  1  0.728400  0.694200  0.688800  1.0
  C  C352  1  0.694200  0.005400  0.965800  1.0
  C  C353  1  0.956800  0.270500  0.927500  1.0
  C  C354  1  0.029300  0.956800  0.686300  1.0
  C  C355  1  0.270500  0.343000  0.313700  1.0
  C  C356  1  0.343000  0.029300  0.072500  1.0
  C  C357  1  0.043200  0.729500  0.072500  1.0
  C  C358  1  0.970700  0.043200  0.313700  1.0
  C  C359  1  0.729500  0.657000  0.686300  1.0
  C  C360  1  0.657000  0.970700  0.927500  1.0
  C  C361  1  0.924700  0.250000  0.007700  1.0
  C  C362  1  0.917000  0.924700  0.674700  1.0
  C  C363  1  0.250000  0.242300  0.325300  1.0
  C  C364  1  0.242300  0.917000  0.992300  1.0
  C  C365  1  0.075300  0.750000  0.992300  1.0
  C  C366  1  0.083000  0.075300  0.325300  1.0
  C  C367  1  0.750000  0.757700  0.674700  1.0
  C  C368  1  0.757700  0.083000  0.007700  1.0
  C  C369  1  0.929300  0.269700  0.041000  1.0
  C  C370  1  0.888300  0.929300  0.659600  1.0
  C  C371  1  0.269700  0.228700  0.340400  1.0
  C  C372  1  0.228700  0.888300  0.959000  1.0
  C  C373  1  0.070700  0.730300  0.959000  1.0
  C  C374  1  0.111700  0.070700  0.340400  1.0
  C  C375  1  0.730300  0.771300  0.659600  1.0
  C  C376  1  0.771300  0.111700  0.041000  1.0
  C  C377  1  0.083800  0.616000  0.014000  1.0
  C  C378  1  0.069800  0.083800  0.467800  1.0
  C  C379  1  0.616000  0.602000  0.532200  1.0
  C  C380  1  0.602000  0.069800  0.986000  1.0
  C  C381  1  0.916200  0.384000  0.986000  1.0
  C  C382  1  0.930200  0.916200  0.532200  1.0
  C  C383  1  0.384000  0.398000  0.467800  1.0
  C  C384  1  0.398000  0.930200  0.014000  1.0
  C  C385  1  0.066900  0.573800  0.994700  1.0
  C  C386  1  0.072200  0.066900  0.493100  1.0
  C  C387  1  0.573800  0.579100  0.506900  1.0
  C  C388  1  0.579100  0.072200  0.005300  1.0
  C  C389  1  0.933100  0.426200  0.005300  1.0
  C  C390  1  0.927800  0.933100  0.506900  1.0
  C  C391  1  0.426200  0.420900  0.493100  1.0
  C  C392  1  0.420900  0.927800  0.994700  1.0
  C  C393  1  0.018600  0.546400  0.974600  1.0
  C  C394  1  0.044000  0.018600  0.472200  1.0
  C  C395  1  0.546400  0.571800  0.527800  1.0
  C  C396  1  0.571800  0.044000  0.025400  1.0
  C  C397  1  0.981400  0.453600  0.025400  1.0
  C  C398  1  0.956000  0.981400  0.527800  1.0
  C  C399  1  0.453600  0.428200  0.472200  1.0
  C  C400  1  0.428200  0.956000  0.974600  1.0
  C  C401  1  0.997700  0.566800  0.973500  1.0
  C  C402  1  0.024200  0.997700  0.430900  1.0
  C  C403  1  0.566800  0.593300  0.569100  1.0
  C  C404  1  0.593300  0.024200  0.026500  1.0
  C  C405  1  0.002300  0.433200  0.026500  1.0
  C  C406  1  0.975800  0.002300  0.569100  1.0
  C  C407  1  0.433200  0.406700  0.430900  1.0
  C  C408  1  0.406700  0.975800  0.973500  1.0
  C  C409  1  0.010400  0.611200  0.992800  1.0
  C  C410  1  0.017600  0.010400  0.399200  1.0
  C  C411  1  0.611200  0.618400  0.600800  1.0
  C  C412  1  0.618400  0.017600  0.007200  1.0
  C  C413  1  0.989600  0.388800  0.007200  1.0
  C  C414  1  0.982400  0.989600  0.600800  1.0
  C  C415  1  0.388800  0.381600  0.399200  1.0
  C  C416  1  0.381600  0.982400  0.992800  1.0
  C  C417  1  0.057300  0.635000  0.013900  1.0
  C  C418  1  0.043400  0.057300  0.422300  1.0
  C  C419  1  0.635000  0.621100  0.577700  1.0
  C  C420  1  0.621100  0.043400  0.986100  1.0
  C  C421  1  0.942700  0.365000  0.986100  1.0
  C  C422  1  0.956600  0.942700  0.577700  1.0
  C  C423  1  0.365000  0.378900  0.422300  1.0
  C  C424  1  0.378900  0.956600  0.013900  1.0
  C  C425  1  0.107700  0.541700  0.025600  1.0
  C  C426  1  0.082100  0.107700  0.566000  1.0
  C  C427  1  0.541700  0.516100  0.434000  1.0
  C  C428  1  0.516100  0.082100  0.974400  1.0
  C  C429  1  0.892300  0.458300  0.974400  1.0
  C  C430  1  0.917900  0.892300  0.434000  1.0
  C  C431  1  0.458300  0.483900  0.566000  1.0
  C  C432  1  0.483900  0.917900  0.025600  1.0
  C  C433  1  0.992300  0.306400  0.655300  1.0
  C  C434  1  0.337000  0.992300  0.685900  1.0
  C  C435  1  0.306400  0.651100  0.314100  1.0
  C  C436  1  0.651100  0.337000  0.344700  1.0
  C  C437  1  0.007700  0.693600  0.344700  1.0
  C  C438  1  0.663000  0.007700  0.314100  1.0
  C  C439  1  0.693600  0.348900  0.685900  1.0
  C  C440  1  0.348900  0.663000  0.655300  1.0
  C  C441  1  0.874700  0.267600  0.759300  1.0
  C  C442  1  0.115400  0.874700  0.607100  1.0
  C  C443  1  0.267600  0.508300  0.392900  1.0
  C  C444  1  0.508300  0.115400  0.240700  1.0
  C  C445  1  0.125300  0.732400  0.240700  1.0
  C  C446  1  0.884600  0.125300  0.392900  1.0
  C  C447  1  0.732400  0.491700  0.607100  1.0
  C  C448  1  0.491700  0.884600  0.759300  1.0
  C  C449  1  0.881700  0.282500  0.731600  1.0
  C  C450  1  0.150100  0.881700  0.599200  1.0
  C  C451  1  0.282500  0.550900  0.400800  1.0
  C  C452  1  0.550900  0.150100  0.268400  1.0
  C  C453  1  0.118300  0.717500  0.268400  1.0
  C  C454  1  0.849900  0.118300  0.400800  1.0
  C  C455  1  0.717500  0.449100  0.599200  1.0
  C  C456  1  0.449100  0.849900  0.731600  1.0
  C  C457  1  0.921000  0.292100  0.731100  1.0
  C  C458  1  0.189900  0.921000  0.628900  1.0
  C  C459  1  0.292100  0.561000  0.371100  1.0
  C  C460  1  0.561000  0.189900  0.268900  1.0
  C  C461  1  0.079000  0.707900  0.268900  1.0
  C  C462  1  0.810100  0.079000  0.371100  1.0
  C  C463  1  0.707900  0.439000  0.628900  1.0
  C  C464  1  0.439000  0.810100  0.731100  1.0
  C  C465  1  0.952500  0.290900  0.760600  1.0
  C  C466  1  0.191900  0.952500  0.661600  1.0
  C  C467  1  0.290900  0.530300  0.338400  1.0
  C  C468  1  0.530300  0.191900  0.239400  1.0
  C  C469  1  0.047500  0.709100  0.239400  1.0
  C  C470  1  0.808100  0.047500  0.338400  1.0
  C  C471  1  0.709100  0.469700  0.661600  1.0
  C  C472  1  0.469700  0.808100  0.760600  1.0
  C  C473  1  0.946600  0.278400  0.790200  1.0
  C  C474  1  0.156400  0.946600  0.668200  1.0
  C  C475  1  0.278400  0.488200  0.331800  1.0
  C  C476  1  0.488200  0.156400  0.209800  1.0
  C  C477  1  0.053400  0.721600  0.209800  1.0
  C  C478  1  0.843600  0.053400  0.331800  1.0
  C  C479  1  0.721600  0.511800  0.668200  1.0
  C  C480  1  0.511800  0.843600  0.790200  1.0
  C  C481  1  0.926400  0.304900  0.698900  1.0
  C  C482  1  0.227500  0.926400  0.621500  1.0
  C  C483  1  0.304900  0.606000  0.378500  1.0
  C  C484  1  0.606000  0.227500  0.301100  1.0
  C  C485  1  0.073600  0.695100  0.301100  1.0
  C  C486  1  0.772500  0.073600  0.378500  1.0
  C  C487  1  0.695100  0.394000  0.621500  1.0
  C  C488  1  0.394000  0.772500  0.698900  1.0
  C  C489  1  0.915600  0.309600  0.669600  1.0
  C  C490  1  0.246000  0.915600  0.606000  1.0
  C  C491  1  0.309600  0.640000  0.394000  1.0
  C  C492  1  0.640000  0.246000  0.330400  1.0
  C  C493  1  0.084400  0.690400  0.330400  1.0
  C  C494  1  0.754000  0.084400  0.394000  1.0
  C  C495  1  0.690400  0.360000  0.606000  1.0
  C  C496  1  0.360000  0.754000  0.669600  1.0
  C  C497  1  0.846000  0.164400  0.784600  1.0
  C  C498  1  0.061400  0.846000  0.681600  1.0
  C  C499  1  0.164400  0.379800  0.318400  1.0
  C  C500  1  0.379800  0.061400  0.215400  1.0
  C  C501  1  0.154000  0.835600  0.215400  1.0
  C  C502  1  0.938600  0.154000  0.318400  1.0
  C  C503  1  0.835600  0.620200  0.681600  1.0
  C  C504  1  0.620200  0.938600  0.784600  1.0
  C  C505  1  0.833000  0.121500  0.758100  1.0
  C  C506  1  0.074900  0.833000  0.711500  1.0
  C  C507  1  0.121500  0.363400  0.288500  1.0
  C  C508  1  0.363400  0.074900  0.241900  1.0
  C  C509  1  0.167000  0.878500  0.241900  1.0
  C  C510  1  0.925100  0.167000  0.288500  1.0
  C  C511  1  0.878500  0.636600  0.711500  1.0
  C  C512  1  0.636600  0.925100  0.758100  1.0
  C  C513  1  0.864200  0.109900  0.758900  1.0
  C  C514  1  0.105300  0.864200  0.754300  1.0
  C  C515  1  0.109900  0.351000  0.245700  1.0
  C  C516  1  0.351000  0.105300  0.241100  1.0
  C  C517  1  0.135800  0.890100  0.241100  1.0
  C  C518  1  0.894700  0.135800  0.245700  1.0
  C  C519  1  0.890100  0.649000  0.754300  1.0
  C  C520  1  0.649000  0.894700  0.758900  1.0
  C  C521  1  0.908400  0.141200  0.786400  1.0
  C  C522  1  0.122000  0.908400  0.767200  1.0
  C  C523  1  0.141200  0.354800  0.232800  1.0
  C  C524  1  0.354800  0.122000  0.213600  1.0
  C  C525  1  0.091600  0.858800  0.213600  1.0
  C  C526  1  0.878000  0.091600  0.232800  1.0
  C  C527  1  0.858800  0.645200  0.767200  1.0
  C  C528  1  0.645200  0.878000  0.786400  1.0
  C  C529  1  0.921300  0.184000  0.812900  1.0
  C  C530  1  0.108400  0.921300  0.737300  1.0
  C  C531  1  0.184000  0.371100  0.262700  1.0
  C  C532  1  0.371100  0.108400  0.187100  1.0
  C  C533  1  0.078700  0.816000  0.187100  1.0
  C  C534  1  0.891600  0.078700  0.262700  1.0
  C  C535  1  0.816000  0.628900  0.737300  1.0
  C  C536  1  0.628900  0.891600  0.812900  1.0
  C  C537  1  0.847500  0.065000  0.724500  1.0
  C  C538  1  0.123000  0.847500  0.782500  1.0
  C  C539  1  0.065000  0.340500  0.217500  1.0
  C  C540  1  0.340500  0.123000  0.275500  1.0
  C  C541  1  0.152500  0.935000  0.275500  1.0
  C  C542  1  0.877000  0.152500  0.217500  1.0
  C  C543  1  0.935000  0.659500  0.782500  1.0
  C  C544  1  0.659500  0.877000  0.724500  1.0
  C  C545  1  0.825900  0.036400  0.690300  1.0
  C  C546  1  0.135600  0.825900  0.789500  1.0
  C  C547  1  0.036400  0.346100  0.210500  1.0
  C  C548  1  0.346100  0.135600  0.309700  1.0
  C  C549  1  0.174100  0.963600  0.309700  1.0
  C  C550  1  0.864400  0.174100  0.210500  1.0
  C  C551  1  0.963600  0.653900  0.789500  1.0
  C  C552  1  0.653900  0.864400  0.690300  1.0
  C  C553  1  0.811000  0.987800  0.658800  1.0
  C  C554  1  0.152200  0.811000  0.823200  1.0
  C  C555  1  0.987800  0.329000  0.176800  1.0
  C  C556  1  0.329000  0.152200  0.341200  1.0
  C  C557  1  0.189000  0.012200  0.341200  1.0
  C  C558  1  0.847800  0.189000  0.176800  1.0
  C  C559  1  0.012200  0.671000  0.823200  1.0
  C  C560  1  0.671000  0.847800  0.658800  1.0
  C  C561  1  0.845600  0.979600  0.668000  1.0
  C  C562  1  0.177600  0.845600  0.866000  1.0
  C  C563  1  0.979600  0.311600  0.134000  1.0
  C  C564  1  0.311600  0.177600  0.332000  1.0
  C  C565  1  0.154400  0.020400  0.332000  1.0
  C  C566  1  0.822400  0.154400  0.134000  1.0
  C  C567  1  0.020400  0.688400  0.866000  1.0
  C  C568  1  0.688400  0.822400  0.668000  1.0
  C  C569  1  0.940000  0.299000  0.101000  1.0
  C  C570  1  0.839000  0.940000  0.641000  1.0
  C  C571  1  0.299000  0.198000  0.359000  1.0
  C  C572  1  0.198000  0.839000  0.899000  1.0
  C  C573  1  0.060000  0.701000  0.899000  1.0
  C  C574  1  0.161000  0.060000  0.359000  1.0
  C  C575  1  0.701000  0.802000  0.641000  1.0
  C  C576  1  0.802000  0.161000  0.101000  1.0
  C  C577  1  0.909000  0.303000  0.110000  1.0
  C  C578  1  0.799000  0.909000  0.606000  1.0
  C  C579  1  0.303000  0.193000  0.394000  1.0
  C  C580  1  0.193000  0.799000  0.890000  1.0
  C  C581  1  0.091000  0.697000  0.890000  1.0
  C  C582  1  0.201000  0.091000  0.394000  1.0
  C  C583  1  0.697000  0.807000  0.606000  1.0
  C  C584  1  0.807000  0.201000  0.110000  1.0
  C  C585  1  0.916500  0.320500  0.152000  1.0
  C  C586  1  0.764500  0.916500  0.596000  1.0
  C  C587  1  0.320500  0.168500  0.404000  1.0
  C  C588  1  0.168500  0.764500  0.848000  1.0
  C  C589  1  0.083500  0.679500  0.848000  1.0
  C  C590  1  0.235500  0.083500  0.404000  1.0
  C  C591  1  0.679500  0.831500  0.596000  1.0
  C  C592  1  0.831500  0.235500  0.152000  1.0
  C  C593  1  0.771000  0.956000  0.623000  1.0
  C  C594  1  0.148000  0.771000  0.815000  1.0
  C  C595  1  0.956000  0.333000  0.185000  1.0
  C  C596  1  0.333000  0.148000  0.377000  1.0
  C  C597  1  0.229000  0.044000  0.377000  1.0
  C  C598  1  0.852000  0.229000  0.185000  1.0
  C  C599  1  0.044000  0.667000  0.815000  1.0
  C  C600  1  0.667000  0.852000  0.623000  1.0
  C  C601  1  0.919600  0.011600  0.748000  1.0
  C  C602  1  0.171600  0.919600  0.908000  1.0
  C  C603  1  0.011600  0.263600  0.092000  1.0
  C  C604  1  0.263600  0.171600  0.252000  1.0
  C  C605  1  0.080400  0.988400  0.252000  1.0
  C  C606  1  0.828400  0.080400  0.092000  1.0
  C  C607  1  0.988400  0.736400  0.908000  1.0
  C  C608  1  0.736400  0.828400  0.748000  1.0
  C  C609  1  0.928900  0.321500  0.638600  1.0
  C  C610  1  0.290300  0.928900  0.607400  1.0
  C  C611  1  0.321500  0.682900  0.392600  1.0
  C  C612  1  0.682900  0.290300  0.361400  1.0
  C  C613  1  0.071100  0.678500  0.361400  1.0
  C  C614  1  0.709700  0.071100  0.392600  1.0
  C  C615  1  0.678500  0.317100  0.607400  1.0
  C  C616  1  0.317100  0.709700  0.638600  1.0
  C  C617  1  0.963900  0.327100  0.631200  1.0
  C  C618  1  0.332700  0.963900  0.636800  1.0
  C  C619  1  0.327100  0.695900  0.363200  1.0
  C  C620  1  0.695900  0.332700  0.368800  1.0
  C  C621  1  0.036100  0.672900  0.368800  1.0
  C  C622  1  0.667300  0.036100  0.363200  1.0
  C  C623  1  0.672900  0.304100  0.636800  1.0
  C  C624  1  0.304100  0.667300  0.631200  1.0
  C  C625  1  0.633200  0.033700  0.371300  1.0
  C  C626  1  0.261900  0.633200  0.599500  1.0
  C  C627  1  0.033700  0.662400  0.400500  1.0
  C  C628  1  0.662400  0.261900  0.628700  1.0
  C  C629  1  0.366800  0.966300  0.628700  1.0
  C  C630  1  0.738100  0.366800  0.400500  1.0
  C  C631  1  0.966300  0.337600  0.599500  1.0
  C  C632  1  0.337600  0.738100  0.371300  1.0
  C  C633  1  0.641500  0.066200  0.408900  1.0
  C  C634  1  0.232600  0.641500  0.575300  1.0
  C  C635  1  0.066200  0.657300  0.424700  1.0
  C  C636  1  0.657300  0.232600  0.591100  1.0
  C  C637  1  0.358500  0.933800  0.591100  1.0
  C  C638  1  0.767400  0.358500  0.424700  1.0
  C  C639  1  0.933800  0.342700  0.575300  1.0
  C  C640  1  0.342700  0.767400  0.408900  1.0
  C  C641  1  0.683900  0.101200  0.438300  1.0
  C  C642  1  0.245600  0.683900  0.582700  1.0
  C  C643  1  0.101200  0.662900  0.417300  1.0
  C  C644  1  0.662900  0.245600  0.561700  1.0
  C  C645  1  0.316100  0.898800  0.561700  1.0
  C  C646  1  0.754400  0.316100  0.417300  1.0
  C  C647  1  0.898800  0.337100  0.582700  1.0
  C  C648  1  0.337100  0.754400  0.438300  1.0
  C  C649  1  0.896300  0.326500  0.614400  1.0
  C  C650  1  0.281900  0.896300  0.569800  1.0
  C  C651  1  0.326500  0.712100  0.430200  1.0
  C  C652  1  0.712100  0.281900  0.385600  1.0
  C  C653  1  0.103700  0.673500  0.385600  1.0
  C  C654  1  0.718100  0.103700  0.430200  1.0
  C  C655  1  0.673500  0.287900  0.569800  1.0
  C  C656  1  0.287900  0.718100  0.614400  1.0
  H  H657  1  0.311400  0.719900  0.109900  1.0
  H  H658  1  0.201500  0.311400  0.591500  1.0
  H  H659  1  0.719900  0.610000  0.408500  1.0
  H  H660  1  0.610000  0.201500  0.890100  1.0
  H  H661  1  0.688600  0.280100  0.890100  1.0
  H  H662  1  0.798500  0.688600  0.408500  1.0
  H  H663  1  0.280100  0.390000  0.591500  1.0
  H  H664  1  0.390000  0.798500  0.109900  1.0
  H  H665  1  0.237000  0.667100  0.064500  1.0
  H  H666  1  0.172500  0.237000  0.569900  1.0
  H  H667  1  0.667100  0.602600  0.430100  1.0
  H  H668  1  0.602600  0.172500  0.935500  1.0
  H  H669  1  0.763000  0.332900  0.935500  1.0
  H  H670  1  0.827500  0.763000  0.430100  1.0
  H  H671  1  0.332900  0.397400  0.569900  1.0
  H  H672  1  0.397400  0.827500  0.064500  1.0
  H  H673  1  0.206100  0.755800  0.116100  1.0
  H  H674  1  0.090000  0.206100  0.450300  1.0
  H  H675  1  0.755800  0.639700  0.549700  1.0
  H  H676  1  0.639700  0.090000  0.883900  1.0
  H  H677  1  0.793900  0.244200  0.883900  1.0
  H  H678  1  0.910000  0.793900  0.549700  1.0
  H  H679  1  0.244200  0.360300  0.450300  1.0
  H  H680  1  0.360300  0.910000  0.116100  1.0
  H  H681  1  0.280500  0.808700  0.161600  1.0
  H  H682  1  0.118900  0.280500  0.471800  1.0
  H  H683  1  0.808700  0.647100  0.528200  1.0
  H  H684  1  0.647100  0.118900  0.838400  1.0
  H  H685  1  0.719500  0.191300  0.838400  1.0
  H  H686  1  0.881100  0.719500  0.528200  1.0
  H  H687  1  0.191300  0.352900  0.471800  1.0
  H  H688  1  0.352900  0.881100  0.161600  1.0
  H  H689  1  0.458600  0.828200  0.216000  1.0
  H  H690  1  0.242600  0.458600  0.630400  1.0
  H  H691  1  0.828200  0.612200  0.369600  1.0
  H  H692  1  0.612200  0.242600  0.784000  1.0
  H  H693  1  0.541400  0.171800  0.784000  1.0
  H  H694  1  0.757400  0.541400  0.369600  1.0
  H  H695  1  0.171800  0.387800  0.630400  1.0
  H  H696  1  0.387800  0.757400  0.216000  1.0
  H  H697  1  0.530900  0.888200  0.259700  1.0
  H  H698  1  0.271200  0.530900  0.642700  1.0
  H  H699  1  0.888200  0.628500  0.357300  1.0
  H  H700  1  0.628500  0.271200  0.740300  1.0
  H  H701  1  0.469100  0.111800  0.740300  1.0
  H  H702  1  0.728800  0.469100  0.357300  1.0
  H  H703  1  0.111800  0.371500  0.642700  1.0
  H  H704  1  0.371500  0.728800  0.259700  1.0
  H  H705  1  0.484500  0.965600  0.300700  1.0
  H  H706  1  0.183800  0.484500  0.518900  1.0
  H  H707  1  0.965600  0.664900  0.481100  1.0
  H  H708  1  0.664900  0.183800  0.699300  1.0
  H  H709  1  0.515500  0.034400  0.699300  1.0
  H  H710  1  0.816200  0.515500  0.481100  1.0
  H  H711  1  0.034400  0.335100  0.518900  1.0
  H  H712  1  0.335100  0.816200  0.300700  1.0
  H  H713  1  0.412300  0.906800  0.250900  1.0
  H  H714  1  0.161400  0.412300  0.505500  1.0
  H  H715  1  0.906800  0.655900  0.494500  1.0
  H  H716  1  0.655900  0.161400  0.749100  1.0
  H  H717  1  0.587700  0.093200  0.749100  1.0
  H  H718  1  0.838600  0.587700  0.494500  1.0
  H  H719  1  0.093200  0.344100  0.505500  1.0
  H  H720  1  0.344100  0.838600  0.250900  1.0
  H  H721  1  0.998200  0.340800  0.908000  1.0
  H  H722  1  0.090200  0.998200  0.657400  1.0
  H  H723  1  0.340800  0.432800  0.342600  1.0
  H  H724  1  0.432800  0.090200  0.092000  1.0
  H  H725  1  0.001800  0.659200  0.092000  1.0
  H  H726  1  0.909800  0.001800  0.342600  1.0
  H  H727  1  0.659200  0.567200  0.657400  1.0
  H  H728  1  0.567200  0.909800  0.908000  1.0
  H  H729  1  0.028400  0.416200  0.934600  1.0
  H  H730  1  0.093800  0.028400  0.612200  1.0
  H  H731  1  0.416200  0.481600  0.387800  1.0
  H  H732  1  0.481600  0.093800  0.065400  1.0
  H  H733  1  0.971600  0.583800  0.065400  1.0
  H  H734  1  0.906200  0.971600  0.387800  1.0
  H  H735  1  0.583800  0.518400  0.612200  1.0
  H  H736  1  0.518400  0.906200  0.934600  1.0
  H  H737  1  0.906300  0.397700  0.888800  1.0
  H  H738  1  0.017500  0.906300  0.508600  1.0
  H  H739  1  0.397700  0.508900  0.491400  1.0
  H  H740  1  0.508900  0.017500  0.111200  1.0
  H  H741  1  0.093700  0.602300  0.111200  1.0
  H  H742  1  0.982500  0.093700  0.491400  1.0
  H  H743  1  0.602300  0.491100  0.508600  1.0
  H  H744  1  0.491100  0.982500  0.888800  1.0
  H  H745  1  0.876600  0.322000  0.859600  1.0
  H  H746  1  0.017000  0.876600  0.554600  1.0
  H  H747  1  0.322000  0.462400  0.445400  1.0
  H  H748  1  0.462400  0.017000  0.140400  1.0
  H  H749  1  0.123400  0.678000  0.140400  1.0
  H  H750  1  0.983000  0.123400  0.445400  1.0
  H  H751  1  0.678000  0.537600  0.554600  1.0
  H  H752  1  0.537600  0.983000  0.859600  1.0
  H  H753  1  0.851100  0.223900  0.874000  1.0
  H  H754  1  0.977100  0.851100  0.627200  1.0
  H  H755  1  0.223900  0.349900  0.372800  1.0
  H  H756  1  0.349900  0.977100  0.126000  1.0
  H  H757  1  0.148900  0.776100  0.126000  1.0
  H  H758  1  0.022900  0.148900  0.372800  1.0
  H  H759  1  0.776100  0.650100  0.627200  1.0
  H  H760  1  0.650100  0.022900  0.874000  1.0
  H  H761  1  0.860400  0.238700  0.943900  1.0
  H  H762  1  0.916500  0.860400  0.621700  1.0
  H  H763  1  0.238700  0.294800  0.378300  1.0
  H  H764  1  0.294800  0.916500  0.056100  1.0
  H  H765  1  0.139600  0.761300  0.056100  1.0
  H  H766  1  0.083500  0.139600  0.378300  1.0
  H  H767  1  0.761300  0.705200  0.621700  1.0
  H  H768  1  0.705200  0.083500  0.943900  1.0
  H  H769  1  0.988200  0.287900  0.990900  1.0
  H  H770  1  0.997300  0.988200  0.700300  1.0
  H  H771  1  0.287900  0.297000  0.299700  1.0
  H  H772  1  0.297000  0.997300  0.009100  1.0
  H  H773  1  0.011800  0.712100  0.009100  1.0
  H  H774  1  0.002700  0.011800  0.299700  1.0
  H  H775  1  0.712100  0.703000  0.700300  1.0
  H  H776  1  0.703000  0.002700  0.990900  1.0
  H  H777  1  0.982000  0.279800  0.924200  1.0
  H  H778  1  0.057800  0.982000  0.702200  1.0
  H  H779  1  0.279800  0.355600  0.297800  1.0
  H  H780  1  0.355600  0.057800  0.075800  1.0
  H  H781  1  0.018000  0.720200  0.075800  1.0
  H  H782  1  0.942200  0.018000  0.297800  1.0
  H  H783  1  0.720200  0.644400  0.702200  1.0
  H  H784  1  0.644400  0.942200  0.924200  1.0
  H  H785  1  0.966900  0.547700  0.955600  1.0
  H  H786  1  0.011300  0.966900  0.419200  1.0
  H  H787  1  0.547700  0.592100  0.580800  1.0
  H  H788  1  0.592100  0.011300  0.044400  1.0
  H  H789  1  0.033100  0.452300  0.044400  1.0
  H  H790  1  0.988700  0.033100  0.580800  1.0
  H  H791  1  0.452300  0.407900  0.419200  1.0
  H  H792  1  0.407900  0.988700  0.955600  1.0
  H  H793  1  0.991900  0.623000  0.991900  1.0
  H  H794  1  1.000000  0.991900  0.368900  1.0
  H  H795  1  0.623000  0.631100  0.631100  1.0
  H  H796  1  0.631100  0.000000  0.008100  1.0
  H  H797  1  0.008100  0.377000  0.008100  1.0
  H  H798  1  0.000000  0.008100  0.631100  1.0
  H  H799  1  0.377000  0.368900  0.368900  1.0
  H  H800  1  0.368900  0.000000  0.991900  1.0
  H  H801  1  0.071900  0.665900  0.029200  1.0
  H  H802  1  0.042700  0.071900  0.406000  1.0
  H  H803  1  0.665900  0.636700  0.594000  1.0
  H  H804  1  0.636700  0.042700  0.970800  1.0
  H  H805  1  0.928100  0.334100  0.970800  1.0
  H  H806  1  0.957300  0.928100  0.594000  1.0
  H  H807  1  0.334100  0.363300  0.406000  1.0
  H  H808  1  0.363300  0.957300  0.029200  1.0
  H  H809  1  0.846500  0.256400  0.756900  1.0
  H  H810  1  0.089600  0.846500  0.590100  1.0
  H  H811  1  0.256400  0.499500  0.409900  1.0
  H  H812  1  0.499500  0.089600  0.243100  1.0
  H  H813  1  0.153500  0.743600  0.243100  1.0
  H  H814  1  0.910400  0.153500  0.409900  1.0
  H  H815  1  0.743600  0.500500  0.590100  1.0
  H  H816  1  0.500500  0.910400  0.756900  1.0
  H  H817  1  0.860500  0.286000  0.713500  1.0
  H  H818  1  0.147000  0.860500  0.574500  1.0
  H  H819  1  0.286000  0.572500  0.425500  1.0
  H  H820  1  0.572500  0.147000  0.286500  1.0
  H  H821  1  0.139500  0.714000  0.286500  1.0
  H  H822  1  0.853000  0.139500  0.425500  1.0
  H  H823  1  0.714000  0.427500  0.574500  1.0
  H  H824  1  0.427500  0.853000  0.713500  1.0
  H  H825  1  0.979600  0.298900  0.760900  1.0
  H  H826  1  0.218700  0.979600  0.680700  1.0
  H  H827  1  0.298900  0.538000  0.319300  1.0
  H  H828  1  0.538000  0.218700  0.239100  1.0
  H  H829  1  0.020400  0.701100  0.239100  1.0
  H  H830  1  0.781300  0.020400  0.319300  1.0
  H  H831  1  0.701100  0.462000  0.680700  1.0
  H  H832  1  0.462000  0.781300  0.760900  1.0
  H  H833  1  0.968600  0.276700  0.809500  1.0
  H  H834  1  0.159100  0.968600  0.691900  1.0
  H  H835  1  0.276700  0.467200  0.308100  1.0
  H  H836  1  0.467200  0.159100  0.190500  1.0
  H  H837  1  0.031400  0.723300  0.190500  1.0
  H  H838  1  0.840900  0.031400  0.308100  1.0
  H  H839  1  0.723300  0.532800  0.691900  1.0
  H  H840  1  0.532800  0.840900  0.809500  1.0
  H  H841  1  0.824600  0.172300  0.783900  1.0
  H  H842  1  0.040700  0.824600  0.652300  1.0
  H  H843  1  0.172300  0.388400  0.347700  1.0
  H  H844  1  0.388400  0.040700  0.216100  1.0
  H  H845  1  0.175400  0.827700  0.216100  1.0
  H  H846  1  0.959300  0.175400  0.347700  1.0
  H  H847  1  0.827700  0.611600  0.652300  1.0
  H  H848  1  0.611600  0.959300  0.783900  1.0
  H  H849  1  0.802800  0.100100  0.739300  1.0
  H  H850  1  0.063500  0.802800  0.702700  1.0
  H  H851  1  0.100100  0.360800  0.297300  1.0
  H  H852  1  0.360800  0.063500  0.260700  1.0
  H  H853  1  0.197200  0.899900  0.260700  1.0
  H  H854  1  0.936500  0.197200  0.297300  1.0
  H  H855  1  0.899900  0.639200  0.702700  1.0
  H  H856  1  0.639200  0.936500  0.739300  1.0
  H  H857  1  0.929800  0.133300  0.787100  1.0
  H  H858  1  0.142700  0.929800  0.796500  1.0
  H  H859  1  0.133300  0.346200  0.203500  1.0
  H  H860  1  0.346200  0.142700  0.212900  1.0
  H  H861  1  0.070200  0.866700  0.212900  1.0
  H  H862  1  0.857300  0.070200  0.203500  1.0
  H  H863  1  0.866700  0.653800  0.796500  1.0
  H  H864  1  0.653800  0.857300  0.787100  1.0
  H  H865  1  0.951500  0.205400  0.831700  1.0
  H  H866  1  0.119800  0.951500  0.746100  1.0
  H  H867  1  0.205400  0.373700  0.253900  1.0
  H  H868  1  0.373700  0.119800  0.168300  1.0
  H  H869  1  0.048500  0.794600  0.168300  1.0
  H  H870  1  0.880200  0.048500  0.253900  1.0
  H  H871  1  0.794600  0.626300  0.746100  1.0
  H  H872  1  0.626300  0.880200  0.831700  1.0
  H  H873  1  0.881600  0.294500  0.087300  1.0
  H  H874  1  0.794300  0.881600  0.587100  1.0
  H  H875  1  0.294500  0.207200  0.412900  1.0
  H  H876  1  0.207200  0.794300  0.912700  1.0
  H  H877  1  0.118400  0.705500  0.912700  1.0
  H  H878  1  0.205700  0.118400  0.412900  1.0
  H  H879  1  0.705500  0.792800  0.587100  1.0
  H  H880  1  0.792800  0.205700  0.087300  1.0
  H  H881  1  0.895000  0.323700  0.158300  1.0
  H  H882  1  0.736700  0.895000  0.571300  1.0
  H  H883  1  0.323700  0.165400  0.428700  1.0
  H  H884  1  0.165400  0.736700  0.841700  1.0
  H  H885  1  0.105000  0.676300  0.841700  1.0
  H  H886  1  0.263300  0.105000  0.428700  1.0
  H  H887  1  0.676300  0.834600  0.571300  1.0
  H  H888  1  0.834600  0.263300  0.158300  1.0
  H  H889  1  0.747400  0.961700  0.616500  1.0
  H  H890  1  0.130900  0.747400  0.785700  1.0
  H  H891  1  0.961700  0.345200  0.214300  1.0
  H  H892  1  0.345200  0.130900  0.383500  1.0
  H  H893  1  0.252600  0.038300  0.383500  1.0
  H  H894  1  0.869100  0.252600  0.214300  1.0
  H  H895  1  0.038300  0.654800  0.785700  1.0
  H  H896  1  0.654800  0.869100  0.616500  1.0
  H  H897  1  0.618200  0.064500  0.414300  1.0
  H  H898  1  0.203900  0.618200  0.553700  1.0
  H  H899  1  0.064500  0.650200  0.446300  1.0
  H  H900  1  0.650200  0.203900  0.585700  1.0
  H  H901  1  0.381800  0.935500  0.585700  1.0
  H  H902  1  0.796100  0.381800  0.446300  1.0
  H  H903  1  0.935500  0.349800  0.553700  1.0
  H  H904  1  0.349800  0.796100  0.414300  1.0
  H  H905  1  0.689600  0.123500  0.463900  1.0
  H  H906  1  0.225700  0.689600  0.566100  1.0
  H  H907  1  0.123500  0.659600  0.433900  1.0
  H  H908  1  0.659600  0.225700  0.536100  1.0
  H  H909  1  0.310400  0.876500  0.536100  1.0
  H  H910  1  0.774300  0.310400  0.433900  1.0
  H  H911  1  0.876500  0.340400  0.566100  1.0
  H  H912  1  0.340400  0.774300  0.463900  1.0
  H  H913  1  0.872400  0.322700  0.619500  1.0
  H  H914  1  0.252900  0.872400  0.549700  1.0
  H  H915  1  0.322700  0.703200  0.450300  1.0
  H  H916  1  0.703200  0.252900  0.380500  1.0
  H  H917  1  0.127600  0.677300  0.380500  1.0
  H  H918  1  0.747100  0.127600  0.450300  1.0
  H  H919  1  0.677300  0.296800  0.549700  1.0
  H  H920  1  0.296800  0.747100  0.619500  1.0
  N  N921  1  0.010500  0.227100  0.442800  1
  N  N922  1  0.567700  0.010500  0.783400  1
  N  N923  1  0.227100  0.784300  0.216600  1
  N  N924  1  0.784300  0.567700  0.557200  1
  N  N925  1  0.989500  0.772900  0.557200  1
  N  N926  1  0.432300  0.989500  0.216600  1
  N  N927  1  0.772900  0.215700  0.783400  1
  N  N928  1  0.215700  0.432300  0.442800  1
  N  N929  1  0.859500  0.934100  0.241800  1
  N  N930  1  0.617700  0.859500  0.925400  1
  N  N931  1  0.934100  0.692300  0.074600  1
  N  N932  1  0.692300  0.617700  0.758200  1
  N  N933  1  0.140500  0.065900  0.758200  1
  N  N934  1  0.382300  0.140500  0.074600  1
  N  N935  1  0.065900  0.307700  0.925400  1
  N  N936  1  0.307700  0.382300  0.241800  1
  N  N937  1  0.910800  0.675700  0.586500  1
  N  N938  1  0.324300  0.910800  0.235100  1
  N  N939  1  0.675700  0.089200  0.764900  1
  N  N940  1  0.089200  0.324300  0.413500  1
  N  N941  1  0.756300  0.602400  0.358700  1
  N  N942  1  0.397600  0.756300  0.153900  1
  N  N943  1  0.602400  0.243700  0.846100  1
  N  N944  1  0.243700  0.397600  0.641300  1
  N  N945  1  0.303000  0.769300  0.140100  1.0
  N  N946  1  0.162900  0.303000  0.533700  1.0
  N  N947  1  0.769300  0.629200  0.466300  1.0
  N  N948  1  0.629200  0.162900  0.859900  1.0
  N  N949  1  0.697000  0.230700  0.859900  1.0
  N  N950  1  0.837100  0.697000  0.466300  1.0
  N  N951  1  0.230700  0.370800  0.533700  1.0
  N  N952  1  0.370800  0.837100  0.140100  1.0
  N  N953  1  0.429600  0.864000  0.225000  1.0
  N  N954  1  0.204600  0.429600  0.565600  1.0
  N  N955  1  0.864000  0.639000  0.434400  1.0
  N  N956  1  0.639000  0.204600  0.775000  1.0
  N  N957  1  0.570400  0.136000  0.775000  1.0
  N  N958  1  0.795400  0.570400  0.434400  1.0
  N  N959  1  0.136000  0.361000  0.565600  1.0
  N  N960  1  0.361000  0.795400  0.225000  1.0
  N  N961  1  0.934200  0.323900  0.877700  1.0
  N  N962  1  0.056500  0.934200  0.610300  1.0
  N  N963  1  0.323900  0.446200  0.389700  1.0
  N  N964  1  0.446200  0.056500  0.122300  1.0
  N  N965  1  0.065800  0.676100  0.122300  1.0
  N  N966  1  0.943500  0.065800  0.389700  1.0
  N  N967  1  0.676100  0.553800  0.610300  1.0
  N  N968  1  0.553800  0.943500  0.877700  1.0
  N  N969  1  0.916600  0.256200  0.894400  1.0
  N  N970  1  0.022200  0.916600  0.660400  1.0
  N  N971  1  0.256200  0.361800  0.339600  1.0
  N  N972  1  0.361800  0.022200  0.105600  1.0
  N  N973  1  0.083400  0.743800  0.105600  1.0
  N  N974  1  0.977800  0.083400  0.339600  1.0
  N  N975  1  0.743800  0.638200  0.660400  1.0
  N  N976  1  0.638200  0.977800  0.894400  1.0
  N  N977  1  0.907300  0.268500  0.790400  1.0
  N  N978  1  0.116900  0.907300  0.638800  1.0
  N  N979  1  0.268500  0.478100  0.361200  1.0
  N  N980  1  0.478100  0.116900  0.209600  1.0
  N  N981  1  0.092700  0.731500  0.209600  1.0
  N  N982  1  0.883100  0.092700  0.361200  1.0
  N  N983  1  0.731500  0.521900  0.638800  1.0
  N  N984  1  0.521900  0.883100  0.790400  1.0
  N  N985  1  0.890200  0.195600  0.812000  1.0
  N  N986  1  0.078200  0.890200  0.694600  1.0
  N  N987  1  0.195600  0.383600  0.305400  1.0
  N  N988  1  0.383600  0.078200  0.188000  1.0
  N  N989  1  0.109800  0.804400  0.188000  1.0
  N  N990  1  0.921800  0.109800  0.305400  1.0
  N  N991  1  0.804400  0.616400  0.694600  1.0
  N  N992  1  0.616400  0.921800  0.812000  1.0
  O  O993  1  0.025500  0.217700  0.411000  1
  O  O994  1  0.614500  0.025500  0.807800  1
  O  O995  1  0.217700  0.806700  0.192200  1
  O  O996  1  0.806700  0.614500  0.589000  1
  O  O997  1  0.974500  0.782300  0.589000  1
  O  O998  1  0.385500  0.974500  0.192200  1
  O  O999  1  0.782300  0.193300  0.807800  1
  O  O1000  1  0.193300  0.385500  0.411000  1
  O  O1001  1  0.997200  0.182100  0.425500  1
  O  O1002  1  0.571700  0.997200  0.815100  1
  O  O1003  1  0.182100  0.756600  0.184900  1
  O  O1004  1  0.756600  0.571700  0.574500  1
  O  O1005  1  0.002800  0.817900  0.574500  1
  O  O1006  1  0.428300  0.002800  0.184900  1
  O  O1007  1  0.817900  0.243400  0.815100  1
  O  O1008  1  0.243400  0.428300  0.425500  1
  O  O1009  1  0.025800  0.248000  0.471800  1
  O  O1010  1  0.554000  0.025800  0.777800  1
  O  O1011  1  0.248000  0.776200  0.222200  1
  O  O1012  1  0.776200  0.554000  0.528200  1
  O  O1013  1  0.974200  0.752000  0.528200  1
  O  O1014  1  0.446000  0.974200  0.222200  1
  O  O1015  1  0.752000  0.223800  0.777800  1
  O  O1016  1  0.223800  0.446000  0.471800  1
  O  O1017  1  0.985800  0.085900  0.227500  1
  O  O1018  1  0.758300  0.985800  0.899900  1
  O  O1019  1  0.085900  0.858400  0.100100  1
  O  O1020  1  0.858400  0.758300  0.772500  1
  O  O1021  1  0.014200  0.914100  0.772500  1
  O  O1022  1  0.241700  0.014200  0.100100  1
  O  O1023  1  0.914100  0.141600  0.899900  1
  O  O1024  1  0.141600  0.241700  0.227500  1
  O  O1025  1  0.870100  0.995700  0.274800  1
  O  O1026  1  0.595300  0.870100  0.874400  1
  O  O1027  1  0.995700  0.720900  0.125600  1
  O  O1028  1  0.720900  0.595300  0.725200  1
  O  O1029  1  0.129900  0.004300  0.725200  1
  O  O1030  1  0.404700  0.129900  0.125600  1
  O  O1031  1  0.004300  0.279100  0.874400  1
  O  O1032  1  0.279100  0.404700  0.274800  1
  O  O1033  1  0.834000  0.948500  0.230100  1
  O  O1034  1  0.603900  0.834000  0.885500  1
  O  O1035  1  0.948500  0.718400  0.114500  1
  O  O1036  1  0.718400  0.603900  0.769900  1
  O  O1037  1  0.166000  0.051500  0.769900  1
  O  O1038  1  0.396100  0.166000  0.114500  1
  O  O1039  1  0.051500  0.281600  0.885500  1
  O  O1040  1  0.281600  0.396100  0.230100  1
  O  O1041  1  0.951000  0.683800  0.586000  1
  O  O1042  1  0.365000  0.951000  0.267200  1
  O  O1043  1  0.683800  0.097800  0.732800  1
  O  O1044  1  0.097800  0.365000  0.414000  1
  O  O1045  1  0.049000  0.316200  0.414000  1
  O  O1046  1  0.635000  0.049000  0.732800  1
  O  O1047  1  0.316200  0.902200  0.267200  1
  O  O1048  1  0.902200  0.635000  0.586000  1
  O  O1049  1  0.883300  0.659900  0.543200  1
  O  O1050  1  0.340100  0.883300  0.223400  1
  O  O1051  1  0.659900  0.116700  0.776600  1
  O  O1052  1  0.116700  0.340100  0.456800  1
  O  O1053  1  0.725300  0.588900  0.314200  1
  O  O1054  1  0.411100  0.725300  0.136400  1
  O  O1055  1  0.588900  0.274700  0.863600  1
  O  O1056  1  0.274700  0.411100  0.685800  1
  O  O1057  1  0.736000  0.613000  0.349000  1
  O  O1058  1  0.387000  0.736000  0.123000  1
  O  O1059  1  0.613000  0.264000  0.877000  1
  O  O1060  1  0.264000  0.387000  0.651000  1
  O  O1061  1  0.089200  0.557300  0.993300  1.0
  O  O1062  1  0.095900  0.089200  0.531900  1.0
  O  O1063  1  0.557300  0.564000  0.468100  1.0
  O  O1064  1  0.564000  0.095900  0.006700  1.0
  O  O1065  1  0.910800  0.442700  0.006700  1.0
  O  O1066  1  0.904100  0.910800  0.468100  1.0
  O  O1067  1  0.442700  0.436000  0.531900  1.0
  O  O1068  1  0.436000  0.904100  0.993300  1.0
  O  O1069  1  0.998500  0.343400  0.670100  1.0
  O  O1070  1  0.328400  0.998500  0.655100  1.0
  O  O1071  1  0.343400  0.673300  0.344900  1.0
  O  O1072  1  0.673300  0.328400  0.329900  1.0
  O  O1073  1  0.001500  0.656600  0.329900  1.0
  O  O1074  1  0.671600  0.001500  0.344900  1.0
  O  O1075  1  0.656600  0.326700  0.655100  1.0
  O  O1076  1  0.326700  0.671600  0.670100  1.0
  O  O1077  1  0.888100  0.000900  0.707400  1.0
  O  O1078  1  0.180700  0.888100  0.887200  1.0
  O  O1079  1  0.000900  0.293500  0.112800  1.0
  O  O1080  1  0.293500  0.180700  0.292600  1.0
  O  O1081  1  0.111900  0.999100  0.292600  1.0
  O  O1082  1  0.819300  0.111900  0.112800  1.0
  O  O1083  1  0.999100  0.706500  0.887200  1.0
  O  O1084  1  0.706500  0.819300  0.707400  1.0
  Pd  Pd1085  1  0.366420  0.815750  0.182170  1.0
  Pd  Pd1086  1  0.184250  0.366420  0.550670  1.0
  Pd  Pd1087  1  0.815750  0.633580  0.449330  1.0
  Pd  Pd1088  1  0.633580  0.184250  0.817830  1.0
  Pd  Pd1089  1  0.911500  0.260430  0.843850  1.0
  Pd  Pd1090  1  0.067650  0.911500  0.651070  1.0
  Pd  Pd1091  1  0.260430  0.416580  0.348930  1.0
  Pd  Pd1092  1  0.416580  0.067650  0.156150  1.0
  Pd  Pd1093  1  0.088500  0.739570  0.156150  1.0
  Pd  Pd1094  1  0.932350  0.088500  0.348930  1.0
  Pd  Pd1095  1  0.739570  0.583420  0.651070  1.0
  Pd  Pd1096  1  0.583420  0.932350  0.843850  1.0
