
#######################################################################
#
#                 Cambridge Crystallographic Data Centre
#                                CCDC 
#
#######################################################################
#
# If this CIF has been generated from an entry in the Cambridge 
# Structural Database, then it will include bibliographic, chemical, 
# crystal, experimental, refinement or atomic coordinate data resulting 
# from the CCDC's data processing and validation procedures.
#
#######################################################################

data_DICYUM
_chemical_formula_moiety         
'C156 H192 Cl6 Ir12 N48 6+,6(C1 F3 O3 S1 1-),5(C2 H6 O1 S1)'
_chemical_name_systematic        
"tetrakis(\m-5,5',5''-(benzene-1,3,5-triyl)tris(tetrazolyl))-hexakis(\m-chloro)-dodecakis(\h^5^-pentamethylcyclopentadienyl)-dodeca-iridium(iii) hexakis(trifluoromethanesulfonate) dimethyl sulfoxide solvate"
_symmetry_cell_setting           rhombohedral
_symmetry_space_group_name_H-M   'R -3'
_symmetry_Int_Tables_number      148
_space_group_name_Hall           '-R 3'
loop_
_symmetry_equiv_pos_site_id
_symmetry_equiv_pos_as_xyz
1 x,y,z
2 -y,x-y,z
3 -x+y,-x,z
4 2/3+x,1/3+y,1/3+z
5 2/3-y,1/3+x-y,1/3+z
6 2/3-x+y,1/3-x,1/3+z
7 1/3+x,2/3+y,2/3+z
8 1/3-y,2/3+x-y,2/3+z
9 1/3-x+y,2/3-x,2/3+z
10 -x,-y,-z
11 y,-x+y,-z
12 x-y,x,-z
13 1/3-x,2/3-y,2/3-z
14 1/3+y,2/3-x+y,2/3-z
15 1/3+x-y,2/3+x,2/3-z
16 2/3-x,1/3-y,1/3-z
17 2/3+y,1/3-x+y,1/3-z
18 2/3+x-y,1/3+x,1/3-z
_cell_length_a                   33.1400(7)
_cell_length_b                   33.1400(7)
_cell_length_c                   40.4805(12)
_cell_angle_alpha                90
_cell_angle_beta                 90
_cell_angle_gamma                120
_cell_volume                     38501.8
_exptl_crystal_description       block
_cell_formula_units_Z            6
loop_
_atom_site_label
_atom_site_type_symbol
_atom_site_fract_x
_atom_site_fract_y
_atom_site_fract_z
C53 C 0.6932(10) -0.0126(11) 0.2525(8)
F1 F 0.6827(13) -0.0507(11) 0.2359(9)
F2 F 0.6841(18) -0.0229(18) 0.2842(7)
F3 F 0.7381(9) 0.0182(13) 0.2488(14)
O1 O 0.6109(8) -0.0252(13) 0.2394(13)
O2 O 0.6749(16) 0.0254(17) 0.2031(8)
O3 O 0.6707(19) 0.0509(15) 0.2589(12)
S1 S 0.6586(7) 0.0127(7) 0.2363(6)
C54 C 0.907(2) 0.7081(14) 0.9807(13)
F4 F 0.898(5) 0.695(3) 0.9490(11)
F5 F 0.885(6) 0.731(4) 0.988(3)
F6 F 0.953(3) 0.738(3) 0.984(4)
O4 O 0.8854(19) 0.6215(13) 0.9840(11)
O5 O 0.8424(12) 0.6454(18) 1.0187(14)
O6 O 0.9235(17) 0.671(2) 1.0317(12)
S2 S 0.8884(6) 0.6575(6) 1.0073(5)
Ir1 Ir 0.92026(4) 0.51847(4) 0.03394(3)
Ir2 Ir 0.85108(4) 0.46690(4) -0.04194(3)
Ir3 Ir 0.86974(4) 0.33119(4) 0.22095(3)
Ir4 Ir 0.77702(4) 0.20721(4) 0.22026(3)
Cl1 Cl 0.9283(3) 0.5271(3) -0.0256(2)
Cl2 Cl 0.8531(2) 0.2571(2) 0.2443(2)
N1 N 0.8733(7) 0.4141(7) 0.0461(5)
N2 N 0.8821(7) 0.4471(7) 0.0234(6)
N3 N 0.8573(7) 0.4283(7) -0.0029(6)
N4 N 0.8325(7) 0.3834(7) -0.0003(6)
N5 N 0.8458(7) 0.3112(7) 0.1482(6)
N6 N 0.8397(7) 0.2925(7) 0.1776(6)
N7 N 0.8064(7) 0.2475(7) 0.1778(6)
N8 N 0.7895(7) 0.2343(7) 0.1479(6)
N9 N 0.6900(10) 0.1689(7) 0.0467(6)
N10 N 0.6560(10) 0.1439(7) 0.0248(6)
N11 N 0.6617(11) 0.1677(8) -0.0024(6)
N12 N 0.7013(11) 0.2110(8) 0.0001(6)
N13 N 0.7813(7) 0.3353(7) 0.2343(5)
N14 N 0.7999(7) 0.3071(7) 0.2311(5)
N15 N 0.7655(7) 0.2629(7) 0.2293(5)
N16 N 0.7231(7) 0.2592(7) 0.2320(5)
C1 C 0.9415(10) 0.5700(10) 0.0735(8)
C2 C 0.9757(10) 0.5843(10) 0.0489(8)
C3 C 0.9924(10) 0.5525(10) 0.0455(8)
C4 C 0.9699(9) 0.5177(9) 0.0692(7)
C5 C 0.9347(9) 0.5254(9) 0.0856(7)
C6 C 0.9156(9) 0.5927(10) 0.0858(7)
C7 C 0.9953(11) 0.6316(11) 0.0302(8)
C8 C 1.0330(10) 0.5622(10) 0.0236(8)
C9 C 0.9785(12) 0.4777(12) 0.0761(9)
C10 C 0.9018(10) 0.4949(10) 0.1133(8)
C11 C 0.8643(7) 0.4856(6) -0.0939(6)
C12 C 0.8589(6) 0.4407(7) -0.0893(5)
C13 C 0.8135(7) 0.4110(6) -0.0765(5)
C14 C 0.7909(7) 0.4377(8) -0.0732(6)
C15 C 0.8223(8) 0.4838(7) -0.0839(6)
C16 C 0.9072(9) 0.5280(8) -0.1070(9)
C17 C 0.8950(9) 0.4269(10) -0.0967(8)
C18 C 0.7929(10) 0.3601(7) -0.0680(9)
C19 C 0.7421(8) 0.4200(12) -0.0605(9)
C20 C 0.8128(13) 0.5238(10) -0.0846(10)
C21 C 0.9209(12) 0.3782(12) 0.2563(9)
C22 C 0.8982(11) 0.3994(11) 0.2442(9)
C23 C 0.9029(11) 0.4042(11) 0.2110(9)
C24 C 0.9306(12) 0.3875(12) 0.1982(10)
C25 C 0.9436(10) 0.3691(10) 0.2283(8)
C26 C 0.9251(16) 0.3621(15) 0.2919(12)
C27 C 0.8740(15) 0.4137(15) 0.2677(12)
C28 C 0.8786(15) 0.4279(16) 0.1917(12)
C29 C 0.9484(17) 0.3928(17) 0.1652(13)
C30 C 0.9755(18) 0.3454(18) 0.2298(13)
C31 C 0.7740(9) 0.1428(9) 0.2325(8)
C32 C 0.7561(10) 0.1391(10) 0.2022(8)
C33 C 0.7153(9) 0.1453(9) 0.2051(8)
C34 C 0.7099(10) 0.1514(10) 0.2387(8)
C35 C 0.7465(10) 0.1526(10) 0.2570(8)
C36 C 0.8162(12) 0.1360(11) 0.2423(9)
C37 C 0.7687(11) 0.1239(11) 0.1700(8)
C38 C 0.6836(12) 0.1405(12) 0.1772(9)
C39 C 0.6708(12) 0.1556(12) 0.2536(9)
C40 C 0.7532(12) 0.1560(12) 0.2925(9)
C41 C 0.8413(10) 0.3749(10) 0.0308(8)
C42 C 0.8190(9) 0.3289(9) 0.0473(7)
C43 C 0.8317(10) 0.3242(10) 0.0786(8)
C44 C 0.8059(9) 0.2803(9) 0.0964(7)
C45 C 0.7696(9) 0.2416(9) 0.0779(7)
C46 C 0.7580(9) 0.2482(9) 0.0466(7)
C47 C 0.7814(9) 0.2903(9) 0.0299(7)
C48 C 0.8139(11) 0.2733(11) 0.1312(9)
C49 C 0.7186(14) 0.2094(10) 0.0305(8)
C50 C 0.7366(9) 0.3050(9) 0.2344(7)
C51 C 0.7000(9) 0.3192(9) 0.2362(7)
C52 C 0.6527(10) 0.2858(9) 0.2380(7)
N13A N 0.6647(7) 0.4460(10) 0.2343(5)
N14A N 0.6929(7) 0.4928(10) 0.2311(5)
N15A N 0.7371(7) 0.5026(10) 0.2293(5)
N16A N 0.7408(7) 0.4639(10) 0.2320(5)
C50A C 0.6950(9) 0.4316(13) 0.2344(7)
C51A C 0.6808(9) 0.3808(13) 0.2362(7)
C52A C 0.7142(9) 0.3669(13) 0.2380(7)
N13B N 0.5540(10) 0.2187(7) 0.2343(5)
N14B N 0.5072(10) 0.2001(7) 0.2311(5)
N15B N 0.4974(10) 0.2345(7) 0.2293(5)
N16B N 0.5361(10) 0.2769(7) 0.2320(5)
C50B C 0.5684(13) 0.2634(9) 0.2344(7)
C51B C 0.6192(13) 0.3000(9) 0.2362(7)
C52B C 0.6331(13) 0.3473(10) 0.2380(7)
Ir1A Ir 0.48153(4) 0.40179(6) 0.03394(3)
Ir2A Ir 0.53310(4) 0.38418(6) -0.04194(3)
Ir3A Ir 0.66881(4) 0.53855(6) 0.22095(3)
Ir4A Ir 0.79279(4) 0.56981(6) 0.22026(3)
Cl1A Cl 0.4729(3) 0.4012(4) -0.0256(2)
Cl2A Cl 0.7429(2) 0.5960(3) 0.2443(2)
N1A N 0.5859(7) 0.4592(10) 0.0461(5)
N2A N 0.5529(7) 0.4350(10) 0.0234(6)
N3A N 0.5717(7) 0.4290(10) -0.0029(6)
N4A N 0.6166(7) 0.4491(10) -0.0003(6)
N5A N 0.6888(7) 0.5346(10) 0.1482(6)
N6A N 0.7075(7) 0.5472(10) 0.1776(6)
N7A N 0.7525(7) 0.5589(10) 0.1778(6)
N8A N 0.7657(7) 0.5552(10) 0.1479(6)
N9A N 0.8311(7) 0.5211(12) 0.0467(6)
N10A N 0.8561(7) 0.5121(12) 0.0248(6)
N11A N 0.8323(8) 0.4940(14) -0.0024(6)
N12A N 0.7890(8) 0.4903(14) 0.0001(6)
C1A C 0.4300(10) 0.3715(14) 0.0735(8)
C2A C 0.4157(10) 0.3914(14) 0.0489(8)
C3A C 0.4475(10) 0.4399(14) 0.0455(8)
C4A C 0.4823(9) 0.4522(13) 0.0692(7)
C5A C 0.4746(9) 0.4093(13) 0.0856(7)
C6A C 0.4073(10) 0.3229(13) 0.0858(7)
C7A C 0.3684(11) 0.3637(16) 0.0302(8)
C8A C 0.4378(10) 0.4708(14) 0.0236(8)
C9A C 0.5223(12) 0.5008(17) 0.0761(9)
C10A C 0.5051(10) 0.4069(14) 0.1133(8)
C11A C 0.5144(6) 0.3787(9) -0.0939(6)
C12A C 0.5593(7) 0.4182(9) -0.0893(5)
C13A C 0.5890(6) 0.4025(9) -0.0765(5)
C14A C 0.5623(8) 0.3532(11) -0.0732(6)
C15A C 0.5162(7) 0.3385(11) -0.0839(6)
C16A C 0.4720(8) 0.3792(12) -0.1070(9)
C17A C 0.5731(10) 0.4681(13) -0.0967(8)
C18A C 0.6399(7) 0.4328(12) -0.0680(9)
C19A C 0.5800(12) 0.3221(14) -0.0605(9)
C20A C 0.4762(10) 0.2890(16) -0.0846(10)
C21A C 0.6218(12) 0.5427(17) 0.2563(9)
C22A C 0.6006(11) 0.4988(16) 0.2442(9)
C23A C 0.5958(11) 0.4987(16) 0.2110(9)
C24A C 0.6125(12) 0.5431(17) 0.1982(10)
C25A C 0.6309(10) 0.5745(14) 0.2283(8)
C26A C 0.6379(15) 0.5630(22) 0.2919(12)
C27A C 0.5863(15) 0.4603(21) 0.2677(12)
C28A C 0.5721(16) 0.4507(22) 0.1917(12)
C29A C 0.6072(17) 0.5556(24) 0.1652(13)
C30A C 0.6546(18) 0.6301(25) 0.2298(13)
C31A C 0.8572(9) 0.6312(13) 0.2325(8)
C32A C 0.8609(10) 0.6170(14) 0.2022(8)
C33A C 0.8547(9) 0.5700(13) 0.2051(8)
C34A C 0.8486(10) 0.5585(14) 0.2387(8)
C35A C 0.8474(10) 0.5939(14) 0.2570(8)
C36A C 0.8640(11) 0.6802(16) 0.2423(9)
C37A C 0.8761(11) 0.6448(16) 0.1700(8)
C38A C 0.8595(12) 0.5431(17) 0.1772(9)
C39A C 0.8444(12) 0.5152(17) 0.2536(9)
C40A C 0.8440(12) 0.5972(17) 0.2925(9)
C41A C 0.6251(10) 0.4664(14) 0.0308(8)
C42A C 0.6711(9) 0.4901(13) 0.0473(7)
C43A C 0.6758(10) 0.5075(14) 0.0786(8)
C44A C 0.7197(9) 0.5256(13) 0.0964(7)
C45A C 0.7584(9) 0.5280(13) 0.0779(7)
C46A C 0.7518(9) 0.5098(13) 0.0466(7)
C47A C 0.7097(9) 0.4911(13) 0.0299(7)
C48A C 0.7267(11) 0.5406(16) 0.1312(9)
C49A C 0.7906(10) 0.5092(17) 0.0305(8)
Ir1B Ir 0.59821(6) 0.07974(4) 0.03394(3)
Ir2B Ir 0.61582(6) 0.14892(4) -0.04194(3)
Ir3B Ir 0.46145(6) 0.13026(4) 0.22095(3)
Ir4B Ir 0.43019(6) 0.22298(4) 0.22026(3)
Cl1B Cl 0.5988(4) 0.0717(3) -0.0256(2)
Cl2B Cl 0.4040(3) 0.1469(2) 0.2443(2)
N1B N 0.5408(10) 0.1267(7) 0.0461(5)
N2B N 0.5650(10) 0.1179(7) 0.0234(6)
N3B N 0.5710(10) 0.1427(7) -0.0029(6)
N4B N 0.5509(10) 0.1675(7) -0.0003(6)
N5B N 0.4654(10) 0.1542(7) 0.1482(6)
N6B N 0.4528(10) 0.1603(7) 0.1776(6)
N7B N 0.4411(10) 0.1936(7) 0.1778(6)
N8B N 0.4448(10) 0.2105(7) 0.1479(6)
N9B N 0.4789(12) 0.3100(10) 0.0467(6)
N10B N 0.4879(12) 0.3440(10) 0.0248(6)
N11B N 0.5060(14) 0.3383(11) -0.0024(6)
N12B N 0.5097(14) 0.2987(11) 0.0001(6)
C1B C 0.6285(14) 0.0585(10) 0.0735(8)
C2B C 0.6086(14) 0.0243(10) 0.0489(8)
C3B C 0.5601(14) 0.0076(10) 0.0455(8)
C4B C 0.5478(13) 0.0301(9) 0.0692(7)
C5B C 0.5907(13) 0.0653(9) 0.0856(7)
C6B C 0.6771(13) 0.0844(9) 0.0858(7)
C7B C 0.6363(16) 0.0047(11) 0.0302(8)
C8B C 0.5292(14) -0.0330(10) 0.0236(8)
C9B C 0.4992(17) 0.0215(12) 0.0761(9)
C10B C 0.5931(14) 0.0982(10) 0.1133(8)
C11B C 0.6213(9) 0.1357(7) -0.0939(6)
C12B C 0.5818(9) 0.1411(6) -0.0893(5)
C13B C 0.5975(9) 0.1865(7) -0.0765(5)
C14B C 0.6468(11) 0.2091(7) -0.0732(6)
C15B C 0.6615(11) 0.1777(8) -0.0839(6)
C16B C 0.6208(12) 0.0928(9) -0.1070(9)
C17B C 0.5319(13) 0.1050(9) -0.0967(8)
C18B C 0.5672(12) 0.2071(10) -0.0680(9)
C19B C 0.6779(14) 0.2579(8) -0.0605(9)
C20B C 0.7110(16) 0.1872(13) -0.0846(10)
C21B C 0.4573(17) 0.0791(12) 0.2563(9)
C22B C 0.5012(16) 0.1018(11) 0.2442(9)
C23B C 0.5013(16) 0.0971(11) 0.2110(9)
C24B C 0.4569(17) 0.0694(12) 0.1982(10)
C25B C 0.4255(14) 0.0564(10) 0.2283(8)
C26B C 0.4370(22) 0.0749(16) 0.2919(12)
C27B C 0.5397(21) 0.1260(15) 0.2677(12)
C28B C 0.5493(22) 0.1214(15) 0.1917(12)
C29B C 0.4444(24) 0.0516(17) 0.1652(13)
C30B C 0.3699(25) 0.0245(18) 0.2298(13)
C31B C 0.3688(13) 0.2260(9) 0.2325(8)
C32B C 0.3830(14) 0.2439(10) 0.2022(8)
C33B C 0.4300(13) 0.2847(9) 0.2051(8)
C34B C 0.4415(14) 0.2901(10) 0.2387(8)
C35B C 0.4061(14) 0.2535(10) 0.2570(8)
C36B C 0.3198(16) 0.1838(12) 0.2423(9)
C37B C 0.3552(16) 0.2313(11) 0.1700(8)
C38B C 0.4569(17) 0.3164(12) 0.1772(9)
C39B C 0.4848(17) 0.3292(12) 0.2536(9)
C40B C 0.4028(17) 0.2468(12) 0.2925(9)
C41B C 0.5336(14) 0.1587(10) 0.0308(8)
C42B C 0.5099(13) 0.1810(9) 0.0473(7)
C43B C 0.4925(14) 0.1683(10) 0.0786(8)
C44B C 0.4744(13) 0.1941(9) 0.0964(7)
C45B C 0.4720(13) 0.2304(9) 0.0779(7)
C46B C 0.4902(13) 0.2420(9) 0.0466(7)
C47B C 0.5089(13) 0.2186(9) 0.0299(7)
C48B C 0.4594(16) 0.1861(11) 0.1312(9)
C49B C 0.4908(17) 0.2814(14) 0.0305(8)
loop_
_geom_bond_atom_site_label_1
_geom_bond_atom_site_label_2
_geom_bond_site_symmetry_1
_geom_bond_site_symmetry_2
Ir1 Cl1 1_555 1_555
Ir2 Cl1 1_555 1_555
Ir3 Cl2 1_555 1_555
Ir4 Cl2 1_555 1_555
N1 N2 1_555 1_555
N2 Ir1 1_555 1_555
N3 Ir2 1_555 1_555
N4 N3 1_555 1_555
N5 N6 1_555 1_555
N6 Ir3 1_555 1_555
N7 Ir4 1_555 1_555
N8 N7 1_555 1_555
N9 N10 1_555 1_555
N10 N11 1_555 1_555
N11 N12 1_555 1_555
N12 C49 1_555 1_555
N13 N14 1_555 1_555
N14 Ir3 1_555 1_555
N15 Ir4 1_555 1_555
N16 N15 1_555 1_555
C1 Ir1 1_555 1_555
C2 Ir1 1_555 1_555
C3 Ir1 1_555 1_555
C4 Ir1 1_555 1_555
C5 Ir1 1_555 1_555
C6 C1 1_555 1_555
C7 C2 1_555 1_555
C8 C3 1_555 1_555
C9 C4 1_555 1_555
C10 C5 1_555 1_555
C11 Ir2 1_555 1_555
C12 Ir2 1_555 1_555
C13 Ir2 1_555 1_555
C14 Ir2 1_555 1_555
C15 Ir2 1_555 1_555
C16 C11 1_555 1_555
C17 C12 1_555 1_555
C18 C13 1_555 1_555
C19 C14 1_555 1_555
C20 C15 1_555 1_555
C21 Ir3 1_555 1_555
C22 Ir3 1_555 1_555
C23 Ir3 1_555 1_555
C24 Ir3 1_555 1_555
C25 Ir3 1_555 1_555
C26 C21 1_555 1_555
C27 C22 1_555 1_555
C28 C23 1_555 1_555
C29 C24 1_555 1_555
C30 C25 1_555 1_555
C31 Ir4 1_555 1_555
C32 Ir4 1_555 1_555
C33 Ir4 1_555 1_555
C34 Ir4 1_555 1_555
C35 Ir4 1_555 1_555
C36 C31 1_555 1_555
C37 C32 1_555 1_555
C38 C33 1_555 1_555
C39 C34 1_555 1_555
C40 C35 1_555 1_555
C41 N1 1_555 1_555
C42 C41 1_555 1_555
C43 C42 1_555 1_555
C44 C43 1_555 1_555
C45 C44 1_555 1_555
C46 C45 1_555 1_555
C47 C42 1_555 1_555
C48 N5 1_555 1_555
C49 N9 1_555 1_555
C50 N13 1_555 1_555
C51 C50 1_555 1_555
C52 C51 1_555 1_555
C53 F1 1_555 1_555
F2 C53 1_555 1_555
F3 C53 1_555 1_555
O1 S1 1_555 1_555
O2 S1 1_555 1_555
O3 S1 1_555 1_555
S1 C53 1_555 1_555
C54 F4 1_555 1_555
F5 C54 1_555 1_555
F6 C54 1_555 1_555
O4 S2 1_555 1_555
O5 S2 1_555 1_555
O6 S2 1_555 1_555
S2 C54 1_555 1_555
N13A N14A 1_555 1_555
N14A N15A 1_555 1_555
N15A N16A 1_555 1_555
N16A C50A 1_555 1_555
C50A N13A 1_555 1_555
C51A C50A 1_555 1_555
C52A C51 1_555 1_555
N13B N14B 1_555 1_555
N14B N15B 1_555 1_555
N15B N16B 1_555 1_555
N16B C50B 1_555 1_555
C50B N13B 1_555 1_555
C51B C52 1_555 1_555
C52B C51A 1_555 1_555
Ir1A Cl1A 1_555 1_555
Ir2A Cl1A 1_555 1_555
Ir3A N14A 1_555 1_555
Ir4A N15A 1_555 1_555
Cl2A Ir3A 1_555 1_555
N1A N2A 1_555 1_555
N2A Ir1A 1_555 1_555
N3A Ir2A 1_555 1_555
N4A N3A 1_555 1_555
N5A N6A 1_555 1_555
N6A Ir3A 1_555 1_555
N7A Ir4A 1_555 1_555
N8A N7A 1_555 1_555
N9A N10A 1_555 1_555
N10A Ir1 1_555 1_555
N11A Ir2 1_555 1_555
N12A N11A 1_555 1_555
C1A Ir1A 1_555 1_555
C2A Ir1A 1_555 1_555
C3A Ir1A 1_555 1_555
C4A Ir1A 1_555 1_555
C5A Ir1A 1_555 1_555
C6A C1A 1_555 1_555
C7A C2A 1_555 1_555
C8A C3A 1_555 1_555
C9A C4A 1_555 1_555
C10A C5A 1_555 1_555
C11A Ir2A 1_555 1_555
C12A Ir2A 1_555 1_555
C13A Ir2A 1_555 1_555
C14A Ir2A 1_555 1_555
C15A Ir2A 1_555 1_555
C16A C11A 1_555 1_555
C17A C12A 1_555 1_555
C18A C13A 1_555 1_555
C19A C14A 1_555 1_555
C20A C15A 1_555 1_555
C21A Ir3A 1_555 1_555
C22A Ir3A 1_555 1_555
C23A Ir3A 1_555 1_555
C24A Ir3A 1_555 1_555
C25A Ir3A 1_555 1_555
C26A C21A 1_555 1_555
C27A C22A 1_555 1_555
C28A C23A 1_555 1_555
C29A C24A 1_555 1_555
C30A C25A 1_555 1_555
C31A Ir4A 1_555 1_555
C32A Ir4A 1_555 1_555
C33A Ir4A 1_555 1_555
C34A Ir4A 1_555 1_555
C35A Ir4A 1_555 1_555
C36A C31A 1_555 1_555
C37A C32A 1_555 1_555
C38A C33A 1_555 1_555
C39A C34A 1_555 1_555
C40A C35A 1_555 1_555
C41A N1A 1_555 1_555
C42A C41A 1_555 1_555
C43A C42A 1_555 1_555
C44A C43A 1_555 1_555
C45A C44A 1_555 1_555
C46A C45A 1_555 1_555
C47A C42A 1_555 1_555
C48A N5A 1_555 1_555
C49A N9A 1_555 1_555
Ir1B N10 1_555 1_555
Ir2B N11 1_555 1_555
Ir3B N14B 1_555 1_555
Ir4B N15B 1_555 1_555
Cl1B Ir1B 1_555 1_555
Cl2B Ir3B 1_555 1_555
N1B N2B 1_555 1_555
N2B Ir1B 1_555 1_555
N3B Ir2B 1_555 1_555
N4B N3B 1_555 1_555
N5B N6B 1_555 1_555
N6B Ir3B 1_555 1_555
N7B Ir4B 1_555 1_555
N8B N7B 1_555 1_555
N9B N10B 1_555 1_555
N10B Ir1A 1_555 1_555
N11B Ir2A 1_555 1_555
N12B N11B 1_555 1_555
C1B Ir1B 1_555 1_555
C2B Ir1B 1_555 1_555
C3B Ir1B 1_555 1_555
C4B Ir1B 1_555 1_555
C5B Ir1B 1_555 1_555
C6B C1B 1_555 1_555
C7B C2B 1_555 1_555
C8B C3B 1_555 1_555
C9B C4B 1_555 1_555
C10B C5B 1_555 1_555
C11B Ir2B 1_555 1_555
C12B Ir2B 1_555 1_555
C13B Ir2B 1_555 1_555
C14B Ir2B 1_555 1_555
C15B Ir2B 1_555 1_555
C16B C11B 1_555 1_555
C17B C12B 1_555 1_555
C18B C13B 1_555 1_555
C19B C14B 1_555 1_555
C20B C15B 1_555 1_555
C21B Ir3B 1_555 1_555
C22B Ir3B 1_555 1_555
C23B Ir3B 1_555 1_555
C24B Ir3B 1_555 1_555
C25B Ir3B 1_555 1_555
C26B C21B 1_555 1_555
C27B C22B 1_555 1_555
C28B C23B 1_555 1_555
C29B C24B 1_555 1_555
C30B C25B 1_555 1_555
C31B Ir4B 1_555 1_555
C32B Ir4B 1_555 1_555
C33B Ir4B 1_555 1_555
C34B Ir4B 1_555 1_555
C35B Ir4B 1_555 1_555
C36B C31B 1_555 1_555
C37B C32B 1_555 1_555
C38B C33B 1_555 1_555
C39B C34B 1_555 1_555
C40B C35B 1_555 1_555
C41B N1B 1_555 1_555
C42B C41B 1_555 1_555
C43B C42B 1_555 1_555
C44B C43B 1_555 1_555
C45B C44B 1_555 1_555
C46B C45B 1_555 1_555
C47B C42B 1_555 1_555
C48B N5B 1_555 1_555
C49B N9B 1_555 1_555
N2 N3 1_555 1_555
N4 C41 1_555 1_555
N6 N7 1_555 1_555
N8 C48 1_555 1_555
N14 N15 1_555 1_555
N16 C50 1_555 1_555
C1 C2 1_555 1_555
C1 C5 1_555 1_555
C2 C3 1_555 1_555
C3 C4 1_555 1_555
C4 C5 1_555 1_555
C11 C12 1_555 1_555
C11 C15 1_555 1_555
C12 C13 1_555 1_555
C13 C14 1_555 1_555
C14 C15 1_555 1_555
C21 C22 1_555 1_555
C21 C25 1_555 1_555
C22 C23 1_555 1_555
C23 C24 1_555 1_555
C24 C25 1_555 1_555
C31 C32 1_555 1_555
C31 C35 1_555 1_555
C32 C33 1_555 1_555
C33 C34 1_555 1_555
C34 C35 1_555 1_555
C44 C48 1_555 1_555
C46 C47 1_555 1_555
C46 C49 1_555 1_555
C51A C52A 1_555 1_555
C50B C51B 1_555 1_555
C51B C52B 1_555 1_555
Ir4A Cl2A 1_555 1_555
N2A N3A 1_555 1_555
N4A C41A 1_555 1_555
N6A N7A 1_555 1_555
N8A C48A 1_555 1_555
N10A N11A 1_555 1_555
N12A C49A 1_555 1_555
C1A C2A 1_555 1_555
C1A C5A 1_555 1_555
C2A C3A 1_555 1_555
C3A C4A 1_555 1_555
C4A C5A 1_555 1_555
C11A C12A 1_555 1_555
C11A C15A 1_555 1_555
C12A C13A 1_555 1_555
C13A C14A 1_555 1_555
C14A C15A 1_555 1_555
C21A C22A 1_555 1_555
C21A C25A 1_555 1_555
C22A C23A 1_555 1_555
C23A C24A 1_555 1_555
C24A C25A 1_555 1_555
C31A C32A 1_555 1_555
C31A C35A 1_555 1_555
C32A C33A 1_555 1_555
C33A C34A 1_555 1_555
C34A C35A 1_555 1_555
C44A C48A 1_555 1_555
C46A C47A 1_555 1_555
C46A C49A 1_555 1_555
Ir2B Cl1B 1_555 1_555
Ir4B Cl2B 1_555 1_555
N2B N3B 1_555 1_555
N4B C41B 1_555 1_555
N6B N7B 1_555 1_555
N8B C48B 1_555 1_555
N10B N11B 1_555 1_555
N12B C49B 1_555 1_555
C1B C2B 1_555 1_555
C1B C5B 1_555 1_555
C2B C3B 1_555 1_555
C3B C4B 1_555 1_555
C4B C5B 1_555 1_555
C11B C12B 1_555 1_555
C11B C15B 1_555 1_555
C12B C13B 1_555 1_555
C13B C14B 1_555 1_555
C14B C15B 1_555 1_555
C21B C22B 1_555 1_555
C21B C25B 1_555 1_555
C22B C23B 1_555 1_555
C23B C24B 1_555 1_555
C24B C25B 1_555 1_555
C31B C32B 1_555 1_555
C31B C35B 1_555 1_555
C32B C33B 1_555 1_555
C33B C34B 1_555 1_555
C34B C35B 1_555 1_555
C44B C48B 1_555 1_555
C46B C47B 1_555 1_555
C46B C49B 1_555 1_555

#END
