
#######################################################################
#
#                 Cambridge Crystallographic Data Centre
#                                CCDC 
#
#######################################################################
#
# If this CIF has been generated from an entry in the Cambridge 
# Structural Database, then it will include bibliographic, chemical, 
# crystal, experimental, refinement or atomic coordinate data resulting 
# from the CCDC's data processing and validation procedures.
#
#######################################################################

data_DICZAT
_chemical_formula_moiety         'C84 H102 Cl3 Ir6 N24 3+,3(C1 F3 O3 S1 1-)'
_chemical_name_systematic        
"tris(\m-5,5'-(benzene-1,3-diyl)bis(tetrazolyl))-tris(\m-chloro)-hexakis(\h^5^-pentamethylcyclopentadienyl)-hexa-iridium(iii) tris(trifluoromethanesulfonate) unknown solvate"
_symmetry_cell_setting           triclinic
_symmetry_space_group_name_H-M   'P -1'
_symmetry_Int_Tables_number      2
_space_group_name_Hall           '-P 1'
loop_
_symmetry_equiv_pos_site_id
_symmetry_equiv_pos_as_xyz
1 x,y,z
2 -x,-y,-z
_cell_length_a                   13.8845(7)
_cell_length_b                   19.8526(11)
_cell_length_c                   22.3965(13)
_cell_angle_alpha                105.798(4)
_cell_angle_beta                 104.978(3)
_cell_angle_gamma                96.848(3)
_cell_volume                     5617.8
_exptl_crystal_description       needle
_cell_formula_units_Z            2
loop_
_atom_site_label
_atom_site_type_symbol
_atom_site_fract_x
_atom_site_fract_y
_atom_site_fract_z
Ir1 Ir 0.37820(11) 0.19339(8) 0.15339(8)
Ir2 Ir 0.25092(10) 0.03551(8) 0.00595(8)
Ir3 Ir 0.08757(11) 0.24177(8) 0.49718(8)
Ir4 Ir -0.15492(11) 0.11350(8) 0.45774(8)
Ir5 Ir 0.04376(11) 0.56759(9) 0.24852(9)
Ir6 Ir -0.21126(13) 0.56429(11) 0.14111(10)
N1 N 0.197(2) 0.2436(17) 0.0813(16)
N2 N 0.245(2) 0.1894(15) 0.0815(14)
N3 N 0.203(2) 0.1303(16) 0.0258(15)
N4 N 0.121(3) 0.1444(18) -0.0094(16)
N5 N 0.267(2) 0.0890(16) 0.2020(15)
N6 N 0.296(2) 0.0993(17) 0.1574(16)
N7 N 0.252(2) 0.0422(17) 0.1022(16)
N8 N 0.207(2) -0.0075(16) 0.1189(16)
N9 N -0.058(2) 0.0392(16) 0.3562(15)
N10 N -0.049(3) 0.0989(18) 0.4071(17)
N11 N 0.0409(19) 0.1480(14) 0.4214(13)
N12 N 0.091(2) 0.1191(16) 0.3829(15)
N13 N -0.078(3) 0.3116(18) 0.4372(17)
N14 N -0.059(2) 0.2609(15) 0.4549(14)
N15 N -0.144(2) 0.2131(14) 0.4427(13)
N16 N -0.223(2) 0.2386(17) 0.4174(16)
N17 N -0.129(3) 0.452(2) 0.055(2)
N18 N -0.108(3) 0.5004(19) 0.1110(18)
N19 N -0.021(3) 0.5051(18) 0.1515(17)
N20 N 0.023(3) 0.4494(19) 0.1235(17)
N21 N -0.257(2) 0.4844(17) 0.2355(16)
N22 N -0.184(2) 0.5192(16) 0.2158(15)
N23 N -0.097(3) 0.5243(18) 0.2587(17)
N24 N -0.104(2) 0.4852(15) 0.2948(14)
C1 C 0.531(3) 0.230(2) 0.2239(19)
C2 C 0.518(3) 0.277(2) 0.187(2)
C3 C 0.429(3) 0.309(2) 0.189(2)
C4 C 0.393(3) 0.281(2) 0.236(2)
C5 C 0.457(3) 0.2339(19) 0.2593(18)
C6 C 0.626(2) 0.1932(14) 0.2457(14)
C7 C 0.576(4) 0.291(3) 0.139(3)
C8 C 0.387(4) 0.362(3) 0.161(3)
C9 C 0.304(3) 0.301(2) 0.263(2)
C10 C 0.457(4) 0.203(3) 0.308(2)
C11 C 0.191(3) 0.006(2) -0.100(2)
C12 C 0.284(3) -0.021(2) -0.082(2)
C13 C 0.276(3) -0.066(2) -0.0429(18)
C14 C 0.170(3) -0.075(2) -0.042(2)
C15 C 0.124(3) -0.037(2) -0.0741(19)
C16 C 0.163(4) 0.048(3) -0.143(3)
C17 C 0.382(3) 0.002(2) -0.100(2)
C18 C 0.349(4) -0.110(3) -0.020(3)
C19 C 0.133(3) -0.127(2) -0.0120(19)
C20 C 0.006(3) -0.029(2) -0.089(2)
C21 C 0.194(3) 0.318(2) 0.480(2)
C22 C 0.250(3) 0.260(2) 0.505(2)
C23 C 0.237(4) 0.260(2) 0.564(2)
C24 C 0.182(3) 0.3230(18) 0.5845(17)
C25 C 0.169(3) 0.3520(19) 0.5343(18)
C26 C 0.193(4) 0.325(3) 0.420(3)
C27 C 0.306(5) 0.209(3) 0.472(3)
C28 C 0.276(4) 0.221(3) 0.613(2)
C29 C 0.171(3) 0.342(2) 0.650(2)
C30 C 0.124(4) 0.416(3) 0.531(3)
C31 C -0.211(3) 0.021(2) 0.479(2)
C32 C -0.249(3) 0.013(2) 0.415(2)
C33 C -0.307(3) 0.061(2) 0.4036(19)
C34 C -0.304(3) 0.104(2) 0.468(2)
C35 C -0.245(3) 0.079(2) 0.515(2)
C36 C -0.147(4) -0.025(3) 0.507(2)
C37 C -0.243(4) -0.051(3) 0.359(3)
C38 C -0.369(5) 0.064(3) 0.337(3)
C39 C -0.369(4) 0.163(3) 0.481(3)
C40 C -0.222(4) 0.107(3) 0.588(3)
C41 C 0.146(3) 0.555(2) 0.336(2)
C42 C 0.182(3) 0.532(2) 0.283(2)
C43 C 0.203(3) 0.580(2) 0.254(2)
C44 C 0.187(3) 0.647(2) 0.291(2)
C45 C 0.149(3) 0.628(2) 0.342(2)
C46 C 0.127(4) 0.521(3) 0.382(3)
C47 C 0.195(5) 0.452(4) 0.252(3)
C48 C 0.244(4) 0.577(3) 0.194(3)
C49 C 0.203(5) 0.720(3) 0.288(3)
C50 C 0.126(4) 0.686(3) 0.396(3)
C51 C -0.271(2) 0.6255(16) 0.0799(15)
C52 C -0.306(2) 0.5513(17) 0.0458(13)
C53 C -0.366(2) 0.5221(13) 0.0793(14)
C54 C -0.3665(19) 0.5783(14) 0.1341(12)
C55 C -0.308(2) 0.6422(13) 0.1344(13)
C56 C -0.205(4) 0.677(2) 0.061(2)
C57 C -0.285(4) 0.511(2) -0.0153(17)
C58 C -0.418(4) 0.4450(14) 0.060(2)
C59 C -0.420(3) 0.571(2) 0.1833(17)
C60 C -0.288(4) 0.7151(14) 0.1841(19)
C61 C 0.216(3) 0.020(2) 0.181(2)
C62 C 0.158(3) -0.0109(19) 0.2187(18)
C63 C 0.129(3) 0.034(2) 0.2628(19)
C64 C 0.066(3) 0.005(2) 0.2956(19)
C65 C 0.037(3) 0.0552(18) 0.3455(18)
C66 C 0.043(3) -0.067(2) 0.282(2)
C67 C 0.078(3) -0.113(2) 0.236(2)
C68 C 0.138(3) -0.085(2) 0.205(2)
C69 C -0.183(3) 0.300(2) 0.4126(18)
C70 C -0.236(3) 0.3455(18) 0.3821(17)
C71 C -0.195(3) 0.385(2) 0.346(2)
C72 C -0.247(3) 0.4257(19) 0.3190(18)
C73 C -0.351(3) 0.4303(19) 0.3253(18)
C74 C -0.384(3) 0.392(2) 0.361(2)
C75 C -0.329(3) 0.355(2) 0.393(2)
C76 C -0.206(2) 0.4663(15) 0.2828(15)
C77 C -0.043(3) 0.423(2) 0.066(2)
C78 C -0.038(3) 0.355(2) 0.019(2)
C79 C 0.036(3) 0.3203(19) 0.0394(18)
C80 C 0.043(3) 0.256(2) -0.002(2)
C81 C -0.020(3) 0.230(2) -0.066(2)
C82 C -0.095(4) 0.270(3) -0.085(3)
C83 C -0.100(4) 0.331(3) -0.047(3)
C84 C 0.118(3) 0.213(2) 0.021(2)
Cl1 Cl 0.4176(7) 0.1127(6) 0.0645(5)
Cl2 Cl -0.0021(7) 0.1736(5) 0.5496(5)
Cl3 Cl -0.0559(8) 0.6493(6) 0.2123(6)
C85 C 0.517(4) 0.423(3) 0.5617(16)
F1 F 0.607(4) 0.448(4) 0.558(3)
F2 F 0.487(4) 0.362(2) 0.513(2)
F3 F 0.451(5) 0.463(4) 0.547(3)
O1 O 0.554(4) 0.490(3) 0.686(2)
O2 O 0.405(4) 0.389(3) 0.636(2)
O3 O 0.577(5) 0.358(4) 0.652(3)
S1 S 0.5139(15) 0.4155(11) 0.6402(9)
C86 C -0.013(3) 0.7703(19) 0.7679(18)
F4 F 0.006(6) 0.777(4) 0.828(4)
F5 F -0.021(5) 0.705(4) 0.740(3)
F6 F -0.098(4) 0.800(3) 0.726(3)
O4 O 0.085(4) 0.894(3) 0.769(3)
O5 O 0.094(4) 0.796(3) 0.695(3)
O6 O 0.182(5) 0.827(3) 0.822(3)
S2 S 0.1025(18) 0.8197(13) 0.7618(12)
C87 C 0.446(5) 0.857(2) 0.183(3)
F7 F 0.389(7) 0.857(3) 0.125(3)
F8 F 0.419(7) 0.902(2) 0.228(4)
F9 F 0.543(5) 0.881(5) 0.190(5)
O7 O 0.452(7) 0.723(3) 0.133(3)
O8 O 0.331(4) 0.750(4) 0.193(5)
O9 O 0.512(6) 0.776(3) 0.251(3)
S3 S 0.435(3) 0.7677(18) 0.1905(18)
loop_
_geom_bond_atom_site_label_1
_geom_bond_atom_site_label_2
_geom_bond_site_symmetry_1
_geom_bond_site_symmetry_2
Ir1 N2 1_555 1_555
Ir2 N3 1_555 1_555
Ir3 N11 1_555 1_555
Ir4 N10 1_555 1_555
Ir5 N19 1_555 1_555
Ir6 N18 1_555 1_555
N1 N2 1_555 1_555
N2 N3 1_555 1_555
N3 N4 1_555 1_555
N4 C84 1_555 1_555
N5 N6 1_555 1_555
N6 Ir1 1_555 1_555
N7 Ir2 1_555 1_555
N8 N7 1_555 1_555
N9 N10 1_555 1_555
N10 N11 1_555 1_555
N11 N12 1_555 1_555
N12 C65 1_555 1_555
N13 N14 1_555 1_555
N14 Ir3 1_555 1_555
N15 Ir4 1_555 1_555
N16 N15 1_555 1_555
N17 N18 1_555 1_555
N18 N19 1_555 1_555
N19 N20 1_555 1_555
N20 C77 1_555 1_555
N21 N22 1_555 1_555
N22 Ir6 1_555 1_555
N23 Ir5 1_555 1_555
N24 N23 1_555 1_555
C1 Ir1 1_555 1_555
C2 Ir1 1_555 1_555
C3 Ir1 1_555 1_555
C4 Ir1 1_555 1_555
C5 Ir1 1_555 1_555
C6 C1 1_555 1_555
C7 C2 1_555 1_555
C8 C3 1_555 1_555
C9 C4 1_555 1_555
C10 C5 1_555 1_555
C11 Ir2 1_555 1_555
C12 Ir2 1_555 1_555
C13 Ir2 1_555 1_555
C14 Ir2 1_555 1_555
C15 Ir2 1_555 1_555
C16 C11 1_555 1_555
C17 C12 1_555 1_555
C18 C13 1_555 1_555
C19 C14 1_555 1_555
C20 C15 1_555 1_555
C21 Ir3 1_555 1_555
C22 Ir3 1_555 1_555
C23 Ir3 1_555 1_555
C24 Ir3 1_555 1_555
C25 Ir3 1_555 1_555
C26 C21 1_555 1_555
C27 C22 1_555 1_555
C28 C23 1_555 1_555
C29 C24 1_555 1_555
C30 C25 1_555 1_555
C31 Ir4 1_555 1_555
C32 Ir4 1_555 1_555
C33 Ir4 1_555 1_555
C34 Ir4 1_555 1_555
C35 Ir4 1_555 1_555
C36 C31 1_555 1_555
C37 C32 1_555 1_555
C38 C33 1_555 1_555
C39 C34 1_555 1_555
C40 C35 1_555 1_555
C41 Ir5 1_555 1_555
C42 Ir5 1_555 1_555
C43 Ir5 1_555 1_555
C44 Ir5 1_555 1_555
C45 Ir5 1_555 1_555
C46 C41 1_555 1_555
C47 C42 1_555 1_555
C48 C43 1_555 1_555
C49 C44 1_555 1_555
C50 C45 1_555 1_555
C51 Ir6 1_555 1_555
C52 Ir6 1_555 1_555
C53 Ir6 1_555 1_555
C54 Ir6 1_555 1_555
C55 Ir6 1_555 1_555
C56 C51 1_555 1_555
C57 C52 1_555 1_555
C58 C53 1_555 1_555
C59 C54 1_555 1_555
C60 C55 1_555 1_555
C61 N5 1_555 1_555
C62 C61 1_555 1_555
C63 C62 1_555 1_555
C64 C63 1_555 1_555
C65 N9 1_555 1_555
C66 C64 1_555 1_555
C67 C66 1_555 1_555
C68 C62 1_555 1_555
C69 N13 1_555 1_555
C70 C69 1_555 1_555
C71 C70 1_555 1_555
C72 C71 1_555 1_555
C73 C72 1_555 1_555
C74 C73 1_555 1_555
C75 C70 1_555 1_555
C76 N21 1_555 1_555
C77 N17 1_555 1_555
C78 C77 1_555 1_555
C79 C78 1_555 1_555
C80 C79 1_555 1_555
C81 C80 1_555 1_555
C82 C81 1_555 1_555
C83 C78 1_555 1_555
C84 N1 1_555 1_555
Cl1 Ir1 1_555 1_555
Cl2 Ir3 1_555 1_555
Cl3 Ir5 1_555 1_555
C85 F1 1_555 1_555
F2 C85 1_555 1_555
F3 C85 1_555 1_555
O1 S1 1_555 1_555
O2 S1 1_555 1_555
O3 S1 1_555 1_555
S1 C85 1_555 1_555
C86 F4 1_555 1_555
F5 C86 1_555 1_555
F6 C86 1_555 1_555
O4 S2 1_555 1_555
O5 S2 1_555 1_555
O6 S2 1_555 1_555
S2 C86 1_555 1_555
C87 F7 1_555 1_555
F8 C87 1_555 1_555
F9 C87 1_555 1_555
O7 S3 1_555 1_555
O8 S3 1_555 1_555
O9 S3 1_555 1_555
S3 C87 1_555 1_555
Ir2 Cl1 1_555 1_555
Ir4 Cl2 1_555 1_555
Ir6 Cl3 1_555 1_555
N6 N7 1_555 1_555
N8 C61 1_555 1_555
N14 N15 1_555 1_555
N16 C69 1_555 1_555
N22 N23 1_555 1_555
N24 C76 1_555 1_555
C1 C2 1_555 1_555
C1 C5 1_555 1_555
C2 C3 1_555 1_555
C3 C4 1_555 1_555
C4 C5 1_555 1_555
C11 C12 1_555 1_555
C11 C15 1_555 1_555
C12 C13 1_555 1_555
C13 C14 1_555 1_555
C14 C15 1_555 1_555
C21 C22 1_555 1_555
C21 C25 1_555 1_555
C22 C23 1_555 1_555
C23 C24 1_555 1_555
C24 C25 1_555 1_555
C31 C32 1_555 1_555
C31 C35 1_555 1_555
C32 C33 1_555 1_555
C33 C34 1_555 1_555
C34 C35 1_555 1_555
C41 C42 1_555 1_555
C41 C45 1_555 1_555
C42 C43 1_555 1_555
C43 C44 1_555 1_555
C44 C45 1_555 1_555
C51 C52 1_555 1_555
C51 C55 1_555 1_555
C52 C53 1_555 1_555
C53 C54 1_555 1_555
C54 C55 1_555 1_555
C64 C65 1_555 1_555
C67 C68 1_555 1_555
C72 C76 1_555 1_555
C74 C75 1_555 1_555
C80 C84 1_555 1_555
C82 C83 1_555 1_555

#END
