# generated using pymatgen
data_Zn3H200C116S27(N2O11)3
_symmetry_space_group_name_H-M   'P 1'
_cell_length_a   20.31700000
_cell_length_b   20.31700000
_cell_length_c   40.65150000
_cell_angle_alpha   90.00000000
_cell_angle_beta   90.00000000
_cell_angle_gamma   120.00000000
_symmetry_Int_Tables_number   1
_chemical_formula_structural   Zn3H200C116S27(N2O11)3
_chemical_formula_sum   'Zn18 H1200 C696 S162 N36 O198'
_cell_volume   14532.03275729
_cell_formula_units_Z   6
loop_
 _symmetry_equiv_pos_site_id
 _symmetry_equiv_pos_as_xyz
  1  'x, y, z'
loop_
 _atom_site_type_symbol
 _atom_site_label
 _atom_site_symmetry_multiplicity
 _atom_site_fract_x
 _atom_site_fract_y
 _atom_site_fract_z
 _atom_site_occupancy
  Zn  Zn1  1  0.515960  0.671100  0.815630  1.0
  Zn  Zn2  1  0.155140  0.484040  0.815630  1.0
  Zn  Zn3  1  0.328900  0.844860  0.815630  1.0
  Zn  Zn4  1  0.849293  0.337767  0.482297  1.0
  Zn  Zn5  1  0.488473  0.150707  0.482297  1.0
  Zn  Zn6  1  0.662233  0.511527  0.482297  1.0
  Zn  Zn7  1  0.182627  0.004433  0.148963  1.0
  Zn  Zn8  1  0.821807  0.817373  0.148963  1.0
  Zn  Zn9  1  0.995567  0.178193  0.148963  1.0
  Zn  Zn10  1  0.484040  0.328900  0.184370  1.0
  Zn  Zn11  1  0.844860  0.515960  0.184370  1.0
  Zn  Zn12  1  0.671100  0.155140  0.184370  1.0
  Zn  Zn13  1  0.150707  0.662233  0.517703  1.0
  Zn  Zn14  1  0.511527  0.849293  0.517703  1.0
  Zn  Zn15  1  0.337767  0.488473  0.517703  1.0
  Zn  Zn16  1  0.817373  0.995567  0.851037  1.0
  Zn  Zn17  1  0.178193  0.182627  0.851037  1.0
  Zn  Zn18  1  0.004433  0.821807  0.851037  1.0
  H  H19  1  0.333333  0.666667  0.862300  1
  H  H20  1  0.666667  0.333333  0.528967  1
  H  H21  1  0.000000  0.000000  0.195633  1
  H  H22  1  0.666667  0.333333  0.137700  1
  H  H23  1  0.333333  0.666667  0.471033  1
  H  H24  1  0.000000  0.000000  0.804367  1
  H  H25  1  0.333333  0.666667  0.769100  1
  H  H26  1  0.666667  0.333333  0.435767  1
  H  H27  1  0.000000  0.000000  0.102433  1
  H  H28  1  0.666667  0.333333  0.230900  1
  H  H29  1  0.333333  0.666667  0.564233  1
  H  H30  1  0.000000  0.000000  0.897567  1
  H  H31  1  0.587600  0.734300  0.719700  1
  H  H32  1  0.146700  0.412400  0.719700  1
  H  H33  1  0.265700  0.853300  0.719700  1
  H  H34  1  0.920933  0.400967  0.386367  1
  H  H35  1  0.480033  0.079067  0.386367  1
  H  H36  1  0.599033  0.519967  0.386367  1
  H  H37  1  0.254267  0.067633  0.053033  1
  H  H38  1  0.813367  0.745733  0.053033  1
  H  H39  1  0.932367  0.186633  0.053033  1
  H  H40  1  0.412400  0.265700  0.280300  1
  H  H41  1  0.853300  0.587600  0.280300  1
  H  H42  1  0.734300  0.146700  0.280300  1
  H  H43  1  0.079067  0.599033  0.613633  1
  H  H44  1  0.519967  0.920933  0.613633  1
  H  H45  1  0.400967  0.480033  0.613633  1
  H  H46  1  0.745733  0.932367  0.946967  1
  H  H47  1  0.186633  0.254267  0.946967  1
  H  H48  1  0.067633  0.813367  0.946967  1
  H  H49  1  0.574400  0.804300  0.712500  1
  H  H50  1  0.229900  0.425600  0.712500  1
  H  H51  1  0.195700  0.770100  0.712500  1
  H  H52  1  0.907733  0.470967  0.379167  1
  H  H53  1  0.563233  0.092267  0.379167  1
  H  H54  1  0.529033  0.436767  0.379167  1
  H  H55  1  0.241067  0.137633  0.045833  1
  H  H56  1  0.896567  0.758933  0.045833  1
  H  H57  1  0.862367  0.103433  0.045833  1
  H  H58  1  0.425600  0.195700  0.287500  1
  H  H59  1  0.770100  0.574400  0.287500  1
  H  H60  1  0.804300  0.229900  0.287500  1
  H  H61  1  0.092267  0.529033  0.620833  1
  H  H62  1  0.436767  0.907733  0.620833  1
  H  H63  1  0.470967  0.563233  0.620833  1
  H  H64  1  0.758933  0.862367  0.954167  1
  H  H65  1  0.103433  0.241067  0.954167  1
  H  H66  1  0.137633  0.896567  0.954167  1
  H  H67  1  0.587700  0.786000  0.749400  1
  H  H68  1  0.198300  0.412300  0.749400  1
  H  H69  1  0.214000  0.801700  0.749400  1
  H  H70  1  0.921033  0.452667  0.416067  1
  H  H71  1  0.531633  0.078967  0.416067  1
  H  H72  1  0.547333  0.468367  0.416067  1
  H  H73  1  0.254367  0.119333  0.082733  1
  H  H74  1  0.864967  0.745633  0.082733  1
  H  H75  1  0.880667  0.135033  0.082733  1
  H  H76  1  0.412300  0.214000  0.250600  1
  H  H77  1  0.801700  0.587700  0.250600  1
  H  H78  1  0.786000  0.198300  0.250600  1
  H  H79  1  0.078967  0.547333  0.583933  1
  H  H80  1  0.468367  0.921033  0.583933  1
  H  H81  1  0.452667  0.531633  0.583933  1
  H  H82  1  0.745633  0.880667  0.917267  1
  H  H83  1  0.135033  0.254367  0.917267  1
  H  H84  1  0.119333  0.864967  0.917267  1
  H  H85  1  0.746900  0.972000  0.735700  1
  H  H86  1  0.225100  0.253100  0.735700  1
  H  H87  1  0.028000  0.774900  0.735700  1
  H  H88  1  0.080233  0.638667  0.402367  1
  H  H89  1  0.558433  0.919767  0.402367  1
  H  H90  1  0.361333  0.441567  0.402367  1
  H  H91  1  0.413567  0.305333  0.069033  1
  H  H92  1  0.891767  0.586433  0.069033  1
  H  H93  1  0.694667  0.108233  0.069033  1
  H  H94  1  0.253100  0.028000  0.264300  1
  H  H95  1  0.774900  0.746900  0.264300  1
  H  H96  1  0.972000  0.225100  0.264300  1
  H  H97  1  0.919767  0.361333  0.597633  1
  H  H98  1  0.441567  0.080233  0.597633  1
  H  H99  1  0.638667  0.558433  0.597633  1
  H  H100  1  0.586433  0.694667  0.930967  1
  H  H101  1  0.108233  0.413567  0.930967  1
  H  H102  1  0.305333  0.891767  0.930967  1
  H  H103  1  0.676100  0.918200  0.758700  1
  H  H104  1  0.242100  0.323900  0.758700  1
  H  H105  1  0.081800  0.757900  0.758700  1
  H  H106  1  0.009433  0.584867  0.425367  1
  H  H107  1  0.575433  0.990567  0.425367  1
  H  H108  1  0.415133  0.424567  0.425367  1
  H  H109  1  0.342767  0.251533  0.092033  1
  H  H110  1  0.908767  0.657233  0.092033  1
  H  H111  1  0.748467  0.091233  0.092033  1
  H  H112  1  0.323900  0.081800  0.241300  1
  H  H113  1  0.757900  0.676100  0.241300  1
  H  H114  1  0.918200  0.242100  0.241300  1
  H  H115  1  0.990567  0.415133  0.574633  1
  H  H116  1  0.424567  0.009433  0.574633  1
  H  H117  1  0.584867  0.575433  0.574633  1
  H  H118  1  0.657233  0.748467  0.907967  1
  H  H119  1  0.091233  0.342767  0.907967  1
  H  H120  1  0.251533  0.908767  0.907967  1
  H  H121  1  0.662100  0.936500  0.721900  1
  H  H122  1  0.274400  0.337900  0.721900  1
  H  H123  1  0.063500  0.725600  0.721900  1
  H  H124  1  0.995433  0.603167  0.388567  1
  H  H125  1  0.607733  0.004567  0.388567  1
  H  H126  1  0.396833  0.392267  0.388567  1
  H  H127  1  0.328767  0.269833  0.055233  1
  H  H128  1  0.941067  0.671233  0.055233  1
  H  H129  1  0.730167  0.058933  0.055233  1
  H  H130  1  0.337900  0.063500  0.278100  1
  H  H131  1  0.725600  0.662100  0.278100  1
  H  H132  1  0.936500  0.274400  0.278100  1
  H  H133  1  0.004567  0.396833  0.611433  1
  H  H134  1  0.392267  0.995433  0.611433  1
  H  H135  1  0.603167  0.607733  0.611433  1
  H  H136  1  0.671233  0.730167  0.944767  1
  H  H137  1  0.058933  0.328767  0.944767  1
  H  H138  1  0.269833  0.941067  0.944767  1
  H  H139  1  0.592800  0.729900  0.708600  1
  H  H140  1  0.137100  0.407200  0.708600  1
  H  H141  1  0.270100  0.862900  0.708600  1
  H  H142  1  0.926133  0.396567  0.375267  1
  H  H143  1  0.470433  0.073867  0.375267  1
  H  H144  1  0.603433  0.529567  0.375267  1
  H  H145  1  0.259467  0.063233  0.041933  1
  H  H146  1  0.803767  0.740533  0.041933  1
  H  H147  1  0.936767  0.196233  0.041933  1
  H  H148  1  0.407200  0.270100  0.291400  1
  H  H149  1  0.862900  0.592800  0.291400  1
  H  H150  1  0.729900  0.137100  0.291400  1
  H  H151  1  0.073867  0.603433  0.624733  1
  H  H152  1  0.529567  0.926133  0.624733  1
  H  H153  1  0.396567  0.470433  0.624733  1
  H  H154  1  0.740533  0.936767  0.958067  1
  H  H155  1  0.196233  0.259467  0.958067  1
  H  H156  1  0.063233  0.803767  0.958067  1
  H  H157  1  0.602300  0.764700  0.744800  1
  H  H158  1  0.162400  0.397700  0.744800  1
  H  H159  1  0.235300  0.837600  0.744800  1
  H  H160  1  0.935633  0.431367  0.411467  1
  H  H161  1  0.495733  0.064367  0.411467  1
  H  H162  1  0.568633  0.504267  0.411467  1
  H  H163  1  0.268967  0.098033  0.078133  1
  H  H164  1  0.829067  0.731033  0.078133  1
  H  H165  1  0.901967  0.170933  0.078133  1
  H  H166  1  0.397700  0.235300  0.255200  1
  H  H167  1  0.837600  0.602300  0.255200  1
  H  H168  1  0.764700  0.162400  0.255200  1
  H  H169  1  0.064367  0.568633  0.588533  1
  H  H170  1  0.504267  0.935633  0.588533  1
  H  H171  1  0.431367  0.495733  0.588533  1
  H  H172  1  0.731033  0.901967  0.921867  1
  H  H173  1  0.170933  0.268967  0.921867  1
  H  H174  1  0.098033  0.829067  0.921867  1
  H  H175  1  0.669400  0.755600  0.728900  1
  H  H176  1  0.086200  0.330600  0.728900  1
  H  H177  1  0.244400  0.913800  0.728900  1
  H  H178  1  0.002733  0.422267  0.395567  1
  H  H179  1  0.419533  0.997267  0.395567  1
  H  H180  1  0.577733  0.580467  0.395567  1
  H  H181  1  0.336067  0.088933  0.062233  1
  H  H182  1  0.752867  0.663933  0.062233  1
  H  H183  1  0.911067  0.247133  0.062233  1
  H  H184  1  0.330600  0.244400  0.271100  1
  H  H185  1  0.913800  0.669400  0.271100  1
  H  H186  1  0.755600  0.086200  0.271100  1
  H  H187  1  0.997267  0.577733  0.604433  1
  H  H188  1  0.580467  0.002733  0.604433  1
  H  H189  1  0.422267  0.419533  0.604433  1
  H  H190  1  0.663933  0.911067  0.937767  1
  H  H191  1  0.247133  0.336067  0.937767  1
  H  H192  1  0.088933  0.752867  0.937767  1
  H  H193  1  0.761800  0.961200  0.736400  1
  H  H194  1  0.199400  0.238200  0.736400  1
  H  H195  1  0.038800  0.800600  0.736400  1
  H  H196  1  0.095133  0.627867  0.403067  1
  H  H197  1  0.532733  0.904867  0.403067  1
  H  H198  1  0.372133  0.467267  0.403067  1
  H  H199  1  0.428467  0.294533  0.069733  1
  H  H200  1  0.866067  0.571533  0.069733  1
  H  H201  1  0.705467  0.133933  0.069733  1
  H  H202  1  0.238200  0.038800  0.263600  1
  H  H203  1  0.800600  0.761800  0.263600  1
  H  H204  1  0.961200  0.199400  0.263600  1
  H  H205  1  0.904867  0.372133  0.596933  1
  H  H206  1  0.467267  0.095133  0.596933  1
  H  H207  1  0.627867  0.532733  0.596933  1
  H  H208  1  0.571533  0.705467  0.930267  1
  H  H209  1  0.133933  0.428467  0.930267  1
  H  H210  1  0.294533  0.866067  0.930267  1
  H  H211  1  0.763200  0.885400  0.745600  1
  H  H212  1  0.122200  0.236800  0.745600  1
  H  H213  1  0.114600  0.877800  0.745600  1
  H  H214  1  0.096533  0.552067  0.412267  1
  H  H215  1  0.455533  0.903467  0.412267  1
  H  H216  1  0.447933  0.544467  0.412267  1
  H  H217  1  0.429867  0.218733  0.078933  1
  H  H218  1  0.788867  0.570133  0.078933  1
  H  H219  1  0.781267  0.211133  0.078933  1
  H  H220  1  0.236800  0.114600  0.254400  1
  H  H221  1  0.877800  0.763200  0.254400  1
  H  H222  1  0.885400  0.122200  0.254400  1
  H  H223  1  0.903467  0.447933  0.587733  1
  H  H224  1  0.544467  0.096533  0.587733  1
  H  H225  1  0.552067  0.455533  0.587733  1
  H  H226  1  0.570133  0.781267  0.921067  1
  H  H227  1  0.211133  0.429867  0.921067  1
  H  H228  1  0.218733  0.788867  0.921067  1
  H  H229  1  0.699800  0.900900  0.761200  1
  H  H230  1  0.201100  0.300200  0.761200  1
  H  H231  1  0.099100  0.798900  0.761200  1
  H  H232  1  0.033133  0.567567  0.427867  1
  H  H233  1  0.534433  0.966867  0.427867  1
  H  H234  1  0.432433  0.465567  0.427867  1
  H  H235  1  0.366467  0.234233  0.094533  1
  H  H236  1  0.867767  0.633533  0.094533  1
  H  H237  1  0.765767  0.132233  0.094533  1
  H  H238  1  0.300200  0.099100  0.238800  1
  H  H239  1  0.798900  0.699800  0.238800  1
  H  H240  1  0.900900  0.201100  0.238800  1
  H  H241  1  0.966867  0.432433  0.572133  1
  H  H242  1  0.465567  0.033133  0.572133  1
  H  H243  1  0.567567  0.534433  0.572133  1
  H  H244  1  0.633533  0.765767  0.905467  1
  H  H245  1  0.132233  0.366467  0.905467  1
  H  H246  1  0.234233  0.867767  0.905467  1
  H  H247  1  0.607600  0.623200  0.677000  1
  H  H248  1  0.015600  0.392400  0.677000  1
  H  H249  1  0.376800  0.984400  0.677000  1
  H  H250  1  0.940933  0.289867  0.343667  1
  H  H251  1  0.348933  0.059067  0.343667  1
  H  H252  1  0.710133  0.651067  0.343667  1
  H  H253  1  0.274267  0.956533  0.010333  1
  H  H254  1  0.682267  0.725733  0.010333  1
  H  H255  1  0.043467  0.317733  0.010333  1
  H  H256  1  0.392400  0.376800  0.323000  1
  H  H257  1  0.984400  0.607600  0.323000  1
  H  H258  1  0.623200  0.015600  0.323000  1
  H  H259  1  0.059067  0.710133  0.656333  1
  H  H260  1  0.651067  0.940933  0.656333  1
  H  H261  1  0.289867  0.348933  0.656333  1
  H  H262  1  0.725733  0.043467  0.989667  1
  H  H263  1  0.317733  0.274267  0.989667  1
  H  H264  1  0.956533  0.682267  0.989667  1
  H  H265  1  0.666667  0.685867  0.652100  1
  H  H266  1  0.019200  0.333333  0.652100  1
  H  H267  1  0.314133  0.980800  0.652100  1
  H  H268  1  0.000000  0.352533  0.318767  1
  H  H269  1  0.352533  1.000000  0.318767  1
  H  H270  1  0.647467  0.647467  0.318767  1
  H  H271  1  0.333333  0.019200  0.985433  1
  H  H272  1  0.685867  0.666667  0.985433  1
  H  H273  1  0.980800  0.314133  0.985433  1
  H  H274  1  0.333333  0.314133  0.347900  1
  H  H275  1  0.980800  0.666667  0.347900  1
  H  H276  1  0.685867  0.019200  0.347900  1
  H  H277  1  0.000000  0.647467  0.681233  1
  H  H278  1  0.647467  1.000000  0.681233  1
  H  H279  1  0.352533  0.352533  0.681233  1
  H  H280  1  0.666667  0.980800  0.014567  1
  H  H281  1  0.314133  0.333333  0.014567  1
  H  H282  1  0.019200  0.685867  0.014567  1
  H  H283  1  0.684200  0.693700  0.690700  1
  H  H284  1  0.009500  0.315800  0.690700  1
  H  H285  1  0.306300  0.990500  0.690700  1
  H  H286  1  0.017533  0.360367  0.357367  1
  H  H287  1  0.342833  0.982467  0.357367  1
  H  H288  1  0.639633  0.657167  0.357367  1
  H  H289  1  0.350867  0.027033  0.024033  1
  H  H290  1  0.676167  0.649133  0.024033  1
  H  H291  1  0.972967  0.323833  0.024033  1
  H  H292  1  0.315800  0.306300  0.309300  1
  H  H293  1  0.990500  0.684200  0.309300  1
  H  H294  1  0.693700  0.009500  0.309300  1
  H  H295  1  0.982467  0.639633  0.642633  1
  H  H296  1  0.657167  0.017533  0.642633  1
  H  H297  1  0.360367  0.342833  0.642633  1
  H  H298  1  0.649133  0.972967  0.975967  1
  H  H299  1  0.323833  0.350867  0.975967  1
  H  H300  1  0.027033  0.676167  0.975967  1
  H  H301  1  0.837900  0.664400  0.660500  1
  H  H302  1  0.826500  0.162100  0.660500  1
  H  H303  1  0.335600  0.173500  0.660500  1
  H  H304  1  0.171233  0.331067  0.327167  1
  H  H305  1  0.159833  0.828767  0.327167  1
  H  H306  1  0.668933  0.840167  0.327167  1
  H  H307  1  0.504567  0.997733  0.993833  1
  H  H308  1  0.493167  0.495433  0.993833  1
  H  H309  1  0.002267  0.506833  0.993833  1
  H  H310  1  0.162100  0.335600  0.339500  1
  H  H311  1  0.173500  0.837900  0.339500  1
  H  H312  1  0.664400  0.826500  0.339500  1
  H  H313  1  0.828767  0.668933  0.672833  1
  H  H314  1  0.840167  0.171233  0.672833  1
  H  H315  1  0.331067  0.159833  0.672833  1
  H  H316  1  0.495433  0.002267  0.006167  1
  H  H317  1  0.506833  0.504567  0.006167  1
  H  H318  1  0.997733  0.493167  0.006167  1
  H  H319  1  0.814600  0.714900  0.682500  1
  H  H320  1  0.900300  0.185400  0.682500  1
  H  H321  1  0.285100  0.099700  0.682500  1
  H  H322  1  0.147933  0.381567  0.349167  1
  H  H323  1  0.233633  0.852067  0.349167  1
  H  H324  1  0.618433  0.766367  0.349167  1
  H  H325  1  0.481267  0.048233  0.015833  1
  H  H326  1  0.566967  0.518733  0.015833  1
  H  H327  1  0.951767  0.433033  0.015833  1
  H  H328  1  0.185400  0.285100  0.317500  1
  H  H329  1  0.099700  0.814600  0.317500  1
  H  H330  1  0.714900  0.900300  0.317500  1
  H  H331  1  0.852067  0.618433  0.650833  1
  H  H332  1  0.766367  0.147933  0.650833  1
  H  H333  1  0.381567  0.233633  0.650833  1
  H  H334  1  0.518733  0.951767  0.984167  1
  H  H335  1  0.433033  0.481267  0.984167  1
  H  H336  1  0.048233  0.566967  0.984167  1
  H  H337  1  0.802600  0.710800  0.643500  1
  H  H338  1  0.908200  0.197400  0.643500  1
  H  H339  1  0.289200  0.091800  0.643500  1
  H  H340  1  0.135933  0.377467  0.310167  1
  H  H341  1  0.241533  0.864067  0.310167  1
  H  H342  1  0.622533  0.758467  0.310167  1
  H  H343  1  0.469267  0.044133  0.976833  1
  H  H344  1  0.574867  0.530733  0.976833  1
  H  H345  1  0.955867  0.425133  0.976833  1
  H  H346  1  0.197400  0.289200  0.356500  1
  H  H347  1  0.091800  0.802600  0.356500  1
  H  H348  1  0.710800  0.908200  0.356500  1
  H  H349  1  0.864067  0.622533  0.689833  1
  H  H350  1  0.758467  0.135933  0.689833  1
  H  H351  1  0.377467  0.241533  0.689833  1
  H  H352  1  0.530733  0.955867  0.023167  1
  H  H353  1  0.425133  0.469267  0.023167  1
  H  H354  1  0.044133  0.574867  0.023167  1
  H  H355  1  0.682300  0.730800  0.667300  1
  H  H356  1  0.048500  0.317700  0.667300  1
  H  H357  1  0.269200  0.951500  0.667300  1
  H  H358  1  0.015633  0.397467  0.333967  1
  H  H359  1  0.381833  0.984367  0.333967  1
  H  H360  1  0.602533  0.618167  0.333967  1
  H  H361  1  0.348967  0.064133  0.000633  1
  H  H362  1  0.715167  0.651033  0.000633  1
  H  H363  1  0.935867  0.284833  0.000633  1
  H  H364  1  0.317700  0.269200  0.332700  1
  H  H365  1  0.951500  0.682300  0.332700  1
  H  H366  1  0.730800  0.048500  0.332700  1
  H  H367  1  0.984367  0.602533  0.666033  1
  H  H368  1  0.618167  0.015633  0.666033  1
  H  H369  1  0.397467  0.381833  0.666033  1
  H  H370  1  0.651033  0.935867  0.999367  1
  H  H371  1  0.284833  0.348967  0.999367  1
  H  H372  1  0.064133  0.715167  0.999367  1
  H  H373  1  0.713400  0.700200  0.638400  1
  H  H374  1  0.986800  0.286600  0.638400  1
  H  H375  1  0.299800  0.013200  0.638400  1
  H  H376  1  0.046733  0.366867  0.305067  1
  H  H377  1  0.320133  0.953267  0.305067  1
  H  H378  1  0.633133  0.679867  0.305067  1
  H  H379  1  0.380067  0.033533  0.971733  1
  H  H380  1  0.653467  0.619933  0.971733  1
  H  H381  1  0.966467  0.346533  0.971733  1
  H  H382  1  0.286600  0.299800  0.361600  1
  H  H383  1  0.013200  0.713400  0.361600  1
  H  H384  1  0.700200  0.986800  0.361600  1
  H  H385  1  0.953267  0.633133  0.694933  1
  H  H386  1  0.679867  0.046733  0.694933  1
  H  H387  1  0.366867  0.320133  0.694933  1
  H  H388  1  0.619933  0.966467  0.028267  1
  H  H389  1  0.346533  0.380067  0.028267  1
  H  H390  1  0.033533  0.653467  0.028267  1
  H  H391  1  0.771700  0.763900  0.663100  1
  H  H392  1  0.992200  0.228300  0.663100  1
  H  H393  1  0.236100  0.007800  0.663100  1
  H  H394  1  0.105033  0.430567  0.329767  1
  H  H395  1  0.325533  0.894967  0.329767  1
  H  H396  1  0.569433  0.674467  0.329767  1
  H  H397  1  0.438367  0.097233  0.996433  1
  H  H398  1  0.658867  0.561633  0.996433  1
  H  H399  1  0.902767  0.341133  0.996433  1
  H  H400  1  0.228300  0.236100  0.336900  1
  H  H401  1  0.007800  0.771700  0.336900  1
  H  H402  1  0.763900  0.992200  0.336900  1
  H  H403  1  0.894967  0.569433  0.670233  1
  H  H404  1  0.674467  0.105033  0.670233  1
  H  H405  1  0.430567  0.325533  0.670233  1
  H  H406  1  0.561633  0.902767  0.003567  1
  H  H407  1  0.341133  0.438367  0.003567  1
  H  H408  1  0.097233  0.658867  0.003567  1
  H  H409  1  0.832900  0.679100  0.669700  1
  H  H410  1  0.846200  0.167100  0.669700  1
  H  H411  1  0.320900  0.153800  0.669700  1
  H  H412  1  0.166233  0.345767  0.336367  1
  H  H413  1  0.179533  0.833767  0.336367  1
  H  H414  1  0.654233  0.820467  0.336367  1
  H  H415  1  0.499567  0.012433  0.003033  1
  H  H416  1  0.512867  0.500433  0.003033  1
  H  H417  1  0.987567  0.487133  0.003033  1
  H  H418  1  0.167100  0.320900  0.330300  1
  H  H419  1  0.153800  0.832900  0.330300  1
  H  H420  1  0.679100  0.846200  0.330300  1
  H  H421  1  0.833767  0.654233  0.663633  1
  H  H422  1  0.820467  0.166233  0.663633  1
  H  H423  1  0.345767  0.179533  0.663633  1
  H  H424  1  0.500433  0.987567  0.996967  1
  H  H425  1  0.487133  0.499567  0.996967  1
  H  H426  1  0.012433  0.512867  0.996967  1
  H  H427  1  0.769100  0.615000  0.646700  1
  H  H428  1  0.845900  0.230900  0.646700  1
  H  H429  1  0.385000  0.154100  0.646700  1
  H  H430  1  0.102433  0.281667  0.313367  1
  H  H431  1  0.179233  0.897567  0.313367  1
  H  H432  1  0.718333  0.820767  0.313367  1
  H  H433  1  0.435767  0.948333  0.980033  1
  H  H434  1  0.512567  0.564233  0.980033  1
  H  H435  1  0.051667  0.487433  0.980033  1
  H  H436  1  0.230900  0.385000  0.353300  1
  H  H437  1  0.154100  0.769100  0.353300  1
  H  H438  1  0.615000  0.845900  0.353300  1
  H  H439  1  0.897567  0.718333  0.686633  1
  H  H440  1  0.820767  0.102433  0.686633  1
  H  H441  1  0.281667  0.179233  0.686633  1
  H  H442  1  0.564233  0.051667  0.019967  1
  H  H443  1  0.487433  0.435767  0.019967  1
  H  H444  1  0.948333  0.512567  0.019967  1
  H  H445  1  0.789000  0.592300  0.681500  1
  H  H446  1  0.803300  0.211000  0.681500  1
  H  H447  1  0.407700  0.196700  0.681500  1
  H  H448  1  0.122333  0.258967  0.348167  1
  H  H449  1  0.136633  0.877667  0.348167  1
  H  H450  1  0.741033  0.863367  0.348167  1
  H  H451  1  0.455667  0.925633  0.014833  1
  H  H452  1  0.469967  0.544333  0.014833  1
  H  H453  1  0.074367  0.530033  0.014833  1
  H  H454  1  0.211000  0.407700  0.318500  1
  H  H455  1  0.196700  0.789000  0.318500  1
  H  H456  1  0.592300  0.803300  0.318500  1
  H  H457  1  0.877667  0.741033  0.651833  1
  H  H458  1  0.863367  0.122333  0.651833  1
  H  H459  1  0.258967  0.136633  0.651833  1
  H  H460  1  0.544333  0.074367  0.985167  1
  H  H461  1  0.530033  0.455667  0.985167  1
  H  H462  1  0.925633  0.469967  0.985167  1
  H  H463  1  0.735000  0.405400  0.696800  1
  H  H464  1  0.670400  0.265000  0.696800  1
  H  H465  1  0.594600  0.329600  0.696800  1
  H  H466  1  0.068333  0.072067  0.363467  1
  H  H467  1  0.003733  0.931667  0.363467  1
  H  H468  1  0.927933  0.996267  0.363467  1
  H  H469  1  0.401667  0.738733  0.030133  1
  H  H470  1  0.337067  0.598333  0.030133  1
  H  H471  1  0.261267  0.662933  0.030133  1
  H  H472  1  0.265000  0.594600  0.303200  1
  H  H473  1  0.329600  0.735000  0.303200  1
  H  H474  1  0.405400  0.670400  0.303200  1
  H  H475  1  0.931667  0.927933  0.636533  1
  H  H476  1  0.996267  0.068333  0.636533  1
  H  H477  1  0.072067  0.003733  0.636533  1
  H  H478  1  0.598333  0.261267  0.969867  1
  H  H479  1  0.662933  0.401667  0.969867  1
  H  H480  1  0.738733  0.337067  0.969867  1
  H  H481  1  0.816500  0.469300  0.683700  1
  H  H482  1  0.652800  0.183500  0.683700  1
  H  H483  1  0.530700  0.347200  0.683700  1
  H  H484  1  0.149833  0.135967  0.350367  1
  H  H485  1  0.986133  0.850167  0.350367  1
  H  H486  1  0.864033  0.013867  0.350367  1
  H  H487  1  0.483167  0.802633  0.017033  1
  H  H488  1  0.319467  0.516833  0.017033  1
  H  H489  1  0.197367  0.680533  0.017033  1
  H  H490  1  0.183500  0.530700  0.316300  1
  H  H491  1  0.347200  0.816500  0.316300  1
  H  H492  1  0.469300  0.652800  0.316300  1
  H  H493  1  0.850167  0.864033  0.649633  1
  H  H494  1  0.013867  0.149833  0.649633  1
  H  H495  1  0.135967  0.986133  0.649633  1
  H  H496  1  0.516833  0.197367  0.982967  1
  H  H497  1  0.680533  0.483167  0.982967  1
  H  H498  1  0.802633  0.319467  0.982967  1
  H  H499  1  0.749100  0.488000  0.687300  1
  H  H500  1  0.738900  0.250900  0.687300  1
  H  H501  1  0.512000  0.261100  0.687300  1
  H  H502  1  0.082433  0.154667  0.353967  1
  H  H503  1  0.072233  0.917567  0.353967  1
  H  H504  1  0.845333  0.927767  0.353967  1
  H  H505  1  0.415767  0.821333  0.020633  1
  H  H506  1  0.405567  0.584233  0.020633  1
  H  H507  1  0.178667  0.594433  0.020633  1
  H  H508  1  0.250900  0.512000  0.312700  1
  H  H509  1  0.261100  0.749100  0.312700  1
  H  H510  1  0.488000  0.738900  0.312700  1
  H  H511  1  0.917567  0.845333  0.646033  1
  H  H512  1  0.927767  0.082433  0.646033  1
  H  H513  1  0.154667  0.072233  0.646033  1
  H  H514  1  0.584233  0.178667  0.979367  1
  H  H515  1  0.594433  0.415767  0.979367  1
  H  H516  1  0.821333  0.405567  0.979367  1
  H  H517  1  0.890200  0.609300  0.751600  1
  H  H518  1  0.719100  0.109800  0.751600  1
  H  H519  1  0.390700  0.280900  0.751600  1
  H  H520  1  0.223533  0.275967  0.418267  1
  H  H521  1  0.052433  0.776467  0.418267  1
  H  H522  1  0.724033  0.947567  0.418267  1
  H  H523  1  0.556867  0.942633  0.084933  1
  H  H524  1  0.385767  0.443133  0.084933  1
  H  H525  1  0.057367  0.614233  0.084933  1
  H  H526  1  0.109800  0.390700  0.248400  1
  H  H527  1  0.280900  0.890200  0.248400  1
  H  H528  1  0.609300  0.719100  0.248400  1
  H  H529  1  0.776467  0.724033  0.581733  1
  H  H530  1  0.947567  0.223533  0.581733  1
  H  H531  1  0.275967  0.052433  0.581733  1
  H  H532  1  0.443133  0.057367  0.915067  1
  H  H533  1  0.614233  0.556867  0.915067  1
  H  H534  1  0.942633  0.385767  0.915067  1
  H  H535  1  0.844500  0.609000  0.719500  1
  H  H536  1  0.764500  0.155500  0.719500  1
  H  H537  1  0.391000  0.235500  0.719500  1
  H  H538  1  0.177833  0.275667  0.386167  1
  H  H539  1  0.097833  0.822167  0.386167  1
  H  H540  1  0.724333  0.902167  0.386167  1
  H  H541  1  0.511167  0.942333  0.052833  1
  H  H542  1  0.431167  0.488833  0.052833  1
  H  H543  1  0.057667  0.568833  0.052833  1
  H  H544  1  0.155500  0.391000  0.280500  1
  H  H545  1  0.235500  0.844500  0.280500  1
  H  H546  1  0.609000  0.764500  0.280500  1
  H  H547  1  0.822167  0.724333  0.613833  1
  H  H548  1  0.902167  0.177833  0.613833  1
  H  H549  1  0.275667  0.097833  0.613833  1
  H  H550  1  0.488833  0.057667  0.947167  1
  H  H551  1  0.568833  0.511167  0.947167  1
  H  H552  1  0.942333  0.431167  0.947167  1
  H  H553  1  0.908400  0.585200  0.716800  1
  H  H554  1  0.676800  0.091600  0.716800  1
  H  H555  1  0.414800  0.323200  0.716800  1
  H  H556  1  0.241733  0.251867  0.383467  1
  H  H557  1  0.010133  0.758267  0.383467  1
  H  H558  1  0.748133  0.989867  0.383467  1
  H  H559  1  0.575067  0.918533  0.050133  1
  H  H560  1  0.343467  0.424933  0.050133  1
  H  H561  1  0.081467  0.656533  0.050133  1
  H  H562  1  0.091600  0.414800  0.283200  1
  H  H563  1  0.323200  0.908400  0.283200  1
  H  H564  1  0.585200  0.676800  0.283200  1
  H  H565  1  0.758267  0.748133  0.616533  1
  H  H566  1  0.989867  0.241733  0.616533  1
  H  H567  1  0.251867  0.010133  0.616533  1
  H  H568  1  0.424933  0.081467  0.949867  1
  H  H569  1  0.656533  0.575067  0.949867  1
  H  H570  1  0.918533  0.343467  0.949867  1
  H  H571  1  0.819500  0.452600  0.787100  1
  H  H572  1  0.633100  0.180500  0.787100  1
  H  H573  1  0.547400  0.366900  0.787100  1
  H  H574  1  0.152833  0.119267  0.453767  1
  H  H575  1  0.966433  0.847167  0.453767  1
  H  H576  1  0.880733  0.033567  0.453767  1
  H  H577  1  0.486167  0.785933  0.120433  1
  H  H578  1  0.299767  0.513833  0.120433  1
  H  H579  1  0.214067  0.700233  0.120433  1
  H  H580  1  0.180500  0.547400  0.212900  1
  H  H581  1  0.366900  0.819500  0.212900  1
  H  H582  1  0.452600  0.633100  0.212900  1
  H  H583  1  0.847167  0.880733  0.546233  1
  H  H584  1  0.033567  0.152833  0.546233  1
  H  H585  1  0.119267  0.966433  0.546233  1
  H  H586  1  0.513833  0.214067  0.879567  1
  H  H587  1  0.700233  0.486167  0.879567  1
  H  H588  1  0.785933  0.299767  0.879567  1
  H  H589  1  0.831900  0.392200  0.766800  1
  H  H590  1  0.560300  0.168100  0.766800  1
  H  H591  1  0.607800  0.439700  0.766800  1
  H  H592  1  0.165233  0.058867  0.433467  1
  H  H593  1  0.893633  0.834767  0.433467  1
  H  H594  1  0.941133  0.106367  0.433467  1
  H  H595  1  0.498567  0.725533  0.100133  1
  H  H596  1  0.226967  0.501433  0.100133  1
  H  H597  1  0.274467  0.773033  0.100133  1
  H  H598  1  0.168100  0.607800  0.233200  1
  H  H599  1  0.439700  0.831900  0.233200  1
  H  H600  1  0.392200  0.560300  0.233200  1
  H  H601  1  0.834767  0.941133  0.566533  1
  H  H602  1  0.106367  0.165233  0.566533  1
  H  H603  1  0.058867  0.893633  0.566533  1
  H  H604  1  0.501433  0.274467  0.899867  1
  H  H605  1  0.773033  0.498567  0.899867  1
  H  H606  1  0.725533  0.226967  0.899867  1
  H  H607  1  0.766300  0.409700  0.756200  1
  H  H608  1  0.643400  0.233700  0.756200  1
  H  H609  1  0.590300  0.356600  0.756200  1
  H  H610  1  0.099633  0.076367  0.422867  1
  H  H611  1  0.976733  0.900367  0.422867  1
  H  H612  1  0.923633  0.023267  0.422867  1
  H  H613  1  0.432967  0.743033  0.089533  1
  H  H614  1  0.310067  0.567033  0.089533  1
  H  H615  1  0.256967  0.689933  0.089533  1
  H  H616  1  0.233700  0.590300  0.243800  1
  H  H617  1  0.356600  0.766300  0.243800  1
  H  H618  1  0.409700  0.643400  0.243800  1
  H  H619  1  0.900367  0.923633  0.577133  1
  H  H620  1  0.023267  0.099633  0.577133  1
  H  H621  1  0.076367  0.976733  0.577133  1
  H  H622  1  0.567033  0.256967  0.910467  1
  H  H623  1  0.689933  0.432967  0.910467  1
  H  H624  1  0.743033  0.310067  0.910467  1
  H  H625  1  0.894800  0.487600  0.685300  1
  H  H626  1  0.592800  0.105200  0.685300  1
  H  H627  1  0.512400  0.407200  0.685300  1
  H  H628  1  0.228133  0.154267  0.351967  1
  H  H629  1  0.926133  0.771867  0.351967  1
  H  H630  1  0.845733  0.073867  0.351967  1
  H  H631  1  0.561467  0.820933  0.018633  1
  H  H632  1  0.259467  0.438533  0.018633  1
  H  H633  1  0.179067  0.740533  0.018633  1
  H  H634  1  0.105200  0.512400  0.314700  1
  H  H635  1  0.407200  0.894800  0.314700  1
  H  H636  1  0.487600  0.592800  0.314700  1
  H  H637  1  0.771867  0.845733  0.648033  1
  H  H638  1  0.073867  0.228133  0.648033  1
  H  H639  1  0.154267  0.926133  0.648033  1
  H  H640  1  0.438533  0.179067  0.981367  1
  H  H641  1  0.740533  0.561467  0.981367  1
  H  H642  1  0.820933  0.259467  0.981367  1
  H  H643  1  0.809700  0.431700  0.697600  1
  H  H644  1  0.622000  0.190300  0.697600  1
  H  H645  1  0.568300  0.378000  0.697600  1
  H  H646  1  0.143033  0.098367  0.364267  1
  H  H647  1  0.955333  0.856967  0.364267  1
  H  H648  1  0.901633  0.044667  0.364267  1
  H  H649  1  0.476367  0.765033  0.030933  1
  H  H650  1  0.288667  0.523633  0.030933  1
  H  H651  1  0.234967  0.711333  0.030933  1
  H  H652  1  0.190300  0.568300  0.302400  1
  H  H653  1  0.378000  0.809700  0.302400  1
  H  H654  1  0.431700  0.622000  0.302400  1
  H  H655  1  0.856967  0.901633  0.635733  1
  H  H656  1  0.044667  0.143033  0.635733  1
  H  H657  1  0.098367  0.955333  0.635733  1
  H  H658  1  0.523633  0.234967  0.969067  1
  H  H659  1  0.711333  0.476367  0.969067  1
  H  H660  1  0.765033  0.288667  0.969067  1
  H  H661  1  0.875700  0.413200  0.706100  1
  H  H662  1  0.537500  0.124300  0.706100  1
  H  H663  1  0.586800  0.462500  0.706100  1
  H  H664  1  0.209033  0.079867  0.372767  1
  H  H665  1  0.870833  0.790967  0.372767  1
  H  H666  1  0.920133  0.129167  0.372767  1
  H  H667  1  0.542367  0.746533  0.039433  1
  H  H668  1  0.204167  0.457633  0.039433  1
  H  H669  1  0.253467  0.795833  0.039433  1
  H  H670  1  0.124300  0.586800  0.293900  1
  H  H671  1  0.462500  0.875700  0.293900  1
  H  H672  1  0.413200  0.537500  0.293900  1
  H  H673  1  0.790967  0.920133  0.627233  1
  H  H674  1  0.129167  0.209033  0.627233  1
  H  H675  1  0.079867  0.870833  0.627233  1
  H  H676  1  0.457633  0.253467  0.960567  1
  H  H677  1  0.795833  0.542367  0.960567  1
  H  H678  1  0.746533  0.204167  0.960567  1
  H  H679  1  0.883300  0.432100  0.749900  1
  H  H680  1  0.548800  0.116700  0.749900  1
  H  H681  1  0.567900  0.451200  0.749900  1
  H  H682  1  0.216633  0.098767  0.416567  1
  H  H683  1  0.882133  0.783367  0.416567  1
  H  H684  1  0.901233  0.117867  0.416567  1
  H  H685  1  0.549967  0.765433  0.083233  1
  H  H686  1  0.215467  0.450033  0.083233  1
  H  H687  1  0.234567  0.784533  0.083233  1
  H  H688  1  0.116700  0.567900  0.250100  1
  H  H689  1  0.451200  0.883300  0.250100  1
  H  H690  1  0.432100  0.548800  0.250100  1
  H  H691  1  0.783367  0.901233  0.583433  1
  H  H692  1  0.117867  0.216633  0.583433  1
  H  H693  1  0.098767  0.882133  0.583433  1
  H  H694  1  0.450033  0.234567  0.916767  1
  H  H695  1  0.784533  0.549967  0.916767  1
  H  H696  1  0.765433  0.215467  0.916767  1
  H  H697  1  0.875700  0.486700  0.723600  1
  H  H698  1  0.611000  0.124300  0.723600  1
  H  H699  1  0.513300  0.389000  0.723600  1
  H  H700  1  0.209033  0.153367  0.390267  1
  H  H701  1  0.944333  0.790967  0.390267  1
  H  H702  1  0.846633  0.055667  0.390267  1
  H  H703  1  0.542367  0.820033  0.056933  1
  H  H704  1  0.277667  0.457633  0.056933  1
  H  H705  1  0.179967  0.722333  0.056933  1
  H  H706  1  0.124300  0.513300  0.276400  1
  H  H707  1  0.389000  0.875700  0.276400  1
  H  H708  1  0.486700  0.611000  0.276400  1
  H  H709  1  0.790967  0.846633  0.609733  1
  H  H710  1  0.055667  0.209033  0.609733  1
  H  H711  1  0.153367  0.944333  0.609733  1
  H  H712  1  0.457633  0.179967  0.943067  1
  H  H713  1  0.722333  0.542367  0.943067  1
  H  H714  1  0.820033  0.277667  0.943067  1
  H  H715  1  0.902000  0.428200  0.711900  1
  H  H716  1  0.526200  0.098000  0.711900  1
  H  H717  1  0.571800  0.473800  0.711900  1
  H  H718  1  0.235333  0.094867  0.378567  1
  H  H719  1  0.859533  0.764667  0.378567  1
  H  H720  1  0.905133  0.140467  0.378567  1
  H  H721  1  0.568667  0.761533  0.045233  1
  H  H722  1  0.192867  0.431333  0.045233  1
  H  H723  1  0.238467  0.807133  0.045233  1
  H  H724  1  0.098000  0.571800  0.288100  1
  H  H725  1  0.473800  0.902000  0.288100  1
  H  H726  1  0.428200  0.526200  0.288100  1
  H  H727  1  0.764667  0.905133  0.621433  1
  H  H728  1  0.140467  0.235333  0.621433  1
  H  H729  1  0.094867  0.859533  0.621433  1
  H  H730  1  0.431333  0.238467  0.954767  1
  H  H731  1  0.807133  0.568667  0.954767  1
  H  H732  1  0.761533  0.192867  0.954767  1
  H  H733  1  0.721800  0.353100  0.668900  1
  H  H734  1  0.631300  0.278200  0.668900  1
  H  H735  1  0.646900  0.368700  0.668900  1
  H  H736  1  0.055133  0.019767  0.335567  1
  H  H737  1  0.964633  0.944867  0.335567  1
  H  H738  1  0.980233  0.035367  0.335567  1
  H  H739  1  0.388467  0.686433  0.002233  1
  H  H740  1  0.297967  0.611533  0.002233  1
  H  H741  1  0.313567  0.702033  0.002233  1
  H  H742  1  0.278200  0.646900  0.331100  1
  H  H743  1  0.368700  0.721800  0.331100  1
  H  H744  1  0.353100  0.631300  0.331100  1
  H  H745  1  0.944867  0.980233  0.664433  1
  H  H746  1  0.035367  0.055133  0.664433  1
  H  H747  1  0.019767  0.964633  0.664433  1
  H  H748  1  0.611533  0.313567  0.997767  1
  H  H749  1  0.702033  0.388467  0.997767  1
  H  H750  1  0.686433  0.297967  0.997767  1
  H  H751  1  0.808600  0.373600  0.666000  1
  H  H752  1  0.565000  0.191400  0.666000  1
  H  H753  1  0.626400  0.435000  0.666000  1
  H  H754  1  0.141933  0.040267  0.332667  1
  H  H755  1  0.898333  0.858067  0.332667  1
  H  H756  1  0.959733  0.101667  0.332667  1
  H  H757  1  0.475267  0.706933  0.999333  1
  H  H758  1  0.231667  0.524733  0.999333  1
  H  H759  1  0.293067  0.768333  0.999333  1
  H  H760  1  0.191400  0.626400  0.334000  1
  H  H761  1  0.435000  0.808600  0.334000  1
  H  H762  1  0.373600  0.565000  0.334000  1
  H  H763  1  0.858067  0.959733  0.667333  1
  H  H764  1  0.101667  0.141933  0.667333  1
  H  H765  1  0.040267  0.898333  0.667333  1
  H  H766  1  0.524733  0.293067  0.000667  1
  H  H767  1  0.768333  0.475267  0.000667  1
  H  H768  1  0.706933  0.231667  0.000667  1
  H  H769  1  0.788800  0.438800  0.674300  1
  H  H770  1  0.650000  0.211200  0.674300  1
  H  H771  1  0.561200  0.350000  0.674300  1
  H  H772  1  0.122133  0.105467  0.340967  1
  H  H773  1  0.983333  0.877867  0.340967  1
  H  H774  1  0.894533  0.016667  0.340967  1
  H  H775  1  0.455467  0.772133  0.007633  1
  H  H776  1  0.316667  0.544533  0.007633  1
  H  H777  1  0.227867  0.683333  0.007633  1
  H  H778  1  0.211200  0.561200  0.325700  1
  H  H779  1  0.350000  0.788800  0.325700  1
  H  H780  1  0.438800  0.650000  0.325700  1
  H  H781  1  0.877867  0.894533  0.659033  1
  H  H782  1  0.016667  0.122133  0.659033  1
  H  H783  1  0.105467  0.983333  0.659033  1
  H  H784  1  0.544533  0.227867  0.992367  1
  H  H785  1  0.683333  0.455467  0.992367  1
  H  H786  1  0.772133  0.316667  0.992367  1
  H  H787  1  0.826200  0.352400  0.827500  1
  H  H788  1  0.526200  0.173800  0.827500  1
  H  H789  1  0.647600  0.473800  0.827500  1
  H  H790  1  0.159533  0.019067  0.494167  1
  H  H791  1  0.859533  0.840467  0.494167  1
  H  H792  1  0.980933  0.140467  0.494167  1
  H  H793  1  0.492867  0.685733  0.160833  1
  H  H794  1  0.192867  0.507133  0.160833  1
  H  H795  1  0.314267  0.807133  0.160833  1
  H  H796  1  0.173800  0.647600  0.172500  1
  H  H797  1  0.473800  0.826200  0.172500  1
  H  H798  1  0.352400  0.526200  0.172500  1
  H  H799  1  0.840467  0.980933  0.505833  1
  H  H800  1  0.140467  0.159533  0.505833  1
  H  H801  1  0.019067  0.859533  0.505833  1
  H  H802  1  0.507133  0.314267  0.839167  1
  H  H803  1  0.807133  0.492867  0.839167  1
  H  H804  1  0.685733  0.192867  0.839167  1
  H  H805  1  0.788900  0.404700  0.832900  1
  H  H806  1  0.615800  0.211100  0.832900  1
  H  H807  1  0.595300  0.384200  0.832900  1
  H  H808  1  0.122233  0.071367  0.499567  1
  H  H809  1  0.949133  0.877767  0.499567  1
  H  H810  1  0.928633  0.050867  0.499567  1
  H  H811  1  0.455567  0.738033  0.166233  1
  H  H812  1  0.282467  0.544433  0.166233  1
  H  H813  1  0.261967  0.717533  0.166233  1
  H  H814  1  0.211100  0.595300  0.167100  1
  H  H815  1  0.384200  0.788900  0.167100  1
  H  H816  1  0.404700  0.615800  0.167100  1
  H  H817  1  0.877767  0.928633  0.500433  1
  H  H818  1  0.050867  0.122233  0.500433  1
  H  H819  1  0.071367  0.949133  0.500433  1
  H  H820  1  0.544433  0.261967  0.833767  1
  H  H821  1  0.717533  0.455567  0.833767  1
  H  H822  1  0.738033  0.282467  0.833767  1
  H  H823  1  0.785900  0.369200  0.797500  1
  H  H824  1  0.583300  0.214100  0.797500  1
  H  H825  1  0.630800  0.416700  0.797500  1
  H  H826  1  0.119233  0.035867  0.464167  1
  H  H827  1  0.916633  0.880767  0.464167  1
  H  H828  1  0.964133  0.083367  0.464167  1
  H  H829  1  0.452567  0.702533  0.130833  1
  H  H830  1  0.249967  0.547433  0.130833  1
  H  H831  1  0.297467  0.750033  0.130833  1
  H  H832  1  0.214100  0.630800  0.202500  1
  H  H833  1  0.416700  0.785900  0.202500  1
  H  H834  1  0.369200  0.583300  0.202500  1
  H  H835  1  0.880767  0.964133  0.535833  1
  H  H836  1  0.083367  0.119233  0.535833  1
  H  H837  1  0.035867  0.916633  0.535833  1
  H  H838  1  0.547433  0.297467  0.869167  1
  H  H839  1  0.750033  0.452567  0.869167  1
  H  H840  1  0.702533  0.249967  0.869167  1
  H  H841  1  0.584200  0.276100  0.819700  1
  H  H842  1  0.691900  0.415800  0.819700  1
  H  H843  1  0.723900  0.308100  0.819700  1
  H  H844  1  0.917533  0.942767  0.486367  1
  H  H845  1  0.025233  0.082467  0.486367  1
  H  H846  1  0.057233  0.974767  0.486367  1
  H  H847  1  0.250867  0.609433  0.153033  1
  H  H848  1  0.358567  0.749133  0.153033  1
  H  H849  1  0.390567  0.641433  0.153033  1
  H  H850  1  0.415800  0.723900  0.180300  1
  H  H851  1  0.308100  0.584200  0.180300  1
  H  H852  1  0.276100  0.691900  0.180300  1
  H  H853  1  0.082467  0.057233  0.513633  1
  H  H854  1  0.974767  0.917533  0.513633  1
  H  H855  1  0.942767  0.025233  0.513633  1
  H  H856  1  0.749133  0.390567  0.846967  1
  H  H857  1  0.641433  0.250867  0.846967  1
  H  H858  1  0.609433  0.358567  0.846967  1
  H  H859  1  0.648200  0.326400  0.793400  1
  H  H860  1  0.678200  0.351800  0.793400  1
  H  H861  1  0.673600  0.321800  0.793400  1
  H  H862  1  0.981533  0.993067  0.460067  1
  H  H863  1  0.011533  0.018467  0.460067  1
  H  H864  1  0.006933  0.988467  0.460067  1
  H  H865  1  0.314867  0.659733  0.126733  1
  H  H866  1  0.344867  0.685133  0.126733  1
  H  H867  1  0.340267  0.655133  0.126733  1
  H  H868  1  0.351800  0.673600  0.206600  1
  H  H869  1  0.321800  0.648200  0.206600  1
  H  H870  1  0.326400  0.678200  0.206600  1
  H  H871  1  0.018467  0.006933  0.539933  1
  H  H872  1  0.988467  0.981533  0.539933  1
  H  H873  1  0.993067  0.011533  0.539933  1
  H  H874  1  0.685133  0.340267  0.873267  1
  H  H875  1  0.655133  0.314867  0.873267  1
  H  H876  1  0.659733  0.344867  0.873267  1
  H  H877  1  0.649200  0.360500  0.829000  1
  H  H878  1  0.711300  0.350800  0.829000  1
  H  H879  1  0.639500  0.288700  0.829000  1
  H  H880  1  0.982533  0.027167  0.495667  1
  H  H881  1  0.044633  0.017467  0.495667  1
  H  H882  1  0.972833  0.955367  0.495667  1
  H  H883  1  0.315867  0.693833  0.162333  1
  H  H884  1  0.377967  0.684133  0.162333  1
  H  H885  1  0.306167  0.622033  0.162333  1
  H  H886  1  0.350800  0.639500  0.171000  1
  H  H887  1  0.288700  0.649200  0.171000  1
  H  H888  1  0.360500  0.711300  0.171000  1
  H  H889  1  0.017467  0.972833  0.504333  1
  H  H890  1  0.955367  0.982533  0.504333  1
  H  H891  1  0.027167  0.044633  0.504333  1
  H  H892  1  0.684133  0.306167  0.837667  1
  H  H893  1  0.622033  0.315867  0.837667  1
  H  H894  1  0.693833  0.377967  0.837667  1
  H  H895  1  0.471900  0.520100  0.927200  1.0
  H  H896  1  0.048200  0.528100  0.927200  1.0
  H  H897  1  0.479900  0.951800  0.927200  1.0
  H  H898  1  0.805233  0.186767  0.593867  1.0
  H  H899  1  0.381533  0.194767  0.593867  1.0
  H  H900  1  0.813233  0.618467  0.593867  1.0
  H  H901  1  0.138567  0.853433  0.260533  1.0
  H  H902  1  0.714867  0.861433  0.260533  1.0
  H  H903  1  0.146567  0.285133  0.260533  1.0
  H  H904  1  0.528100  0.479900  0.072800  1.0
  H  H905  1  0.951800  0.471900  0.072800  1.0
  H  H906  1  0.520100  0.048200  0.072800  1.0
  H  H907  1  0.194767  0.813233  0.406133  1.0
  H  H908  1  0.618467  0.805233  0.406133  1.0
  H  H909  1  0.186767  0.381533  0.406133  1.0
  H  H910  1  0.861433  0.146567  0.739467  1.0
  H  H911  1  0.285133  0.138567  0.739467  1.0
  H  H912  1  0.853433  0.714867  0.739467  1.0
  H  H913  1  0.370300  0.510300  0.957200  1.0
  H  H914  1  0.140000  0.629700  0.957200  1.0
  H  H915  1  0.489700  0.860000  0.957200  1.0
  H  H916  1  0.703633  0.176967  0.623867  1.0
  H  H917  1  0.473333  0.296367  0.623867  1.0
  H  H918  1  0.823033  0.526667  0.623867  1.0
  H  H919  1  0.036967  0.843633  0.290533  1.0
  H  H920  1  0.806667  0.963033  0.290533  1.0
  H  H921  1  0.156367  0.193333  0.290533  1.0
  H  H922  1  0.629700  0.489700  0.042800  1.0
  H  H923  1  0.860000  0.370300  0.042800  1.0
  H  H924  1  0.510300  0.140000  0.042800  1.0
  H  H925  1  0.296367  0.823033  0.376133  1.0
  H  H926  1  0.526667  0.703633  0.376133  1.0
  H  H927  1  0.176967  0.473333  0.376133  1.0
  H  H928  1  0.963033  0.156367  0.709467  1.0
  H  H929  1  0.193333  0.036967  0.709467  1.0
  H  H930  1  0.843633  0.806667  0.709467  1.0
  H  H931  1  0.304600  0.571700  0.937600  1.0
  H  H932  1  0.267100  0.695400  0.937600  1.0
  H  H933  1  0.428300  0.732900  0.937600  1.0
  H  H934  1  0.637933  0.238367  0.604267  1.0
  H  H935  1  0.600433  0.362067  0.604267  1.0
  H  H936  1  0.761633  0.399567  0.604267  1.0
  H  H937  1  0.971267  0.905033  0.270933  1.0
  H  H938  1  0.933767  0.028733  0.270933  1.0
  H  H939  1  0.094967  0.066233  0.270933  1.0
  H  H940  1  0.695400  0.428300  0.062400  1.0
  H  H941  1  0.732900  0.304600  0.062400  1.0
  H  H942  1  0.571700  0.267100  0.062400  1.0
  H  H943  1  0.362067  0.761633  0.395733  1.0
  H  H944  1  0.399567  0.637933  0.395733  1.0
  H  H945  1  0.238367  0.600433  0.395733  1.0
  H  H946  1  0.028733  0.094967  0.729067  1.0
  H  H947  1  0.066233  0.971267  0.729067  1.0
  H  H948  1  0.905033  0.933767  0.729067  1.0
  H  H949  1  0.558500  0.568100  0.885600  1.0
  H  H950  1  0.009600  0.441500  0.885600  1.0
  H  H951  1  0.431900  0.990400  0.885600  1.0
  H  H952  1  0.891833  0.234767  0.552267  1.0
  H  H953  1  0.342933  0.108167  0.552267  1.0
  H  H954  1  0.765233  0.657067  0.552267  1.0
  H  H955  1  0.225167  0.901433  0.218933  1.0
  H  H956  1  0.676267  0.774833  0.218933  1.0
  H  H957  1  0.098567  0.323733  0.218933  1.0
  H  H958  1  0.441500  0.431900  0.114400  1.0
  H  H959  1  0.990400  0.558500  0.114400  1.0
  H  H960  1  0.568100  0.009600  0.114400  1.0
  H  H961  1  0.108167  0.765233  0.447733  1.0
  H  H962  1  0.657067  0.891833  0.447733  1.0
  H  H963  1  0.234767  0.342933  0.447733  1.0
  H  H964  1  0.774833  0.098567  0.781067  1.0
  H  H965  1  0.323733  0.225167  0.781067  1.0
  H  H966  1  0.901433  0.676267  0.781067  1.0
  H  H967  1  0.682700  0.615900  0.873400  1.0
  H  H968  1  0.933200  0.317300  0.873400  1.0
  H  H969  1  0.384100  0.066800  0.873400  1.0
  H  H970  1  0.016033  0.282567  0.540067  1.0
  H  H971  1  0.266533  0.983967  0.540067  1.0
  H  H972  1  0.717433  0.733467  0.540067  1.0
  H  H973  1  0.349367  0.949233  0.206733  1.0
  H  H974  1  0.599867  0.650633  0.206733  1.0
  H  H975  1  0.050767  0.400133  0.206733  1.0
  H  H976  1  0.317300  0.384100  0.126600  1.0
  H  H977  1  0.066800  0.682700  0.126600  1.0
  H  H978  1  0.615900  0.933200  0.126600  1.0
  H  H979  1  0.983967  0.717433  0.459933  1.0
  H  H980  1  0.733467  0.016033  0.459933  1.0
  H  H981  1  0.282567  0.266533  0.459933  1.0
  H  H982  1  0.650633  0.050767  0.793267  1.0
  H  H983  1  0.400133  0.349367  0.793267  1.0
  H  H984  1  0.949233  0.599867  0.793267  1.0
  H  H985  1  0.774000  0.602500  0.843100  1.0
  H  H986  1  0.828500  0.226000  0.843100  1.0
  H  H987  1  0.397500  0.171500  0.843100  1.0
  H  H988  1  0.107333  0.269167  0.509767  1.0
  H  H989  1  0.161833  0.892667  0.509767  1.0
  H  H990  1  0.730833  0.838167  0.509767  1.0
  H  H991  1  0.440667  0.935833  0.176433  1.0
  H  H992  1  0.495167  0.559333  0.176433  1.0
  H  H993  1  0.064167  0.504833  0.176433  1.0
  H  H994  1  0.226000  0.397500  0.156900  1.0
  H  H995  1  0.171500  0.774000  0.156900  1.0
  H  H996  1  0.602500  0.828500  0.156900  1.0
  H  H997  1  0.892667  0.730833  0.490233  1.0
  H  H998  1  0.838167  0.107333  0.490233  1.0
  H  H999  1  0.269167  0.161833  0.490233  1.0
  H  H1000  1  0.559333  0.064167  0.823567  1.0
  H  H1001  1  0.504833  0.440667  0.823567  1.0
  H  H1002  1  0.935833  0.495167  0.823567  1.0
  H  H1003  1  0.766300  0.590300  0.787300  1.0
  H  H1004  1  0.824000  0.233700  0.787300  1.0
  H  H1005  1  0.409700  0.176000  0.787300  1.0
  H  H1006  1  0.099633  0.256967  0.453967  1.0
  H  H1007  1  0.157333  0.900367  0.453967  1.0
  H  H1008  1  0.743033  0.842667  0.453967  1.0
  H  H1009  1  0.432967  0.923633  0.120633  1.0
  H  H1010  1  0.490667  0.567033  0.120633  1.0
  H  H1011  1  0.076367  0.509333  0.120633  1.0
  H  H1012  1  0.233700  0.409700  0.212700  1.0
  H  H1013  1  0.176000  0.766300  0.212700  1.0
  H  H1014  1  0.590300  0.824000  0.212700  1.0
  H  H1015  1  0.900367  0.743033  0.546033  1.0
  H  H1016  1  0.842667  0.099633  0.546033  1.0
  H  H1017  1  0.256967  0.157333  0.546033  1.0
  H  H1018  1  0.567033  0.076367  0.879367  1.0
  H  H1019  1  0.509333  0.432967  0.879367  1.0
  H  H1020  1  0.923633  0.490667  0.879367  1.0
  H  H1021  1  0.674200  0.602500  0.758000  1.0
  H  H1022  1  0.928300  0.325800  0.758000  1.0
  H  H1023  1  0.397500  0.071700  0.758000  1.0
  H  H1024  1  0.007533  0.269167  0.424667  1.0
  H  H1025  1  0.261633  0.992467  0.424667  1.0
  H  H1026  1  0.730833  0.738367  0.424667  1.0
  H  H1027  1  0.340867  0.935833  0.091333  1.0
  H  H1028  1  0.594967  0.659133  0.091333  1.0
  H  H1029  1  0.064167  0.405033  0.091333  1.0
  H  H1030  1  0.325800  0.397500  0.242000  1.0
  H  H1031  1  0.071700  0.674200  0.242000  1.0
  H  H1032  1  0.602500  0.928300  0.242000  1.0
  H  H1033  1  0.992467  0.730833  0.575333  1.0
  H  H1034  1  0.738367  0.007533  0.575333  1.0
  H  H1035  1  0.269167  0.261633  0.575333  1.0
  H  H1036  1  0.659133  0.064167  0.908667  1.0
  H  H1037  1  0.405033  0.340867  0.908667  1.0
  H  H1038  1  0.935833  0.594967  0.908667  1.0
  H  H1039  1  0.552000  0.559200  0.746600  1.0
  H  H1040  1  0.007200  0.448000  0.746600  1.0
  H  H1041  1  0.440800  0.992800  0.746600  1.0
  H  H1042  1  0.885333  0.225867  0.413267  1.0
  H  H1043  1  0.340533  0.114667  0.413267  1.0
  H  H1044  1  0.774133  0.659467  0.413267  1.0
  H  H1045  1  0.218667  0.892533  0.079933  1.0
  H  H1046  1  0.673867  0.781333  0.079933  1.0
  H  H1047  1  0.107467  0.326133  0.079933  1.0
  H  H1048  1  0.448000  0.440800  0.253400  1.0
  H  H1049  1  0.992800  0.552000  0.253400  1.0
  H  H1050  1  0.559200  0.007200  0.253400  1.0
  H  H1051  1  0.114667  0.774133  0.586733  1.0
  H  H1052  1  0.659467  0.885333  0.586733  1.0
  H  H1053  1  0.225867  0.340533  0.586733  1.0
  H  H1054  1  0.781333  0.107467  0.920067  1.0
  H  H1055  1  0.326133  0.218667  0.920067  1.0
  H  H1056  1  0.892533  0.673867  0.920067  1.0
  H  H1057  1  0.304600  0.572600  0.693700  1.0
  H  H1058  1  0.268000  0.695400  0.693700  1.0
  H  H1059  1  0.427400  0.732000  0.693700  1.0
  H  H1060  1  0.637933  0.239267  0.360367  1.0
  H  H1061  1  0.601333  0.362067  0.360367  1.0
  H  H1062  1  0.760733  0.398667  0.360367  1.0
  H  H1063  1  0.971267  0.905933  0.027033  1.0
  H  H1064  1  0.934667  0.028733  0.027033  1.0
  H  H1065  1  0.094067  0.065333  0.027033  1.0
  H  H1066  1  0.695400  0.427400  0.306300  1.0
  H  H1067  1  0.732000  0.304600  0.306300  1.0
  H  H1068  1  0.572600  0.268000  0.306300  1.0
  H  H1069  1  0.362067  0.760733  0.639633  1.0
  H  H1070  1  0.398667  0.637933  0.639633  1.0
  H  H1071  1  0.239267  0.601333  0.639633  1.0
  H  H1072  1  0.028733  0.094067  0.972967  1.0
  H  H1073  1  0.065333  0.971267  0.972967  1.0
  H  H1074  1  0.905933  0.934667  0.972967  1.0
  H  H1075  1  0.364500  0.505800  0.675100  1.0
  H  H1076  1  0.141300  0.635500  0.675100  1.0
  H  H1077  1  0.494200  0.858700  0.675100  1.0
  H  H1078  1  0.697833  0.172467  0.341767  1.0
  H  H1079  1  0.474633  0.302167  0.341767  1.0
  H  H1080  1  0.827533  0.525367  0.341767  1.0
  H  H1081  1  0.031167  0.839133  0.008433  1.0
  H  H1082  1  0.807967  0.968833  0.008433  1.0
  H  H1083  1  0.160867  0.192033  0.008433  1.0
  H  H1084  1  0.635500  0.494200  0.324900  1.0
  H  H1085  1  0.858700  0.364500  0.324900  1.0
  H  H1086  1  0.505800  0.141300  0.324900  1.0
  H  H1087  1  0.302167  0.827533  0.658233  1.0
  H  H1088  1  0.525367  0.697833  0.658233  1.0
  H  H1089  1  0.172467  0.474633  0.658233  1.0
  H  H1090  1  0.968833  0.160867  0.991567  1.0
  H  H1091  1  0.192033  0.031167  0.991567  1.0
  H  H1092  1  0.839133  0.807967  0.991567  1.0
  H  H1093  1  0.468100  0.517900  0.703400  1.0
  H  H1094  1  0.049800  0.531900  0.703400  1.0
  H  H1095  1  0.482100  0.950200  0.703400  1.0
  H  H1096  1  0.801433  0.184567  0.370067  1.0
  H  H1097  1  0.383133  0.198567  0.370067  1.0
  H  H1098  1  0.815433  0.616867  0.370067  1.0
  H  H1099  1  0.134767  0.851233  0.036733  1.0
  H  H1100  1  0.716467  0.865233  0.036733  1.0
  H  H1101  1  0.148767  0.283533  0.036733  1.0
  H  H1102  1  0.531900  0.482100  0.296600  1.0
  H  H1103  1  0.950200  0.468100  0.296600  1.0
  H  H1104  1  0.517900  0.049800  0.296600  1.0
  H  H1105  1  0.198567  0.815433  0.629933  1.0
  H  H1106  1  0.616867  0.801433  0.629933  1.0
  H  H1107  1  0.184567  0.383133  0.629933  1.0
  H  H1108  1  0.865233  0.148767  0.963267  1.0
  H  H1109  1  0.283533  0.134767  0.963267  1.0
  H  H1110  1  0.851233  0.716467  0.963267  1.0
  H  H1111  1  0.532600  0.805100  0.870000  1.0
  H  H1112  1  0.272500  0.467400  0.870000  1.0
  H  H1113  1  0.194900  0.727500  0.870000  1.0
  H  H1114  1  0.865933  0.471767  0.536667  1.0
  H  H1115  1  0.605833  0.134067  0.536667  1.0
  H  H1116  1  0.528233  0.394167  0.536667  1.0
  H  H1117  1  0.199267  0.138433  0.203333  1.0
  H  H1118  1  0.939167  0.800733  0.203333  1.0
  H  H1119  1  0.861567  0.060833  0.203333  1.0
  H  H1120  1  0.467400  0.194900  0.130000  1.0
  H  H1121  1  0.727500  0.532600  0.130000  1.0
  H  H1122  1  0.805100  0.272500  0.130000  1.0
  H  H1123  1  0.134067  0.528233  0.463333  1.0
  H  H1124  1  0.394167  0.865933  0.463333  1.0
  H  H1125  1  0.471767  0.605833  0.463333  1.0
  H  H1126  1  0.800733  0.861567  0.796667  1.0
  H  H1127  1  0.060833  0.199267  0.796667  1.0
  H  H1128  1  0.138433  0.939167  0.796667  1.0
  H  H1129  1  0.558000  0.893300  0.867700  1.0
  H  H1130  1  0.335300  0.442000  0.867700  1.0
  H  H1131  1  0.106700  0.664700  0.867700  1.0
  H  H1132  1  0.891333  0.559967  0.534367  1.0
  H  H1133  1  0.668633  0.108667  0.534367  1.0
  H  H1134  1  0.440033  0.331367  0.534367  1.0
  H  H1135  1  0.224667  0.226633  0.201033  1.0
  H  H1136  1  0.001967  0.775333  0.201033  1.0
  H  H1137  1  0.773367  0.998033  0.201033  1.0
  H  H1138  1  0.442000  0.106700  0.132300  1.0
  H  H1139  1  0.664700  0.558000  0.132300  1.0
  H  H1140  1  0.893300  0.335300  0.132300  1.0
  H  H1141  1  0.108667  0.440033  0.465633  1.0
  H  H1142  1  0.331367  0.891333  0.465633  1.0
  H  H1143  1  0.559967  0.668633  0.465633  1.0
  H  H1144  1  0.775333  0.773367  0.798967  1.0
  H  H1145  1  0.998033  0.224667  0.798967  1.0
  H  H1146  1  0.226633  0.001967  0.798967  1.0
  H  H1147  1  0.620000  0.868400  0.874800  1.0
  H  H1148  1  0.248400  0.380000  0.874800  1.0
  H  H1149  1  0.131600  0.751600  0.874800  1.0
  H  H1150  1  0.953333  0.535067  0.541467  1.0
  H  H1151  1  0.581733  0.046667  0.541467  1.0
  H  H1152  1  0.464933  0.418267  0.541467  1.0
  H  H1153  1  0.286667  0.201733  0.208133  1.0
  H  H1154  1  0.915067  0.713333  0.208133  1.0
  H  H1155  1  0.798267  0.084933  0.208133  1.0
  H  H1156  1  0.380000  0.131600  0.125200  1.0
  H  H1157  1  0.751600  0.620000  0.125200  1.0
  H  H1158  1  0.868400  0.248400  0.125200  1.0
  H  H1159  1  0.046667  0.464933  0.458533  1.0
  H  H1160  1  0.418267  0.953333  0.458533  1.0
  H  H1161  1  0.535067  0.581733  0.458533  1.0
  H  H1162  1  0.713333  0.798267  0.791867  1.0
  H  H1163  1  0.084933  0.286667  0.791867  1.0
  H  H1164  1  0.201733  0.915067  0.791867  1.0
  H  H1165  1  0.489700  0.819700  0.783600  1.0
  H  H1166  1  0.330000  0.510300  0.783600  1.0
  H  H1167  1  0.180300  0.670000  0.783600  1.0
  H  H1168  1  0.823033  0.486367  0.450267  1.0
  H  H1169  1  0.663333  0.176967  0.450267  1.0
  H  H1170  1  0.513633  0.336667  0.450267  1.0
  H  H1171  1  0.156367  0.153033  0.116933  1.0
  H  H1172  1  0.996667  0.843633  0.116933  1.0
  H  H1173  1  0.846967  0.003333  0.116933  1.0
  H  H1174  1  0.510300  0.180300  0.216400  1.0
  H  H1175  1  0.670000  0.489700  0.216400  1.0
  H  H1176  1  0.819700  0.330000  0.216400  1.0
  H  H1177  1  0.176967  0.513633  0.549733  1.0
  H  H1178  1  0.336667  0.823033  0.549733  1.0
  H  H1179  1  0.486367  0.663333  0.549733  1.0
  H  H1180  1  0.843633  0.846967  0.883067  1.0
  H  H1181  1  0.003333  0.156367  0.883067  1.0
  H  H1182  1  0.153033  0.996667  0.883067  1.0
  H  H1183  1  0.486900  0.873600  0.811600  1.0
  H  H1184  1  0.386700  0.513100  0.811600  1.0
  H  H1185  1  0.126400  0.613300  0.811600  1.0
  H  H1186  1  0.820233  0.540267  0.478267  1.0
  H  H1187  1  0.720033  0.179767  0.478267  1.0
  H  H1188  1  0.459733  0.279967  0.478267  1.0
  H  H1189  1  0.153567  0.206933  0.144933  1.0
  H  H1190  1  0.053367  0.846433  0.144933  1.0
  H  H1191  1  0.793067  0.946633  0.144933  1.0
  H  H1192  1  0.513100  0.126400  0.188400  1.0
  H  H1193  1  0.613300  0.486900  0.188400  1.0
  H  H1194  1  0.873600  0.386700  0.188400  1.0
  H  H1195  1  0.179767  0.459733  0.521733  1.0
  H  H1196  1  0.279967  0.820233  0.521733  1.0
  H  H1197  1  0.540267  0.720033  0.521733  1.0
  H  H1198  1  0.846433  0.793067  0.855067  1.0
  H  H1199  1  0.946633  0.153567  0.855067  1.0
  H  H1200  1  0.206933  0.053367  0.855067  1.0
  H  H1201  1  0.456600  0.785800  0.819300  1.0
  H  H1202  1  0.329200  0.543400  0.819300  1.0
  H  H1203  1  0.214200  0.670800  0.819300  1.0
  H  H1204  1  0.789933  0.452467  0.485967  1.0
  H  H1205  1  0.662533  0.210067  0.485967  1.0
  H  H1206  1  0.547533  0.337467  0.485967  1.0
  H  H1207  1  0.123267  0.119133  0.152633  1.0
  H  H1208  1  0.995867  0.876733  0.152633  1.0
  H  H1209  1  0.880867  0.004133  0.152633  1.0
  H  H1210  1  0.543400  0.214200  0.180700  1.0
  H  H1211  1  0.670800  0.456600  0.180700  1.0
  H  H1212  1  0.785800  0.329200  0.180700  1.0
  H  H1213  1  0.210067  0.547533  0.514033  1.0
  H  H1214  1  0.337467  0.789933  0.514033  1.0
  H  H1215  1  0.452467  0.662533  0.514033  1.0
  H  H1216  1  0.876733  0.880867  0.847367  1.0
  H  H1217  1  0.004133  0.123267  0.847367  1.0
  H  H1218  1  0.119133  0.995867  0.847367  1.0
  C  C1219  1  0.333333  0.666667  0.886900  1
  C  C1220  1  0.666667  0.333333  0.553567  1
  C  C1221  1  0.000000  0.000000  0.220233  1
  C  C1222  1  0.666667  0.333333  0.113100  1
  C  C1223  1  0.333333  0.666667  0.446433  1
  C  C1224  1  0.000000  0.000000  0.779767  1
  C  C1225  1  0.333333  0.666667  0.744500  1
  C  C1226  1  0.666667  0.333333  0.411167  1
  C  C1227  1  0.000000  0.000000  0.077833  1
  C  C1228  1  0.666667  0.333333  0.255500  1
  C  C1229  1  0.333333  0.666667  0.588833  1
  C  C1230  1  0.000000  0.000000  0.922167  1
  C  C1231  1  0.601500  0.786000  0.726300  1
  C  C1232  1  0.184500  0.398500  0.726300  1
  C  C1233  1  0.214000  0.815500  0.726300  1
  C  C1234  1  0.934833  0.452667  0.392967  1
  C  C1235  1  0.517833  0.065167  0.392967  1
  C  C1236  1  0.547333  0.482167  0.392967  1
  C  C1237  1  0.268167  0.119333  0.059633  1
  C  C1238  1  0.851167  0.731833  0.059633  1
  C  C1239  1  0.880667  0.148833  0.059633  1
  C  C1240  1  0.398500  0.214000  0.273700  1
  C  C1241  1  0.815500  0.601500  0.273700  1
  C  C1242  1  0.786000  0.184500  0.273700  1
  C  C1243  1  0.065167  0.547333  0.607033  1
  C  C1244  1  0.482167  0.934833  0.607033  1
  C  C1245  1  0.452667  0.517833  0.607033  1
  C  C1246  1  0.731833  0.880667  0.940367  1
  C  C1247  1  0.148833  0.268167  0.940367  1
  C  C1248  1  0.119333  0.851167  0.940367  1
  C  C1249  1  0.695700  0.927400  0.736100  1
  C  C1250  1  0.231700  0.304300  0.736100  1
  C  C1251  1  0.072600  0.768300  0.736100  1
  C  C1252  1  0.029033  0.594067  0.402767  1
  C  C1253  1  0.565033  0.970967  0.402767  1
  C  C1254  1  0.405933  0.434967  0.402767  1
  C  C1255  1  0.362367  0.260733  0.069433  1
  C  C1256  1  0.898367  0.637633  0.069433  1
  C  C1257  1  0.739267  0.101633  0.069433  1
  C  C1258  1  0.304300  0.072600  0.263900  1
  C  C1259  1  0.768300  0.695700  0.263900  1
  C  C1260  1  0.927400  0.231700  0.263900  1
  C  C1261  1  0.970967  0.405933  0.597233  1
  C  C1262  1  0.434967  0.029033  0.597233  1
  C  C1263  1  0.594067  0.565033  0.597233  1
  C  C1264  1  0.637633  0.739267  0.930567  1
  C  C1265  1  0.101633  0.362367  0.930567  1
  C  C1266  1  0.260733  0.898367  0.930567  1
  C  C1267  1  0.629000  0.767000  0.724300  1
  C  C1268  1  0.138000  0.371000  0.724300  1
  C  C1269  1  0.233000  0.862000  0.724300  1
  C  C1270  1  0.962333  0.433667  0.390967  1
  C  C1271  1  0.471333  0.037667  0.390967  1
  C  C1272  1  0.566333  0.528667  0.390967  1
  C  C1273  1  0.295667  0.100333  0.057633  1
  C  C1274  1  0.804667  0.704333  0.057633  1
  C  C1275  1  0.899667  0.195333  0.057633  1
  C  C1276  1  0.371000  0.233000  0.275700  1
  C  C1277  1  0.862000  0.629000  0.275700  1
  C  C1278  1  0.767000  0.138000  0.275700  1
  C  C1279  1  0.037667  0.566333  0.609033  1
  C  C1280  1  0.528667  0.962333  0.609033  1
  C  C1281  1  0.433667  0.471333  0.609033  1
  C  C1282  1  0.704333  0.899667  0.942367  1
  C  C1283  1  0.195333  0.295667  0.942367  1
  C  C1284  1  0.100333  0.804667  0.942367  1
  C  C1285  1  0.730000  0.907000  0.741500  1
  C  C1286  1  0.177000  0.270000  0.741500  1
  C  C1287  1  0.093000  0.823000  0.741500  1
  C  C1288  1  0.063333  0.573667  0.408167  1
  C  C1289  1  0.510333  0.936667  0.408167  1
  C  C1290  1  0.426333  0.489667  0.408167  1
  C  C1291  1  0.396667  0.240333  0.074833  1
  C  C1292  1  0.843667  0.603333  0.074833  1
  C  C1293  1  0.759667  0.156333  0.074833  1
  C  C1294  1  0.270000  0.093000  0.258500  1
  C  C1295  1  0.823000  0.730000  0.258500  1
  C  C1296  1  0.907000  0.177000  0.258500  1
  C  C1297  1  0.936667  0.426333  0.591833  1
  C  C1298  1  0.489667  0.063333  0.591833  1
  C  C1299  1  0.573667  0.510333  0.591833  1
  C  C1300  1  0.603333  0.759667  0.925167  1
  C  C1301  1  0.156333  0.396667  0.925167  1
  C  C1302  1  0.240333  0.843667  0.925167  1
  C  C1303  1  0.662000  0.658300  0.672400  1
  C  C1304  1  0.996300  0.338000  0.672400  1
  C  C1305  1  0.341700  0.003700  0.672400  1
  C  C1306  1  0.995333  0.324967  0.339067  1
  C  C1307  1  0.329633  0.004667  0.339067  1
  C  C1308  1  0.675033  0.670367  0.339067  1
  C  C1309  1  0.328667  0.991633  0.005733  1
  C  C1310  1  0.662967  0.671333  0.005733  1
  C  C1311  1  0.008367  0.337033  0.005733  1
  C  C1312  1  0.338000  0.341700  0.327600  1
  C  C1313  1  0.003700  0.662000  0.327600  1
  C  C1314  1  0.658300  0.996300  0.327600  1
  C  C1315  1  0.004667  0.675033  0.660933  1
  C  C1316  1  0.670367  0.995333  0.660933  1
  C  C1317  1  0.324967  0.329633  0.660933  1
  C  C1318  1  0.671333  0.008367  0.994267  1
  C  C1319  1  0.337033  0.328667  0.994267  1
  C  C1320  1  0.991633  0.662967  0.994267  1
  C  C1321  1  0.801300  0.682300  0.663000  1
  C  C1322  1  0.881000  0.198700  0.663000  1
  C  C1323  1  0.317700  0.119000  0.663000  1
  C  C1324  1  0.134633  0.348967  0.329667  1
  C  C1325  1  0.214333  0.865367  0.329667  1
  C  C1326  1  0.651033  0.785667  0.329667  1
  C  C1327  1  0.467967  0.015633  0.996333  1
  C  C1328  1  0.547667  0.532033  0.996333  1
  C  C1329  1  0.984367  0.452333  0.996333  1
  C  C1330  1  0.198700  0.317700  0.337000  1
  C  C1331  1  0.119000  0.801300  0.337000  1
  C  C1332  1  0.682300  0.881000  0.337000  1
  C  C1333  1  0.865367  0.651033  0.670333  1
  C  C1334  1  0.785667  0.134633  0.670333  1
  C  C1335  1  0.348967  0.214333  0.670333  1
  C  C1336  1  0.532033  0.984367  0.003667  1
  C  C1337  1  0.452333  0.467967  0.003667  1
  C  C1338  1  0.015633  0.547667  0.003667  1
  C  C1339  1  0.721500  0.718400  0.661100  1
  C  C1340  1  0.996900  0.278500  0.661100  1
  C  C1341  1  0.281600  0.003100  0.661100  1
  C  C1342  1  0.054833  0.385067  0.327767  1
  C  C1343  1  0.330233  0.945167  0.327767  1
  C  C1344  1  0.614933  0.669767  0.327767  1
  C  C1345  1  0.388167  0.051733  0.994433  1
  C  C1346  1  0.663567  0.611833  0.994433  1
  C  C1347  1  0.948267  0.336433  0.994433  1
  C  C1348  1  0.278500  0.281600  0.338900  1
  C  C1349  1  0.003100  0.721500  0.338900  1
  C  C1350  1  0.718400  0.996900  0.338900  1
  C  C1351  1  0.945167  0.614933  0.672233  1
  C  C1352  1  0.669767  0.054833  0.672233  1
  C  C1353  1  0.385067  0.330233  0.672233  1
  C  C1354  1  0.611833  0.948267  0.005567  1
  C  C1355  1  0.336433  0.388167  0.005567  1
  C  C1356  1  0.051733  0.663567  0.005567  1
  C  C1357  1  0.784100  0.631500  0.669500  1
  C  C1358  1  0.847400  0.215900  0.669500  1
  C  C1359  1  0.368500  0.152600  0.669500  1
  C  C1360  1  0.117433  0.298167  0.336167  1
  C  C1361  1  0.180733  0.882567  0.336167  1
  C  C1362  1  0.701833  0.819267  0.336167  1
  C  C1363  1  0.450767  0.964833  0.002833  1
  C  C1364  1  0.514067  0.549233  0.002833  1
  C  C1365  1  0.035167  0.485933  0.002833  1
  C  C1366  1  0.215900  0.368500  0.330500  1
  C  C1367  1  0.152600  0.784100  0.330500  1
  C  C1368  1  0.631500  0.847400  0.330500  1
  C  C1369  1  0.882567  0.701833  0.663833  1
  C  C1370  1  0.819267  0.117433  0.663833  1
  C  C1371  1  0.298167  0.180733  0.663833  1
  C  C1372  1  0.549233  0.035167  0.997167  1
  C  C1373  1  0.485933  0.450767  0.997167  1
  C  C1374  1  0.964833  0.514067  0.997167  1
  C  C1375  1  0.772000  0.460000  0.696800  1
  C  C1376  1  0.688000  0.228000  0.696800  1
  C  C1377  1  0.540000  0.312000  0.696800  1
  C  C1378  1  0.105333  0.126667  0.363467  1
  C  C1379  1  0.021333  0.894667  0.363467  1
  C  C1380  1  0.873333  0.978667  0.363467  1
  C  C1381  1  0.438667  0.793333  0.030133  1
  C  C1382  1  0.354667  0.561333  0.030133  1
  C  C1383  1  0.206667  0.645333  0.030133  1
  C  C1384  1  0.228000  0.540000  0.303200  1
  C  C1385  1  0.312000  0.772000  0.303200  1
  C  C1386  1  0.460000  0.688000  0.303200  1
  C  C1387  1  0.894667  0.873333  0.636533  1
  C  C1388  1  0.978667  0.105333  0.636533  1
  C  C1389  1  0.126667  0.021333  0.636533  1
  C  C1390  1  0.561333  0.206667  0.969867  1
  C  C1391  1  0.645333  0.438667  0.969867  1
  C  C1392  1  0.793333  0.354667  0.969867  1
  C  C1393  1  0.868000  0.583000  0.730700  1
  C  C1394  1  0.715000  0.132000  0.730700  1
  C  C1395  1  0.417000  0.285000  0.730700  1
  C  C1396  1  0.201333  0.249667  0.397367  1
  C  C1397  1  0.048333  0.798667  0.397367  1
  C  C1398  1  0.750333  0.951667  0.397367  1
  C  C1399  1  0.534667  0.916333  0.064033  1
  C  C1400  1  0.381667  0.465333  0.064033  1
  C  C1401  1  0.083667  0.618333  0.064033  1
  C  C1402  1  0.132000  0.417000  0.269300  1
  C  C1403  1  0.285000  0.868000  0.269300  1
  C  C1404  1  0.583000  0.715000  0.269300  1
  C  C1405  1  0.798667  0.750333  0.602633  1
  C  C1406  1  0.951667  0.201333  0.602633  1
  C  C1407  1  0.249667  0.048333  0.602633  1
  C  C1408  1  0.465333  0.083667  0.935967  1
  C  C1409  1  0.618333  0.534667  0.935967  1
  C  C1410  1  0.916333  0.381667  0.935967  1
  C  C1411  1  0.818000  0.432000  0.765200  1
  C  C1412  1  0.614000  0.182000  0.765200  1
  C  C1413  1  0.568000  0.386000  0.765200  1
  C  C1414  1  0.151333  0.098667  0.431867  1
  C  C1415  1  0.947333  0.848667  0.431867  1
  C  C1416  1  0.901333  0.052667  0.431867  1
  C  C1417  1  0.484667  0.765333  0.098533  1
  C  C1418  1  0.280667  0.515333  0.098533  1
  C  C1419  1  0.234667  0.719333  0.098533  1
  C  C1420  1  0.182000  0.568000  0.234800  1
  C  C1421  1  0.386000  0.818000  0.234800  1
  C  C1422  1  0.432000  0.614000  0.234800  1
  C  C1423  1  0.848667  0.901333  0.568133  1
  C  C1424  1  0.052667  0.151333  0.568133  1
  C  C1425  1  0.098667  0.947333  0.568133  1
  C  C1426  1  0.515333  0.234667  0.901467  1
  C  C1427  1  0.719333  0.484667  0.901467  1
  C  C1428  1  0.765333  0.280667  0.901467  1
  C  C1429  1  0.864000  0.454000  0.703100  1
  C  C1430  1  0.590000  0.136000  0.703100  1
  C  C1431  1  0.546000  0.410000  0.703100  1
  C  C1432  1  0.197333  0.120667  0.369767  1
  C  C1433  1  0.923333  0.802667  0.369767  1
  C  C1434  1  0.879333  0.076667  0.369767  1
  C  C1435  1  0.530667  0.787333  0.036433  1
  C  C1436  1  0.256667  0.469333  0.036433  1
  C  C1437  1  0.212667  0.743333  0.036433  1
  C  C1438  1  0.136000  0.546000  0.296900  1
  C  C1439  1  0.410000  0.864000  0.296900  1
  C  C1440  1  0.454000  0.590000  0.296900  1
  C  C1441  1  0.802667  0.879333  0.630233  1
  C  C1442  1  0.076667  0.197333  0.630233  1
  C  C1443  1  0.120667  0.923333  0.630233  1
  C  C1444  1  0.469333  0.212667  0.963567  1
  C  C1445  1  0.743333  0.530667  0.963567  1
  C  C1446  1  0.787333  0.256667  0.963567  1
  C  C1447  1  0.869300  0.436300  0.727200  1
  C  C1448  1  0.567000  0.130700  0.727200  1
  C  C1449  1  0.563700  0.433000  0.727200  1
  C  C1450  1  0.202633  0.102967  0.393867  1
  C  C1451  1  0.900333  0.797367  0.393867  1
  C  C1452  1  0.897033  0.099667  0.393867  1
  C  C1453  1  0.535967  0.769633  0.060533  1
  C  C1454  1  0.233667  0.464033  0.060533  1
  C  C1455  1  0.230367  0.766333  0.060533  1
  C  C1456  1  0.130700  0.563700  0.272800  1
  C  C1457  1  0.433000  0.869300  0.272800  1
  C  C1458  1  0.436300  0.567000  0.272800  1
  C  C1459  1  0.797367  0.897033  0.606133  1
  C  C1460  1  0.099667  0.202633  0.606133  1
  C  C1461  1  0.102967  0.900333  0.606133  1
  C  C1462  1  0.464033  0.230367  0.939467  1
  C  C1463  1  0.766333  0.535967  0.939467  1
  C  C1464  1  0.769633  0.233667  0.939467  1
  C  C1465  1  0.773000  0.385000  0.677600  1
  C  C1466  1  0.612000  0.227000  0.677600  1
  C  C1467  1  0.615000  0.388000  0.677600  1
  C  C1468  1  0.106333  0.051667  0.344267  1
  C  C1469  1  0.945333  0.893667  0.344267  1
  C  C1470  1  0.948333  0.054667  0.344267  1
  C  C1471  1  0.439667  0.718333  0.010933  1
  C  C1472  1  0.278667  0.560333  0.010933  1
  C  C1473  1  0.281667  0.721333  0.010933  1
  C  C1474  1  0.227000  0.615000  0.322400  1
  C  C1475  1  0.388000  0.773000  0.322400  1
  C  C1476  1  0.385000  0.612000  0.322400  1
  C  C1477  1  0.893667  0.948333  0.655733  1
  C  C1478  1  0.054667  0.106333  0.655733  1
  C  C1479  1  0.051667  0.945333  0.655733  1
  C  C1480  1  0.560333  0.281667  0.989067  1
  C  C1481  1  0.721333  0.439667  0.989067  1
  C  C1482  1  0.718333  0.278667  0.989067  1
  C  C1483  1  0.784000  0.360000  0.821000  1
  C  C1484  1  0.576000  0.216000  0.821000  1
  C  C1485  1  0.640000  0.424000  0.821000  1
  C  C1486  1  0.117333  0.026667  0.487667  1
  C  C1487  1  0.909333  0.882667  0.487667  1
  C  C1488  1  0.973333  0.090667  0.487667  1
  C  C1489  1  0.450667  0.693333  0.154333  1
  C  C1490  1  0.242667  0.549333  0.154333  1
  C  C1491  1  0.306667  0.757333  0.154333  1
  C  C1492  1  0.216000  0.640000  0.179000  1
  C  C1493  1  0.424000  0.784000  0.179000  1
  C  C1494  1  0.360000  0.576000  0.179000  1
  C  C1495  1  0.882667  0.973333  0.512333  1
  C  C1496  1  0.090667  0.117333  0.512333  1
  C  C1497  1  0.026667  0.909333  0.512333  1
  C  C1498  1  0.549333  0.306667  0.845667  1
  C  C1499  1  0.757333  0.450667  0.845667  1
  C  C1500  1  0.693333  0.242667  0.845667  1
  C  C1501  1  0.638000  0.315000  0.816800  1
  C  C1502  1  0.677000  0.362000  0.816800  1
  C  C1503  1  0.685000  0.323000  0.816800  1
  C  C1504  1  0.971333  0.981667  0.483467  1
  C  C1505  1  0.010333  0.028667  0.483467  1
  C  C1506  1  0.018333  0.989667  0.483467  1
  C  C1507  1  0.304667  0.648333  0.150133  1
  C  C1508  1  0.343667  0.695333  0.150133  1
  C  C1509  1  0.351667  0.656333  0.150133  1
  C  C1510  1  0.362000  0.685000  0.183200  1
  C  C1511  1  0.323000  0.638000  0.183200  1
  C  C1512  1  0.315000  0.677000  0.183200  1
  C  C1513  1  0.028667  0.018333  0.516533  1
  C  C1514  1  0.989667  0.971333  0.516533  1
  C  C1515  1  0.981667  0.010333  0.516533  1
  C  C1516  1  0.695333  0.351667  0.849867  1
  C  C1517  1  0.656333  0.304667  0.849867  1
  C  C1518  1  0.648333  0.343667  0.849867  1
  C  C1519  1  0.370700  0.621600  0.897920  1.0
  C  C1520  1  0.250900  0.629300  0.897920  1.0
  C  C1521  1  0.378400  0.749100  0.897920  1.0
  C  C1522  1  0.704033  0.288267  0.564587  1.0
  C  C1523  1  0.584233  0.295967  0.564587  1.0
  C  C1524  1  0.711733  0.415767  0.564587  1.0
  C  C1525  1  0.037367  0.954933  0.231253  1.0
  C  C1526  1  0.917567  0.962633  0.231253  1.0
  C  C1527  1  0.045067  0.082433  0.231253  1.0
  C  C1528  1  0.629300  0.378400  0.102080  1.0
  C  C1529  1  0.749100  0.370700  0.102080  1.0
  C  C1530  1  0.621600  0.250900  0.102080  1.0
  C  C1531  1  0.295967  0.711733  0.435413  1.0
  C  C1532  1  0.415767  0.704033  0.435413  1.0
  C  C1533  1  0.288267  0.584233  0.435413  1.0
  C  C1534  1  0.962633  0.045067  0.768747  1.0
  C  C1535  1  0.082433  0.037367  0.768747  1.0
  C  C1536  1  0.954933  0.917567  0.768747  1.0
  C  C1537  1  0.433500  0.628600  0.879010  1.0
  C  C1538  1  0.195100  0.566500  0.879010  1.0
  C  C1539  1  0.371400  0.804900  0.879010  1.0
  C  C1540  1  0.766833  0.295267  0.545677  1.0
  C  C1541  1  0.528433  0.233167  0.545677  1.0
  C  C1542  1  0.704733  0.471567  0.545677  1.0
  C  C1543  1  0.100167  0.961933  0.212343  1.0
  C  C1544  1  0.861767  0.899833  0.212343  1.0
  C  C1545  1  0.038067  0.138233  0.212343  1.0
  C  C1546  1  0.566500  0.371400  0.120990  1.0
  C  C1547  1  0.804900  0.433500  0.120990  1.0
  C  C1548  1  0.628600  0.195100  0.120990  1.0
  C  C1549  1  0.233167  0.704733  0.454323  1.0
  C  C1550  1  0.471567  0.766833  0.454323  1.0
  C  C1551  1  0.295267  0.528433  0.454323  1.0
  C  C1552  1  0.899833  0.038067  0.787657  1.0
  C  C1553  1  0.138233  0.100167  0.787657  1.0
  C  C1554  1  0.961933  0.861767  0.787657  1.0
  C  C1555  1  0.472200  0.590600  0.891000  1.0
  C  C1556  1  0.118400  0.527800  0.891000  1.0
  C  C1557  1  0.409400  0.881600  0.891000  1.0
  C  C1558  1  0.805533  0.257267  0.557667  1.0
  C  C1559  1  0.451733  0.194467  0.557667  1.0
  C  C1560  1  0.742733  0.548267  0.557667  1.0
  C  C1561  1  0.138867  0.923933  0.224333  1.0
  C  C1562  1  0.785067  0.861133  0.224333  1.0
  C  C1563  1  0.076067  0.214933  0.224333  1.0
  C  C1564  1  0.527800  0.409400  0.109000  1.0
  C  C1565  1  0.881600  0.472200  0.109000  1.0
  C  C1566  1  0.590600  0.118400  0.109000  1.0
  C  C1567  1  0.194467  0.742733  0.442333  1.0
  C  C1568  1  0.548267  0.805533  0.442333  1.0
  C  C1569  1  0.257267  0.451733  0.442333  1.0
  C  C1570  1  0.861133  0.076067  0.775667  1.0
  C  C1571  1  0.214933  0.138867  0.775667  1.0
  C  C1572  1  0.923933  0.785067  0.775667  1.0
  C  C1573  1  0.446600  0.546100  0.919900  1.0
  C  C1574  1  0.099500  0.553400  0.919900  1.0
  C  C1575  1  0.453900  0.900500  0.919900  1.0
  C  C1576  1  0.779933  0.212767  0.586567  1.0
  C  C1577  1  0.432833  0.220067  0.586567  1.0
  C  C1578  1  0.787233  0.567167  0.586567  1.0
  C  C1579  1  0.113267  0.879433  0.253233  1.0
  C  C1580  1  0.766167  0.886733  0.253233  1.0
  C  C1581  1  0.120567  0.233833  0.253233  1.0
  C  C1582  1  0.553400  0.453900  0.080100  1.0
  C  C1583  1  0.900500  0.446600  0.080100  1.0
  C  C1584  1  0.546100  0.099500  0.080100  1.0
  C  C1585  1  0.220067  0.787233  0.413433  1.0
  C  C1586  1  0.567167  0.779933  0.413433  1.0
  C  C1587  1  0.212767  0.432833  0.413433  1.0
  C  C1588  1  0.886733  0.120567  0.746767  1.0
  C  C1589  1  0.233833  0.113267  0.746767  1.0
  C  C1590  1  0.879433  0.766167  0.746767  1.0
  C  C1591  1  0.386200  0.539500  0.937600  1.0
  C  C1592  1  0.153300  0.613800  0.937600  1.0
  C  C1593  1  0.460500  0.846700  0.937600  1.0
  C  C1594  1  0.719533  0.206167  0.604267  1.0
  C  C1595  1  0.486633  0.280467  0.604267  1.0
  C  C1596  1  0.793833  0.513367  0.604267  1.0
  C  C1597  1  0.052867  0.872833  0.270933  1.0
  C  C1598  1  0.819967  0.947133  0.270933  1.0
  C  C1599  1  0.127167  0.180033  0.270933  1.0
  C  C1600  1  0.613800  0.460500  0.062400  1.0
  C  C1601  1  0.846700  0.386200  0.062400  1.0
  C  C1602  1  0.539500  0.153300  0.062400  1.0
  C  C1603  1  0.280467  0.793833  0.395733  1.0
  C  C1604  1  0.513367  0.719533  0.395733  1.0
  C  C1605  1  0.206167  0.486633  0.395733  1.0
  C  C1606  1  0.947133  0.127167  0.729067  1.0
  C  C1607  1  0.180033  0.052867  0.729067  1.0
  C  C1608  1  0.872833  0.819967  0.729067  1.0
  C  C1609  1  0.347500  0.577300  0.925800  1.0
  C  C1610  1  0.229800  0.652500  0.925800  1.0
  C  C1611  1  0.422700  0.770200  0.925800  1.0
  C  C1612  1  0.680833  0.243967  0.592467  1.0
  C  C1613  1  0.563133  0.319167  0.592467  1.0
  C  C1614  1  0.756033  0.436867  0.592467  1.0
  C  C1615  1  0.014167  0.910633  0.259133  1.0
  C  C1616  1  0.896467  0.985833  0.259133  1.0
  C  C1617  1  0.089367  0.103533  0.259133  1.0
  C  C1618  1  0.652500  0.422700  0.074200  1.0
  C  C1619  1  0.770200  0.347500  0.074200  1.0
  C  C1620  1  0.577300  0.229800  0.074200  1.0
  C  C1621  1  0.319167  0.756033  0.407533  1.0
  C  C1622  1  0.436867  0.680833  0.407533  1.0
  C  C1623  1  0.243967  0.563133  0.407533  1.0
  C  C1624  1  0.985833  0.089367  0.740867  1.0
  C  C1625  1  0.103533  0.014167  0.740867  1.0
  C  C1626  1  0.910633  0.896467  0.740867  1.0
  C  C1627  1  0.535300  0.592900  0.874900  1.0
  C  C1628  1  0.057600  0.464700  0.874900  1.0
  C  C1629  1  0.407100  0.942400  0.874900  1.0
  C  C1630  1  0.868633  0.259567  0.541567  1.0
  C  C1631  1  0.390933  0.131367  0.541567  1.0
  C  C1632  1  0.740433  0.609067  0.541567  1.0
  C  C1633  1  0.201967  0.926233  0.208233  1.0
  C  C1634  1  0.724267  0.798033  0.208233  1.0
  C  C1635  1  0.073767  0.275733  0.208233  1.0
  C  C1636  1  0.464700  0.407100  0.125100  1.0
  C  C1637  1  0.942400  0.535300  0.125100  1.0
  C  C1638  1  0.592900  0.057600  0.125100  1.0
  C  C1639  1  0.131367  0.740433  0.458433  1.0
  C  C1640  1  0.609067  0.868633  0.458433  1.0
  C  C1641  1  0.259567  0.390933  0.458433  1.0
  C  C1642  1  0.798033  0.073767  0.791767  1.0
  C  C1643  1  0.275733  0.201967  0.791767  1.0
  C  C1644  1  0.926233  0.724267  0.791767  1.0
  C  C1645  1  0.622300  0.616500  0.832100  1.0
  C  C1646  1  0.994200  0.377700  0.832100  1.0
  C  C1647  1  0.383500  0.005800  0.832100  1.0
  C  C1648  1  0.955633  0.283167  0.498767  1.0
  C  C1649  1  0.327533  0.044367  0.498767  1.0
  C  C1650  1  0.716833  0.672467  0.498767  1.0
  C  C1651  1  0.288967  0.949833  0.165433  1.0
  C  C1652  1  0.660867  0.711033  0.165433  1.0
  C  C1653  1  0.050167  0.339133  0.165433  1.0
  C  C1654  1  0.377700  0.383500  0.167900  1.0
  C  C1655  1  0.005800  0.622300  0.167900  1.0
  C  C1656  1  0.616500  0.994200  0.167900  1.0
  C  C1657  1  0.044367  0.716833  0.501233  1.0
  C  C1658  1  0.672467  0.955633  0.501233  1.0
  C  C1659  1  0.283167  0.327533  0.501233  1.0
  C  C1660  1  0.711033  0.050167  0.834567  1.0
  C  C1661  1  0.339133  0.288967  0.834567  1.0
  C  C1662  1  0.949833  0.660867  0.834567  1.0
  C  C1663  1  0.680400  0.612700  0.850100  1.0
  C  C1664  1  0.932300  0.319600  0.850100  1.0
  C  C1665  1  0.387300  0.067700  0.850100  1.0
  C  C1666  1  0.013733  0.279367  0.516767  1.0
  C  C1667  1  0.265633  0.986267  0.516767  1.0
  C  C1668  1  0.720633  0.734367  0.516767  1.0
  C  C1669  1  0.347067  0.946033  0.183433  1.0
  C  C1670  1  0.598967  0.652933  0.183433  1.0
  C  C1671  1  0.053967  0.401033  0.183433  1.0
  C  C1672  1  0.319600  0.387300  0.149900  1.0
  C  C1673  1  0.067700  0.680400  0.149900  1.0
  C  C1674  1  0.612700  0.932300  0.149900  1.0
  C  C1675  1  0.986267  0.720633  0.483233  1.0
  C  C1676  1  0.734367  0.013733  0.483233  1.0
  C  C1677  1  0.279367  0.265633  0.483233  1.0
  C  C1678  1  0.652933  0.053967  0.816567  1.0
  C  C1679  1  0.401033  0.347067  0.816567  1.0
  C  C1680  1  0.946033  0.598967  0.816567  1.0
  C  C1681  1  0.733900  0.604200  0.831900  1.0
  C  C1682  1  0.870300  0.266100  0.831900  1.0
  C  C1683  1  0.395800  0.129700  0.831900  1.0
  C  C1684  1  0.067233  0.270867  0.498567  1.0
  C  C1685  1  0.203633  0.932767  0.498567  1.0
  C  C1686  1  0.729133  0.796367  0.498567  1.0
  C  C1687  1  0.400567  0.937533  0.165233  1.0
  C  C1688  1  0.536967  0.599433  0.165233  1.0
  C  C1689  1  0.062467  0.463033  0.165233  1.0
  C  C1690  1  0.266100  0.395800  0.168100  1.0
  C  C1691  1  0.129700  0.733900  0.168100  1.0
  C  C1692  1  0.604200  0.870300  0.168100  1.0
  C  C1693  1  0.932767  0.729133  0.501433  1.0
  C  C1694  1  0.796367  0.067233  0.501433  1.0
  C  C1695  1  0.270867  0.203633  0.501433  1.0
  C  C1696  1  0.599433  0.062467  0.834767  1.0
  C  C1697  1  0.463033  0.400567  0.834767  1.0
  C  C1698  1  0.937533  0.536967  0.834767  1.0
  C  C1699  1  0.730300  0.598500  0.798800  1.0
  C  C1700  1  0.868200  0.269700  0.798800  1.0
  C  C1701  1  0.401500  0.131800  0.798800  1.0
  C  C1702  1  0.063633  0.265167  0.465467  1.0
  C  C1703  1  0.201533  0.936367  0.465467  1.0
  C  C1704  1  0.734833  0.798467  0.465467  1.0
  C  C1705  1  0.396967  0.931833  0.132133  1.0
  C  C1706  1  0.534867  0.603033  0.132133  1.0
  C  C1707  1  0.068167  0.465133  0.132133  1.0
  C  C1708  1  0.269700  0.401500  0.201200  1.0
  C  C1709  1  0.131800  0.730300  0.201200  1.0
  C  C1710  1  0.598500  0.868200  0.201200  1.0
  C  C1711  1  0.936367  0.734833  0.534533  1.0
  C  C1712  1  0.798467  0.063633  0.534533  1.0
  C  C1713  1  0.265167  0.201533  0.534533  1.0
  C  C1714  1  0.603033  0.068167  0.867867  1.0
  C  C1715  1  0.465133  0.396967  0.867867  1.0
  C  C1716  1  0.931833  0.534867  0.867867  1.0
  C  C1717  1  0.675000  0.604400  0.781400  1.0
  C  C1718  1  0.929400  0.325000  0.781400  1.0
  C  C1719  1  0.395600  0.070600  0.781400  1.0
  C  C1720  1  0.008333  0.271067  0.448067  1.0
  C  C1721  1  0.262733  0.991667  0.448067  1.0
  C  C1722  1  0.728933  0.737267  0.448067  1.0
  C  C1723  1  0.341667  0.937733  0.114733  1.0
  C  C1724  1  0.596067  0.658333  0.114733  1.0
  C  C1725  1  0.062267  0.403933  0.114733  1.0
  C  C1726  1  0.325000  0.395600  0.218600  1.0
  C  C1727  1  0.070600  0.675000  0.218600  1.0
  C  C1728  1  0.604400  0.929400  0.218600  1.0
  C  C1729  1  0.991667  0.728933  0.551933  1.0
  C  C1730  1  0.737267  0.008333  0.551933  1.0
  C  C1731  1  0.271067  0.262733  0.551933  1.0
  C  C1732  1  0.658333  0.062267  0.885267  1.0
  C  C1733  1  0.403933  0.341667  0.885267  1.0
  C  C1734  1  0.937733  0.596067  0.885267  1.0
  C  C1735  1  0.620500  0.613400  0.798400  1.0
  C  C1736  1  0.992900  0.379500  0.798400  1.0
  C  C1737  1  0.386600  0.007100  0.798400  1.0
  C  C1738  1  0.953833  0.280067  0.465067  1.0
  C  C1739  1  0.326233  0.046167  0.465067  1.0
  C  C1740  1  0.719933  0.673767  0.465067  1.0
  C  C1741  1  0.287167  0.946733  0.131733  1.0
  C  C1742  1  0.659567  0.712833  0.131733  1.0
  C  C1743  1  0.053267  0.340433  0.131733  1.0
  C  C1744  1  0.379500  0.386600  0.201600  1.0
  C  C1745  1  0.007100  0.620500  0.201600  1.0
  C  C1746  1  0.613400  0.992900  0.201600  1.0
  C  C1747  1  0.046167  0.719933  0.534933  1.0
  C  C1748  1  0.673767  0.953833  0.534933  1.0
  C  C1749  1  0.280067  0.326233  0.534933  1.0
  C  C1750  1  0.712833  0.053267  0.868267  1.0
  C  C1751  1  0.340433  0.287167  0.868267  1.0
  C  C1752  1  0.946733  0.659567  0.868267  1.0
  C  C1753  1  0.531300  0.587200  0.756600  1.0
  C  C1754  1  0.055900  0.468700  0.756600  1.0
  C  C1755  1  0.412800  0.944100  0.756600  1.0
  C  C1756  1  0.864633  0.253867  0.423267  1.0
  C  C1757  1  0.389233  0.135367  0.423267  1.0
  C  C1758  1  0.746133  0.610767  0.423267  1.0
  C  C1759  1  0.197967  0.920533  0.089933  1.0
  C  C1760  1  0.722567  0.802033  0.089933  1.0
  C  C1761  1  0.079467  0.277433  0.089933  1.0
  C  C1762  1  0.468700  0.412800  0.243400  1.0
  C  C1763  1  0.944100  0.531300  0.243400  1.0
  C  C1764  1  0.587200  0.055900  0.243400  1.0
  C  C1765  1  0.135367  0.746133  0.576733  1.0
  C  C1766  1  0.610767  0.864633  0.576733  1.0
  C  C1767  1  0.253867  0.389233  0.576733  1.0
  C  C1768  1  0.802033  0.079467  0.910067  1.0
  C  C1769  1  0.277433  0.197967  0.910067  1.0
  C  C1770  1  0.920533  0.722567  0.910067  1.0
  C  C1771  1  0.469800  0.587700  0.739780  1.0
  C  C1772  1  0.117900  0.530200  0.739780  1.0
  C  C1773  1  0.412300  0.882100  0.739780  1.0
  C  C1774  1  0.803133  0.254367  0.406447  1.0
  C  C1775  1  0.451233  0.196867  0.406447  1.0
  C  C1776  1  0.745633  0.548767  0.406447  1.0
  C  C1777  1  0.136467  0.921033  0.073113  1.0
  C  C1778  1  0.784567  0.863533  0.073113  1.0
  C  C1779  1  0.078967  0.215433  0.073113  1.0
  C  C1780  1  0.530200  0.412300  0.260220  1.0
  C  C1781  1  0.882100  0.469800  0.260220  1.0
  C  C1782  1  0.587700  0.117900  0.260220  1.0
  C  C1783  1  0.196867  0.745633  0.593553  1.0
  C  C1784  1  0.548767  0.803133  0.593553  1.0
  C  C1785  1  0.254367  0.451233  0.593553  1.0
  C  C1786  1  0.863533  0.078967  0.926887  1.0
  C  C1787  1  0.215433  0.136467  0.926887  1.0
  C  C1788  1  0.921033  0.784567  0.926887  1.0
  C  C1789  1  0.433200  0.628100  0.751810  1.0
  C  C1790  1  0.194900  0.566800  0.751810  1.0
  C  C1791  1  0.371900  0.805100  0.751810  1.0
  C  C1792  1  0.766533  0.294767  0.418477  1.0
  C  C1793  1  0.528233  0.233467  0.418477  1.0
  C  C1794  1  0.705233  0.471767  0.418477  1.0
  C  C1795  1  0.099867  0.961433  0.085143  1.0
  C  C1796  1  0.861567  0.900133  0.085143  1.0
  C  C1797  1  0.038567  0.138433  0.085143  1.0
  C  C1798  1  0.566800  0.371900  0.248190  1.0
  C  C1799  1  0.805100  0.433200  0.248190  1.0
  C  C1800  1  0.628100  0.194900  0.248190  1.0
  C  C1801  1  0.233467  0.705233  0.581523  1.0
  C  C1802  1  0.471767  0.766533  0.581523  1.0
  C  C1803  1  0.294767  0.528233  0.581523  1.0
  C  C1804  1  0.900133  0.038567  0.914857  1.0
  C  C1805  1  0.138433  0.099867  0.914857  1.0
  C  C1806  1  0.961433  0.861567  0.914857  1.0
  C  C1807  1  0.370000  0.620800  0.733170  1.0
  C  C1808  1  0.250800  0.630000  0.733170  1.0
  C  C1809  1  0.379200  0.749200  0.733170  1.0
  C  C1810  1  0.703333  0.287467  0.399837  1.0
  C  C1811  1  0.584133  0.296667  0.399837  1.0
  C  C1812  1  0.712533  0.415867  0.399837  1.0
  C  C1813  1  0.036667  0.954133  0.066503  1.0
  C  C1814  1  0.917467  0.963333  0.066503  1.0
  C  C1815  1  0.045867  0.082533  0.066503  1.0
  C  C1816  1  0.630000  0.379200  0.266830  1.0
  C  C1817  1  0.749200  0.370000  0.266830  1.0
  C  C1818  1  0.620800  0.250800  0.266830  1.0
  C  C1819  1  0.296667  0.712533  0.600163  1.0
  C  C1820  1  0.415867  0.703333  0.600163  1.0
  C  C1821  1  0.287467  0.584133  0.600163  1.0
  C  C1822  1  0.963333  0.045867  0.933497  1.0
  C  C1823  1  0.082533  0.036667  0.933497  1.0
  C  C1824  1  0.954133  0.917467  0.933497  1.0
  C  C1825  1  0.346600  0.576700  0.705660  1.0
  C  C1826  1  0.230100  0.653400  0.705660  1.0
  C  C1827  1  0.423300  0.769900  0.705660  1.0
  C  C1828  1  0.679933  0.243367  0.372327  1.0
  C  C1829  1  0.563433  0.320067  0.372327  1.0
  C  C1830  1  0.756633  0.436567  0.372327  1.0
  C  C1831  1  0.013267  0.910033  0.038993  1.0
  C  C1832  1  0.896767  0.986733  0.038993  1.0
  C  C1833  1  0.089967  0.103233  0.038993  1.0
  C  C1834  1  0.653400  0.423300  0.294340  1.0
  C  C1835  1  0.769900  0.346600  0.294340  1.0
  C  C1836  1  0.576700  0.230100  0.294340  1.0
  C  C1837  1  0.320067  0.756633  0.627673  1.0
  C  C1838  1  0.436567  0.679933  0.627673  1.0
  C  C1839  1  0.243367  0.563433  0.627673  1.0
  C  C1840  1  0.986733  0.089967  0.961007  1.0
  C  C1841  1  0.103233  0.013267  0.961007  1.0
  C  C1842  1  0.910033  0.896767  0.961007  1.0
  C  C1843  1  0.382400  0.536700  0.694220  1.0
  C  C1844  1  0.154300  0.617600  0.694220  1.0
  C  C1845  1  0.463300  0.845700  0.694220  1.0
  C  C1846  1  0.715733  0.203367  0.360887  1.0
  C  C1847  1  0.487633  0.284267  0.360887  1.0
  C  C1848  1  0.796633  0.512367  0.360887  1.0
  C  C1849  1  0.049067  0.870033  0.027553  1.0
  C  C1850  1  0.820967  0.950933  0.027553  1.0
  C  C1851  1  0.129967  0.179033  0.027553  1.0
  C  C1852  1  0.617600  0.463300  0.305780  1.0
  C  C1853  1  0.845700  0.382400  0.305780  1.0
  C  C1854  1  0.536700  0.154300  0.305780  1.0
  C  C1855  1  0.284267  0.796633  0.639113  1.0
  C  C1856  1  0.512367  0.715733  0.639113  1.0
  C  C1857  1  0.203367  0.487633  0.639113  1.0
  C  C1858  1  0.950933  0.129967  0.972447  1.0
  C  C1859  1  0.179033  0.049067  0.972447  1.0
  C  C1860  1  0.870033  0.820967  0.972447  1.0
  C  C1861  1  0.443000  0.543700  0.711170  1.0
  C  C1862  1  0.100700  0.557000  0.711170  1.0
  C  C1863  1  0.456300  0.899300  0.711170  1.0
  C  C1864  1  0.776333  0.210367  0.377837  1.0
  C  C1865  1  0.434033  0.223667  0.377837  1.0
  C  C1866  1  0.789633  0.565967  0.377837  1.0
  C  C1867  1  0.109667  0.877033  0.044503  1.0
  C  C1868  1  0.767367  0.890333  0.044503  1.0
  C  C1869  1  0.122967  0.232633  0.044503  1.0
  C  C1870  1  0.557000  0.456300  0.288830  1.0
  C  C1871  1  0.899300  0.443000  0.288830  1.0
  C  C1872  1  0.543700  0.100700  0.288830  1.0
  C  C1873  1  0.223667  0.789633  0.622163  1.0
  C  C1874  1  0.565967  0.776333  0.622163  1.0
  C  C1875  1  0.210367  0.434033  0.622163  1.0
  C  C1876  1  0.890333  0.122967  0.955497  1.0
  C  C1877  1  0.232633  0.109667  0.955497  1.0
  C  C1878  1  0.877033  0.767367  0.955497  1.0
  C  C1879  1  0.573000  0.855300  0.862900  1.0
  C  C1880  1  0.282300  0.427000  0.862900  1.0
  C  C1881  1  0.144700  0.717700  0.862900  1.0
  C  C1882  1  0.906333  0.521967  0.529567  1.0
  C  C1883  1  0.615633  0.093667  0.529567  1.0
  C  C1884  1  0.478033  0.384367  0.529567  1.0
  C  C1885  1  0.239667  0.188633  0.196233  1.0
  C  C1886  1  0.948967  0.760333  0.196233  1.0
  C  C1887  1  0.811367  0.051033  0.196233  1.0
  C  C1888  1  0.427000  0.144700  0.137100  1.0
  C  C1889  1  0.717700  0.573000  0.137100  1.0
  C  C1890  1  0.855300  0.282300  0.137100  1.0
  C  C1891  1  0.093667  0.478033  0.470433  1.0
  C  C1892  1  0.384367  0.906333  0.470433  1.0
  C  C1893  1  0.521967  0.615633  0.470433  1.0
  C  C1894  1  0.760333  0.811367  0.803767  1.0
  C  C1895  1  0.051033  0.239667  0.803767  1.0
  C  C1896  1  0.188633  0.948967  0.803767  1.0
  C  C1897  1  0.494700  0.830600  0.807300  1.0
  C  C1898  1  0.335900  0.505300  0.807300  1.0
  C  C1899  1  0.169400  0.664100  0.807300  1.0
  C  C1900  1  0.828033  0.497267  0.473967  1.0
  C  C1901  1  0.669233  0.171967  0.473967  1.0
  C  C1902  1  0.502733  0.330767  0.473967  1.0
  C  C1903  1  0.161367  0.163933  0.140633  1.0
  C  C1904  1  0.002567  0.838633  0.140633  1.0
  C  C1905  1  0.836067  0.997433  0.140633  1.0
  C  C1906  1  0.505300  0.169400  0.192700  1.0
  C  C1907  1  0.664100  0.494700  0.192700  1.0
  C  C1908  1  0.830600  0.335900  0.192700  1.0
  C  C1909  1  0.171967  0.502733  0.526033  1.0
  C  C1910  1  0.330767  0.828033  0.526033  1.0
  C  C1911  1  0.497267  0.669233  0.526033  1.0
  C  C1912  1  0.838633  0.836067  0.859367  1.0
  C  C1913  1  0.997433  0.161367  0.859367  1.0
  C  C1914  1  0.163933  0.002567  0.859367  1.0
  S  S1915  1  0.699400  0.845900  0.721530  1
  S  S1916  1  0.146500  0.300600  0.721530  1
  S  S1917  1  0.154100  0.853500  0.721530  1
  S  S1918  1  0.032733  0.512567  0.388197  1
  S  S1919  1  0.479833  0.967267  0.388197  1
  S  S1920  1  0.487433  0.520167  0.388197  1
  S  S1921  1  0.366067  0.179233  0.054863  1
  S  S1922  1  0.813167  0.633933  0.054863  1
  S  S1923  1  0.820767  0.186833  0.054863  1
  S  S1924  1  0.300600  0.154100  0.278470  1
  S  S1925  1  0.853500  0.699400  0.278470  1
  S  S1926  1  0.845900  0.146500  0.278470  1
  S  S1927  1  0.967267  0.487433  0.611803  1
  S  S1928  1  0.520167  0.032733  0.611803  1
  S  S1929  1  0.512567  0.479833  0.611803  1
  S  S1930  1  0.633933  0.820767  0.945137  1
  S  S1931  1  0.186833  0.366067  0.945137  1
  S  S1932  1  0.179233  0.813167  0.945137  1
  S  S1933  1  0.668300  0.858600  0.707400  1
  S  S1934  1  0.190300  0.331700  0.707400  1
  S  S1935  1  0.141400  0.809700  0.707400  1
  S  S1936  1  0.001633  0.525267  0.374067  1
  S  S1937  1  0.523633  0.998367  0.374067  1
  S  S1938  1  0.474733  0.476367  0.374067  1
  S  S1939  1  0.334967  0.191933  0.040733  1
  S  S1940  1  0.856967  0.665033  0.040733  1
  S  S1941  1  0.808067  0.143033  0.040733  1
  S  S1942  1  0.331700  0.141400  0.292600  1
  S  S1943  1  0.809700  0.668300  0.292600  1
  S  S1944  1  0.858600  0.190300  0.292600  1
  S  S1945  1  0.998367  0.474733  0.625933  1
  S  S1946  1  0.476367  0.001633  0.625933  1
  S  S1947  1  0.525267  0.523633  0.625933  1
  S  S1948  1  0.665033  0.808067  0.959267  1
  S  S1949  1  0.143033  0.334967  0.959267  1
  S  S1950  1  0.191933  0.856967  0.959267  1
  S  S1951  1  0.709800  0.603800  0.667900  1
  S  S1952  1  0.894000  0.290200  0.667900  1
  S  S1953  1  0.396200  0.106000  0.667900  1
  S  S1954  1  0.043133  0.270467  0.334567  1
  S  S1955  1  0.227333  0.956867  0.334567  1
  S  S1956  1  0.729533  0.772667  0.334567  1
  S  S1957  1  0.376467  0.937133  0.001233  1
  S  S1958  1  0.560667  0.623533  0.001233  1
  S  S1959  1  0.062867  0.439333  0.001233  1
  S  S1960  1  0.290200  0.396200  0.332100  1
  S  S1961  1  0.106000  0.709800  0.332100  1
  S  S1962  1  0.603800  0.894000  0.332100  1
  S  S1963  1  0.956867  0.729533  0.665433  1
  S  S1964  1  0.772667  0.043133  0.665433  1
  S  S1965  1  0.270467  0.227333  0.665433  1
  S  S1966  1  0.623533  0.062867  0.998767  1
  S  S1967  1  0.439333  0.376467  0.998767  1
  S  S1968  1  0.937133  0.560667  0.998767  1
  S  S1969  1  0.716200  0.645600  0.688100  1
  S  S1970  1  0.929400  0.283800  0.688100  1
  S  S1971  1  0.354400  0.070600  0.688100  1
  S  S1972  1  0.049533  0.312267  0.354767  1
  S  S1973  1  0.262733  0.950467  0.354767  1
  S  S1974  1  0.687733  0.737267  0.354767  1
  S  S1975  1  0.382867  0.978933  0.021433  1
  S  S1976  1  0.596067  0.617133  0.021433  1
  S  S1977  1  0.021067  0.403933  0.021433  1
  S  S1978  1  0.283800  0.354400  0.311900  1
  S  S1979  1  0.070600  0.716200  0.311900  1
  S  S1980  1  0.645600  0.929400  0.311900  1
  S  S1981  1  0.950467  0.687733  0.645233  1
  S  S1982  1  0.737267  0.049533  0.645233  1
  S  S1983  1  0.312267  0.262733  0.645233  1
  S  S1984  1  0.617133  0.021067  0.978567  1
  S  S1985  1  0.403933  0.382867  0.978567  1
  S  S1986  1  0.978933  0.596067  0.978567  1
  S  S1987  1  0.801300  0.491100  0.738200  1
  S  S1988  1  0.689800  0.198700  0.738200  1
  S  S1989  1  0.508900  0.310200  0.738200  1
  S  S1990  1  0.134633  0.157767  0.404867  1
  S  S1991  1  0.023133  0.865367  0.404867  1
  S  S1992  1  0.842233  0.976867  0.404867  1
  S  S1993  1  0.467967  0.824433  0.071533  1
  S  S1994  1  0.356467  0.532033  0.071533  1
  S  S1995  1  0.175567  0.643533  0.071533  1
  S  S1996  1  0.198700  0.508900  0.261800  1
  S  S1997  1  0.310200  0.801300  0.261800  1
  S  S1998  1  0.491100  0.689800  0.261800  1
  S  S1999  1  0.865367  0.842233  0.595133  1
  S  S2000  1  0.976867  0.134633  0.595133  1
  S  S2001  1  0.157767  0.023133  0.595133  1
  S  S2002  1  0.532033  0.175567  0.928467  1
  S  S2003  1  0.643533  0.467967  0.928467  1
  S  S2004  1  0.824433  0.356467  0.928467  1
  S  S2005  1  0.882500  0.505100  0.738800  1
  S  S2006  1  0.622600  0.117500  0.738800  1
  S  S2007  1  0.494900  0.377400  0.738800  1
  S  S2008  1  0.215833  0.171767  0.405467  1
  S  S2009  1  0.955933  0.784167  0.405467  1
  S  S2010  1  0.828233  0.044067  0.405467  1
  S  S2011  1  0.549167  0.838433  0.072133  1
  S  S2012  1  0.289267  0.450833  0.072133  1
  S  S2013  1  0.161567  0.710733  0.072133  1
  S  S2014  1  0.117500  0.494900  0.261200  1
  S  S2015  1  0.377400  0.882500  0.261200  1
  S  S2016  1  0.505100  0.622600  0.261200  1
  S  S2017  1  0.784167  0.828233  0.594533  1
  S  S2018  1  0.044067  0.215833  0.594533  1
  S  S2019  1  0.171767  0.955933  0.594533  1
  S  S2020  1  0.450833  0.161567  0.927867  1
  S  S2021  1  0.710733  0.549167  0.927867  1
  S  S2022  1  0.838433  0.289267  0.927867  1
  S  S2023  1  0.774100  0.366900  0.720300  1
  S  S2024  1  0.592800  0.225900  0.720300  1
  S  S2025  1  0.633100  0.407200  0.720300  1
  S  S2026  1  0.107433  0.033567  0.386967  1
  S  S2027  1  0.926133  0.892567  0.386967  1
  S  S2028  1  0.966433  0.073867  0.386967  1
  S  S2029  1  0.440767  0.700233  0.053633  1
  S  S2030  1  0.259467  0.559233  0.053633  1
  S  S2031  1  0.299767  0.740533  0.053633  1
  S  S2032  1  0.225900  0.633100  0.279700  1
  S  S2033  1  0.407200  0.774100  0.279700  1
  S  S2034  1  0.366900  0.592800  0.279700  1
  S  S2035  1  0.892567  0.966433  0.613033  1
  S  S2036  1  0.073867  0.107433  0.613033  1
  S  S2037  1  0.033567  0.926133  0.613033  1
  S  S2038  1  0.559233  0.299767  0.946367  1
  S  S2039  1  0.740533  0.440767  0.946367  1
  S  S2040  1  0.700233  0.259467  0.946367  1
  S  S2041  1  0.696000  0.278400  0.831800  1
  S  S2042  1  0.582400  0.304000  0.831800  1
  S  S2043  1  0.721600  0.417600  0.831800  1
  S  S2044  1  0.029333  0.945067  0.498467  1
  S  S2045  1  0.915733  0.970667  0.498467  1
  S  S2046  1  0.054933  0.084267  0.498467  1
  S  S2047  1  0.362667  0.611733  0.165133  1
  S  S2048  1  0.249067  0.637333  0.165133  1
  S  S2049  1  0.388267  0.750933  0.165133  1
  S  S2050  1  0.304000  0.721600  0.168200  1
  S  S2051  1  0.417600  0.696000  0.168200  1
  S  S2052  1  0.278400  0.582400  0.168200  1
  S  S2053  1  0.970667  0.054933  0.501533  1
  S  S2054  1  0.084267  0.029333  0.501533  1
  S  S2055  1  0.945067  0.915733  0.501533  1
  S  S2056  1  0.637333  0.388267  0.834867  1
  S  S2057  1  0.750933  0.362667  0.834867  1
  S  S2058  1  0.611733  0.249067  0.834867  1
  S  S2059  1  0.587850  0.853630  0.820650  1.0
  S  S2060  1  0.265780  0.412150  0.820650  1.0
  S  S2061  1  0.146370  0.734220  0.820650  1.0
  S  S2062  1  0.921183  0.520297  0.487317  1.0
  S  S2063  1  0.599113  0.078817  0.487317  1.0
  S  S2064  1  0.479703  0.400887  0.487317  1.0
  S  S2065  1  0.254517  0.186963  0.153983  1.0
  S  S2066  1  0.932447  0.745483  0.153983  1.0
  S  S2067  1  0.813037  0.067553  0.153983  1.0
  S  S2068  1  0.412150  0.146370  0.179350  1.0
  S  S2069  1  0.734220  0.587850  0.179350  1.0
  S  S2070  1  0.853630  0.265780  0.179350  1.0
  S  S2071  1  0.078817  0.479703  0.512683  1.0
  S  S2072  1  0.400887  0.921183  0.512683  1.0
  S  S2073  1  0.520297  0.599113  0.512683  1.0
  S  S2074  1  0.745483  0.813037  0.846017  1.0
  S  S2075  1  0.067553  0.254517  0.846017  1.0
  S  S2076  1  0.186963  0.932447  0.846017  1.0
  N  N2077  1  0.563700  0.624700  0.847710  1.0
  N  N2078  1  0.061000  0.436300  0.847710  1.0
  N  N2079  1  0.375300  0.939000  0.847710  1.0
  N  N2080  1  0.897033  0.291367  0.514377  1.0
  N  N2081  1  0.394333  0.102967  0.514377  1.0
  N  N2082  1  0.708633  0.605667  0.514377  1.0
  N  N2083  1  0.230367  0.958033  0.181043  1.0
  N  N2084  1  0.727667  0.769633  0.181043  1.0
  N  N2085  1  0.041967  0.272333  0.181043  1.0
  N  N2086  1  0.436300  0.375300  0.152290  1.0
  N  N2087  1  0.939000  0.563700  0.152290  1.0
  N  N2088  1  0.624700  0.061000  0.152290  1.0
  N  N2089  1  0.102967  0.708633  0.485623  1.0
  N  N2090  1  0.605667  0.897033  0.485623  1.0
  N  N2091  1  0.291367  0.394333  0.485623  1.0
  N  N2092  1  0.769633  0.041967  0.818957  1.0
  N  N2093  1  0.272333  0.230367  0.818957  1.0
  N  N2094  1  0.958033  0.727667  0.818957  1.0
  N  N2095  1  0.561400  0.620800  0.783750  1.0
  N  N2096  1  0.059400  0.438600  0.783750  1.0
  N  N2097  1  0.379200  0.940600  0.783750  1.0
  N  N2098  1  0.894733  0.287467  0.450417  1.0
  N  N2099  1  0.392733  0.105267  0.450417  1.0
  N  N2100  1  0.712533  0.607267  0.450417  1.0
  N  N2101  1  0.228067  0.954133  0.117083  1.0
  N  N2102  1  0.726067  0.771933  0.117083  1.0
  N  N2103  1  0.045867  0.273933  0.117083  1.0
  N  N2104  1  0.438600  0.379200  0.216250  1.0
  N  N2105  1  0.940600  0.561400  0.216250  1.0
  N  N2106  1  0.620800  0.059400  0.216250  1.0
  N  N2107  1  0.105267  0.712533  0.549583  1.0
  N  N2108  1  0.607267  0.894733  0.549583  1.0
  N  N2109  1  0.287467  0.392733  0.549583  1.0
  N  N2110  1  0.771933  0.045867  0.882917  1.0
  N  N2111  1  0.273933  0.228067  0.882917  1.0
  N  N2112  1  0.954133  0.726067  0.882917  1.0
  O  O2113  1  0.716100  0.856600  0.685800  1
  O  O2114  1  0.140500  0.283900  0.685800  1
  O  O2115  1  0.143400  0.859500  0.685800  1
  O  O2116  1  0.049433  0.523267  0.352467  1
  O  O2117  1  0.473833  0.950567  0.352467  1
  O  O2118  1  0.476733  0.526167  0.352467  1
  O  O2119  1  0.382767  0.189933  0.019133  1
  O  O2120  1  0.807167  0.617233  0.019133  1
  O  O2121  1  0.810067  0.192833  0.019133  1
  O  O2122  1  0.283900  0.143400  0.314200  1
  O  O2123  1  0.859500  0.716100  0.314200  1
  O  O2124  1  0.856600  0.140500  0.314200  1
  O  O2125  1  0.950567  0.476733  0.647533  1
  O  O2126  1  0.526167  0.049433  0.647533  1
  O  O2127  1  0.523267  0.473833  0.647533  1
  O  O2128  1  0.617233  0.810067  0.980867  1
  O  O2129  1  0.192833  0.382767  0.980867  1
  O  O2130  1  0.189933  0.807167  0.980867  1
  O  O2131  1  0.718000  0.866000  0.679000  1
  O  O2132  1  0.148000  0.282000  0.679000  1
  O  O2133  1  0.134000  0.852000  0.679000  1
  O  O2134  1  0.051333  0.532667  0.345667  1
  O  O2135  1  0.481333  0.948667  0.345667  1
  O  O2136  1  0.467333  0.518667  0.345667  1
  O  O2137  1  0.384667  0.199333  0.012333  1
  O  O2138  1  0.814667  0.615333  0.012333  1
  O  O2139  1  0.800667  0.185333  0.012333  1
  O  O2140  1  0.282000  0.134000  0.321000  1
  O  O2141  1  0.852000  0.718000  0.321000  1
  O  O2142  1  0.866000  0.148000  0.321000  1
  O  O2143  1  0.948667  0.467333  0.654333  1
  O  O2144  1  0.518667  0.051333  0.654333  1
  O  O2145  1  0.532667  0.481333  0.654333  1
  O  O2146  1  0.615333  0.800667  0.987667  1
  O  O2147  1  0.185333  0.384667  0.987667  1
  O  O2148  1  0.199333  0.814667  0.987667  1
  O  O2149  1  0.705000  0.573000  0.703200  1
  O  O2150  1  0.868000  0.295000  0.703200  1
  O  O2151  1  0.427000  0.132000  0.703200  1
  O  O2152  1  0.038333  0.239667  0.369867  1
  O  O2153  1  0.201333  0.961667  0.369867  1
  O  O2154  1  0.760333  0.798667  0.369867  1
  O  O2155  1  0.371667  0.906333  0.036533  1
  O  O2156  1  0.534667  0.628333  0.036533  1
  O  O2157  1  0.093667  0.465333  0.036533  1
  O  O2158  1  0.295000  0.427000  0.296800  1
  O  O2159  1  0.132000  0.705000  0.296800  1
  O  O2160  1  0.573000  0.868000  0.296800  1
  O  O2161  1  0.961667  0.760333  0.630133  1
  O  O2162  1  0.798667  0.038333  0.630133  1
  O  O2163  1  0.239667  0.201333  0.630133  1
  O  O2164  1  0.628333  0.093667  0.963467  1
  O  O2165  1  0.465333  0.371667  0.963467  1
  O  O2166  1  0.906333  0.534667  0.963467  1
  O  O2167  1  0.643200  0.583600  0.690800  1
  O  O2168  1  0.940400  0.356800  0.690800  1
  O  O2169  1  0.416400  0.059600  0.690800  1
  O  O2170  1  0.976533  0.250267  0.357467  1
  O  O2171  1  0.273733  0.023467  0.357467  1
  O  O2172  1  0.749733  0.726267  0.357467  1
  O  O2173  1  0.309867  0.916933  0.024133  1
  O  O2174  1  0.607067  0.690133  0.024133  1
  O  O2175  1  0.083067  0.392933  0.024133  1
  O  O2176  1  0.356800  0.416400  0.309200  1
  O  O2177  1  0.059600  0.643200  0.309200  1
  O  O2178  1  0.583600  0.940400  0.309200  1
  O  O2179  1  0.023467  0.749733  0.642533  1
  O  O2180  1  0.726267  0.976533  0.642533  1
  O  O2181  1  0.250267  0.273733  0.642533  1
  O  O2182  1  0.690133  0.083067  0.975867  1
  O  O2183  1  0.392933  0.309867  0.975867  1
  O  O2184  1  0.916933  0.607067  0.975867  1
  O  O2185  1  0.848400  0.445900  0.745400  1
  O  O2186  1  0.597500  0.151600  0.745400  1
  O  O2187  1  0.554100  0.402500  0.745400  1
  O  O2188  1  0.181733  0.112567  0.412067  1
  O  O2189  1  0.930833  0.818267  0.412067  1
  O  O2190  1  0.887433  0.069167  0.412067  1
  O  O2191  1  0.515067  0.779233  0.078733  1
  O  O2192  1  0.264167  0.484933  0.078733  1
  O  O2193  1  0.220767  0.735833  0.078733  1
  O  O2194  1  0.151600  0.554100  0.254600  1
  O  O2195  1  0.402500  0.848400  0.254600  1
  O  O2196  1  0.445900  0.597500  0.254600  1
  O  O2197  1  0.818267  0.887433  0.587933  1
  O  O2198  1  0.069167  0.181733  0.587933  1
  O  O2199  1  0.112567  0.930833  0.587933  1
  O  O2200  1  0.484933  0.220767  0.921267  1
  O  O2201  1  0.735833  0.515067  0.921267  1
  O  O2202  1  0.779233  0.264167  0.921267  1
  O  O2203  1  0.857000  0.564700  0.735500  1
  O  O2204  1  0.707700  0.143000  0.735500  1
  O  O2205  1  0.435300  0.292300  0.735500  1
  O  O2206  1  0.190333  0.231367  0.402167  1
  O  O2207  1  0.041033  0.809667  0.402167  1
  O  O2208  1  0.768633  0.958967  0.402167  1
  O  O2209  1  0.523667  0.898033  0.068833  1
  O  O2210  1  0.374367  0.476333  0.068833  1
  O  O2211  1  0.101967  0.625633  0.068833  1
  O  O2212  1  0.143000  0.435300  0.264500  1
  O  O2213  1  0.292300  0.857000  0.264500  1
  O  O2214  1  0.564700  0.707700  0.264500  1
  O  O2215  1  0.809667  0.768633  0.597833  1
  O  O2216  1  0.958967  0.190333  0.597833  1
  O  O2217  1  0.231367  0.041033  0.597833  1
  O  O2218  1  0.476333  0.101967  0.931167  1
  O  O2219  1  0.625633  0.523667  0.931167  1
  O  O2220  1  0.898033  0.374367  0.931167  1
  O  O2221  1  0.723000  0.393000  0.736600  1
  O  O2222  1  0.670000  0.277000  0.736600  1
  O  O2223  1  0.607000  0.330000  0.736600  1
  O  O2224  1  0.056333  0.059667  0.403267  1
  O  O2225  1  0.003333  0.943667  0.403267  1
  O  O2226  1  0.940333  0.996667  0.403267  1
  O  O2227  1  0.389667  0.726333  0.069933  1
  O  O2228  1  0.336667  0.610333  0.069933  1
  O  O2229  1  0.273667  0.663333  0.069933  1
  O  O2230  1  0.277000  0.607000  0.263400  1
  O  O2231  1  0.330000  0.723000  0.263400  1
  O  O2232  1  0.393000  0.670000  0.263400  1
  O  O2233  1  0.943667  0.940333  0.596733  1
  O  O2234  1  0.996667  0.056333  0.596733  1
  O  O2235  1  0.059667  0.003333  0.596733  1
  O  O2236  1  0.610333  0.273667  0.930067  1
  O  O2237  1  0.663333  0.389667  0.930067  1
  O  O2238  1  0.726333  0.336667  0.930067  1
  O  O2239  1  0.692000  0.281000  0.869500  1
  O  O2240  1  0.589000  0.308000  0.869500  1
  O  O2241  1  0.719000  0.411000  0.869500  1
  O  O2242  1  0.025333  0.947667  0.536167  1
  O  O2243  1  0.922333  0.974667  0.536167  1
  O  O2244  1  0.052333  0.077667  0.536167  1
  O  O2245  1  0.358667  0.614333  0.202833  1
  O  O2246  1  0.255667  0.641333  0.202833  1
  O  O2247  1  0.385667  0.744333  0.202833  1
  O  O2248  1  0.308000  0.719000  0.130500  1
  O  O2249  1  0.411000  0.692000  0.130500  1
  O  O2250  1  0.281000  0.589000  0.130500  1
  O  O2251  1  0.974667  0.052333  0.463833  1
  O  O2252  1  0.077667  0.025333  0.463833  1
  O  O2253  1  0.947667  0.922333  0.463833  1
  O  O2254  1  0.641333  0.385667  0.797167  1
  O  O2255  1  0.744333  0.358667  0.797167  1
  O  O2256  1  0.614333  0.255667  0.797167  1
  O  O2257  1  0.451900  0.667900  0.852540  1.0
  O  O2258  1  0.216000  0.548100  0.852540  1.0
  O  O2259  1  0.332100  0.784000  0.852540  1.0
  O  O2260  1  0.785233  0.334567  0.519207  1.0
  O  O2261  1  0.549333  0.214767  0.519207  1.0
  O  O2262  1  0.665433  0.450667  0.519207  1.0
  O  O2263  1  0.118567  0.001233  0.185873  1.0
  O  O2264  1  0.882667  0.881433  0.185873  1.0
  O  O2265  1  0.998767  0.117333  0.185873  1.0
  O  O2266  1  0.548100  0.332100  0.147460  1.0
  O  O2267  1  0.784000  0.451900  0.147460  1.0
  O  O2268  1  0.667900  0.216000  0.147460  1.0
  O  O2269  1  0.214767  0.665433  0.480793  1.0
  O  O2270  1  0.450667  0.785233  0.480793  1.0
  O  O2271  1  0.334567  0.549333  0.480793  1.0
  O  O2272  1  0.881433  0.998767  0.814127  1.0
  O  O2273  1  0.117333  0.118567  0.814127  1.0
  O  O2274  1  0.001233  0.882667  0.814127  1.0
  O  O2275  1  0.453200  0.668500  0.778320  1.0
  O  O2276  1  0.215300  0.546800  0.778320  1.0
  O  O2277  1  0.331500  0.784700  0.778320  1.0
  O  O2278  1  0.786533  0.335167  0.444987  1.0
  O  O2279  1  0.548633  0.213467  0.444987  1.0
  O  O2280  1  0.664833  0.451367  0.444987  1.0
  O  O2281  1  0.119867  0.001833  0.111653  1.0
  O  O2282  1  0.881967  0.880133  0.111653  1.0
  O  O2283  1  0.998167  0.118033  0.111653  1.0
  O  O2284  1  0.546800  0.331500  0.221680  1.0
  O  O2285  1  0.784700  0.453200  0.221680  1.0
  O  O2286  1  0.668500  0.215300  0.221680  1.0
  O  O2287  1  0.213467  0.664833  0.555013  1.0
  O  O2288  1  0.451367  0.786533  0.555013  1.0
  O  O2289  1  0.335167  0.548633  0.555013  1.0
  O  O2290  1  0.880133  0.998167  0.888347  1.0
  O  O2291  1  0.118033  0.119867  0.888347  1.0
  O  O2292  1  0.001833  0.881967  0.888347  1.0
  O  O2293  1  0.594400  0.783300  0.814080  1.0
  O  O2294  1  0.188900  0.405600  0.814080  1.0
  O  O2295  1  0.216700  0.811100  0.814080  1.0
  O  O2296  1  0.927733  0.449967  0.480747  1.0
  O  O2297  1  0.522233  0.072267  0.480747  1.0
  O  O2298  1  0.550033  0.477767  0.480747  1.0
  O  O2299  1  0.261067  0.116633  0.147413  1.0
  O  O2300  1  0.855567  0.738933  0.147413  1.0
  O  O2301  1  0.883367  0.144433  0.147413  1.0
  O  O2302  1  0.405600  0.216700  0.185920  1.0
  O  O2303  1  0.811100  0.594400  0.185920  1.0
  O  O2304  1  0.783300  0.188900  0.185920  1.0
  O  O2305  1  0.072267  0.550033  0.519253  1.0
  O  O2306  1  0.477767  0.927733  0.519253  1.0
  O  O2307  1  0.449967  0.522233  0.519253  1.0
  O  O2308  1  0.738933  0.883367  0.852587  1.0
  O  O2309  1  0.144433  0.261067  0.852587  1.0
  O  O2310  1  0.116633  0.855567  0.852587  1.0
