
#######################################################################
#
#                 Cambridge Crystallographic Data Centre
#                                CCDC 
#
#######################################################################
#
# If this CIF has been generated from an entry in the Cambridge 
# Structural Database, then it will include bibliographic, chemical, 
# crystal, experimental, refinement or atomic coordinate data resulting 
# from the CCDC's data processing and validation procedures.
#
#######################################################################

data_DIJMUG
_chemical_formula_moiety         'C68 H56 N6 O9 S3 Zn3,7.5(C2 H6 O1 S1)'
_chemical_name_systematic        
'(\m~3~-8,15,29,36,49,56-hexaazaundecacyclo[20.20.20.1^2,6^.1^17,21^.1^23,27^.1^38,42^.1^43,47^.1^58,62^.0^9,14^.0^30,35^.0^50,55^]octahexaconta-2(68),3,5,7,9,11,13,15,17(67),18,20,23(66),24,26,28,30,32,34,36,38(65),39,41,43(64),44,46,48,50,52,54,56,58,60,62-tritriacontaene-63,64,65,66,67,68-hexaoxo)-tris(dimethyl sulfoxide)-tri-zinc dimethyl sulfoxide solvate'
_symmetry_cell_setting           rhombohedral
_symmetry_space_group_name_H-M   'R -3'
_symmetry_Int_Tables_number      148
_space_group_name_Hall           '-R 3'
loop_
_symmetry_equiv_pos_site_id
_symmetry_equiv_pos_as_xyz
1 x,y,z
2 -y,x-y,z
3 -x+y,-x,z
4 2/3+x,1/3+y,1/3+z
5 2/3-y,1/3+x-y,1/3+z
6 2/3-x+y,1/3-x,1/3+z
7 1/3+x,2/3+y,2/3+z
8 1/3-y,2/3+x-y,2/3+z
9 1/3-x+y,2/3-x,2/3+z
10 -x,-y,-z
11 y,-x+y,-z
12 x-y,x,-z
13 1/3-x,2/3-y,2/3-z
14 1/3+y,2/3-x+y,2/3-z
15 1/3+x-y,2/3+x,2/3-z
16 2/3-x,1/3-y,1/3-z
17 2/3+y,1/3-x+y,1/3-z
18 2/3+x-y,1/3+x,1/3-z
_cell_length_a                   20.3170(4)
_cell_length_b                   20.3170(4)
_cell_length_c                   40.6515(9)
_cell_angle_alpha                90
_cell_angle_beta                 90
_cell_angle_gamma                120
_cell_volume                     14532
_exptl_crystal_colour            yellow
_exptl_crystal_description       prismatic
_cell_formula_units_Z            6
loop_
_atom_site_label
_atom_site_type_symbol
_atom_site_fract_x
_atom_site_fract_y
_atom_site_fract_z
Zn1 Zn 0.48404(4) 0.15514(4) 0.18437(2)
C1 C 0.6667 0.3333 0.1131(3)
H1 H 0.6667 0.3333 0.1377
C2 C 0.6667 0.3333 0.2555(3)
H2 H 0.6667 0.3333 0.2309
C3 C 0.6293(5) 0.2509(5) 0.10208(19)
C4 C 0.5665(4) 0.1951(4) 0.12099(18)
C5 C 0.5278(5) 0.1184(5) 0.1090(2)
C6 C 0.5534(6) 0.0995(6) 0.0801(3)
H3 H 0.5281 0.0482 0.0728
C7 C 0.6138(7) 0.1533(7) 0.0624(3)
H4 H 0.6297 0.1400 0.0428
C8 C 0.6525(6) 0.2298(6) 0.0742(2)
H5 H 0.6954 0.2671 0.0624
O1 O 0.5481(2) 0.2160(2) 0.14746(11)
C9 C 0.4647(4) 0.0576(4) 0.1251(2)
H6 H 0.4415 0.0096 0.1144
N1 N 0.4363(3) 0.0610(3) 0.15229(17)
C10 C 0.3777(4) -0.0058(4) 0.1679(2)
C11 C 0.3196(4) -0.0677(4) 0.1499(3)
H7 H 0.3173 -0.0668 0.1266
C12 C 0.2661(5) -0.1297(4) 0.1681(4)
H8 H 0.2260 -0.1715 0.1569
C13 C 0.2697(5) -0.1318(5) 0.2012(3)
H9 H 0.2337 -0.1760 0.2127
C14 C 0.3250(4) -0.0706(4) 0.2186(3)
H10 H 0.3258 -0.0717 0.2420
C15 C 0.3795(4) -0.0071(3) 0.2016(2)
N2 N 0.4386(3) 0.0594(3) 0.21625(16)
C16 C 0.4687(3) 0.0559(3) 0.2434(2)
H11 H 0.4480 0.0072 0.2534
C17 C 0.5302(3) 0.1179(3) 0.26022(17)
C18 C 0.5668(3) 0.1949(3) 0.24819(16)
C19 C 0.6300(3) 0.2508(3) 0.26683(14)
C20 C 0.6534(3) 0.2301(3) 0.29434(15)
H12 H 0.6954 0.2680 0.3063
C21 C 0.6176(4) 0.1543(3) 0.30578(17)
H13 H 0.6355 0.1413 0.3249
C22 C 0.5570(4) 0.1007(4) 0.28883(18)
H14 H 0.5319 0.0498 0.2966
O2 O 0.5468(2) 0.2153(2) 0.22168(10)
O3 O 0.4056(2) 0.1889(2) 0.18592(12)
S1 S 0.41215(8) 0.26578(8) 0.17935(5)
C23 C 0.4270(4) 0.2823(4) 0.1371(2)
H15 H 0.4674 0.2725 0.1300
H16 H 0.4420 0.3353 0.1323
H17 H 0.3800 0.2484 0.1252
C24 C 0.5053(4) 0.3359(4) 0.1927(2)
H18 H 0.5103 0.3300 0.2164
H19 H 0.5131 0.3867 0.1884
H20 H 0.5434 0.3292 0.1807
C3A C 0.7491(5) 0.3784(7) 0.10208(19)
C4A C 0.8049(4) 0.3714(6) 0.12099(18)
C5A C 0.8816(5) 0.4094(7) 0.1090(2)
C6A C 0.9005(6) 0.4539(8) 0.0801(3)
H3A H 0.9518 0.4799 0.0728
C7A C 0.8467(7) 0.4605(10) 0.0624(3)
H4A H 0.8600 0.4897 0.0428
C8A C 0.7702(6) 0.4227(8) 0.0742(2)
H5A H 0.7329 0.4283 0.0624
O1A O 0.7840(2) 0.3321(3) 0.14746(11)
C9A C 0.9424(4) 0.4071(6) 0.1251(2)
H6A H 0.9904 0.4319 0.1144
N1A N 0.9390(3) 0.3753(4) 0.15229(17)
C10A C 1.0058(4) 0.3835(6) 0.1679(2)
C11A C 1.0677(4) 0.3873(6) 0.1499(3)
H7A H 1.0668 0.3841 0.1266
C12A C 1.1297(4) 0.3958(6) 0.1681(4)
H8A H 1.1715 0.3975 0.1569
C13A C 1.1318(5) 0.4015(7) 0.2012(3)
H9A H 1.1760 0.4097 0.2127
C14A C 1.0706(4) 0.3956(6) 0.2186(3)
H10A H 1.0717 0.3975 0.2420
C15A C 1.0071(3) 0.3866(5) 0.2016(2)
N2A N 0.9406(3) 0.3792(4) 0.21625(16)
C16A C 0.9441(3) 0.4128(4) 0.2434(2)
H11A H 0.9928 0.4408 0.2534
C17A C 0.8821(3) 0.4123(4) 0.26022(17)
C18A C 0.8051(3) 0.3719(4) 0.24819(16)
C19A C 0.7492(3) 0.3792(4) 0.26683(14)
C20A C 0.7699(3) 0.4233(4) 0.29434(15)
H12A H 0.7320 0.4274 0.3063
C21A C 0.8457(3) 0.4633(5) 0.30578(17)
H13A H 0.8587 0.4942 0.3249
C22A C 0.8993(4) 0.4563(6) 0.28883(18)
H14A H 0.9502 0.4821 0.2966
O2A O 0.7847(2) 0.3315(3) 0.22168(10)
C3B C 0.6216(7) 0.3707(5) 0.10208(19)
C4B C 0.6286(6) 0.4335(4) 0.12099(18)
C5B C 0.5906(7) 0.4722(5) 0.1090(2)
C6B C 0.5461(8) 0.4466(6) 0.0801(3)
H3B H 0.5201 0.4719 0.0728
C7B C 0.5395(10) 0.3862(7) 0.0624(3)
H4B H 0.5103 0.3703 0.0428
C8B C 0.5773(8) 0.3475(6) 0.0742(2)
H5B H 0.5717 0.3046 0.0624
O1B O 0.6679(3) 0.4519(2) 0.14746(11)
C9B C 0.5929(6) 0.5353(4) 0.1251(2)
H6B H 0.5681 0.5585 0.1144
N1B N 0.6247(4) 0.5637(3) 0.15229(17)
C10B C 0.6165(6) 0.6223(4) 0.1679(2)
C11B C 0.6127(6) 0.6804(4) 0.1499(3)
H7B H 0.6159 0.6827 0.1266
C12B C 0.6042(6) 0.7339(5) 0.1681(4)
H8B H 0.6025 0.7740 0.1569
C13B C 0.5985(7) 0.7303(5) 0.2012(3)
H9B H 0.5903 0.7663 0.2127
C14B C 0.6044(6) 0.6750(4) 0.2186(3)
H10B H 0.6025 0.6742 0.2420
C15B C 0.6134(5) 0.6205(4) 0.2016(2)
N2B N 0.6208(4) 0.5614(3) 0.21625(16)
C16B C 0.5872(4) 0.5313(3) 0.2434(2)
H11B H 0.5592 0.5520 0.2534
C17B C 0.5877(4) 0.4698(3) 0.26022(17)
C18B C 0.6281(4) 0.4332(3) 0.24819(16)
C19B C 0.6208(4) 0.3700(3) 0.26683(14)
C20B C 0.5767(4) 0.3466(3) 0.29434(15)
H12B H 0.5726 0.3046 0.3063
C21B C 0.5367(5) 0.3824(4) 0.30578(17)
H13B H 0.5058 0.3645 0.3249
C22B C 0.5437(6) 0.4430(4) 0.28883(18)
H14B H 0.5179 0.4681 0.2966
O2B O 0.6685(3) 0.4532(2) 0.22168(10)
Zn1A Zn 0.84486(4) 0.32890(6) 0.18437(2)
O3A O 0.8111(2) 0.2167(3) 0.18592(12)
S1A S 0.73422(8) 0.14637(11) 0.17935(5)
C23A C 0.7177(4) 0.1447(6) 0.1371(2)
H15A H 0.7275 0.1949 0.1300
H16A H 0.6647 0.1067 0.1323
H17A H 0.7516 0.1316 0.1252
C24A C 0.6641(4) 0.1694(6) 0.1927(2)
H18A H 0.6700 0.1803 0.2164
H19A H 0.6133 0.1264 0.1884
H20A H 0.6708 0.2142 0.1807
Zn1B Zn 0.67110(6) 0.51596(4) 0.18437(2)
O3B O 0.7833(3) 0.5944(2) 0.18592(12)
S1B S 0.85363(11) 0.58785(8) 0.17935(5)
C23B C 0.8553(6) 0.5730(4) 0.1371(2)
H15B H 0.8051 0.5326 0.1300
H16B H 0.8933 0.5580 0.1323
H17B H 0.8684 0.6200 0.1252
C24B C 0.8306(6) 0.4947(4) 0.1927(2)
H18B H 0.8197 0.4897 0.2164
H19B H 0.8736 0.4869 0.1884
H20B H 0.7858 0.4566 0.1807
S2 S 0.3006(2) 0.1465(3) 0.27847(11)
O4 O 0.2839(9) 0.1405(11) 0.3142(3)
C25 C 0.3985(7) 0.1845(10) 0.2737(4)
H21 H 0.4124 0.1467 0.2803
H22 H 0.4256 0.2299 0.2875
H23 H 0.4123 0.1983 0.2506
C26 C 0.3043(13) 0.2317(13) 0.2639(5)
H24 H 0.2531 0.2251 0.2643
H25 H 0.3239 0.2421 0.2413
H26 H 0.3379 0.2744 0.2781
loop_
_geom_bond_atom_site_label_1
_geom_bond_atom_site_label_2
_geom_bond_site_symmetry_1
_geom_bond_site_symmetry_2
Zn1 O1 1_555 1_555
C1 H1 1_555 1_555
C2 H2 1_555 1_555
C3 C1 1_555 1_555
C4 C3 1_555 1_555
C5 C4 1_555 1_555
C6 C5 1_555 1_555
H3 C6 1_555 1_555
C7 C6 1_555 1_555
H4 C7 1_555 1_555
C8 C3 1_555 1_555
H5 C8 1_555 1_555
O1 C4 1_555 1_555
C9 C5 1_555 1_555
H6 C9 1_555 1_555
N1 Zn1 1_555 1_555
C10 N1 1_555 1_555
C11 C10 1_555 1_555
H7 C11 1_555 1_555
C12 C11 1_555 1_555
H8 C12 1_555 1_555
C13 C12 1_555 1_555
H9 C13 1_555 1_555
C14 C13 1_555 1_555
H10 C14 1_555 1_555
C15 C10 1_555 1_555
N2 Zn1 1_555 1_555
C16 N2 1_555 1_555
H11 C16 1_555 1_555
C17 C16 1_555 1_555
C18 C17 1_555 1_555
C19 C2 1_555 1_555
C20 C19 1_555 1_555
H12 C20 1_555 1_555
C21 C20 1_555 1_555
H13 C21 1_555 1_555
C22 C17 1_555 1_555
H14 C22 1_555 1_555
O2 Zn1 1_555 1_555
O3 Zn1 1_555 1_555
S1 O3 1_555 1_555
C23 S1 1_555 1_555
H15 C23 1_555 1_555
H16 C23 1_555 1_555
H17 C23 1_555 1_555
C24 S1 1_555 1_555
H18 C24 1_555 1_555
H19 C24 1_555 1_555
H20 C24 1_555 1_555
S2 O4 1_555 1_555
C25 S2 1_555 1_555
H21 C25 1_555 1_555
H22 C25 1_555 1_555
H23 C25 1_555 1_555
C26 S2 1_555 1_555
H24 C26 1_555 1_555
H25 C26 1_555 1_555
H26 C26 1_555 1_555
C3A C1 1_555 1_555
C4A C3A 1_555 1_555
C5A C4A 1_555 1_555
C6A C5A 1_555 1_555
H3A C6A 1_555 1_555
C7A C6A 1_555 1_555
H4A C7A 1_555 1_555
C8A C3A 1_555 1_555
H5A C8A 1_555 1_555
O1A C4A 1_555 1_555
C9A C5A 1_555 1_555
H6A C9A 1_555 1_555
N1A C9A 1_555 1_555
C10A N1A 1_555 1_555
C11A C10A 1_555 1_555
H7A C11A 1_555 1_555
C12A C11A 1_555 1_555
H8A C12A 1_555 1_555
C13A C12A 1_555 1_555
H9A C13A 1_555 1_555
C14A C13A 1_555 1_555
H10A C14A 1_555 1_555
C15A C10A 1_555 1_555
N2A C15A 1_555 1_555
C16A N2A 1_555 1_555
H11A C16A 1_555 1_555
C17A C16A 1_555 1_555
C18A C17A 1_555 1_555
C19A C2 1_555 1_555
C20A C19A 1_555 1_555
H12A C20A 1_555 1_555
C21A C20A 1_555 1_555
H13A C21A 1_555 1_555
C22A C17A 1_555 1_555
H14A C22A 1_555 1_555
O2A C18A 1_555 1_555
C3B C1 1_555 1_555
C4B C3B 1_555 1_555
C5B C4B 1_555 1_555
C6B C5B 1_555 1_555
H3B C6B 1_555 1_555
C7B C6B 1_555 1_555
H4B C7B 1_555 1_555
C8B C3B 1_555 1_555
H5B C8B 1_555 1_555
O1B C4B 1_555 1_555
C9B C5B 1_555 1_555
H6B C9B 1_555 1_555
N1B C9B 1_555 1_555
C10B N1B 1_555 1_555
C11B C10B 1_555 1_555
H7B C11B 1_555 1_555
C12B C11B 1_555 1_555
H8B C12B 1_555 1_555
C13B C12B 1_555 1_555
H9B C13B 1_555 1_555
C14B C13B 1_555 1_555
H10B C14B 1_555 1_555
C15B C10B 1_555 1_555
N2B C15B 1_555 1_555
C16B N2B 1_555 1_555
H11B C16B 1_555 1_555
C17B C16B 1_555 1_555
C18B C17B 1_555 1_555
C19B C2 1_555 1_555
C20B C19B 1_555 1_555
H12B C20B 1_555 1_555
C21B C20B 1_555 1_555
H13B C21B 1_555 1_555
C22B C17B 1_555 1_555
H14B C22B 1_555 1_555
O2B C18B 1_555 1_555
Zn1A O1A 1_555 1_555
O3A Zn1A 1_555 1_555
S1A O3A 1_555 1_555
C23A S1A 1_555 1_555
H15A C23A 1_555 1_555
H16A C23A 1_555 1_555
H17A C23A 1_555 1_555
C24A S1A 1_555 1_555
H18A C24A 1_555 1_555
H19A C24A 1_555 1_555
H20A C24A 1_555 1_555
Zn1B O1B 1_555 1_555
O3B Zn1B 1_555 1_555
S1B O3B 1_555 1_555
C23B S1B 1_555 1_555
H15B C23B 1_555 1_555
H16B C23B 1_555 1_555
H17B C23B 1_555 1_555
C24B S1B 1_555 1_555
H18B C24B 1_555 1_555
H19B C24B 1_555 1_555
H20B C24B 1_555 1_555
C7 C8 1_555 1_555
C9 N1 1_555 1_555
C14 C15 1_555 1_555
C15 N2 1_555 1_555
C18 C19 1_555 1_555
C18 O2 1_555 1_555
C21 C22 1_555 1_555
C7A C8A 1_555 1_555
N1A Zn1A 1_555 1_555
C14A C15A 1_555 1_555
N2A Zn1A 1_555 1_555
C18A C19A 1_555 1_555
C21A C22A 1_555 1_555
O2A Zn1A 1_555 1_555
C7B C8B 1_555 1_555
N1B Zn1B 1_555 1_555
C14B C15B 1_555 1_555
N2B Zn1B 1_555 1_555
C18B C19B 1_555 1_555
C21B C22B 1_555 1_555
O2B Zn1B 1_555 1_555

#END
