
#######################################################################
#
#                 Cambridge Crystallographic Data Centre
#                                CCDC 
#
#######################################################################
#
# If this CIF has been generated from an entry in the Cambridge 
# Structural Database, then it will include bibliographic, chemical, 
# crystal, experimental, refinement or atomic coordinate data resulting 
# from the CCDC's data processing and validation procedures.
#
#######################################################################

data_DIJMOA
_chemical_formula_moiety         'C68 H56 N6 O9 S3 Zn3,5(C1 H2 Cl2)'
_chemical_name_systematic        
'(\m~3~-8,15,29,36,49,56-hexaazaundecacyclo[20.20.20.1^2,6^.1^17,21^.1^23,27^.1^38,42^.1^43,47^.1^58,62^.0^9,14^.0^30,35^.0^50,55^]octahexaconta-2(68),3,5,7,9,11,13,15,17(67),18,20,23(66),24,26,28,30,32,34,36,38(65),39,41,43(64),44,46,48,50,52,54,56,58,60,62-tritriacontaene-63,64,65,66,67,68-hexaoxo)-tris(dimethyl sulfoxide)-tri-zinc dichloromethane solvate'
_symmetry_cell_setting           monoclinic
_symmetry_space_group_name_H-M   'P 21/n'
_symmetry_Int_Tables_number      14
_space_group_name_Hall           '-P 2yn'
loop_
_symmetry_equiv_pos_site_id
_symmetry_equiv_pos_as_xyz
1 x,y,z
2 1/2-x,1/2+y,1/2-z
3 -x,-y,-z
4 1/2+x,1/2-y,1/2+z
_cell_length_a                   16.9885(3)
_cell_length_b                   25.0228(5)
_cell_length_c                   18.6309(3)
_cell_angle_alpha                90
_cell_angle_beta                 106.5740(10)
_cell_angle_gamma                90
_cell_volume                     7590.93
_exptl_crystal_colour            yellow
_exptl_crystal_description       prismatic
_cell_formula_units_Z            4
loop_
_atom_site_label
_atom_site_type_symbol
_atom_site_fract_x
_atom_site_fract_y
_atom_site_fract_z
Zn1 Zn 0.710567(15) 0.364190(10) 0.486832(14)
Zn2 Zn 0.534679(15) 0.486695(10) 0.180533(14)
Zn3 Zn 0.775234(15) 0.300403(10) 0.173502(14)
C1 C 0.53771(13) 0.30644(9) 0.25645(12)
H1 H 0.5848 0.3320 0.2660
C2 C 0.80769(13) 0.45752(9) 0.31377(12)
H2 H 0.7616 0.4311 0.3028
C3 C 0.55906(13) 0.26440(9) 0.31820(12)
C4 C 0.60602(13) 0.28069(9) 0.39176(13)
C5 C 0.62162(14) 0.24145(9) 0.45043(13)
C6 C 0.59254(15) 0.18867(10) 0.43427(15)
H3 H 0.6032 0.1630 0.4735
C7 C 0.54932(15) 0.17372(10) 0.36336(15)
H4 H 0.5305 0.1380 0.3531
C8 C 0.53317(14) 0.21203(10) 0.30593(15)
H5 H 0.5033 0.2015 0.2567
O1 O 0.63082(10) 0.32974(6) 0.40167(9)
C9 C 0.66712(14) 0.25199(10) 0.52674(13)
H6 H 0.6728 0.2235 0.5615
N1 N 0.70091(12) 0.29689(8) 0.55203(11)
C10 C 0.74347(15) 0.30418(10) 0.62862(13)
C11 C 0.72520(16) 0.27837(10) 0.68831(14)
H7 H 0.6844 0.2513 0.6790
C12 C 0.76684(17) 0.29243(11) 0.76128(14)
H8 H 0.7543 0.2749 0.8019
C13 C 0.82659(17) 0.33182(12) 0.77547(14)
H9 H 0.8545 0.3412 0.8257
C14 C 0.84601(16) 0.35775(11) 0.71672(14)
H10 H 0.8869 0.3848 0.7266
C15 C 0.80488(14) 0.34369(10) 0.64314(13)
N2 N 0.81671(12) 0.36848(8) 0.57886(11)
C16 C 0.88932(14) 0.37989(10) 0.57453(13)
H11 H 0.9342 0.3733 0.6176
C17 C 0.90781(14) 0.40168(9) 0.51002(13)
C18 C 0.84616(13) 0.41580(9) 0.44228(12)
C19 C 0.87343(13) 0.43764(9) 0.38239(12)
C20 C 0.95619(14) 0.44124(10) 0.38967(13)
H12 H 0.9734 0.4553 0.3492
C21 C 1.01614(14) 0.42483(10) 0.45477(14)
H13 H 1.0728 0.4268 0.4577
C22 C 0.99173(14) 0.40606(10) 0.51389(14)
H14 H 1.0321 0.3957 0.5585
O2 O 0.76810(9) 0.41014(7) 0.43274(9)
C23 C 0.46137(13) 0.33839(9) 0.25707(12)
C24 C 0.45433(13) 0.39210(9) 0.22801(12)
C25 C 0.37856(14) 0.41970(9) 0.22220(13)
C26 C 0.31522(14) 0.39445(10) 0.24508(13)
H15 H 0.2659 0.4135 0.2416
C27 C 0.32326(14) 0.34353(10) 0.27203(13)
H16 H 0.2799 0.3269 0.2865
C28 C 0.39732(14) 0.31599(10) 0.27798(13)
H17 H 0.4032 0.2806 0.2972
O3 O 0.51493(10) 0.41244(6) 0.20848(9)
C29 C 0.36212(14) 0.47306(10) 0.19446(13)
H18 H 0.3115 0.4884 0.1960
N3 N 0.40941(12) 0.50244(8) 0.16749(11)
C30 C 0.38721(15) 0.55568(10) 0.14584(12)
C31 C 0.30698(15) 0.57259(10) 0.11054(14)
H19 H 0.2630 0.5477 0.0995
C32 C 0.29226(16) 0.62607(11) 0.09174(14)
H20 H 0.2378 0.6378 0.0683
C33 C 0.35611(17) 0.66237(11) 0.10682(14)
H21 H 0.3453 0.6989 0.0936
C34 C 0.43631(16) 0.64581(10) 0.14138(14)
H22 H 0.4801 0.6709 0.1513
C35 C 0.45213(14) 0.59236(10) 0.16133(12)
N4 N 0.53041(12) 0.57049(8) 0.19581(11)
C36 C 0.58486(14) 0.59744(9) 0.24468(13)
H23 H 0.5716 0.6334 0.2530
C37 C 0.66360(14) 0.57818(9) 0.28762(12)
C38 C 0.69328(13) 0.52560(9) 0.27954(12)
C39 C 0.77277(13) 0.51127(9) 0.32742(12)
C40 C 0.81604(14) 0.54674(9) 0.38030(13)
H24 H 0.8679 0.5362 0.4125
C41 C 0.78603(15) 0.59814(10) 0.38832(14)
H25 H 0.8173 0.6220 0.4252
C42 C 0.71141(15) 0.61334(9) 0.34244(14)
H26 H 0.6912 0.6481 0.3474
O4 O 0.65284(9) 0.49061(6) 0.23172(9)
C43 C 0.52744(14) 0.28152(9) 0.17964(12)
C44 C 0.59850(14) 0.27422(9) 0.15445(12)
C45 C 0.58739(14) 0.24910(9) 0.08310(13)
C46 C 0.50794(15) 0.23360(10) 0.03966(13)
H27 H 0.5012 0.2176 -0.0079
C47 C 0.44091(15) 0.24130(10) 0.06494(14)
H28 H 0.3878 0.2309 0.0352
C48 C 0.45163(15) 0.26480(10) 0.13563(14)
H29 H 0.4051 0.2693 0.1537
O5 O 0.66944(9) 0.29052(6) 0.19656(9)
C49 C 0.65250(14) 0.23995(9) 0.04966(12)
H30 H 0.6382 0.2227 0.0023
N5 N 0.72851(12) 0.25291(8) 0.07775(10)
C50 C 0.78633(14) 0.24385(9) 0.03755(12)
C51 C 0.78513(15) 0.20097(9) -0.01043(13)
H31 H 0.7430 0.1748 -0.0183
C52 C 0.84552(16) 0.19662(10) -0.04667(14)
H32 H 0.8443 0.1675 -0.0797
C53 C 0.90787(16) 0.23428(11) -0.03524(14)
H33 H 0.9487 0.2310 -0.0607
C54 C 0.91067(15) 0.27679(10) 0.01338(14)
H34 H 0.9538 0.3023 0.0217
C55 C 0.84998(14) 0.28181(9) 0.04981(12)
N6 N 0.84676(12) 0.32266(8) 0.10126(10)
C56 C 0.87100(14) 0.37033(9) 0.09208(13)
H35 H 0.8921 0.3762 0.0507
C57 C 0.86872(14) 0.41511(9) 0.13929(13)
C58 C 0.83879(13) 0.41204(9) 0.20362(12)
C59 C 0.83864(13) 0.46045(9) 0.24493(12)
C60 C 0.86646(15) 0.50736(9) 0.22197(14)
H36 H 0.8665 0.5390 0.2502
C61 C 0.89476(17) 0.51000(10) 0.15818(15)
H37 H 0.9129 0.5430 0.1432
C62 C 0.89581(15) 0.46467(10) 0.11804(14)
H38 H 0.9151 0.4663 0.0750
O6 O 0.81242(10) 0.36845(6) 0.22614(9)
O7 O 0.64081(10) 0.41973(7) 0.51940(9)
S1 S 0.57171(3) 0.45311(2) 0.46871(3)
C63 C 0.59521(16) 0.45886(11) 0.38167(14)
H39 H 0.5999 0.4231 0.3618
H40 H 0.6473 0.4780 0.3894
H41 H 0.5513 0.4787 0.3460
C64 C 0.48566(15) 0.40943(11) 0.43978(15)
H42 H 0.4664 0.4002 0.4831
H43 H 0.5018 0.3768 0.4185
H44 H 0.4414 0.4273 0.4019
O8 O 0.52771(11) 0.47378(8) 0.07277(9)
S2 S 0.58937(4) 0.45175(2) 0.03598(3)
C65 C 0.63631(17) 0.39629(11) 0.09113(15)
H45 H 0.5961 0.3674 0.0859
H46 H 0.6561 0.4071 0.1438
H47 H 0.6826 0.3837 0.0741
C66 C 0.67670(18) 0.49609(12) 0.06524(17)
H48 H 0.6951 0.4979 0.1200
H49 H 0.6609 0.5319 0.0448
H50 H 0.7214 0.4825 0.0467
O9 O 0.84966(10) 0.24848(7) 0.24625(9)
S3 S 0.84509(4) 0.23357(2) 0.32432(3)
C67 C 0.81061(19) 0.29166(11) 0.36168(15)
H51 H 0.7585 0.3037 0.3274
H52 H 0.8517 0.3201 0.3677
H53 H 0.8027 0.2832 0.4105
C68 C 0.75507(17) 0.19361(11) 0.31200(16)
H54 H 0.7621 0.1597 0.2883
H55 H 0.7075 0.2127 0.2801
H56 H 0.7463 0.1866 0.3609
Cl1 Cl 1.07764(11) 0.30131(7) 0.33601(8)
C69 C 1.0197(3) 0.3287(3) 0.2539(3)
H57 H 0.9906 0.3604 0.2655
H58 H 0.9776 0.3024 0.2280
Cl2 Cl 1.07638(5) 0.34800(4) 0.19292(7)
Cl3 Cl 0.86652(6) 0.50799(5) 0.67354(5)
C70 C 0.7913(2) 0.50102(13) 0.5872(2)
H59 H 0.8184 0.4926 0.5481
H60 H 0.7551 0.4706 0.5903
Cl4 Cl 0.73159(7) 0.55808(4) 0.56110(7)
Cl5 Cl 0.42509(5) 0.37024(3) -0.03778(4)
C71 C 0.39133(18) 0.37913(12) 0.04258(16)
H61 H 0.4246 0.3565 0.0838
H62 H 0.3991 0.4169 0.0589
Cl6 Cl 0.28771(6) 0.36194(5) 0.02365(6)
Cl7 Cl 0.5219(3) 0.3261(2) 0.6344(3)
C72 C 0.5948(7) 0.3770(4) 0.6653(9)
H63 H 0.6230 0.3719 0.7192
H64 H 0.6366 0.3748 0.6377
Cl8 Cl 0.5488(5) 0.4405(2) 0.6517(5)
Cl11 Cl 0.14524(7) 0.45121(5) 0.07157(7)
C74 C 0.1062(3) 0.4915(2) 0.1282(3)
H67 H 0.1495 0.4978 0.1758
H68 H 0.0604 0.4726 0.1403
Cl12 Cl 0.07072(8) 0.55340(5) 0.08694(8)
Cl9? Cl 0.5222(6) 0.3362(4) 0.6329(4)
C73? C 0.6021(12) 0.3826(6) 0.6708(17)
H65? H 0.6252 0.3755 0.7250
H66? H 0.6464 0.3772 0.6467
Cl10? Cl 0.5682(8) 0.4493(3) 0.6579(9)
Cl13? Cl 0.0746(12) 0.4388(8) 0.0364(11)
C75? C 0.065(5) 0.5068(13) 0.050(2)
H69? H 0.0048 0.5139 0.0366
H70? H 0.0852 0.5250 0.0122
Cl14? Cl 0.1068(12) 0.5416(8) 0.1339(10)
loop_
_geom_bond_atom_site_label_1
_geom_bond_atom_site_label_2
_geom_bond_site_symmetry_1
_geom_bond_site_symmetry_2
Zn1 O1 1_555 1_555
Zn2 O3 1_555 1_555
Zn3 O5 1_555 1_555
C1 H1 1_555 1_555
C2 H2 1_555 1_555
C3 C1 1_555 1_555
C4 C3 1_555 1_555
C5 C4 1_555 1_555
C6 C5 1_555 1_555
H3 C6 1_555 1_555
C7 C6 1_555 1_555
H4 C7 1_555 1_555
C8 C3 1_555 1_555
H5 C8 1_555 1_555
O1 C4 1_555 1_555
C9 C5 1_555 1_555
H6 C9 1_555 1_555
N1 Zn1 1_555 1_555
C10 N1 1_555 1_555
C11 C10 1_555 1_555
H7 C11 1_555 1_555
C12 C11 1_555 1_555
H8 C12 1_555 1_555
C13 C12 1_555 1_555
H9 C13 1_555 1_555
C14 C13 1_555 1_555
H10 C14 1_555 1_555
C15 C10 1_555 1_555
N2 Zn1 1_555 1_555
C16 N2 1_555 1_555
H11 C16 1_555 1_555
C17 C16 1_555 1_555
C18 C17 1_555 1_555
C19 C2 1_555 1_555
C20 C19 1_555 1_555
H12 C20 1_555 1_555
C21 C20 1_555 1_555
H13 C21 1_555 1_555
C22 C17 1_555 1_555
H14 C22 1_555 1_555
O2 Zn1 1_555 1_555
C23 C1 1_555 1_555
C24 C23 1_555 1_555
C25 C24 1_555 1_555
C26 C25 1_555 1_555
H15 C26 1_555 1_555
C27 C26 1_555 1_555
H16 C27 1_555 1_555
C28 C23 1_555 1_555
H17 C28 1_555 1_555
O3 C24 1_555 1_555
C29 C25 1_555 1_555
H18 C29 1_555 1_555
N3 Zn2 1_555 1_555
C30 N3 1_555 1_555
C31 C30 1_555 1_555
H19 C31 1_555 1_555
C32 C31 1_555 1_555
H20 C32 1_555 1_555
C33 C32 1_555 1_555
H21 C33 1_555 1_555
C34 C33 1_555 1_555
H22 C34 1_555 1_555
C35 C30 1_555 1_555
N4 Zn2 1_555 1_555
C36 N4 1_555 1_555
H23 C36 1_555 1_555
C37 C36 1_555 1_555
C38 C37 1_555 1_555
C39 C2 1_555 1_555
C40 C39 1_555 1_555
H24 C40 1_555 1_555
C41 C40 1_555 1_555
H25 C41 1_555 1_555
C42 C37 1_555 1_555
H26 C42 1_555 1_555
O4 Zn2 1_555 1_555
C43 C1 1_555 1_555
C44 C43 1_555 1_555
C45 C44 1_555 1_555
C46 C45 1_555 1_555
H27 C46 1_555 1_555
C47 C46 1_555 1_555
H28 C47 1_555 1_555
C48 C43 1_555 1_555
H29 C48 1_555 1_555
O5 C44 1_555 1_555
C49 C45 1_555 1_555
H30 C49 1_555 1_555
N5 Zn3 1_555 1_555
C50 N5 1_555 1_555
C51 C50 1_555 1_555
H31 C51 1_555 1_555
C52 C51 1_555 1_555
H32 C52 1_555 1_555
C53 C52 1_555 1_555
H33 C53 1_555 1_555
C54 C53 1_555 1_555
H34 C54 1_555 1_555
C55 C50 1_555 1_555
N6 Zn3 1_555 1_555
C56 N6 1_555 1_555
H35 C56 1_555 1_555
C57 C56 1_555 1_555
C58 C57 1_555 1_555
C59 C2 1_555 1_555
C60 C59 1_555 1_555
H36 C60 1_555 1_555
C61 C60 1_555 1_555
H37 C61 1_555 1_555
C62 C57 1_555 1_555
H38 C62 1_555 1_555
O6 Zn3 1_555 1_555
O7 Zn1 1_555 1_555
S1 O7 1_555 1_555
C63 S1 1_555 1_555
H39 C63 1_555 1_555
H40 C63 1_555 1_555
H41 C63 1_555 1_555
C64 S1 1_555 1_555
H42 C64 1_555 1_555
H43 C64 1_555 1_555
H44 C64 1_555 1_555
O8 Zn2 1_555 1_555
S2 O8 1_555 1_555
C65 S2 1_555 1_555
H45 C65 1_555 1_555
H46 C65 1_555 1_555
H47 C65 1_555 1_555
C66 S2 1_555 1_555
H48 C66 1_555 1_555
H49 C66 1_555 1_555
H50 C66 1_555 1_555
O9 Zn3 1_555 1_555
S3 O9 1_555 1_555
C67 S3 1_555 1_555
H51 C67 1_555 1_555
H52 C67 1_555 1_555
H53 C67 1_555 1_555
C68 S3 1_555 1_555
H54 C68 1_555 1_555
H55 C68 1_555 1_555
H56 C68 1_555 1_555
Cl1 C69 1_555 1_555
C69 H57 1_555 1_555
H58 C69 1_555 1_555
Cl2 C69 1_555 1_555
Cl3 C70 1_555 1_555
C70 H59 1_555 1_555
H60 C70 1_555 1_555
Cl4 C70 1_555 1_555
Cl5 C71 1_555 1_555
C71 H61 1_555 1_555
H62 C71 1_555 1_555
Cl6 C71 1_555 1_555
Cl7 C72 1_555 1_555
C72 H63 1_555 1_555
H64 C72 1_555 1_555
Cl8 C72 1_555 1_555
Cl11 C74 1_555 1_555
C74 H67 1_555 1_555
H68 C74 1_555 1_555
Cl12 C74 1_555 1_555
C7 C8 1_555 1_555
C9 N1 1_555 1_555
C14 C15 1_555 1_555
C15 N2 1_555 1_555
C18 C19 1_555 1_555
C18 O2 1_555 1_555
C21 C22 1_555 1_555
C27 C28 1_555 1_555
C29 N3 1_555 1_555
C34 C35 1_555 1_555
C35 N4 1_555 1_555
C38 C39 1_555 1_555
C38 O4 1_555 1_555
C41 C42 1_555 1_555
C47 C48 1_555 1_555
C49 N5 1_555 1_555
C54 C55 1_555 1_555
C55 N6 1_555 1_555
C58 C59 1_555 1_555
C58 O6 1_555 1_555
C61 C62 1_555 1_555

#END
