
#######################################################################
#
#                 Cambridge Crystallographic Data Centre
#                                CCDC 
#
#######################################################################
#
# If this CIF has been generated from an entry in the Cambridge 
# Structural Database, then it will include bibliographic, chemical, 
# crystal, experimental, refinement or atomic coordinate data resulting 
# from the CCDC's data processing and validation procedures.
#
#######################################################################

data_DIQQEZ
_chemical_formula_moiety         
'C64 H48 Cu2 Fe2 N16 6+,6(F6 P1 1-),2(C1 H1 Cl3),4(C2 H3 N1)'
_chemical_name_systematic        
"tetrakis(\m~2~-Cyano)-hexakis(2,2'-bipyridyl)-di-copper(ii)-di-iron(ii) hexafluorophosphate acetonitrile chloroform solvate"
_symmetry_cell_setting           triclinic
_symmetry_space_group_name_H-M   'P -1'
_symmetry_Int_Tables_number      2
_space_group_name_Hall           '-P 1'
loop_
_symmetry_equiv_pos_site_id
_symmetry_equiv_pos_as_xyz
1 x,y,z
2 -x,-y,-z
_cell_length_a                   14.472(9)
_cell_length_b                   15.310(6)
_cell_length_c                   12.523(5)
_cell_angle_alpha                102.58(3)
_cell_angle_beta                 107.19(4)
_cell_angle_gamma                75.08(4)
_cell_volume                     2531
_exptl_crystal_colour            'dark brown'
_exptl_crystal_description       tablet
_cell_formula_units_Z            1
loop_
_atom_site_label
_atom_site_type_symbol
_atom_site_fract_x
_atom_site_fract_y
_atom_site_fract_z
Cu1 Cu 0.29757(3) 0.66633(3) 0.60029(4)
Fe1 Fe 0.33143(3) 0.42428(3) 0.26197(4)
N1 N 0.3117(2) 0.5735(2) 0.4666(3)
N2 N 0.4433(2) 0.6378(2) 0.6586(3)
N3 N 0.1865(2) 0.4652(2) 0.2064(2)
N4 N 0.3320(2) 0.5227(2) 0.1841(2)
N5 N 0.3292(2) 0.3252(2) 0.3379(2)
N6 N 0.3358(2) 0.3242(2) 0.1339(2)
N7 N 0.1534(2) 0.6719(2) 0.5744(3)
N8 N 0.2742(3) 0.7570(2) 0.7350(3)
C1 C 0.3250(2) 0.5180(2) 0.3922(3)
C2 C 0.5267(3) 0.6111(2) 0.6857(3)
C3 C 0.1168(3) 0.4287(3) 0.2212(3)
H1 H 0.1358(3) 0.3746(3) 0.2516(3)
C4 C 0.0181(3) 0.4692(3) 0.1925(4)
H2 H -0.0289(3) 0.4428(3) 0.2034(4)
C5 C -0.0105(3) 0.5493(3) 0.1477(4)
H3 H -0.0767(3) 0.5785(3) 0.1301(4)
C6 C 0.0605(3) 0.5863(3) 0.1289(4)
H4 H 0.0420(3) 0.6394(3) 0.0966(4)
C7 C 0.1590(3) 0.5431(2) 0.1588(3)
C8 C 0.2415(3) 0.5741(2) 0.1446(3)
C9 C 0.2316(3) 0.6504(3) 0.0956(4)
H5 H 0.1692(3) 0.6849(3) 0.0679(4)
C10 C 0.3138(3) 0.6745(3) 0.0885(4)
H6 H 0.3078(3) 0.7257(3) 0.0565(4)
C11 C 0.4060(3) 0.6221(3) 0.1291(4)
H7 H 0.4627(3) 0.6374(3) 0.1244(4)
C12 C 0.4127(3) 0.5473(3) 0.1763(3)
H8 H 0.4749(3) 0.5123(3) 0.2039(3)
C13 C 0.3260(3) 0.3329(3) 0.4463(3)
H9 H 0.3175(3) 0.3909(3) 0.4889(3)
C14 C 0.3346(3) 0.2592(3) 0.4957(4)
H10 H 0.3318(3) 0.2669(3) 0.5705(4)
C15 C 0.3478(3) 0.1724(3) 0.4326(4)
H11 H 0.3545(3) 0.1211(3) 0.4648(4)
C16 C 0.3507(3) 0.1632(3) 0.3212(4)
H12 H 0.3586(3) 0.1056(3) 0.2774(4)
C17 C 0.3417(3) 0.2407(2) 0.2752(3)
C18 C 0.3460(3) 0.2401(2) 0.1597(3)
C19 C 0.3581(3) 0.1621(3) 0.0799(3)
H13 H 0.3659(3) 0.1046(3) 0.0986(3)
C20 C 0.3584(3) 0.1709(3) -0.0270(4)
H14 H 0.3671(3) 0.1193(3) -0.0811(4)
C21 C 0.3455(3) 0.2572(3) -0.0535(3)
H15 H 0.3440(3) 0.2642(3) -0.1260(3)
C22 C 0.3352(3) 0.3324(3) 0.0288(3)
H16 H 0.3275(3) 0.3903(3) 0.0113(3)
C23 C 0.0973(3) 0.6224(3) 0.4915(4)
H17 H 0.1259(3) 0.5818(3) 0.4375(4)
C24 C -0.0008(3) 0.6293(4) 0.4832(5)
H18 H -0.0382(3) 0.5943(4) 0.4242(5)
C25 C -0.0431(4) 0.6886(5) 0.5633(6)
H19 H -0.1096(4) 0.6945(5) 0.5590(6)
C26 C 0.0139(4) 0.7390(4) 0.6497(5)
H20 H -0.0136(4) 0.7792(4) 0.7049(5)
C27 C 0.1130(3) 0.7296(3) 0.6540(4)
C28 C 0.1806(3) 0.7801(3) 0.7428(4)
C29 C 0.1521(5) 0.8479(4) 0.8285(5)
H21 H 0.0868(5) 0.8637(4) 0.8335(5)
C30 C 0.2235(6) 0.8911(4) 0.9056(5)
H22 H 0.2064(6) 0.9365(4) 0.9633(5)
C31 C 0.3179(6) 0.8673(4) 0.8969(4)
H23 H 0.3659(6) 0.8964(4) 0.9482(4)
C32 C 0.3427(4) 0.7991(3) 0.8110(4)
H24 H 0.4079(4) 0.7822(3) 0.8058(4)
C2A C 0.4733(3) 0.3889(2) 0.3143(3)
N2A N 0.5567(2) 0.3622(2) 0.3414(3)
Cu1A Cu 0.70243(3) 0.33367(3) 0.39971(4)
N1A N 0.6883(2) 0.4265(2) 0.5334(3)
C1A C 0.6750(2) 0.4820(2) 0.6078(3)
Fe1A Fe 0.66857(3) 0.57572(3) 0.73803(4)
N3A N 0.8135(2) 0.5348(2) 0.7936(2)
C3A C 0.8832(3) 0.5713(3) 0.7788(3)
H1A H 0.8642(3) 0.6254(3) 0.7484(3)
C4A C 0.9819(3) 0.5308(3) 0.8075(4)
H2A H 1.0289(3) 0.5572(3) 0.7966(4)
C5A C 1.0105(3) 0.4507(3) 0.8523(4)
H3A H 1.0767(3) 0.4215(3) 0.8699(4)
C6A C 0.9395(3) 0.4137(3) 0.8711(4)
H4A H 0.9580(3) 0.3606(3) 0.9034(4)
C7A C 0.8410(3) 0.4569(2) 0.8412(3)
C8A C 0.7585(3) 0.4259(2) 0.8554(3)
N4A N 0.6680(2) 0.4773(2) 0.8159(2)
N5A N 0.6708(2) 0.6748(2) 0.6621(2)
C13A C 0.6740(3) 0.6671(3) 0.5537(3)
H9A H 0.6825(3) 0.6091(3) 0.5111(3)
C14A C 0.6654(3) 0.7408(3) 0.5043(4)
H10A H 0.6682(3) 0.7331(3) 0.4295(4)
C15A C 0.6522(3) 0.8276(3) 0.5674(4)
H11A H 0.6455(3) 0.8789(3) 0.5352(4)
C16A C 0.6493(3) 0.8368(3) 0.6788(4)
H12A H 0.6414(3) 0.8944(3) 0.7226(4)
C17A C 0.6583(3) 0.7593(2) 0.7248(3)
C18A C 0.6540(3) 0.7599(2) 0.8403(3)
N6A N 0.6642(2) 0.6758(2) 0.8661(2)
C22A C 0.6648(3) 0.6676(3) 0.9712(3)
C21A C 0.6545(3) 0.7428(3) 1.0535(3)
C20A C 0.6416(3) 0.8291(3) 1.0270(4)
C19A C 0.6419(3) 0.8379(3) 0.9201(3)
H13A H 0.6341(3) 0.8954(3) 0.9014(3)
H14A H 0.6329(3) 0.8807(3) 1.0811(4)
H15A H 0.6560(3) 0.7358(3) 1.1260(3)
H16A H 0.6725(3) 0.6097(3) 0.9887(3)
C12A C 0.5873(3) 0.4527(3) 0.8237(3)
C11A C 0.5940(3) 0.3779(3) 0.8709(4)
C10A C 0.6862(3) 0.3255(3) 0.9115(4)
C9A C 0.7684(3) 0.3496(3) 0.9044(4)
H5A H 0.8308(3) 0.3151(3) 0.9321(4)
H6A H 0.6922(3) 0.2743(3) 0.9435(4)
H7A H 0.5373(3) 0.3626(3) 0.8756(4)
H8A H 0.5251(3) 0.4877(3) 0.7961(3)
N7A N 0.8466(2) 0.3281(2) 0.4256(3)
C23A C 0.9027(3) 0.3776(3) 0.5085(4)
H17A H 0.8741(3) 0.4182(3) 0.5625(4)
C24A C 1.0008(3) 0.3707(4) 0.5168(5)
H18A H 1.0382(3) 0.4057(4) 0.5758(5)
C25A C 1.0431(4) 0.3114(5) 0.4367(6)
H19A H 1.1096(4) 0.3055(5) 0.4410(6)
C26A C 0.9861(4) 0.2610(4) 0.3503(5)
H20A H 1.0136(4) 0.2208(4) 0.2951(5)
C27A C 0.8870(3) 0.2704(3) 0.3460(4)
C28A C 0.8194(3) 0.2199(3) 0.2572(4)
N8A N 0.7258(3) 0.2430(2) 0.2650(3)
C32A C 0.6573(4) 0.2009(3) 0.1890(4)
C31A C 0.6821(6) 0.1327(4) 0.1031(4)
C30A C 0.7765(6) 0.1089(4) 0.0944(5)
C29A C 0.8479(5) 0.1521(4) 0.1715(5)
H21A H 0.9132(5) 0.1363(4) 0.1665(5)
H22A H 0.7936(6) 0.0635(4) 0.0367(5)
H23A H 0.6341(6) 0.1036(4) 0.0518(4)
H24A H 0.5921(4) 0.2178(3) 0.1942(4)
Cl1 Cl -0.1522(2) 0.7959(2) 0.2982(2)
Cl2 Cl 0.03984(15) 0.8358(2) 0.3918(2)
Cl3 Cl -0.1243(2) 0.9796(2) 0.3233(3)
C37 C -0.0853(6) 0.8784(5) 0.3801(6)
P1 P 0.27332(8) 0.48077(8) 0.76854(9)
F1 F 0.1948(4) 0.4715(5) 0.6538(5)
F2 F 0.3568(3) 0.4851(4) 0.8809(3)
F3 F 0.3364(5) 0.3823(3) 0.7415(4)
F4 F 0.2134(5) 0.5772(3) 0.7922(5)
F5 F 0.2182(3) 0.4474(6) 0.8334(7)
F6 F 0.3286(3) 0.5153(4) 0.7037(5)
P2 P 0.07292(8) 0.18905(8) 0.03720(10)
F7 F 0.1350(2) 0.1904(2) 0.1660(3)
F8 F 0.0062(3) 0.1937(2) -0.0892(2)
F9 F 0.1562(2) 0.1130(2) -0.0052(4)
F10 F -0.0126(2) 0.2665(2) 0.0791(3)
F11 F 0.0209(2) 0.1119(2) 0.0482(3)
F12 F 0.1234(2) 0.2669(2) 0.0264(2)
P3 P 0.53511(9) 0.10935(8) -0.24368(10)
F13 F 0.5328(2) 0.0370(2) -0.3567(2)
F14 F 0.5380(2) 0.1814(2) -0.1298(2)
F15 F 0.6475(2) 0.0653(3) -0.1984(4)
F16 F 0.4207(2) 0.1492(2) -0.2867(3)
F17 F 0.5076(3) 0.0381(2) -0.1876(3)
F18 F 0.5599(4) 0.1791(2) -0.3011(3)
N9 N 0.2944(3) 0.7867(3) 0.5163(4)
C33 C 0.3230(3) 0.8507(3) 0.5263(4)
C34 C 0.3587(5) 0.9352(4) 0.5430(6)
N10 N 0.1546(5) 1.0656(5) 0.3867(5)
C35 C 0.1326(6) 0.9450(6) 0.2040(6)
C36 C 0.1439(4) 1.0126(5) 0.3055(5)
loop_
_geom_bond_atom_site_label_1
_geom_bond_atom_site_label_2
_geom_bond_site_symmetry_1
_geom_bond_site_symmetry_2
Cu1 N1 1_555 1_555
Fe1 N3 1_555 1_555
Cl1 C37 1_555 1_555
Cl2 C37 1_555 1_555
Cl3 C37 1_555 1_555
P1 F1 1_555 1_555
P2 F7 1_555 1_555
P3 F13 1_555 1_555
F2 P1 1_555 1_555
F3 P1 1_555 1_555
F4 P1 1_555 1_555
F5 P1 1_555 1_555
F6 P1 1_555 1_555
F8 P2 1_555 1_555
F9 P2 1_555 1_555
F10 P2 1_555 1_555
F11 P2 1_555 1_555
F12 P2 1_555 1_555
F14 P3 1_555 1_555
F15 P3 1_555 1_555
F16 P3 1_555 1_555
F17 P3 1_555 1_555
F18 P3 1_555 1_555
N1 C1 1_555 1_555
N2 Cu1 1_555 1_555
N3 C3 1_555 1_555
N4 Fe1 1_555 1_555
N5 Fe1 1_555 1_555
N6 Fe1 1_555 1_555
N7 Cu1 1_555 1_555
N8 Cu1 1_555 1_555
N9 C33 1_555 1_555
N10 C36 1_555 1_555
C1 Fe1 1_555 1_555
C2 N2 1_555 1_555
C3 H1 1_555 1_555
C4 C3 1_555 1_555
H2 C4 1_555 1_555
C5 C4 1_555 1_555
H3 C5 1_555 1_555
C6 C5 1_555 1_555
H4 C6 1_555 1_555
C7 N3 1_555 1_555
C8 N4 1_555 1_555
C9 C8 1_555 1_555
H5 C9 1_555 1_555
C10 C9 1_555 1_555
H6 C10 1_555 1_555
C11 C10 1_555 1_555
H7 C11 1_555 1_555
C12 N4 1_555 1_555
H8 C12 1_555 1_555
C13 N5 1_555 1_555
H9 C13 1_555 1_555
C14 C13 1_555 1_555
H10 C14 1_555 1_555
C15 C14 1_555 1_555
H11 C15 1_555 1_555
C16 C15 1_555 1_555
H12 C16 1_555 1_555
C17 N5 1_555 1_555
C18 N6 1_555 1_555
C19 C18 1_555 1_555
H13 C19 1_555 1_555
C20 C19 1_555 1_555
H14 C20 1_555 1_555
C21 C20 1_555 1_555
H15 C21 1_555 1_555
C22 N6 1_555 1_555
H16 C22 1_555 1_555
C23 N7 1_555 1_555
H17 C23 1_555 1_555
C24 C23 1_555 1_555
H18 C24 1_555 1_555
C25 C24 1_555 1_555
H19 C25 1_555 1_555
C26 C25 1_555 1_555
H20 C26 1_555 1_555
C27 N7 1_555 1_555
C28 N8 1_555 1_555
C29 C28 1_555 1_555
H21 C29 1_555 1_555
C30 C29 1_555 1_555
H22 C30 1_555 1_555
C31 C30 1_555 1_555
H23 C31 1_555 1_555
C32 N8 1_555 1_555
H24 C32 1_555 1_555
C33 C34 1_555 1_555
C35 C36 1_555 1_555
C2A Fe1 1_555 1_555
N2A C2A 1_555 1_555
Cu1A N2A 1_555 1_555
N1A Cu1A 1_555 1_555
C1A N1A 1_555 1_555
Fe1A C2 1_555 1_555
N3A Fe1A 1_555 1_555
C3A N3A 1_555 1_555
H1A C3A 1_555 1_555
C4A C3A 1_555 1_555
H2A C4A 1_555 1_555
C5A C4A 1_555 1_555
H3A C5A 1_555 1_555
C6A C5A 1_555 1_555
H4A C6A 1_555 1_555
C7A N3A 1_555 1_555
C8A C7A 1_555 1_555
N4A Fe1A 1_555 1_555
N5A Fe1A 1_555 1_555
C13A N5A 1_555 1_555
H9A C13A 1_555 1_555
C14A C13A 1_555 1_555
H10A C14A 1_555 1_555
C15A C14A 1_555 1_555
H11A C15A 1_555 1_555
C16A C15A 1_555 1_555
H12A C16A 1_555 1_555
C17A N5A 1_555 1_555
C18A C17A 1_555 1_555
N6A Fe1A 1_555 1_555
C22A N6A 1_555 1_555
C21A C22A 1_555 1_555
C20A C21A 1_555 1_555
C19A C18A 1_555 1_555
H13A C19A 1_555 1_555
H14A C20A 1_555 1_555
H15A C21A 1_555 1_555
H16A C22A 1_555 1_555
C12A N4A 1_555 1_555
C11A C12A 1_555 1_555
C10A C11A 1_555 1_555
C9A C8A 1_555 1_555
H5A C9A 1_555 1_555
H6A C10A 1_555 1_555
H7A C11A 1_555 1_555
H8A C12A 1_555 1_555
N7A Cu1A 1_555 1_555
C23A N7A 1_555 1_555
H17A C23A 1_555 1_555
C24A C23A 1_555 1_555
H18A C24A 1_555 1_555
C25A C24A 1_555 1_555
H19A C25A 1_555 1_555
C26A C25A 1_555 1_555
H20A C26A 1_555 1_555
C27A N7A 1_555 1_555
C28A C27A 1_555 1_555
N8A Cu1A 1_555 1_555
C32A N8A 1_555 1_555
C31A C32A 1_555 1_555
C30A C31A 1_555 1_555
C29A C28A 1_555 1_555
H21A C29A 1_555 1_555
H22A C30A 1_555 1_555
H23A C31A 1_555 1_555
H24A C32A 1_555 1_555
C6 C7 1_555 1_555
C7 C8 1_555 1_555
C11 C12 1_555 1_555
C16 C17 1_555 1_555
C17 C18 1_555 1_555
C21 C22 1_555 1_555
C26 C27 1_555 1_555
C27 C28 1_555 1_555
C31 C32 1_555 1_555
C1A Fe1A 1_555 1_555
C6A C7A 1_555 1_555
C8A N4A 1_555 1_555
C16A C17A 1_555 1_555
C18A N6A 1_555 1_555
C20A C19A 1_555 1_555
C10A C9A 1_555 1_555
C26A C27A 1_555 1_555
C28A N8A 1_555 1_555
C30A C29A 1_555 1_555

#END
