# generated using pymatgen
data_B9H66Pd3C114N18O104F27
_symmetry_space_group_name_H-M   'P 1'
_cell_length_a   61.99400000
_cell_length_b   61.97700000
_cell_length_c   61.97700000
_cell_angle_alpha   90.00000000
_cell_angle_beta   90.00000000
_cell_angle_gamma   90.00000000
_symmetry_Int_Tables_number   1
_chemical_formula_structural   B9H66Pd3C114N18O104F27
_chemical_formula_sum   'B144 H1056 Pd48 C1824 N288 O1664 F432'
_cell_volume   238128.16190683
_cell_formula_units_Z   16
loop_
 _symmetry_equiv_pos_site_id
 _symmetry_equiv_pos_as_xyz
  1  'x, y, z'
loop_
 _atom_site_type_symbol
 _atom_site_label
 _atom_site_symmetry_multiplicity
 _atom_site_fract_x
 _atom_site_fract_y
 _atom_site_fract_z
 _atom_site_occupancy
  B  B1  1  0.249500  0.995000  0.248300  1
  B  B2  1  0.750500  0.005000  0.248300  1
  B  B3  1  0.249500  0.005000  0.751700  1
  B  B4  1  0.750500  0.995000  0.751700  1
  B  B5  1  0.249500  0.495000  0.748300  1
  B  B6  1  0.750500  0.505000  0.748300  1
  B  B7  1  0.249500  0.505000  0.251700  1
  B  B8  1  0.750500  0.495000  0.251700  1
  B  B9  1  0.749500  0.995000  0.748300  1
  B  B10  1  0.250500  0.005000  0.748300  1
  B  B11  1  0.749500  0.005000  0.251700  1
  B  B12  1  0.250500  0.995000  0.251700  1
  B  B13  1  0.749500  0.495000  0.248300  1
  B  B14  1  0.250500  0.505000  0.248300  1
  B  B15  1  0.749500  0.505000  0.751700  1
  B  B16  1  0.250500  0.495000  0.751700  1
  B  B17  1  0.750500  0.005000  0.751700  1
  B  B18  1  0.249500  0.995000  0.751700  1
  B  B19  1  0.750500  0.995000  0.248300  1
  B  B20  1  0.249500  0.005000  0.248300  1
  B  B21  1  0.750500  0.505000  0.251700  1
  B  B22  1  0.249500  0.495000  0.251700  1
  B  B23  1  0.750500  0.495000  0.748300  1
  B  B24  1  0.249500  0.505000  0.748300  1
  B  B25  1  0.250500  0.005000  0.251700  1
  B  B26  1  0.749500  0.995000  0.251700  1
  B  B27  1  0.250500  0.995000  0.748300  1
  B  B28  1  0.749500  0.005000  0.748300  1
  B  B29  1  0.250500  0.505000  0.751700  1
  B  B30  1  0.749500  0.495000  0.751700  1
  B  B31  1  0.250500  0.495000  0.248300  1
  B  B32  1  0.749500  0.505000  0.248300  1
  B  B33  1  0.000000  0.146100  0.162000  1
  B  B34  1  0.000000  0.853900  0.162000  1
  B  B35  1  0.000000  0.853900  0.838000  1
  B  B36  1  0.000000  0.146100  0.838000  1
  B  B37  1  0.000000  0.646100  0.662000  1
  B  B38  1  0.000000  0.353900  0.662000  1
  B  B39  1  0.000000  0.353900  0.338000  1
  B  B40  1  0.000000  0.646100  0.338000  1
  B  B41  1  0.500000  0.146100  0.662000  1
  B  B42  1  0.500000  0.853900  0.662000  1
  B  B43  1  0.500000  0.853900  0.338000  1
  B  B44  1  0.500000  0.146100  0.338000  1
  B  B45  1  0.500000  0.646100  0.162000  1
  B  B46  1  0.500000  0.353900  0.162000  1
  B  B47  1  0.500000  0.353900  0.838000  1
  B  B48  1  0.500000  0.646100  0.838000  1
  B  B49  1  0.143000  0.000000  0.154000  1
  B  B50  1  0.857000  0.000000  0.154000  1
  B  B51  1  0.143000  0.000000  0.846000  1
  B  B52  1  0.857000  0.000000  0.846000  1
  B  B53  1  0.143000  0.500000  0.654000  1
  B  B54  1  0.857000  0.500000  0.654000  1
  B  B55  1  0.143000  0.500000  0.346000  1
  B  B56  1  0.857000  0.500000  0.346000  1
  B  B57  1  0.643000  0.000000  0.654000  1
  B  B58  1  0.357000  0.000000  0.654000  1
  B  B59  1  0.643000  0.000000  0.346000  1
  B  B60  1  0.357000  0.000000  0.346000  1
  B  B61  1  0.643000  0.500000  0.154000  1
  B  B62  1  0.357000  0.500000  0.154000  1
  B  B63  1  0.643000  0.500000  0.846000  1
  B  B64  1  0.357000  0.500000  0.846000  1
  B  B65  1  0.141200  0.154000  0.000000  1
  B  B66  1  0.858800  0.846000  0.000000  1
  B  B67  1  0.141200  0.846000  0.000000  1
  B  B68  1  0.858800  0.154000  0.000000  1
  B  B69  1  0.141200  0.654000  0.500000  1
  B  B70  1  0.858800  0.346000  0.500000  1
  B  B71  1  0.141200  0.346000  0.500000  1
  B  B72  1  0.858800  0.654000  0.500000  1
  B  B73  1  0.641200  0.154000  0.500000  1
  B  B74  1  0.358800  0.846000  0.500000  1
  B  B75  1  0.641200  0.846000  0.500000  1
  B  B76  1  0.358800  0.154000  0.500000  1
  B  B77  1  0.641200  0.654000  0.000000  1
  B  B78  1  0.358800  0.346000  0.000000  1
  B  B79  1  0.641200  0.346000  0.000000  1
  B  B80  1  0.358800  0.654000  0.000000  1
  B  B81  1  0.244400  0.255300  0.001400  1.0
  B  B82  1  0.755600  0.744700  0.001400  1.0
  B  B83  1  0.244400  0.744700  0.998600  1.0
  B  B84  1  0.755600  0.255300  0.998600  1.0
  B  B85  1  0.244400  0.755300  0.501400  1.0
  B  B86  1  0.755600  0.244700  0.501400  1.0
  B  B87  1  0.244400  0.244700  0.498600  1.0
  B  B88  1  0.755600  0.755300  0.498600  1.0
  B  B89  1  0.744400  0.255300  0.501400  1.0
  B  B90  1  0.255600  0.744700  0.501400  1.0
  B  B91  1  0.744400  0.744700  0.498600  1.0
  B  B92  1  0.255600  0.255300  0.498600  1.0
  B  B93  1  0.744400  0.755300  0.001400  1.0
  B  B94  1  0.255600  0.244700  0.001400  1.0
  B  B95  1  0.744400  0.244700  0.998600  1.0
  B  B96  1  0.255600  0.755300  0.998600  1.0
  B  B97  1  0.755600  0.744700  0.998600  1.0
  B  B98  1  0.244400  0.255300  0.998600  1.0
  B  B99  1  0.755600  0.255300  0.001400  1.0
  B  B100  1  0.244400  0.744700  0.001400  1.0
  B  B101  1  0.755600  0.244700  0.498600  1.0
  B  B102  1  0.244400  0.755300  0.498600  1.0
  B  B103  1  0.755600  0.755300  0.501400  1.0
  B  B104  1  0.244400  0.244700  0.501400  1.0
  B  B105  1  0.255600  0.744700  0.498600  1.0
  B  B106  1  0.744400  0.255300  0.498600  1.0
  B  B107  1  0.255600  0.255300  0.501400  1.0
  B  B108  1  0.744400  0.744700  0.501400  1.0
  B  B109  1  0.255600  0.244700  0.998600  1.0
  B  B110  1  0.744400  0.755300  0.998600  1.0
  B  B111  1  0.255600  0.755300  0.001400  1.0
  B  B112  1  0.744400  0.244700  0.001400  1.0
  B  B113  1  0.006000  0.251600  0.251300  1.0
  B  B114  1  0.994000  0.748400  0.251300  1.0
  B  B115  1  0.006000  0.748400  0.748700  1.0
  B  B116  1  0.994000  0.251600  0.748700  1.0
  B  B117  1  0.006000  0.751600  0.751300  1.0
  B  B118  1  0.994000  0.248400  0.751300  1.0
  B  B119  1  0.006000  0.248400  0.248700  1.0
  B  B120  1  0.994000  0.751600  0.248700  1.0
  B  B121  1  0.506000  0.251600  0.751300  1.0
  B  B122  1  0.494000  0.748400  0.751300  1.0
  B  B123  1  0.506000  0.748400  0.248700  1.0
  B  B124  1  0.494000  0.251600  0.248700  1.0
  B  B125  1  0.506000  0.751600  0.251300  1.0
  B  B126  1  0.494000  0.248400  0.251300  1.0
  B  B127  1  0.506000  0.248400  0.748700  1.0
  B  B128  1  0.494000  0.751600  0.748700  1.0
  B  B129  1  0.994000  0.748400  0.748700  1.0
  B  B130  1  0.006000  0.251600  0.748700  1.0
  B  B131  1  0.994000  0.251600  0.251300  1.0
  B  B132  1  0.006000  0.748400  0.251300  1.0
  B  B133  1  0.994000  0.248400  0.248700  1.0
  B  B134  1  0.006000  0.751600  0.248700  1.0
  B  B135  1  0.994000  0.751600  0.751300  1.0
  B  B136  1  0.006000  0.248400  0.751300  1.0
  B  B137  1  0.494000  0.748400  0.248700  1.0
  B  B138  1  0.506000  0.251600  0.248700  1.0
  B  B139  1  0.494000  0.251600  0.751300  1.0
  B  B140  1  0.506000  0.748400  0.751300  1.0
  B  B141  1  0.494000  0.248400  0.748700  1.0
  B  B142  1  0.506000  0.751600  0.748700  1.0
  B  B143  1  0.494000  0.751600  0.251300  1.0
  B  B144  1  0.506000  0.248400  0.251300  1.0
  H  H145  1  0.026500  0.195000  0.160400  1.0
  H  H146  1  0.973500  0.805000  0.160400  1.0
  H  H147  1  0.026500  0.805000  0.839600  1.0
  H  H148  1  0.973500  0.195000  0.839600  1.0
  H  H149  1  0.026500  0.695000  0.660400  1.0
  H  H150  1  0.973500  0.305000  0.660400  1.0
  H  H151  1  0.026500  0.305000  0.339600  1.0
  H  H152  1  0.973500  0.695000  0.339600  1.0
  H  H153  1  0.526500  0.195000  0.660400  1.0
  H  H154  1  0.473500  0.805000  0.660400  1.0
  H  H155  1  0.526500  0.805000  0.339600  1.0
  H  H156  1  0.473500  0.195000  0.339600  1.0
  H  H157  1  0.526500  0.695000  0.160400  1.0
  H  H158  1  0.473500  0.305000  0.160400  1.0
  H  H159  1  0.526500  0.305000  0.839600  1.0
  H  H160  1  0.473500  0.695000  0.839600  1.0
  H  H161  1  0.973500  0.805000  0.839600  1.0
  H  H162  1  0.026500  0.195000  0.839600  1.0
  H  H163  1  0.973500  0.195000  0.160400  1.0
  H  H164  1  0.026500  0.805000  0.160400  1.0
  H  H165  1  0.973500  0.305000  0.339600  1.0
  H  H166  1  0.026500  0.695000  0.339600  1.0
  H  H167  1  0.973500  0.695000  0.660400  1.0
  H  H168  1  0.026500  0.305000  0.660400  1.0
  H  H169  1  0.473500  0.805000  0.339600  1.0
  H  H170  1  0.526500  0.195000  0.339600  1.0
  H  H171  1  0.473500  0.195000  0.660400  1.0
  H  H172  1  0.526500  0.805000  0.660400  1.0
  H  H173  1  0.473500  0.305000  0.839600  1.0
  H  H174  1  0.526500  0.695000  0.839600  1.0
  H  H175  1  0.473500  0.695000  0.160400  1.0
  H  H176  1  0.526500  0.305000  0.160400  1.0
  H  H177  1  0.053200  0.213700  0.142100  1.0
  H  H178  1  0.946800  0.786300  0.142100  1.0
  H  H179  1  0.053200  0.786300  0.857900  1.0
  H  H180  1  0.946800  0.213700  0.857900  1.0
  H  H181  1  0.053200  0.713700  0.642100  1.0
  H  H182  1  0.946800  0.286300  0.642100  1.0
  H  H183  1  0.053200  0.286300  0.357900  1.0
  H  H184  1  0.946800  0.713700  0.357900  1.0
  H  H185  1  0.553200  0.213700  0.642100  1.0
  H  H186  1  0.446800  0.786300  0.642100  1.0
  H  H187  1  0.553200  0.786300  0.357900  1.0
  H  H188  1  0.446800  0.213700  0.357900  1.0
  H  H189  1  0.553200  0.713700  0.142100  1.0
  H  H190  1  0.446800  0.286300  0.142100  1.0
  H  H191  1  0.553200  0.286300  0.857900  1.0
  H  H192  1  0.446800  0.713700  0.857900  1.0
  H  H193  1  0.946800  0.786300  0.857900  1.0
  H  H194  1  0.053200  0.213700  0.857900  1.0
  H  H195  1  0.946800  0.213700  0.142100  1.0
  H  H196  1  0.053200  0.786300  0.142100  1.0
  H  H197  1  0.946800  0.286300  0.357900  1.0
  H  H198  1  0.053200  0.713700  0.357900  1.0
  H  H199  1  0.946800  0.713700  0.642100  1.0
  H  H200  1  0.053200  0.286300  0.642100  1.0
  H  H201  1  0.446800  0.786300  0.357900  1.0
  H  H202  1  0.553200  0.213700  0.357900  1.0
  H  H203  1  0.446800  0.213700  0.642100  1.0
  H  H204  1  0.553200  0.786300  0.642100  1.0
  H  H205  1  0.446800  0.286300  0.857900  1.0
  H  H206  1  0.553200  0.713700  0.857900  1.0
  H  H207  1  0.446800  0.713700  0.142100  1.0
  H  H208  1  0.553200  0.286300  0.142100  1.0
  H  H209  1  0.051700  0.260200  0.187200  1.0
  H  H210  1  0.948300  0.739800  0.187200  1.0
  H  H211  1  0.051700  0.739800  0.812800  1.0
  H  H212  1  0.948300  0.260200  0.812800  1.0
  H  H213  1  0.051700  0.760200  0.687200  1.0
  H  H214  1  0.948300  0.239800  0.687200  1.0
  H  H215  1  0.051700  0.239800  0.312800  1.0
  H  H216  1  0.948300  0.760200  0.312800  1.0
  H  H217  1  0.551700  0.260200  0.687200  1.0
  H  H218  1  0.448300  0.739800  0.687200  1.0
  H  H219  1  0.551700  0.739800  0.312800  1.0
  H  H220  1  0.448300  0.260200  0.312800  1.0
  H  H221  1  0.551700  0.760200  0.187200  1.0
  H  H222  1  0.448300  0.239800  0.187200  1.0
  H  H223  1  0.551700  0.239800  0.812800  1.0
  H  H224  1  0.448300  0.760200  0.812800  1.0
  H  H225  1  0.948300  0.739800  0.812800  1.0
  H  H226  1  0.051700  0.260200  0.812800  1.0
  H  H227  1  0.948300  0.260200  0.187200  1.0
  H  H228  1  0.051700  0.739800  0.187200  1.0
  H  H229  1  0.948300  0.239800  0.312800  1.0
  H  H230  1  0.051700  0.760200  0.312800  1.0
  H  H231  1  0.948300  0.760200  0.687200  1.0
  H  H232  1  0.051700  0.239800  0.687200  1.0
  H  H233  1  0.448300  0.739800  0.312800  1.0
  H  H234  1  0.551700  0.260200  0.312800  1.0
  H  H235  1  0.448300  0.260200  0.687200  1.0
  H  H236  1  0.551700  0.739800  0.687200  1.0
  H  H237  1  0.448300  0.239800  0.812800  1.0
  H  H238  1  0.551700  0.760200  0.812800  1.0
  H  H239  1  0.448300  0.760200  0.187200  1.0
  H  H240  1  0.551700  0.239800  0.187200  1.0
  H  H241  1  0.024900  0.241500  0.205600  1.0
  H  H242  1  0.975100  0.758500  0.205600  1.0
  H  H243  1  0.024900  0.758500  0.794400  1.0
  H  H244  1  0.975100  0.241500  0.794400  1.0
  H  H245  1  0.024900  0.741500  0.705600  1.0
  H  H246  1  0.975100  0.258500  0.705600  1.0
  H  H247  1  0.024900  0.258500  0.294400  1.0
  H  H248  1  0.975100  0.741500  0.294400  1.0
  H  H249  1  0.524900  0.241500  0.705600  1.0
  H  H250  1  0.475100  0.758500  0.705600  1.0
  H  H251  1  0.524900  0.758500  0.294400  1.0
  H  H252  1  0.475100  0.241500  0.294400  1.0
  H  H253  1  0.524900  0.741500  0.205600  1.0
  H  H254  1  0.475100  0.258500  0.205600  1.0
  H  H255  1  0.524900  0.258500  0.794400  1.0
  H  H256  1  0.475100  0.741500  0.794400  1.0
  H  H257  1  0.975100  0.758500  0.794400  1.0
  H  H258  1  0.024900  0.241500  0.794400  1.0
  H  H259  1  0.975100  0.241500  0.205600  1.0
  H  H260  1  0.024900  0.758500  0.205600  1.0
  H  H261  1  0.975100  0.258500  0.294400  1.0
  H  H262  1  0.024900  0.741500  0.294400  1.0
  H  H263  1  0.975100  0.741500  0.705600  1.0
  H  H264  1  0.024900  0.258500  0.705600  1.0
  H  H265  1  0.475100  0.758500  0.294400  1.0
  H  H266  1  0.524900  0.241500  0.294400  1.0
  H  H267  1  0.475100  0.241500  0.705600  1.0
  H  H268  1  0.524900  0.758500  0.705600  1.0
  H  H269  1  0.475100  0.258500  0.794400  1.0
  H  H270  1  0.524900  0.741500  0.794400  1.0
  H  H271  1  0.475100  0.741500  0.205600  1.0
  H  H272  1  0.524900  0.258500  0.205600  1.0
  H  H273  1  0.160300  0.196000  0.026700  1.0
  H  H274  1  0.839700  0.804000  0.026700  1.0
  H  H275  1  0.160300  0.804000  0.973300  1.0
  H  H276  1  0.839700  0.196000  0.973300  1.0
  H  H277  1  0.160300  0.696000  0.526700  1.0
  H  H278  1  0.839700  0.304000  0.526700  1.0
  H  H279  1  0.160300  0.304000  0.473300  1.0
  H  H280  1  0.839700  0.696000  0.473300  1.0
  H  H281  1  0.660300  0.196000  0.526700  1.0
  H  H282  1  0.339700  0.804000  0.526700  1.0
  H  H283  1  0.660300  0.804000  0.473300  1.0
  H  H284  1  0.339700  0.196000  0.473300  1.0
  H  H285  1  0.660300  0.696000  0.026700  1.0
  H  H286  1  0.339700  0.304000  0.026700  1.0
  H  H287  1  0.660300  0.304000  0.973300  1.0
  H  H288  1  0.339700  0.696000  0.973300  1.0
  H  H289  1  0.839700  0.804000  0.973300  1.0
  H  H290  1  0.160300  0.196000  0.973300  1.0
  H  H291  1  0.839700  0.196000  0.026700  1.0
  H  H292  1  0.160300  0.804000  0.026700  1.0
  H  H293  1  0.839700  0.304000  0.473300  1.0
  H  H294  1  0.160300  0.696000  0.473300  1.0
  H  H295  1  0.839700  0.696000  0.526700  1.0
  H  H296  1  0.160300  0.304000  0.526700  1.0
  H  H297  1  0.339700  0.804000  0.473300  1.0
  H  H298  1  0.660300  0.196000  0.473300  1.0
  H  H299  1  0.339700  0.196000  0.526700  1.0
  H  H300  1  0.660300  0.804000  0.526700  1.0
  H  H301  1  0.339700  0.304000  0.973300  1.0
  H  H302  1  0.660300  0.696000  0.973300  1.0
  H  H303  1  0.339700  0.696000  0.026700  1.0
  H  H304  1  0.660300  0.304000  0.026700  1.0
  H  H305  1  0.143200  0.213900  0.054800  1.0
  H  H306  1  0.856800  0.786100  0.054800  1.0
  H  H307  1  0.143200  0.786100  0.945200  1.0
  H  H308  1  0.856800  0.213900  0.945200  1.0
  H  H309  1  0.143200  0.713900  0.554800  1.0
  H  H310  1  0.856800  0.286100  0.554800  1.0
  H  H311  1  0.143200  0.286100  0.445200  1.0
  H  H312  1  0.856800  0.713900  0.445200  1.0
  H  H313  1  0.643200  0.213900  0.554800  1.0
  H  H314  1  0.356800  0.786100  0.554800  1.0
  H  H315  1  0.643200  0.786100  0.445200  1.0
  H  H316  1  0.356800  0.213900  0.445200  1.0
  H  H317  1  0.643200  0.713900  0.054800  1.0
  H  H318  1  0.356800  0.286100  0.054800  1.0
  H  H319  1  0.643200  0.286100  0.945200  1.0
  H  H320  1  0.356800  0.713900  0.945200  1.0
  H  H321  1  0.856800  0.786100  0.945200  1.0
  H  H322  1  0.143200  0.213900  0.945200  1.0
  H  H323  1  0.856800  0.213900  0.054800  1.0
  H  H324  1  0.143200  0.786100  0.054800  1.0
  H  H325  1  0.856800  0.286100  0.445200  1.0
  H  H326  1  0.143200  0.713900  0.445200  1.0
  H  H327  1  0.856800  0.713900  0.554800  1.0
  H  H328  1  0.143200  0.286100  0.554800  1.0
  H  H329  1  0.356800  0.786100  0.445200  1.0
  H  H330  1  0.643200  0.213900  0.445200  1.0
  H  H331  1  0.356800  0.213900  0.554800  1.0
  H  H332  1  0.643200  0.786100  0.554800  1.0
  H  H333  1  0.356800  0.286100  0.945200  1.0
  H  H334  1  0.643200  0.713900  0.945200  1.0
  H  H335  1  0.356800  0.713900  0.054800  1.0
  H  H336  1  0.643200  0.286100  0.054800  1.0
  H  H337  1  0.187700  0.260900  0.051800  1.0
  H  H338  1  0.812300  0.739100  0.051800  1.0
  H  H339  1  0.187700  0.739100  0.948200  1.0
  H  H340  1  0.812300  0.260900  0.948200  1.0
  H  H341  1  0.187700  0.760900  0.551800  1.0
  H  H342  1  0.812300  0.239100  0.551800  1.0
  H  H343  1  0.187700  0.239100  0.448200  1.0
  H  H344  1  0.812300  0.760900  0.448200  1.0
  H  H345  1  0.687700  0.260900  0.551800  1.0
  H  H346  1  0.312300  0.739100  0.551800  1.0
  H  H347  1  0.687700  0.739100  0.448200  1.0
  H  H348  1  0.312300  0.260900  0.448200  1.0
  H  H349  1  0.687700  0.760900  0.051800  1.0
  H  H350  1  0.312300  0.239100  0.051800  1.0
  H  H351  1  0.687700  0.239100  0.948200  1.0
  H  H352  1  0.312300  0.760900  0.948200  1.0
  H  H353  1  0.812300  0.739100  0.948200  1.0
  H  H354  1  0.187700  0.260900  0.948200  1.0
  H  H355  1  0.812300  0.260900  0.051800  1.0
  H  H356  1  0.187700  0.739100  0.051800  1.0
  H  H357  1  0.812300  0.239100  0.448200  1.0
  H  H358  1  0.187700  0.760900  0.448200  1.0
  H  H359  1  0.812300  0.760900  0.551800  1.0
  H  H360  1  0.187700  0.239100  0.551800  1.0
  H  H361  1  0.312300  0.739100  0.448200  1.0
  H  H362  1  0.687700  0.260900  0.448200  1.0
  H  H363  1  0.312300  0.260900  0.551800  1.0
  H  H364  1  0.687700  0.739100  0.551800  1.0
  H  H365  1  0.312300  0.239100  0.948200  1.0
  H  H366  1  0.687700  0.760900  0.948200  1.0
  H  H367  1  0.312300  0.760900  0.051800  1.0
  H  H368  1  0.687700  0.239100  0.051800  1.0
  H  H369  1  0.204800  0.243000  0.023700  1.0
  H  H370  1  0.795200  0.757000  0.023700  1.0
  H  H371  1  0.204800  0.757000  0.976300  1.0
  H  H372  1  0.795200  0.243000  0.976300  1.0
  H  H373  1  0.204800  0.743000  0.523700  1.0
  H  H374  1  0.795200  0.257000  0.523700  1.0
  H  H375  1  0.204800  0.257000  0.476300  1.0
  H  H376  1  0.795200  0.743000  0.476300  1.0
  H  H377  1  0.704800  0.243000  0.523700  1.0
  H  H378  1  0.295200  0.757000  0.523700  1.0
  H  H379  1  0.704800  0.757000  0.476300  1.0
  H  H380  1  0.295200  0.243000  0.476300  1.0
  H  H381  1  0.704800  0.743000  0.023700  1.0
  H  H382  1  0.295200  0.257000  0.023700  1.0
  H  H383  1  0.704800  0.257000  0.976300  1.0
  H  H384  1  0.295200  0.743000  0.976300  1.0
  H  H385  1  0.795200  0.757000  0.976300  1.0
  H  H386  1  0.204800  0.243000  0.976300  1.0
  H  H387  1  0.795200  0.243000  0.023700  1.0
  H  H388  1  0.204800  0.757000  0.023700  1.0
  H  H389  1  0.795200  0.257000  0.476300  1.0
  H  H390  1  0.204800  0.743000  0.476300  1.0
  H  H391  1  0.795200  0.743000  0.523700  1.0
  H  H392  1  0.204800  0.257000  0.523700  1.0
  H  H393  1  0.295200  0.757000  0.476300  1.0
  H  H394  1  0.704800  0.243000  0.476300  1.0
  H  H395  1  0.295200  0.243000  0.523700  1.0
  H  H396  1  0.704800  0.757000  0.523700  1.0
  H  H397  1  0.295200  0.257000  0.976300  1.0
  H  H398  1  0.704800  0.743000  0.976300  1.0
  H  H399  1  0.295200  0.743000  0.023700  1.0
  H  H400  1  0.704800  0.257000  0.023700  1.0
  H  H401  1  0.107700  0.291900  0.154700  1.0
  H  H402  1  0.892300  0.708100  0.154700  1.0
  H  H403  1  0.107700  0.708100  0.845300  1.0
  H  H404  1  0.892300  0.291900  0.845300  1.0
  H  H405  1  0.107700  0.791900  0.654700  1.0
  H  H406  1  0.892300  0.208100  0.654700  1.0
  H  H407  1  0.107700  0.208100  0.345300  1.0
  H  H408  1  0.892300  0.791900  0.345300  1.0
  H  H409  1  0.607700  0.291900  0.654700  1.0
  H  H410  1  0.392300  0.708100  0.654700  1.0
  H  H411  1  0.607700  0.708100  0.345300  1.0
  H  H412  1  0.392300  0.291900  0.345300  1.0
  H  H413  1  0.607700  0.791900  0.154700  1.0
  H  H414  1  0.392300  0.208100  0.154700  1.0
  H  H415  1  0.607700  0.208100  0.845300  1.0
  H  H416  1  0.392300  0.791900  0.845300  1.0
  H  H417  1  0.892300  0.708100  0.845300  1.0
  H  H418  1  0.107700  0.291900  0.845300  1.0
  H  H419  1  0.892300  0.291900  0.154700  1.0
  H  H420  1  0.107700  0.708100  0.154700  1.0
  H  H421  1  0.892300  0.208100  0.345300  1.0
  H  H422  1  0.107700  0.791900  0.345300  1.0
  H  H423  1  0.892300  0.791900  0.654700  1.0
  H  H424  1  0.107700  0.208100  0.654700  1.0
  H  H425  1  0.392300  0.708100  0.345300  1.0
  H  H426  1  0.607700  0.291900  0.345300  1.0
  H  H427  1  0.392300  0.291900  0.654700  1.0
  H  H428  1  0.607700  0.708100  0.654700  1.0
  H  H429  1  0.392300  0.208100  0.845300  1.0
  H  H430  1  0.607700  0.791900  0.845300  1.0
  H  H431  1  0.392300  0.791900  0.154700  1.0
  H  H432  1  0.607700  0.208100  0.154700  1.0
  H  H433  1  0.110100  0.245800  0.109200  1.0
  H  H434  1  0.889900  0.754200  0.109200  1.0
  H  H435  1  0.110100  0.754200  0.890800  1.0
  H  H436  1  0.889900  0.245800  0.890800  1.0
  H  H437  1  0.110100  0.745800  0.609200  1.0
  H  H438  1  0.889900  0.254200  0.609200  1.0
  H  H439  1  0.110100  0.254200  0.390800  1.0
  H  H440  1  0.889900  0.745800  0.390800  1.0
  H  H441  1  0.610100  0.245800  0.609200  1.0
  H  H442  1  0.389900  0.754200  0.609200  1.0
  H  H443  1  0.610100  0.754200  0.390800  1.0
  H  H444  1  0.389900  0.245800  0.390800  1.0
  H  H445  1  0.610100  0.745800  0.109200  1.0
  H  H446  1  0.389900  0.254200  0.109200  1.0
  H  H447  1  0.610100  0.254200  0.890800  1.0
  H  H448  1  0.389900  0.745800  0.890800  1.0
  H  H449  1  0.889900  0.754200  0.890800  1.0
  H  H450  1  0.110100  0.245800  0.890800  1.0
  H  H451  1  0.889900  0.245800  0.109200  1.0
  H  H452  1  0.110100  0.754200  0.109200  1.0
  H  H453  1  0.889900  0.254200  0.390800  1.0
  H  H454  1  0.110100  0.745800  0.390800  1.0
  H  H455  1  0.889900  0.745800  0.609200  1.0
  H  H456  1  0.110100  0.254200  0.609200  1.0
  H  H457  1  0.389900  0.754200  0.390800  1.0
  H  H458  1  0.610100  0.245800  0.390800  1.0
  H  H459  1  0.389900  0.245800  0.609200  1.0
  H  H460  1  0.610100  0.754200  0.609200  1.0
  H  H461  1  0.389900  0.254200  0.890800  1.0
  H  H462  1  0.610100  0.745800  0.890800  1.0
  H  H463  1  0.389900  0.745800  0.109200  1.0
  H  H464  1  0.610100  0.254200  0.109200  1.0
  H  H465  1  0.152000  0.295300  0.107500  1.0
  H  H466  1  0.848000  0.704700  0.107500  1.0
  H  H467  1  0.152000  0.704700  0.892500  1.0
  H  H468  1  0.848000  0.295300  0.892500  1.0
  H  H469  1  0.152000  0.795300  0.607500  1.0
  H  H470  1  0.848000  0.204700  0.607500  1.0
  H  H471  1  0.152000  0.204700  0.392500  1.0
  H  H472  1  0.848000  0.795300  0.392500  1.0
  H  H473  1  0.652000  0.295300  0.607500  1.0
  H  H474  1  0.348000  0.704700  0.607500  1.0
  H  H475  1  0.652000  0.704700  0.392500  1.0
  H  H476  1  0.348000  0.295300  0.392500  1.0
  H  H477  1  0.652000  0.795300  0.107500  1.0
  H  H478  1  0.348000  0.204700  0.107500  1.0
  H  H479  1  0.652000  0.204700  0.892500  1.0
  H  H480  1  0.348000  0.795300  0.892500  1.0
  H  H481  1  0.848000  0.704700  0.892500  1.0
  H  H482  1  0.152000  0.295300  0.892500  1.0
  H  H483  1  0.848000  0.295300  0.107500  1.0
  H  H484  1  0.152000  0.704700  0.107500  1.0
  H  H485  1  0.848000  0.204700  0.392500  1.0
  H  H486  1  0.152000  0.795300  0.392500  1.0
  H  H487  1  0.848000  0.795300  0.607500  1.0
  H  H488  1  0.152000  0.204700  0.607500  1.0
  H  H489  1  0.348000  0.704700  0.392500  1.0
  H  H490  1  0.652000  0.295300  0.392500  1.0
  H  H491  1  0.348000  0.295300  0.607500  1.0
  H  H492  1  0.652000  0.704700  0.607500  1.0
  H  H493  1  0.348000  0.204700  0.892500  1.0
  H  H494  1  0.652000  0.795300  0.892500  1.0
  H  H495  1  0.348000  0.795300  0.107500  1.0
  H  H496  1  0.652000  0.204700  0.107500  1.0
  H  H497  1  0.196000  0.161700  0.023400  1.0
  H  H498  1  0.804000  0.838300  0.023400  1.0
  H  H499  1  0.196000  0.838300  0.976600  1.0
  H  H500  1  0.804000  0.161700  0.976600  1.0
  H  H501  1  0.196000  0.661700  0.523400  1.0
  H  H502  1  0.804000  0.338300  0.523400  1.0
  H  H503  1  0.196000  0.338300  0.476600  1.0
  H  H504  1  0.804000  0.661700  0.476600  1.0
  H  H505  1  0.696000  0.161700  0.523400  1.0
  H  H506  1  0.304000  0.838300  0.523400  1.0
  H  H507  1  0.696000  0.838300  0.476600  1.0
  H  H508  1  0.304000  0.161700  0.476600  1.0
  H  H509  1  0.696000  0.661700  0.023400  1.0
  H  H510  1  0.304000  0.338300  0.023400  1.0
  H  H511  1  0.696000  0.338300  0.976600  1.0
  H  H512  1  0.304000  0.661700  0.976600  1.0
  H  H513  1  0.804000  0.838300  0.976600  1.0
  H  H514  1  0.196000  0.161700  0.976600  1.0
  H  H515  1  0.804000  0.161700  0.023400  1.0
  H  H516  1  0.196000  0.838300  0.023400  1.0
  H  H517  1  0.804000  0.338300  0.476600  1.0
  H  H518  1  0.196000  0.661700  0.476600  1.0
  H  H519  1  0.804000  0.661700  0.523400  1.0
  H  H520  1  0.196000  0.338300  0.523400  1.0
  H  H521  1  0.304000  0.838300  0.476600  1.0
  H  H522  1  0.696000  0.161700  0.476600  1.0
  H  H523  1  0.304000  0.161700  0.523400  1.0
  H  H524  1  0.696000  0.838300  0.523400  1.0
  H  H525  1  0.304000  0.338300  0.976600  1.0
  H  H526  1  0.696000  0.661700  0.976600  1.0
  H  H527  1  0.304000  0.661700  0.023400  1.0
  H  H528  1  0.696000  0.338300  0.023400  1.0
  H  H529  1  0.212000  0.143400  0.051900  1.0
  H  H530  1  0.788000  0.856600  0.051900  1.0
  H  H531  1  0.212000  0.856600  0.948100  1.0
  H  H532  1  0.788000  0.143400  0.948100  1.0
  H  H533  1  0.212000  0.643400  0.551900  1.0
  H  H534  1  0.788000  0.356600  0.551900  1.0
  H  H535  1  0.212000  0.356600  0.448100  1.0
  H  H536  1  0.788000  0.643400  0.448100  1.0
  H  H537  1  0.712000  0.143400  0.551900  1.0
  H  H538  1  0.288000  0.856600  0.551900  1.0
  H  H539  1  0.712000  0.856600  0.448100  1.0
  H  H540  1  0.288000  0.143400  0.448100  1.0
  H  H541  1  0.712000  0.643400  0.051900  1.0
  H  H542  1  0.288000  0.356600  0.051900  1.0
  H  H543  1  0.712000  0.356600  0.948100  1.0
  H  H544  1  0.288000  0.643400  0.948100  1.0
  H  H545  1  0.788000  0.856600  0.948100  1.0
  H  H546  1  0.212000  0.143400  0.948100  1.0
  H  H547  1  0.788000  0.143400  0.051900  1.0
  H  H548  1  0.212000  0.856600  0.051900  1.0
  H  H549  1  0.788000  0.356600  0.448100  1.0
  H  H550  1  0.212000  0.643400  0.448100  1.0
  H  H551  1  0.788000  0.643400  0.551900  1.0
  H  H552  1  0.212000  0.356600  0.551900  1.0
  H  H553  1  0.288000  0.856600  0.448100  1.0
  H  H554  1  0.712000  0.143400  0.448100  1.0
  H  H555  1  0.288000  0.143400  0.551900  1.0
  H  H556  1  0.712000  0.856600  0.551900  1.0
  H  H557  1  0.288000  0.356600  0.948100  1.0
  H  H558  1  0.712000  0.643400  0.948100  1.0
  H  H559  1  0.288000  0.643400  0.051900  1.0
  H  H560  1  0.712000  0.356600  0.051900  1.0
  H  H561  1  0.259700  0.187400  0.053200  1.0
  H  H562  1  0.740300  0.812600  0.053200  1.0
  H  H563  1  0.259700  0.812600  0.946800  1.0
  H  H564  1  0.740300  0.187400  0.946800  1.0
  H  H565  1  0.259700  0.687400  0.553200  1.0
  H  H566  1  0.740300  0.312600  0.553200  1.0
  H  H567  1  0.259700  0.312600  0.446800  1.0
  H  H568  1  0.740300  0.687400  0.446800  1.0
  H  H569  1  0.759700  0.187400  0.553200  1.0
  H  H570  1  0.240300  0.812600  0.553200  1.0
  H  H571  1  0.759700  0.812600  0.446800  1.0
  H  H572  1  0.240300  0.187400  0.446800  1.0
  H  H573  1  0.759700  0.687400  0.053200  1.0
  H  H574  1  0.240300  0.312600  0.053200  1.0
  H  H575  1  0.759700  0.312600  0.946800  1.0
  H  H576  1  0.240300  0.687400  0.946800  1.0
  H  H577  1  0.740300  0.812600  0.946800  1.0
  H  H578  1  0.259700  0.187400  0.946800  1.0
  H  H579  1  0.740300  0.187400  0.053200  1.0
  H  H580  1  0.259700  0.812600  0.053200  1.0
  H  H581  1  0.740300  0.312600  0.446800  1.0
  H  H582  1  0.259700  0.687400  0.446800  1.0
  H  H583  1  0.740300  0.687400  0.553200  1.0
  H  H584  1  0.259700  0.312600  0.553200  1.0
  H  H585  1  0.240300  0.812600  0.446800  1.0
  H  H586  1  0.759700  0.187400  0.446800  1.0
  H  H587  1  0.240300  0.187400  0.553200  1.0
  H  H588  1  0.759700  0.812600  0.553200  1.0
  H  H589  1  0.240300  0.312600  0.946800  1.0
  H  H590  1  0.759700  0.687400  0.946800  1.0
  H  H591  1  0.240300  0.687400  0.053200  1.0
  H  H592  1  0.759700  0.312600  0.053200  1.0
  H  H593  1  0.243700  0.205600  0.024700  1.0
  H  H594  1  0.756300  0.794400  0.024700  1.0
  H  H595  1  0.243700  0.794400  0.975300  1.0
  H  H596  1  0.756300  0.205600  0.975300  1.0
  H  H597  1  0.243700  0.705600  0.524700  1.0
  H  H598  1  0.756300  0.294400  0.524700  1.0
  H  H599  1  0.243700  0.294400  0.475300  1.0
  H  H600  1  0.756300  0.705600  0.475300  1.0
  H  H601  1  0.743700  0.205600  0.524700  1.0
  H  H602  1  0.256300  0.794400  0.524700  1.0
  H  H603  1  0.743700  0.794400  0.475300  1.0
  H  H604  1  0.256300  0.205600  0.475300  1.0
  H  H605  1  0.743700  0.705600  0.024700  1.0
  H  H606  1  0.256300  0.294400  0.024700  1.0
  H  H607  1  0.743700  0.294400  0.975300  1.0
  H  H608  1  0.256300  0.705600  0.975300  1.0
  H  H609  1  0.756300  0.794400  0.975300  1.0
  H  H610  1  0.243700  0.205600  0.975300  1.0
  H  H611  1  0.756300  0.205600  0.024700  1.0
  H  H612  1  0.243700  0.794400  0.024700  1.0
  H  H613  1  0.756300  0.294400  0.475300  1.0
  H  H614  1  0.243700  0.705600  0.475300  1.0
  H  H615  1  0.756300  0.705600  0.524700  1.0
  H  H616  1  0.243700  0.294400  0.524700  1.0
  H  H617  1  0.256300  0.794400  0.475300  1.0
  H  H618  1  0.743700  0.205600  0.475300  1.0
  H  H619  1  0.256300  0.205600  0.524700  1.0
  H  H620  1  0.743700  0.794400  0.524700  1.0
  H  H621  1  0.256300  0.294400  0.975300  1.0
  H  H622  1  0.743700  0.705600  0.975300  1.0
  H  H623  1  0.256300  0.705600  0.024700  1.0
  H  H624  1  0.743700  0.294400  0.024700  1.0
  H  H625  1  0.194300  0.025000  0.161300  1.0
  H  H626  1  0.805700  0.975000  0.161300  1.0
  H  H627  1  0.194300  0.975000  0.838700  1.0
  H  H628  1  0.805700  0.025000  0.838700  1.0
  H  H629  1  0.194300  0.525000  0.661300  1.0
  H  H630  1  0.805700  0.475000  0.661300  1.0
  H  H631  1  0.194300  0.475000  0.338700  1.0
  H  H632  1  0.805700  0.525000  0.338700  1.0
  H  H633  1  0.694300  0.025000  0.661300  1.0
  H  H634  1  0.305700  0.975000  0.661300  1.0
  H  H635  1  0.694300  0.975000  0.338700  1.0
  H  H636  1  0.305700  0.025000  0.338700  1.0
  H  H637  1  0.694300  0.525000  0.161300  1.0
  H  H638  1  0.305700  0.475000  0.161300  1.0
  H  H639  1  0.694300  0.475000  0.838700  1.0
  H  H640  1  0.305700  0.525000  0.838700  1.0
  H  H641  1  0.805700  0.975000  0.838700  1.0
  H  H642  1  0.194300  0.025000  0.838700  1.0
  H  H643  1  0.805700  0.025000  0.161300  1.0
  H  H644  1  0.194300  0.975000  0.161300  1.0
  H  H645  1  0.805700  0.475000  0.338700  1.0
  H  H646  1  0.194300  0.525000  0.338700  1.0
  H  H647  1  0.805700  0.525000  0.661300  1.0
  H  H648  1  0.194300  0.475000  0.661300  1.0
  H  H649  1  0.305700  0.975000  0.338700  1.0
  H  H650  1  0.694300  0.025000  0.338700  1.0
  H  H651  1  0.305700  0.025000  0.661300  1.0
  H  H652  1  0.694300  0.975000  0.661300  1.0
  H  H653  1  0.305700  0.475000  0.838700  1.0
  H  H654  1  0.694300  0.525000  0.838700  1.0
  H  H655  1  0.305700  0.525000  0.161300  1.0
  H  H656  1  0.694300  0.475000  0.161300  1.0
  H  H657  1  0.211200  0.053100  0.143200  1.0
  H  H658  1  0.788800  0.946900  0.143200  1.0
  H  H659  1  0.211200  0.946900  0.856800  1.0
  H  H660  1  0.788800  0.053100  0.856800  1.0
  H  H661  1  0.211200  0.553100  0.643200  1.0
  H  H662  1  0.788800  0.446900  0.643200  1.0
  H  H663  1  0.211200  0.446900  0.356800  1.0
  H  H664  1  0.788800  0.553100  0.356800  1.0
  H  H665  1  0.711200  0.053100  0.643200  1.0
  H  H666  1  0.288800  0.946900  0.643200  1.0
  H  H667  1  0.711200  0.946900  0.356800  1.0
  H  H668  1  0.288800  0.053100  0.356800  1.0
  H  H669  1  0.711200  0.553100  0.143200  1.0
  H  H670  1  0.288800  0.446900  0.143200  1.0
  H  H671  1  0.711200  0.446900  0.856800  1.0
  H  H672  1  0.288800  0.553100  0.856800  1.0
  H  H673  1  0.788800  0.946900  0.856800  1.0
  H  H674  1  0.211200  0.053100  0.856800  1.0
  H  H675  1  0.788800  0.053100  0.143200  1.0
  H  H676  1  0.211200  0.946900  0.143200  1.0
  H  H677  1  0.788800  0.446900  0.356800  1.0
  H  H678  1  0.211200  0.553100  0.356800  1.0
  H  H679  1  0.788800  0.553100  0.643200  1.0
  H  H680  1  0.211200  0.446900  0.643200  1.0
  H  H681  1  0.288800  0.946900  0.356800  1.0
  H  H682  1  0.711200  0.053100  0.356800  1.0
  H  H683  1  0.288800  0.053100  0.643200  1.0
  H  H684  1  0.711200  0.946900  0.643200  1.0
  H  H685  1  0.288800  0.446900  0.856800  1.0
  H  H686  1  0.711200  0.553100  0.856800  1.0
  H  H687  1  0.288800  0.553100  0.143200  1.0
  H  H688  1  0.711200  0.446900  0.143200  1.0
  H  H689  1  0.259900  0.051400  0.185900  1.0
  H  H690  1  0.740100  0.948600  0.185900  1.0
  H  H691  1  0.259900  0.948600  0.814100  1.0
  H  H692  1  0.740100  0.051400  0.814100  1.0
  H  H693  1  0.259900  0.551400  0.685900  1.0
  H  H694  1  0.740100  0.448600  0.685900  1.0
  H  H695  1  0.259900  0.448600  0.314100  1.0
  H  H696  1  0.740100  0.551400  0.314100  1.0
  H  H697  1  0.759900  0.051400  0.685900  1.0
  H  H698  1  0.240100  0.948600  0.685900  1.0
  H  H699  1  0.759900  0.948600  0.314100  1.0
  H  H700  1  0.240100  0.051400  0.314100  1.0
  H  H701  1  0.759900  0.551400  0.185900  1.0
  H  H702  1  0.240100  0.448600  0.185900  1.0
  H  H703  1  0.759900  0.448600  0.814100  1.0
  H  H704  1  0.240100  0.551400  0.814100  1.0
  H  H705  1  0.740100  0.948600  0.814100  1.0
  H  H706  1  0.259900  0.051400  0.814100  1.0
  H  H707  1  0.740100  0.051400  0.185900  1.0
  H  H708  1  0.259900  0.948600  0.185900  1.0
  H  H709  1  0.740100  0.448600  0.314100  1.0
  H  H710  1  0.259900  0.551400  0.314100  1.0
  H  H711  1  0.740100  0.551400  0.685900  1.0
  H  H712  1  0.259900  0.448600  0.685900  1.0
  H  H713  1  0.240100  0.948600  0.314100  1.0
  H  H714  1  0.759900  0.051400  0.314100  1.0
  H  H715  1  0.240100  0.051400  0.685900  1.0
  H  H716  1  0.759900  0.948600  0.685900  1.0
  H  H717  1  0.240100  0.448600  0.814100  1.0
  H  H718  1  0.759900  0.551400  0.814100  1.0
  H  H719  1  0.240100  0.551400  0.185900  1.0
  H  H720  1  0.759900  0.448600  0.185900  1.0
  H  H721  1  0.243000  0.023300  0.204000  1.0
  H  H722  1  0.757000  0.976700  0.204000  1.0
  H  H723  1  0.243000  0.976700  0.796000  1.0
  H  H724  1  0.757000  0.023300  0.796000  1.0
  H  H725  1  0.243000  0.523300  0.704000  1.0
  H  H726  1  0.757000  0.476700  0.704000  1.0
  H  H727  1  0.243000  0.476700  0.296000  1.0
  H  H728  1  0.757000  0.523300  0.296000  1.0
  H  H729  1  0.743000  0.023300  0.704000  1.0
  H  H730  1  0.257000  0.976700  0.704000  1.0
  H  H731  1  0.743000  0.976700  0.296000  1.0
  H  H732  1  0.257000  0.023300  0.296000  1.0
  H  H733  1  0.743000  0.523300  0.204000  1.0
  H  H734  1  0.257000  0.476700  0.204000  1.0
  H  H735  1  0.743000  0.476700  0.796000  1.0
  H  H736  1  0.257000  0.523300  0.796000  1.0
  H  H737  1  0.757000  0.976700  0.796000  1.0
  H  H738  1  0.243000  0.023300  0.796000  1.0
  H  H739  1  0.757000  0.023300  0.204000  1.0
  H  H740  1  0.243000  0.976700  0.204000  1.0
  H  H741  1  0.757000  0.476700  0.296000  1.0
  H  H742  1  0.243000  0.523300  0.296000  1.0
  H  H743  1  0.757000  0.523300  0.704000  1.0
  H  H744  1  0.243000  0.476700  0.704000  1.0
  H  H745  1  0.257000  0.976700  0.296000  1.0
  H  H746  1  0.743000  0.023300  0.296000  1.0
  H  H747  1  0.257000  0.023300  0.704000  1.0
  H  H748  1  0.743000  0.976700  0.704000  1.0
  H  H749  1  0.257000  0.476700  0.796000  1.0
  H  H750  1  0.743000  0.523300  0.796000  1.0
  H  H751  1  0.257000  0.523300  0.204000  1.0
  H  H752  1  0.743000  0.476700  0.204000  1.0
  H  H753  1  0.292500  0.153200  0.107700  1.0
  H  H754  1  0.707500  0.846800  0.107700  1.0
  H  H755  1  0.292500  0.846800  0.892300  1.0
  H  H756  1  0.707500  0.153200  0.892300  1.0
  H  H757  1  0.292500  0.653200  0.607700  1.0
  H  H758  1  0.707500  0.346800  0.607700  1.0
  H  H759  1  0.292500  0.346800  0.392300  1.0
  H  H760  1  0.707500  0.653200  0.392300  1.0
  H  H761  1  0.792500  0.153200  0.607700  1.0
  H  H762  1  0.207500  0.846800  0.607700  1.0
  H  H763  1  0.792500  0.846800  0.392300  1.0
  H  H764  1  0.207500  0.153200  0.392300  1.0
  H  H765  1  0.792500  0.653200  0.107700  1.0
  H  H766  1  0.207500  0.346800  0.107700  1.0
  H  H767  1  0.792500  0.346800  0.892300  1.0
  H  H768  1  0.207500  0.653200  0.892300  1.0
  H  H769  1  0.707500  0.846800  0.892300  1.0
  H  H770  1  0.292500  0.153200  0.892300  1.0
  H  H771  1  0.707500  0.153200  0.107700  1.0
  H  H772  1  0.292500  0.846800  0.107700  1.0
  H  H773  1  0.707500  0.346800  0.392300  1.0
  H  H774  1  0.292500  0.653200  0.392300  1.0
  H  H775  1  0.707500  0.653200  0.607700  1.0
  H  H776  1  0.292500  0.346800  0.607700  1.0
  H  H777  1  0.207500  0.846800  0.392300  1.0
  H  H778  1  0.792500  0.153200  0.392300  1.0
  H  H779  1  0.207500  0.153200  0.607700  1.0
  H  H780  1  0.792500  0.846800  0.607700  1.0
  H  H781  1  0.207500  0.346800  0.892300  1.0
  H  H782  1  0.792500  0.653200  0.892300  1.0
  H  H783  1  0.207500  0.653200  0.107700  1.0
  H  H784  1  0.792500  0.346800  0.107700  1.0
  H  H785  1  0.244200  0.110000  0.109600  1.0
  H  H786  1  0.755800  0.890000  0.109600  1.0
  H  H787  1  0.244200  0.890000  0.890400  1.0
  H  H788  1  0.755800  0.110000  0.890400  1.0
  H  H789  1  0.244200  0.610000  0.609600  1.0
  H  H790  1  0.755800  0.390000  0.609600  1.0
  H  H791  1  0.244200  0.390000  0.390400  1.0
  H  H792  1  0.755800  0.610000  0.390400  1.0
  H  H793  1  0.744200  0.110000  0.609600  1.0
  H  H794  1  0.255800  0.890000  0.609600  1.0
  H  H795  1  0.744200  0.890000  0.390400  1.0
  H  H796  1  0.255800  0.110000  0.390400  1.0
  H  H797  1  0.744200  0.610000  0.109600  1.0
  H  H798  1  0.255800  0.390000  0.109600  1.0
  H  H799  1  0.744200  0.390000  0.890400  1.0
  H  H800  1  0.255800  0.610000  0.890400  1.0
  H  H801  1  0.755800  0.890000  0.890400  1.0
  H  H802  1  0.244200  0.110000  0.890400  1.0
  H  H803  1  0.755800  0.110000  0.109600  1.0
  H  H804  1  0.244200  0.890000  0.109600  1.0
  H  H805  1  0.755800  0.390000  0.390400  1.0
  H  H806  1  0.244200  0.610000  0.390400  1.0
  H  H807  1  0.755800  0.610000  0.609600  1.0
  H  H808  1  0.244200  0.390000  0.609600  1.0
  H  H809  1  0.255800  0.890000  0.390400  1.0
  H  H810  1  0.744200  0.110000  0.390400  1.0
  H  H811  1  0.255800  0.110000  0.609600  1.0
  H  H812  1  0.744200  0.890000  0.609600  1.0
  H  H813  1  0.255800  0.390000  0.890400  1.0
  H  H814  1  0.744200  0.610000  0.890400  1.0
  H  H815  1  0.255800  0.610000  0.109600  1.0
  H  H816  1  0.744200  0.390000  0.109600  1.0
  H  H817  1  0.291200  0.107900  0.154100  1.0
  H  H818  1  0.708800  0.892100  0.154100  1.0
  H  H819  1  0.291200  0.892100  0.845900  1.0
  H  H820  1  0.708800  0.107900  0.845900  1.0
  H  H821  1  0.291200  0.607900  0.654100  1.0
  H  H822  1  0.708800  0.392100  0.654100  1.0
  H  H823  1  0.291200  0.392100  0.345900  1.0
  H  H824  1  0.708800  0.607900  0.345900  1.0
  H  H825  1  0.791200  0.107900  0.654100  1.0
  H  H826  1  0.208800  0.892100  0.654100  1.0
  H  H827  1  0.791200  0.892100  0.345900  1.0
  H  H828  1  0.208800  0.107900  0.345900  1.0
  H  H829  1  0.791200  0.607900  0.154100  1.0
  H  H830  1  0.208800  0.392100  0.154100  1.0
  H  H831  1  0.791200  0.392100  0.845900  1.0
  H  H832  1  0.208800  0.607900  0.845900  1.0
  H  H833  1  0.708800  0.892100  0.845900  1.0
  H  H834  1  0.291200  0.107900  0.845900  1.0
  H  H835  1  0.708800  0.107900  0.154100  1.0
  H  H836  1  0.291200  0.892100  0.154100  1.0
  H  H837  1  0.708800  0.392100  0.345900  1.0
  H  H838  1  0.291200  0.607900  0.345900  1.0
  H  H839  1  0.708800  0.607900  0.654100  1.0
  H  H840  1  0.291200  0.392100  0.654100  1.0
  H  H841  1  0.208800  0.892100  0.345900  1.0
  H  H842  1  0.791200  0.107900  0.345900  1.0
  H  H843  1  0.208800  0.107900  0.654100  1.0
  H  H844  1  0.791200  0.892100  0.654100  1.0
  H  H845  1  0.208800  0.392100  0.845900  1.0
  H  H846  1  0.791200  0.607900  0.845900  1.0
  H  H847  1  0.208800  0.607900  0.154100  1.0
  H  H848  1  0.791200  0.392100  0.154100  1.0
  H  H849  1  0.158500  0.026500  0.194400  1.0
  H  H850  1  0.841500  0.973500  0.194400  1.0
  H  H851  1  0.158500  0.973500  0.805600  1.0
  H  H852  1  0.841500  0.026500  0.805600  1.0
  H  H853  1  0.158500  0.526500  0.694400  1.0
  H  H854  1  0.841500  0.473500  0.694400  1.0
  H  H855  1  0.158500  0.473500  0.305600  1.0
  H  H856  1  0.841500  0.526500  0.305600  1.0
  H  H857  1  0.658500  0.026500  0.694400  1.0
  H  H858  1  0.341500  0.973500  0.694400  1.0
  H  H859  1  0.658500  0.973500  0.305600  1.0
  H  H860  1  0.341500  0.026500  0.305600  1.0
  H  H861  1  0.658500  0.526500  0.194400  1.0
  H  H862  1  0.341500  0.473500  0.194400  1.0
  H  H863  1  0.658500  0.473500  0.805600  1.0
  H  H864  1  0.341500  0.526500  0.805600  1.0
  H  H865  1  0.841500  0.973500  0.805600  1.0
  H  H866  1  0.158500  0.026500  0.805600  1.0
  H  H867  1  0.841500  0.026500  0.194400  1.0
  H  H868  1  0.158500  0.973500  0.194400  1.0
  H  H869  1  0.841500  0.473500  0.305600  1.0
  H  H870  1  0.158500  0.526500  0.305600  1.0
  H  H871  1  0.841500  0.526500  0.694400  1.0
  H  H872  1  0.158500  0.473500  0.694400  1.0
  H  H873  1  0.341500  0.973500  0.305600  1.0
  H  H874  1  0.658500  0.026500  0.305600  1.0
  H  H875  1  0.341500  0.026500  0.694400  1.0
  H  H876  1  0.658500  0.973500  0.694400  1.0
  H  H877  1  0.341500  0.473500  0.805600  1.0
  H  H878  1  0.658500  0.526500  0.805600  1.0
  H  H879  1  0.341500  0.526500  0.194400  1.0
  H  H880  1  0.658500  0.473500  0.194400  1.0
  H  H881  1  0.142100  0.054000  0.213700  1.0
  H  H882  1  0.857900  0.946000  0.213700  1.0
  H  H883  1  0.142100  0.946000  0.786300  1.0
  H  H884  1  0.857900  0.054000  0.786300  1.0
  H  H885  1  0.142100  0.554000  0.713700  1.0
  H  H886  1  0.857900  0.446000  0.713700  1.0
  H  H887  1  0.142100  0.446000  0.286300  1.0
  H  H888  1  0.857900  0.554000  0.286300  1.0
  H  H889  1  0.642100  0.054000  0.713700  1.0
  H  H890  1  0.357900  0.946000  0.713700  1.0
  H  H891  1  0.642100  0.946000  0.286300  1.0
  H  H892  1  0.357900  0.054000  0.286300  1.0
  H  H893  1  0.642100  0.554000  0.213700  1.0
  H  H894  1  0.357900  0.446000  0.213700  1.0
  H  H895  1  0.642100  0.446000  0.786300  1.0
  H  H896  1  0.357900  0.554000  0.786300  1.0
  H  H897  1  0.857900  0.946000  0.786300  1.0
  H  H898  1  0.142100  0.054000  0.786300  1.0
  H  H899  1  0.857900  0.054000  0.213700  1.0
  H  H900  1  0.142100  0.946000  0.213700  1.0
  H  H901  1  0.857900  0.446000  0.286300  1.0
  H  H902  1  0.142100  0.554000  0.286300  1.0
  H  H903  1  0.857900  0.554000  0.713700  1.0
  H  H904  1  0.142100  0.446000  0.713700  1.0
  H  H905  1  0.357900  0.946000  0.286300  1.0
  H  H906  1  0.642100  0.054000  0.286300  1.0
  H  H907  1  0.357900  0.054000  0.713700  1.0
  H  H908  1  0.642100  0.946000  0.713700  1.0
  H  H909  1  0.357900  0.446000  0.786300  1.0
  H  H910  1  0.642100  0.554000  0.786300  1.0
  H  H911  1  0.357900  0.554000  0.213700  1.0
  H  H912  1  0.642100  0.446000  0.213700  1.0
  H  H913  1  0.188300  0.050000  0.258900  1.0
  H  H914  1  0.811700  0.950000  0.258900  1.0
  H  H915  1  0.188300  0.950000  0.741100  1.0
  H  H916  1  0.811700  0.050000  0.741100  1.0
  H  H917  1  0.188300  0.550000  0.758900  1.0
  H  H918  1  0.811700  0.450000  0.758900  1.0
  H  H919  1  0.188300  0.450000  0.241100  1.0
  H  H920  1  0.811700  0.550000  0.241100  1.0
  H  H921  1  0.688300  0.050000  0.758900  1.0
  H  H922  1  0.311700  0.950000  0.758900  1.0
  H  H923  1  0.688300  0.950000  0.241100  1.0
  H  H924  1  0.311700  0.050000  0.241100  1.0
  H  H925  1  0.688300  0.550000  0.258900  1.0
  H  H926  1  0.311700  0.450000  0.258900  1.0
  H  H927  1  0.688300  0.450000  0.741100  1.0
  H  H928  1  0.311700  0.550000  0.741100  1.0
  H  H929  1  0.811700  0.950000  0.741100  1.0
  H  H930  1  0.188300  0.050000  0.741100  1.0
  H  H931  1  0.811700  0.050000  0.258900  1.0
  H  H932  1  0.188300  0.950000  0.258900  1.0
  H  H933  1  0.811700  0.450000  0.241100  1.0
  H  H934  1  0.188300  0.550000  0.241100  1.0
  H  H935  1  0.811700  0.550000  0.758900  1.0
  H  H936  1  0.188300  0.450000  0.758900  1.0
  H  H937  1  0.311700  0.950000  0.241100  1.0
  H  H938  1  0.688300  0.050000  0.241100  1.0
  H  H939  1  0.311700  0.050000  0.758900  1.0
  H  H940  1  0.688300  0.950000  0.758900  1.0
  H  H941  1  0.311700  0.450000  0.741100  1.0
  H  H942  1  0.688300  0.550000  0.741100  1.0
  H  H943  1  0.311700  0.550000  0.258900  1.0
  H  H944  1  0.688300  0.450000  0.258900  1.0
  H  H945  1  0.204800  0.022400  0.239600  1.0
  H  H946  1  0.795200  0.977600  0.239600  1.0
  H  H947  1  0.204800  0.977600  0.760400  1.0
  H  H948  1  0.795200  0.022400  0.760400  1.0
  H  H949  1  0.204800  0.522400  0.739600  1.0
  H  H950  1  0.795200  0.477600  0.739600  1.0
  H  H951  1  0.204800  0.477600  0.260400  1.0
  H  H952  1  0.795200  0.522400  0.260400  1.0
  H  H953  1  0.704800  0.022400  0.739600  1.0
  H  H954  1  0.295200  0.977600  0.739600  1.0
  H  H955  1  0.704800  0.977600  0.260400  1.0
  H  H956  1  0.295200  0.022400  0.260400  1.0
  H  H957  1  0.704800  0.522400  0.239600  1.0
  H  H958  1  0.295200  0.477600  0.239600  1.0
  H  H959  1  0.704800  0.477600  0.760400  1.0
  H  H960  1  0.295200  0.522400  0.760400  1.0
  H  H961  1  0.795200  0.977600  0.760400  1.0
  H  H962  1  0.204800  0.022400  0.760400  1.0
  H  H963  1  0.795200  0.022400  0.239600  1.0
  H  H964  1  0.204800  0.977600  0.239600  1.0
  H  H965  1  0.795200  0.477600  0.260400  1.0
  H  H966  1  0.204800  0.522400  0.260400  1.0
  H  H967  1  0.795200  0.522400  0.739600  1.0
  H  H968  1  0.204800  0.477600  0.739600  1.0
  H  H969  1  0.295200  0.977600  0.260400  1.0
  H  H970  1  0.704800  0.022400  0.260400  1.0
  H  H971  1  0.295200  0.022400  0.739600  1.0
  H  H972  1  0.704800  0.977600  0.739600  1.0
  H  H973  1  0.295200  0.477600  0.760400  1.0
  H  H974  1  0.704800  0.522400  0.760400  1.0
  H  H975  1  0.295200  0.522400  0.239600  1.0
  H  H976  1  0.704800  0.477600  0.239600  1.0
  H  H977  1  0.025400  0.159500  0.195700  1.0
  H  H978  1  0.974600  0.840500  0.195700  1.0
  H  H979  1  0.025400  0.840500  0.804300  1.0
  H  H980  1  0.974600  0.159500  0.804300  1.0
  H  H981  1  0.025400  0.659500  0.695700  1.0
  H  H982  1  0.974600  0.340500  0.695700  1.0
  H  H983  1  0.025400  0.340500  0.304300  1.0
  H  H984  1  0.974600  0.659500  0.304300  1.0
  H  H985  1  0.525400  0.159500  0.695700  1.0
  H  H986  1  0.474600  0.840500  0.695700  1.0
  H  H987  1  0.525400  0.840500  0.304300  1.0
  H  H988  1  0.474600  0.159500  0.304300  1.0
  H  H989  1  0.525400  0.659500  0.195700  1.0
  H  H990  1  0.474600  0.340500  0.195700  1.0
  H  H991  1  0.525400  0.340500  0.804300  1.0
  H  H992  1  0.474600  0.659500  0.804300  1.0
  H  H993  1  0.974600  0.840500  0.804300  1.0
  H  H994  1  0.025400  0.159500  0.804300  1.0
  H  H995  1  0.974600  0.159500  0.195700  1.0
  H  H996  1  0.025400  0.840500  0.195700  1.0
  H  H997  1  0.974600  0.340500  0.304300  1.0
  H  H998  1  0.025400  0.659500  0.304300  1.0
  H  H999  1  0.974600  0.659500  0.695700  1.0
  H  H1000  1  0.025400  0.340500  0.695700  1.0
  H  H1001  1  0.474600  0.840500  0.304300  1.0
  H  H1002  1  0.525400  0.159500  0.304300  1.0
  H  H1003  1  0.474600  0.159500  0.695700  1.0
  H  H1004  1  0.525400  0.840500  0.695700  1.0
  H  H1005  1  0.474600  0.340500  0.804300  1.0
  H  H1006  1  0.525400  0.659500  0.804300  1.0
  H  H1007  1  0.474600  0.659500  0.195700  1.0
  H  H1008  1  0.525400  0.340500  0.195700  1.0
  H  H1009  1  0.053400  0.142600  0.213900  1.0
  H  H1010  1  0.946600  0.857400  0.213900  1.0
  H  H1011  1  0.053400  0.857400  0.786100  1.0
  H  H1012  1  0.946600  0.142600  0.786100  1.0
  H  H1013  1  0.053400  0.642600  0.713900  1.0
  H  H1014  1  0.946600  0.357400  0.713900  1.0
  H  H1015  1  0.053400  0.357400  0.286100  1.0
  H  H1016  1  0.946600  0.642600  0.286100  1.0
  H  H1017  1  0.553400  0.142600  0.713900  1.0
  H  H1018  1  0.446600  0.857400  0.713900  1.0
  H  H1019  1  0.553400  0.857400  0.286100  1.0
  H  H1020  1  0.446600  0.142600  0.286100  1.0
  H  H1021  1  0.553400  0.642600  0.213900  1.0
  H  H1022  1  0.446600  0.357400  0.213900  1.0
  H  H1023  1  0.553400  0.357400  0.786100  1.0
  H  H1024  1  0.446600  0.642600  0.786100  1.0
  H  H1025  1  0.946600  0.857400  0.786100  1.0
  H  H1026  1  0.053400  0.142600  0.786100  1.0
  H  H1027  1  0.946600  0.142600  0.213900  1.0
  H  H1028  1  0.053400  0.857400  0.213900  1.0
  H  H1029  1  0.946600  0.357400  0.286100  1.0
  H  H1030  1  0.053400  0.642600  0.286100  1.0
  H  H1031  1  0.946600  0.642600  0.713900  1.0
  H  H1032  1  0.053400  0.357400  0.713900  1.0
  H  H1033  1  0.446600  0.857400  0.286100  1.0
  H  H1034  1  0.553400  0.142600  0.286100  1.0
  H  H1035  1  0.446600  0.142600  0.713900  1.0
  H  H1036  1  0.553400  0.857400  0.713900  1.0
  H  H1037  1  0.446600  0.357400  0.786100  1.0
  H  H1038  1  0.553400  0.642600  0.786100  1.0
  H  H1039  1  0.446600  0.642600  0.213900  1.0
  H  H1040  1  0.553400  0.357400  0.213900  1.0
  H  H1041  1  0.052400  0.189200  0.258900  1.0
  H  H1042  1  0.947600  0.810800  0.258900  1.0
  H  H1043  1  0.052400  0.810800  0.741100  1.0
  H  H1044  1  0.947600  0.189200  0.741100  1.0
  H  H1045  1  0.052400  0.689200  0.758900  1.0
  H  H1046  1  0.947600  0.310800  0.758900  1.0
  H  H1047  1  0.052400  0.310800  0.241100  1.0
  H  H1048  1  0.947600  0.689200  0.241100  1.0
  H  H1049  1  0.552400  0.189200  0.758900  1.0
  H  H1050  1  0.447600  0.810800  0.758900  1.0
  H  H1051  1  0.552400  0.810800  0.241100  1.0
  H  H1052  1  0.447600  0.189200  0.241100  1.0
  H  H1053  1  0.552400  0.689200  0.258900  1.0
  H  H1054  1  0.447600  0.310800  0.258900  1.0
  H  H1055  1  0.552400  0.310800  0.741100  1.0
  H  H1056  1  0.447600  0.689200  0.741100  1.0
  H  H1057  1  0.947600  0.810800  0.741100  1.0
  H  H1058  1  0.052400  0.189200  0.741100  1.0
  H  H1059  1  0.947600  0.189200  0.258900  1.0
  H  H1060  1  0.052400  0.810800  0.258900  1.0
  H  H1061  1  0.947600  0.310800  0.241100  1.0
  H  H1062  1  0.052400  0.689200  0.241100  1.0
  H  H1063  1  0.947600  0.689200  0.758900  1.0
  H  H1064  1  0.052400  0.310800  0.758900  1.0
  H  H1065  1  0.447600  0.810800  0.241100  1.0
  H  H1066  1  0.552400  0.189200  0.241100  1.0
  H  H1067  1  0.447600  0.189200  0.758900  1.0
  H  H1068  1  0.552400  0.810800  0.758900  1.0
  H  H1069  1  0.447600  0.310800  0.741100  1.0
  H  H1070  1  0.552400  0.689200  0.741100  1.0
  H  H1071  1  0.447600  0.689200  0.258900  1.0
  H  H1072  1  0.552400  0.310800  0.258900  1.0
  H  H1073  1  0.024400  0.206100  0.240700  1.0
  H  H1074  1  0.975600  0.793900  0.240700  1.0
  H  H1075  1  0.024400  0.793900  0.759300  1.0
  H  H1076  1  0.975600  0.206100  0.759300  1.0
  H  H1077  1  0.024400  0.706100  0.740700  1.0
  H  H1078  1  0.975600  0.293900  0.740700  1.0
  H  H1079  1  0.024400  0.293900  0.259300  1.0
  H  H1080  1  0.975600  0.706100  0.259300  1.0
  H  H1081  1  0.524400  0.206100  0.740700  1.0
  H  H1082  1  0.475600  0.793900  0.740700  1.0
  H  H1083  1  0.524400  0.793900  0.259300  1.0
  H  H1084  1  0.475600  0.206100  0.259300  1.0
  H  H1085  1  0.524400  0.706100  0.240700  1.0
  H  H1086  1  0.475600  0.293900  0.240700  1.0
  H  H1087  1  0.524400  0.293900  0.759300  1.0
  H  H1088  1  0.475600  0.706100  0.759300  1.0
  H  H1089  1  0.975600  0.793900  0.759300  1.0
  H  H1090  1  0.024400  0.206100  0.759300  1.0
  H  H1091  1  0.975600  0.206100  0.240700  1.0
  H  H1092  1  0.024400  0.793900  0.240700  1.0
  H  H1093  1  0.975600  0.293900  0.259300  1.0
  H  H1094  1  0.024400  0.706100  0.259300  1.0
  H  H1095  1  0.975600  0.706100  0.740700  1.0
  H  H1096  1  0.024400  0.293900  0.740700  1.0
  H  H1097  1  0.475600  0.793900  0.259300  1.0
  H  H1098  1  0.524400  0.206100  0.259300  1.0
  H  H1099  1  0.475600  0.206100  0.740700  1.0
  H  H1100  1  0.524400  0.793900  0.740700  1.0
  H  H1101  1  0.475600  0.293900  0.759300  1.0
  H  H1102  1  0.524400  0.706100  0.759300  1.0
  H  H1103  1  0.475600  0.706100  0.240700  1.0
  H  H1104  1  0.524400  0.293900  0.240700  1.0
  H  H1105  1  0.150800  0.105900  0.293900  1.0
  H  H1106  1  0.849200  0.894100  0.293900  1.0
  H  H1107  1  0.150800  0.894100  0.706100  1.0
  H  H1108  1  0.849200  0.105900  0.706100  1.0
  H  H1109  1  0.150800  0.605900  0.793900  1.0
  H  H1110  1  0.849200  0.394100  0.793900  1.0
  H  H1111  1  0.150800  0.394100  0.206100  1.0
  H  H1112  1  0.849200  0.605900  0.206100  1.0
  H  H1113  1  0.650800  0.105900  0.793900  1.0
  H  H1114  1  0.349200  0.894100  0.793900  1.0
  H  H1115  1  0.650800  0.894100  0.206100  1.0
  H  H1116  1  0.349200  0.105900  0.206100  1.0
  H  H1117  1  0.650800  0.605900  0.293900  1.0
  H  H1118  1  0.349200  0.394100  0.293900  1.0
  H  H1119  1  0.650800  0.394100  0.706100  1.0
  H  H1120  1  0.349200  0.605900  0.706100  1.0
  H  H1121  1  0.849200  0.894100  0.706100  1.0
  H  H1122  1  0.150800  0.105900  0.706100  1.0
  H  H1123  1  0.849200  0.105900  0.293900  1.0
  H  H1124  1  0.150800  0.894100  0.293900  1.0
  H  H1125  1  0.849200  0.394100  0.206100  1.0
  H  H1126  1  0.150800  0.605900  0.206100  1.0
  H  H1127  1  0.849200  0.605900  0.793900  1.0
  H  H1128  1  0.150800  0.394100  0.793900  1.0
  H  H1129  1  0.349200  0.894100  0.206100  1.0
  H  H1130  1  0.650800  0.105900  0.206100  1.0
  H  H1131  1  0.349200  0.105900  0.793900  1.0
  H  H1132  1  0.650800  0.894100  0.793900  1.0
  H  H1133  1  0.349200  0.394100  0.706100  1.0
  H  H1134  1  0.650800  0.605900  0.706100  1.0
  H  H1135  1  0.349200  0.605900  0.293900  1.0
  H  H1136  1  0.650800  0.394100  0.293900  1.0
  H  H1137  1  0.109000  0.106800  0.244400  1.0
  H  H1138  1  0.891000  0.893200  0.244400  1.0
  H  H1139  1  0.109000  0.893200  0.755600  1.0
  H  H1140  1  0.891000  0.106800  0.755600  1.0
  H  H1141  1  0.109000  0.606800  0.744400  1.0
  H  H1142  1  0.891000  0.393200  0.744400  1.0
  H  H1143  1  0.109000  0.393200  0.255600  1.0
  H  H1144  1  0.891000  0.606800  0.255600  1.0
  H  H1145  1  0.609000  0.106800  0.744400  1.0
  H  H1146  1  0.391000  0.893200  0.744400  1.0
  H  H1147  1  0.609000  0.893200  0.255600  1.0
  H  H1148  1  0.391000  0.106800  0.255600  1.0
  H  H1149  1  0.609000  0.606800  0.244400  1.0
  H  H1150  1  0.391000  0.393200  0.244400  1.0
  H  H1151  1  0.609000  0.393200  0.755600  1.0
  H  H1152  1  0.391000  0.606800  0.755600  1.0
  H  H1153  1  0.891000  0.893200  0.755600  1.0
  H  H1154  1  0.109000  0.106800  0.755600  1.0
  H  H1155  1  0.891000  0.106800  0.244400  1.0
  H  H1156  1  0.109000  0.893200  0.244400  1.0
  H  H1157  1  0.891000  0.393200  0.255600  1.0
  H  H1158  1  0.109000  0.606800  0.255600  1.0
  H  H1159  1  0.891000  0.606800  0.744400  1.0
  H  H1160  1  0.109000  0.393200  0.744400  1.0
  H  H1161  1  0.391000  0.893200  0.255600  1.0
  H  H1162  1  0.609000  0.106800  0.255600  1.0
  H  H1163  1  0.391000  0.106800  0.744400  1.0
  H  H1164  1  0.609000  0.893200  0.744400  1.0
  H  H1165  1  0.391000  0.393200  0.755600  1.0
  H  H1166  1  0.609000  0.606800  0.755600  1.0
  H  H1167  1  0.391000  0.606800  0.244400  1.0
  H  H1168  1  0.609000  0.393200  0.244400  1.0
  H  H1169  1  0.104400  0.151100  0.291400  1.0
  H  H1170  1  0.895600  0.848900  0.291400  1.0
  H  H1171  1  0.104400  0.848900  0.708600  1.0
  H  H1172  1  0.895600  0.151100  0.708600  1.0
  H  H1173  1  0.104400  0.651100  0.791400  1.0
  H  H1174  1  0.895600  0.348900  0.791400  1.0
  H  H1175  1  0.104400  0.348900  0.208600  1.0
  H  H1176  1  0.895600  0.651100  0.208600  1.0
  H  H1177  1  0.604400  0.151100  0.791400  1.0
  H  H1178  1  0.395600  0.848900  0.791400  1.0
  H  H1179  1  0.604400  0.848900  0.208600  1.0
  H  H1180  1  0.395600  0.151100  0.208600  1.0
  H  H1181  1  0.604400  0.651100  0.291400  1.0
  H  H1182  1  0.395600  0.348900  0.291400  1.0
  H  H1183  1  0.604400  0.348900  0.708600  1.0
  H  H1184  1  0.395600  0.651100  0.708600  1.0
  H  H1185  1  0.895600  0.848900  0.708600  1.0
  H  H1186  1  0.104400  0.151100  0.708600  1.0
  H  H1187  1  0.895600  0.151100  0.291400  1.0
  H  H1188  1  0.104400  0.848900  0.291400  1.0
  H  H1189  1  0.895600  0.348900  0.208600  1.0
  H  H1190  1  0.104400  0.651100  0.208600  1.0
  H  H1191  1  0.895600  0.651100  0.791400  1.0
  H  H1192  1  0.104400  0.348900  0.791400  1.0
  H  H1193  1  0.395600  0.848900  0.208600  1.0
  H  H1194  1  0.604400  0.151100  0.208600  1.0
  H  H1195  1  0.395600  0.151100  0.791400  1.0
  H  H1196  1  0.604400  0.848900  0.791400  1.0
  H  H1197  1  0.395600  0.348900  0.708600  1.0
  H  H1198  1  0.604400  0.651100  0.708600  1.0
  H  H1199  1  0.395600  0.651100  0.291400  1.0
  H  H1200  1  0.604400  0.348900  0.291400  1.0
  Pd  Pd1201  1  0.201300  0.201410  0.000000  1.0
  Pd  Pd1202  1  0.798700  0.798590  0.000000  1.0
  Pd  Pd1203  1  0.201300  0.798590  0.000000  1.0
  Pd  Pd1204  1  0.798700  0.201410  0.000000  1.0
  Pd  Pd1205  1  0.201300  0.701410  0.500000  1.0
  Pd  Pd1206  1  0.798700  0.298590  0.500000  1.0
  Pd  Pd1207  1  0.201300  0.298590  0.500000  1.0
  Pd  Pd1208  1  0.798700  0.701410  0.500000  1.0
  Pd  Pd1209  1  0.701300  0.201410  0.500000  1.0
  Pd  Pd1210  1  0.298700  0.798590  0.500000  1.0
  Pd  Pd1211  1  0.701300  0.798590  0.500000  1.0
  Pd  Pd1212  1  0.298700  0.201410  0.500000  1.0
  Pd  Pd1213  1  0.701300  0.701410  0.000000  1.0
  Pd  Pd1214  1  0.298700  0.298590  0.000000  1.0
  Pd  Pd1215  1  0.701300  0.298590  0.000000  1.0
  Pd  Pd1216  1  0.298700  0.701410  0.000000  1.0
  Pd  Pd1217  1  0.201160  0.000000  0.201330  1.0
  Pd  Pd1218  1  0.798840  0.000000  0.201330  1.0
  Pd  Pd1219  1  0.201160  0.000000  0.798670  1.0
  Pd  Pd1220  1  0.798840  0.000000  0.798670  1.0
  Pd  Pd1221  1  0.201160  0.500000  0.701330  1.0
  Pd  Pd1222  1  0.798840  0.500000  0.701330  1.0
  Pd  Pd1223  1  0.201160  0.500000  0.298670  1.0
  Pd  Pd1224  1  0.798840  0.500000  0.298670  1.0
  Pd  Pd1225  1  0.701160  0.000000  0.701330  1.0
  Pd  Pd1226  1  0.298840  0.000000  0.701330  1.0
  Pd  Pd1227  1  0.701160  0.000000  0.298670  1.0
  Pd  Pd1228  1  0.298840  0.000000  0.298670  1.0
  Pd  Pd1229  1  0.701160  0.500000  0.201330  1.0
  Pd  Pd1230  1  0.298840  0.500000  0.201330  1.0
  Pd  Pd1231  1  0.701160  0.500000  0.798670  1.0
  Pd  Pd1232  1  0.298840  0.500000  0.798670  1.0
  Pd  Pd1233  1  0.000000  0.201360  0.201300  1.0
  Pd  Pd1234  1  0.000000  0.798640  0.201300  1.0
  Pd  Pd1235  1  0.000000  0.798640  0.798700  1.0
  Pd  Pd1236  1  0.000000  0.201360  0.798700  1.0
  Pd  Pd1237  1  0.000000  0.701360  0.701300  1.0
  Pd  Pd1238  1  0.000000  0.298640  0.701300  1.0
  Pd  Pd1239  1  0.000000  0.298640  0.298700  1.0
  Pd  Pd1240  1  0.000000  0.701360  0.298700  1.0
  Pd  Pd1241  1  0.500000  0.201360  0.701300  1.0
  Pd  Pd1242  1  0.500000  0.798640  0.701300  1.0
  Pd  Pd1243  1  0.500000  0.798640  0.298700  1.0
  Pd  Pd1244  1  0.500000  0.201360  0.298700  1.0
  Pd  Pd1245  1  0.500000  0.701360  0.201300  1.0
  Pd  Pd1246  1  0.500000  0.298640  0.201300  1.0
  Pd  Pd1247  1  0.500000  0.298640  0.798700  1.0
  Pd  Pd1248  1  0.500000  0.701360  0.798700  1.0
  C  C1249  1  0.031500  0.208000  0.165800  1.0
  C  C1250  1  0.968500  0.792000  0.165800  1.0
  C  C1251  1  0.031500  0.792000  0.834200  1.0
  C  C1252  1  0.968500  0.208000  0.834200  1.0
  C  C1253  1  0.031500  0.708000  0.665800  1.0
  C  C1254  1  0.968500  0.292000  0.665800  1.0
  C  C1255  1  0.031500  0.292000  0.334200  1.0
  C  C1256  1  0.968500  0.708000  0.334200  1.0
  C  C1257  1  0.531500  0.208000  0.665800  1.0
  C  C1258  1  0.468500  0.792000  0.665800  1.0
  C  C1259  1  0.531500  0.792000  0.334200  1.0
  C  C1260  1  0.468500  0.208000  0.334200  1.0
  C  C1261  1  0.531500  0.708000  0.165800  1.0
  C  C1262  1  0.468500  0.292000  0.165800  1.0
  C  C1263  1  0.531500  0.292000  0.834200  1.0
  C  C1264  1  0.468500  0.708000  0.834200  1.0
  C  C1265  1  0.968500  0.792000  0.834200  1.0
  C  C1266  1  0.031500  0.208000  0.834200  1.0
  C  C1267  1  0.968500  0.208000  0.165800  1.0
  C  C1268  1  0.031500  0.792000  0.165800  1.0
  C  C1269  1  0.968500  0.292000  0.334200  1.0
  C  C1270  1  0.031500  0.708000  0.334200  1.0
  C  C1271  1  0.968500  0.708000  0.665800  1.0
  C  C1272  1  0.031500  0.292000  0.665800  1.0
  C  C1273  1  0.468500  0.792000  0.334200  1.0
  C  C1274  1  0.531500  0.208000  0.334200  1.0
  C  C1275  1  0.468500  0.208000  0.665800  1.0
  C  C1276  1  0.531500  0.792000  0.665800  1.0
  C  C1277  1  0.468500  0.292000  0.834200  1.0
  C  C1278  1  0.531500  0.708000  0.834200  1.0
  C  C1279  1  0.468500  0.708000  0.165800  1.0
  C  C1280  1  0.531500  0.292000  0.165800  1.0
  C  C1281  1  0.047500  0.219200  0.154800  1.0
  C  C1282  1  0.952500  0.780800  0.154800  1.0
  C  C1283  1  0.047500  0.780800  0.845200  1.0
  C  C1284  1  0.952500  0.219200  0.845200  1.0
  C  C1285  1  0.047500  0.719200  0.654800  1.0
  C  C1286  1  0.952500  0.280800  0.654800  1.0
  C  C1287  1  0.047500  0.280800  0.345200  1.0
  C  C1288  1  0.952500  0.719200  0.345200  1.0
  C  C1289  1  0.547500  0.219200  0.654800  1.0
  C  C1290  1  0.452500  0.780800  0.654800  1.0
  C  C1291  1  0.547500  0.780800  0.345200  1.0
  C  C1292  1  0.452500  0.219200  0.345200  1.0
  C  C1293  1  0.547500  0.719200  0.154800  1.0
  C  C1294  1  0.452500  0.280800  0.154800  1.0
  C  C1295  1  0.547500  0.280800  0.845200  1.0
  C  C1296  1  0.452500  0.719200  0.845200  1.0
  C  C1297  1  0.952500  0.780800  0.845200  1.0
  C  C1298  1  0.047500  0.219200  0.845200  1.0
  C  C1299  1  0.952500  0.219200  0.154800  1.0
  C  C1300  1  0.047500  0.780800  0.154800  1.0
  C  C1301  1  0.952500  0.280800  0.345200  1.0
  C  C1302  1  0.047500  0.719200  0.345200  1.0
  C  C1303  1  0.952500  0.719200  0.654800  1.0
  C  C1304  1  0.047500  0.280800  0.654800  1.0
  C  C1305  1  0.452500  0.780800  0.345200  1.0
  C  C1306  1  0.547500  0.219200  0.345200  1.0
  C  C1307  1  0.452500  0.219200  0.654800  1.0
  C  C1308  1  0.547500  0.780800  0.654800  1.0
  C  C1309  1  0.452500  0.280800  0.845200  1.0
  C  C1310  1  0.547500  0.719200  0.845200  1.0
  C  C1311  1  0.452500  0.719200  0.154800  1.0
  C  C1312  1  0.547500  0.280800  0.154800  1.0
  C  C1313  1  0.055100  0.238800  0.162800  1.0
  C  C1314  1  0.944900  0.761200  0.162800  1.0
  C  C1315  1  0.055100  0.761200  0.837200  1.0
  C  C1316  1  0.944900  0.238800  0.837200  1.0
  C  C1317  1  0.055100  0.738800  0.662800  1.0
  C  C1318  1  0.944900  0.261200  0.662800  1.0
  C  C1319  1  0.055100  0.261200  0.337200  1.0
  C  C1320  1  0.944900  0.738800  0.337200  1.0
  C  C1321  1  0.555100  0.238800  0.662800  1.0
  C  C1322  1  0.444900  0.761200  0.662800  1.0
  C  C1323  1  0.555100  0.761200  0.337200  1.0
  C  C1324  1  0.444900  0.238800  0.337200  1.0
  C  C1325  1  0.555100  0.738800  0.162800  1.0
  C  C1326  1  0.444900  0.261200  0.162800  1.0
  C  C1327  1  0.555100  0.261200  0.837200  1.0
  C  C1328  1  0.444900  0.738800  0.837200  1.0
  C  C1329  1  0.944900  0.761200  0.837200  1.0
  C  C1330  1  0.055100  0.238800  0.837200  1.0
  C  C1331  1  0.944900  0.238800  0.162800  1.0
  C  C1332  1  0.055100  0.761200  0.162800  1.0
  C  C1333  1  0.944900  0.261200  0.337200  1.0
  C  C1334  1  0.055100  0.738800  0.337200  1.0
  C  C1335  1  0.944900  0.738800  0.662800  1.0
  C  C1336  1  0.055100  0.261200  0.662800  1.0
  C  C1337  1  0.444900  0.761200  0.337200  1.0
  C  C1338  1  0.555100  0.238800  0.337200  1.0
  C  C1339  1  0.444900  0.238800  0.662800  1.0
  C  C1340  1  0.555100  0.761200  0.662800  1.0
  C  C1341  1  0.444900  0.261200  0.837200  1.0
  C  C1342  1  0.555100  0.738800  0.837200  1.0
  C  C1343  1  0.444900  0.738800  0.162800  1.0
  C  C1344  1  0.555100  0.261200  0.162800  1.0
  C  C1345  1  0.046600  0.247100  0.181900  1.0
  C  C1346  1  0.953400  0.752900  0.181900  1.0
  C  C1347  1  0.046600  0.752900  0.818100  1.0
  C  C1348  1  0.953400  0.247100  0.818100  1.0
  C  C1349  1  0.046600  0.747100  0.681900  1.0
  C  C1350  1  0.953400  0.252900  0.681900  1.0
  C  C1351  1  0.046600  0.252900  0.318100  1.0
  C  C1352  1  0.953400  0.747100  0.318100  1.0
  C  C1353  1  0.546600  0.247100  0.681900  1.0
  C  C1354  1  0.453400  0.752900  0.681900  1.0
  C  C1355  1  0.546600  0.752900  0.318100  1.0
  C  C1356  1  0.453400  0.247100  0.318100  1.0
  C  C1357  1  0.546600  0.747100  0.181900  1.0
  C  C1358  1  0.453400  0.252900  0.181900  1.0
  C  C1359  1  0.546600  0.252900  0.818100  1.0
  C  C1360  1  0.453400  0.747100  0.818100  1.0
  C  C1361  1  0.953400  0.752900  0.818100  1.0
  C  C1362  1  0.046600  0.247100  0.818100  1.0
  C  C1363  1  0.953400  0.247100  0.181900  1.0
  C  C1364  1  0.046600  0.752900  0.181900  1.0
  C  C1365  1  0.953400  0.252900  0.318100  1.0
  C  C1366  1  0.046600  0.747100  0.318100  1.0
  C  C1367  1  0.953400  0.747100  0.681900  1.0
  C  C1368  1  0.046600  0.252900  0.681900  1.0
  C  C1369  1  0.453400  0.752900  0.318100  1.0
  C  C1370  1  0.546600  0.247100  0.318100  1.0
  C  C1371  1  0.453400  0.247100  0.681900  1.0
  C  C1372  1  0.546600  0.752900  0.681900  1.0
  C  C1373  1  0.453400  0.252900  0.818100  1.0
  C  C1374  1  0.546600  0.747100  0.818100  1.0
  C  C1375  1  0.453400  0.747100  0.181900  1.0
  C  C1376  1  0.546600  0.252900  0.181900  1.0
  C  C1377  1  0.030600  0.235900  0.192800  1.0
  C  C1378  1  0.969400  0.764100  0.192800  1.0
  C  C1379  1  0.030600  0.764100  0.807200  1.0
  C  C1380  1  0.969400  0.235900  0.807200  1.0
  C  C1381  1  0.030600  0.735900  0.692800  1.0
  C  C1382  1  0.969400  0.264100  0.692800  1.0
  C  C1383  1  0.030600  0.264100  0.307200  1.0
  C  C1384  1  0.969400  0.735900  0.307200  1.0
  C  C1385  1  0.530600  0.235900  0.692800  1.0
  C  C1386  1  0.469400  0.764100  0.692800  1.0
  C  C1387  1  0.530600  0.764100  0.307200  1.0
  C  C1388  1  0.469400  0.235900  0.307200  1.0
  C  C1389  1  0.530600  0.735900  0.192800  1.0
  C  C1390  1  0.469400  0.264100  0.192800  1.0
  C  C1391  1  0.530600  0.264100  0.807200  1.0
  C  C1392  1  0.469400  0.735900  0.807200  1.0
  C  C1393  1  0.969400  0.764100  0.807200  1.0
  C  C1394  1  0.030600  0.235900  0.807200  1.0
  C  C1395  1  0.969400  0.235900  0.192800  1.0
  C  C1396  1  0.030600  0.764100  0.192800  1.0
  C  C1397  1  0.969400  0.264100  0.307200  1.0
  C  C1398  1  0.030600  0.735900  0.307200  1.0
  C  C1399  1  0.969400  0.735900  0.692800  1.0
  C  C1400  1  0.030600  0.264100  0.692800  1.0
  C  C1401  1  0.469400  0.764100  0.307200  1.0
  C  C1402  1  0.530600  0.235900  0.307200  1.0
  C  C1403  1  0.469400  0.235900  0.692800  1.0
  C  C1404  1  0.530600  0.764100  0.692800  1.0
  C  C1405  1  0.469400  0.264100  0.807200  1.0
  C  C1406  1  0.530600  0.735900  0.807200  1.0
  C  C1407  1  0.469400  0.735900  0.192800  1.0
  C  C1408  1  0.530600  0.264100  0.192800  1.0
  C  C1409  1  0.165800  0.209000  0.031700  1.0
  C  C1410  1  0.834200  0.791000  0.031700  1.0
  C  C1411  1  0.165800  0.791000  0.968300  1.0
  C  C1412  1  0.834200  0.209000  0.968300  1.0
  C  C1413  1  0.165800  0.709000  0.531700  1.0
  C  C1414  1  0.834200  0.291000  0.531700  1.0
  C  C1415  1  0.165800  0.291000  0.468300  1.0
  C  C1416  1  0.834200  0.709000  0.468300  1.0
  C  C1417  1  0.665800  0.209000  0.531700  1.0
  C  C1418  1  0.334200  0.791000  0.531700  1.0
  C  C1419  1  0.665800  0.791000  0.468300  1.0
  C  C1420  1  0.334200  0.209000  0.468300  1.0
  C  C1421  1  0.665800  0.709000  0.031700  1.0
  C  C1422  1  0.334200  0.291000  0.031700  1.0
  C  C1423  1  0.665800  0.291000  0.968300  1.0
  C  C1424  1  0.334200  0.709000  0.968300  1.0
  C  C1425  1  0.834200  0.791000  0.968300  1.0
  C  C1426  1  0.165800  0.209000  0.968300  1.0
  C  C1427  1  0.834200  0.209000  0.031700  1.0
  C  C1428  1  0.165800  0.791000  0.031700  1.0
  C  C1429  1  0.834200  0.291000  0.468300  1.0
  C  C1430  1  0.165800  0.709000  0.468300  1.0
  C  C1431  1  0.834200  0.709000  0.531700  1.0
  C  C1432  1  0.165800  0.291000  0.531700  1.0
  C  C1433  1  0.334200  0.791000  0.468300  1.0
  C  C1434  1  0.665800  0.209000  0.468300  1.0
  C  C1435  1  0.334200  0.209000  0.531700  1.0
  C  C1436  1  0.665800  0.791000  0.531700  1.0
  C  C1437  1  0.334200  0.291000  0.968300  1.0
  C  C1438  1  0.665800  0.709000  0.968300  1.0
  C  C1439  1  0.334200  0.709000  0.031700  1.0
  C  C1440  1  0.665800  0.291000  0.031700  1.0
  C  C1441  1  0.155500  0.219700  0.048600  1.0
  C  C1442  1  0.844500  0.780300  0.048600  1.0
  C  C1443  1  0.155500  0.780300  0.951400  1.0
  C  C1444  1  0.844500  0.219700  0.951400  1.0
  C  C1445  1  0.155500  0.719700  0.548600  1.0
  C  C1446  1  0.844500  0.280300  0.548600  1.0
  C  C1447  1  0.155500  0.280300  0.451400  1.0
  C  C1448  1  0.844500  0.719700  0.451400  1.0
  C  C1449  1  0.655500  0.219700  0.548600  1.0
  C  C1450  1  0.344500  0.780300  0.548600  1.0
  C  C1451  1  0.655500  0.780300  0.451400  1.0
  C  C1452  1  0.344500  0.219700  0.451400  1.0
  C  C1453  1  0.655500  0.719700  0.048600  1.0
  C  C1454  1  0.344500  0.280300  0.048600  1.0
  C  C1455  1  0.655500  0.280300  0.951400  1.0
  C  C1456  1  0.344500  0.719700  0.951400  1.0
  C  C1457  1  0.844500  0.780300  0.951400  1.0
  C  C1458  1  0.155500  0.219700  0.951400  1.0
  C  C1459  1  0.844500  0.219700  0.048600  1.0
  C  C1460  1  0.155500  0.780300  0.048600  1.0
  C  C1461  1  0.844500  0.280300  0.451400  1.0
  C  C1462  1  0.155500  0.719700  0.451400  1.0
  C  C1463  1  0.844500  0.719700  0.548600  1.0
  C  C1464  1  0.155500  0.280300  0.548600  1.0
  C  C1465  1  0.344500  0.780300  0.451400  1.0
  C  C1466  1  0.655500  0.219700  0.451400  1.0
  C  C1467  1  0.344500  0.219700  0.548600  1.0
  C  C1468  1  0.655500  0.780300  0.548600  1.0
  C  C1469  1  0.344500  0.280300  0.951400  1.0
  C  C1470  1  0.655500  0.719700  0.951400  1.0
  C  C1471  1  0.344500  0.719700  0.048600  1.0
  C  C1472  1  0.655500  0.280300  0.048600  1.0
  C  C1473  1  0.163800  0.239200  0.056100  1.0
  C  C1474  1  0.836200  0.760800  0.056100  1.0
  C  C1475  1  0.163800  0.760800  0.943900  1.0
  C  C1476  1  0.836200  0.239200  0.943900  1.0
  C  C1477  1  0.163800  0.739200  0.556100  1.0
  C  C1478  1  0.836200  0.260800  0.556100  1.0
  C  C1479  1  0.163800  0.260800  0.443900  1.0
  C  C1480  1  0.836200  0.739200  0.443900  1.0
  C  C1481  1  0.663800  0.239200  0.556100  1.0
  C  C1482  1  0.336200  0.760800  0.556100  1.0
  C  C1483  1  0.663800  0.760800  0.443900  1.0
  C  C1484  1  0.336200  0.239200  0.443900  1.0
  C  C1485  1  0.663800  0.739200  0.056100  1.0
  C  C1486  1  0.336200  0.260800  0.056100  1.0
  C  C1487  1  0.663800  0.260800  0.943900  1.0
  C  C1488  1  0.336200  0.739200  0.943900  1.0
  C  C1489  1  0.836200  0.760800  0.943900  1.0
  C  C1490  1  0.163800  0.239200  0.943900  1.0
  C  C1491  1  0.836200  0.239200  0.056100  1.0
  C  C1492  1  0.163800  0.760800  0.056100  1.0
  C  C1493  1  0.836200  0.260800  0.443900  1.0
  C  C1494  1  0.163800  0.739200  0.443900  1.0
  C  C1495  1  0.836200  0.739200  0.556100  1.0
  C  C1496  1  0.163800  0.260800  0.556100  1.0
  C  C1497  1  0.336200  0.760800  0.443900  1.0
  C  C1498  1  0.663800  0.239200  0.443900  1.0
  C  C1499  1  0.336200  0.239200  0.556100  1.0
  C  C1500  1  0.663800  0.760800  0.556100  1.0
  C  C1501  1  0.336200  0.260800  0.943900  1.0
  C  C1502  1  0.663800  0.739200  0.943900  1.0
  C  C1503  1  0.336200  0.739200  0.056100  1.0
  C  C1504  1  0.663800  0.260800  0.056100  1.0
  C  C1505  1  0.182200  0.247900  0.046800  1.0
  C  C1506  1  0.817800  0.752100  0.046800  1.0
  C  C1507  1  0.182200  0.752100  0.953200  1.0
  C  C1508  1  0.817800  0.247900  0.953200  1.0
  C  C1509  1  0.182200  0.747900  0.546800  1.0
  C  C1510  1  0.817800  0.252100  0.546800  1.0
  C  C1511  1  0.182200  0.252100  0.453200  1.0
  C  C1512  1  0.817800  0.747900  0.453200  1.0
  C  C1513  1  0.682200  0.247900  0.546800  1.0
  C  C1514  1  0.317800  0.752100  0.546800  1.0
  C  C1515  1  0.682200  0.752100  0.453200  1.0
  C  C1516  1  0.317800  0.247900  0.453200  1.0
  C  C1517  1  0.682200  0.747900  0.046800  1.0
  C  C1518  1  0.317800  0.252100  0.046800  1.0
  C  C1519  1  0.682200  0.252100  0.953200  1.0
  C  C1520  1  0.317800  0.747900  0.953200  1.0
  C  C1521  1  0.817800  0.752100  0.953200  1.0
  C  C1522  1  0.182200  0.247900  0.953200  1.0
  C  C1523  1  0.817800  0.247900  0.046800  1.0
  C  C1524  1  0.182200  0.752100  0.046800  1.0
  C  C1525  1  0.817800  0.252100  0.453200  1.0
  C  C1526  1  0.182200  0.747900  0.453200  1.0
  C  C1527  1  0.817800  0.747900  0.546800  1.0
  C  C1528  1  0.182200  0.252100  0.546800  1.0
  C  C1529  1  0.317800  0.752100  0.453200  1.0
  C  C1530  1  0.682200  0.247900  0.453200  1.0
  C  C1531  1  0.317800  0.247900  0.546800  1.0
  C  C1532  1  0.682200  0.752100  0.546800  1.0
  C  C1533  1  0.317800  0.252100  0.953200  1.0
  C  C1534  1  0.682200  0.747900  0.953200  1.0
  C  C1535  1  0.317800  0.747900  0.046800  1.0
  C  C1536  1  0.682200  0.252100  0.046800  1.0
  C  C1537  1  0.192400  0.237200  0.030000  1.0
  C  C1538  1  0.807600  0.762800  0.030000  1.0
  C  C1539  1  0.192400  0.762800  0.970000  1.0
  C  C1540  1  0.807600  0.237200  0.970000  1.0
  C  C1541  1  0.192400  0.737200  0.530000  1.0
  C  C1542  1  0.807600  0.262800  0.530000  1.0
  C  C1543  1  0.192400  0.262800  0.470000  1.0
  C  C1544  1  0.807600  0.737200  0.470000  1.0
  C  C1545  1  0.692400  0.237200  0.530000  1.0
  C  C1546  1  0.307600  0.762800  0.530000  1.0
  C  C1547  1  0.692400  0.762800  0.470000  1.0
  C  C1548  1  0.307600  0.237200  0.470000  1.0
  C  C1549  1  0.692400  0.737200  0.030000  1.0
  C  C1550  1  0.307600  0.262800  0.030000  1.0
  C  C1551  1  0.692400  0.262800  0.970000  1.0
  C  C1552  1  0.307600  0.737200  0.970000  1.0
  C  C1553  1  0.807600  0.762800  0.970000  1.0
  C  C1554  1  0.192400  0.237200  0.970000  1.0
  C  C1555  1  0.807600  0.237200  0.030000  1.0
  C  C1556  1  0.192400  0.762800  0.030000  1.0
  C  C1557  1  0.807600  0.262800  0.470000  1.0
  C  C1558  1  0.192400  0.737200  0.470000  1.0
  C  C1559  1  0.807600  0.737200  0.530000  1.0
  C  C1560  1  0.192400  0.262800  0.530000  1.0
  C  C1561  1  0.307600  0.762800  0.470000  1.0
  C  C1562  1  0.692400  0.237200  0.470000  1.0
  C  C1563  1  0.307600  0.237200  0.530000  1.0
  C  C1564  1  0.692400  0.762800  0.530000  1.0
  C  C1565  1  0.307600  0.262800  0.970000  1.0
  C  C1566  1  0.692400  0.737200  0.970000  1.0
  C  C1567  1  0.307600  0.737200  0.030000  1.0
  C  C1568  1  0.692400  0.262800  0.030000  1.0
  C  C1569  1  0.073200  0.246900  0.151400  1.0
  C  C1570  1  0.926800  0.753100  0.151400  1.0
  C  C1571  1  0.073200  0.753100  0.848600  1.0
  C  C1572  1  0.926800  0.246900  0.848600  1.0
  C  C1573  1  0.073200  0.746900  0.651400  1.0
  C  C1574  1  0.926800  0.253100  0.651400  1.0
  C  C1575  1  0.073200  0.253100  0.348600  1.0
  C  C1576  1  0.926800  0.746900  0.348600  1.0
  C  C1577  1  0.573200  0.246900  0.651400  1.0
  C  C1578  1  0.426800  0.753100  0.651400  1.0
  C  C1579  1  0.573200  0.753100  0.348600  1.0
  C  C1580  1  0.426800  0.246900  0.348600  1.0
  C  C1581  1  0.573200  0.746900  0.151400  1.0
  C  C1582  1  0.426800  0.253100  0.151400  1.0
  C  C1583  1  0.573200  0.253100  0.848600  1.0
  C  C1584  1  0.426800  0.746900  0.848600  1.0
  C  C1585  1  0.926800  0.753100  0.848600  1.0
  C  C1586  1  0.073200  0.246900  0.848600  1.0
  C  C1587  1  0.926800  0.246900  0.151400  1.0
  C  C1588  1  0.073200  0.753100  0.151400  1.0
  C  C1589  1  0.926800  0.253100  0.348600  1.0
  C  C1590  1  0.073200  0.746900  0.348600  1.0
  C  C1591  1  0.926800  0.746900  0.651400  1.0
  C  C1592  1  0.073200  0.253100  0.651400  1.0
  C  C1593  1  0.426800  0.753100  0.348600  1.0
  C  C1594  1  0.573200  0.246900  0.348600  1.0
  C  C1595  1  0.426800  0.246900  0.651400  1.0
  C  C1596  1  0.573200  0.753100  0.651400  1.0
  C  C1597  1  0.426800  0.253100  0.848600  1.0
  C  C1598  1  0.573200  0.746900  0.848600  1.0
  C  C1599  1  0.426800  0.746900  0.151400  1.0
  C  C1600  1  0.573200  0.253100  0.151400  1.0
  C  C1601  1  0.087800  0.258200  0.144600  1.0
  C  C1602  1  0.912200  0.741800  0.144600  1.0
  C  C1603  1  0.087800  0.741800  0.855400  1.0
  C  C1604  1  0.912200  0.258200  0.855400  1.0
  C  C1605  1  0.087800  0.758200  0.644600  1.0
  C  C1606  1  0.912200  0.241800  0.644600  1.0
  C  C1607  1  0.087800  0.241800  0.355400  1.0
  C  C1608  1  0.912200  0.758200  0.355400  1.0
  C  C1609  1  0.587800  0.258200  0.644600  1.0
  C  C1610  1  0.412200  0.741800  0.644600  1.0
  C  C1611  1  0.587800  0.741800  0.355400  1.0
  C  C1612  1  0.412200  0.258200  0.355400  1.0
  C  C1613  1  0.587800  0.758200  0.144600  1.0
  C  C1614  1  0.412200  0.241800  0.144600  1.0
  C  C1615  1  0.587800  0.241800  0.855400  1.0
  C  C1616  1  0.412200  0.758200  0.855400  1.0
  C  C1617  1  0.912200  0.741800  0.855400  1.0
  C  C1618  1  0.087800  0.258200  0.855400  1.0
  C  C1619  1  0.912200  0.258200  0.144600  1.0
  C  C1620  1  0.087800  0.741800  0.144600  1.0
  C  C1621  1  0.912200  0.241800  0.355400  1.0
  C  C1622  1  0.087800  0.758200  0.355400  1.0
  C  C1623  1  0.912200  0.758200  0.644600  1.0
  C  C1624  1  0.087800  0.241800  0.644600  1.0
  C  C1625  1  0.412200  0.741800  0.355400  1.0
  C  C1626  1  0.587800  0.258200  0.355400  1.0
  C  C1627  1  0.412200  0.258200  0.644600  1.0
  C  C1628  1  0.587800  0.741800  0.644600  1.0
  C  C1629  1  0.412200  0.241800  0.855400  1.0
  C  C1630  1  0.587800  0.758200  0.855400  1.0
  C  C1631  1  0.412200  0.758200  0.144600  1.0
  C  C1632  1  0.587800  0.241800  0.144600  1.0
  C  C1633  1  0.150500  0.247100  0.073200  1.0
  C  C1634  1  0.849500  0.752900  0.073200  1.0
  C  C1635  1  0.150500  0.752900  0.926800  1.0
  C  C1636  1  0.849500  0.247100  0.926800  1.0
  C  C1637  1  0.150500  0.747100  0.573200  1.0
  C  C1638  1  0.849500  0.252900  0.573200  1.0
  C  C1639  1  0.150500  0.252900  0.426800  1.0
  C  C1640  1  0.849500  0.747100  0.426800  1.0
  C  C1641  1  0.650500  0.247100  0.573200  1.0
  C  C1642  1  0.349500  0.752900  0.573200  1.0
  C  C1643  1  0.650500  0.752900  0.426800  1.0
  C  C1644  1  0.349500  0.247100  0.426800  1.0
  C  C1645  1  0.650500  0.747100  0.073200  1.0
  C  C1646  1  0.349500  0.252900  0.073200  1.0
  C  C1647  1  0.650500  0.252900  0.926800  1.0
  C  C1648  1  0.349500  0.747100  0.926800  1.0
  C  C1649  1  0.849500  0.752900  0.926800  1.0
  C  C1650  1  0.150500  0.247100  0.926800  1.0
  C  C1651  1  0.849500  0.247100  0.073200  1.0
  C  C1652  1  0.150500  0.752900  0.073200  1.0
  C  C1653  1  0.849500  0.252900  0.426800  1.0
  C  C1654  1  0.150500  0.747100  0.426800  1.0
  C  C1655  1  0.849500  0.747100  0.573200  1.0
  C  C1656  1  0.150500  0.252900  0.573200  1.0
  C  C1657  1  0.349500  0.752900  0.426800  1.0
  C  C1658  1  0.650500  0.247100  0.426800  1.0
  C  C1659  1  0.349500  0.247100  0.573200  1.0
  C  C1660  1  0.650500  0.752900  0.573200  1.0
  C  C1661  1  0.349500  0.252900  0.926800  1.0
  C  C1662  1  0.650500  0.747100  0.926800  1.0
  C  C1663  1  0.349500  0.747100  0.073200  1.0
  C  C1664  1  0.650500  0.252900  0.073200  1.0
  C  C1665  1  0.144000  0.258200  0.088300  1.0
  C  C1666  1  0.856000  0.741800  0.088300  1.0
  C  C1667  1  0.144000  0.741800  0.911700  1.0
  C  C1668  1  0.856000  0.258200  0.911700  1.0
  C  C1669  1  0.144000  0.758200  0.588300  1.0
  C  C1670  1  0.856000  0.241800  0.588300  1.0
  C  C1671  1  0.144000  0.241800  0.411700  1.0
  C  C1672  1  0.856000  0.758200  0.411700  1.0
  C  C1673  1  0.644000  0.258200  0.588300  1.0
  C  C1674  1  0.356000  0.741800  0.588300  1.0
  C  C1675  1  0.644000  0.741800  0.411700  1.0
  C  C1676  1  0.356000  0.258200  0.411700  1.0
  C  C1677  1  0.644000  0.758200  0.088300  1.0
  C  C1678  1  0.356000  0.241800  0.088300  1.0
  C  C1679  1  0.644000  0.241800  0.911700  1.0
  C  C1680  1  0.356000  0.758200  0.911700  1.0
  C  C1681  1  0.856000  0.741800  0.911700  1.0
  C  C1682  1  0.144000  0.258200  0.911700  1.0
  C  C1683  1  0.856000  0.258200  0.088300  1.0
  C  C1684  1  0.144000  0.741800  0.088300  1.0
  C  C1685  1  0.856000  0.241800  0.411700  1.0
  C  C1686  1  0.144000  0.758200  0.411700  1.0
  C  C1687  1  0.856000  0.758200  0.588300  1.0
  C  C1688  1  0.144000  0.241800  0.588300  1.0
  C  C1689  1  0.356000  0.741800  0.411700  1.0
  C  C1690  1  0.644000  0.258200  0.411700  1.0
  C  C1691  1  0.356000  0.258200  0.588300  1.0
  C  C1692  1  0.644000  0.741800  0.588300  1.0
  C  C1693  1  0.356000  0.241800  0.911700  1.0
  C  C1694  1  0.644000  0.758200  0.911700  1.0
  C  C1695  1  0.356000  0.758200  0.088300  1.0
  C  C1696  1  0.644000  0.241800  0.088300  1.0
  C  C1697  1  0.114000  0.286200  0.142300  1.0
  C  C1698  1  0.886000  0.713800  0.142300  1.0
  C  C1699  1  0.114000  0.713800  0.857700  1.0
  C  C1700  1  0.886000  0.286200  0.857700  1.0
  C  C1701  1  0.114000  0.786200  0.642300  1.0
  C  C1702  1  0.886000  0.213800  0.642300  1.0
  C  C1703  1  0.114000  0.213800  0.357700  1.0
  C  C1704  1  0.886000  0.786200  0.357700  1.0
  C  C1705  1  0.614000  0.286200  0.642300  1.0
  C  C1706  1  0.386000  0.713800  0.642300  1.0
  C  C1707  1  0.614000  0.713800  0.357700  1.0
  C  C1708  1  0.386000  0.286200  0.357700  1.0
  C  C1709  1  0.614000  0.786200  0.142300  1.0
  C  C1710  1  0.386000  0.213800  0.142300  1.0
  C  C1711  1  0.614000  0.213800  0.857700  1.0
  C  C1712  1  0.386000  0.786200  0.857700  1.0
  C  C1713  1  0.886000  0.713800  0.857700  1.0
  C  C1714  1  0.114000  0.286200  0.857700  1.0
  C  C1715  1  0.886000  0.286200  0.142300  1.0
  C  C1716  1  0.114000  0.713800  0.142300  1.0
  C  C1717  1  0.886000  0.213800  0.357700  1.0
  C  C1718  1  0.114000  0.786200  0.357700  1.0
  C  C1719  1  0.886000  0.786200  0.642300  1.0
  C  C1720  1  0.114000  0.213800  0.642300  1.0
  C  C1721  1  0.386000  0.713800  0.357700  1.0
  C  C1722  1  0.614000  0.286200  0.357700  1.0
  C  C1723  1  0.386000  0.286200  0.642300  1.0
  C  C1724  1  0.614000  0.713800  0.642300  1.0
  C  C1725  1  0.386000  0.213800  0.857700  1.0
  C  C1726  1  0.614000  0.786200  0.857700  1.0
  C  C1727  1  0.386000  0.786200  0.142300  1.0
  C  C1728  1  0.614000  0.213800  0.142300  1.0
  C  C1729  1  0.106100  0.267100  0.133600  1.0
  C  C1730  1  0.893900  0.732900  0.133600  1.0
  C  C1731  1  0.106100  0.732900  0.866400  1.0
  C  C1732  1  0.893900  0.267100  0.866400  1.0
  C  C1733  1  0.106100  0.767100  0.633600  1.0
  C  C1734  1  0.893900  0.232900  0.633600  1.0
  C  C1735  1  0.106100  0.232900  0.366400  1.0
  C  C1736  1  0.893900  0.767100  0.366400  1.0
  C  C1737  1  0.606100  0.267100  0.633600  1.0
  C  C1738  1  0.393900  0.732900  0.633600  1.0
  C  C1739  1  0.606100  0.732900  0.366400  1.0
  C  C1740  1  0.393900  0.267100  0.366400  1.0
  C  C1741  1  0.606100  0.767100  0.133600  1.0
  C  C1742  1  0.393900  0.232900  0.133600  1.0
  C  C1743  1  0.606100  0.232900  0.866400  1.0
  C  C1744  1  0.393900  0.767100  0.866400  1.0
  C  C1745  1  0.893900  0.732900  0.866400  1.0
  C  C1746  1  0.106100  0.267100  0.866400  1.0
  C  C1747  1  0.893900  0.267100  0.133600  1.0
  C  C1748  1  0.106100  0.732900  0.133600  1.0
  C  C1749  1  0.893900  0.232900  0.366400  1.0
  C  C1750  1  0.106100  0.767100  0.366400  1.0
  C  C1751  1  0.893900  0.767100  0.633600  1.0
  C  C1752  1  0.106100  0.232900  0.633600  1.0
  C  C1753  1  0.393900  0.732900  0.366400  1.0
  C  C1754  1  0.606100  0.267100  0.366400  1.0
  C  C1755  1  0.393900  0.267100  0.633600  1.0
  C  C1756  1  0.606100  0.732900  0.633600  1.0
  C  C1757  1  0.393900  0.232900  0.866400  1.0
  C  C1758  1  0.606100  0.767100  0.866400  1.0
  C  C1759  1  0.393900  0.767100  0.133600  1.0
  C  C1760  1  0.606100  0.232900  0.133600  1.0
  C  C1761  1  0.115400  0.258600  0.115000  1.0
  C  C1762  1  0.884600  0.741400  0.115000  1.0
  C  C1763  1  0.115400  0.741400  0.885000  1.0
  C  C1764  1  0.884600  0.258600  0.885000  1.0
  C  C1765  1  0.115400  0.758600  0.615000  1.0
  C  C1766  1  0.884600  0.241400  0.615000  1.0
  C  C1767  1  0.115400  0.241400  0.385000  1.0
  C  C1768  1  0.884600  0.758600  0.385000  1.0
  C  C1769  1  0.615400  0.258600  0.615000  1.0
  C  C1770  1  0.384600  0.741400  0.615000  1.0
  C  C1771  1  0.615400  0.741400  0.385000  1.0
  C  C1772  1  0.384600  0.258600  0.385000  1.0
  C  C1773  1  0.615400  0.758600  0.115000  1.0
  C  C1774  1  0.384600  0.241400  0.115000  1.0
  C  C1775  1  0.615400  0.241400  0.885000  1.0
  C  C1776  1  0.384600  0.758600  0.885000  1.0
  C  C1777  1  0.884600  0.741400  0.885000  1.0
  C  C1778  1  0.115400  0.258600  0.885000  1.0
  C  C1779  1  0.884600  0.258600  0.115000  1.0
  C  C1780  1  0.115400  0.741400  0.115000  1.0
  C  C1781  1  0.884600  0.241400  0.385000  1.0
  C  C1782  1  0.115400  0.758600  0.385000  1.0
  C  C1783  1  0.884600  0.758600  0.615000  1.0
  C  C1784  1  0.115400  0.241400  0.615000  1.0
  C  C1785  1  0.384600  0.741400  0.385000  1.0
  C  C1786  1  0.615400  0.258600  0.385000  1.0
  C  C1787  1  0.384600  0.258600  0.615000  1.0
  C  C1788  1  0.615400  0.741400  0.615000  1.0
  C  C1789  1  0.384600  0.241400  0.885000  1.0
  C  C1790  1  0.615400  0.758600  0.885000  1.0
  C  C1791  1  0.384600  0.758600  0.115000  1.0
  C  C1792  1  0.615400  0.241400  0.115000  1.0
  C  C1793  1  0.132600  0.269100  0.105300  1.0
  C  C1794  1  0.867400  0.730900  0.105300  1.0
  C  C1795  1  0.132600  0.730900  0.894700  1.0
  C  C1796  1  0.867400  0.269100  0.894700  1.0
  C  C1797  1  0.132600  0.769100  0.605300  1.0
  C  C1798  1  0.867400  0.230900  0.605300  1.0
  C  C1799  1  0.132600  0.230900  0.394700  1.0
  C  C1800  1  0.867400  0.769100  0.394700  1.0
  C  C1801  1  0.632600  0.269100  0.605300  1.0
  C  C1802  1  0.367400  0.730900  0.605300  1.0
  C  C1803  1  0.632600  0.730900  0.394700  1.0
  C  C1804  1  0.367400  0.269100  0.394700  1.0
  C  C1805  1  0.632600  0.769100  0.105300  1.0
  C  C1806  1  0.367400  0.230900  0.105300  1.0
  C  C1807  1  0.632600  0.230900  0.894700  1.0
  C  C1808  1  0.367400  0.769100  0.894700  1.0
  C  C1809  1  0.867400  0.730900  0.894700  1.0
  C  C1810  1  0.132600  0.269100  0.894700  1.0
  C  C1811  1  0.867400  0.269100  0.105300  1.0
  C  C1812  1  0.132600  0.730900  0.105300  1.0
  C  C1813  1  0.867400  0.230900  0.394700  1.0
  C  C1814  1  0.132600  0.769100  0.394700  1.0
  C  C1815  1  0.867400  0.769100  0.605300  1.0
  C  C1816  1  0.132600  0.230900  0.605300  1.0
  C  C1817  1  0.367400  0.730900  0.394700  1.0
  C  C1818  1  0.632600  0.269100  0.394700  1.0
  C  C1819  1  0.367400  0.269100  0.605300  1.0
  C  C1820  1  0.632600  0.730900  0.605300  1.0
  C  C1821  1  0.367400  0.230900  0.894700  1.0
  C  C1822  1  0.632600  0.769100  0.894700  1.0
  C  C1823  1  0.367400  0.769100  0.105300  1.0
  C  C1824  1  0.632600  0.230900  0.105300  1.0
  C  C1825  1  0.140500  0.288200  0.114000  1.0
  C  C1826  1  0.859500  0.711800  0.114000  1.0
  C  C1827  1  0.140500  0.711800  0.886000  1.0
  C  C1828  1  0.859500  0.288200  0.886000  1.0
  C  C1829  1  0.140500  0.788200  0.614000  1.0
  C  C1830  1  0.859500  0.211800  0.614000  1.0
  C  C1831  1  0.140500  0.211800  0.386000  1.0
  C  C1832  1  0.859500  0.788200  0.386000  1.0
  C  C1833  1  0.640500  0.288200  0.614000  1.0
  C  C1834  1  0.359500  0.711800  0.614000  1.0
  C  C1835  1  0.640500  0.711800  0.386000  1.0
  C  C1836  1  0.359500  0.288200  0.386000  1.0
  C  C1837  1  0.640500  0.788200  0.114000  1.0
  C  C1838  1  0.359500  0.211800  0.114000  1.0
  C  C1839  1  0.640500  0.211800  0.886000  1.0
  C  C1840  1  0.359500  0.788200  0.886000  1.0
  C  C1841  1  0.859500  0.711800  0.886000  1.0
  C  C1842  1  0.140500  0.288200  0.886000  1.0
  C  C1843  1  0.859500  0.288200  0.114000  1.0
  C  C1844  1  0.140500  0.711800  0.114000  1.0
  C  C1845  1  0.859500  0.211800  0.386000  1.0
  C  C1846  1  0.140500  0.788200  0.386000  1.0
  C  C1847  1  0.859500  0.788200  0.614000  1.0
  C  C1848  1  0.140500  0.211800  0.614000  1.0
  C  C1849  1  0.359500  0.711800  0.386000  1.0
  C  C1850  1  0.640500  0.288200  0.386000  1.0
  C  C1851  1  0.359500  0.288200  0.614000  1.0
  C  C1852  1  0.640500  0.711800  0.614000  1.0
  C  C1853  1  0.359500  0.211800  0.886000  1.0
  C  C1854  1  0.640500  0.788200  0.886000  1.0
  C  C1855  1  0.359500  0.788200  0.114000  1.0
  C  C1856  1  0.640500  0.211800  0.114000  1.0
  C  C1857  1  0.208800  0.166800  0.029300  1.0
  C  C1858  1  0.791200  0.833200  0.029300  1.0
  C  C1859  1  0.208800  0.833200  0.970700  1.0
  C  C1860  1  0.791200  0.166800  0.970700  1.0
  C  C1861  1  0.208800  0.666800  0.529300  1.0
  C  C1862  1  0.791200  0.333200  0.529300  1.0
  C  C1863  1  0.208800  0.333200  0.470700  1.0
  C  C1864  1  0.791200  0.666800  0.470700  1.0
  C  C1865  1  0.708800  0.166800  0.529300  1.0
  C  C1866  1  0.291200  0.833200  0.529300  1.0
  C  C1867  1  0.708800  0.833200  0.470700  1.0
  C  C1868  1  0.291200  0.166800  0.470700  1.0
  C  C1869  1  0.708800  0.666800  0.029300  1.0
  C  C1870  1  0.291200  0.333200  0.029300  1.0
  C  C1871  1  0.708800  0.333200  0.970700  1.0
  C  C1872  1  0.291200  0.666800  0.970700  1.0
  C  C1873  1  0.791200  0.833200  0.970700  1.0
  C  C1874  1  0.208800  0.166800  0.970700  1.0
  C  C1875  1  0.791200  0.166800  0.029300  1.0
  C  C1876  1  0.208800  0.833200  0.029300  1.0
  C  C1877  1  0.791200  0.333200  0.470700  1.0
  C  C1878  1  0.208800  0.666800  0.470700  1.0
  C  C1879  1  0.791200  0.666800  0.529300  1.0
  C  C1880  1  0.208800  0.333200  0.529300  1.0
  C  C1881  1  0.291200  0.833200  0.470700  1.0
  C  C1882  1  0.708800  0.166800  0.470700  1.0
  C  C1883  1  0.291200  0.166800  0.529300  1.0
  C  C1884  1  0.708800  0.833200  0.529300  1.0
  C  C1885  1  0.291200  0.333200  0.970700  1.0
  C  C1886  1  0.708800  0.666800  0.970700  1.0
  C  C1887  1  0.291200  0.666800  0.029300  1.0
  C  C1888  1  0.708800  0.333200  0.029300  1.0
  C  C1889  1  0.218400  0.155900  0.046400  1.0
  C  C1890  1  0.781600  0.844100  0.046400  1.0
  C  C1891  1  0.218400  0.844100  0.953600  1.0
  C  C1892  1  0.781600  0.155900  0.953600  1.0
  C  C1893  1  0.218400  0.655900  0.546400  1.0
  C  C1894  1  0.781600  0.344100  0.546400  1.0
  C  C1895  1  0.218400  0.344100  0.453600  1.0
  C  C1896  1  0.781600  0.655900  0.453600  1.0
  C  C1897  1  0.718400  0.155900  0.546400  1.0
  C  C1898  1  0.281600  0.844100  0.546400  1.0
  C  C1899  1  0.718400  0.844100  0.453600  1.0
  C  C1900  1  0.281600  0.155900  0.453600  1.0
  C  C1901  1  0.718400  0.655900  0.046400  1.0
  C  C1902  1  0.281600  0.344100  0.046400  1.0
  C  C1903  1  0.718400  0.344100  0.953600  1.0
  C  C1904  1  0.281600  0.655900  0.953600  1.0
  C  C1905  1  0.781600  0.844100  0.953600  1.0
  C  C1906  1  0.218400  0.155900  0.953600  1.0
  C  C1907  1  0.781600  0.155900  0.046400  1.0
  C  C1908  1  0.218400  0.844100  0.046400  1.0
  C  C1909  1  0.781600  0.344100  0.453600  1.0
  C  C1910  1  0.218400  0.655900  0.453600  1.0
  C  C1911  1  0.781600  0.655900  0.546400  1.0
  C  C1912  1  0.218400  0.344100  0.546400  1.0
  C  C1913  1  0.281600  0.844100  0.453600  1.0
  C  C1914  1  0.718400  0.155900  0.453600  1.0
  C  C1915  1  0.281600  0.155900  0.546400  1.0
  C  C1916  1  0.718400  0.844100  0.546400  1.0
  C  C1917  1  0.281600  0.344100  0.953600  1.0
  C  C1918  1  0.718400  0.655900  0.953600  1.0
  C  C1919  1  0.281600  0.655900  0.046400  1.0
  C  C1920  1  0.718400  0.344100  0.046400  1.0
  C  C1921  1  0.237400  0.163600  0.055400  1.0
  C  C1922  1  0.762600  0.836400  0.055400  1.0
  C  C1923  1  0.237400  0.836400  0.944600  1.0
  C  C1924  1  0.762600  0.163600  0.944600  1.0
  C  C1925  1  0.237400  0.663600  0.555400  1.0
  C  C1926  1  0.762600  0.336400  0.555400  1.0
  C  C1927  1  0.237400  0.336400  0.444600  1.0
  C  C1928  1  0.762600  0.663600  0.444600  1.0
  C  C1929  1  0.737400  0.163600  0.555400  1.0
  C  C1930  1  0.262600  0.836400  0.555400  1.0
  C  C1931  1  0.737400  0.836400  0.444600  1.0
  C  C1932  1  0.262600  0.163600  0.444600  1.0
  C  C1933  1  0.737400  0.663600  0.055400  1.0
  C  C1934  1  0.262600  0.336400  0.055400  1.0
  C  C1935  1  0.737400  0.336400  0.944600  1.0
  C  C1936  1  0.262600  0.663600  0.944600  1.0
  C  C1937  1  0.762600  0.836400  0.944600  1.0
  C  C1938  1  0.237400  0.163600  0.944600  1.0
  C  C1939  1  0.762600  0.163600  0.055400  1.0
  C  C1940  1  0.237400  0.836400  0.055400  1.0
  C  C1941  1  0.762600  0.336400  0.444600  1.0
  C  C1942  1  0.237400  0.663600  0.444600  1.0
  C  C1943  1  0.762600  0.663600  0.555400  1.0
  C  C1944  1  0.237400  0.336400  0.555400  1.0
  C  C1945  1  0.262600  0.836400  0.444600  1.0
  C  C1946  1  0.737400  0.163600  0.444600  1.0
  C  C1947  1  0.262600  0.163600  0.555400  1.0
  C  C1948  1  0.737400  0.836400  0.555400  1.0
  C  C1949  1  0.262600  0.336400  0.944600  1.0
  C  C1950  1  0.737400  0.663600  0.944600  1.0
  C  C1951  1  0.262600  0.663600  0.055400  1.0
  C  C1952  1  0.737400  0.336400  0.055400  1.0
  C  C1953  1  0.246900  0.182200  0.047200  1.0
  C  C1954  1  0.753100  0.817800  0.047200  1.0
  C  C1955  1  0.246900  0.817800  0.952800  1.0
  C  C1956  1  0.753100  0.182200  0.952800  1.0
  C  C1957  1  0.246900  0.682200  0.547200  1.0
  C  C1958  1  0.753100  0.317800  0.547200  1.0
  C  C1959  1  0.246900  0.317800  0.452800  1.0
  C  C1960  1  0.753100  0.682200  0.452800  1.0
  C  C1961  1  0.746900  0.182200  0.547200  1.0
  C  C1962  1  0.253100  0.817800  0.547200  1.0
  C  C1963  1  0.746900  0.817800  0.452800  1.0
  C  C1964  1  0.253100  0.182200  0.452800  1.0
  C  C1965  1  0.746900  0.682200  0.047200  1.0
  C  C1966  1  0.253100  0.317800  0.047200  1.0
  C  C1967  1  0.746900  0.317800  0.952800  1.0
  C  C1968  1  0.253100  0.682200  0.952800  1.0
  C  C1969  1  0.753100  0.817800  0.952800  1.0
  C  C1970  1  0.246900  0.182200  0.952800  1.0
  C  C1971  1  0.753100  0.182200  0.047200  1.0
  C  C1972  1  0.246900  0.817800  0.047200  1.0
  C  C1973  1  0.753100  0.317800  0.452800  1.0
  C  C1974  1  0.246900  0.682200  0.452800  1.0
  C  C1975  1  0.753100  0.682200  0.547200  1.0
  C  C1976  1  0.246900  0.317800  0.547200  1.0
  C  C1977  1  0.253100  0.817800  0.452800  1.0
  C  C1978  1  0.746900  0.182200  0.452800  1.0
  C  C1979  1  0.253100  0.182200  0.547200  1.0
  C  C1980  1  0.746900  0.817800  0.547200  1.0
  C  C1981  1  0.253100  0.317800  0.952800  1.0
  C  C1982  1  0.746900  0.682200  0.952800  1.0
  C  C1983  1  0.253100  0.682200  0.047200  1.0
  C  C1984  1  0.746900  0.317800  0.047200  1.0
  C  C1985  1  0.237300  0.193200  0.030200  1.0
  C  C1986  1  0.762700  0.806800  0.030200  1.0
  C  C1987  1  0.237300  0.806800  0.969800  1.0
  C  C1988  1  0.762700  0.193200  0.969800  1.0
  C  C1989  1  0.237300  0.693200  0.530200  1.0
  C  C1990  1  0.762700  0.306800  0.530200  1.0
  C  C1991  1  0.237300  0.306800  0.469800  1.0
  C  C1992  1  0.762700  0.693200  0.469800  1.0
  C  C1993  1  0.737300  0.193200  0.530200  1.0
  C  C1994  1  0.262700  0.806800  0.530200  1.0
  C  C1995  1  0.737300  0.806800  0.469800  1.0
  C  C1996  1  0.262700  0.193200  0.469800  1.0
  C  C1997  1  0.737300  0.693200  0.030200  1.0
  C  C1998  1  0.262700  0.306800  0.030200  1.0
  C  C1999  1  0.737300  0.306800  0.969800  1.0
  C  C2000  1  0.262700  0.693200  0.969800  1.0
  C  C2001  1  0.762700  0.806800  0.969800  1.0
  C  C2002  1  0.237300  0.193200  0.969800  1.0
  C  C2003  1  0.762700  0.193200  0.030200  1.0
  C  C2004  1  0.237300  0.806800  0.030200  1.0
  C  C2005  1  0.762700  0.306800  0.469800  1.0
  C  C2006  1  0.237300  0.693200  0.469800  1.0
  C  C2007  1  0.762700  0.693200  0.530200  1.0
  C  C2008  1  0.237300  0.306800  0.530200  1.0
  C  C2009  1  0.262700  0.806800  0.469800  1.0
  C  C2010  1  0.737300  0.193200  0.469800  1.0
  C  C2011  1  0.262700  0.193200  0.530200  1.0
  C  C2012  1  0.737300  0.806800  0.530200  1.0
  C  C2013  1  0.262700  0.306800  0.969800  1.0
  C  C2014  1  0.737300  0.693200  0.969800  1.0
  C  C2015  1  0.262700  0.693200  0.030200  1.0
  C  C2016  1  0.737300  0.306800  0.030200  1.0
  C  C2017  1  0.207500  0.030300  0.166200  1.0
  C  C2018  1  0.792500  0.969700  0.166200  1.0
  C  C2019  1  0.207500  0.969700  0.833800  1.0
  C  C2020  1  0.792500  0.030300  0.833800  1.0
  C  C2021  1  0.207500  0.530300  0.666200  1.0
  C  C2022  1  0.792500  0.469700  0.666200  1.0
  C  C2023  1  0.207500  0.469700  0.333800  1.0
  C  C2024  1  0.792500  0.530300  0.333800  1.0
  C  C2025  1  0.707500  0.030300  0.666200  1.0
  C  C2026  1  0.292500  0.969700  0.666200  1.0
  C  C2027  1  0.707500  0.969700  0.333800  1.0
  C  C2028  1  0.292500  0.030300  0.333800  1.0
  C  C2029  1  0.707500  0.530300  0.166200  1.0
  C  C2030  1  0.292500  0.469700  0.166200  1.0
  C  C2031  1  0.707500  0.469700  0.833800  1.0
  C  C2032  1  0.292500  0.530300  0.833800  1.0
  C  C2033  1  0.792500  0.969700  0.833800  1.0
  C  C2034  1  0.207500  0.030300  0.833800  1.0
  C  C2035  1  0.792500  0.030300  0.166200  1.0
  C  C2036  1  0.207500  0.969700  0.166200  1.0
  C  C2037  1  0.792500  0.469700  0.333800  1.0
  C  C2038  1  0.207500  0.530300  0.333800  1.0
  C  C2039  1  0.792500  0.530300  0.666200  1.0
  C  C2040  1  0.207500  0.469700  0.666200  1.0
  C  C2041  1  0.292500  0.969700  0.333800  1.0
  C  C2042  1  0.707500  0.030300  0.333800  1.0
  C  C2043  1  0.292500  0.030300  0.666200  1.0
  C  C2044  1  0.707500  0.969700  0.666200  1.0
  C  C2045  1  0.292500  0.469700  0.833800  1.0
  C  C2046  1  0.707500  0.530300  0.833800  1.0
  C  C2047  1  0.292500  0.530300  0.166200  1.0
  C  C2048  1  0.707500  0.469700  0.166200  1.0
  C  C2049  1  0.217600  0.047100  0.155400  1.0
  C  C2050  1  0.782400  0.952900  0.155400  1.0
  C  C2051  1  0.217600  0.952900  0.844600  1.0
  C  C2052  1  0.782400  0.047100  0.844600  1.0
  C  C2053  1  0.217600  0.547100  0.655400  1.0
  C  C2054  1  0.782400  0.452900  0.655400  1.0
  C  C2055  1  0.217600  0.452900  0.344600  1.0
  C  C2056  1  0.782400  0.547100  0.344600  1.0
  C  C2057  1  0.717600  0.047100  0.655400  1.0
  C  C2058  1  0.282400  0.952900  0.655400  1.0
  C  C2059  1  0.717600  0.952900  0.344600  1.0
  C  C2060  1  0.282400  0.047100  0.344600  1.0
  C  C2061  1  0.717600  0.547100  0.155400  1.0
  C  C2062  1  0.282400  0.452900  0.155400  1.0
  C  C2063  1  0.717600  0.452900  0.844600  1.0
  C  C2064  1  0.282400  0.547100  0.844600  1.0
  C  C2065  1  0.782400  0.952900  0.844600  1.0
  C  C2066  1  0.217600  0.047100  0.844600  1.0
  C  C2067  1  0.782400  0.047100  0.155400  1.0
  C  C2068  1  0.217600  0.952900  0.155400  1.0
  C  C2069  1  0.782400  0.452900  0.344600  1.0
  C  C2070  1  0.217600  0.547100  0.344600  1.0
  C  C2071  1  0.782400  0.547100  0.655400  1.0
  C  C2072  1  0.217600  0.452900  0.655400  1.0
  C  C2073  1  0.282400  0.952900  0.344600  1.0
  C  C2074  1  0.717600  0.047100  0.344600  1.0
  C  C2075  1  0.282400  0.047100  0.655400  1.0
  C  C2076  1  0.717600  0.952900  0.655400  1.0
  C  C2077  1  0.282400  0.452900  0.844600  1.0
  C  C2078  1  0.717600  0.547100  0.844600  1.0
  C  C2079  1  0.282400  0.547100  0.155400  1.0
  C  C2080  1  0.717600  0.452900  0.155400  1.0
  C  C2081  1  0.237200  0.055000  0.162700  1.0
  C  C2082  1  0.762800  0.945000  0.162700  1.0
  C  C2083  1  0.237200  0.945000  0.837300  1.0
  C  C2084  1  0.762800  0.055000  0.837300  1.0
  C  C2085  1  0.237200  0.555000  0.662700  1.0
  C  C2086  1  0.762800  0.445000  0.662700  1.0
  C  C2087  1  0.237200  0.445000  0.337300  1.0
  C  C2088  1  0.762800  0.555000  0.337300  1.0
  C  C2089  1  0.737200  0.055000  0.662700  1.0
  C  C2090  1  0.262800  0.945000  0.662700  1.0
  C  C2091  1  0.737200  0.945000  0.337300  1.0
  C  C2092  1  0.262800  0.055000  0.337300  1.0
  C  C2093  1  0.737200  0.555000  0.162700  1.0
  C  C2094  1  0.262800  0.445000  0.162700  1.0
  C  C2095  1  0.737200  0.445000  0.837300  1.0
  C  C2096  1  0.262800  0.555000  0.837300  1.0
  C  C2097  1  0.762800  0.945000  0.837300  1.0
  C  C2098  1  0.237200  0.055000  0.837300  1.0
  C  C2099  1  0.762800  0.055000  0.162700  1.0
  C  C2100  1  0.237200  0.945000  0.162700  1.0
  C  C2101  1  0.762800  0.445000  0.337300  1.0
  C  C2102  1  0.237200  0.555000  0.337300  1.0
  C  C2103  1  0.762800  0.555000  0.662700  1.0
  C  C2104  1  0.237200  0.445000  0.662700  1.0
  C  C2105  1  0.262800  0.945000  0.337300  1.0
  C  C2106  1  0.737200  0.055000  0.337300  1.0
  C  C2107  1  0.262800  0.055000  0.662700  1.0
  C  C2108  1  0.737200  0.945000  0.662700  1.0
  C  C2109  1  0.262800  0.445000  0.837300  1.0
  C  C2110  1  0.737200  0.555000  0.837300  1.0
  C  C2111  1  0.262800  0.555000  0.162700  1.0
  C  C2112  1  0.737200  0.445000  0.162700  1.0
  C  C2113  1  0.246700  0.046100  0.181000  1.0
  C  C2114  1  0.753300  0.953900  0.181000  1.0
  C  C2115  1  0.246700  0.953900  0.819000  1.0
  C  C2116  1  0.753300  0.046100  0.819000  1.0
  C  C2117  1  0.246700  0.546100  0.681000  1.0
  C  C2118  1  0.753300  0.453900  0.681000  1.0
  C  C2119  1  0.246700  0.453900  0.319000  1.0
  C  C2120  1  0.753300  0.546100  0.319000  1.0
  C  C2121  1  0.746700  0.046100  0.681000  1.0
  C  C2122  1  0.253300  0.953900  0.681000  1.0
  C  C2123  1  0.746700  0.953900  0.319000  1.0
  C  C2124  1  0.253300  0.046100  0.319000  1.0
  C  C2125  1  0.746700  0.546100  0.181000  1.0
  C  C2126  1  0.253300  0.453900  0.181000  1.0
  C  C2127  1  0.746700  0.453900  0.819000  1.0
  C  C2128  1  0.253300  0.546100  0.819000  1.0
  C  C2129  1  0.753300  0.953900  0.819000  1.0
  C  C2130  1  0.246700  0.046100  0.819000  1.0
  C  C2131  1  0.753300  0.046100  0.181000  1.0
  C  C2132  1  0.246700  0.953900  0.181000  1.0
  C  C2133  1  0.753300  0.453900  0.319000  1.0
  C  C2134  1  0.246700  0.546100  0.319000  1.0
  C  C2135  1  0.753300  0.546100  0.681000  1.0
  C  C2136  1  0.246700  0.453900  0.681000  1.0
  C  C2137  1  0.253300  0.953900  0.319000  1.0
  C  C2138  1  0.746700  0.046100  0.319000  1.0
  C  C2139  1  0.253300  0.046100  0.681000  1.0
  C  C2140  1  0.746700  0.953900  0.681000  1.0
  C  C2141  1  0.253300  0.453900  0.819000  1.0
  C  C2142  1  0.746700  0.546100  0.819000  1.0
  C  C2143  1  0.253300  0.546100  0.181000  1.0
  C  C2144  1  0.746700  0.453900  0.181000  1.0
  C  C2145  1  0.236600  0.029300  0.191800  1.0
  C  C2146  1  0.763400  0.970700  0.191800  1.0
  C  C2147  1  0.236600  0.970700  0.808200  1.0
  C  C2148  1  0.763400  0.029300  0.808200  1.0
  C  C2149  1  0.236600  0.529300  0.691800  1.0
  C  C2150  1  0.763400  0.470700  0.691800  1.0
  C  C2151  1  0.236600  0.470700  0.308200  1.0
  C  C2152  1  0.763400  0.529300  0.308200  1.0
  C  C2153  1  0.736600  0.029300  0.691800  1.0
  C  C2154  1  0.263400  0.970700  0.691800  1.0
  C  C2155  1  0.736600  0.970700  0.308200  1.0
  C  C2156  1  0.263400  0.029300  0.308200  1.0
  C  C2157  1  0.736600  0.529300  0.191800  1.0
  C  C2158  1  0.263400  0.470700  0.191800  1.0
  C  C2159  1  0.736600  0.470700  0.808200  1.0
  C  C2160  1  0.263400  0.529300  0.808200  1.0
  C  C2161  1  0.763400  0.970700  0.808200  1.0
  C  C2162  1  0.236600  0.029300  0.808200  1.0
  C  C2163  1  0.763400  0.029300  0.191800  1.0
  C  C2164  1  0.236600  0.970700  0.191800  1.0
  C  C2165  1  0.763400  0.470700  0.308200  1.0
  C  C2166  1  0.236600  0.529300  0.308200  1.0
  C  C2167  1  0.763400  0.529300  0.691800  1.0
  C  C2168  1  0.236600  0.470700  0.691800  1.0
  C  C2169  1  0.263400  0.970700  0.308200  1.0
  C  C2170  1  0.736600  0.029300  0.308200  1.0
  C  C2171  1  0.263400  0.029300  0.691800  1.0
  C  C2172  1  0.736600  0.970700  0.691800  1.0
  C  C2173  1  0.263400  0.470700  0.808200  1.0
  C  C2174  1  0.736600  0.529300  0.808200  1.0
  C  C2175  1  0.263400  0.529300  0.191800  1.0
  C  C2176  1  0.736600  0.470700  0.191800  1.0
  C  C2177  1  0.247700  0.151900  0.072200  1.0
  C  C2178  1  0.752300  0.848100  0.072200  1.0
  C  C2179  1  0.247700  0.848100  0.927800  1.0
  C  C2180  1  0.752300  0.151900  0.927800  1.0
  C  C2181  1  0.247700  0.651900  0.572200  1.0
  C  C2182  1  0.752300  0.348100  0.572200  1.0
  C  C2183  1  0.247700  0.348100  0.427800  1.0
  C  C2184  1  0.752300  0.651900  0.427800  1.0
  C  C2185  1  0.747700  0.151900  0.572200  1.0
  C  C2186  1  0.252300  0.848100  0.572200  1.0
  C  C2187  1  0.747700  0.848100  0.427800  1.0
  C  C2188  1  0.252300  0.151900  0.427800  1.0
  C  C2189  1  0.747700  0.651900  0.072200  1.0
  C  C2190  1  0.252300  0.348100  0.072200  1.0
  C  C2191  1  0.747700  0.348100  0.927800  1.0
  C  C2192  1  0.252300  0.651900  0.927800  1.0
  C  C2193  1  0.752300  0.848100  0.927800  1.0
  C  C2194  1  0.247700  0.151900  0.927800  1.0
  C  C2195  1  0.752300  0.151900  0.072200  1.0
  C  C2196  1  0.247700  0.848100  0.072200  1.0
  C  C2197  1  0.752300  0.348100  0.427800  1.0
  C  C2198  1  0.247700  0.651900  0.427800  1.0
  C  C2199  1  0.752300  0.651900  0.572200  1.0
  C  C2200  1  0.247700  0.348100  0.572200  1.0
  C  C2201  1  0.252300  0.848100  0.427800  1.0
  C  C2202  1  0.747700  0.151900  0.427800  1.0
  C  C2203  1  0.252300  0.151900  0.572200  1.0
  C  C2204  1  0.747700  0.848100  0.572200  1.0
  C  C2205  1  0.252300  0.348100  0.927800  1.0
  C  C2206  1  0.747700  0.651900  0.927800  1.0
  C  C2207  1  0.252300  0.651900  0.072200  1.0
  C  C2208  1  0.747700  0.348100  0.072200  1.0
  C  C2209  1  0.257900  0.144200  0.087300  1.0
  C  C2210  1  0.742100  0.855800  0.087300  1.0
  C  C2211  1  0.257900  0.855800  0.912700  1.0
  C  C2212  1  0.742100  0.144200  0.912700  1.0
  C  C2213  1  0.257900  0.644200  0.587300  1.0
  C  C2214  1  0.742100  0.355800  0.587300  1.0
  C  C2215  1  0.257900  0.355800  0.412700  1.0
  C  C2216  1  0.742100  0.644200  0.412700  1.0
  C  C2217  1  0.757900  0.144200  0.587300  1.0
  C  C2218  1  0.242100  0.855800  0.587300  1.0
  C  C2219  1  0.757900  0.855800  0.412700  1.0
  C  C2220  1  0.242100  0.144200  0.412700  1.0
  C  C2221  1  0.757900  0.644200  0.087300  1.0
  C  C2222  1  0.242100  0.355800  0.087300  1.0
  C  C2223  1  0.757900  0.355800  0.912700  1.0
  C  C2224  1  0.242100  0.644200  0.912700  1.0
  C  C2225  1  0.742100  0.855800  0.912700  1.0
  C  C2226  1  0.257900  0.144200  0.912700  1.0
  C  C2227  1  0.742100  0.144200  0.087300  1.0
  C  C2228  1  0.257900  0.855800  0.087300  1.0
  C  C2229  1  0.742100  0.355800  0.412700  1.0
  C  C2230  1  0.257900  0.644200  0.412700  1.0
  C  C2231  1  0.742100  0.644200  0.587300  1.0
  C  C2232  1  0.257900  0.355800  0.587300  1.0
  C  C2233  1  0.242100  0.855800  0.412700  1.0
  C  C2234  1  0.757900  0.144200  0.412700  1.0
  C  C2235  1  0.242100  0.144200  0.587300  1.0
  C  C2236  1  0.757900  0.855800  0.587300  1.0
  C  C2237  1  0.242100  0.355800  0.912700  1.0
  C  C2238  1  0.757900  0.644200  0.912700  1.0
  C  C2239  1  0.242100  0.644200  0.087300  1.0
  C  C2240  1  0.757900  0.355800  0.087300  1.0
  C  C2241  1  0.248400  0.071100  0.150600  1.0
  C  C2242  1  0.751600  0.928900  0.150600  1.0
  C  C2243  1  0.248400  0.928900  0.849400  1.0
  C  C2244  1  0.751600  0.071100  0.849400  1.0
  C  C2245  1  0.248400  0.571100  0.650600  1.0
  C  C2246  1  0.751600  0.428900  0.650600  1.0
  C  C2247  1  0.248400  0.428900  0.349400  1.0
  C  C2248  1  0.751600  0.571100  0.349400  1.0
  C  C2249  1  0.748400  0.071100  0.650600  1.0
  C  C2250  1  0.251600  0.928900  0.650600  1.0
  C  C2251  1  0.748400  0.928900  0.349400  1.0
  C  C2252  1  0.251600  0.071100  0.349400  1.0
  C  C2253  1  0.748400  0.571100  0.150600  1.0
  C  C2254  1  0.251600  0.428900  0.150600  1.0
  C  C2255  1  0.748400  0.428900  0.849400  1.0
  C  C2256  1  0.251600  0.571100  0.849400  1.0
  C  C2257  1  0.751600  0.928900  0.849400  1.0
  C  C2258  1  0.248400  0.071100  0.849400  1.0
  C  C2259  1  0.751600  0.071100  0.150600  1.0
  C  C2260  1  0.248400  0.928900  0.150600  1.0
  C  C2261  1  0.751600  0.428900  0.349400  1.0
  C  C2262  1  0.248400  0.571100  0.349400  1.0
  C  C2263  1  0.751600  0.571100  0.650600  1.0
  C  C2264  1  0.248400  0.428900  0.650600  1.0
  C  C2265  1  0.251600  0.928900  0.349400  1.0
  C  C2266  1  0.748400  0.071100  0.349400  1.0
  C  C2267  1  0.251600  0.071100  0.650600  1.0
  C  C2268  1  0.748400  0.928900  0.650600  1.0
  C  C2269  1  0.251600  0.428900  0.849400  1.0
  C  C2270  1  0.748400  0.571100  0.849400  1.0
  C  C2271  1  0.251600  0.571100  0.150600  1.0
  C  C2272  1  0.748400  0.428900  0.150600  1.0
  C  C2273  1  0.258000  0.086600  0.143100  1.0
  C  C2274  1  0.742000  0.913400  0.143100  1.0
  C  C2275  1  0.258000  0.913400  0.856900  1.0
  C  C2276  1  0.742000  0.086600  0.856900  1.0
  C  C2277  1  0.258000  0.586600  0.643100  1.0
  C  C2278  1  0.742000  0.413400  0.643100  1.0
  C  C2279  1  0.258000  0.413400  0.356900  1.0
  C  C2280  1  0.742000  0.586600  0.356900  1.0
  C  C2281  1  0.758000  0.086600  0.643100  1.0
  C  C2282  1  0.242000  0.913400  0.643100  1.0
  C  C2283  1  0.758000  0.913400  0.356900  1.0
  C  C2284  1  0.242000  0.086600  0.356900  1.0
  C  C2285  1  0.758000  0.586600  0.143100  1.0
  C  C2286  1  0.242000  0.413400  0.143100  1.0
  C  C2287  1  0.758000  0.413400  0.856900  1.0
  C  C2288  1  0.242000  0.586600  0.856900  1.0
  C  C2289  1  0.742000  0.913400  0.856900  1.0
  C  C2290  1  0.258000  0.086600  0.856900  1.0
  C  C2291  1  0.742000  0.086600  0.143100  1.0
  C  C2292  1  0.258000  0.913400  0.143100  1.0
  C  C2293  1  0.742000  0.413400  0.356900  1.0
  C  C2294  1  0.258000  0.586600  0.356900  1.0
  C  C2295  1  0.742000  0.586600  0.643100  1.0
  C  C2296  1  0.258000  0.413400  0.643100  1.0
  C  C2297  1  0.242000  0.913400  0.356900  1.0
  C  C2298  1  0.758000  0.086600  0.356900  1.0
  C  C2299  1  0.242000  0.086600  0.643100  1.0
  C  C2300  1  0.758000  0.913400  0.643100  1.0
  C  C2301  1  0.242000  0.413400  0.856900  1.0
  C  C2302  1  0.758000  0.586600  0.856900  1.0
  C  C2303  1  0.242000  0.586600  0.143100  1.0
  C  C2304  1  0.758000  0.413400  0.143100  1.0
  C  C2305  1  0.285900  0.141400  0.114200  1.0
  C  C2306  1  0.714100  0.858600  0.114200  1.0
  C  C2307  1  0.285900  0.858600  0.885800  1.0
  C  C2308  1  0.714100  0.141400  0.885800  1.0
  C  C2309  1  0.285900  0.641400  0.614200  1.0
  C  C2310  1  0.714100  0.358600  0.614200  1.0
  C  C2311  1  0.285900  0.358600  0.385800  1.0
  C  C2312  1  0.714100  0.641400  0.385800  1.0
  C  C2313  1  0.785900  0.141400  0.614200  1.0
  C  C2314  1  0.214100  0.858600  0.614200  1.0
  C  C2315  1  0.785900  0.858600  0.385800  1.0
  C  C2316  1  0.214100  0.141400  0.385800  1.0
  C  C2317  1  0.785900  0.641400  0.114200  1.0
  C  C2318  1  0.214100  0.358600  0.114200  1.0
  C  C2319  1  0.785900  0.358600  0.885800  1.0
  C  C2320  1  0.214100  0.641400  0.885800  1.0
  C  C2321  1  0.714100  0.858600  0.885800  1.0
  C  C2322  1  0.285900  0.141400  0.885800  1.0
  C  C2323  1  0.714100  0.141400  0.114200  1.0
  C  C2324  1  0.285900  0.858600  0.114200  1.0
  C  C2325  1  0.714100  0.358600  0.385800  1.0
  C  C2326  1  0.285900  0.641400  0.385800  1.0
  C  C2327  1  0.714100  0.641400  0.614200  1.0
  C  C2328  1  0.285900  0.358600  0.614200  1.0
  C  C2329  1  0.214100  0.858600  0.385800  1.0
  C  C2330  1  0.785900  0.141400  0.385800  1.0
  C  C2331  1  0.214100  0.141400  0.614200  1.0
  C  C2332  1  0.785900  0.858600  0.614200  1.0
  C  C2333  1  0.214100  0.358600  0.885800  1.0
  C  C2334  1  0.785900  0.641400  0.885800  1.0
  C  C2335  1  0.214100  0.641400  0.114200  1.0
  C  C2336  1  0.785900  0.358600  0.114200  1.0
  C  C2337  1  0.266800  0.133200  0.105600  1.0
  C  C2338  1  0.733200  0.866800  0.105600  1.0
  C  C2339  1  0.266800  0.866800  0.894400  1.0
  C  C2340  1  0.733200  0.133200  0.894400  1.0
  C  C2341  1  0.266800  0.633200  0.605600  1.0
  C  C2342  1  0.733200  0.366800  0.605600  1.0
  C  C2343  1  0.266800  0.366800  0.394400  1.0
  C  C2344  1  0.733200  0.633200  0.394400  1.0
  C  C2345  1  0.766800  0.133200  0.605600  1.0
  C  C2346  1  0.233200  0.866800  0.605600  1.0
  C  C2347  1  0.766800  0.866800  0.394400  1.0
  C  C2348  1  0.233200  0.133200  0.394400  1.0
  C  C2349  1  0.766800  0.633200  0.105600  1.0
  C  C2350  1  0.233200  0.366800  0.105600  1.0
  C  C2351  1  0.766800  0.366800  0.894400  1.0
  C  C2352  1  0.233200  0.633200  0.894400  1.0
  C  C2353  1  0.733200  0.866800  0.894400  1.0
  C  C2354  1  0.266800  0.133200  0.894400  1.0
  C  C2355  1  0.733200  0.133200  0.105600  1.0
  C  C2356  1  0.266800  0.866800  0.105600  1.0
  C  C2357  1  0.733200  0.366800  0.394400  1.0
  C  C2358  1  0.266800  0.633200  0.394400  1.0
  C  C2359  1  0.733200  0.633200  0.605600  1.0
  C  C2360  1  0.266800  0.366800  0.605600  1.0
  C  C2361  1  0.233200  0.866800  0.394400  1.0
  C  C2362  1  0.766800  0.133200  0.394400  1.0
  C  C2363  1  0.233200  0.133200  0.605600  1.0
  C  C2364  1  0.766800  0.866800  0.605600  1.0
  C  C2365  1  0.233200  0.366800  0.894400  1.0
  C  C2366  1  0.766800  0.633200  0.894400  1.0
  C  C2367  1  0.233200  0.633200  0.105600  1.0
  C  C2368  1  0.766800  0.366800  0.105600  1.0
  C  C2369  1  0.256900  0.115500  0.115300  1.0
  C  C2370  1  0.743100  0.884500  0.115300  1.0
  C  C2371  1  0.256900  0.884500  0.884700  1.0
  C  C2372  1  0.743100  0.115500  0.884700  1.0
  C  C2373  1  0.256900  0.615500  0.615300  1.0
  C  C2374  1  0.743100  0.384500  0.615300  1.0
  C  C2375  1  0.256900  0.384500  0.384700  1.0
  C  C2376  1  0.743100  0.615500  0.384700  1.0
  C  C2377  1  0.756900  0.115500  0.615300  1.0
  C  C2378  1  0.243100  0.884500  0.615300  1.0
  C  C2379  1  0.756900  0.884500  0.384700  1.0
  C  C2380  1  0.243100  0.115500  0.384700  1.0
  C  C2381  1  0.756900  0.615500  0.115300  1.0
  C  C2382  1  0.243100  0.384500  0.115300  1.0
  C  C2383  1  0.756900  0.384500  0.884700  1.0
  C  C2384  1  0.243100  0.615500  0.884700  1.0
  C  C2385  1  0.743100  0.884500  0.884700  1.0
  C  C2386  1  0.256900  0.115500  0.884700  1.0
  C  C2387  1  0.743100  0.115500  0.115300  1.0
  C  C2388  1  0.256900  0.884500  0.115300  1.0
  C  C2389  1  0.743100  0.384500  0.384700  1.0
  C  C2390  1  0.256900  0.615500  0.384700  1.0
  C  C2391  1  0.743100  0.615500  0.615300  1.0
  C  C2392  1  0.256900  0.384500  0.615300  1.0
  C  C2393  1  0.243100  0.884500  0.384700  1.0
  C  C2394  1  0.756900  0.115500  0.384700  1.0
  C  C2395  1  0.243100  0.115500  0.615300  1.0
  C  C2396  1  0.756900  0.884500  0.615300  1.0
  C  C2397  1  0.243100  0.384500  0.884700  1.0
  C  C2398  1  0.756900  0.615500  0.884700  1.0
  C  C2399  1  0.243100  0.615500  0.115300  1.0
  C  C2400  1  0.756900  0.384500  0.115300  1.0
  C  C2401  1  0.266100  0.106000  0.133400  1.0
  C  C2402  1  0.733900  0.894000  0.133400  1.0
  C  C2403  1  0.266100  0.894000  0.866600  1.0
  C  C2404  1  0.733900  0.106000  0.866600  1.0
  C  C2405  1  0.266100  0.606000  0.633400  1.0
  C  C2406  1  0.733900  0.394000  0.633400  1.0
  C  C2407  1  0.266100  0.394000  0.366600  1.0
  C  C2408  1  0.733900  0.606000  0.366600  1.0
  C  C2409  1  0.766100  0.106000  0.633400  1.0
  C  C2410  1  0.233900  0.894000  0.633400  1.0
  C  C2411  1  0.766100  0.894000  0.366600  1.0
  C  C2412  1  0.233900  0.106000  0.366600  1.0
  C  C2413  1  0.766100  0.606000  0.133400  1.0
  C  C2414  1  0.233900  0.394000  0.133400  1.0
  C  C2415  1  0.766100  0.394000  0.866600  1.0
  C  C2416  1  0.233900  0.606000  0.866600  1.0
  C  C2417  1  0.733900  0.894000  0.866600  1.0
  C  C2418  1  0.266100  0.106000  0.866600  1.0
  C  C2419  1  0.733900  0.106000  0.133400  1.0
  C  C2420  1  0.266100  0.894000  0.133400  1.0
  C  C2421  1  0.733900  0.394000  0.366600  1.0
  C  C2422  1  0.266100  0.606000  0.366600  1.0
  C  C2423  1  0.733900  0.606000  0.633400  1.0
  C  C2424  1  0.266100  0.394000  0.633400  1.0
  C  C2425  1  0.233900  0.894000  0.366600  1.0
  C  C2426  1  0.766100  0.106000  0.366600  1.0
  C  C2427  1  0.233900  0.106000  0.633400  1.0
  C  C2428  1  0.766100  0.894000  0.633400  1.0
  C  C2429  1  0.233900  0.394000  0.866600  1.0
  C  C2430  1  0.766100  0.606000  0.866600  1.0
  C  C2431  1  0.233900  0.606000  0.133400  1.0
  C  C2432  1  0.766100  0.394000  0.133400  1.0
  C  C2433  1  0.285100  0.114300  0.142000  1.0
  C  C2434  1  0.714900  0.885700  0.142000  1.0
  C  C2435  1  0.285100  0.885700  0.858000  1.0
  C  C2436  1  0.714900  0.114300  0.858000  1.0
  C  C2437  1  0.285100  0.614300  0.642000  1.0
  C  C2438  1  0.714900  0.385700  0.642000  1.0
  C  C2439  1  0.285100  0.385700  0.358000  1.0
  C  C2440  1  0.714900  0.614300  0.358000  1.0
  C  C2441  1  0.785100  0.114300  0.642000  1.0
  C  C2442  1  0.214900  0.885700  0.642000  1.0
  C  C2443  1  0.785100  0.885700  0.358000  1.0
  C  C2444  1  0.214900  0.114300  0.358000  1.0
  C  C2445  1  0.785100  0.614300  0.142000  1.0
  C  C2446  1  0.214900  0.385700  0.142000  1.0
  C  C2447  1  0.785100  0.385700  0.858000  1.0
  C  C2448  1  0.214900  0.614300  0.858000  1.0
  C  C2449  1  0.714900  0.885700  0.858000  1.0
  C  C2450  1  0.285100  0.114300  0.858000  1.0
  C  C2451  1  0.714900  0.114300  0.142000  1.0
  C  C2452  1  0.285100  0.885700  0.142000  1.0
  C  C2453  1  0.714900  0.385700  0.358000  1.0
  C  C2454  1  0.285100  0.614300  0.358000  1.0
  C  C2455  1  0.714900  0.614300  0.642000  1.0
  C  C2456  1  0.285100  0.385700  0.642000  1.0
  C  C2457  1  0.214900  0.885700  0.358000  1.0
  C  C2458  1  0.785100  0.114300  0.358000  1.0
  C  C2459  1  0.214900  0.114300  0.642000  1.0
  C  C2460  1  0.785100  0.885700  0.642000  1.0
  C  C2461  1  0.214900  0.385700  0.858000  1.0
  C  C2462  1  0.785100  0.614300  0.858000  1.0
  C  C2463  1  0.214900  0.614300  0.142000  1.0
  C  C2464  1  0.785100  0.385700  0.142000  1.0
  C  C2465  1  0.164500  0.031200  0.207300  1.0
  C  C2466  1  0.835500  0.968800  0.207300  1.0
  C  C2467  1  0.164500  0.968800  0.792700  1.0
  C  C2468  1  0.835500  0.031200  0.792700  1.0
  C  C2469  1  0.164500  0.531200  0.707300  1.0
  C  C2470  1  0.835500  0.468800  0.707300  1.0
  C  C2471  1  0.164500  0.468800  0.292700  1.0
  C  C2472  1  0.835500  0.531200  0.292700  1.0
  C  C2473  1  0.664500  0.031200  0.707300  1.0
  C  C2474  1  0.335500  0.968800  0.707300  1.0
  C  C2475  1  0.664500  0.968800  0.292700  1.0
  C  C2476  1  0.335500  0.031200  0.292700  1.0
  C  C2477  1  0.664500  0.531200  0.207300  1.0
  C  C2478  1  0.335500  0.468800  0.207300  1.0
  C  C2479  1  0.664500  0.468800  0.792700  1.0
  C  C2480  1  0.335500  0.531200  0.792700  1.0
  C  C2481  1  0.835500  0.968800  0.792700  1.0
  C  C2482  1  0.164500  0.031200  0.792700  1.0
  C  C2483  1  0.835500  0.031200  0.207300  1.0
  C  C2484  1  0.164500  0.968800  0.207300  1.0
  C  C2485  1  0.835500  0.468800  0.292700  1.0
  C  C2486  1  0.164500  0.531200  0.292700  1.0
  C  C2487  1  0.835500  0.531200  0.707300  1.0
  C  C2488  1  0.164500  0.468800  0.707300  1.0
  C  C2489  1  0.335500  0.968800  0.292700  1.0
  C  C2490  1  0.664500  0.031200  0.292700  1.0
  C  C2491  1  0.335500  0.031200  0.707300  1.0
  C  C2492  1  0.664500  0.968800  0.707300  1.0
  C  C2493  1  0.335500  0.468800  0.792700  1.0
  C  C2494  1  0.664500  0.531200  0.792700  1.0
  C  C2495  1  0.335500  0.531200  0.207300  1.0
  C  C2496  1  0.664500  0.468800  0.207300  1.0
  C  C2497  1  0.154600  0.047700  0.218900  1.0
  C  C2498  1  0.845400  0.952300  0.218900  1.0
  C  C2499  1  0.154600  0.952300  0.781100  1.0
  C  C2500  1  0.845400  0.047700  0.781100  1.0
  C  C2501  1  0.154600  0.547700  0.718900  1.0
  C  C2502  1  0.845400  0.452300  0.718900  1.0
  C  C2503  1  0.154600  0.452300  0.281100  1.0
  C  C2504  1  0.845400  0.547700  0.281100  1.0
  C  C2505  1  0.654600  0.047700  0.718900  1.0
  C  C2506  1  0.345400  0.952300  0.718900  1.0
  C  C2507  1  0.654600  0.952300  0.281100  1.0
  C  C2508  1  0.345400  0.047700  0.281100  1.0
  C  C2509  1  0.654600  0.547700  0.218900  1.0
  C  C2510  1  0.345400  0.452300  0.218900  1.0
  C  C2511  1  0.654600  0.452300  0.781100  1.0
  C  C2512  1  0.345400  0.547700  0.781100  1.0
  C  C2513  1  0.845400  0.952300  0.781100  1.0
  C  C2514  1  0.154600  0.047700  0.781100  1.0
  C  C2515  1  0.845400  0.047700  0.218900  1.0
  C  C2516  1  0.154600  0.952300  0.218900  1.0
  C  C2517  1  0.845400  0.452300  0.281100  1.0
  C  C2518  1  0.154600  0.547700  0.281100  1.0
  C  C2519  1  0.845400  0.547700  0.718900  1.0
  C  C2520  1  0.154600  0.452300  0.718900  1.0
  C  C2521  1  0.345400  0.952300  0.281100  1.0
  C  C2522  1  0.654600  0.047700  0.281100  1.0
  C  C2523  1  0.345400  0.047700  0.718900  1.0
  C  C2524  1  0.654600  0.952300  0.718900  1.0
  C  C2525  1  0.345400  0.452300  0.781100  1.0
  C  C2526  1  0.654600  0.547700  0.781100  1.0
  C  C2527  1  0.345400  0.547700  0.218900  1.0
  C  C2528  1  0.654600  0.452300  0.218900  1.0
  C  C2529  1  0.163600  0.054700  0.238200  1.0
  C  C2530  1  0.836400  0.945300  0.238200  1.0
  C  C2531  1  0.163600  0.945300  0.761800  1.0
  C  C2532  1  0.836400  0.054700  0.761800  1.0
  C  C2533  1  0.163600  0.554700  0.738200  1.0
  C  C2534  1  0.836400  0.445300  0.738200  1.0
  C  C2535  1  0.163600  0.445300  0.261800  1.0
  C  C2536  1  0.836400  0.554700  0.261800  1.0
  C  C2537  1  0.663600  0.054700  0.738200  1.0
  C  C2538  1  0.336400  0.945300  0.738200  1.0
  C  C2539  1  0.663600  0.945300  0.261800  1.0
  C  C2540  1  0.336400  0.054700  0.261800  1.0
  C  C2541  1  0.663600  0.554700  0.238200  1.0
  C  C2542  1  0.336400  0.445300  0.238200  1.0
  C  C2543  1  0.663600  0.445300  0.761800  1.0
  C  C2544  1  0.336400  0.554700  0.761800  1.0
  C  C2545  1  0.836400  0.945300  0.761800  1.0
  C  C2546  1  0.163600  0.054700  0.761800  1.0
  C  C2547  1  0.836400  0.054700  0.238200  1.0
  C  C2548  1  0.163600  0.945300  0.238200  1.0
  C  C2549  1  0.836400  0.445300  0.261800  1.0
  C  C2550  1  0.163600  0.554700  0.261800  1.0
  C  C2551  1  0.836400  0.554700  0.738200  1.0
  C  C2552  1  0.163600  0.445300  0.738200  1.0
  C  C2553  1  0.336400  0.945300  0.261800  1.0
  C  C2554  1  0.663600  0.054700  0.261800  1.0
  C  C2555  1  0.336400  0.054700  0.738200  1.0
  C  C2556  1  0.663600  0.945300  0.738200  1.0
  C  C2557  1  0.336400  0.445300  0.761800  1.0
  C  C2558  1  0.663600  0.554700  0.761800  1.0
  C  C2559  1  0.336400  0.554700  0.238200  1.0
  C  C2560  1  0.663600  0.445300  0.238200  1.0
  C  C2561  1  0.182300  0.045300  0.246000  1.0
  C  C2562  1  0.817700  0.954700  0.246000  1.0
  C  C2563  1  0.182300  0.954700  0.754000  1.0
  C  C2564  1  0.817700  0.045300  0.754000  1.0
  C  C2565  1  0.182300  0.545300  0.746000  1.0
  C  C2566  1  0.817700  0.454700  0.746000  1.0
  C  C2567  1  0.182300  0.454700  0.254000  1.0
  C  C2568  1  0.817700  0.545300  0.254000  1.0
  C  C2569  1  0.682300  0.045300  0.746000  1.0
  C  C2570  1  0.317700  0.954700  0.746000  1.0
  C  C2571  1  0.682300  0.954700  0.254000  1.0
  C  C2572  1  0.317700  0.045300  0.254000  1.0
  C  C2573  1  0.682300  0.545300  0.246000  1.0
  C  C2574  1  0.317700  0.454700  0.246000  1.0
  C  C2575  1  0.682300  0.454700  0.754000  1.0
  C  C2576  1  0.317700  0.545300  0.754000  1.0
  C  C2577  1  0.817700  0.954700  0.754000  1.0
  C  C2578  1  0.182300  0.045300  0.754000  1.0
  C  C2579  1  0.817700  0.045300  0.246000  1.0
  C  C2580  1  0.182300  0.954700  0.246000  1.0
  C  C2581  1  0.817700  0.454700  0.254000  1.0
  C  C2582  1  0.182300  0.545300  0.254000  1.0
  C  C2583  1  0.817700  0.545300  0.746000  1.0
  C  C2584  1  0.182300  0.454700  0.746000  1.0
  C  C2585  1  0.317700  0.954700  0.254000  1.0
  C  C2586  1  0.682300  0.045300  0.254000  1.0
  C  C2587  1  0.317700  0.045300  0.746000  1.0
  C  C2588  1  0.682300  0.954700  0.746000  1.0
  C  C2589  1  0.317700  0.454700  0.754000  1.0
  C  C2590  1  0.682300  0.545300  0.754000  1.0
  C  C2591  1  0.317700  0.545300  0.246000  1.0
  C  C2592  1  0.682300  0.454700  0.246000  1.0
  C  C2593  1  0.192200  0.028700  0.234400  1.0
  C  C2594  1  0.807800  0.971300  0.234400  1.0
  C  C2595  1  0.192200  0.971300  0.765600  1.0
  C  C2596  1  0.807800  0.028700  0.765600  1.0
  C  C2597  1  0.192200  0.528700  0.734400  1.0
  C  C2598  1  0.807800  0.471300  0.734400  1.0
  C  C2599  1  0.192200  0.471300  0.265600  1.0
  C  C2600  1  0.807800  0.528700  0.265600  1.0
  C  C2601  1  0.692200  0.028700  0.734400  1.0
  C  C2602  1  0.307800  0.971300  0.734400  1.0
  C  C2603  1  0.692200  0.971300  0.265600  1.0
  C  C2604  1  0.307800  0.028700  0.265600  1.0
  C  C2605  1  0.692200  0.528700  0.234400  1.0
  C  C2606  1  0.307800  0.471300  0.234400  1.0
  C  C2607  1  0.692200  0.471300  0.765600  1.0
  C  C2608  1  0.307800  0.528700  0.765600  1.0
  C  C2609  1  0.807800  0.971300  0.765600  1.0
  C  C2610  1  0.192200  0.028700  0.765600  1.0
  C  C2611  1  0.807800  0.028700  0.234400  1.0
  C  C2612  1  0.192200  0.971300  0.234400  1.0
  C  C2613  1  0.807800  0.471300  0.265600  1.0
  C  C2614  1  0.192200  0.528700  0.265600  1.0
  C  C2615  1  0.807800  0.528700  0.734400  1.0
  C  C2616  1  0.192200  0.471300  0.734400  1.0
  C  C2617  1  0.307800  0.971300  0.265600  1.0
  C  C2618  1  0.692200  0.028700  0.265600  1.0
  C  C2619  1  0.307800  0.028700  0.734400  1.0
  C  C2620  1  0.692200  0.971300  0.734400  1.0
  C  C2621  1  0.307800  0.471300  0.765600  1.0
  C  C2622  1  0.692200  0.528700  0.765600  1.0
  C  C2623  1  0.307800  0.528700  0.234400  1.0
  C  C2624  1  0.692200  0.471300  0.234400  1.0
  C  C2625  1  0.030900  0.165400  0.208400  1.0
  C  C2626  1  0.969100  0.834600  0.208400  1.0
  C  C2627  1  0.030900  0.834600  0.791600  1.0
  C  C2628  1  0.969100  0.165400  0.791600  1.0
  C  C2629  1  0.030900  0.665400  0.708400  1.0
  C  C2630  1  0.969100  0.334600  0.708400  1.0
  C  C2631  1  0.030900  0.334600  0.291600  1.0
  C  C2632  1  0.969100  0.665400  0.291600  1.0
  C  C2633  1  0.530900  0.165400  0.708400  1.0
  C  C2634  1  0.469100  0.834600  0.708400  1.0
  C  C2635  1  0.530900  0.834600  0.291600  1.0
  C  C2636  1  0.469100  0.165400  0.291600  1.0
  C  C2637  1  0.530900  0.665400  0.208400  1.0
  C  C2638  1  0.469100  0.334600  0.208400  1.0
  C  C2639  1  0.530900  0.334600  0.791600  1.0
  C  C2640  1  0.469100  0.665400  0.791600  1.0
  C  C2641  1  0.969100  0.834600  0.791600  1.0
  C  C2642  1  0.030900  0.165400  0.791600  1.0
  C  C2643  1  0.969100  0.165400  0.208400  1.0
  C  C2644  1  0.030900  0.834600  0.208400  1.0
  C  C2645  1  0.969100  0.334600  0.291600  1.0
  C  C2646  1  0.030900  0.665400  0.291600  1.0
  C  C2647  1  0.969100  0.665400  0.708400  1.0
  C  C2648  1  0.030900  0.334600  0.708400  1.0
  C  C2649  1  0.469100  0.834600  0.291600  1.0
  C  C2650  1  0.530900  0.165400  0.291600  1.0
  C  C2651  1  0.469100  0.165400  0.708400  1.0
  C  C2652  1  0.530900  0.834600  0.708400  1.0
  C  C2653  1  0.469100  0.334600  0.791600  1.0
  C  C2654  1  0.530900  0.665400  0.791600  1.0
  C  C2655  1  0.469100  0.665400  0.208400  1.0
  C  C2656  1  0.530900  0.334600  0.208400  1.0
  C  C2657  1  0.047600  0.155300  0.219300  1.0
  C  C2658  1  0.952400  0.844700  0.219300  1.0
  C  C2659  1  0.047600  0.844700  0.780700  1.0
  C  C2660  1  0.952400  0.155300  0.780700  1.0
  C  C2661  1  0.047600  0.655300  0.719300  1.0
  C  C2662  1  0.952400  0.344700  0.719300  1.0
  C  C2663  1  0.047600  0.344700  0.280700  1.0
  C  C2664  1  0.952400  0.655300  0.280700  1.0
  C  C2665  1  0.547600  0.155300  0.719300  1.0
  C  C2666  1  0.452400  0.844700  0.719300  1.0
  C  C2667  1  0.547600  0.844700  0.280700  1.0
  C  C2668  1  0.452400  0.155300  0.280700  1.0
  C  C2669  1  0.547600  0.655300  0.219300  1.0
  C  C2670  1  0.452400  0.344700  0.219300  1.0
  C  C2671  1  0.547600  0.344700  0.780700  1.0
  C  C2672  1  0.452400  0.655300  0.780700  1.0
  C  C2673  1  0.952400  0.844700  0.780700  1.0
  C  C2674  1  0.047600  0.155300  0.780700  1.0
  C  C2675  1  0.952400  0.155300  0.219300  1.0
  C  C2676  1  0.047600  0.844700  0.219300  1.0
  C  C2677  1  0.952400  0.344700  0.280700  1.0
  C  C2678  1  0.047600  0.655300  0.280700  1.0
  C  C2679  1  0.952400  0.655300  0.719300  1.0
  C  C2680  1  0.047600  0.344700  0.719300  1.0
  C  C2681  1  0.452400  0.844700  0.280700  1.0
  C  C2682  1  0.547600  0.155300  0.280700  1.0
  C  C2683  1  0.452400  0.155300  0.719300  1.0
  C  C2684  1  0.547600  0.844700  0.719300  1.0
  C  C2685  1  0.452400  0.344700  0.780700  1.0
  C  C2686  1  0.547600  0.655300  0.780700  1.0
  C  C2687  1  0.452400  0.655300  0.219300  1.0
  C  C2688  1  0.547600  0.344700  0.219300  1.0
  C  C2689  1  0.055700  0.164200  0.238200  1.0
  C  C2690  1  0.944300  0.835800  0.238200  1.0
  C  C2691  1  0.055700  0.835800  0.761800  1.0
  C  C2692  1  0.944300  0.164200  0.761800  1.0
  C  C2693  1  0.055700  0.664200  0.738200  1.0
  C  C2694  1  0.944300  0.335800  0.738200  1.0
  C  C2695  1  0.055700  0.335800  0.261800  1.0
  C  C2696  1  0.944300  0.664200  0.261800  1.0
  C  C2697  1  0.555700  0.164200  0.738200  1.0
  C  C2698  1  0.444300  0.835800  0.738200  1.0
  C  C2699  1  0.555700  0.835800  0.261800  1.0
  C  C2700  1  0.444300  0.164200  0.261800  1.0
  C  C2701  1  0.555700  0.664200  0.238200  1.0
  C  C2702  1  0.444300  0.335800  0.238200  1.0
  C  C2703  1  0.555700  0.335800  0.761800  1.0
  C  C2704  1  0.444300  0.664200  0.761800  1.0
  C  C2705  1  0.944300  0.835800  0.761800  1.0
  C  C2706  1  0.055700  0.164200  0.761800  1.0
  C  C2707  1  0.944300  0.164200  0.238200  1.0
  C  C2708  1  0.055700  0.835800  0.238200  1.0
  C  C2709  1  0.944300  0.335800  0.261800  1.0
  C  C2710  1  0.055700  0.664200  0.261800  1.0
  C  C2711  1  0.944300  0.664200  0.738200  1.0
  C  C2712  1  0.055700  0.335800  0.738200  1.0
  C  C2713  1  0.444300  0.835800  0.261800  1.0
  C  C2714  1  0.555700  0.164200  0.261800  1.0
  C  C2715  1  0.444300  0.164200  0.738200  1.0
  C  C2716  1  0.555700  0.835800  0.738200  1.0
  C  C2717  1  0.444300  0.335800  0.761800  1.0
  C  C2718  1  0.555700  0.664200  0.761800  1.0
  C  C2719  1  0.444300  0.664200  0.238200  1.0
  C  C2720  1  0.555700  0.335800  0.238200  1.0
  C  C2721  1  0.047000  0.183300  0.246200  1.0
  C  C2722  1  0.953000  0.816700  0.246200  1.0
  C  C2723  1  0.047000  0.816700  0.753800  1.0
  C  C2724  1  0.953000  0.183300  0.753800  1.0
  C  C2725  1  0.047000  0.683300  0.746200  1.0
  C  C2726  1  0.953000  0.316700  0.746200  1.0
  C  C2727  1  0.047000  0.316700  0.253800  1.0
  C  C2728  1  0.953000  0.683300  0.253800  1.0
  C  C2729  1  0.547000  0.183300  0.746200  1.0
  C  C2730  1  0.453000  0.816700  0.746200  1.0
  C  C2731  1  0.547000  0.816700  0.253800  1.0
  C  C2732  1  0.453000  0.183300  0.253800  1.0
  C  C2733  1  0.547000  0.683300  0.246200  1.0
  C  C2734  1  0.453000  0.316700  0.246200  1.0
  C  C2735  1  0.547000  0.316700  0.753800  1.0
  C  C2736  1  0.453000  0.683300  0.753800  1.0
  C  C2737  1  0.953000  0.816700  0.753800  1.0
  C  C2738  1  0.047000  0.183300  0.753800  1.0
  C  C2739  1  0.953000  0.183300  0.246200  1.0
  C  C2740  1  0.047000  0.816700  0.246200  1.0
  C  C2741  1  0.953000  0.316700  0.253800  1.0
  C  C2742  1  0.047000  0.683300  0.253800  1.0
  C  C2743  1  0.953000  0.683300  0.746200  1.0
  C  C2744  1  0.047000  0.316700  0.746200  1.0
  C  C2745  1  0.453000  0.816700  0.253800  1.0
  C  C2746  1  0.547000  0.183300  0.253800  1.0
  C  C2747  1  0.453000  0.183300  0.746200  1.0
  C  C2748  1  0.547000  0.816700  0.746200  1.0
  C  C2749  1  0.453000  0.316700  0.753800  1.0
  C  C2750  1  0.547000  0.683300  0.753800  1.0
  C  C2751  1  0.453000  0.683300  0.246200  1.0
  C  C2752  1  0.547000  0.316700  0.246200  1.0
  C  C2753  1  0.030200  0.193400  0.235300  1.0
  C  C2754  1  0.969800  0.806600  0.235300  1.0
  C  C2755  1  0.030200  0.806600  0.764700  1.0
  C  C2756  1  0.969800  0.193400  0.764700  1.0
  C  C2757  1  0.030200  0.693400  0.735300  1.0
  C  C2758  1  0.969800  0.306600  0.735300  1.0
  C  C2759  1  0.030200  0.306600  0.264700  1.0
  C  C2760  1  0.969800  0.693400  0.264700  1.0
  C  C2761  1  0.530200  0.193400  0.735300  1.0
  C  C2762  1  0.469800  0.806600  0.735300  1.0
  C  C2763  1  0.530200  0.806600  0.264700  1.0
  C  C2764  1  0.469800  0.193400  0.264700  1.0
  C  C2765  1  0.530200  0.693400  0.235300  1.0
  C  C2766  1  0.469800  0.306600  0.235300  1.0
  C  C2767  1  0.530200  0.306600  0.764700  1.0
  C  C2768  1  0.469800  0.693400  0.764700  1.0
  C  C2769  1  0.969800  0.806600  0.764700  1.0
  C  C2770  1  0.030200  0.193400  0.764700  1.0
  C  C2771  1  0.969800  0.193400  0.235300  1.0
  C  C2772  1  0.030200  0.806600  0.235300  1.0
  C  C2773  1  0.969800  0.306600  0.264700  1.0
  C  C2774  1  0.030200  0.693400  0.264700  1.0
  C  C2775  1  0.969800  0.693400  0.735300  1.0
  C  C2776  1  0.030200  0.306600  0.735300  1.0
  C  C2777  1  0.469800  0.806600  0.264700  1.0
  C  C2778  1  0.530200  0.193400  0.264700  1.0
  C  C2779  1  0.469800  0.193400  0.735300  1.0
  C  C2780  1  0.530200  0.806600  0.735300  1.0
  C  C2781  1  0.469800  0.306600  0.764700  1.0
  C  C2782  1  0.530200  0.693400  0.764700  1.0
  C  C2783  1  0.469800  0.693400  0.235300  1.0
  C  C2784  1  0.530200  0.306600  0.235300  1.0
  C  C2785  1  0.150100  0.071400  0.246600  1.0
  C  C2786  1  0.849900  0.928600  0.246600  1.0
  C  C2787  1  0.150100  0.928600  0.753400  1.0
  C  C2788  1  0.849900  0.071400  0.753400  1.0
  C  C2789  1  0.150100  0.571400  0.746600  1.0
  C  C2790  1  0.849900  0.428600  0.746600  1.0
  C  C2791  1  0.150100  0.428600  0.253400  1.0
  C  C2792  1  0.849900  0.571400  0.253400  1.0
  C  C2793  1  0.650100  0.071400  0.746600  1.0
  C  C2794  1  0.349900  0.928600  0.746600  1.0
  C  C2795  1  0.650100  0.928600  0.253400  1.0
  C  C2796  1  0.349900  0.071400  0.253400  1.0
  C  C2797  1  0.650100  0.571400  0.246600  1.0
  C  C2798  1  0.349900  0.428600  0.246600  1.0
  C  C2799  1  0.650100  0.428600  0.753400  1.0
  C  C2800  1  0.349900  0.571400  0.753400  1.0
  C  C2801  1  0.849900  0.928600  0.753400  1.0
  C  C2802  1  0.150100  0.071400  0.753400  1.0
  C  C2803  1  0.849900  0.071400  0.246600  1.0
  C  C2804  1  0.150100  0.928600  0.246600  1.0
  C  C2805  1  0.849900  0.428600  0.253400  1.0
  C  C2806  1  0.150100  0.571400  0.253400  1.0
  C  C2807  1  0.849900  0.571400  0.746600  1.0
  C  C2808  1  0.150100  0.428600  0.746600  1.0
  C  C2809  1  0.349900  0.928600  0.253400  1.0
  C  C2810  1  0.650100  0.071400  0.253400  1.0
  C  C2811  1  0.349900  0.071400  0.746600  1.0
  C  C2812  1  0.650100  0.928600  0.746600  1.0
  C  C2813  1  0.349900  0.428600  0.753400  1.0
  C  C2814  1  0.650100  0.571400  0.753400  1.0
  C  C2815  1  0.349900  0.571400  0.246600  1.0
  C  C2816  1  0.650100  0.428600  0.246600  1.0
  C  C2817  1  0.141600  0.084500  0.258900  1.0
  C  C2818  1  0.858400  0.915500  0.258900  1.0
  C  C2819  1  0.141600  0.915500  0.741100  1.0
  C  C2820  1  0.858400  0.084500  0.741100  1.0
  C  C2821  1  0.141600  0.584500  0.758900  1.0
  C  C2822  1  0.858400  0.415500  0.758900  1.0
  C  C2823  1  0.141600  0.415500  0.241100  1.0
  C  C2824  1  0.858400  0.584500  0.241100  1.0
  C  C2825  1  0.641600  0.084500  0.758900  1.0
  C  C2826  1  0.358400  0.915500  0.758900  1.0
  C  C2827  1  0.641600  0.915500  0.241100  1.0
  C  C2828  1  0.358400  0.084500  0.241100  1.0
  C  C2829  1  0.641600  0.584500  0.258900  1.0
  C  C2830  1  0.358400  0.415500  0.258900  1.0
  C  C2831  1  0.641600  0.415500  0.741100  1.0
  C  C2832  1  0.358400  0.584500  0.741100  1.0
  C  C2833  1  0.858400  0.915500  0.741100  1.0
  C  C2834  1  0.141600  0.084500  0.741100  1.0
  C  C2835  1  0.858400  0.084500  0.258900  1.0
  C  C2836  1  0.141600  0.915500  0.258900  1.0
  C  C2837  1  0.858400  0.415500  0.241100  1.0
  C  C2838  1  0.141600  0.584500  0.241100  1.0
  C  C2839  1  0.858400  0.584500  0.758900  1.0
  C  C2840  1  0.141600  0.415500  0.758900  1.0
  C  C2841  1  0.358400  0.915500  0.241100  1.0
  C  C2842  1  0.641600  0.084500  0.241100  1.0
  C  C2843  1  0.358400  0.084500  0.758900  1.0
  C  C2844  1  0.641600  0.915500  0.758900  1.0
  C  C2845  1  0.358400  0.415500  0.741100  1.0
  C  C2846  1  0.641600  0.584500  0.741100  1.0
  C  C2847  1  0.358400  0.584500  0.258900  1.0
  C  C2848  1  0.641600  0.415500  0.258900  1.0
  C  C2849  1  0.073500  0.153400  0.247900  1.0
  C  C2850  1  0.926500  0.846600  0.247900  1.0
  C  C2851  1  0.073500  0.846600  0.752100  1.0
  C  C2852  1  0.926500  0.153400  0.752100  1.0
  C  C2853  1  0.073500  0.653400  0.747900  1.0
  C  C2854  1  0.926500  0.346600  0.747900  1.0
  C  C2855  1  0.073500  0.346600  0.252100  1.0
  C  C2856  1  0.926500  0.653400  0.252100  1.0
  C  C2857  1  0.573500  0.153400  0.747900  1.0
  C  C2858  1  0.426500  0.846600  0.747900  1.0
  C  C2859  1  0.573500  0.846600  0.252100  1.0
  C  C2860  1  0.426500  0.153400  0.252100  1.0
  C  C2861  1  0.573500  0.653400  0.247900  1.0
  C  C2862  1  0.426500  0.346600  0.247900  1.0
  C  C2863  1  0.573500  0.346600  0.752100  1.0
  C  C2864  1  0.426500  0.653400  0.752100  1.0
  C  C2865  1  0.926500  0.846600  0.752100  1.0
  C  C2866  1  0.073500  0.153400  0.752100  1.0
  C  C2867  1  0.926500  0.153400  0.247900  1.0
  C  C2868  1  0.073500  0.846600  0.247900  1.0
  C  C2869  1  0.926500  0.346600  0.252100  1.0
  C  C2870  1  0.073500  0.653400  0.252100  1.0
  C  C2871  1  0.926500  0.653400  0.747900  1.0
  C  C2872  1  0.073500  0.346600  0.747900  1.0
  C  C2873  1  0.426500  0.846600  0.252100  1.0
  C  C2874  1  0.573500  0.153400  0.252100  1.0
  C  C2875  1  0.426500  0.153400  0.747900  1.0
  C  C2876  1  0.573500  0.846600  0.747900  1.0
  C  C2877  1  0.426500  0.346600  0.752100  1.0
  C  C2878  1  0.573500  0.653400  0.752100  1.0
  C  C2879  1  0.426500  0.653400  0.247900  1.0
  C  C2880  1  0.573500  0.346600  0.247900  1.0
  C  C2881  1  0.085900  0.143600  0.259800  1.0
  C  C2882  1  0.914100  0.856400  0.259800  1.0
  C  C2883  1  0.085900  0.856400  0.740200  1.0
  C  C2884  1  0.914100  0.143600  0.740200  1.0
  C  C2885  1  0.085900  0.643600  0.759800  1.0
  C  C2886  1  0.914100  0.356400  0.759800  1.0
  C  C2887  1  0.085900  0.356400  0.240200  1.0
  C  C2888  1  0.914100  0.643600  0.240200  1.0
  C  C2889  1  0.585900  0.143600  0.759800  1.0
  C  C2890  1  0.414100  0.856400  0.759800  1.0
  C  C2891  1  0.585900  0.856400  0.240200  1.0
  C  C2892  1  0.414100  0.143600  0.240200  1.0
  C  C2893  1  0.585900  0.643600  0.259800  1.0
  C  C2894  1  0.414100  0.356400  0.259800  1.0
  C  C2895  1  0.585900  0.356400  0.740200  1.0
  C  C2896  1  0.414100  0.643600  0.740200  1.0
  C  C2897  1  0.914100  0.856400  0.740200  1.0
  C  C2898  1  0.085900  0.143600  0.740200  1.0
  C  C2899  1  0.914100  0.143600  0.259800  1.0
  C  C2900  1  0.085900  0.856400  0.259800  1.0
  C  C2901  1  0.914100  0.356400  0.240200  1.0
  C  C2902  1  0.085900  0.643600  0.240200  1.0
  C  C2903  1  0.914100  0.643600  0.759800  1.0
  C  C2904  1  0.085900  0.356400  0.759800  1.0
  C  C2905  1  0.414100  0.856400  0.240200  1.0
  C  C2906  1  0.585900  0.143600  0.240200  1.0
  C  C2907  1  0.414100  0.143600  0.759800  1.0
  C  C2908  1  0.585900  0.856400  0.759800  1.0
  C  C2909  1  0.414100  0.356400  0.740200  1.0
  C  C2910  1  0.585900  0.643600  0.740200  1.0
  C  C2911  1  0.414100  0.643600  0.259800  1.0
  C  C2912  1  0.585900  0.356400  0.259800  1.0
  C  C2913  1  0.139000  0.112000  0.287000  1.0
  C  C2914  1  0.861000  0.888000  0.287000  1.0
  C  C2915  1  0.139000  0.888000  0.713000  1.0
  C  C2916  1  0.861000  0.112000  0.713000  1.0
  C  C2917  1  0.139000  0.612000  0.787000  1.0
  C  C2918  1  0.861000  0.388000  0.787000  1.0
  C  C2919  1  0.139000  0.388000  0.213000  1.0
  C  C2920  1  0.861000  0.612000  0.213000  1.0
  C  C2921  1  0.639000  0.112000  0.787000  1.0
  C  C2922  1  0.361000  0.888000  0.787000  1.0
  C  C2923  1  0.639000  0.888000  0.213000  1.0
  C  C2924  1  0.361000  0.112000  0.213000  1.0
  C  C2925  1  0.639000  0.612000  0.287000  1.0
  C  C2926  1  0.361000  0.388000  0.287000  1.0
  C  C2927  1  0.639000  0.388000  0.713000  1.0
  C  C2928  1  0.361000  0.612000  0.713000  1.0
  C  C2929  1  0.861000  0.888000  0.713000  1.0
  C  C2930  1  0.139000  0.112000  0.713000  1.0
  C  C2931  1  0.861000  0.112000  0.287000  1.0
  C  C2932  1  0.139000  0.888000  0.287000  1.0
  C  C2933  1  0.861000  0.388000  0.213000  1.0
  C  C2934  1  0.139000  0.612000  0.213000  1.0
  C  C2935  1  0.861000  0.612000  0.787000  1.0
  C  C2936  1  0.139000  0.388000  0.787000  1.0
  C  C2937  1  0.361000  0.888000  0.213000  1.0
  C  C2938  1  0.639000  0.112000  0.213000  1.0
  C  C2939  1  0.361000  0.112000  0.787000  1.0
  C  C2940  1  0.639000  0.888000  0.787000  1.0
  C  C2941  1  0.361000  0.388000  0.713000  1.0
  C  C2942  1  0.639000  0.612000  0.713000  1.0
  C  C2943  1  0.361000  0.612000  0.287000  1.0
  C  C2944  1  0.639000  0.388000  0.287000  1.0
  C  C2945  1  0.131500  0.103300  0.267700  1.0
  C  C2946  1  0.868500  0.896700  0.267700  1.0
  C  C2947  1  0.131500  0.896700  0.732300  1.0
  C  C2948  1  0.868500  0.103300  0.732300  1.0
  C  C2949  1  0.131500  0.603300  0.767700  1.0
  C  C2950  1  0.868500  0.396700  0.767700  1.0
  C  C2951  1  0.131500  0.396700  0.232300  1.0
  C  C2952  1  0.868500  0.603300  0.232300  1.0
  C  C2953  1  0.631500  0.103300  0.767700  1.0
  C  C2954  1  0.368500  0.896700  0.767700  1.0
  C  C2955  1  0.631500  0.896700  0.232300  1.0
  C  C2956  1  0.368500  0.103300  0.232300  1.0
  C  C2957  1  0.631500  0.603300  0.267700  1.0
  C  C2958  1  0.368500  0.396700  0.267700  1.0
  C  C2959  1  0.631500  0.396700  0.732300  1.0
  C  C2960  1  0.368500  0.603300  0.732300  1.0
  C  C2961  1  0.868500  0.896700  0.732300  1.0
  C  C2962  1  0.131500  0.103300  0.732300  1.0
  C  C2963  1  0.868500  0.103300  0.267700  1.0
  C  C2964  1  0.131500  0.896700  0.267700  1.0
  C  C2965  1  0.868500  0.396700  0.232300  1.0
  C  C2966  1  0.131500  0.603300  0.232300  1.0
  C  C2967  1  0.868500  0.603300  0.767700  1.0
  C  C2968  1  0.131500  0.396700  0.767700  1.0
  C  C2969  1  0.368500  0.896700  0.232300  1.0
  C  C2970  1  0.631500  0.103300  0.232300  1.0
  C  C2971  1  0.368500  0.103300  0.767700  1.0
  C  C2972  1  0.631500  0.896700  0.767700  1.0
  C  C2973  1  0.368500  0.396700  0.732300  1.0
  C  C2974  1  0.631500  0.603300  0.732300  1.0
  C  C2975  1  0.368500  0.603300  0.267700  1.0
  C  C2976  1  0.631500  0.396700  0.267700  1.0
  C  C2977  1  0.113900  0.112600  0.257300  1.0
  C  C2978  1  0.886100  0.887400  0.257300  1.0
  C  C2979  1  0.113900  0.887400  0.742700  1.0
  C  C2980  1  0.886100  0.112600  0.742700  1.0
  C  C2981  1  0.113900  0.612600  0.757300  1.0
  C  C2982  1  0.886100  0.387400  0.757300  1.0
  C  C2983  1  0.113900  0.387400  0.242700  1.0
  C  C2984  1  0.886100  0.612600  0.242700  1.0
  C  C2985  1  0.613900  0.112600  0.757300  1.0
  C  C2986  1  0.386100  0.887400  0.757300  1.0
  C  C2987  1  0.613900  0.887400  0.242700  1.0
  C  C2988  1  0.386100  0.112600  0.242700  1.0
  C  C2989  1  0.613900  0.612600  0.257300  1.0
  C  C2990  1  0.386100  0.387400  0.257300  1.0
  C  C2991  1  0.613900  0.387400  0.742700  1.0
  C  C2992  1  0.386100  0.612600  0.742700  1.0
  C  C2993  1  0.886100  0.887400  0.742700  1.0
  C  C2994  1  0.113900  0.112600  0.742700  1.0
  C  C2995  1  0.886100  0.112600  0.257300  1.0
  C  C2996  1  0.113900  0.887400  0.257300  1.0
  C  C2997  1  0.886100  0.387400  0.242700  1.0
  C  C2998  1  0.113900  0.612600  0.242700  1.0
  C  C2999  1  0.886100  0.612600  0.757300  1.0
  C  C3000  1  0.113900  0.387400  0.757300  1.0
  C  C3001  1  0.386100  0.887400  0.242700  1.0
  C  C3002  1  0.613900  0.112600  0.242700  1.0
  C  C3003  1  0.386100  0.112600  0.757300  1.0
  C  C3004  1  0.613900  0.887400  0.757300  1.0
  C  C3005  1  0.386100  0.387400  0.742700  1.0
  C  C3006  1  0.613900  0.612600  0.742700  1.0
  C  C3007  1  0.386100  0.612600  0.257300  1.0
  C  C3008  1  0.613900  0.387400  0.257300  1.0
  C  C3009  1  0.103800  0.130500  0.266200  1.0
  C  C3010  1  0.896200  0.869500  0.266200  1.0
  C  C3011  1  0.103800  0.869500  0.733800  1.0
  C  C3012  1  0.896200  0.130500  0.733800  1.0
  C  C3013  1  0.103800  0.630500  0.766200  1.0
  C  C3014  1  0.896200  0.369500  0.766200  1.0
  C  C3015  1  0.103800  0.369500  0.233800  1.0
  C  C3016  1  0.896200  0.630500  0.233800  1.0
  C  C3017  1  0.603800  0.130500  0.766200  1.0
  C  C3018  1  0.396200  0.869500  0.766200  1.0
  C  C3019  1  0.603800  0.869500  0.233800  1.0
  C  C3020  1  0.396200  0.130500  0.233800  1.0
  C  C3021  1  0.603800  0.630500  0.266200  1.0
  C  C3022  1  0.396200  0.369500  0.266200  1.0
  C  C3023  1  0.603800  0.369500  0.733800  1.0
  C  C3024  1  0.396200  0.630500  0.733800  1.0
  C  C3025  1  0.896200  0.869500  0.733800  1.0
  C  C3026  1  0.103800  0.130500  0.733800  1.0
  C  C3027  1  0.896200  0.130500  0.266200  1.0
  C  C3028  1  0.103800  0.869500  0.266200  1.0
  C  C3029  1  0.896200  0.369500  0.233800  1.0
  C  C3030  1  0.103800  0.630500  0.233800  1.0
  C  C3031  1  0.896200  0.630500  0.766200  1.0
  C  C3032  1  0.103800  0.369500  0.766200  1.0
  C  C3033  1  0.396200  0.869500  0.233800  1.0
  C  C3034  1  0.603800  0.130500  0.233800  1.0
  C  C3035  1  0.396200  0.130500  0.766200  1.0
  C  C3036  1  0.603800  0.869500  0.766200  1.0
  C  C3037  1  0.396200  0.369500  0.733800  1.0
  C  C3038  1  0.603800  0.630500  0.733800  1.0
  C  C3039  1  0.396200  0.630500  0.266200  1.0
  C  C3040  1  0.603800  0.369500  0.266200  1.0
  C  C3041  1  0.111200  0.139100  0.285500  1.0
  C  C3042  1  0.888800  0.860900  0.285500  1.0
  C  C3043  1  0.111200  0.860900  0.714500  1.0
  C  C3044  1  0.888800  0.139100  0.714500  1.0
  C  C3045  1  0.111200  0.639100  0.785500  1.0
  C  C3046  1  0.888800  0.360900  0.785500  1.0
  C  C3047  1  0.111200  0.360900  0.214500  1.0
  C  C3048  1  0.888800  0.639100  0.214500  1.0
  C  C3049  1  0.611200  0.139100  0.785500  1.0
  C  C3050  1  0.388800  0.860900  0.785500  1.0
  C  C3051  1  0.611200  0.860900  0.214500  1.0
  C  C3052  1  0.388800  0.139100  0.214500  1.0
  C  C3053  1  0.611200  0.639100  0.285500  1.0
  C  C3054  1  0.388800  0.360900  0.285500  1.0
  C  C3055  1  0.611200  0.360900  0.714500  1.0
  C  C3056  1  0.388800  0.639100  0.714500  1.0
  C  C3057  1  0.888800  0.860900  0.714500  1.0
  C  C3058  1  0.111200  0.139100  0.714500  1.0
  C  C3059  1  0.888800  0.139100  0.285500  1.0
  C  C3060  1  0.111200  0.860900  0.285500  1.0
  C  C3061  1  0.888800  0.360900  0.214500  1.0
  C  C3062  1  0.111200  0.639100  0.214500  1.0
  C  C3063  1  0.888800  0.639100  0.785500  1.0
  C  C3064  1  0.111200  0.360900  0.785500  1.0
  C  C3065  1  0.388800  0.860900  0.214500  1.0
  C  C3066  1  0.611200  0.139100  0.214500  1.0
  C  C3067  1  0.388800  0.139100  0.785500  1.0
  C  C3068  1  0.611200  0.860900  0.785500  1.0
  C  C3069  1  0.388800  0.360900  0.714500  1.0
  C  C3070  1  0.611200  0.639100  0.714500  1.0
  C  C3071  1  0.388800  0.639100  0.285500  1.0
  C  C3072  1  0.611200  0.360900  0.285500  1.0
  N  N3073  1  0.023000  0.216400  0.184800  1.0
  N  N3074  1  0.977000  0.783600  0.184800  1.0
  N  N3075  1  0.023000  0.783600  0.815200  1.0
  N  N3076  1  0.977000  0.216400  0.815200  1.0
  N  N3077  1  0.023000  0.716400  0.684800  1.0
  N  N3078  1  0.977000  0.283600  0.684800  1.0
  N  N3079  1  0.023000  0.283600  0.315200  1.0
  N  N3080  1  0.977000  0.716400  0.315200  1.0
  N  N3081  1  0.523000  0.216400  0.684800  1.0
  N  N3082  1  0.477000  0.783600  0.684800  1.0
  N  N3083  1  0.523000  0.783600  0.315200  1.0
  N  N3084  1  0.477000  0.216400  0.315200  1.0
  N  N3085  1  0.523000  0.716400  0.184800  1.0
  N  N3086  1  0.477000  0.283600  0.184800  1.0
  N  N3087  1  0.523000  0.283600  0.815200  1.0
  N  N3088  1  0.477000  0.716400  0.815200  1.0
  N  N3089  1  0.977000  0.783600  0.815200  1.0
  N  N3090  1  0.023000  0.216400  0.815200  1.0
  N  N3091  1  0.977000  0.216400  0.184800  1.0
  N  N3092  1  0.023000  0.783600  0.184800  1.0
  N  N3093  1  0.977000  0.283600  0.315200  1.0
  N  N3094  1  0.023000  0.716400  0.315200  1.0
  N  N3095  1  0.977000  0.716400  0.684800  1.0
  N  N3096  1  0.023000  0.283600  0.684800  1.0
  N  N3097  1  0.477000  0.783600  0.315200  1.0
  N  N3098  1  0.523000  0.216400  0.315200  1.0
  N  N3099  1  0.477000  0.216400  0.684800  1.0
  N  N3100  1  0.523000  0.783600  0.684800  1.0
  N  N3101  1  0.477000  0.283600  0.815200  1.0
  N  N3102  1  0.523000  0.716400  0.815200  1.0
  N  N3103  1  0.477000  0.716400  0.184800  1.0
  N  N3104  1  0.523000  0.283600  0.184800  1.0
  N  N3105  1  0.184200  0.217700  0.022400  1.0
  N  N3106  1  0.815800  0.782300  0.022400  1.0
  N  N3107  1  0.184200  0.782300  0.977600  1.0
  N  N3108  1  0.815800  0.217700  0.977600  1.0
  N  N3109  1  0.184200  0.717700  0.522400  1.0
  N  N3110  1  0.815800  0.282300  0.522400  1.0
  N  N3111  1  0.184200  0.282300  0.477600  1.0
  N  N3112  1  0.815800  0.717700  0.477600  1.0
  N  N3113  1  0.684200  0.217700  0.522400  1.0
  N  N3114  1  0.315800  0.782300  0.522400  1.0
  N  N3115  1  0.684200  0.782300  0.477600  1.0
  N  N3116  1  0.315800  0.217700  0.477600  1.0
  N  N3117  1  0.684200  0.717700  0.022400  1.0
  N  N3118  1  0.315800  0.282300  0.022400  1.0
  N  N3119  1  0.684200  0.282300  0.977600  1.0
  N  N3120  1  0.315800  0.717700  0.977600  1.0
  N  N3121  1  0.815800  0.782300  0.977600  1.0
  N  N3122  1  0.184200  0.217700  0.977600  1.0
  N  N3123  1  0.815800  0.217700  0.022400  1.0
  N  N3124  1  0.184200  0.782300  0.022400  1.0
  N  N3125  1  0.815800  0.282300  0.477600  1.0
  N  N3126  1  0.184200  0.717700  0.477600  1.0
  N  N3127  1  0.815800  0.717700  0.522400  1.0
  N  N3128  1  0.184200  0.282300  0.522400  1.0
  N  N3129  1  0.315800  0.782300  0.477600  1.0
  N  N3130  1  0.684200  0.217700  0.477600  1.0
  N  N3131  1  0.315800  0.217700  0.522400  1.0
  N  N3132  1  0.684200  0.782300  0.522400  1.0
  N  N3133  1  0.315800  0.282300  0.977600  1.0
  N  N3134  1  0.684200  0.717700  0.977600  1.0
  N  N3135  1  0.315800  0.717700  0.022400  1.0
  N  N3136  1  0.684200  0.282300  0.022400  1.0
  N  N3137  1  0.131200  0.296700  0.132600  1.0
  N  N3138  1  0.868800  0.703300  0.132600  1.0
  N  N3139  1  0.131200  0.703300  0.867400  1.0
  N  N3140  1  0.868800  0.296700  0.867400  1.0
  N  N3141  1  0.131200  0.796700  0.632600  1.0
  N  N3142  1  0.868800  0.203300  0.632600  1.0
  N  N3143  1  0.131200  0.203300  0.367400  1.0
  N  N3144  1  0.868800  0.796700  0.367400  1.0
  N  N3145  1  0.631200  0.296700  0.632600  1.0
  N  N3146  1  0.368800  0.703300  0.632600  1.0
  N  N3147  1  0.631200  0.703300  0.367400  1.0
  N  N3148  1  0.368800  0.296700  0.367400  1.0
  N  N3149  1  0.631200  0.796700  0.132600  1.0
  N  N3150  1  0.368800  0.203300  0.132600  1.0
  N  N3151  1  0.631200  0.203300  0.867400  1.0
  N  N3152  1  0.368800  0.796700  0.867400  1.0
  N  N3153  1  0.868800  0.703300  0.867400  1.0
  N  N3154  1  0.131200  0.296700  0.867400  1.0
  N  N3155  1  0.868800  0.296700  0.132600  1.0
  N  N3156  1  0.131200  0.703300  0.132600  1.0
  N  N3157  1  0.868800  0.203300  0.367400  1.0
  N  N3158  1  0.131200  0.796700  0.367400  1.0
  N  N3159  1  0.868800  0.796700  0.632600  1.0
  N  N3160  1  0.131200  0.203300  0.632600  1.0
  N  N3161  1  0.368800  0.703300  0.367400  1.0
  N  N3162  1  0.631200  0.296700  0.367400  1.0
  N  N3163  1  0.368800  0.296700  0.632600  1.0
  N  N3164  1  0.631200  0.703300  0.632600  1.0
  N  N3165  1  0.368800  0.203300  0.867400  1.0
  N  N3166  1  0.631200  0.796700  0.867400  1.0
  N  N3167  1  0.368800  0.796700  0.132600  1.0
  N  N3168  1  0.631200  0.203300  0.132600  1.0
  N  N3169  1  0.218300  0.185500  0.021200  1.0
  N  N3170  1  0.781700  0.814500  0.021200  1.0
  N  N3171  1  0.218300  0.814500  0.978800  1.0
  N  N3172  1  0.781700  0.185500  0.978800  1.0
  N  N3173  1  0.218300  0.685500  0.521200  1.0
  N  N3174  1  0.781700  0.314500  0.521200  1.0
  N  N3175  1  0.218300  0.314500  0.478800  1.0
  N  N3176  1  0.781700  0.685500  0.478800  1.0
  N  N3177  1  0.718300  0.185500  0.521200  1.0
  N  N3178  1  0.281700  0.814500  0.521200  1.0
  N  N3179  1  0.718300  0.814500  0.478800  1.0
  N  N3180  1  0.281700  0.185500  0.478800  1.0
  N  N3181  1  0.718300  0.685500  0.021200  1.0
  N  N3182  1  0.281700  0.314500  0.021200  1.0
  N  N3183  1  0.718300  0.314500  0.978800  1.0
  N  N3184  1  0.281700  0.685500  0.978800  1.0
  N  N3185  1  0.781700  0.814500  0.978800  1.0
  N  N3186  1  0.218300  0.185500  0.978800  1.0
  N  N3187  1  0.781700  0.185500  0.021200  1.0
  N  N3188  1  0.218300  0.814500  0.021200  1.0
  N  N3189  1  0.781700  0.314500  0.478800  1.0
  N  N3190  1  0.218300  0.685500  0.478800  1.0
  N  N3191  1  0.781700  0.685500  0.521200  1.0
  N  N3192  1  0.218300  0.314500  0.521200  1.0
  N  N3193  1  0.281700  0.814500  0.478800  1.0
  N  N3194  1  0.718300  0.185500  0.478800  1.0
  N  N3195  1  0.281700  0.185500  0.521200  1.0
  N  N3196  1  0.718300  0.814500  0.521200  1.0
  N  N3197  1  0.281700  0.314500  0.978800  1.0
  N  N3198  1  0.718300  0.685500  0.978800  1.0
  N  N3199  1  0.281700  0.685500  0.021200  1.0
  N  N3200  1  0.718300  0.314500  0.021200  1.0
  N  N3201  1  0.217000  0.021400  0.184500  1.0
  N  N3202  1  0.783000  0.978600  0.184500  1.0
  N  N3203  1  0.217000  0.978600  0.815500  1.0
  N  N3204  1  0.783000  0.021400  0.815500  1.0
  N  N3205  1  0.217000  0.521400  0.684500  1.0
  N  N3206  1  0.783000  0.478600  0.684500  1.0
  N  N3207  1  0.217000  0.478600  0.315500  1.0
  N  N3208  1  0.783000  0.521400  0.315500  1.0
  N  N3209  1  0.717000  0.021400  0.684500  1.0
  N  N3210  1  0.283000  0.978600  0.684500  1.0
  N  N3211  1  0.717000  0.978600  0.315500  1.0
  N  N3212  1  0.283000  0.021400  0.315500  1.0
  N  N3213  1  0.717000  0.521400  0.184500  1.0
  N  N3214  1  0.283000  0.478600  0.184500  1.0
  N  N3215  1  0.717000  0.478600  0.815500  1.0
  N  N3216  1  0.283000  0.521400  0.815500  1.0
  N  N3217  1  0.783000  0.978600  0.815500  1.0
  N  N3218  1  0.217000  0.021400  0.815500  1.0
  N  N3219  1  0.783000  0.021400  0.184500  1.0
  N  N3220  1  0.217000  0.978600  0.184500  1.0
  N  N3221  1  0.783000  0.478600  0.315500  1.0
  N  N3222  1  0.217000  0.521400  0.315500  1.0
  N  N3223  1  0.783000  0.521400  0.684500  1.0
  N  N3224  1  0.217000  0.478600  0.684500  1.0
  N  N3225  1  0.283000  0.978600  0.315500  1.0
  N  N3226  1  0.717000  0.021400  0.315500  1.0
  N  N3227  1  0.283000  0.021400  0.684500  1.0
  N  N3228  1  0.717000  0.978600  0.684500  1.0
  N  N3229  1  0.283000  0.478600  0.815500  1.0
  N  N3230  1  0.717000  0.521400  0.815500  1.0
  N  N3231  1  0.283000  0.521400  0.184500  1.0
  N  N3232  1  0.717000  0.478600  0.184500  1.0
  N  N3233  1  0.295000  0.131900  0.132300  1.0
  N  N3234  1  0.705000  0.868100  0.132300  1.0
  N  N3235  1  0.295000  0.868100  0.867700  1.0
  N  N3236  1  0.705000  0.131900  0.867700  1.0
  N  N3237  1  0.295000  0.631900  0.632300  1.0
  N  N3238  1  0.705000  0.368100  0.632300  1.0
  N  N3239  1  0.295000  0.368100  0.367700  1.0
  N  N3240  1  0.705000  0.631900  0.367700  1.0
  N  N3241  1  0.795000  0.131900  0.632300  1.0
  N  N3242  1  0.205000  0.868100  0.632300  1.0
  N  N3243  1  0.795000  0.868100  0.367700  1.0
  N  N3244  1  0.205000  0.131900  0.367700  1.0
  N  N3245  1  0.795000  0.631900  0.132300  1.0
  N  N3246  1  0.205000  0.368100  0.132300  1.0
  N  N3247  1  0.795000  0.368100  0.867700  1.0
  N  N3248  1  0.205000  0.631900  0.867700  1.0
  N  N3249  1  0.705000  0.868100  0.867700  1.0
  N  N3250  1  0.295000  0.131900  0.867700  1.0
  N  N3251  1  0.705000  0.131900  0.132300  1.0
  N  N3252  1  0.295000  0.868100  0.132300  1.0
  N  N3253  1  0.705000  0.368100  0.367700  1.0
  N  N3254  1  0.295000  0.631900  0.367700  1.0
  N  N3255  1  0.705000  0.631900  0.632300  1.0
  N  N3256  1  0.295000  0.368100  0.632300  1.0
  N  N3257  1  0.205000  0.868100  0.367700  1.0
  N  N3258  1  0.795000  0.131900  0.367700  1.0
  N  N3259  1  0.205000  0.131900  0.632300  1.0
  N  N3260  1  0.795000  0.868100  0.632300  1.0
  N  N3261  1  0.205000  0.368100  0.867700  1.0
  N  N3262  1  0.795000  0.631900  0.867700  1.0
  N  N3263  1  0.205000  0.631900  0.132300  1.0
  N  N3264  1  0.795000  0.368100  0.132300  1.0
  N  N3265  1  0.183300  0.021700  0.215100  1.0
  N  N3266  1  0.816700  0.978300  0.215100  1.0
  N  N3267  1  0.183300  0.978300  0.784900  1.0
  N  N3268  1  0.816700  0.021700  0.784900  1.0
  N  N3269  1  0.183300  0.521700  0.715100  1.0
  N  N3270  1  0.816700  0.478300  0.715100  1.0
  N  N3271  1  0.183300  0.478300  0.284900  1.0
  N  N3272  1  0.816700  0.521700  0.284900  1.0
  N  N3273  1  0.683300  0.021700  0.715100  1.0
  N  N3274  1  0.316700  0.978300  0.715100  1.0
  N  N3275  1  0.683300  0.978300  0.284900  1.0
  N  N3276  1  0.316700  0.021700  0.284900  1.0
  N  N3277  1  0.683300  0.521700  0.215100  1.0
  N  N3278  1  0.316700  0.478300  0.215100  1.0
  N  N3279  1  0.683300  0.478300  0.784900  1.0
  N  N3280  1  0.316700  0.521700  0.784900  1.0
  N  N3281  1  0.816700  0.978300  0.784900  1.0
  N  N3282  1  0.183300  0.021700  0.784900  1.0
  N  N3283  1  0.816700  0.021700  0.215100  1.0
  N  N3284  1  0.183300  0.978300  0.215100  1.0
  N  N3285  1  0.816700  0.478300  0.284900  1.0
  N  N3286  1  0.183300  0.521700  0.284900  1.0
  N  N3287  1  0.816700  0.521700  0.715100  1.0
  N  N3288  1  0.183300  0.478300  0.715100  1.0
  N  N3289  1  0.316700  0.978300  0.284900  1.0
  N  N3290  1  0.683300  0.021700  0.284900  1.0
  N  N3291  1  0.316700  0.021700  0.715100  1.0
  N  N3292  1  0.683300  0.978300  0.715100  1.0
  N  N3293  1  0.316700  0.478300  0.784900  1.0
  N  N3294  1  0.683300  0.521700  0.784900  1.0
  N  N3295  1  0.316700  0.521700  0.215100  1.0
  N  N3296  1  0.683300  0.478300  0.215100  1.0
  N  N3297  1  0.022200  0.184500  0.216400  1.0
  N  N3298  1  0.977800  0.815500  0.216400  1.0
  N  N3299  1  0.022200  0.815500  0.783600  1.0
  N  N3300  1  0.977800  0.184500  0.783600  1.0
  N  N3301  1  0.022200  0.684500  0.716400  1.0
  N  N3302  1  0.977800  0.315500  0.716400  1.0
  N  N3303  1  0.022200  0.315500  0.283600  1.0
  N  N3304  1  0.977800  0.684500  0.283600  1.0
  N  N3305  1  0.522200  0.184500  0.716400  1.0
  N  N3306  1  0.477800  0.815500  0.716400  1.0
  N  N3307  1  0.522200  0.815500  0.283600  1.0
  N  N3308  1  0.477800  0.184500  0.283600  1.0
  N  N3309  1  0.522200  0.684500  0.216400  1.0
  N  N3310  1  0.477800  0.315500  0.216400  1.0
  N  N3311  1  0.522200  0.315500  0.783600  1.0
  N  N3312  1  0.477800  0.684500  0.783600  1.0
  N  N3313  1  0.977800  0.815500  0.783600  1.0
  N  N3314  1  0.022200  0.184500  0.783600  1.0
  N  N3315  1  0.977800  0.184500  0.216400  1.0
  N  N3316  1  0.022200  0.815500  0.216400  1.0
  N  N3317  1  0.977800  0.315500  0.283600  1.0
  N  N3318  1  0.022200  0.684500  0.283600  1.0
  N  N3319  1  0.977800  0.684500  0.716400  1.0
  N  N3320  1  0.022200  0.315500  0.716400  1.0
  N  N3321  1  0.477800  0.815500  0.283600  1.0
  N  N3322  1  0.522200  0.184500  0.283600  1.0
  N  N3323  1  0.477800  0.184500  0.716400  1.0
  N  N3324  1  0.522200  0.815500  0.716400  1.0
  N  N3325  1  0.477800  0.315500  0.783600  1.0
  N  N3326  1  0.522200  0.684500  0.783600  1.0
  N  N3327  1  0.477800  0.684500  0.216400  1.0
  N  N3328  1  0.522200  0.315500  0.216400  1.0
  N  N3329  1  0.128800  0.129900  0.295900  1.0
  N  N3330  1  0.871200  0.870100  0.295900  1.0
  N  N3331  1  0.128800  0.870100  0.704100  1.0
  N  N3332  1  0.871200  0.129900  0.704100  1.0
  N  N3333  1  0.128800  0.629900  0.795900  1.0
  N  N3334  1  0.871200  0.370100  0.795900  1.0
  N  N3335  1  0.128800  0.370100  0.204100  1.0
  N  N3336  1  0.871200  0.629900  0.204100  1.0
  N  N3337  1  0.628800  0.129900  0.795900  1.0
  N  N3338  1  0.371200  0.870100  0.795900  1.0
  N  N3339  1  0.628800  0.870100  0.204100  1.0
  N  N3340  1  0.371200  0.129900  0.204100  1.0
  N  N3341  1  0.628800  0.629900  0.295900  1.0
  N  N3342  1  0.371200  0.370100  0.295900  1.0
  N  N3343  1  0.628800  0.370100  0.704100  1.0
  N  N3344  1  0.371200  0.629900  0.704100  1.0
  N  N3345  1  0.871200  0.870100  0.704100  1.0
  N  N3346  1  0.128800  0.129900  0.704100  1.0
  N  N3347  1  0.871200  0.129900  0.295900  1.0
  N  N3348  1  0.128800  0.870100  0.295900  1.0
  N  N3349  1  0.871200  0.370100  0.204100  1.0
  N  N3350  1  0.128800  0.629900  0.204100  1.0
  N  N3351  1  0.871200  0.629900  0.795900  1.0
  N  N3352  1  0.128800  0.370100  0.795900  1.0
  N  N3353  1  0.371200  0.870100  0.204100  1.0
  N  N3354  1  0.628800  0.129900  0.204100  1.0
  N  N3355  1  0.371200  0.129900  0.795900  1.0
  N  N3356  1  0.628800  0.870100  0.795900  1.0
  N  N3357  1  0.371200  0.370100  0.704100  1.0
  N  N3358  1  0.628800  0.629900  0.704100  1.0
  N  N3359  1  0.371200  0.629900  0.295900  1.0
  N  N3360  1  0.628800  0.370100  0.295900  1.0
  O  O3361  1  0.000000  0.267000  0.145000  1
  O  O3362  1  0.000000  0.733000  0.145000  1
  O  O3363  1  0.000000  0.733000  0.855000  1
  O  O3364  1  0.000000  0.267000  0.855000  1
  O  O3365  1  0.000000  0.767000  0.645000  1
  O  O3366  1  0.000000  0.233000  0.645000  1
  O  O3367  1  0.000000  0.233000  0.355000  1
  O  O3368  1  0.000000  0.767000  0.355000  1
  O  O3369  1  0.500000  0.267000  0.645000  1
  O  O3370  1  0.500000  0.733000  0.645000  1
  O  O3371  1  0.500000  0.733000  0.355000  1
  O  O3372  1  0.500000  0.267000  0.355000  1
  O  O3373  1  0.500000  0.767000  0.145000  1
  O  O3374  1  0.500000  0.233000  0.145000  1
  O  O3375  1  0.500000  0.233000  0.855000  1
  O  O3376  1  0.500000  0.767000  0.855000  1
  O  O3377  1  0.077600  0.169300  0.169900  1
  O  O3378  1  0.922400  0.830700  0.169900  1
  O  O3379  1  0.077600  0.830700  0.830100  1
  O  O3380  1  0.922400  0.169300  0.830100  1
  O  O3381  1  0.077600  0.669300  0.669900  1
  O  O3382  1  0.922400  0.330700  0.669900  1
  O  O3383  1  0.077600  0.330700  0.330100  1
  O  O3384  1  0.922400  0.669300  0.330100  1
  O  O3385  1  0.577600  0.169300  0.669900  1
  O  O3386  1  0.422400  0.830700  0.669900  1
  O  O3387  1  0.577600  0.830700  0.330100  1
  O  O3388  1  0.422400  0.169300  0.330100  1
  O  O3389  1  0.577600  0.669300  0.169900  1
  O  O3390  1  0.422400  0.330700  0.169900  1
  O  O3391  1  0.577600  0.330700  0.830100  1
  O  O3392  1  0.422400  0.669300  0.830100  1
  O  O3393  1  0.922400  0.830700  0.830100  1
  O  O3394  1  0.077600  0.169300  0.830100  1
  O  O3395  1  0.922400  0.169300  0.169900  1
  O  O3396  1  0.077600  0.830700  0.169900  1
  O  O3397  1  0.922400  0.330700  0.330100  1
  O  O3398  1  0.077600  0.669300  0.330100  1
  O  O3399  1  0.922400  0.669300  0.669900  1
  O  O3400  1  0.077600  0.330700  0.669900  1
  O  O3401  1  0.422400  0.830700  0.330100  1
  O  O3402  1  0.577600  0.169300  0.330100  1
  O  O3403  1  0.422400  0.169300  0.669900  1
  O  O3404  1  0.577600  0.830700  0.669900  1
  O  O3405  1  0.422400  0.330700  0.830100  1
  O  O3406  1  0.577600  0.669300  0.830100  1
  O  O3407  1  0.422400  0.669300  0.169900  1
  O  O3408  1  0.577600  0.330700  0.169900  1
  O  O3409  1  0.287000  0.114000  0.179000  1
  O  O3410  1  0.713000  0.886000  0.179000  1
  O  O3411  1  0.287000  0.886000  0.821000  1
  O  O3412  1  0.713000  0.114000  0.821000  1
  O  O3413  1  0.287000  0.614000  0.679000  1
  O  O3414  1  0.713000  0.386000  0.679000  1
  O  O3415  1  0.287000  0.386000  0.321000  1
  O  O3416  1  0.713000  0.614000  0.321000  1
  O  O3417  1  0.787000  0.114000  0.679000  1
  O  O3418  1  0.213000  0.886000  0.679000  1
  O  O3419  1  0.787000  0.886000  0.321000  1
  O  O3420  1  0.213000  0.114000  0.321000  1
  O  O3421  1  0.787000  0.614000  0.179000  1
  O  O3422  1  0.213000  0.386000  0.179000  1
  O  O3423  1  0.787000  0.386000  0.821000  1
  O  O3424  1  0.213000  0.614000  0.821000  1
  O  O3425  1  0.713000  0.886000  0.821000  1
  O  O3426  1  0.287000  0.114000  0.821000  1
  O  O3427  1  0.713000  0.114000  0.179000  1
  O  O3428  1  0.287000  0.886000  0.179000  1
  O  O3429  1  0.713000  0.386000  0.321000  1
  O  O3430  1  0.287000  0.614000  0.321000  1
  O  O3431  1  0.713000  0.614000  0.679000  1
  O  O3432  1  0.287000  0.386000  0.679000  1
  O  O3433  1  0.213000  0.886000  0.321000  1
  O  O3434  1  0.787000  0.114000  0.321000  1
  O  O3435  1  0.213000  0.114000  0.679000  1
  O  O3436  1  0.787000  0.886000  0.679000  1
  O  O3437  1  0.213000  0.386000  0.821000  1
  O  O3438  1  0.787000  0.614000  0.821000  1
  O  O3439  1  0.213000  0.614000  0.179000  1
  O  O3440  1  0.787000  0.386000  0.179000  1
  O  O3441  1  0.183000  0.281000  0.111000  1
  O  O3442  1  0.817000  0.719000  0.111000  1
  O  O3443  1  0.183000  0.719000  0.889000  1
  O  O3444  1  0.817000  0.281000  0.889000  1
  O  O3445  1  0.183000  0.781000  0.611000  1
  O  O3446  1  0.817000  0.219000  0.611000  1
  O  O3447  1  0.183000  0.219000  0.389000  1
  O  O3448  1  0.817000  0.781000  0.389000  1
  O  O3449  1  0.683000  0.281000  0.611000  1
  O  O3450  1  0.317000  0.719000  0.611000  1
  O  O3451  1  0.683000  0.719000  0.389000  1
  O  O3452  1  0.317000  0.281000  0.389000  1
  O  O3453  1  0.683000  0.781000  0.111000  1
  O  O3454  1  0.317000  0.219000  0.111000  1
  O  O3455  1  0.683000  0.219000  0.889000  1
  O  O3456  1  0.317000  0.781000  0.889000  1
  O  O3457  1  0.817000  0.719000  0.889000  1
  O  O3458  1  0.183000  0.281000  0.889000  1
  O  O3459  1  0.817000  0.281000  0.111000  1
  O  O3460  1  0.183000  0.719000  0.111000  1
  O  O3461  1  0.817000  0.219000  0.389000  1
  O  O3462  1  0.183000  0.781000  0.389000  1
  O  O3463  1  0.817000  0.781000  0.611000  1
  O  O3464  1  0.183000  0.219000  0.611000  1
  O  O3465  1  0.317000  0.719000  0.389000  1
  O  O3466  1  0.683000  0.281000  0.389000  1
  O  O3467  1  0.317000  0.281000  0.611000  1
  O  O3468  1  0.683000  0.719000  0.611000  1
  O  O3469  1  0.317000  0.219000  0.889000  1
  O  O3470  1  0.683000  0.781000  0.889000  1
  O  O3471  1  0.317000  0.781000  0.111000  1
  O  O3472  1  0.683000  0.219000  0.111000  1
  O  O3473  1  0.165500  0.076500  0.169700  1
  O  O3474  1  0.834500  0.923500  0.169700  1
  O  O3475  1  0.165500  0.923500  0.830300  1
  O  O3476  1  0.834500  0.076500  0.830300  1
  O  O3477  1  0.165500  0.576500  0.669700  1
  O  O3478  1  0.834500  0.423500  0.669700  1
  O  O3479  1  0.165500  0.423500  0.330300  1
  O  O3480  1  0.834500  0.576500  0.330300  1
  O  O3481  1  0.665500  0.076500  0.669700  1
  O  O3482  1  0.334500  0.923500  0.669700  1
  O  O3483  1  0.665500  0.923500  0.330300  1
  O  O3484  1  0.334500  0.076500  0.330300  1
  O  O3485  1  0.665500  0.576500  0.169700  1
  O  O3486  1  0.334500  0.423500  0.169700  1
  O  O3487  1  0.665500  0.423500  0.830300  1
  O  O3488  1  0.334500  0.576500  0.830300  1
  O  O3489  1  0.834500  0.923500  0.830300  1
  O  O3490  1  0.165500  0.076500  0.830300  1
  O  O3491  1  0.834500  0.076500  0.169700  1
  O  O3492  1  0.165500  0.923500  0.169700  1
  O  O3493  1  0.834500  0.423500  0.330300  1
  O  O3494  1  0.165500  0.576500  0.330300  1
  O  O3495  1  0.834500  0.576500  0.669700  1
  O  O3496  1  0.165500  0.423500  0.669700  1
  O  O3497  1  0.334500  0.923500  0.330300  1
  O  O3498  1  0.665500  0.076500  0.330300  1
  O  O3499  1  0.334500  0.076500  0.669700  1
  O  O3500  1  0.665500  0.923500  0.669700  1
  O  O3501  1  0.334500  0.423500  0.830300  1
  O  O3502  1  0.665500  0.576500  0.830300  1
  O  O3503  1  0.334500  0.576500  0.169700  1
  O  O3504  1  0.665500  0.423500  0.169700  1
  O  O3505  1  0.192300  0.090600  0.193600  1
  O  O3506  1  0.807700  0.909400  0.193600  1
  O  O3507  1  0.192300  0.909400  0.806400  1
  O  O3508  1  0.807700  0.090600  0.806400  1
  O  O3509  1  0.192300  0.590600  0.693600  1
  O  O3510  1  0.807700  0.409400  0.693600  1
  O  O3511  1  0.192300  0.409400  0.306400  1
  O  O3512  1  0.807700  0.590600  0.306400  1
  O  O3513  1  0.692300  0.090600  0.693600  1
  O  O3514  1  0.307700  0.909400  0.693600  1
  O  O3515  1  0.692300  0.909400  0.306400  1
  O  O3516  1  0.307700  0.090600  0.306400  1
  O  O3517  1  0.692300  0.590600  0.193600  1
  O  O3518  1  0.307700  0.409400  0.193600  1
  O  O3519  1  0.692300  0.409400  0.806400  1
  O  O3520  1  0.307700  0.590600  0.806400  1
  O  O3521  1  0.807700  0.909400  0.806400  1
  O  O3522  1  0.192300  0.090600  0.806400  1
  O  O3523  1  0.807700  0.090600  0.193600  1
  O  O3524  1  0.192300  0.909400  0.193600  1
  O  O3525  1  0.807700  0.409400  0.306400  1
  O  O3526  1  0.192300  0.590600  0.306400  1
  O  O3527  1  0.807700  0.590600  0.693600  1
  O  O3528  1  0.192300  0.409400  0.693600  1
  O  O3529  1  0.307700  0.909400  0.306400  1
  O  O3530  1  0.692300  0.090600  0.306400  1
  O  O3531  1  0.307700  0.090600  0.693600  1
  O  O3532  1  0.692300  0.909400  0.693600  1
  O  O3533  1  0.307700  0.409400  0.806400  1
  O  O3534  1  0.692300  0.590600  0.806400  1
  O  O3535  1  0.307700  0.590600  0.193600  1
  O  O3536  1  0.692300  0.409400  0.193600  1
  O  O3537  1  0.275300  0.276600  0.080600  1
  O  O3538  1  0.724700  0.723400  0.080600  1
  O  O3539  1  0.275300  0.723400  0.919400  1
  O  O3540  1  0.724700  0.276600  0.919400  1
  O  O3541  1  0.275300  0.776600  0.580600  1
  O  O3542  1  0.724700  0.223400  0.580600  1
  O  O3543  1  0.275300  0.223400  0.419400  1
  O  O3544  1  0.724700  0.776600  0.419400  1
  O  O3545  1  0.775300  0.276600  0.580600  1
  O  O3546  1  0.224700  0.723400  0.580600  1
  O  O3547  1  0.775300  0.723400  0.419400  1
  O  O3548  1  0.224700  0.276600  0.419400  1
  O  O3549  1  0.775300  0.776600  0.080600  1
  O  O3550  1  0.224700  0.223400  0.080600  1
  O  O3551  1  0.775300  0.223400  0.919400  1
  O  O3552  1  0.224700  0.776600  0.919400  1
  O  O3553  1  0.724700  0.723400  0.919400  1
  O  O3554  1  0.275300  0.276600  0.919400  1
  O  O3555  1  0.724700  0.276600  0.080600  1
  O  O3556  1  0.275300  0.723400  0.080600  1
  O  O3557  1  0.724700  0.223400  0.419400  1
  O  O3558  1  0.275300  0.776600  0.419400  1
  O  O3559  1  0.724700  0.776600  0.580600  1
  O  O3560  1  0.275300  0.223400  0.580600  1
  O  O3561  1  0.224700  0.723400  0.419400  1
  O  O3562  1  0.775300  0.276600  0.419400  1
  O  O3563  1  0.224700  0.276600  0.580600  1
  O  O3564  1  0.775300  0.723400  0.580600  1
  O  O3565  1  0.224700  0.223400  0.919400  1
  O  O3566  1  0.775300  0.776600  0.919400  1
  O  O3567  1  0.224700  0.776600  0.080600  1
  O  O3568  1  0.775300  0.223400  0.080600  1
  O  O3569  1  0.264700  0.147800  0.154700  1
  O  O3570  1  0.735300  0.852200  0.154700  1
  O  O3571  1  0.264700  0.852200  0.845300  1
  O  O3572  1  0.735300  0.147800  0.845300  1
  O  O3573  1  0.264700  0.647800  0.654700  1
  O  O3574  1  0.735300  0.352200  0.654700  1
  O  O3575  1  0.264700  0.352200  0.345300  1
  O  O3576  1  0.735300  0.647800  0.345300  1
  O  O3577  1  0.764700  0.147800  0.654700  1
  O  O3578  1  0.235300  0.852200  0.654700  1
  O  O3579  1  0.764700  0.852200  0.345300  1
  O  O3580  1  0.235300  0.147800  0.345300  1
  O  O3581  1  0.764700  0.647800  0.154700  1
  O  O3582  1  0.235300  0.352200  0.154700  1
  O  O3583  1  0.764700  0.352200  0.845300  1
  O  O3584  1  0.235300  0.647800  0.845300  1
  O  O3585  1  0.735300  0.852200  0.845300  1
  O  O3586  1  0.264700  0.147800  0.845300  1
  O  O3587  1  0.735300  0.147800  0.154700  1
  O  O3588  1  0.264700  0.852200  0.154700  1
  O  O3589  1  0.735300  0.352200  0.345300  1
  O  O3590  1  0.264700  0.647800  0.345300  1
  O  O3591  1  0.735300  0.647800  0.654700  1
  O  O3592  1  0.264700  0.352200  0.654700  1
  O  O3593  1  0.235300  0.852200  0.345300  1
  O  O3594  1  0.764700  0.147800  0.345300  1
  O  O3595  1  0.235300  0.147800  0.654700  1
  O  O3596  1  0.764700  0.852200  0.654700  1
  O  O3597  1  0.235300  0.352200  0.845300  1
  O  O3598  1  0.764700  0.647800  0.845300  1
  O  O3599  1  0.235300  0.647800  0.154700  1
  O  O3600  1  0.764700  0.352200  0.154700  1
  O  O3601  1  0.169800  0.175300  0.081900  1
  O  O3602  1  0.830200  0.824700  0.081900  1
  O  O3603  1  0.169800  0.824700  0.918100  1
  O  O3604  1  0.830200  0.175300  0.918100  1
  O  O3605  1  0.169800  0.675300  0.581900  1
  O  O3606  1  0.830200  0.324700  0.581900  1
  O  O3607  1  0.169800  0.324700  0.418100  1
  O  O3608  1  0.830200  0.675300  0.418100  1
  O  O3609  1  0.669800  0.175300  0.581900  1
  O  O3610  1  0.330200  0.824700  0.581900  1
  O  O3611  1  0.669800  0.824700  0.418100  1
  O  O3612  1  0.330200  0.175300  0.418100  1
  O  O3613  1  0.669800  0.675300  0.081900  1
  O  O3614  1  0.330200  0.324700  0.081900  1
  O  O3615  1  0.669800  0.324700  0.918100  1
  O  O3616  1  0.330200  0.675300  0.918100  1
  O  O3617  1  0.830200  0.824700  0.918100  1
  O  O3618  1  0.169800  0.175300  0.918100  1
  O  O3619  1  0.830200  0.175300  0.081900  1
  O  O3620  1  0.169800  0.824700  0.081900  1
  O  O3621  1  0.830200  0.324700  0.418100  1
  O  O3622  1  0.169800  0.675300  0.418100  1
  O  O3623  1  0.830200  0.675300  0.581900  1
  O  O3624  1  0.169800  0.324700  0.581900  1
  O  O3625  1  0.330200  0.824700  0.418100  1
  O  O3626  1  0.669800  0.175300  0.418100  1
  O  O3627  1  0.330200  0.175300  0.581900  1
  O  O3628  1  0.669800  0.824700  0.581900  1
  O  O3629  1  0.330200  0.324700  0.918100  1
  O  O3630  1  0.669800  0.675300  0.918100  1
  O  O3631  1  0.330200  0.675300  0.081900  1
  O  O3632  1  0.669800  0.324700  0.081900  1
  O  O3633  1  0.195400  0.196700  0.089900  1
  O  O3634  1  0.804600  0.803300  0.089900  1
  O  O3635  1  0.195400  0.803300  0.910100  1
  O  O3636  1  0.804600  0.196700  0.910100  1
  O  O3637  1  0.195400  0.696700  0.589900  1
  O  O3638  1  0.804600  0.303300  0.589900  1
  O  O3639  1  0.195400  0.303300  0.410100  1
  O  O3640  1  0.804600  0.696700  0.410100  1
  O  O3641  1  0.695400  0.196700  0.589900  1
  O  O3642  1  0.304600  0.803300  0.589900  1
  O  O3643  1  0.695400  0.803300  0.410100  1
  O  O3644  1  0.304600  0.196700  0.410100  1
  O  O3645  1  0.695400  0.696700  0.089900  1
  O  O3646  1  0.304600  0.303300  0.089900  1
  O  O3647  1  0.695400  0.303300  0.910100  1
  O  O3648  1  0.304600  0.696700  0.910100  1
  O  O3649  1  0.804600  0.803300  0.910100  1
  O  O3650  1  0.195400  0.196700  0.910100  1
  O  O3651  1  0.804600  0.196700  0.089900  1
  O  O3652  1  0.195400  0.803300  0.089900  1
  O  O3653  1  0.804600  0.303300  0.410100  1
  O  O3654  1  0.195400  0.696700  0.410100  1
  O  O3655  1  0.804600  0.696700  0.589900  1
  O  O3656  1  0.195400  0.303300  0.589900  1
  O  O3657  1  0.304600  0.803300  0.410100  1
  O  O3658  1  0.695400  0.196700  0.410100  1
  O  O3659  1  0.304600  0.196700  0.589900  1
  O  O3660  1  0.695400  0.803300  0.589900  1
  O  O3661  1  0.304600  0.303300  0.910100  1
  O  O3662  1  0.695400  0.696700  0.910100  1
  O  O3663  1  0.304600  0.696700  0.089900  1
  O  O3664  1  0.695400  0.303300  0.089900  1
  O  O3665  1  0.193000  0.110000  0.160000  1
  O  O3666  1  0.807000  0.890000  0.160000  1
  O  O3667  1  0.193000  0.890000  0.840000  1
  O  O3668  1  0.807000  0.110000  0.840000  1
  O  O3669  1  0.193000  0.610000  0.660000  1
  O  O3670  1  0.807000  0.390000  0.660000  1
  O  O3671  1  0.193000  0.390000  0.340000  1
  O  O3672  1  0.807000  0.610000  0.340000  1
  O  O3673  1  0.693000  0.110000  0.660000  1
  O  O3674  1  0.307000  0.890000  0.660000  1
  O  O3675  1  0.693000  0.890000  0.340000  1
  O  O3676  1  0.307000  0.110000  0.340000  1
  O  O3677  1  0.693000  0.610000  0.160000  1
  O  O3678  1  0.307000  0.390000  0.160000  1
  O  O3679  1  0.693000  0.390000  0.840000  1
  O  O3680  1  0.307000  0.610000  0.840000  1
  O  O3681  1  0.807000  0.890000  0.840000  1
  O  O3682  1  0.193000  0.110000  0.840000  1
  O  O3683  1  0.807000  0.110000  0.160000  1
  O  O3684  1  0.193000  0.890000  0.160000  1
  O  O3685  1  0.807000  0.390000  0.340000  1
  O  O3686  1  0.193000  0.610000  0.340000  1
  O  O3687  1  0.807000  0.610000  0.660000  1
  O  O3688  1  0.193000  0.390000  0.660000  1
  O  O3689  1  0.307000  0.890000  0.340000  1
  O  O3690  1  0.693000  0.110000  0.340000  1
  O  O3691  1  0.307000  0.110000  0.660000  1
  O  O3692  1  0.693000  0.890000  0.660000  1
  O  O3693  1  0.307000  0.390000  0.840000  1
  O  O3694  1  0.693000  0.610000  0.840000  1
  O  O3695  1  0.307000  0.610000  0.160000  1
  O  O3696  1  0.693000  0.390000  0.160000  1
  O  O3697  1  0.150500  0.260000  0.155000  1
  O  O3698  1  0.849500  0.740000  0.155000  1
  O  O3699  1  0.150500  0.740000  0.845000  1
  O  O3700  1  0.849500  0.260000  0.845000  1
  O  O3701  1  0.150500  0.760000  0.655000  1
  O  O3702  1  0.849500  0.240000  0.655000  1
  O  O3703  1  0.150500  0.240000  0.345000  1
  O  O3704  1  0.849500  0.760000  0.345000  1
  O  O3705  1  0.650500  0.260000  0.655000  1
  O  O3706  1  0.349500  0.740000  0.655000  1
  O  O3707  1  0.650500  0.740000  0.345000  1
  O  O3708  1  0.349500  0.260000  0.345000  1
  O  O3709  1  0.650500  0.760000  0.155000  1
  O  O3710  1  0.349500  0.240000  0.155000  1
  O  O3711  1  0.650500  0.240000  0.845000  1
  O  O3712  1  0.349500  0.760000  0.845000  1
  O  O3713  1  0.849500  0.740000  0.845000  1
  O  O3714  1  0.150500  0.260000  0.845000  1
  O  O3715  1  0.849500  0.260000  0.155000  1
  O  O3716  1  0.150500  0.740000  0.155000  1
  O  O3717  1  0.849500  0.240000  0.345000  1
  O  O3718  1  0.150500  0.760000  0.345000  1
  O  O3719  1  0.849500  0.760000  0.655000  1
  O  O3720  1  0.150500  0.240000  0.655000  1
  O  O3721  1  0.349500  0.740000  0.345000  1
  O  O3722  1  0.650500  0.260000  0.345000  1
  O  O3723  1  0.349500  0.260000  0.655000  1
  O  O3724  1  0.650500  0.740000  0.655000  1
  O  O3725  1  0.349500  0.240000  0.845000  1
  O  O3726  1  0.650500  0.760000  0.845000  1
  O  O3727  1  0.349500  0.760000  0.155000  1
  O  O3728  1  0.650500  0.240000  0.155000  1
  O  O3729  1  0.169900  0.277700  0.000000  1
  O  O3730  1  0.830100  0.722300  0.000000  1
  O  O3731  1  0.169900  0.722300  0.000000  1
  O  O3732  1  0.830100  0.277700  0.000000  1
  O  O3733  1  0.169900  0.777700  0.500000  1
  O  O3734  1  0.830100  0.222300  0.500000  1
  O  O3735  1  0.169900  0.222300  0.500000  1
  O  O3736  1  0.830100  0.777700  0.500000  1
  O  O3737  1  0.669900  0.277700  0.500000  1
  O  O3738  1  0.330100  0.722300  0.500000  1
  O  O3739  1  0.669900  0.722300  0.500000  1
  O  O3740  1  0.330100  0.277700  0.500000  1
  O  O3741  1  0.669900  0.777700  0.000000  1
  O  O3742  1  0.330100  0.222300  0.000000  1
  O  O3743  1  0.669900  0.222300  0.000000  1
  O  O3744  1  0.330100  0.777700  0.000000  1
  O  O3745  1  0.144000  0.000000  0.270000  1
  O  O3746  1  0.856000  0.000000  0.270000  1
  O  O3747  1  0.144000  0.000000  0.730000  1
  O  O3748  1  0.856000  0.000000  0.730000  1
  O  O3749  1  0.144000  0.500000  0.770000  1
  O  O3750  1  0.856000  0.500000  0.770000  1
  O  O3751  1  0.144000  0.500000  0.230000  1
  O  O3752  1  0.856000  0.500000  0.230000  1
  O  O3753  1  0.644000  0.000000  0.770000  1
  O  O3754  1  0.356000  0.000000  0.770000  1
  O  O3755  1  0.644000  0.000000  0.230000  1
  O  O3756  1  0.356000  0.000000  0.230000  1
  O  O3757  1  0.644000  0.500000  0.270000  1
  O  O3758  1  0.356000  0.500000  0.270000  1
  O  O3759  1  0.644000  0.500000  0.730000  1
  O  O3760  1  0.356000  0.500000  0.730000  1
  O  O3761  1  0.182000  0.284000  0.386000  1
  O  O3762  1  0.818000  0.716000  0.386000  1
  O  O3763  1  0.182000  0.716000  0.614000  1
  O  O3764  1  0.818000  0.284000  0.614000  1
  O  O3765  1  0.182000  0.784000  0.886000  1
  O  O3766  1  0.818000  0.216000  0.886000  1
  O  O3767  1  0.182000  0.216000  0.114000  1
  O  O3768  1  0.818000  0.784000  0.114000  1
  O  O3769  1  0.682000  0.284000  0.886000  1
  O  O3770  1  0.318000  0.716000  0.886000  1
  O  O3771  1  0.682000  0.716000  0.114000  1
  O  O3772  1  0.318000  0.284000  0.114000  1
  O  O3773  1  0.682000  0.784000  0.386000  1
  O  O3774  1  0.318000  0.216000  0.386000  1
  O  O3775  1  0.682000  0.216000  0.614000  1
  O  O3776  1  0.318000  0.784000  0.614000  1
  O  O3777  1  0.818000  0.716000  0.614000  1
  O  O3778  1  0.182000  0.284000  0.614000  1
  O  O3779  1  0.818000  0.284000  0.386000  1
  O  O3780  1  0.182000  0.716000  0.386000  1
  O  O3781  1  0.818000  0.216000  0.114000  1
  O  O3782  1  0.182000  0.784000  0.114000  1
  O  O3783  1  0.818000  0.784000  0.886000  1
  O  O3784  1  0.182000  0.216000  0.886000  1
  O  O3785  1  0.318000  0.716000  0.114000  1
  O  O3786  1  0.682000  0.284000  0.114000  1
  O  O3787  1  0.318000  0.284000  0.886000  1
  O  O3788  1  0.682000  0.716000  0.886000  1
  O  O3789  1  0.318000  0.216000  0.614000  1
  O  O3790  1  0.682000  0.784000  0.614000  1
  O  O3791  1  0.318000  0.784000  0.386000  1
  O  O3792  1  0.682000  0.216000  0.386000  1
  O  O3793  1  0.250000  0.066000  0.250000  1
  O  O3794  1  0.750000  0.934000  0.250000  1
  O  O3795  1  0.250000  0.934000  0.750000  1
  O  O3796  1  0.750000  0.066000  0.750000  1
  O  O3797  1  0.250000  0.566000  0.750000  1
  O  O3798  1  0.750000  0.434000  0.750000  1
  O  O3799  1  0.250000  0.434000  0.250000  1
  O  O3800  1  0.750000  0.566000  0.250000  1
  O  O3801  1  0.750000  0.934000  0.750000  1
  O  O3802  1  0.250000  0.066000  0.750000  1
  O  O3803  1  0.750000  0.066000  0.250000  1
  O  O3804  1  0.250000  0.934000  0.250000  1
  O  O3805  1  0.750000  0.434000  0.250000  1
  O  O3806  1  0.250000  0.566000  0.250000  1
  O  O3807  1  0.750000  0.566000  0.750000  1
  O  O3808  1  0.250000  0.434000  0.750000  1
  O  O3809  1  0.065700  0.250000  0.250000  1
  O  O3810  1  0.934300  0.750000  0.250000  1
  O  O3811  1  0.065700  0.750000  0.750000  1
  O  O3812  1  0.934300  0.250000  0.750000  1
  O  O3813  1  0.565700  0.250000  0.750000  1
  O  O3814  1  0.434300  0.750000  0.750000  1
  O  O3815  1  0.565700  0.750000  0.250000  1
  O  O3816  1  0.434300  0.250000  0.250000  1
  O  O3817  1  0.934300  0.750000  0.750000  1
  O  O3818  1  0.065700  0.250000  0.750000  1
  O  O3819  1  0.934300  0.250000  0.250000  1
  O  O3820  1  0.065700  0.750000  0.250000  1
  O  O3821  1  0.434300  0.750000  0.250000  1
  O  O3822  1  0.565700  0.250000  0.250000  1
  O  O3823  1  0.434300  0.250000  0.750000  1
  O  O3824  1  0.565700  0.750000  0.750000  1
  O  O3825  1  0.258000  0.372000  0.000000  1
  O  O3826  1  0.742000  0.628000  0.000000  1
  O  O3827  1  0.258000  0.628000  0.000000  1
  O  O3828  1  0.742000  0.372000  0.000000  1
  O  O3829  1  0.258000  0.872000  0.500000  1
  O  O3830  1  0.742000  0.128000  0.500000  1
  O  O3831  1  0.258000  0.128000  0.500000  1
  O  O3832  1  0.742000  0.872000  0.500000  1
  O  O3833  1  0.758000  0.372000  0.500000  1
  O  O3834  1  0.242000  0.628000  0.500000  1
  O  O3835  1  0.758000  0.628000  0.500000  1
  O  O3836  1  0.242000  0.372000  0.500000  1
  O  O3837  1  0.758000  0.872000  0.000000  1
  O  O3838  1  0.242000  0.128000  0.000000  1
  O  O3839  1  0.758000  0.128000  0.000000  1
  O  O3840  1  0.242000  0.872000  0.000000  1
  O  O3841  1  0.102000  0.500000  0.000000  1
  O  O3842  1  0.898000  0.500000  0.000000  1
  O  O3843  1  0.102000  0.000000  0.500000  1
  O  O3844  1  0.898000  0.000000  0.500000  1
  O  O3845  1  0.602000  0.500000  0.500000  1
  O  O3846  1  0.398000  0.500000  0.500000  1
  O  O3847  1  0.602000  0.000000  0.000000  1
  O  O3848  1  0.398000  0.000000  0.000000  1
  O  O3849  1  0.000000  0.402000  0.000000  1
  O  O3850  1  0.000000  0.598000  0.000000  1
  O  O3851  1  0.000000  0.902000  0.500000  1
  O  O3852  1  0.000000  0.098000  0.500000  1
  O  O3853  1  0.500000  0.402000  0.500000  1
  O  O3854  1  0.500000  0.598000  0.500000  1
  O  O3855  1  0.500000  0.902000  0.000000  1
  O  O3856  1  0.500000  0.098000  0.000000  1
  O  O3857  1  0.281000  0.185000  0.107000  1
  O  O3858  1  0.719000  0.815000  0.107000  1
  O  O3859  1  0.281000  0.815000  0.893000  1
  O  O3860  1  0.719000  0.185000  0.893000  1
  O  O3861  1  0.281000  0.685000  0.607000  1
  O  O3862  1  0.719000  0.315000  0.607000  1
  O  O3863  1  0.281000  0.315000  0.393000  1
  O  O3864  1  0.719000  0.685000  0.393000  1
  O  O3865  1  0.781000  0.185000  0.607000  1
  O  O3866  1  0.219000  0.815000  0.607000  1
  O  O3867  1  0.781000  0.815000  0.393000  1
  O  O3868  1  0.219000  0.185000  0.393000  1
  O  O3869  1  0.781000  0.685000  0.107000  1
  O  O3870  1  0.219000  0.315000  0.107000  1
  O  O3871  1  0.781000  0.315000  0.893000  1
  O  O3872  1  0.219000  0.685000  0.893000  1
  O  O3873  1  0.719000  0.815000  0.893000  1
  O  O3874  1  0.281000  0.185000  0.893000  1
  O  O3875  1  0.719000  0.185000  0.107000  1
  O  O3876  1  0.281000  0.815000  0.107000  1
  O  O3877  1  0.719000  0.315000  0.393000  1
  O  O3878  1  0.281000  0.685000  0.393000  1
  O  O3879  1  0.719000  0.685000  0.607000  1
  O  O3880  1  0.281000  0.315000  0.607000  1
  O  O3881  1  0.219000  0.815000  0.393000  1
  O  O3882  1  0.781000  0.185000  0.393000  1
  O  O3883  1  0.219000  0.185000  0.607000  1
  O  O3884  1  0.781000  0.815000  0.607000  1
  O  O3885  1  0.219000  0.315000  0.893000  1
  O  O3886  1  0.781000  0.685000  0.893000  1
  O  O3887  1  0.219000  0.685000  0.107000  1
  O  O3888  1  0.781000  0.315000  0.107000  1
  O  O3889  1  0.308100  0.186000  0.077000  1
  O  O3890  1  0.691900  0.814000  0.077000  1
  O  O3891  1  0.308100  0.814000  0.923000  1
  O  O3892  1  0.691900  0.186000  0.923000  1
  O  O3893  1  0.308100  0.686000  0.577000  1
  O  O3894  1  0.691900  0.314000  0.577000  1
  O  O3895  1  0.308100  0.314000  0.423000  1
  O  O3896  1  0.691900  0.686000  0.423000  1
  O  O3897  1  0.808100  0.186000  0.577000  1
  O  O3898  1  0.191900  0.814000  0.577000  1
  O  O3899  1  0.808100  0.814000  0.423000  1
  O  O3900  1  0.191900  0.186000  0.423000  1
  O  O3901  1  0.808100  0.686000  0.077000  1
  O  O3902  1  0.191900  0.314000  0.077000  1
  O  O3903  1  0.808100  0.314000  0.923000  1
  O  O3904  1  0.191900  0.686000  0.923000  1
  O  O3905  1  0.691900  0.814000  0.923000  1
  O  O3906  1  0.308100  0.186000  0.923000  1
  O  O3907  1  0.691900  0.186000  0.077000  1
  O  O3908  1  0.308100  0.814000  0.077000  1
  O  O3909  1  0.691900  0.314000  0.423000  1
  O  O3910  1  0.308100  0.686000  0.423000  1
  O  O3911  1  0.691900  0.686000  0.577000  1
  O  O3912  1  0.308100  0.314000  0.577000  1
  O  O3913  1  0.191900  0.814000  0.423000  1
  O  O3914  1  0.808100  0.186000  0.423000  1
  O  O3915  1  0.191900  0.186000  0.577000  1
  O  O3916  1  0.808100  0.814000  0.577000  1
  O  O3917  1  0.191900  0.314000  0.923000  1
  O  O3918  1  0.808100  0.686000  0.923000  1
  O  O3919  1  0.191900  0.686000  0.077000  1
  O  O3920  1  0.808100  0.314000  0.077000  1
  O  O3921  1  0.088700  0.307400  0.302600  1
  O  O3922  1  0.911300  0.692600  0.302600  1
  O  O3923  1  0.088700  0.692600  0.697400  1
  O  O3924  1  0.911300  0.307400  0.697400  1
  O  O3925  1  0.088700  0.807400  0.802600  1
  O  O3926  1  0.911300  0.192600  0.802600  1
  O  O3927  1  0.088700  0.192600  0.197400  1
  O  O3928  1  0.911300  0.807400  0.197400  1
  O  O3929  1  0.588700  0.307400  0.802600  1
  O  O3930  1  0.411300  0.692600  0.802600  1
  O  O3931  1  0.588700  0.692600  0.197400  1
  O  O3932  1  0.411300  0.307400  0.197400  1
  O  O3933  1  0.588700  0.807400  0.302600  1
  O  O3934  1  0.411300  0.192600  0.302600  1
  O  O3935  1  0.588700  0.192600  0.697400  1
  O  O3936  1  0.411300  0.807400  0.697400  1
  O  O3937  1  0.911300  0.692600  0.697400  1
  O  O3938  1  0.088700  0.307400  0.697400  1
  O  O3939  1  0.911300  0.307400  0.302600  1
  O  O3940  1  0.088700  0.692600  0.302600  1
  O  O3941  1  0.911300  0.192600  0.197400  1
  O  O3942  1  0.088700  0.807400  0.197400  1
  O  O3943  1  0.911300  0.807400  0.802600  1
  O  O3944  1  0.088700  0.192600  0.802600  1
  O  O3945  1  0.411300  0.692600  0.197400  1
  O  O3946  1  0.588700  0.307400  0.197400  1
  O  O3947  1  0.411300  0.307400  0.802600  1
  O  O3948  1  0.588700  0.692600  0.802600  1
  O  O3949  1  0.411300  0.192600  0.697400  1
  O  O3950  1  0.588700  0.807400  0.697400  1
  O  O3951  1  0.411300  0.807400  0.302600  1
  O  O3952  1  0.588700  0.192600  0.302600  1
  O  O3953  1  0.284700  0.086500  0.208900  1
  O  O3954  1  0.715300  0.913500  0.208900  1
  O  O3955  1  0.284700  0.913500  0.791100  1
  O  O3956  1  0.715300  0.086500  0.791100  1
  O  O3957  1  0.284700  0.586500  0.708900  1
  O  O3958  1  0.715300  0.413500  0.708900  1
  O  O3959  1  0.284700  0.413500  0.291100  1
  O  O3960  1  0.715300  0.586500  0.291100  1
  O  O3961  1  0.784700  0.086500  0.708900  1
  O  O3962  1  0.215300  0.913500  0.708900  1
  O  O3963  1  0.784700  0.913500  0.291100  1
  O  O3964  1  0.215300  0.086500  0.291100  1
  O  O3965  1  0.784700  0.586500  0.208900  1
  O  O3966  1  0.215300  0.413500  0.208900  1
  O  O3967  1  0.784700  0.413500  0.791100  1
  O  O3968  1  0.215300  0.586500  0.791100  1
  O  O3969  1  0.715300  0.913500  0.791100  1
  O  O3970  1  0.284700  0.086500  0.791100  1
  O  O3971  1  0.715300  0.086500  0.208900  1
  O  O3972  1  0.284700  0.913500  0.208900  1
  O  O3973  1  0.715300  0.413500  0.291100  1
  O  O3974  1  0.284700  0.586500  0.291100  1
  O  O3975  1  0.715300  0.586500  0.708900  1
  O  O3976  1  0.284700  0.413500  0.708900  1
  O  O3977  1  0.215300  0.913500  0.291100  1
  O  O3978  1  0.784700  0.086500  0.291100  1
  O  O3979  1  0.215300  0.086500  0.708900  1
  O  O3980  1  0.784700  0.913500  0.708900  1
  O  O3981  1  0.215300  0.413500  0.791100  1
  O  O3982  1  0.784700  0.586500  0.791100  1
  O  O3983  1  0.215300  0.586500  0.208900  1
  O  O3984  1  0.784700  0.413500  0.208900  1
  O  O3985  1  0.226000  0.000000  0.118000  1
  O  O3986  1  0.774000  0.000000  0.118000  1
  O  O3987  1  0.226000  0.000000  0.882000  1
  O  O3988  1  0.774000  0.000000  0.882000  1
  O  O3989  1  0.226000  0.500000  0.618000  1
  O  O3990  1  0.774000  0.500000  0.618000  1
  O  O3991  1  0.226000  0.500000  0.382000  1
  O  O3992  1  0.774000  0.500000  0.382000  1
  O  O3993  1  0.726000  0.000000  0.618000  1
  O  O3994  1  0.274000  0.000000  0.618000  1
  O  O3995  1  0.726000  0.000000  0.382000  1
  O  O3996  1  0.274000  0.000000  0.382000  1
  O  O3997  1  0.726000  0.500000  0.118000  1
  O  O3998  1  0.274000  0.500000  0.118000  1
  O  O3999  1  0.726000  0.500000  0.882000  1
  O  O4000  1  0.274000  0.500000  0.882000  1
  O  O4001  1  0.279000  0.000000  0.165000  1
  O  O4002  1  0.721000  0.000000  0.165000  1
  O  O4003  1  0.279000  0.000000  0.835000  1
  O  O4004  1  0.721000  0.000000  0.835000  1
  O  O4005  1  0.279000  0.500000  0.665000  1
  O  O4006  1  0.721000  0.500000  0.665000  1
  O  O4007  1  0.279000  0.500000  0.335000  1
  O  O4008  1  0.721000  0.500000  0.335000  1
  O  O4009  1  0.779000  0.000000  0.665000  1
  O  O4010  1  0.221000  0.000000  0.665000  1
  O  O4011  1  0.779000  0.000000  0.335000  1
  O  O4012  1  0.221000  0.000000  0.335000  1
  O  O4013  1  0.779000  0.500000  0.165000  1
  O  O4014  1  0.221000  0.500000  0.165000  1
  O  O4015  1  0.779000  0.500000  0.835000  1
  O  O4016  1  0.221000  0.500000  0.835000  1
  O  O4017  1  0.281000  0.161000  0.000000  1
  O  O4018  1  0.719000  0.839000  0.000000  1
  O  O4019  1  0.281000  0.839000  0.000000  1
  O  O4020  1  0.719000  0.161000  0.000000  1
  O  O4021  1  0.281000  0.661000  0.500000  1
  O  O4022  1  0.719000  0.339000  0.500000  1
  O  O4023  1  0.281000  0.339000  0.500000  1
  O  O4024  1  0.719000  0.661000  0.500000  1
  O  O4025  1  0.781000  0.161000  0.500000  1
  O  O4026  1  0.219000  0.839000  0.500000  1
  O  O4027  1  0.781000  0.839000  0.500000  1
  O  O4028  1  0.219000  0.161000  0.500000  1
  O  O4029  1  0.781000  0.661000  0.000000  1
  O  O4030  1  0.219000  0.339000  0.000000  1
  O  O4031  1  0.781000  0.339000  0.000000  1
  O  O4032  1  0.219000  0.661000  0.000000  1
  O  O4033  1  0.163000  0.179000  0.337000  1
  O  O4034  1  0.837000  0.821000  0.337000  1
  O  O4035  1  0.163000  0.821000  0.663000  1
  O  O4036  1  0.837000  0.179000  0.663000  1
  O  O4037  1  0.163000  0.679000  0.837000  1
  O  O4038  1  0.837000  0.321000  0.837000  1
  O  O4039  1  0.163000  0.321000  0.163000  1
  O  O4040  1  0.837000  0.679000  0.163000  1
  O  O4041  1  0.663000  0.179000  0.837000  1
  O  O4042  1  0.337000  0.821000  0.837000  1
  O  O4043  1  0.663000  0.821000  0.163000  1
  O  O4044  1  0.337000  0.179000  0.163000  1
  O  O4045  1  0.663000  0.679000  0.337000  1
  O  O4046  1  0.337000  0.321000  0.337000  1
  O  O4047  1  0.663000  0.321000  0.663000  1
  O  O4048  1  0.337000  0.679000  0.663000  1
  O  O4049  1  0.837000  0.821000  0.663000  1
  O  O4050  1  0.163000  0.179000  0.663000  1
  O  O4051  1  0.837000  0.179000  0.337000  1
  O  O4052  1  0.163000  0.821000  0.337000  1
  O  O4053  1  0.837000  0.321000  0.163000  1
  O  O4054  1  0.163000  0.679000  0.163000  1
  O  O4055  1  0.837000  0.679000  0.837000  1
  O  O4056  1  0.163000  0.321000  0.837000  1
  O  O4057  1  0.337000  0.821000  0.163000  1
  O  O4058  1  0.663000  0.179000  0.163000  1
  O  O4059  1  0.337000  0.179000  0.837000  1
  O  O4060  1  0.663000  0.821000  0.837000  1
  O  O4061  1  0.337000  0.321000  0.663000  1
  O  O4062  1  0.663000  0.679000  0.663000  1
  O  O4063  1  0.337000  0.679000  0.337000  1
  O  O4064  1  0.663000  0.321000  0.337000  1
  O  O4065  1  0.201000  0.167000  0.107000  1
  O  O4066  1  0.799000  0.833000  0.107000  1
  O  O4067  1  0.201000  0.833000  0.893000  1
  O  O4068  1  0.799000  0.167000  0.893000  1
  O  O4069  1  0.201000  0.667000  0.607000  1
  O  O4070  1  0.799000  0.333000  0.607000  1
  O  O4071  1  0.201000  0.333000  0.393000  1
  O  O4072  1  0.799000  0.667000  0.393000  1
  O  O4073  1  0.701000  0.167000  0.607000  1
  O  O4074  1  0.299000  0.833000  0.607000  1
  O  O4075  1  0.701000  0.833000  0.393000  1
  O  O4076  1  0.299000  0.167000  0.393000  1
  O  O4077  1  0.701000  0.667000  0.107000  1
  O  O4078  1  0.299000  0.333000  0.107000  1
  O  O4079  1  0.701000  0.333000  0.893000  1
  O  O4080  1  0.299000  0.667000  0.893000  1
  O  O4081  1  0.799000  0.833000  0.893000  1
  O  O4082  1  0.201000  0.167000  0.893000  1
  O  O4083  1  0.799000  0.167000  0.107000  1
  O  O4084  1  0.201000  0.833000  0.107000  1
  O  O4085  1  0.799000  0.333000  0.393000  1
  O  O4086  1  0.201000  0.667000  0.393000  1
  O  O4087  1  0.799000  0.667000  0.607000  1
  O  O4088  1  0.201000  0.333000  0.607000  1
  O  O4089  1  0.299000  0.833000  0.393000  1
  O  O4090  1  0.701000  0.167000  0.393000  1
  O  O4091  1  0.299000  0.167000  0.607000  1
  O  O4092  1  0.701000  0.833000  0.607000  1
  O  O4093  1  0.299000  0.333000  0.893000  1
  O  O4094  1  0.701000  0.667000  0.893000  1
  O  O4095  1  0.299000  0.667000  0.107000  1
  O  O4096  1  0.701000  0.333000  0.107000  1
  O  O4097  1  0.306000  0.077400  0.187200  1
  O  O4098  1  0.694000  0.922600  0.187200  1
  O  O4099  1  0.306000  0.922600  0.812800  1
  O  O4100  1  0.694000  0.077400  0.812800  1
  O  O4101  1  0.306000  0.577400  0.687200  1
  O  O4102  1  0.694000  0.422600  0.687200  1
  O  O4103  1  0.306000  0.422600  0.312800  1
  O  O4104  1  0.694000  0.577400  0.312800  1
  O  O4105  1  0.806000  0.077400  0.687200  1
  O  O4106  1  0.194000  0.922600  0.687200  1
  O  O4107  1  0.806000  0.922600  0.312800  1
  O  O4108  1  0.194000  0.077400  0.312800  1
  O  O4109  1  0.806000  0.577400  0.187200  1
  O  O4110  1  0.194000  0.422600  0.187200  1
  O  O4111  1  0.806000  0.422600  0.812800  1
  O  O4112  1  0.194000  0.577400  0.812800  1
  O  O4113  1  0.694000  0.922600  0.812800  1
  O  O4114  1  0.306000  0.077400  0.812800  1
  O  O4115  1  0.694000  0.077400  0.187200  1
  O  O4116  1  0.306000  0.922600  0.187200  1
  O  O4117  1  0.694000  0.422600  0.312800  1
  O  O4118  1  0.306000  0.577400  0.312800  1
  O  O4119  1  0.694000  0.577400  0.687200  1
  O  O4120  1  0.306000  0.422600  0.687200  1
  O  O4121  1  0.194000  0.922600  0.312800  1
  O  O4122  1  0.806000  0.077400  0.312800  1
  O  O4123  1  0.194000  0.077400  0.687200  1
  O  O4124  1  0.806000  0.922600  0.687200  1
  O  O4125  1  0.194000  0.422600  0.812800  1
  O  O4126  1  0.806000  0.577400  0.812800  1
  O  O4127  1  0.194000  0.577400  0.187200  1
  O  O4128  1  0.806000  0.422600  0.187200  1
  O  O4129  1  0.087900  0.196000  0.302600  1
  O  O4130  1  0.912100  0.804000  0.302600  1
  O  O4131  1  0.087900  0.804000  0.697400  1
  O  O4132  1  0.912100  0.196000  0.697400  1
  O  O4133  1  0.087900  0.696000  0.802600  1
  O  O4134  1  0.912100  0.304000  0.802600  1
  O  O4135  1  0.087900  0.304000  0.197400  1
  O  O4136  1  0.912100  0.696000  0.197400  1
  O  O4137  1  0.587900  0.196000  0.802600  1
  O  O4138  1  0.412100  0.804000  0.802600  1
  O  O4139  1  0.587900  0.804000  0.197400  1
  O  O4140  1  0.412100  0.196000  0.197400  1
  O  O4141  1  0.587900  0.696000  0.302600  1
  O  O4142  1  0.412100  0.304000  0.302600  1
  O  O4143  1  0.587900  0.304000  0.697400  1
  O  O4144  1  0.412100  0.696000  0.697400  1
  O  O4145  1  0.912100  0.804000  0.697400  1
  O  O4146  1  0.087900  0.196000  0.697400  1
  O  O4147  1  0.912100  0.196000  0.302600  1
  O  O4148  1  0.087900  0.804000  0.302600  1
  O  O4149  1  0.912100  0.304000  0.197400  1
  O  O4150  1  0.087900  0.696000  0.197400  1
  O  O4151  1  0.912100  0.696000  0.802600  1
  O  O4152  1  0.087900  0.304000  0.802600  1
  O  O4153  1  0.412100  0.804000  0.197400  1
  O  O4154  1  0.587900  0.196000  0.197400  1
  O  O4155  1  0.412100  0.196000  0.802600  1
  O  O4156  1  0.587900  0.804000  0.802600  1
  O  O4157  1  0.412100  0.304000  0.697400  1
  O  O4158  1  0.587900  0.696000  0.697400  1
  O  O4159  1  0.412100  0.696000  0.302600  1
  O  O4160  1  0.587900  0.304000  0.302600  1
  O  O4161  1  0.303700  0.108900  0.238000  1
  O  O4162  1  0.696300  0.891100  0.238000  1
  O  O4163  1  0.303700  0.891100  0.762000  1
  O  O4164  1  0.696300  0.108900  0.762000  1
  O  O4165  1  0.303700  0.608900  0.738000  1
  O  O4166  1  0.696300  0.391100  0.738000  1
  O  O4167  1  0.303700  0.391100  0.262000  1
  O  O4168  1  0.696300  0.608900  0.262000  1
  O  O4169  1  0.803700  0.108900  0.738000  1
  O  O4170  1  0.196300  0.891100  0.738000  1
  O  O4171  1  0.803700  0.891100  0.262000  1
  O  O4172  1  0.196300  0.108900  0.262000  1
  O  O4173  1  0.803700  0.608900  0.238000  1
  O  O4174  1  0.196300  0.391100  0.238000  1
  O  O4175  1  0.803700  0.391100  0.762000  1
  O  O4176  1  0.196300  0.608900  0.762000  1
  O  O4177  1  0.696300  0.891100  0.762000  1
  O  O4178  1  0.303700  0.108900  0.762000  1
  O  O4179  1  0.696300  0.108900  0.238000  1
  O  O4180  1  0.303700  0.891100  0.238000  1
  O  O4181  1  0.696300  0.391100  0.262000  1
  O  O4182  1  0.303700  0.608900  0.262000  1
  O  O4183  1  0.696300  0.608900  0.738000  1
  O  O4184  1  0.303700  0.391100  0.738000  1
  O  O4185  1  0.196300  0.891100  0.262000  1
  O  O4186  1  0.803700  0.108900  0.262000  1
  O  O4187  1  0.196300  0.108900  0.738000  1
  O  O4188  1  0.803700  0.891100  0.738000  1
  O  O4189  1  0.196300  0.391100  0.762000  1
  O  O4190  1  0.803700  0.608900  0.762000  1
  O  O4191  1  0.196300  0.608900  0.238000  1
  O  O4192  1  0.803700  0.391100  0.238000  1
  O  O4193  1  0.217600  0.083200  0.222200  1
  O  O4194  1  0.782400  0.916800  0.222200  1
  O  O4195  1  0.217600  0.916800  0.777800  1
  O  O4196  1  0.782400  0.083200  0.777800  1
  O  O4197  1  0.217600  0.583200  0.722200  1
  O  O4198  1  0.782400  0.416800  0.722200  1
  O  O4199  1  0.217600  0.416800  0.277800  1
  O  O4200  1  0.782400  0.583200  0.277800  1
  O  O4201  1  0.717600  0.083200  0.722200  1
  O  O4202  1  0.282400  0.916800  0.722200  1
  O  O4203  1  0.717600  0.916800  0.277800  1
  O  O4204  1  0.282400  0.083200  0.277800  1
  O  O4205  1  0.717600  0.583200  0.222200  1
  O  O4206  1  0.282400  0.416800  0.222200  1
  O  O4207  1  0.717600  0.416800  0.777800  1
  O  O4208  1  0.282400  0.583200  0.777800  1
  O  O4209  1  0.782400  0.916800  0.777800  1
  O  O4210  1  0.217600  0.083200  0.777800  1
  O  O4211  1  0.782400  0.083200  0.222200  1
  O  O4212  1  0.217600  0.916800  0.222200  1
  O  O4213  1  0.782400  0.416800  0.277800  1
  O  O4214  1  0.217600  0.583200  0.277800  1
  O  O4215  1  0.782400  0.583200  0.722200  1
  O  O4216  1  0.217600  0.416800  0.722200  1
  O  O4217  1  0.282400  0.916800  0.277800  1
  O  O4218  1  0.717600  0.083200  0.277800  1
  O  O4219  1  0.282400  0.083200  0.722200  1
  O  O4220  1  0.717600  0.916800  0.722200  1
  O  O4221  1  0.282400  0.416800  0.777800  1
  O  O4222  1  0.717600  0.583200  0.777800  1
  O  O4223  1  0.282400  0.583200  0.222200  1
  O  O4224  1  0.717600  0.416800  0.222200  1
  O  O4225  1  0.000000  0.216000  0.322000  1
  O  O4226  1  0.000000  0.784000  0.322000  1
  O  O4227  1  0.000000  0.784000  0.678000  1
  O  O4228  1  0.000000  0.216000  0.678000  1
  O  O4229  1  0.000000  0.716000  0.822000  1
  O  O4230  1  0.000000  0.284000  0.822000  1
  O  O4231  1  0.000000  0.284000  0.178000  1
  O  O4232  1  0.000000  0.716000  0.178000  1
  O  O4233  1  0.500000  0.216000  0.822000  1
  O  O4234  1  0.500000  0.784000  0.822000  1
  O  O4235  1  0.500000  0.784000  0.178000  1
  O  O4236  1  0.500000  0.216000  0.178000  1
  O  O4237  1  0.500000  0.716000  0.322000  1
  O  O4238  1  0.500000  0.284000  0.322000  1
  O  O4239  1  0.500000  0.284000  0.678000  1
  O  O4240  1  0.500000  0.716000  0.678000  1
  O  O4241  1  0.185000  0.156000  0.339000  1
  O  O4242  1  0.815000  0.844000  0.339000  1
  O  O4243  1  0.185000  0.844000  0.661000  1
  O  O4244  1  0.815000  0.156000  0.661000  1
  O  O4245  1  0.185000  0.656000  0.839000  1
  O  O4246  1  0.815000  0.344000  0.839000  1
  O  O4247  1  0.185000  0.344000  0.161000  1
  O  O4248  1  0.815000  0.656000  0.161000  1
  O  O4249  1  0.685000  0.156000  0.839000  1
  O  O4250  1  0.315000  0.844000  0.839000  1
  O  O4251  1  0.685000  0.844000  0.161000  1
  O  O4252  1  0.315000  0.156000  0.161000  1
  O  O4253  1  0.685000  0.656000  0.339000  1
  O  O4254  1  0.315000  0.344000  0.339000  1
  O  O4255  1  0.685000  0.344000  0.661000  1
  O  O4256  1  0.315000  0.656000  0.661000  1
  O  O4257  1  0.815000  0.844000  0.661000  1
  O  O4258  1  0.185000  0.156000  0.661000  1
  O  O4259  1  0.815000  0.156000  0.339000  1
  O  O4260  1  0.185000  0.844000  0.339000  1
  O  O4261  1  0.815000  0.344000  0.161000  1
  O  O4262  1  0.185000  0.656000  0.161000  1
  O  O4263  1  0.815000  0.656000  0.839000  1
  O  O4264  1  0.185000  0.344000  0.839000  1
  O  O4265  1  0.315000  0.844000  0.161000  1
  O  O4266  1  0.685000  0.156000  0.161000  1
  O  O4267  1  0.315000  0.156000  0.839000  1
  O  O4268  1  0.685000  0.844000  0.839000  1
  O  O4269  1  0.315000  0.344000  0.661000  1
  O  O4270  1  0.685000  0.656000  0.661000  1
  O  O4271  1  0.315000  0.656000  0.339000  1
  O  O4272  1  0.685000  0.344000  0.339000  1
  O  O4273  1  0.154500  0.152000  0.260000  1
  O  O4274  1  0.845500  0.848000  0.260000  1
  O  O4275  1  0.154500  0.848000  0.740000  1
  O  O4276  1  0.845500  0.152000  0.740000  1
  O  O4277  1  0.154500  0.652000  0.760000  1
  O  O4278  1  0.845500  0.348000  0.760000  1
  O  O4279  1  0.154500  0.348000  0.240000  1
  O  O4280  1  0.845500  0.652000  0.240000  1
  O  O4281  1  0.654500  0.152000  0.760000  1
  O  O4282  1  0.345500  0.848000  0.760000  1
  O  O4283  1  0.654500  0.848000  0.240000  1
  O  O4284  1  0.345500  0.152000  0.240000  1
  O  O4285  1  0.654500  0.652000  0.260000  1
  O  O4286  1  0.345500  0.348000  0.260000  1
  O  O4287  1  0.654500  0.348000  0.740000  1
  O  O4288  1  0.345500  0.652000  0.740000  1
  O  O4289  1  0.845500  0.848000  0.740000  1
  O  O4290  1  0.154500  0.152000  0.740000  1
  O  O4291  1  0.845500  0.152000  0.260000  1
  O  O4292  1  0.154500  0.848000  0.260000  1
  O  O4293  1  0.845500  0.348000  0.240000  1
  O  O4294  1  0.154500  0.652000  0.240000  1
  O  O4295  1  0.845500  0.652000  0.760000  1
  O  O4296  1  0.154500  0.348000  0.760000  1
  O  O4297  1  0.345500  0.848000  0.240000  1
  O  O4298  1  0.654500  0.152000  0.240000  1
  O  O4299  1  0.345500  0.152000  0.760000  1
  O  O4300  1  0.654500  0.848000  0.760000  1
  O  O4301  1  0.345500  0.348000  0.740000  1
  O  O4302  1  0.654500  0.652000  0.740000  1
  O  O4303  1  0.345500  0.652000  0.260000  1
  O  O4304  1  0.654500  0.348000  0.260000  1
  O  O4305  1  0.110000  0.158000  0.196000  1
  O  O4306  1  0.890000  0.842000  0.196000  1
  O  O4307  1  0.110000  0.842000  0.804000  1
  O  O4308  1  0.890000  0.158000  0.804000  1
  O  O4309  1  0.110000  0.658000  0.696000  1
  O  O4310  1  0.890000  0.342000  0.696000  1
  O  O4311  1  0.110000  0.342000  0.304000  1
  O  O4312  1  0.890000  0.658000  0.304000  1
  O  O4313  1  0.610000  0.158000  0.696000  1
  O  O4314  1  0.390000  0.842000  0.696000  1
  O  O4315  1  0.610000  0.842000  0.304000  1
  O  O4316  1  0.390000  0.158000  0.304000  1
  O  O4317  1  0.610000  0.658000  0.196000  1
  O  O4318  1  0.390000  0.342000  0.196000  1
  O  O4319  1  0.610000  0.342000  0.804000  1
  O  O4320  1  0.390000  0.658000  0.804000  1
  O  O4321  1  0.890000  0.842000  0.804000  1
  O  O4322  1  0.110000  0.158000  0.804000  1
  O  O4323  1  0.890000  0.158000  0.196000  1
  O  O4324  1  0.110000  0.842000  0.196000  1
  O  O4325  1  0.890000  0.342000  0.304000  1
  O  O4326  1  0.110000  0.658000  0.304000  1
  O  O4327  1  0.890000  0.658000  0.696000  1
  O  O4328  1  0.110000  0.342000  0.696000  1
  O  O4329  1  0.390000  0.842000  0.304000  1
  O  O4330  1  0.610000  0.158000  0.304000  1
  O  O4331  1  0.390000  0.158000  0.696000  1
  O  O4332  1  0.610000  0.842000  0.696000  1
  O  O4333  1  0.390000  0.342000  0.804000  1
  O  O4334  1  0.610000  0.658000  0.804000  1
  O  O4335  1  0.390000  0.658000  0.196000  1
  O  O4336  1  0.610000  0.342000  0.196000  1
  O  O4337  1  0.328000  0.000000  0.219100  1
  O  O4338  1  0.672000  0.000000  0.219100  1
  O  O4339  1  0.328000  0.000000  0.780900  1
  O  O4340  1  0.672000  0.000000  0.780900  1
  O  O4341  1  0.328000  0.500000  0.719100  1
  O  O4342  1  0.672000  0.500000  0.719100  1
  O  O4343  1  0.328000  0.500000  0.280900  1
  O  O4344  1  0.672000  0.500000  0.280900  1
  O  O4345  1  0.828000  0.000000  0.719100  1
  O  O4346  1  0.172000  0.000000  0.719100  1
  O  O4347  1  0.828000  0.000000  0.280900  1
  O  O4348  1  0.172000  0.000000  0.280900  1
  O  O4349  1  0.828000  0.500000  0.219100  1
  O  O4350  1  0.172000  0.500000  0.219100  1
  O  O4351  1  0.828000  0.500000  0.780900  1
  O  O4352  1  0.172000  0.500000  0.780900  1
  O  O4353  1  0.080800  0.279900  0.274700  1
  O  O4354  1  0.919200  0.720100  0.274700  1
  O  O4355  1  0.080800  0.720100  0.725300  1
  O  O4356  1  0.919200  0.279900  0.725300  1
  O  O4357  1  0.080800  0.779900  0.774700  1
  O  O4358  1  0.919200  0.220100  0.774700  1
  O  O4359  1  0.080800  0.220100  0.225300  1
  O  O4360  1  0.919200  0.779900  0.225300  1
  O  O4361  1  0.580800  0.279900  0.774700  1
  O  O4362  1  0.419200  0.720100  0.774700  1
  O  O4363  1  0.580800  0.720100  0.225300  1
  O  O4364  1  0.419200  0.279900  0.225300  1
  O  O4365  1  0.580800  0.779900  0.274700  1
  O  O4366  1  0.419200  0.220100  0.274700  1
  O  O4367  1  0.580800  0.220100  0.725300  1
  O  O4368  1  0.419200  0.779900  0.725300  1
  O  O4369  1  0.919200  0.720100  0.725300  1
  O  O4370  1  0.080800  0.279900  0.725300  1
  O  O4371  1  0.919200  0.279900  0.274700  1
  O  O4372  1  0.080800  0.720100  0.274700  1
  O  O4373  1  0.919200  0.220100  0.225300  1
  O  O4374  1  0.080800  0.779900  0.225300  1
  O  O4375  1  0.919200  0.779900  0.774700  1
  O  O4376  1  0.080800  0.220100  0.774700  1
  O  O4377  1  0.419200  0.720100  0.225300  1
  O  O4378  1  0.580800  0.279900  0.225300  1
  O  O4379  1  0.419200  0.279900  0.774700  1
  O  O4380  1  0.580800  0.720100  0.774700  1
  O  O4381  1  0.419200  0.220100  0.725300  1
  O  O4382  1  0.580800  0.779900  0.725300  1
  O  O4383  1  0.419200  0.779900  0.274700  1
  O  O4384  1  0.580800  0.220100  0.274700  1
  O  O4385  1  0.213000  0.114000  0.000000  1
  O  O4386  1  0.787000  0.886000  0.000000  1
  O  O4387  1  0.213000  0.886000  0.000000  1
  O  O4388  1  0.787000  0.114000  0.000000  1
  O  O4389  1  0.213000  0.614000  0.500000  1
  O  O4390  1  0.787000  0.386000  0.500000  1
  O  O4391  1  0.213000  0.386000  0.500000  1
  O  O4392  1  0.787000  0.614000  0.500000  1
  O  O4393  1  0.713000  0.114000  0.500000  1
  O  O4394  1  0.287000  0.886000  0.500000  1
  O  O4395  1  0.713000  0.886000  0.500000  1
  O  O4396  1  0.287000  0.114000  0.500000  1
  O  O4397  1  0.713000  0.614000  0.000000  1
  O  O4398  1  0.287000  0.386000  0.000000  1
  O  O4399  1  0.713000  0.386000  0.000000  1
  O  O4400  1  0.287000  0.614000  0.000000  1
  O  O4401  1  0.224000  0.000000  0.152000  1
  O  O4402  1  0.776000  0.000000  0.152000  1
  O  O4403  1  0.224000  0.000000  0.848000  1
  O  O4404  1  0.776000  0.000000  0.848000  1
  O  O4405  1  0.224000  0.500000  0.652000  1
  O  O4406  1  0.776000  0.500000  0.652000  1
  O  O4407  1  0.224000  0.500000  0.348000  1
  O  O4408  1  0.776000  0.500000  0.348000  1
  O  O4409  1  0.724000  0.000000  0.652000  1
  O  O4410  1  0.276000  0.000000  0.652000  1
  O  O4411  1  0.724000  0.000000  0.348000  1
  O  O4412  1  0.276000  0.000000  0.348000  1
  O  O4413  1  0.724000  0.500000  0.152000  1
  O  O4414  1  0.276000  0.500000  0.152000  1
  O  O4415  1  0.724000  0.500000  0.848000  1
  O  O4416  1  0.276000  0.500000  0.848000  1
  O  O4417  1  0.158000  0.301000  0.386000  1
  O  O4418  1  0.842000  0.699000  0.386000  1
  O  O4419  1  0.158000  0.699000  0.614000  1
  O  O4420  1  0.842000  0.301000  0.614000  1
  O  O4421  1  0.158000  0.801000  0.886000  1
  O  O4422  1  0.842000  0.199000  0.886000  1
  O  O4423  1  0.158000  0.199000  0.114000  1
  O  O4424  1  0.842000  0.801000  0.114000  1
  O  O4425  1  0.658000  0.301000  0.886000  1
  O  O4426  1  0.342000  0.699000  0.886000  1
  O  O4427  1  0.658000  0.699000  0.114000  1
  O  O4428  1  0.342000  0.301000  0.114000  1
  O  O4429  1  0.658000  0.801000  0.386000  1
  O  O4430  1  0.342000  0.199000  0.386000  1
  O  O4431  1  0.658000  0.199000  0.614000  1
  O  O4432  1  0.342000  0.801000  0.614000  1
  O  O4433  1  0.842000  0.699000  0.614000  1
  O  O4434  1  0.158000  0.301000  0.614000  1
  O  O4435  1  0.842000  0.301000  0.386000  1
  O  O4436  1  0.158000  0.699000  0.386000  1
  O  O4437  1  0.842000  0.199000  0.114000  1
  O  O4438  1  0.158000  0.801000  0.114000  1
  O  O4439  1  0.842000  0.801000  0.886000  1
  O  O4440  1  0.158000  0.199000  0.886000  1
  O  O4441  1  0.342000  0.699000  0.114000  1
  O  O4442  1  0.658000  0.301000  0.114000  1
  O  O4443  1  0.342000  0.301000  0.886000  1
  O  O4444  1  0.658000  0.699000  0.886000  1
  O  O4445  1  0.342000  0.199000  0.614000  1
  O  O4446  1  0.658000  0.801000  0.614000  1
  O  O4447  1  0.342000  0.801000  0.386000  1
  O  O4448  1  0.658000  0.199000  0.386000  1
  O  O4449  1  0.112000  0.232500  0.312500  1
  O  O4450  1  0.888000  0.767500  0.312500  1
  O  O4451  1  0.112000  0.767500  0.687500  1
  O  O4452  1  0.888000  0.232500  0.687500  1
  O  O4453  1  0.112000  0.732500  0.812500  1
  O  O4454  1  0.888000  0.267500  0.812500  1
  O  O4455  1  0.112000  0.267500  0.187500  1
  O  O4456  1  0.888000  0.732500  0.187500  1
  O  O4457  1  0.612000  0.232500  0.812500  1
  O  O4458  1  0.388000  0.767500  0.812500  1
  O  O4459  1  0.612000  0.767500  0.187500  1
  O  O4460  1  0.388000  0.232500  0.187500  1
  O  O4461  1  0.612000  0.732500  0.312500  1
  O  O4462  1  0.388000  0.267500  0.312500  1
  O  O4463  1  0.612000  0.267500  0.687500  1
  O  O4464  1  0.388000  0.732500  0.687500  1
  O  O4465  1  0.888000  0.767500  0.687500  1
  O  O4466  1  0.112000  0.232500  0.687500  1
  O  O4467  1  0.888000  0.232500  0.312500  1
  O  O4468  1  0.112000  0.767500  0.312500  1
  O  O4469  1  0.888000  0.267500  0.187500  1
  O  O4470  1  0.112000  0.732500  0.187500  1
  O  O4471  1  0.888000  0.732500  0.812500  1
  O  O4472  1  0.112000  0.267500  0.812500  1
  O  O4473  1  0.388000  0.767500  0.187500  1
  O  O4474  1  0.612000  0.232500  0.187500  1
  O  O4475  1  0.388000  0.232500  0.812500  1
  O  O4476  1  0.612000  0.767500  0.812500  1
  O  O4477  1  0.388000  0.267500  0.687500  1
  O  O4478  1  0.612000  0.732500  0.687500  1
  O  O4479  1  0.388000  0.732500  0.312500  1
  O  O4480  1  0.612000  0.267500  0.312500  1
  O  O4481  1  0.342000  0.113000  0.304000  1
  O  O4482  1  0.658000  0.887000  0.304000  1
  O  O4483  1  0.342000  0.887000  0.696000  1
  O  O4484  1  0.658000  0.113000  0.696000  1
  O  O4485  1  0.342000  0.613000  0.804000  1
  O  O4486  1  0.658000  0.387000  0.804000  1
  O  O4487  1  0.342000  0.387000  0.196000  1
  O  O4488  1  0.658000  0.613000  0.196000  1
  O  O4489  1  0.842000  0.113000  0.804000  1
  O  O4490  1  0.158000  0.887000  0.804000  1
  O  O4491  1  0.842000  0.887000  0.196000  1
  O  O4492  1  0.158000  0.113000  0.196000  1
  O  O4493  1  0.842000  0.613000  0.304000  1
  O  O4494  1  0.158000  0.387000  0.304000  1
  O  O4495  1  0.842000  0.387000  0.696000  1
  O  O4496  1  0.158000  0.613000  0.696000  1
  O  O4497  1  0.658000  0.887000  0.696000  1
  O  O4498  1  0.342000  0.113000  0.696000  1
  O  O4499  1  0.658000  0.113000  0.304000  1
  O  O4500  1  0.342000  0.887000  0.304000  1
  O  O4501  1  0.658000  0.387000  0.196000  1
  O  O4502  1  0.342000  0.613000  0.196000  1
  O  O4503  1  0.658000  0.613000  0.804000  1
  O  O4504  1  0.342000  0.387000  0.804000  1
  O  O4505  1  0.158000  0.887000  0.196000  1
  O  O4506  1  0.842000  0.113000  0.196000  1
  O  O4507  1  0.158000  0.113000  0.804000  1
  O  O4508  1  0.842000  0.887000  0.804000  1
  O  O4509  1  0.158000  0.387000  0.696000  1
  O  O4510  1  0.842000  0.613000  0.696000  1
  O  O4511  1  0.158000  0.613000  0.304000  1
  O  O4512  1  0.842000  0.387000  0.304000  1
  O  O4513  1  0.115000  0.186000  0.282000  1
  O  O4514  1  0.885000  0.814000  0.282000  1
  O  O4515  1  0.115000  0.814000  0.718000  1
  O  O4516  1  0.885000  0.186000  0.718000  1
  O  O4517  1  0.115000  0.686000  0.782000  1
  O  O4518  1  0.885000  0.314000  0.782000  1
  O  O4519  1  0.115000  0.314000  0.218000  1
  O  O4520  1  0.885000  0.686000  0.218000  1
  O  O4521  1  0.615000  0.186000  0.782000  1
  O  O4522  1  0.385000  0.814000  0.782000  1
  O  O4523  1  0.615000  0.814000  0.218000  1
  O  O4524  1  0.385000  0.186000  0.218000  1
  O  O4525  1  0.615000  0.686000  0.282000  1
  O  O4526  1  0.385000  0.314000  0.282000  1
  O  O4527  1  0.615000  0.314000  0.718000  1
  O  O4528  1  0.385000  0.686000  0.718000  1
  O  O4529  1  0.885000  0.814000  0.718000  1
  O  O4530  1  0.115000  0.186000  0.718000  1
  O  O4531  1  0.885000  0.186000  0.282000  1
  O  O4532  1  0.115000  0.814000  0.282000  1
  O  O4533  1  0.885000  0.314000  0.218000  1
  O  O4534  1  0.115000  0.686000  0.218000  1
  O  O4535  1  0.885000  0.686000  0.782000  1
  O  O4536  1  0.115000  0.314000  0.782000  1
  O  O4537  1  0.385000  0.814000  0.218000  1
  O  O4538  1  0.615000  0.186000  0.218000  1
  O  O4539  1  0.385000  0.186000  0.782000  1
  O  O4540  1  0.615000  0.814000  0.782000  1
  O  O4541  1  0.385000  0.314000  0.718000  1
  O  O4542  1  0.615000  0.686000  0.718000  1
  O  O4543  1  0.385000  0.686000  0.282000  1
  O  O4544  1  0.615000  0.314000  0.282000  1
  O  O4545  1  0.000000  0.263000  0.376900  1
  O  O4546  1  0.000000  0.737000  0.376900  1
  O  O4547  1  0.000000  0.737000  0.623100  1
  O  O4548  1  0.000000  0.263000  0.623100  1
  O  O4549  1  0.000000  0.763000  0.876900  1
  O  O4550  1  0.000000  0.237000  0.876900  1
  O  O4551  1  0.000000  0.237000  0.123100  1
  O  O4552  1  0.000000  0.763000  0.123100  1
  O  O4553  1  0.500000  0.263000  0.876900  1
  O  O4554  1  0.500000  0.737000  0.876900  1
  O  O4555  1  0.500000  0.737000  0.123100  1
  O  O4556  1  0.500000  0.263000  0.123100  1
  O  O4557  1  0.500000  0.763000  0.376900  1
  O  O4558  1  0.500000  0.237000  0.376900  1
  O  O4559  1  0.500000  0.237000  0.623100  1
  O  O4560  1  0.500000  0.763000  0.623100  1
  O  O4561  1  0.122000  0.246000  0.000000  1
  O  O4562  1  0.878000  0.754000  0.000000  1
  O  O4563  1  0.122000  0.754000  0.000000  1
  O  O4564  1  0.878000  0.246000  0.000000  1
  O  O4565  1  0.122000  0.746000  0.500000  1
  O  O4566  1  0.878000  0.254000  0.500000  1
  O  O4567  1  0.122000  0.254000  0.500000  1
  O  O4568  1  0.878000  0.746000  0.500000  1
  O  O4569  1  0.622000  0.246000  0.500000  1
  O  O4570  1  0.378000  0.754000  0.500000  1
  O  O4571  1  0.622000  0.754000  0.500000  1
  O  O4572  1  0.378000  0.246000  0.500000  1
  O  O4573  1  0.622000  0.746000  0.000000  1
  O  O4574  1  0.378000  0.254000  0.000000  1
  O  O4575  1  0.622000  0.254000  0.000000  1
  O  O4576  1  0.378000  0.746000  0.000000  1
  O  O4577  1  0.206000  0.000000  0.018000  1
  O  O4578  1  0.794000  0.000000  0.018000  1
  O  O4579  1  0.206000  0.000000  0.982000  1
  O  O4580  1  0.794000  0.000000  0.982000  1
  O  O4581  1  0.206000  0.500000  0.518000  1
  O  O4582  1  0.794000  0.500000  0.518000  1
  O  O4583  1  0.206000  0.500000  0.482000  1
  O  O4584  1  0.794000  0.500000  0.482000  1
  O  O4585  1  0.706000  0.000000  0.518000  1
  O  O4586  1  0.294000  0.000000  0.518000  1
  O  O4587  1  0.706000  0.000000  0.482000  1
  O  O4588  1  0.294000  0.000000  0.482000  1
  O  O4589  1  0.706000  0.500000  0.018000  1
  O  O4590  1  0.294000  0.500000  0.018000  1
  O  O4591  1  0.706000  0.500000  0.982000  1
  O  O4592  1  0.294000  0.500000  0.982000  1
  O  O4593  1  0.308000  0.108000  0.204000  1
  O  O4594  1  0.692000  0.892000  0.204000  1
  O  O4595  1  0.308000  0.892000  0.796000  1
  O  O4596  1  0.692000  0.108000  0.796000  1
  O  O4597  1  0.308000  0.608000  0.704000  1
  O  O4598  1  0.692000  0.392000  0.704000  1
  O  O4599  1  0.308000  0.392000  0.296000  1
  O  O4600  1  0.692000  0.608000  0.296000  1
  O  O4601  1  0.808000  0.108000  0.704000  1
  O  O4602  1  0.192000  0.892000  0.704000  1
  O  O4603  1  0.808000  0.892000  0.296000  1
  O  O4604  1  0.192000  0.108000  0.296000  1
  O  O4605  1  0.808000  0.608000  0.204000  1
  O  O4606  1  0.192000  0.392000  0.204000  1
  O  O4607  1  0.808000  0.392000  0.796000  1
  O  O4608  1  0.192000  0.608000  0.796000  1
  O  O4609  1  0.692000  0.892000  0.796000  1
  O  O4610  1  0.308000  0.108000  0.796000  1
  O  O4611  1  0.692000  0.108000  0.204000  1
  O  O4612  1  0.308000  0.892000  0.204000  1
  O  O4613  1  0.692000  0.392000  0.296000  1
  O  O4614  1  0.308000  0.608000  0.296000  1
  O  O4615  1  0.692000  0.608000  0.704000  1
  O  O4616  1  0.308000  0.392000  0.704000  1
  O  O4617  1  0.192000  0.892000  0.296000  1
  O  O4618  1  0.808000  0.108000  0.296000  1
  O  O4619  1  0.192000  0.108000  0.704000  1
  O  O4620  1  0.808000  0.892000  0.704000  1
  O  O4621  1  0.192000  0.392000  0.796000  1
  O  O4622  1  0.808000  0.608000  0.796000  1
  O  O4623  1  0.192000  0.608000  0.204000  1
  O  O4624  1  0.808000  0.392000  0.204000  1
  O  O4625  1  0.314000  0.115000  0.280000  1
  O  O4626  1  0.686000  0.885000  0.280000  1
  O  O4627  1  0.314000  0.885000  0.720000  1
  O  O4628  1  0.686000  0.115000  0.720000  1
  O  O4629  1  0.314000  0.615000  0.780000  1
  O  O4630  1  0.686000  0.385000  0.780000  1
  O  O4631  1  0.314000  0.385000  0.220000  1
  O  O4632  1  0.686000  0.615000  0.220000  1
  O  O4633  1  0.814000  0.115000  0.780000  1
  O  O4634  1  0.186000  0.885000  0.780000  1
  O  O4635  1  0.814000  0.885000  0.220000  1
  O  O4636  1  0.186000  0.115000  0.220000  1
  O  O4637  1  0.814000  0.615000  0.280000  1
  O  O4638  1  0.186000  0.385000  0.280000  1
  O  O4639  1  0.814000  0.385000  0.720000  1
  O  O4640  1  0.186000  0.615000  0.720000  1
  O  O4641  1  0.686000  0.885000  0.720000  1
  O  O4642  1  0.314000  0.115000  0.720000  1
  O  O4643  1  0.686000  0.115000  0.280000  1
  O  O4644  1  0.314000  0.885000  0.280000  1
  O  O4645  1  0.686000  0.385000  0.220000  1
  O  O4646  1  0.314000  0.615000  0.220000  1
  O  O4647  1  0.686000  0.615000  0.780000  1
  O  O4648  1  0.314000  0.385000  0.780000  1
  O  O4649  1  0.186000  0.885000  0.220000  1
  O  O4650  1  0.814000  0.115000  0.220000  1
  O  O4651  1  0.186000  0.115000  0.780000  1
  O  O4652  1  0.814000  0.885000  0.780000  1
  O  O4653  1  0.186000  0.385000  0.720000  1
  O  O4654  1  0.814000  0.615000  0.720000  1
  O  O4655  1  0.186000  0.615000  0.280000  1
  O  O4656  1  0.814000  0.385000  0.280000  1
  O  O4657  1  0.108000  0.500000  0.281000  1
  O  O4658  1  0.892000  0.500000  0.281000  1
  O  O4659  1  0.108000  0.500000  0.719000  1
  O  O4660  1  0.892000  0.500000  0.719000  1
  O  O4661  1  0.108000  0.000000  0.781000  1
  O  O4662  1  0.892000  0.000000  0.781000  1
  O  O4663  1  0.108000  0.000000  0.219000  1
  O  O4664  1  0.892000  0.000000  0.219000  1
  O  O4665  1  0.608000  0.500000  0.781000  1
  O  O4666  1  0.392000  0.500000  0.781000  1
  O  O4667  1  0.608000  0.500000  0.219000  1
  O  O4668  1  0.392000  0.500000  0.219000  1
  O  O4669  1  0.608000  0.000000  0.281000  1
  O  O4670  1  0.392000  0.000000  0.281000  1
  O  O4671  1  0.608000  0.000000  0.719000  1
  O  O4672  1  0.392000  0.000000  0.719000  1
  O  O4673  1  0.000000  0.169000  0.280400  1
  O  O4674  1  0.000000  0.831000  0.280400  1
  O  O4675  1  0.000000  0.831000  0.719600  1
  O  O4676  1  0.000000  0.169000  0.719600  1
  O  O4677  1  0.000000  0.669000  0.780400  1
  O  O4678  1  0.000000  0.331000  0.780400  1
  O  O4679  1  0.000000  0.331000  0.219600  1
  O  O4680  1  0.000000  0.669000  0.219600  1
  O  O4681  1  0.500000  0.169000  0.780400  1
  O  O4682  1  0.500000  0.831000  0.780400  1
  O  O4683  1  0.500000  0.831000  0.219600  1
  O  O4684  1  0.500000  0.169000  0.219600  1
  O  O4685  1  0.500000  0.669000  0.280400  1
  O  O4686  1  0.500000  0.331000  0.280400  1
  O  O4687  1  0.500000  0.331000  0.719600  1
  O  O4688  1  0.500000  0.669000  0.719600  1
  O  O4689  1  0.000000  0.295000  0.381000  1
  O  O4690  1  0.000000  0.705000  0.381000  1
  O  O4691  1  0.000000  0.705000  0.619000  1
  O  O4692  1  0.000000  0.295000  0.619000  1
  O  O4693  1  0.000000  0.795000  0.881000  1
  O  O4694  1  0.000000  0.205000  0.881000  1
  O  O4695  1  0.000000  0.205000  0.119000  1
  O  O4696  1  0.000000  0.795000  0.119000  1
  O  O4697  1  0.500000  0.295000  0.881000  1
  O  O4698  1  0.500000  0.705000  0.881000  1
  O  O4699  1  0.500000  0.705000  0.119000  1
  O  O4700  1  0.500000  0.295000  0.119000  1
  O  O4701  1  0.500000  0.795000  0.381000  1
  O  O4702  1  0.500000  0.205000  0.381000  1
  O  O4703  1  0.500000  0.205000  0.619000  1
  O  O4704  1  0.500000  0.795000  0.619000  1
  O  O4705  1  0.250000  0.250000  0.068700  1
  O  O4706  1  0.750000  0.750000  0.068700  1
  O  O4707  1  0.250000  0.750000  0.931300  1
  O  O4708  1  0.750000  0.250000  0.931300  1
  O  O4709  1  0.250000  0.750000  0.568700  1
  O  O4710  1  0.750000  0.250000  0.568700  1
  O  O4711  1  0.250000  0.250000  0.431300  1
  O  O4712  1  0.750000  0.750000  0.431300  1
  O  O4713  1  0.750000  0.750000  0.931300  1
  O  O4714  1  0.250000  0.250000  0.931300  1
  O  O4715  1  0.750000  0.250000  0.068700  1
  O  O4716  1  0.250000  0.750000  0.068700  1
  O  O4717  1  0.750000  0.250000  0.431300  1
  O  O4718  1  0.250000  0.750000  0.431300  1
  O  O4719  1  0.750000  0.750000  0.568700  1
  O  O4720  1  0.250000  0.250000  0.568700  1
  O  O4721  1  0.000000  0.203000  0.292000  1
  O  O4722  1  0.000000  0.797000  0.292000  1
  O  O4723  1  0.000000  0.797000  0.708000  1
  O  O4724  1  0.000000  0.203000  0.708000  1
  O  O4725  1  0.000000  0.703000  0.792000  1
  O  O4726  1  0.000000  0.297000  0.792000  1
  O  O4727  1  0.000000  0.297000  0.208000  1
  O  O4728  1  0.000000  0.703000  0.208000  1
  O  O4729  1  0.500000  0.203000  0.792000  1
  O  O4730  1  0.500000  0.797000  0.792000  1
  O  O4731  1  0.500000  0.797000  0.208000  1
  O  O4732  1  0.500000  0.203000  0.208000  1
  O  O4733  1  0.500000  0.703000  0.292000  1
  O  O4734  1  0.500000  0.297000  0.292000  1
  O  O4735  1  0.500000  0.297000  0.708000  1
  O  O4736  1  0.500000  0.703000  0.708000  1
  O  O4737  1  0.203000  0.000000  0.303000  1
  O  O4738  1  0.797000  0.000000  0.303000  1
  O  O4739  1  0.203000  0.000000  0.697000  1
  O  O4740  1  0.797000  0.000000  0.697000  1
  O  O4741  1  0.203000  0.500000  0.803000  1
  O  O4742  1  0.797000  0.500000  0.803000  1
  O  O4743  1  0.203000  0.500000  0.197000  1
  O  O4744  1  0.797000  0.500000  0.197000  1
  O  O4745  1  0.703000  0.000000  0.803000  1
  O  O4746  1  0.297000  0.000000  0.803000  1
  O  O4747  1  0.703000  0.000000  0.197000  1
  O  O4748  1  0.297000  0.000000  0.197000  1
  O  O4749  1  0.703000  0.500000  0.303000  1
  O  O4750  1  0.297000  0.500000  0.303000  1
  O  O4751  1  0.703000  0.500000  0.697000  1
  O  O4752  1  0.297000  0.500000  0.697000  1
  O  O4753  1  0.000000  0.145000  0.255000  1
  O  O4754  1  0.000000  0.855000  0.255000  1
  O  O4755  1  0.000000  0.855000  0.745000  1
  O  O4756  1  0.000000  0.145000  0.745000  1
  O  O4757  1  0.000000  0.645000  0.755000  1
  O  O4758  1  0.000000  0.355000  0.755000  1
  O  O4759  1  0.000000  0.355000  0.245000  1
  O  O4760  1  0.000000  0.645000  0.245000  1
  O  O4761  1  0.500000  0.145000  0.755000  1
  O  O4762  1  0.500000  0.855000  0.755000  1
  O  O4763  1  0.500000  0.855000  0.245000  1
  O  O4764  1  0.500000  0.145000  0.245000  1
  O  O4765  1  0.500000  0.645000  0.255000  1
  O  O4766  1  0.500000  0.355000  0.255000  1
  O  O4767  1  0.500000  0.355000  0.745000  1
  O  O4768  1  0.500000  0.645000  0.745000  1
  O  O4769  1  0.986100  0.139000  0.279000  1
  O  O4770  1  0.013900  0.861000  0.279000  1
  O  O4771  1  0.986100  0.861000  0.721000  1
  O  O4772  1  0.013900  0.139000  0.721000  1
  O  O4773  1  0.986100  0.639000  0.779000  1
  O  O4774  1  0.013900  0.361000  0.779000  1
  O  O4775  1  0.986100  0.361000  0.221000  1
  O  O4776  1  0.013900  0.639000  0.221000  1
  O  O4777  1  0.486100  0.139000  0.779000  1
  O  O4778  1  0.513900  0.861000  0.779000  1
  O  O4779  1  0.486100  0.861000  0.221000  1
  O  O4780  1  0.513900  0.139000  0.221000  1
  O  O4781  1  0.486100  0.639000  0.279000  1
  O  O4782  1  0.513900  0.361000  0.279000  1
  O  O4783  1  0.486100  0.361000  0.721000  1
  O  O4784  1  0.513900  0.639000  0.721000  1
  O  O4785  1  0.013900  0.861000  0.721000  1
  O  O4786  1  0.986100  0.139000  0.721000  1
  O  O4787  1  0.013900  0.139000  0.279000  1
  O  O4788  1  0.986100  0.861000  0.279000  1
  O  O4789  1  0.013900  0.361000  0.221000  1
  O  O4790  1  0.986100  0.639000  0.221000  1
  O  O4791  1  0.013900  0.639000  0.779000  1
  O  O4792  1  0.986100  0.361000  0.779000  1
  O  O4793  1  0.513900  0.861000  0.221000  1
  O  O4794  1  0.486100  0.139000  0.221000  1
  O  O4795  1  0.513900  0.139000  0.779000  1
  O  O4796  1  0.486100  0.861000  0.779000  1
  O  O4797  1  0.513900  0.361000  0.721000  1
  O  O4798  1  0.486100  0.639000  0.721000  1
  O  O4799  1  0.513900  0.639000  0.279000  1
  O  O4800  1  0.486100  0.361000  0.279000  1
  O  O4801  1  0.000000  0.145800  0.144000  1
  O  O4802  1  0.000000  0.854200  0.144000  1
  O  O4803  1  0.000000  0.854200  0.856000  1
  O  O4804  1  0.000000  0.145800  0.856000  1
  O  O4805  1  0.000000  0.645800  0.644000  1
  O  O4806  1  0.000000  0.354200  0.644000  1
  O  O4807  1  0.000000  0.354200  0.356000  1
  O  O4808  1  0.000000  0.645800  0.356000  1
  O  O4809  1  0.500000  0.145800  0.644000  1
  O  O4810  1  0.500000  0.854200  0.644000  1
  O  O4811  1  0.500000  0.854200  0.356000  1
  O  O4812  1  0.500000  0.145800  0.356000  1
  O  O4813  1  0.500000  0.645800  0.144000  1
  O  O4814  1  0.500000  0.354200  0.144000  1
  O  O4815  1  0.500000  0.354200  0.856000  1
  O  O4816  1  0.500000  0.645800  0.856000  1
  O  O4817  1  0.000000  0.115000  0.221000  1
  O  O4818  1  0.000000  0.885000  0.221000  1
  O  O4819  1  0.000000  0.885000  0.779000  1
  O  O4820  1  0.000000  0.115000  0.779000  1
  O  O4821  1  0.000000  0.615000  0.721000  1
  O  O4822  1  0.000000  0.385000  0.721000  1
  O  O4823  1  0.000000  0.385000  0.279000  1
  O  O4824  1  0.000000  0.615000  0.279000  1
  O  O4825  1  0.500000  0.115000  0.721000  1
  O  O4826  1  0.500000  0.885000  0.721000  1
  O  O4827  1  0.500000  0.885000  0.279000  1
  O  O4828  1  0.500000  0.115000  0.279000  1
  O  O4829  1  0.500000  0.615000  0.221000  1
  O  O4830  1  0.500000  0.385000  0.221000  1
  O  O4831  1  0.500000  0.385000  0.779000  1
  O  O4832  1  0.500000  0.615000  0.779000  1
  O  O4833  1  0.000000  0.125000  0.247000  1
  O  O4834  1  0.000000  0.875000  0.247000  1
  O  O4835  1  0.000000  0.875000  0.753000  1
  O  O4836  1  0.000000  0.125000  0.753000  1
  O  O4837  1  0.000000  0.625000  0.747000  1
  O  O4838  1  0.000000  0.375000  0.747000  1
  O  O4839  1  0.000000  0.375000  0.253000  1
  O  O4840  1  0.000000  0.625000  0.253000  1
  O  O4841  1  0.500000  0.125000  0.747000  1
  O  O4842  1  0.500000  0.875000  0.747000  1
  O  O4843  1  0.500000  0.875000  0.253000  1
  O  O4844  1  0.500000  0.125000  0.253000  1
  O  O4845  1  0.500000  0.625000  0.247000  1
  O  O4846  1  0.500000  0.375000  0.247000  1
  O  O4847  1  0.500000  0.375000  0.753000  1
  O  O4848  1  0.500000  0.625000  0.753000  1
  O  O4849  1  0.259000  0.000000  0.149000  1
  O  O4850  1  0.741000  0.000000  0.149000  1
  O  O4851  1  0.259000  0.000000  0.851000  1
  O  O4852  1  0.741000  0.000000  0.851000  1
  O  O4853  1  0.259000  0.500000  0.649000  1
  O  O4854  1  0.741000  0.500000  0.649000  1
  O  O4855  1  0.259000  0.500000  0.351000  1
  O  O4856  1  0.741000  0.500000  0.351000  1
  O  O4857  1  0.759000  0.000000  0.649000  1
  O  O4858  1  0.241000  0.000000  0.649000  1
  O  O4859  1  0.759000  0.000000  0.351000  1
  O  O4860  1  0.241000  0.000000  0.351000  1
  O  O4861  1  0.759000  0.500000  0.149000  1
  O  O4862  1  0.241000  0.500000  0.149000  1
  O  O4863  1  0.759000  0.500000  0.851000  1
  O  O4864  1  0.241000  0.500000  0.851000  1
  O  O4865  1  0.251000  0.000000  0.129000  1
  O  O4866  1  0.749000  0.000000  0.129000  1
  O  O4867  1  0.251000  0.000000  0.871000  1
  O  O4868  1  0.749000  0.000000  0.871000  1
  O  O4869  1  0.251000  0.500000  0.629000  1
  O  O4870  1  0.749000  0.500000  0.629000  1
  O  O4871  1  0.251000  0.500000  0.371000  1
  O  O4872  1  0.749000  0.500000  0.371000  1
  O  O4873  1  0.751000  0.000000  0.629000  1
  O  O4874  1  0.249000  0.000000  0.629000  1
  O  O4875  1  0.751000  0.000000  0.371000  1
  O  O4876  1  0.249000  0.000000  0.371000  1
  O  O4877  1  0.751000  0.500000  0.129000  1
  O  O4878  1  0.249000  0.500000  0.129000  1
  O  O4879  1  0.751000  0.500000  0.871000  1
  O  O4880  1  0.249000  0.500000  0.871000  1
  O  O4881  1  0.294300  0.202300  0.987200  1
  O  O4882  1  0.705700  0.797700  0.987200  1
  O  O4883  1  0.294300  0.797700  0.012800  1
  O  O4884  1  0.705700  0.202300  0.012800  1
  O  O4885  1  0.294300  0.702300  0.487200  1
  O  O4886  1  0.705700  0.297700  0.487200  1
  O  O4887  1  0.294300  0.297700  0.512800  1
  O  O4888  1  0.705700  0.702300  0.512800  1
  O  O4889  1  0.794300  0.202300  0.487200  1
  O  O4890  1  0.205700  0.797700  0.487200  1
  O  O4891  1  0.794300  0.797700  0.512800  1
  O  O4892  1  0.205700  0.202300  0.512800  1
  O  O4893  1  0.794300  0.702300  0.987200  1
  O  O4894  1  0.205700  0.297700  0.987200  1
  O  O4895  1  0.794300  0.297700  0.012800  1
  O  O4896  1  0.205700  0.702300  0.012800  1
  O  O4897  1  0.705700  0.797700  0.012800  1
  O  O4898  1  0.294300  0.202300  0.012800  1
  O  O4899  1  0.705700  0.202300  0.987200  1
  O  O4900  1  0.294300  0.797700  0.987200  1
  O  O4901  1  0.705700  0.297700  0.512800  1
  O  O4902  1  0.294300  0.702300  0.512800  1
  O  O4903  1  0.705700  0.702300  0.487200  1
  O  O4904  1  0.294300  0.297700  0.487200  1
  O  O4905  1  0.205700  0.797700  0.512800  1
  O  O4906  1  0.794300  0.202300  0.512800  1
  O  O4907  1  0.205700  0.202300  0.487200  1
  O  O4908  1  0.794300  0.797700  0.487200  1
  O  O4909  1  0.205700  0.297700  0.012800  1
  O  O4910  1  0.794300  0.702300  0.012800  1
  O  O4911  1  0.205700  0.702300  0.987200  1
  O  O4912  1  0.794300  0.297700  0.987200  1
  O  O4913  1  0.301000  0.201000  0.094000  1
  O  O4914  1  0.699000  0.799000  0.094000  1
  O  O4915  1  0.301000  0.799000  0.906000  1
  O  O4916  1  0.699000  0.201000  0.906000  1
  O  O4917  1  0.301000  0.701000  0.594000  1
  O  O4918  1  0.699000  0.299000  0.594000  1
  O  O4919  1  0.301000  0.299000  0.406000  1
  O  O4920  1  0.699000  0.701000  0.406000  1
  O  O4921  1  0.801000  0.201000  0.594000  1
  O  O4922  1  0.199000  0.799000  0.594000  1
  O  O4923  1  0.801000  0.799000  0.406000  1
  O  O4924  1  0.199000  0.201000  0.406000  1
  O  O4925  1  0.801000  0.701000  0.094000  1
  O  O4926  1  0.199000  0.299000  0.094000  1
  O  O4927  1  0.801000  0.299000  0.906000  1
  O  O4928  1  0.199000  0.701000  0.906000  1
  O  O4929  1  0.699000  0.799000  0.906000  1
  O  O4930  1  0.301000  0.201000  0.906000  1
  O  O4931  1  0.699000  0.201000  0.094000  1
  O  O4932  1  0.301000  0.799000  0.094000  1
  O  O4933  1  0.699000  0.299000  0.406000  1
  O  O4934  1  0.301000  0.701000  0.406000  1
  O  O4935  1  0.699000  0.701000  0.594000  1
  O  O4936  1  0.301000  0.299000  0.594000  1
  O  O4937  1  0.199000  0.799000  0.406000  1
  O  O4938  1  0.801000  0.201000  0.406000  1
  O  O4939  1  0.199000  0.201000  0.594000  1
  O  O4940  1  0.801000  0.799000  0.594000  1
  O  O4941  1  0.199000  0.299000  0.906000  1
  O  O4942  1  0.801000  0.701000  0.906000  1
  O  O4943  1  0.199000  0.701000  0.094000  1
  O  O4944  1  0.801000  0.299000  0.094000  1
  O  O4945  1  0.236000  0.363000  0.000000  1
  O  O4946  1  0.764000  0.637000  0.000000  1
  O  O4947  1  0.236000  0.637000  0.000000  1
  O  O4948  1  0.764000  0.363000  0.000000  1
  O  O4949  1  0.236000  0.863000  0.500000  1
  O  O4950  1  0.764000  0.137000  0.500000  1
  O  O4951  1  0.236000  0.137000  0.500000  1
  O  O4952  1  0.764000  0.863000  0.500000  1
  O  O4953  1  0.736000  0.363000  0.500000  1
  O  O4954  1  0.264000  0.637000  0.500000  1
  O  O4955  1  0.736000  0.637000  0.500000  1
  O  O4956  1  0.264000  0.363000  0.500000  1
  O  O4957  1  0.736000  0.863000  0.000000  1
  O  O4958  1  0.264000  0.137000  0.000000  1
  O  O4959  1  0.736000  0.137000  0.000000  1
  O  O4960  1  0.264000  0.863000  0.000000  1
  O  O4961  1  0.266000  0.111000  0.193000  1
  O  O4962  1  0.734000  0.889000  0.193000  1
  O  O4963  1  0.266000  0.889000  0.807000  1
  O  O4964  1  0.734000  0.111000  0.807000  1
  O  O4965  1  0.266000  0.611000  0.693000  1
  O  O4966  1  0.734000  0.389000  0.693000  1
  O  O4967  1  0.266000  0.389000  0.307000  1
  O  O4968  1  0.734000  0.611000  0.307000  1
  O  O4969  1  0.766000  0.111000  0.693000  1
  O  O4970  1  0.234000  0.889000  0.693000  1
  O  O4971  1  0.766000  0.889000  0.307000  1
  O  O4972  1  0.234000  0.111000  0.307000  1
  O  O4973  1  0.766000  0.611000  0.193000  1
  O  O4974  1  0.234000  0.389000  0.193000  1
  O  O4975  1  0.766000  0.389000  0.807000  1
  O  O4976  1  0.234000  0.611000  0.807000  1
  O  O4977  1  0.734000  0.889000  0.807000  1
  O  O4978  1  0.266000  0.111000  0.807000  1
  O  O4979  1  0.734000  0.111000  0.193000  1
  O  O4980  1  0.266000  0.889000  0.193000  1
  O  O4981  1  0.734000  0.389000  0.307000  1
  O  O4982  1  0.266000  0.611000  0.307000  1
  O  O4983  1  0.734000  0.611000  0.693000  1
  O  O4984  1  0.266000  0.389000  0.693000  1
  O  O4985  1  0.234000  0.889000  0.307000  1
  O  O4986  1  0.766000  0.111000  0.307000  1
  O  O4987  1  0.234000  0.111000  0.693000  1
  O  O4988  1  0.766000  0.889000  0.693000  1
  O  O4989  1  0.234000  0.389000  0.807000  1
  O  O4990  1  0.766000  0.611000  0.807000  1
  O  O4991  1  0.234000  0.611000  0.193000  1
  O  O4992  1  0.766000  0.389000  0.193000  1
  O  O4993  1  0.130200  0.000000  0.249000  1
  O  O4994  1  0.869800  0.000000  0.249000  1
  O  O4995  1  0.130200  0.000000  0.751000  1
  O  O4996  1  0.869800  0.000000  0.751000  1
  O  O4997  1  0.130200  0.500000  0.749000  1
  O  O4998  1  0.869800  0.500000  0.749000  1
  O  O4999  1  0.130200  0.500000  0.251000  1
  O  O5000  1  0.869800  0.500000  0.251000  1
  O  O5001  1  0.630200  0.000000  0.749000  1
  O  O5002  1  0.369800  0.000000  0.749000  1
  O  O5003  1  0.630200  0.000000  0.251000  1
  O  O5004  1  0.369800  0.000000  0.251000  1
  O  O5005  1  0.630200  0.500000  0.249000  1
  O  O5006  1  0.369800  0.500000  0.249000  1
  O  O5007  1  0.630200  0.500000  0.751000  1
  O  O5008  1  0.369800  0.500000  0.751000  1
  O  O5009  1  0.137700  0.264000  0.000000  1
  O  O5010  1  0.862300  0.736000  0.000000  1
  O  O5011  1  0.137700  0.736000  0.000000  1
  O  O5012  1  0.862300  0.264000  0.000000  1
  O  O5013  1  0.137700  0.764000  0.500000  1
  O  O5014  1  0.862300  0.236000  0.500000  1
  O  O5015  1  0.137700  0.236000  0.500000  1
  O  O5016  1  0.862300  0.764000  0.500000  1
  O  O5017  1  0.637700  0.264000  0.500000  1
  O  O5018  1  0.362300  0.736000  0.500000  1
  O  O5019  1  0.637700  0.736000  0.500000  1
  O  O5020  1  0.362300  0.264000  0.500000  1
  O  O5021  1  0.637700  0.764000  0.000000  1
  O  O5022  1  0.362300  0.236000  0.000000  1
  O  O5023  1  0.637700  0.236000  0.000000  1
  O  O5024  1  0.362300  0.764000  0.000000  1
  F  F5025  1  0.162800  0.161400  0.000000  1
  F  F5026  1  0.837200  0.838600  0.000000  1
  F  F5027  1  0.162800  0.838600  0.000000  1
  F  F5028  1  0.837200  0.161400  0.000000  1
  F  F5029  1  0.162800  0.661400  0.500000  1
  F  F5030  1  0.837200  0.338600  0.500000  1
  F  F5031  1  0.162800  0.338600  0.500000  1
  F  F5032  1  0.837200  0.661400  0.500000  1
  F  F5033  1  0.662800  0.161400  0.500000  1
  F  F5034  1  0.337200  0.838600  0.500000  1
  F  F5035  1  0.662800  0.838600  0.500000  1
  F  F5036  1  0.337200  0.161400  0.500000  1
  F  F5037  1  0.662800  0.661400  0.000000  1
  F  F5038  1  0.337200  0.338600  0.000000  1
  F  F5039  1  0.662800  0.338600  0.000000  1
  F  F5040  1  0.337200  0.661400  0.000000  1
  F  F5041  1  0.232000  0.990500  0.264000  1
  F  F5042  1  0.768000  0.009500  0.264000  1
  F  F5043  1  0.232000  0.009500  0.736000  1
  F  F5044  1  0.768000  0.990500  0.736000  1
  F  F5045  1  0.232000  0.490500  0.764000  1
  F  F5046  1  0.768000  0.509500  0.764000  1
  F  F5047  1  0.232000  0.509500  0.236000  1
  F  F5048  1  0.768000  0.490500  0.236000  1
  F  F5049  1  0.732000  0.990500  0.764000  1
  F  F5050  1  0.268000  0.009500  0.764000  1
  F  F5051  1  0.732000  0.009500  0.236000  1
  F  F5052  1  0.268000  0.990500  0.236000  1
  F  F5053  1  0.732000  0.490500  0.264000  1
  F  F5054  1  0.268000  0.509500  0.264000  1
  F  F5055  1  0.732000  0.509500  0.736000  1
  F  F5056  1  0.268000  0.490500  0.736000  1
  F  F5057  1  0.768000  0.009500  0.736000  1
  F  F5058  1  0.232000  0.990500  0.736000  1
  F  F5059  1  0.768000  0.990500  0.264000  1
  F  F5060  1  0.232000  0.009500  0.264000  1
  F  F5061  1  0.768000  0.509500  0.236000  1
  F  F5062  1  0.232000  0.490500  0.236000  1
  F  F5063  1  0.768000  0.490500  0.764000  1
  F  F5064  1  0.232000  0.509500  0.764000  1
  F  F5065  1  0.268000  0.009500  0.236000  1
  F  F5066  1  0.732000  0.990500  0.236000  1
  F  F5067  1  0.268000  0.990500  0.764000  1
  F  F5068  1  0.732000  0.009500  0.764000  1
  F  F5069  1  0.268000  0.509500  0.736000  1
  F  F5070  1  0.732000  0.490500  0.736000  1
  F  F5071  1  0.268000  0.490500  0.264000  1
  F  F5072  1  0.732000  0.509500  0.264000  1
  F  F5073  1  0.255800  0.992400  0.266000  1
  F  F5074  1  0.744200  0.007600  0.266000  1
  F  F5075  1  0.255800  0.007600  0.734000  1
  F  F5076  1  0.744200  0.992400  0.734000  1
  F  F5077  1  0.255800  0.492400  0.766000  1
  F  F5078  1  0.744200  0.507600  0.766000  1
  F  F5079  1  0.255800  0.507600  0.234000  1
  F  F5080  1  0.744200  0.492400  0.234000  1
  F  F5081  1  0.755800  0.992400  0.766000  1
  F  F5082  1  0.244200  0.007600  0.766000  1
  F  F5083  1  0.755800  0.007600  0.234000  1
  F  F5084  1  0.244200  0.992400  0.234000  1
  F  F5085  1  0.755800  0.492400  0.266000  1
  F  F5086  1  0.244200  0.507600  0.266000  1
  F  F5087  1  0.755800  0.507600  0.734000  1
  F  F5088  1  0.244200  0.492400  0.734000  1
  F  F5089  1  0.744200  0.007600  0.734000  1
  F  F5090  1  0.255800  0.992400  0.734000  1
  F  F5091  1  0.744200  0.992400  0.266000  1
  F  F5092  1  0.255800  0.007600  0.266000  1
  F  F5093  1  0.744200  0.507600  0.234000  1
  F  F5094  1  0.255800  0.492400  0.234000  1
  F  F5095  1  0.744200  0.492400  0.766000  1
  F  F5096  1  0.255800  0.507600  0.766000  1
  F  F5097  1  0.244200  0.007600  0.234000  1
  F  F5098  1  0.755800  0.992400  0.234000  1
  F  F5099  1  0.244200  0.992400  0.766000  1
  F  F5100  1  0.755800  0.007600  0.766000  1
  F  F5101  1  0.244200  0.507600  0.734000  1
  F  F5102  1  0.755800  0.492400  0.734000  1
  F  F5103  1  0.244200  0.492400  0.266000  1
  F  F5104  1  0.755800  0.507600  0.266000  1
  F  F5105  1  0.266400  0.005200  0.264100  1
  F  F5106  1  0.733600  0.994800  0.264100  1
  F  F5107  1  0.266400  0.994800  0.735900  1
  F  F5108  1  0.733600  0.005200  0.735900  1
  F  F5109  1  0.266400  0.505200  0.764100  1
  F  F5110  1  0.733600  0.494800  0.764100  1
  F  F5111  1  0.266400  0.494800  0.235900  1
  F  F5112  1  0.733600  0.505200  0.235900  1
  F  F5113  1  0.766400  0.005200  0.764100  1
  F  F5114  1  0.233600  0.994800  0.764100  1
  F  F5115  1  0.766400  0.994800  0.235900  1
  F  F5116  1  0.233600  0.005200  0.235900  1
  F  F5117  1  0.766400  0.505200  0.264100  1
  F  F5118  1  0.233600  0.494800  0.264100  1
  F  F5119  1  0.766400  0.494800  0.735900  1
  F  F5120  1  0.233600  0.505200  0.735900  1
  F  F5121  1  0.733600  0.994800  0.735900  1
  F  F5122  1  0.266400  0.005200  0.735900  1
  F  F5123  1  0.733600  0.005200  0.264100  1
  F  F5124  1  0.266400  0.994800  0.264100  1
  F  F5125  1  0.733600  0.494800  0.235900  1
  F  F5126  1  0.266400  0.505200  0.235900  1
  F  F5127  1  0.733600  0.505200  0.764100  1
  F  F5128  1  0.266400  0.494800  0.764100  1
  F  F5129  1  0.233600  0.994800  0.235900  1
  F  F5130  1  0.766400  0.005200  0.235900  1
  F  F5131  1  0.233600  0.005200  0.764100  1
  F  F5132  1  0.766400  0.994800  0.764100  1
  F  F5133  1  0.233600  0.494800  0.735900  1
  F  F5134  1  0.766400  0.505200  0.735900  1
  F  F5135  1  0.233600  0.505200  0.264100  1
  F  F5136  1  0.766400  0.494800  0.264100  1
  F  F5137  1  0.240300  0.975800  0.256300  1
  F  F5138  1  0.759700  0.024200  0.256300  1
  F  F5139  1  0.240300  0.024200  0.743700  1
  F  F5140  1  0.759700  0.975800  0.743700  1
  F  F5141  1  0.240300  0.475800  0.756300  1
  F  F5142  1  0.759700  0.524200  0.756300  1
  F  F5143  1  0.240300  0.524200  0.243700  1
  F  F5144  1  0.759700  0.475800  0.243700  1
  F  F5145  1  0.740300  0.975800  0.756300  1
  F  F5146  1  0.259700  0.024200  0.756300  1
  F  F5147  1  0.740300  0.024200  0.243700  1
  F  F5148  1  0.259700  0.975800  0.243700  1
  F  F5149  1  0.740300  0.475800  0.256300  1
  F  F5150  1  0.259700  0.524200  0.256300  1
  F  F5151  1  0.740300  0.524200  0.743700  1
  F  F5152  1  0.259700  0.475800  0.743700  1
  F  F5153  1  0.759700  0.024200  0.743700  1
  F  F5154  1  0.240300  0.975800  0.743700  1
  F  F5155  1  0.759700  0.975800  0.256300  1
  F  F5156  1  0.240300  0.024200  0.256300  1
  F  F5157  1  0.759700  0.524200  0.243700  1
  F  F5158  1  0.240300  0.475800  0.243700  1
  F  F5159  1  0.759700  0.475800  0.756300  1
  F  F5160  1  0.240300  0.524200  0.756300  1
  F  F5161  1  0.259700  0.024200  0.243700  1
  F  F5162  1  0.740300  0.975800  0.243700  1
  F  F5163  1  0.259700  0.975800  0.756300  1
  F  F5164  1  0.740300  0.024200  0.756300  1
  F  F5165  1  0.259700  0.524200  0.743700  1
  F  F5166  1  0.740300  0.475800  0.743700  1
  F  F5167  1  0.259700  0.475800  0.256300  1
  F  F5168  1  0.740300  0.524200  0.256300  1
  F  F5169  1  0.000000  0.168600  0.164400  1
  F  F5170  1  0.000000  0.831400  0.164400  1
  F  F5171  1  0.000000  0.831400  0.835600  1
  F  F5172  1  0.000000  0.168600  0.835600  1
  F  F5173  1  0.000000  0.668600  0.664400  1
  F  F5174  1  0.000000  0.331400  0.664400  1
  F  F5175  1  0.000000  0.331400  0.335600  1
  F  F5176  1  0.000000  0.668600  0.335600  1
  F  F5177  1  0.500000  0.168600  0.664400  1
  F  F5178  1  0.500000  0.831400  0.664400  1
  F  F5179  1  0.500000  0.831400  0.335600  1
  F  F5180  1  0.500000  0.168600  0.335600  1
  F  F5181  1  0.500000  0.668600  0.164400  1
  F  F5182  1  0.500000  0.331400  0.164400  1
  F  F5183  1  0.500000  0.331400  0.835600  1
  F  F5184  1  0.500000  0.668600  0.835600  1
  F  F5185  1  0.164700  0.000000  0.160800  1
  F  F5186  1  0.835300  0.000000  0.160800  1
  F  F5187  1  0.164700  0.000000  0.839200  1
  F  F5188  1  0.835300  0.000000  0.839200  1
  F  F5189  1  0.164700  0.500000  0.660800  1
  F  F5190  1  0.835300  0.500000  0.660800  1
  F  F5191  1  0.164700  0.500000  0.339200  1
  F  F5192  1  0.835300  0.500000  0.339200  1
  F  F5193  1  0.664700  0.000000  0.660800  1
  F  F5194  1  0.335300  0.000000  0.660800  1
  F  F5195  1  0.664700  0.000000  0.339200  1
  F  F5196  1  0.335300  0.000000  0.339200  1
  F  F5197  1  0.664700  0.500000  0.160800  1
  F  F5198  1  0.335300  0.500000  0.160800  1
  F  F5199  1  0.664700  0.500000  0.839200  1
  F  F5200  1  0.335300  0.500000  0.839200  1
  F  F5201  1  0.240700  0.233600  0.996200  1.0
  F  F5202  1  0.759300  0.766400  0.996200  1.0
  F  F5203  1  0.240700  0.766400  0.003800  1.0
  F  F5204  1  0.759300  0.233600  0.003800  1.0
  F  F5205  1  0.240700  0.733600  0.496200  1.0
  F  F5206  1  0.759300  0.266400  0.496200  1.0
  F  F5207  1  0.240700  0.266400  0.503800  1.0
  F  F5208  1  0.759300  0.733600  0.503800  1.0
  F  F5209  1  0.740700  0.233600  0.496200  1.0
  F  F5210  1  0.259300  0.766400  0.496200  1.0
  F  F5211  1  0.740700  0.766400  0.503800  1.0
  F  F5212  1  0.259300  0.233600  0.503800  1.0
  F  F5213  1  0.740700  0.733600  0.996200  1.0
  F  F5214  1  0.259300  0.266400  0.996200  1.0
  F  F5215  1  0.740700  0.266400  0.003800  1.0
  F  F5216  1  0.259300  0.733600  0.003800  1.0
  F  F5217  1  0.759300  0.766400  0.003800  1.0
  F  F5218  1  0.240700  0.233600  0.003800  1.0
  F  F5219  1  0.759300  0.233600  0.996200  1.0
  F  F5220  1  0.240700  0.766400  0.996200  1.0
  F  F5221  1  0.759300  0.266400  0.503800  1.0
  F  F5222  1  0.240700  0.733600  0.503800  1.0
  F  F5223  1  0.759300  0.733600  0.496200  1.0
  F  F5224  1  0.240700  0.266400  0.496200  1.0
  F  F5225  1  0.259300  0.766400  0.503800  1.0
  F  F5226  1  0.740700  0.233600  0.503800  1.0
  F  F5227  1  0.259300  0.233600  0.496200  1.0
  F  F5228  1  0.740700  0.766400  0.496200  1.0
  F  F5229  1  0.259300  0.266400  0.003800  1.0
  F  F5230  1  0.740700  0.733600  0.003800  1.0
  F  F5231  1  0.259300  0.733600  0.996200  1.0
  F  F5232  1  0.740700  0.266400  0.996200  1.0
  F  F5233  1  0.240600  0.258100  0.023500  1.0
  F  F5234  1  0.759400  0.741900  0.023500  1.0
  F  F5235  1  0.240600  0.741900  0.976500  1.0
  F  F5236  1  0.759400  0.258100  0.976500  1.0
  F  F5237  1  0.240600  0.758100  0.523500  1.0
  F  F5238  1  0.759400  0.241900  0.523500  1.0
  F  F5239  1  0.240600  0.241900  0.476500  1.0
  F  F5240  1  0.759400  0.758100  0.476500  1.0
  F  F5241  1  0.740600  0.258100  0.523500  1.0
  F  F5242  1  0.259400  0.741900  0.523500  1.0
  F  F5243  1  0.740600  0.741900  0.476500  1.0
  F  F5244  1  0.259400  0.258100  0.476500  1.0
  F  F5245  1  0.740600  0.758100  0.023500  1.0
  F  F5246  1  0.259400  0.241900  0.023500  1.0
  F  F5247  1  0.740600  0.241900  0.976500  1.0
  F  F5248  1  0.259400  0.758100  0.976500  1.0
  F  F5249  1  0.759400  0.741900  0.976500  1.0
  F  F5250  1  0.240600  0.258100  0.976500  1.0
  F  F5251  1  0.759400  0.258100  0.023500  1.0
  F  F5252  1  0.240600  0.741900  0.023500  1.0
  F  F5253  1  0.759400  0.241900  0.476500  1.0
  F  F5254  1  0.240600  0.758100  0.476500  1.0
  F  F5255  1  0.759400  0.758100  0.523500  1.0
  F  F5256  1  0.240600  0.241900  0.523500  1.0
  F  F5257  1  0.259400  0.741900  0.476500  1.0
  F  F5258  1  0.740600  0.258100  0.476500  1.0
  F  F5259  1  0.259400  0.258100  0.523500  1.0
  F  F5260  1  0.740600  0.741900  0.523500  1.0
  F  F5261  1  0.259400  0.241900  0.976500  1.0
  F  F5262  1  0.740600  0.758100  0.976500  1.0
  F  F5263  1  0.259400  0.758100  0.023500  1.0
  F  F5264  1  0.740600  0.241900  0.023500  1.0
  F  F5265  1  0.230000  0.268400  0.989700  1.0
  F  F5266  1  0.770000  0.731600  0.989700  1.0
  F  F5267  1  0.230000  0.731600  0.010300  1.0
  F  F5268  1  0.770000  0.268400  0.010300  1.0
  F  F5269  1  0.230000  0.768400  0.489700  1.0
  F  F5270  1  0.770000  0.231600  0.489700  1.0
  F  F5271  1  0.230000  0.231600  0.510300  1.0
  F  F5272  1  0.770000  0.768400  0.510300  1.0
  F  F5273  1  0.730000  0.268400  0.489700  1.0
  F  F5274  1  0.270000  0.731600  0.489700  1.0
  F  F5275  1  0.730000  0.731600  0.510300  1.0
  F  F5276  1  0.270000  0.268400  0.510300  1.0
  F  F5277  1  0.730000  0.768400  0.989700  1.0
  F  F5278  1  0.270000  0.231600  0.989700  1.0
  F  F5279  1  0.730000  0.231600  0.010300  1.0
  F  F5280  1  0.270000  0.768400  0.010300  1.0
  F  F5281  1  0.770000  0.731600  0.010300  1.0
  F  F5282  1  0.230000  0.268400  0.010300  1.0
  F  F5283  1  0.770000  0.268400  0.989700  1.0
  F  F5284  1  0.230000  0.731600  0.989700  1.0
  F  F5285  1  0.770000  0.231600  0.510300  1.0
  F  F5286  1  0.230000  0.768400  0.510300  1.0
  F  F5287  1  0.770000  0.768400  0.489700  1.0
  F  F5288  1  0.230000  0.231600  0.489700  1.0
  F  F5289  1  0.270000  0.731600  0.510300  1.0
  F  F5290  1  0.730000  0.268400  0.510300  1.0
  F  F5291  1  0.270000  0.268400  0.489700  1.0
  F  F5292  1  0.730000  0.731600  0.489700  1.0
  F  F5293  1  0.270000  0.231600  0.010300  1.0
  F  F5294  1  0.730000  0.768400  0.010300  1.0
  F  F5295  1  0.270000  0.768400  0.989700  1.0
  F  F5296  1  0.730000  0.231600  0.989700  1.0
  F  F5297  1  0.265500  0.261900  0.996800  1.0
  F  F5298  1  0.734500  0.738100  0.996800  1.0
  F  F5299  1  0.265500  0.738100  0.003200  1.0
  F  F5300  1  0.734500  0.261900  0.003200  1.0
  F  F5301  1  0.265500  0.761900  0.496800  1.0
  F  F5302  1  0.734500  0.238100  0.496800  1.0
  F  F5303  1  0.265500  0.238100  0.503200  1.0
  F  F5304  1  0.734500  0.761900  0.503200  1.0
  F  F5305  1  0.765500  0.261900  0.496800  1.0
  F  F5306  1  0.234500  0.738100  0.496800  1.0
  F  F5307  1  0.765500  0.738100  0.503200  1.0
  F  F5308  1  0.234500  0.261900  0.503200  1.0
  F  F5309  1  0.765500  0.761900  0.996800  1.0
  F  F5310  1  0.234500  0.238100  0.996800  1.0
  F  F5311  1  0.765500  0.238100  0.003200  1.0
  F  F5312  1  0.234500  0.761900  0.003200  1.0
  F  F5313  1  0.734500  0.738100  0.003200  1.0
  F  F5314  1  0.265500  0.261900  0.003200  1.0
  F  F5315  1  0.734500  0.261900  0.996800  1.0
  F  F5316  1  0.265500  0.738100  0.996800  1.0
  F  F5317  1  0.734500  0.238100  0.503200  1.0
  F  F5318  1  0.265500  0.761900  0.503200  1.0
  F  F5319  1  0.734500  0.761900  0.496800  1.0
  F  F5320  1  0.265500  0.238100  0.496800  1.0
  F  F5321  1  0.234500  0.738100  0.503200  1.0
  F  F5322  1  0.765500  0.261900  0.503200  1.0
  F  F5323  1  0.234500  0.261900  0.496800  1.0
  F  F5324  1  0.765500  0.738100  0.496800  1.0
  F  F5325  1  0.234500  0.238100  0.003200  1.0
  F  F5326  1  0.765500  0.761900  0.003200  1.0
  F  F5327  1  0.234500  0.761900  0.996800  1.0
  F  F5328  1  0.765500  0.238100  0.996800  1.0
  F  F5329  1  0.992600  0.234500  0.245500  1.0
  F  F5330  1  0.007400  0.765500  0.245500  1.0
  F  F5331  1  0.992600  0.765500  0.754500  1.0
  F  F5332  1  0.007400  0.234500  0.754500  1.0
  F  F5333  1  0.992600  0.734500  0.745500  1.0
  F  F5334  1  0.007400  0.265500  0.745500  1.0
  F  F5335  1  0.992600  0.265500  0.254500  1.0
  F  F5336  1  0.007400  0.734500  0.254500  1.0
  F  F5337  1  0.492600  0.234500  0.745500  1.0
  F  F5338  1  0.507400  0.765500  0.745500  1.0
  F  F5339  1  0.492600  0.765500  0.254500  1.0
  F  F5340  1  0.507400  0.234500  0.254500  1.0
  F  F5341  1  0.492600  0.734500  0.245500  1.0
  F  F5342  1  0.507400  0.265500  0.245500  1.0
  F  F5343  1  0.492600  0.265500  0.754500  1.0
  F  F5344  1  0.507400  0.734500  0.754500  1.0
  F  F5345  1  0.007400  0.765500  0.754500  1.0
  F  F5346  1  0.992600  0.234500  0.754500  1.0
  F  F5347  1  0.007400  0.234500  0.245500  1.0
  F  F5348  1  0.992600  0.765500  0.245500  1.0
  F  F5349  1  0.007400  0.265500  0.254500  1.0
  F  F5350  1  0.992600  0.734500  0.254500  1.0
  F  F5351  1  0.007400  0.734500  0.745500  1.0
  F  F5352  1  0.992600  0.265500  0.745500  1.0
  F  F5353  1  0.507400  0.765500  0.254500  1.0
  F  F5354  1  0.492600  0.234500  0.254500  1.0
  F  F5355  1  0.507400  0.234500  0.745500  1.0
  F  F5356  1  0.492600  0.765500  0.745500  1.0
  F  F5357  1  0.507400  0.265500  0.754500  1.0
  F  F5358  1  0.492600  0.734500  0.754500  1.0
  F  F5359  1  0.507400  0.734500  0.245500  1.0
  F  F5360  1  0.492600  0.265500  0.245500  1.0
  F  F5361  1  0.997300  0.264000  0.268100  1.0
  F  F5362  1  0.002700  0.736000  0.268100  1.0
  F  F5363  1  0.997300  0.736000  0.731900  1.0
  F  F5364  1  0.002700  0.264000  0.731900  1.0
  F  F5365  1  0.997300  0.764000  0.768100  1.0
  F  F5366  1  0.002700  0.236000  0.768100  1.0
  F  F5367  1  0.997300  0.236000  0.231900  1.0
  F  F5368  1  0.002700  0.764000  0.231900  1.0
  F  F5369  1  0.497300  0.264000  0.768100  1.0
  F  F5370  1  0.502700  0.736000  0.768100  1.0
  F  F5371  1  0.497300  0.736000  0.231900  1.0
  F  F5372  1  0.502700  0.264000  0.231900  1.0
  F  F5373  1  0.497300  0.764000  0.268100  1.0
  F  F5374  1  0.502700  0.236000  0.268100  1.0
  F  F5375  1  0.497300  0.236000  0.731900  1.0
  F  F5376  1  0.502700  0.764000  0.731900  1.0
  F  F5377  1  0.002700  0.736000  0.731900  1.0
  F  F5378  1  0.997300  0.264000  0.731900  1.0
  F  F5379  1  0.002700  0.264000  0.268100  1.0
  F  F5380  1  0.997300  0.736000  0.268100  1.0
  F  F5381  1  0.002700  0.236000  0.231900  1.0
  F  F5382  1  0.997300  0.764000  0.231900  1.0
  F  F5383  1  0.002700  0.764000  0.768100  1.0
  F  F5384  1  0.997300  0.236000  0.768100  1.0
  F  F5385  1  0.502700  0.736000  0.231900  1.0
  F  F5386  1  0.497300  0.264000  0.231900  1.0
  F  F5387  1  0.502700  0.264000  0.768100  1.0
  F  F5388  1  0.497300  0.736000  0.768100  1.0
  F  F5389  1  0.502700  0.236000  0.731900  1.0
  F  F5390  1  0.497300  0.764000  0.731900  1.0
  F  F5391  1  0.502700  0.764000  0.268100  1.0
  F  F5392  1  0.497300  0.236000  0.268100  1.0
  F  F5393  1  0.025700  0.243000  0.258600  1.0
  F  F5394  1  0.974300  0.757000  0.258600  1.0
  F  F5395  1  0.025700  0.757000  0.741400  1.0
  F  F5396  1  0.974300  0.243000  0.741400  1.0
  F  F5397  1  0.025700  0.743000  0.758600  1.0
  F  F5398  1  0.974300  0.257000  0.758600  1.0
  F  F5399  1  0.025700  0.257000  0.241400  1.0
  F  F5400  1  0.974300  0.743000  0.241400  1.0
  F  F5401  1  0.525700  0.243000  0.758600  1.0
  F  F5402  1  0.474300  0.757000  0.758600  1.0
  F  F5403  1  0.525700  0.757000  0.241400  1.0
  F  F5404  1  0.474300  0.243000  0.241400  1.0
  F  F5405  1  0.525700  0.743000  0.258600  1.0
  F  F5406  1  0.474300  0.257000  0.258600  1.0
  F  F5407  1  0.525700  0.257000  0.741400  1.0
  F  F5408  1  0.474300  0.743000  0.741400  1.0
  F  F5409  1  0.974300  0.757000  0.741400  1.0
  F  F5410  1  0.025700  0.243000  0.741400  1.0
  F  F5411  1  0.974300  0.243000  0.258600  1.0
  F  F5412  1  0.025700  0.757000  0.258600  1.0
  F  F5413  1  0.974300  0.257000  0.241400  1.0
  F  F5414  1  0.025700  0.743000  0.241400  1.0
  F  F5415  1  0.974300  0.743000  0.758600  1.0
  F  F5416  1  0.025700  0.257000  0.758600  1.0
  F  F5417  1  0.474300  0.757000  0.241400  1.0
  F  F5418  1  0.525700  0.243000  0.241400  1.0
  F  F5419  1  0.474300  0.243000  0.758600  1.0
  F  F5420  1  0.525700  0.757000  0.758600  1.0
  F  F5421  1  0.474300  0.257000  0.741400  1.0
  F  F5422  1  0.525700  0.743000  0.741400  1.0
  F  F5423  1  0.474300  0.743000  0.258600  1.0
  F  F5424  1  0.525700  0.257000  0.258600  1.0
  F  F5425  1  0.009300  0.264400  0.233000  1.0
  F  F5426  1  0.990700  0.735600  0.233000  1.0
  F  F5427  1  0.009300  0.735600  0.767000  1.0
  F  F5428  1  0.990700  0.264400  0.767000  1.0
  F  F5429  1  0.009300  0.764400  0.733000  1.0
  F  F5430  1  0.990700  0.235600  0.733000  1.0
  F  F5431  1  0.009300  0.235600  0.267000  1.0
  F  F5432  1  0.990700  0.764400  0.267000  1.0
  F  F5433  1  0.509300  0.264400  0.733000  1.0
  F  F5434  1  0.490700  0.735600  0.733000  1.0
  F  F5435  1  0.509300  0.735600  0.267000  1.0
  F  F5436  1  0.490700  0.264400  0.267000  1.0
  F  F5437  1  0.509300  0.764400  0.233000  1.0
  F  F5438  1  0.490700  0.235600  0.233000  1.0
  F  F5439  1  0.509300  0.235600  0.767000  1.0
  F  F5440  1  0.490700  0.764400  0.767000  1.0
  F  F5441  1  0.990700  0.735600  0.767000  1.0
  F  F5442  1  0.009300  0.264400  0.767000  1.0
  F  F5443  1  0.990700  0.264400  0.233000  1.0
  F  F5444  1  0.009300  0.735600  0.233000  1.0
  F  F5445  1  0.990700  0.235600  0.267000  1.0
  F  F5446  1  0.009300  0.764400  0.267000  1.0
  F  F5447  1  0.990700  0.764400  0.733000  1.0
  F  F5448  1  0.009300  0.235600  0.733000  1.0
  F  F5449  1  0.490700  0.735600  0.267000  1.0
  F  F5450  1  0.509300  0.264400  0.267000  1.0
  F  F5451  1  0.490700  0.264400  0.733000  1.0
  F  F5452  1  0.509300  0.735600  0.733000  1.0
  F  F5453  1  0.490700  0.235600  0.767000  1.0
  F  F5454  1  0.509300  0.764400  0.767000  1.0
  F  F5455  1  0.490700  0.764400  0.233000  1.0
  F  F5456  1  0.509300  0.235600  0.233000  1.0
