
#######################################################################
#
#                 Cambridge Crystallographic Data Centre
#                                CCDC 
#
#######################################################################
#
# If this CIF has been generated from an entry in the Cambridge 
# Structural Database, then it will include bibliographic, chemical, 
# crystal, experimental, refinement or atomic coordinate data resulting 
# from the CCDC's data processing and validation procedures.
#
#######################################################################

data_DOBRUJ
_chemical_formula_moiety         
'C456 H264 N72 Pd12 24+,24(B1 F4 1-),12.4(H2 O1)'
_chemical_name_systematic        
'tetracosakis(\m~2~-2,6-bis((pyridin-4-yl)ethynyl)pyridine)-dodeca-palladium tetracosakis(tetrafluoroborate) hydrate'
_symmetry_cell_setting           monoclinic
_symmetry_space_group_name_H-M   'C 2/m'
_symmetry_Int_Tables_number      12
_space_group_name_Hall           '-C 2y'
loop_
_symmetry_equiv_pos_site_id
_symmetry_equiv_pos_as_xyz
1 x,y,z
2 -x,y,-z
3 1/2+x,1/2+y,z
4 1/2-x,1/2+y,-z
5 -x,-y,-z
6 x,-y,z
7 1/2-x,1/2-y,-z
8 1/2+x,1/2-y,z
_cell_length_a                   47.453(10)
_cell_length_b                   48.537(10)
_cell_length_c                   38.130(8)
_cell_angle_alpha                90
_cell_angle_beta                 127.68(3)
_cell_angle_gamma                90
_cell_volume                     69505.6
_exptl_crystal_colour            yellow
_exptl_crystal_description       cubic
_cell_formula_units_Z            2
loop_
_atom_site_label
_atom_site_type_symbol
_atom_site_fract_x
_atom_site_fract_y
_atom_site_fract_z
N1 N 1.3435(10) 0.0300(4) 0.4529(7)
C1 C 1.3267(6) 0.0442(8) 0.4670(10)
H1 H 1.3042 0.0387 0.4576
C2 C 1.3433(10) 0.0667(7) 0.4951(10)
H2 H 1.3320 0.0763 0.5045
C3 C 1.3768(11) 0.0750(5) 0.5091(7)
C4 C 1.3936(6) 0.0607(8) 0.4951(10)
H3 H 1.4160 0.0663 0.5045
C5 C 1.3770(10) 0.0382(7) 0.4669(10)
H4 H 1.3883 0.0287 0.4575
N2 N 1.3944(10) 0.1701(5) 0.8045(10)
C6 C 1.3715(6) 0.1556(5) 0.7651(12)
H5 H 1.3507 0.1480 0.7583
C7 C 1.3796(8) 0.1526(5) 0.7359(7)
H6 H 1.3642 0.1430 0.7096
C8 C 1.4106(10) 0.1641(6) 0.7460(10)
C9 C 1.4336(6) 0.1785(5) 0.7854(13)
H7 H 1.4544 0.1862 0.7922
C10 C 1.4255(8) 0.1815(4) 0.8146(8)
H8 H 1.4409 0.1912 0.8409
C11 C 1.3884(13) 0.0986(10) 0.5360(16)
C12 C 1.4021(13) 0.1152(10) 0.5586(17)
C13 C 1.4163(14) 0.1621(10) 0.7102(16)
C14 C 1.4198(14) 0.1619(11) 0.6833(17)
N3 N 1.4118(7) 0.1397(6) 0.6252(14)
C15 C 1.4139(7) 0.1388(6) 0.5904(11)
C16 C 1.4286(9) 0.1607(10) 0.5833(10)
H9 H 1.4300 0.1601 0.5600
C17 C 1.4413(8) 0.1836(6) 0.6110(15)
H10 H 1.4512 0.1983 0.6062
C18 C 1.4393(8) 0.1845(6) 0.6458(12)
H11 H 1.4478 0.1998 0.6643
C19 C 1.4245(9) 0.1625(10) 0.6529(9)
N4 N 1.2936(8) 0.0291(4) 0.3572(6)
C20 C 1.3105(5) 0.0440(6) 0.3438(8)
H12 H 1.3340 0.0401 0.3558
C21 C 1.2923(9) 0.0648(6) 0.3125(9)
H13 H 1.3036 0.0748 0.3036
C22 C 1.2572(9) 0.0707(5) 0.2946(7)
C23 C 1.2403(5) 0.0557(6) 0.3080(9)
H14 H 1.2168 0.0596 0.2960
C24 C 1.2585(8) 0.0349(6) 0.3393(10)
H15 H 1.2472 0.0249 0.3483
N5 N 0.9798(5) 0.1759(5) 0.0861(9)
C25 C 1.0017(8) 0.1591(5) 0.1229(9)
H16 H 0.9927 0.1505 0.1360
C26 C 1.0371(7) 0.1551(5) 0.1402(7)
H17 H 1.0517 0.1439 0.1649
C27 C 1.0505(5) 0.1680(6) 0.1207(10)
C28 C 1.0286(8) 0.1847(5) 0.0838(10)
H18 H 1.0376 0.1933 0.0707
C29 C 0.9933(7) 0.1887(5) 0.0665(7)
H19 H 0.9786 0.1999 0.0418
C30 C 1.2430(10) 0.0935(10) 0.2655(14)
C31 C 1.2249(11) 0.1120(10) 0.2390(15)
C32 C 1.0831(10) 0.1643(8) 0.1330(14)
C33 C 1.1139(11) 0.1595(8) 0.1502(14)
N6 N 1.1697(9) 0.1366(6) 0.1923(10)
C34 C 1.2049(9) 0.1326(5) 0.2089(8)
C35 C 1.2204(5) 0.1502(8) 0.1964(11)
H20 H 1.2439 0.1476 0.2075
C36 C 1.2007(10) 0.1718(6) 0.1672(11)
H21 H 1.2111 0.1835 0.1588
C37 C 1.1656(9) 0.1757(5) 0.1506(8)
H22 H 1.1524 0.1902 0.1311
C38 C 1.1500(5) 0.1581(7) 0.1632(10)
N7 N 0.9414(6) 0.2169(7) 0.0943(12)
C39 C 0.9474(6) 0.2179(7) 0.1349(12)
H23 H 0.9458 0.2019 0.1469
C40 C 0.9560(6) 0.2427(9) 0.1574(7)
H24 H 0.9601 0.2433 0.1846
C41 C 0.9585(7) 0.2666(6) 0.1395(12)
C42 C 0.9525(7) 0.2657(7) 0.0989(13)
H25 H 0.9542 0.2817 0.0869
C43 C 0.9439(6) 0.2408(10) 0.0763(7)
H26 H 0.9398 0.2402 0.0492
N8 N 0.9914(6) 0.3633(9) 0.4416(7)
C44 C 0.9822(7) 0.3400(6) 0.4154(13)
H27 H 0.9776 0.3235 0.4233
C45 C 0.9799(7) 0.3415(7) 0.3773(11)
H28 H 0.9738 0.3259 0.3598
C46 C 0.9868(8) 0.3662(10) 0.3654(7)
C47 C 0.9959(8) 0.3895(6) 0.3916(13)
H29 H 1.0005 0.4061 0.3837
C48 C 0.9982(6) 0.3880(6) 0.4297(11)
H30 H 1.0043 0.4036 0.4473
C49 C 0.9641(14) 0.2882(11) 0.1639(17)
C50 C 0.9705(14) 0.3112(11) 0.1795(17)
C51 C 0.9846(14) 0.3609(11) 0.3263(16)
C52 C 0.9862(14) 0.3626(11) 0.2959(16)
N9 N 0.9784(7) 0.3379(9) 0.2383(15)
C53 C 0.9813(8) 0.3356(7) 0.2043(14)
C54 C 0.9896(8) 0.3586(12) 0.1905(9)
H31 H 0.9915 0.3570 0.1677
C55 C 0.9949(8) 0.3839(9) 0.2106(15)
H32 H 1.0004 0.3993 0.2013
C56 C 0.9920(9) 0.3863(8) 0.2446(14)
H33 H 0.9956 0.4033 0.2581
C57 C 0.9837(8) 0.3633(12) 0.2585(9)
N10 N 0.6403(8) 0.2120(5) 0.1858(10)
C58 C 0.6748(8) 0.2118(5) 0.2254(10)
H34 H 0.6871 0.1953 0.2369
C59 C 0.6907(5) 0.2364(8) 0.2477(6)
H35 H 0.7138 0.2363 0.2741
C60 C 0.6723(9) 0.2611(5) 0.2305(10)
C61 C 0.6378(8) 0.2612(5) 0.1910(11)
H36 H 0.6254 0.2777 0.1794
C62 C 0.6218(4) 0.2367(7) 0.1686(6)
H37 H 0.5988 0.2367 0.1422
N11 N 0.9476(5) 0.3585(9) 0.4706(7)
C63 C 0.9265(11) 0.3364(6) 0.4647(10)
H38 H 0.9368 0.3193 0.4768
C64 C 0.8899(10) 0.3398(7) 0.4407(11)
H39 H 0.8758 0.3250 0.4368
C65 C 0.8745(5) 0.3653(9) 0.4226(8)
C66 C 0.8956(11) 0.3875(6) 0.4285(10)
H40 H 0.8853 0.4045 0.4163
C67 C 0.9322(10) 0.3840(7) 0.4525(10)
H41 H 0.9463 0.3988 0.4564
C68 C 0.6875(11) 0.2870(8) 0.2561(13)
C69 C 0.7043(11) 0.3067(9) 0.2787(14)
C70 C 0.8360(13) 0.3614(8) 0.3967(15)
C71 C 0.8022(13) 0.3595(9) 0.3752(15)
N12 N 0.7510(11) 0.3338(6) 0.3271(12)
C72 C 0.7142(11) 0.3313(6) 0.3012(9)
C73 C 0.6942(6) 0.3519(9) 0.3019(10)
H42 H 0.6696 0.3503 0.2846
C74 C 0.7110(11) 0.3750(6) 0.3286(13)
H43 H 0.6977 0.3888 0.3291
C75 C 0.7479(11) 0.3775(6) 0.3545(10)
H44 H 0.7591 0.3929 0.3723
C76 C 0.7678(6) 0.3569(9) 0.3537(9)
N13 N 0.8787(5) 0.1859(5) 0.0375(11)
C77 C 0.8561(9) 0.2000(5) -0.0024(10)
H45 H 0.8639 0.2049 -0.0187
C78 C 0.8218(8) 0.2068(5) -0.0178(7)
H46 H 0.8067 0.2162 -0.0445
C79 C 0.8101(5) 0.1995(6) 0.0066(11)
C80 C 0.8326(9) 0.1854(5) 0.0464(10)
H47 H 0.8248 0.1805 0.0627
C81 C 0.8669(8) 0.1786(5) 0.0618(7)
H48 H 0.8820 0.1692 0.0885
N14 N 0.6273(9) 0.1835(5) 0.1112(10)
C82 C 0.6601(8) 0.1757(5) 0.1223(8)
H49 H 0.6761 0.1658 0.1481
C83 C 0.6688(6) 0.1827(6) 0.0947(13)
H50 H 0.6907 0.1775 0.1021
C84 C 0.6449(10) 0.1976(6) 0.0561(11)
C85 C 0.6122(9) 0.2054(5) 0.0451(8)
H51 H 0.5962 0.2153 0.0192
C86 C 0.6034(5) 0.1984(5) 0.0726(12)
H52 H 0.5815 0.2036 0.0652
C87 C 0.7747(12) 0.2091(9) -0.0099(15)
C88 C 0.7452(12) 0.2128(9) -0.0257(16)
C89 C 0.6534(12) 0.2047(10) 0.0268(16)
C90 C 0.6614(12) 0.2123(10) 0.0054(16)
N15 N 0.7013(9) 0.2124(4) -0.0113(7)
C91 C 0.7122(6) 0.2199(6) -0.0365(12)
C92 C 0.6891(11) 0.2343(6) -0.0759(11)
H53 H 0.6964 0.2393 -0.0928
C93 C 0.6552(9) 0.2411(5) -0.0901(8)
H54 H 0.6397 0.2507 -0.1165
C94 C 0.6443(6) 0.2336(6) -0.0649(13)
H55 H 0.6216 0.2382 -0.0744
C95 C 0.6674(10) 0.2193(6) -0.0254(11)
N16 N 0.5934(11) 0.1433(6) 0.1197(14)
C96 C 0.6117(7) 0.1187(10) 0.1383(9)
H56 H 0.6332 0.1185 0.1668
C97 C 0.5980(11) 0.0943(6) 0.1143(16)
H57 H 0.6103 0.0779 0.1267
C98 C 0.5659(12) 0.0946(7) 0.0717(15)
C99 C 0.5476(8) 0.1192(10) 0.0531(9)
H58 H 0.5261 0.1194 0.0246
C100 C 0.5613(11) 0.1436(6) 0.0771(15)
H59 H 0.5490 0.1600 0.0647
C101 C 0.5565(13) 0.0705(7) 0.0457(16)
C102 C 0.5474(13) 0.0485(7) 0.0254(16)
N17 N 0.5501(11) 0.0000 0.0236(14)
C103 C 0.5328(9) 0.0239(3) 0.0006(12)
C104 C 0.5048(10) 0.0249(3) -0.0434(12)
H60 H 0.4951 0.0416 -0.0577
C105 C 0.4909(13) 0.0000 -0.0667(15)
H61 H 0.4728 0.0000 -0.0971
N18 N 0.9166(7) 0.1452(7) 0.0305(15)
C106 C 0.9073(7) 0.1449(7) -0.0119(15)
H62 H 0.9066 0.1613 -0.0250
C107 C 0.8990(8) 0.1201(11) -0.0346(9)
H63 H 0.8928 0.1200 -0.0629
C108 C 0.9001(8) 0.0956(7) -0.0149(17)
C109 C 0.9094(8) 0.0959(7) 0.0275(17)
H64 H 0.9101 0.0795 0.0406
C110 C 0.9177(7) 0.1207(11) 0.0502(9)
H65 H 0.9239 0.1208 0.0785
C111 C 0.8970(13) 0.0689(8) -0.0336(17)
C112 C 0.8876(13) 0.0505(10) -0.0619(17)
N19 N 0.8842(11) 0.0000 -0.0672(19)
C113 C 0.8799(9) 0.0253(3) -0.0867(16)
C114 C 0.8683(12) 0.0250(4) -0.1301(17)
H66 H 0.8648 0.0414 -0.1449
C115 C 0.8622(17) 0.0000 -0.151(2)
H67 H 0.8535 0.0000 -0.1804
Pd1 Pd 0.92912(9) 0.18102(8) 0.06141(14)
Pd2 Pd 1.31962(11) 0.0000 0.40413(15)
Pd3 Pd 0.61604(8) 0.17741(6) 0.15337(12)
Pd4 Pd 1.0000 0.36483(10) 0.5000
N16E N 0.5934(11) -0.1433(6) 0.1197(14)
C96E C 0.6117(7) -0.1187(10) 0.1383(9)
H56E H 0.6332 -0.1185 0.1668
C97E C 0.5980(11) -0.0943(6) 0.1143(16)
H57E H 0.6103 -0.0779 0.1267
C98E C 0.5659(12) -0.0946(7) 0.0717(15)
C99E C 0.5476(8) -0.1192(10) 0.0531(9)
H58E H 0.5261 -0.1194 0.0246
C100E C 0.5613(11) -0.1436(6) 0.0771(15)
H59E H 0.5490 -0.1600 0.0647
C101E C 0.5565(13) -0.0705(7) 0.0457(16)
C102E C 0.5474(13) -0.0485(7) 0.0254(16)
C103E C 0.5328(9) -0.0239(3) 0.0006(12)
C104E C 0.5048(10) -0.0249(3) -0.0434(12)
H60E H 0.4951 -0.0416 -0.0577
N18E N 0.9166(7) -0.1452(7) 0.0305(15)
C106E C 0.9073(7) -0.1449(7) -0.0119(15)
H62E H 0.9066 -0.1613 -0.0250
C107E C 0.8990(8) -0.1201(11) -0.0346(9)
H63E H 0.8928 -0.1200 -0.0629
C108E C 0.9001(8) -0.0956(7) -0.0149(17)
C109E C 0.9094(8) -0.0959(7) 0.0275(17)
H64E H 0.9101 -0.0795 0.0406
C110E C 0.9177(7) -0.1207(11) 0.0502(9)
H65E H 0.9239 -0.1208 0.0785
C111E C 0.8970(13) -0.0689(8) -0.0336(17)
C112E C 0.8876(13) -0.0505(10) -0.0619(17)
C113E C 0.8799(9) -0.0253(3) -0.0867(16)
C114E C 0.8683(12) -0.0250(4) -0.1301(17)
H66E H 0.8648 -0.0414 -0.1449
N1A N 0.6565(10) 0.0300(4) 0.5471(7)
C1A C 0.6733(6) 0.0442(8) 0.5330(10)
H1A H 0.6958 0.0387 0.5424
C2A C 0.6567(10) 0.0667(7) 0.5049(10)
H2A H 0.6680 0.0763 0.4955
C3A C 0.6232(11) 0.0750(5) 0.4909(7)
C4A C 0.6064(6) 0.0607(8) 0.5049(10)
H3A H 0.5840 0.0663 0.4955
C5A C 0.6230(10) 0.0382(7) 0.5331(10)
H4A H 0.6117 0.0287 0.5425
N2A N 0.6056(10) 0.1701(5) 0.1955(10)
C6A C 0.6285(6) 0.1556(5) 0.2349(12)
H5A H 0.6493 0.1480 0.2417
C7A C 0.6204(8) 0.1526(5) 0.2641(7)
H6A H 0.6358 0.1430 0.2904
C8A C 0.5894(10) 0.1641(6) 0.2540(10)
C9A C 0.5664(6) 0.1785(5) 0.2146(13)
H7A H 0.5456 0.1862 0.2078
C10A C 0.5745(8) 0.1815(4) 0.1854(8)
H8A H 0.5591 0.1912 0.1591
C11A C 0.6116(13) 0.0986(10) 0.4640(16)
C12A C 0.5979(13) 0.1152(10) 0.4414(17)
C13A C 0.5837(14) 0.1621(10) 0.2898(16)
C14A C 0.5802(14) 0.1619(11) 0.3167(17)
N3A N 0.5882(7) 0.1397(6) 0.3748(14)
C15A C 0.5861(7) 0.1388(6) 0.4096(11)
C16A C 0.5714(9) 0.1607(10) 0.4167(10)
H9A H 0.5700 0.1601 0.4400
C17A C 0.5587(8) 0.1836(6) 0.3890(15)
H10A H 0.5488 0.1983 0.3938
C18A C 0.5607(8) 0.1845(6) 0.3542(12)
H11A H 0.5522 0.1998 0.3357
C19A C 0.5755(9) 0.1625(10) 0.3471(9)
N4A N 0.7064(8) 0.0291(4) 0.6428(6)
C20A C 0.6895(5) 0.0440(6) 0.6562(8)
H12A H 0.6660 0.0401 0.6442
C21A C 0.7077(9) 0.0648(6) 0.6875(9)
H13A H 0.6964 0.0748 0.6964
C22A C 0.7428(9) 0.0707(5) 0.7054(7)
C23A C 0.7597(5) 0.0557(6) 0.6920(9)
H14A H 0.7832 0.0596 0.7040
C24A C 0.7415(8) 0.0349(6) 0.6607(10)
H15A H 0.7528 0.0249 0.6517
N5A N 1.0202(5) 0.1759(5) 0.9139(9)
C25A C 0.9983(8) 0.1591(5) 0.8771(9)
H16A H 1.0073 0.1505 0.8640
C26A C 0.9629(7) 0.1551(5) 0.8598(7)
H17A H 0.9483 0.1439 0.8351
C27A C 0.9495(5) 0.1680(6) 0.8793(10)
C28A C 0.9714(8) 0.1847(5) 0.9162(10)
H18A H 0.9624 0.1933 0.9293
C29A C 1.0067(7) 0.1887(5) 0.9335(7)
H19A H 1.0214 0.1999 0.9582
C30A C 0.7570(10) 0.0935(10) 0.7345(14)
C31A C 0.7751(11) 0.1120(10) 0.7610(15)
C32A C 0.9169(10) 0.1643(8) 0.8670(14)
C33A C 0.8861(11) 0.1595(8) 0.8498(14)
N6A N 0.8303(9) 0.1366(6) 0.8077(10)
C34A C 0.7951(9) 0.1326(5) 0.7911(8)
C35A C 0.7796(5) 0.1502(8) 0.8036(11)
H20A H 0.7561 0.1476 0.7925
C36A C 0.7993(10) 0.1718(6) 0.8328(11)
H21A H 0.7889 0.1835 0.8412
C37A C 0.8344(9) 0.1757(5) 0.8494(8)
H22A H 0.8476 0.1902 0.8689
C38A C 0.8500(5) 0.1581(7) 0.8368(10)
N7A N 1.0586(6) 0.2169(7) 0.9057(12)
C39A C 1.0526(6) 0.2179(7) 0.8651(12)
H23A H 1.0542 0.2019 0.8531
C40A C 1.0440(6) 0.2427(9) 0.8426(7)
H24A H 1.0399 0.2433 0.8154
C41A C 1.0415(7) 0.2666(6) 0.8605(12)
C42A C 1.0475(7) 0.2657(7) 0.9011(13)
H25A H 1.0458 0.2817 0.9131
C43A C 1.0561(6) 0.2408(10) 0.9237(7)
H26A H 1.0602 0.2402 0.9508
N8A N 1.0086(6) 0.3633(9) 0.5584(7)
C44A C 1.0178(7) 0.3400(6) 0.5846(13)
H27A H 1.0224 0.3235 0.5767
C45A C 1.0201(7) 0.3415(7) 0.6227(11)
H28A H 1.0262 0.3259 0.6402
C46A C 1.0132(8) 0.3662(10) 0.6346(7)
C47A C 1.0041(8) 0.3895(6) 0.6084(13)
H29A H 0.9995 0.4061 0.6163
C48A C 1.0018(6) 0.3880(6) 0.5703(11)
H30A H 0.9957 0.4036 0.5527
C49A C 1.0359(14) 0.2882(11) 0.8361(17)
C50A C 1.0295(14) 0.3112(11) 0.8205(17)
C51A C 1.0154(14) 0.3609(11) 0.6737(16)
C52A C 1.0138(14) 0.3626(11) 0.7041(16)
N9A N 1.0216(7) 0.3379(9) 0.7617(15)
C53A C 1.0187(8) 0.3356(7) 0.7957(14)
C54A C 1.0104(8) 0.3586(12) 0.8095(9)
H31A H 1.0085 0.3570 0.8323
C55A C 1.0051(8) 0.3839(9) 0.7894(15)
H32A H 0.9996 0.3993 0.7987
C56A C 1.0080(9) 0.3863(8) 0.7554(14)
H33A H 1.0044 0.4033 0.7419
C57A C 1.0163(8) 0.3633(12) 0.7415(9)
N10A N 1.3597(8) 0.2120(5) 0.8142(10)
C58A C 1.3252(8) 0.2118(5) 0.7746(10)
H34A H 1.3129 0.1953 0.7631
C59A C 1.3093(5) 0.2364(8) 0.7523(6)
H35A H 1.2862 0.2363 0.7259
C60A C 1.3277(9) 0.2611(5) 0.7695(10)
C61A C 1.3622(8) 0.2612(5) 0.8090(11)
H36A H 1.3746 0.2777 0.8206
C62A C 1.3782(4) 0.2367(7) 0.8314(6)
H37A H 1.4012 0.2367 0.8578
N11A N 1.0524(5) 0.3585(9) 0.5294(7)
C63A C 1.0735(11) 0.3364(6) 0.5353(10)
H38A H 1.0632 0.3193 0.5232
C64A C 1.1101(10) 0.3398(7) 0.5593(11)
H39A H 1.1242 0.3250 0.5632
C65A C 1.1255(5) 0.3653(9) 0.5774(8)
C66A C 1.1044(11) 0.3875(6) 0.5715(10)
H40A H 1.1147 0.4045 0.5837
C67A C 1.0678(10) 0.3840(7) 0.5475(10)
H41A H 1.0537 0.3988 0.5436
C68A C 1.3125(11) 0.2870(8) 0.7439(13)
C69A C 1.2957(11) 0.3067(9) 0.7213(14)
C70A C 1.1640(13) 0.3614(8) 0.6033(15)
C71A C 1.1978(13) 0.3595(9) 0.6248(15)
N12A N 1.2490(11) 0.3338(6) 0.6729(12)
C72A C 1.2858(11) 0.3313(6) 0.6988(9)
C73A C 1.3058(6) 0.3519(9) 0.6981(10)
H42A H 1.3304 0.3503 0.7154
C74A C 1.2890(11) 0.3750(6) 0.6714(13)
H43A H 1.3023 0.3888 0.6709
C75A C 1.2521(11) 0.3775(6) 0.6455(10)
H44A H 1.2409 0.3929 0.6277
C76A C 1.2322(6) 0.3569(9) 0.6463(9)
N13A N 1.1213(5) 0.1859(5) 0.9625(11)
C77A C 1.1439(9) 0.2000(5) 1.0024(10)
H45A H 1.1361 0.2049 1.0187
C78A C 1.1782(8) 0.2068(5) 1.0178(7)
H46A H 1.1933 0.2162 1.0445
C79A C 1.1899(5) 0.1995(6) 0.9934(11)
C80A C 1.1674(9) 0.1854(5) 0.9536(10)
H47A H 1.1752 0.1805 0.9373
C81A C 1.1331(8) 0.1786(5) 0.9382(7)
H48A H 1.1180 0.1692 0.9115
N14A N 1.3727(9) 0.1835(5) 0.8888(10)
C82A C 1.3399(8) 0.1757(5) 0.8777(8)
H49A H 1.3239 0.1658 0.8519
C83A C 1.3312(6) 0.1827(6) 0.9053(13)
H50A H 1.3093 0.1775 0.8979
C84A C 1.3551(10) 0.1976(6) 0.9439(11)
C85A C 1.3878(9) 0.2054(5) 0.9549(8)
H51A H 1.4038 0.2153 0.9808
C86A C 1.3966(5) 0.1984(5) 0.9274(12)
H52A H 1.4185 0.2036 0.9348
C87A C 1.2253(12) 0.2091(9) 1.0099(15)
C88A C 1.2548(12) 0.2128(9) 1.0257(16)
C89A C 1.3466(12) 0.2047(10) 0.9732(16)
C90A C 1.3386(12) 0.2123(10) 0.9946(16)
N15A N 1.2987(9) 0.2124(4) 1.0113(7)
C91A C 1.2878(6) 0.2199(6) 1.0365(12)
C92A C 1.3109(11) 0.2343(6) 1.0759(11)
H53A H 1.3036 0.2393 1.0928
C93A C 1.3448(9) 0.2411(5) 1.0901(8)
H54A H 1.3603 0.2507 1.1165
C94A C 1.3557(6) 0.2336(6) 1.0649(13)
H55A H 1.3784 0.2382 1.0744
C95A C 1.3326(10) 0.2193(6) 1.0254(11)
N16A N 1.4066(11) 0.1433(6) 0.8803(14)
C96A C 1.3883(7) 0.1187(10) 0.8617(9)
H56A H 1.3668 0.1185 0.8332
C97A C 1.4020(11) 0.0943(6) 0.8857(16)
H57A H 1.3897 0.0779 0.8733
C98A C 1.4341(12) 0.0946(7) 0.9283(15)
C99A C 1.4524(8) 0.1192(10) 0.9469(9)
H58A H 1.4739 0.1194 0.9754
C100A C 1.4387(11) 0.1436(6) 0.9229(15)
H59A H 1.4510 0.1600 0.9353
C101A C 1.4435(13) 0.0705(7) 0.9543(16)
C102A C 1.4526(13) 0.0485(7) 0.9746(16)
N17A N 1.4499(11) 0.0000 0.9764(14)
C103A C 1.4672(9) 0.0239(3) 0.9994(12)
C104A C 1.4952(10) 0.0249(3) 1.0434(12)
H60A H 1.5049 0.0416 1.0577
C105A C 1.5091(13) 0.0000 1.0667(15)
H61A H 1.5272 0.0000 1.0971
N18A N 1.0834(7) 0.1452(7) 0.9695(15)
C106A C 1.0927(7) 0.1449(7) 1.0119(15)
H62A H 1.0934 0.1613 1.0250
C107A C 1.1010(8) 0.1201(11) 1.0346(9)
H63A H 1.1072 0.1200 1.0629
C108A C 1.0999(8) 0.0956(7) 1.0149(17)
C109A C 1.0906(8) 0.0959(7) 0.9725(17)
H64A H 1.0899 0.0795 0.9594
C110A C 1.0823(7) 0.1207(11) 0.9498(9)
H65A H 1.0761 0.1208 0.9215
C111A C 1.1030(13) 0.0689(8) 1.0336(17)
C112A C 1.1124(13) 0.0505(10) 1.0619(17)
N19A N 1.1158(11) 0.0000 1.0672(19)
C113A C 1.1201(9) 0.0253(3) 1.0867(16)
C114A C 1.1317(12) 0.0250(4) 1.1301(17)
H66A H 1.1352 0.0414 1.1449
C115A C 1.1378(17) 0.0000 1.151(2)
H67A H 1.1465 0.0000 1.1804
Pd1A Pd 1.07088(9) 0.18102(8) 0.93859(14)
Pd2A Pd 0.68038(11) 0.0000 0.59587(15)
Pd3A Pd 1.38396(8) 0.17741(6) 0.84663(12)
N16D N 1.4066(11) -0.1433(6) 0.8803(14)
C96D C 1.3883(7) -0.1187(10) 0.8617(9)
H56D H 1.3668 -0.1185 0.8332
C97D C 1.4020(11) -0.0943(6) 0.8857(16)
H57D H 1.3897 -0.0779 0.8733
C98D C 1.4341(12) -0.0946(7) 0.9283(15)
C99D C 1.4524(8) -0.1192(10) 0.9469(9)
H58D H 1.4739 -0.1194 0.9754
C100D C 1.4387(11) -0.1436(6) 0.9229(15)
H59D H 1.4510 -0.1600 0.9353
C101D C 1.4435(13) -0.0705(7) 0.9543(16)
C102D C 1.4526(13) -0.0485(7) 0.9746(16)
C103D C 1.4672(9) -0.0239(3) 0.9994(12)
C104D C 1.4952(10) -0.0249(3) 1.0434(12)
H60D H 1.5049 -0.0416 1.0577
N18D N 1.0834(7) -0.1452(7) 0.9695(15)
C106D C 1.0927(7) -0.1449(7) 1.0119(15)
H62D H 1.0934 -0.1613 1.0250
C107D C 1.1010(8) -0.1201(11) 1.0346(9)
H63D H 1.1072 -0.1200 1.0629
C108D C 1.0999(8) -0.0956(7) 1.0149(17)
C109D C 1.0906(8) -0.0959(7) 0.9725(17)
H64D H 1.0899 -0.0795 0.9594
C110D C 1.0823(7) -0.1207(11) 0.9498(9)
H65D H 1.0761 -0.1208 0.9215
C111D C 1.1030(13) -0.0689(8) 1.0336(17)
C112D C 1.1124(13) -0.0505(10) 1.0619(17)
C113D C 1.1201(9) -0.0253(3) 1.0867(16)
C114D C 1.1317(12) -0.0250(4) 1.1301(17)
H66D H 1.1352 -0.0414 1.1449
N1D N 0.6565(10) -0.0300(4) 0.5471(7)
C1D C 0.6733(6) -0.0442(8) 0.5330(10)
H1D H 0.6958 -0.0387 0.5424
C2D C 0.6567(10) -0.0667(7) 0.5049(10)
H2D H 0.6680 -0.0763 0.4955
C3D C 0.6232(11) -0.0750(5) 0.4909(7)
C4D C 0.6064(6) -0.0607(8) 0.5049(10)
H3D H 0.5840 -0.0663 0.4955
C5D C 0.6230(10) -0.0382(7) 0.5331(10)
H4D H 0.6117 -0.0287 0.5425
N2D N 0.6056(10) -0.1701(5) 0.1955(10)
C6D C 0.6285(6) -0.1556(5) 0.2349(12)
H5D H 0.6493 -0.1480 0.2417
C7D C 0.6204(8) -0.1526(5) 0.2641(7)
H6D H 0.6358 -0.1430 0.2904
C8D C 0.5894(10) -0.1641(6) 0.2540(10)
C9D C 0.5664(6) -0.1785(5) 0.2146(13)
H7D H 0.5456 -0.1862 0.2078
C10D C 0.5745(8) -0.1815(4) 0.1854(8)
H8D H 0.5591 -0.1912 0.1591
C11D C 0.6116(13) -0.0986(10) 0.4640(16)
C12D C 0.5979(13) -0.1152(10) 0.4414(17)
C13D C 0.5837(14) -0.1621(10) 0.2898(16)
C14D C 0.5802(14) -0.1619(11) 0.3167(17)
N3D N 0.5882(7) -0.1397(6) 0.3748(14)
C15D C 0.5861(7) -0.1388(6) 0.4096(11)
C16D C 0.5714(9) -0.1607(10) 0.4167(10)
H9D H 0.5700 -0.1601 0.4400
C17D C 0.5587(8) -0.1836(6) 0.3890(15)
H10D H 0.5488 -0.1983 0.3938
C18D C 0.5607(8) -0.1845(6) 0.3542(12)
H11D H 0.5522 -0.1998 0.3357
C19D C 0.5755(9) -0.1625(10) 0.3471(9)
N4D N 0.7064(8) -0.0291(4) 0.6428(6)
C20D C 0.6895(5) -0.0440(6) 0.6562(8)
H12D H 0.6660 -0.0401 0.6442
C21D C 0.7077(9) -0.0648(6) 0.6875(9)
H13D H 0.6964 -0.0748 0.6964
C22D C 0.7428(9) -0.0707(5) 0.7054(7)
C23D C 0.7597(5) -0.0557(6) 0.6920(9)
H14D H 0.7832 -0.0596 0.7040
C24D C 0.7415(8) -0.0349(6) 0.6607(10)
H15D H 0.7528 -0.0249 0.6517
N5D N 1.0202(5) -0.1759(5) 0.9139(9)
C25D C 0.9983(8) -0.1591(5) 0.8771(9)
H16D H 1.0073 -0.1505 0.8640
C26D C 0.9629(7) -0.1551(5) 0.8598(7)
H17D H 0.9483 -0.1439 0.8351
C27D C 0.9495(5) -0.1680(6) 0.8793(10)
C28D C 0.9714(8) -0.1847(5) 0.9162(10)
H18D H 0.9624 -0.1933 0.9293
C29D C 1.0067(7) -0.1887(5) 0.9335(7)
H19D H 1.0214 -0.1999 0.9582
C30D C 0.7570(10) -0.0935(10) 0.7345(14)
C31D C 0.7751(11) -0.1120(10) 0.7610(15)
C32D C 0.9169(10) -0.1643(8) 0.8670(14)
C33D C 0.8861(11) -0.1595(8) 0.8498(14)
N6D N 0.8303(9) -0.1366(6) 0.8077(10)
C34D C 0.7951(9) -0.1326(5) 0.7911(8)
C35D C 0.7796(5) -0.1502(8) 0.8036(11)
H20D H 0.7561 -0.1476 0.7925
C36D C 0.7993(10) -0.1718(6) 0.8328(11)
H21D H 0.7889 -0.1835 0.8412
C37D C 0.8344(9) -0.1757(5) 0.8494(8)
H22D H 0.8476 -0.1902 0.8689
C38D C 0.8500(5) -0.1581(7) 0.8368(10)
N7D N 1.0586(6) -0.2169(7) 0.9057(12)
C39D C 1.0526(6) -0.2179(7) 0.8651(12)
H23D H 1.0542 -0.2019 0.8531
C40D C 1.0440(6) -0.2427(9) 0.8426(7)
H24D H 1.0399 -0.2433 0.8154
C41D C 1.0415(7) -0.2666(6) 0.8605(12)
C42D C 1.0475(7) -0.2657(7) 0.9011(13)
H25D H 1.0458 -0.2817 0.9131
C43D C 1.0561(6) -0.2408(10) 0.9237(7)
H26D H 1.0602 -0.2402 0.9508
N8D N 1.0086(6) -0.3633(9) 0.5584(7)
C44D C 1.0178(7) -0.3400(6) 0.5846(13)
H27D H 1.0224 -0.3235 0.5767
C45D C 1.0201(7) -0.3415(7) 0.6227(11)
H28D H 1.0262 -0.3259 0.6402
C46D C 1.0132(8) -0.3662(10) 0.6346(7)
C47D C 1.0041(8) -0.3895(6) 0.6084(13)
H29D H 0.9995 -0.4061 0.6163
C48D C 1.0018(6) -0.3880(6) 0.5703(11)
H30D H 0.9957 -0.4036 0.5527
C49D C 1.0359(14) -0.2882(11) 0.8361(17)
C50D C 1.0295(14) -0.3112(11) 0.8205(17)
C51D C 1.0154(14) -0.3609(11) 0.6737(16)
C52D C 1.0138(14) -0.3626(11) 0.7041(16)
N9D N 1.0216(7) -0.3379(9) 0.7617(15)
C53D C 1.0187(8) -0.3356(7) 0.7957(14)
C54D C 1.0104(8) -0.3586(12) 0.8095(9)
H31D H 1.0085 -0.3570 0.8323
C55D C 1.0051(8) -0.3839(9) 0.7894(15)
H32D H 0.9996 -0.3993 0.7987
C56D C 1.0080(9) -0.3863(8) 0.7554(14)
H33D H 1.0044 -0.4033 0.7419
C57D C 1.0163(8) -0.3633(12) 0.7415(9)
N10D N 1.3597(8) -0.2120(5) 0.8142(10)
C58D C 1.3252(8) -0.2118(5) 0.7746(10)
H34D H 1.3129 -0.1953 0.7631
C59D C 1.3093(5) -0.2364(8) 0.7523(6)
H35D H 1.2862 -0.2363 0.7259
C60D C 1.3277(9) -0.2611(5) 0.7695(10)
C61D C 1.3622(8) -0.2612(5) 0.8090(11)
H36D H 1.3746 -0.2777 0.8206
C62D C 1.3782(4) -0.2367(7) 0.8314(6)
H37D H 1.4012 -0.2367 0.8578
N11D N 1.0524(5) -0.3585(9) 0.5294(7)
C63D C 1.0735(11) -0.3364(6) 0.5353(10)
H38D H 1.0632 -0.3193 0.5232
C64D C 1.1101(10) -0.3398(7) 0.5593(11)
H39D H 1.1242 -0.3250 0.5632
C65D C 1.1255(5) -0.3653(9) 0.5774(8)
C66D C 1.1044(11) -0.3875(6) 0.5715(10)
H40D H 1.1147 -0.4045 0.5837
C67D C 1.0678(10) -0.3840(7) 0.5475(10)
H41D H 1.0537 -0.3988 0.5436
C68D C 1.3125(11) -0.2870(8) 0.7439(13)
C69D C 1.2957(11) -0.3067(9) 0.7213(14)
C70D C 1.1640(13) -0.3614(8) 0.6033(15)
C71D C 1.1978(13) -0.3595(9) 0.6248(15)
N12D N 1.2490(11) -0.3338(6) 0.6729(12)
C72D C 1.2858(11) -0.3313(6) 0.6988(9)
C73D C 1.3058(6) -0.3519(9) 0.6981(10)
H42D H 1.3304 -0.3503 0.7154
C74D C 1.2890(11) -0.3750(6) 0.6714(13)
H43D H 1.3023 -0.3888 0.6709
C75D C 1.2521(11) -0.3775(6) 0.6455(10)
H44D H 1.2409 -0.3929 0.6277
C76D C 1.2322(6) -0.3569(9) 0.6463(9)
N13D N 1.1213(5) -0.1859(5) 0.9625(11)
C77D C 1.1439(9) -0.2000(5) 1.0024(10)
H45D H 1.1361 -0.2049 1.0187
C78D C 1.1782(8) -0.2068(5) 1.0178(7)
H46D H 1.1933 -0.2162 1.0445
C79D C 1.1899(5) -0.1995(6) 0.9934(11)
C80D C 1.1674(9) -0.1854(5) 0.9536(10)
H47D H 1.1752 -0.1805 0.9373
C81D C 1.1331(8) -0.1786(5) 0.9382(7)
H48D H 1.1180 -0.1692 0.9115
N14D N 1.3727(9) -0.1835(5) 0.8888(10)
C82D C 1.3399(8) -0.1757(5) 0.8777(8)
H49D H 1.3239 -0.1658 0.8519
C83D C 1.3312(6) -0.1827(6) 0.9053(13)
H50D H 1.3093 -0.1775 0.8979
C84D C 1.3551(10) -0.1976(6) 0.9439(11)
C85D C 1.3878(9) -0.2054(5) 0.9549(8)
H51D H 1.4038 -0.2153 0.9808
C86D C 1.3966(5) -0.1984(5) 0.9274(12)
H52D H 1.4185 -0.2036 0.9348
C87D C 1.2253(12) -0.2091(9) 1.0099(15)
C88D C 1.2548(12) -0.2128(9) 1.0257(16)
C89D C 1.3466(12) -0.2047(10) 0.9732(16)
C90D C 1.3386(12) -0.2123(10) 0.9946(16)
N15D N 1.2987(9) -0.2124(4) 1.0113(7)
C91D C 1.2878(6) -0.2199(6) 1.0365(12)
C92D C 1.3109(11) -0.2343(6) 1.0759(11)
H53D H 1.3036 -0.2393 1.0928
C93D C 1.3448(9) -0.2411(5) 1.0901(8)
H54D H 1.3603 -0.2507 1.1165
C94D C 1.3557(6) -0.2336(6) 1.0649(13)
H55D H 1.3784 -0.2382 1.0744
C95D C 1.3326(10) -0.2193(6) 1.0254(11)
Pd1D Pd 1.07088(9) -0.18102(8) 0.93859(14)
Pd3D Pd 1.38396(8) -0.17741(6) 0.84663(12)
Pd4D Pd 1.0000 -0.36483(10) 0.5000
N1E N 1.3435(10) -0.0300(4) 0.4529(7)
C1E C 1.3267(6) -0.0442(8) 0.4670(10)
H1E H 1.3042 -0.0387 0.4576
C2E C 1.3433(10) -0.0667(7) 0.4951(10)
H2E H 1.3320 -0.0763 0.5045
C3E C 1.3768(11) -0.0750(5) 0.5091(7)
C4E C 1.3936(6) -0.0607(8) 0.4951(10)
H3E H 1.4160 -0.0663 0.5045
C5E C 1.3770(10) -0.0382(7) 0.4669(10)
H4E H 1.3883 -0.0287 0.4575
N2E N 1.3944(10) -0.1701(5) 0.8045(10)
C6E C 1.3715(6) -0.1556(5) 0.7651(12)
H5E H 1.3507 -0.1480 0.7583
C7E C 1.3796(8) -0.1526(5) 0.7359(7)
H6E H 1.3642 -0.1430 0.7096
C8E C 1.4106(10) -0.1641(6) 0.7460(10)
C9E C 1.4336(6) -0.1785(5) 0.7854(13)
H7E H 1.4544 -0.1862 0.7922
C10E C 1.4255(8) -0.1815(4) 0.8146(8)
H8E H 1.4409 -0.1912 0.8409
C11E C 1.3884(13) -0.0986(10) 0.5360(16)
C12E C 1.4021(13) -0.1152(10) 0.5586(17)
C13E C 1.4163(14) -0.1621(10) 0.7102(16)
C14E C 1.4198(14) -0.1619(11) 0.6833(17)
N3E N 1.4118(7) -0.1397(6) 0.6252(14)
C15E C 1.4139(7) -0.1388(6) 0.5904(11)
C16E C 1.4286(9) -0.1607(10) 0.5833(10)
H9E H 1.4300 -0.1601 0.5600
C17E C 1.4413(8) -0.1836(6) 0.6110(15)
H10E H 1.4512 -0.1983 0.6062
C18E C 1.4393(8) -0.1845(6) 0.6458(12)
H11E H 1.4478 -0.1998 0.6643
C19E C 1.4245(9) -0.1625(10) 0.6529(9)
N4E N 1.2936(8) -0.0291(4) 0.3572(6)
C20E C 1.3105(5) -0.0440(6) 0.3438(8)
H12E H 1.3340 -0.0401 0.3558
C21E C 1.2923(9) -0.0648(6) 0.3125(9)
H13E H 1.3036 -0.0748 0.3036
C22E C 1.2572(9) -0.0707(5) 0.2946(7)
C23E C 1.2403(5) -0.0557(6) 0.3080(9)
H14E H 1.2168 -0.0596 0.2960
C24E C 1.2585(8) -0.0349(6) 0.3393(10)
H15E H 1.2472 -0.0249 0.3483
N5E N 0.9798(5) -0.1759(5) 0.0861(9)
C25E C 1.0017(8) -0.1591(5) 0.1229(9)
H16E H 0.9927 -0.1505 0.1360
C26E C 1.0371(7) -0.1551(5) 0.1402(7)
H17E H 1.0517 -0.1439 0.1649
C27E C 1.0505(5) -0.1680(6) 0.1207(10)
C28E C 1.0286(8) -0.1847(5) 0.0838(10)
H18E H 1.0376 -0.1933 0.0707
C29E C 0.9933(7) -0.1887(5) 0.0665(7)
H19E H 0.9786 -0.1999 0.0418
C30E C 1.2430(10) -0.0935(10) 0.2655(14)
C31E C 1.2249(11) -0.1120(10) 0.2390(15)
C32E C 1.0831(10) -0.1643(8) 0.1330(14)
C33E C 1.1139(11) -0.1595(8) 0.1502(14)
N6E N 1.1697(9) -0.1366(6) 0.1923(10)
C34E C 1.2049(9) -0.1326(5) 0.2089(8)
C35E C 1.2204(5) -0.1502(8) 0.1964(11)
H20E H 1.2439 -0.1476 0.2075
C36E C 1.2007(10) -0.1718(6) 0.1672(11)
H21E H 1.2111 -0.1835 0.1588
C37E C 1.1656(9) -0.1757(5) 0.1506(8)
H22E H 1.1524 -0.1902 0.1311
C38E C 1.1500(5) -0.1581(7) 0.1632(10)
N7E N 0.9414(6) -0.2169(7) 0.0943(12)
C39E C 0.9474(6) -0.2179(7) 0.1349(12)
H23E H 0.9458 -0.2019 0.1469
C40E C 0.9560(6) -0.2427(9) 0.1574(7)
H24E H 0.9601 -0.2433 0.1846
C41E C 0.9585(7) -0.2666(6) 0.1395(12)
C42E C 0.9525(7) -0.2657(7) 0.0989(13)
H25E H 0.9542 -0.2817 0.0869
C43E C 0.9439(6) -0.2408(10) 0.0763(7)
H26E H 0.9398 -0.2402 0.0492
N8E N 0.9914(6) -0.3633(9) 0.4416(7)
C44E C 0.9822(7) -0.3400(6) 0.4154(13)
H27E H 0.9776 -0.3235 0.4233
C45E C 0.9799(7) -0.3415(7) 0.3773(11)
H28E H 0.9738 -0.3259 0.3598
C46E C 0.9868(8) -0.3662(10) 0.3654(7)
C47E C 0.9959(8) -0.3895(6) 0.3916(13)
H29E H 1.0005 -0.4061 0.3837
C48E C 0.9982(6) -0.3880(6) 0.4297(11)
H30E H 1.0043 -0.4036 0.4473
C49E C 0.9641(14) -0.2882(11) 0.1639(17)
C50E C 0.9705(14) -0.3112(11) 0.1795(17)
C51E C 0.9846(14) -0.3609(11) 0.3263(16)
C52E C 0.9862(14) -0.3626(11) 0.2959(16)
N9E N 0.9784(7) -0.3379(9) 0.2383(15)
C53E C 0.9813(8) -0.3356(7) 0.2043(14)
C54E C 0.9896(8) -0.3586(12) 0.1905(9)
H31E H 0.9915 -0.3570 0.1677
C55E C 0.9949(8) -0.3839(9) 0.2106(15)
H32E H 1.0004 -0.3993 0.2013
C56E C 0.9920(9) -0.3863(8) 0.2446(14)
H33E H 0.9956 -0.4033 0.2581
C57E C 0.9837(8) -0.3633(12) 0.2585(9)
N10E N 0.6403(8) -0.2120(5) 0.1858(10)
C58E C 0.6748(8) -0.2118(5) 0.2254(10)
H34E H 0.6871 -0.1953 0.2369
C59E C 0.6907(5) -0.2364(8) 0.2477(6)
H35E H 0.7138 -0.2363 0.2741
C60E C 0.6723(9) -0.2611(5) 0.2305(10)
C61E C 0.6378(8) -0.2612(5) 0.1910(11)
H36E H 0.6254 -0.2777 0.1794
C62E C 0.6218(4) -0.2367(7) 0.1686(6)
H37E H 0.5988 -0.2367 0.1422
N11E N 0.9476(5) -0.3585(9) 0.4706(7)
C63E C 0.9265(11) -0.3364(6) 0.4647(10)
H38E H 0.9368 -0.3193 0.4768
C64E C 0.8899(10) -0.3398(7) 0.4407(11)
H39E H 0.8758 -0.3250 0.4368
C65E C 0.8745(5) -0.3653(9) 0.4226(8)
C66E C 0.8956(11) -0.3875(6) 0.4285(10)
H40E H 0.8853 -0.4045 0.4163
C67E C 0.9322(10) -0.3840(7) 0.4525(10)
H41E H 0.9463 -0.3988 0.4564
C68E C 0.6875(11) -0.2870(8) 0.2561(13)
C69E C 0.7043(11) -0.3067(9) 0.2787(14)
C70E C 0.8360(13) -0.3614(8) 0.3967(15)
C71E C 0.8022(13) -0.3595(9) 0.3752(15)
N12E N 0.7510(11) -0.3338(6) 0.3271(12)
C72E C 0.7142(11) -0.3313(6) 0.3012(9)
C73E C 0.6942(6) -0.3519(9) 0.3019(10)
H42E H 0.6696 -0.3503 0.2846
C74E C 0.7110(11) -0.3750(6) 0.3286(13)
H43E H 0.6977 -0.3888 0.3291
C75E C 0.7479(11) -0.3775(6) 0.3545(10)
H44E H 0.7591 -0.3929 0.3723
C76E C 0.7678(6) -0.3569(9) 0.3537(9)
N13E N 0.8787(5) -0.1859(5) 0.0375(11)
C77E C 0.8561(9) -0.2000(5) -0.0024(10)
H45E H 0.8639 -0.2049 -0.0187
C78E C 0.8218(8) -0.2068(5) -0.0178(7)
H46E H 0.8067 -0.2162 -0.0445
C79E C 0.8101(5) -0.1995(6) 0.0066(11)
C80E C 0.8326(9) -0.1854(5) 0.0464(10)
H47E H 0.8248 -0.1805 0.0627
C81E C 0.8669(8) -0.1786(5) 0.0618(7)
H48E H 0.8820 -0.1692 0.0885
N14E N 0.6273(9) -0.1835(5) 0.1112(10)
C82E C 0.6601(8) -0.1757(5) 0.1223(8)
H49E H 0.6761 -0.1658 0.1481
C83E C 0.6688(6) -0.1827(6) 0.0947(13)
H50E H 0.6907 -0.1775 0.1021
C84E C 0.6449(10) -0.1976(6) 0.0561(11)
C85E C 0.6122(9) -0.2054(5) 0.0451(8)
H51E H 0.5962 -0.2153 0.0192
C86E C 0.6034(5) -0.1984(5) 0.0726(12)
H52E H 0.5815 -0.2036 0.0652
C87E C 0.7747(12) -0.2091(9) -0.0099(15)
C88E C 0.7452(12) -0.2128(9) -0.0257(16)
C89E C 0.6534(12) -0.2047(10) 0.0268(16)
C90E C 0.6614(12) -0.2123(10) 0.0054(16)
N15E N 0.7013(9) -0.2124(4) -0.0113(7)
C91E C 0.7122(6) -0.2199(6) -0.0365(12)
C92E C 0.6891(11) -0.2343(6) -0.0759(11)
H53E H 0.6964 -0.2393 -0.0928
C93E C 0.6552(9) -0.2411(5) -0.0901(8)
H54E H 0.6397 -0.2507 -0.1165
C94E C 0.6443(6) -0.2336(6) -0.0649(13)
H55E H 0.6216 -0.2382 -0.0744
C95E C 0.6674(10) -0.2193(6) -0.0254(11)
Pd1E Pd 0.92912(9) -0.18102(8) 0.06141(14)
Pd3E Pd 0.61604(8) -0.17741(6) 0.15337(12)
F1 F 0.9237(7) 0.2297(5) -0.0148(9)
F2 F 0.9315(7) 0.1951(6) -0.0407(8)
F3 F 0.9049(6) 0.2294(5) -0.0809(8)
F4 F 0.8809(8) 0.2051(5) -0.0611(8)
B1 B 0.9105(6) 0.2149(4) -0.0493(7)
F5 F 0.5436(6) 0.2092(5) 0.0892(8)
F6 F 0.4822(7) 0.2113(7) 0.0366(12)
F7 F 0.5116(12) 0.2412(8) 0.0970(12)
F8 F 0.5174(10) 0.2467(7) 0.0412(4)
B2 B 0.5132(6) 0.2273(4) 0.0654(6)
O1 O 1.0637(17) 0.2314(13) 0.216(2)
O2 O 1.0000 0.1151(14) 0.0000
O3 O 0.484(2) 0.1642(18) 0.094(3)
O4 O 0.606(2) 0.2921(17) -0.183(3)
loop_
_geom_bond_atom_site_label_1
_geom_bond_atom_site_label_2
_geom_bond_site_symmetry_1
_geom_bond_site_symmetry_2
N1 C1 1_555 1_555
C1 H1 1_555 1_555
C2 C1 1_555 1_555
H2 C2 1_555 1_555
C3 C2 1_555 1_555
C4 C3 1_555 1_555
H3 C4 1_555 1_555
C5 N1 1_555 1_555
H4 C5 1_555 1_555
N2 C6 1_555 1_555
C6 H5 1_555 1_555
C7 C6 1_555 1_555
H6 C7 1_555 1_555
C8 C7 1_555 1_555
C9 C8 1_555 1_555
H7 C9 1_555 1_555
C10 N2 1_555 1_555
H8 C10 1_555 1_555
C11 C3 1_555 1_555
C12 C11 1_555 1_555
C13 C8 1_555 1_555
C14 C13 1_555 1_555
N3 C15 1_555 1_555
C15 C12 1_555 1_555
C16 C15 1_555 1_555
H9 C16 1_555 1_555
C17 C16 1_555 1_555
H10 C17 1_555 1_555
C18 C17 1_555 1_555
H11 C18 1_555 1_555
C19 C14 1_555 1_555
N4 C20 1_555 1_555
C20 H12 1_555 1_555
C21 C20 1_555 1_555
H13 C21 1_555 1_555
C22 C21 1_555 1_555
C23 C22 1_555 1_555
H14 C23 1_555 1_555
C24 N4 1_555 1_555
H15 C24 1_555 1_555
N5 C25 1_555 1_555
C25 H16 1_555 1_555
C26 C25 1_555 1_555
H17 C26 1_555 1_555
C27 C26 1_555 1_555
C28 C27 1_555 1_555
H18 C28 1_555 1_555
C29 N5 1_555 1_555
H19 C29 1_555 1_555
C30 C22 1_555 1_555
C31 C30 1_555 1_555
C32 C27 1_555 1_555
C33 C32 1_555 1_555
N6 C34 1_555 1_555
C34 C31 1_555 1_555
C35 C34 1_555 1_555
H20 C35 1_555 1_555
C36 C35 1_555 1_555
H21 C36 1_555 1_555
C37 C36 1_555 1_555
H22 C37 1_555 1_555
C38 C33 1_555 1_555
N7 C39 1_555 1_555
C39 H23 1_555 1_555
C40 C39 1_555 1_555
H24 C40 1_555 1_555
C41 C40 1_555 1_555
C42 C41 1_555 1_555
H25 C42 1_555 1_555
C43 N7 1_555 1_555
H26 C43 1_555 1_555
N8 C44 1_555 1_555
C44 H27 1_555 1_555
C45 C44 1_555 1_555
H28 C45 1_555 1_555
C46 C45 1_555 1_555
C47 C46 1_555 1_555
H29 C47 1_555 1_555
C48 N8 1_555 1_555
H30 C48 1_555 1_555
C49 C41 1_555 1_555
C50 C49 1_555 1_555
C51 C46 1_555 1_555
C52 C51 1_555 1_555
N9 C53 1_555 1_555
C53 C50 1_555 1_555
C54 C53 1_555 1_555
H31 C54 1_555 1_555
C55 C54 1_555 1_555
H32 C55 1_555 1_555
C56 C55 1_555 1_555
H33 C56 1_555 1_555
C57 C52 1_555 1_555
N10 C58 1_555 1_555
C58 H34 1_555 1_555
C59 C58 1_555 1_555
H35 C59 1_555 1_555
C60 C59 1_555 1_555
C61 C60 1_555 1_555
H36 C61 1_555 1_555
C62 N10 1_555 1_555
H37 C62 1_555 1_555
N11 C63 1_555 1_555
C63 H38 1_555 1_555
C64 C63 1_555 1_555
H39 C64 1_555 1_555
C65 C64 1_555 1_555
C66 C65 1_555 1_555
H40 C66 1_555 1_555
C67 N11 1_555 1_555
H41 C67 1_555 1_555
C68 C60 1_555 1_555
C69 C68 1_555 1_555
C70 C65 1_555 1_555
C71 C70 1_555 1_555
N12 C72 1_555 1_555
C72 C69 1_555 1_555
C73 C72 1_555 1_555
H42 C73 1_555 1_555
C74 C73 1_555 1_555
H43 C74 1_555 1_555
C75 C74 1_555 1_555
H44 C75 1_555 1_555
C76 C71 1_555 1_555
N13 C77 1_555 1_555
C77 H45 1_555 1_555
C78 C77 1_555 1_555
H46 C78 1_555 1_555
C79 C78 1_555 1_555
C80 C79 1_555 1_555
H47 C80 1_555 1_555
C81 N13 1_555 1_555
H48 C81 1_555 1_555
N14 C82 1_555 1_555
C82 H49 1_555 1_555
C83 C82 1_555 1_555
H50 C83 1_555 1_555
C84 C83 1_555 1_555
C85 C84 1_555 1_555
H51 C85 1_555 1_555
C86 N14 1_555 1_555
H52 C86 1_555 1_555
C87 C79 1_555 1_555
C88 C87 1_555 1_555
C89 C84 1_555 1_555
C90 C89 1_555 1_555
N15 C91 1_555 1_555
C91 C88 1_555 1_555
C92 C91 1_555 1_555
H53 C92 1_555 1_555
C93 C92 1_555 1_555
H54 C93 1_555 1_555
C94 C93 1_555 1_555
H55 C94 1_555 1_555
C95 C90 1_555 1_555
N16 C96 1_555 1_555
C96 H56 1_555 1_555
C97 C96 1_555 1_555
H57 C97 1_555 1_555
C98 C97 1_555 1_555
C99 C98 1_555 1_555
H58 C99 1_555 1_555
C100 N16 1_555 1_555
H59 C100 1_555 1_555
C101 C98 1_555 1_555
C102 C101 1_555 1_555
N17 C103 1_555 1_555
C103 C102 1_555 1_555
C104 C103 1_555 1_555
H60 C104 1_555 1_555
C105 C104 1_555 1_555
H61 C105 1_555 1_555
N18 C106 1_555 1_555
C106 H62 1_555 1_555
C107 C106 1_555 1_555
H63 C107 1_555 1_555
C108 C107 1_555 1_555
C109 C108 1_555 1_555
H64 C109 1_555 1_555
C110 N18 1_555 1_555
H65 C110 1_555 1_555
C111 C108 1_555 1_555
C112 C111 1_555 1_555
N19 C113 1_555 1_555
C113 C112 1_555 1_555
C114 C113 1_555 1_555
H66 C114 1_555 1_555
C115 C114 1_555 1_555
H67 C115 1_555 1_555
Pd1 N5 1_555 1_555
Pd2 N1 1_555 1_555
Pd3 N10 1_555 1_555
Pd4 N8 1_555 1_555
F1 B1 1_555 1_555
F2 B1 1_555 1_555
F3 B1 1_555 1_555
F4 B1 1_555 1_555
F5 B2 1_555 1_555
F6 B2 1_555 1_555
F7 B2 1_555 1_555
F8 B2 1_555 1_555
N16E C96E 1_555 1_555
C96E H56E 1_555 1_555
C97E C96E 1_555 1_555
H57E C97E 1_555 1_555
C98E C97E 1_555 1_555
C99E C98E 1_555 1_555
H58E C99E 1_555 1_555
C100E N16E 1_555 1_555
H59E C100E 1_555 1_555
C101E C98E 1_555 1_555
C102E C101E 1_555 1_555
C103E N17 1_555 1_555
C104E C105 1_555 1_555
H60E C104E 1_555 1_555
N18E C106E 1_555 1_555
C106E H62E 1_555 1_555
C107E C106E 1_555 1_555
H63E C107E 1_555 1_555
C108E C107E 1_555 1_555
C109E C108E 1_555 1_555
H64E C109E 1_555 1_555
C110E N18E 1_555 1_555
H65E C110E 1_555 1_555
C111E C108E 1_555 1_555
C112E C111E 1_555 1_555
C113E N19 1_555 1_555
C114E C115 1_555 1_555
H66E C114E 1_555 1_555
N1A C1A 1_555 1_555
C1A H1A 1_555 1_555
C2A C1A 1_555 1_555
H2A C2A 1_555 1_555
C3A C2A 1_555 1_555
C4A C3A 1_555 1_555
H3A C4A 1_555 1_555
C5A N1A 1_555 1_555
H4A C5A 1_555 1_555
N2A Pd3 1_555 1_555
C6A N2A 1_555 1_555
H5A C6A 1_555 1_555
C7A C6A 1_555 1_555
H6A C7A 1_555 1_555
C8A C7A 1_555 1_555
C9A C8A 1_555 1_555
H7A C9A 1_555 1_555
C10A N2A 1_555 1_555
H8A C10A 1_555 1_555
C11A C3A 1_555 1_555
C12A C11A 1_555 1_555
C13A C8A 1_555 1_555
C14A C13A 1_555 1_555
N3A C15A 1_555 1_555
C15A C12A 1_555 1_555
C16A C15A 1_555 1_555
H9A C16A 1_555 1_555
C17A C16A 1_555 1_555
H10A C17A 1_555 1_555
C18A C17A 1_555 1_555
H11A C18A 1_555 1_555
C19A C14A 1_555 1_555
N4A C20A 1_555 1_555
C20A H12A 1_555 1_555
C21A C20A 1_555 1_555
H13A C21A 1_555 1_555
C22A C21A 1_555 1_555
C23A C22A 1_555 1_555
H14A C23A 1_555 1_555
C24A N4A 1_555 1_555
H15A C24A 1_555 1_555
N5A C25A 1_555 1_555
C25A H16A 1_555 1_555
C26A C25A 1_555 1_555
H17A C26A 1_555 1_555
C27A C26A 1_555 1_555
C28A C27A 1_555 1_555
H18A C28A 1_555 1_555
C29A N5A 1_555 1_555
H19A C29A 1_555 1_555
C30A C22A 1_555 1_555
C31A C30A 1_555 1_555
C32A C27A 1_555 1_555
C33A C32A 1_555 1_555
N6A C34A 1_555 1_555
C34A C31A 1_555 1_555
C35A C34A 1_555 1_555
H20A C35A 1_555 1_555
C36A C35A 1_555 1_555
H21A C36A 1_555 1_555
C37A C36A 1_555 1_555
H22A C37A 1_555 1_555
C38A C33A 1_555 1_555
N7A C39A 1_555 1_555
C39A H23A 1_555 1_555
C40A C39A 1_555 1_555
H24A C40A 1_555 1_555
C41A C40A 1_555 1_555
C42A C41A 1_555 1_555
H25A C42A 1_555 1_555
C43A N7A 1_555 1_555
H26A C43A 1_555 1_555
N8A Pd4 1_555 1_555
C44A N8A 1_555 1_555
H27A C44A 1_555 1_555
C45A C44A 1_555 1_555
H28A C45A 1_555 1_555
C46A C45A 1_555 1_555
C47A C46A 1_555 1_555
H29A C47A 1_555 1_555
C48A N8A 1_555 1_555
H30A C48A 1_555 1_555
C49A C41A 1_555 1_555
C50A C49A 1_555 1_555
C51A C46A 1_555 1_555
C52A C51A 1_555 1_555
N9A C53A 1_555 1_555
C53A C50A 1_555 1_555
C54A C53A 1_555 1_555
H31A C54A 1_555 1_555
C55A C54A 1_555 1_555
H32A C55A 1_555 1_555
C56A C55A 1_555 1_555
H33A C56A 1_555 1_555
C57A C52A 1_555 1_555
N10A C58A 1_555 1_555
C58A H34A 1_555 1_555
C59A C58A 1_555 1_555
H35A C59A 1_555 1_555
C60A C59A 1_555 1_555
C61A C60A 1_555 1_555
H36A C61A 1_555 1_555
C62A N10A 1_555 1_555
H37A C62A 1_555 1_555
N11A Pd4 1_555 1_555
C63A N11A 1_555 1_555
H38A C63A 1_555 1_555
C64A C63A 1_555 1_555
H39A C64A 1_555 1_555
C65A C64A 1_555 1_555
C66A C65A 1_555 1_555
H40A C66A 1_555 1_555
C67A N11A 1_555 1_555
H41A C67A 1_555 1_555
C68A C60A 1_555 1_555
C69A C68A 1_555 1_555
C70A C65A 1_555 1_555
C71A C70A 1_555 1_555
N12A C72A 1_555 1_555
C72A C69A 1_555 1_555
C73A C72A 1_555 1_555
H42A C73A 1_555 1_555
C74A C73A 1_555 1_555
H43A C74A 1_555 1_555
C75A C74A 1_555 1_555
H44A C75A 1_555 1_555
C76A C71A 1_555 1_555
N13A C77A 1_555 1_555
C77A H45A 1_555 1_555
C78A C77A 1_555 1_555
H46A C78A 1_555 1_555
C79A C78A 1_555 1_555
C80A C79A 1_555 1_555
H47A C80A 1_555 1_555
C81A N13A 1_555 1_555
H48A C81A 1_555 1_555
N14A C82A 1_555 1_555
C82A H49A 1_555 1_555
C83A C82A 1_555 1_555
H50A C83A 1_555 1_555
C84A C83A 1_555 1_555
C85A C84A 1_555 1_555
H51A C85A 1_555 1_555
C86A N14A 1_555 1_555
H52A C86A 1_555 1_555
C87A C79A 1_555 1_555
C88A C87A 1_555 1_555
C89A C84A 1_555 1_555
C90A C89A 1_555 1_555
N15A C91A 1_555 1_555
C91A C88A 1_555 1_555
C92A C91A 1_555 1_555
H53A C92A 1_555 1_555
C93A C92A 1_555 1_555
H54A C93A 1_555 1_555
C94A C93A 1_555 1_555
H55A C94A 1_555 1_555
C95A C90A 1_555 1_555
N16A C96A 1_555 1_555
C96A H56A 1_555 1_555
C97A C96A 1_555 1_555
H57A C97A 1_555 1_555
C98A C97A 1_555 1_555
C99A C98A 1_555 1_555
H58A C99A 1_555 1_555
C100A N16A 1_555 1_555
H59A C100A 1_555 1_555
C101A C98A 1_555 1_555
C102A C101A 1_555 1_555
N17A C103A 1_555 1_555
C103A C102A 1_555 1_555
C104A C103A 1_555 1_555
H60A C104A 1_555 1_555
C105A C104A 1_555 1_555
H61A C105A 1_555 1_555
N18A C106A 1_555 1_555
C106A H62A 1_555 1_555
C107A C106A 1_555 1_555
H63A C107A 1_555 1_555
C108A C107A 1_555 1_555
C109A C108A 1_555 1_555
H64A C109A 1_555 1_555
C110A N18A 1_555 1_555
H65A C110A 1_555 1_555
C111A C108A 1_555 1_555
C112A C111A 1_555 1_555
N19A C113A 1_555 1_555
C113A C112A 1_555 1_555
C114A C113A 1_555 1_555
H66A C114A 1_555 1_555
C115A C114A 1_555 1_555
H67A C115A 1_555 1_555
Pd1A N5A 1_555 1_555
Pd2A N1A 1_555 1_555
Pd3A N2 1_555 1_555
N16D C96D 1_555 1_555
C96D H56D 1_555 1_555
C97D C96D 1_555 1_555
H57D C97D 1_555 1_555
C98D C97D 1_555 1_555
C99D C98D 1_555 1_555
H58D C99D 1_555 1_555
C100D N16D 1_555 1_555
H59D C100D 1_555 1_555
C101D C98D 1_555 1_555
C102D C101D 1_555 1_555
C103D N17A 1_555 1_555
C104D C105A 1_555 1_555
H60D C104D 1_555 1_555
N18D C106D 1_555 1_555
C106D H62D 1_555 1_555
C107D C106D 1_555 1_555
H63D C107D 1_555 1_555
C108D C107D 1_555 1_555
C109D C108D 1_555 1_555
H64D C109D 1_555 1_555
C110D N18D 1_555 1_555
H65D C110D 1_555 1_555
C111D C108D 1_555 1_555
C112D C111D 1_555 1_555
C113D N19A 1_555 1_555
C114D C115A 1_555 1_555
H66D C114D 1_555 1_555
N1D Pd2A 1_555 1_555
C1D N1D 1_555 1_555
H1D C1D 1_555 1_555
C2D C1D 1_555 1_555
H2D C2D 1_555 1_555
C3D C2D 1_555 1_555
C4D C3D 1_555 1_555
H3D C4D 1_555 1_555
C5D N1D 1_555 1_555
H4D C5D 1_555 1_555
N2D C6D 1_555 1_555
C6D H5D 1_555 1_555
C7D C6D 1_555 1_555
H6D C7D 1_555 1_555
C8D C7D 1_555 1_555
C9D C8D 1_555 1_555
H7D C9D 1_555 1_555
C10D N2D 1_555 1_555
H8D C10D 1_555 1_555
C11D C3D 1_555 1_555
C12D C11D 1_555 1_555
C13D C8D 1_555 1_555
C14D C13D 1_555 1_555
N3D C15D 1_555 1_555
C15D C12D 1_555 1_555
C16D C15D 1_555 1_555
H9D C16D 1_555 1_555
C17D C16D 1_555 1_555
H10D C17D 1_555 1_555
C18D C17D 1_555 1_555
H11D C18D 1_555 1_555
C19D C14D 1_555 1_555
N4D Pd2A 1_555 1_555
C20D N4D 1_555 1_555
H12D C20D 1_555 1_555
C21D C20D 1_555 1_555
H13D C21D 1_555 1_555
C22D C21D 1_555 1_555
C23D C22D 1_555 1_555
H14D C23D 1_555 1_555
C24D N4D 1_555 1_555
H15D C24D 1_555 1_555
N5D C25D 1_555 1_555
C25D H16D 1_555 1_555
C26D C25D 1_555 1_555
H17D C26D 1_555 1_555
C27D C26D 1_555 1_555
C28D C27D 1_555 1_555
H18D C28D 1_555 1_555
C29D N5D 1_555 1_555
H19D C29D 1_555 1_555
C30D C22D 1_555 1_555
C31D C30D 1_555 1_555
C32D C27D 1_555 1_555
C33D C32D 1_555 1_555
N6D C34D 1_555 1_555
C34D C31D 1_555 1_555
C35D C34D 1_555 1_555
H20D C35D 1_555 1_555
C36D C35D 1_555 1_555
H21D C36D 1_555 1_555
C37D C36D 1_555 1_555
H22D C37D 1_555 1_555
C38D C33D 1_555 1_555
N7D C39D 1_555 1_555
C39D H23D 1_555 1_555
C40D C39D 1_555 1_555
H24D C40D 1_555 1_555
C41D C40D 1_555 1_555
C42D C41D 1_555 1_555
H25D C42D 1_555 1_555
C43D N7D 1_555 1_555
H26D C43D 1_555 1_555
N8D C44D 1_555 1_555
C44D H27D 1_555 1_555
C45D C44D 1_555 1_555
H28D C45D 1_555 1_555
C46D C45D 1_555 1_555
C47D C46D 1_555 1_555
H29D C47D 1_555 1_555
C48D N8D 1_555 1_555
H30D C48D 1_555 1_555
C49D C41D 1_555 1_555
C50D C49D 1_555 1_555
C51D C46D 1_555 1_555
C52D C51D 1_555 1_555
N9D C53D 1_555 1_555
C53D C50D 1_555 1_555
C54D C53D 1_555 1_555
H31D C54D 1_555 1_555
C55D C54D 1_555 1_555
H32D C55D 1_555 1_555
C56D C55D 1_555 1_555
H33D C56D 1_555 1_555
C57D C52D 1_555 1_555
N10D C58D 1_555 1_555
C58D H34D 1_555 1_555
C59D C58D 1_555 1_555
H35D C59D 1_555 1_555
C60D C59D 1_555 1_555
C61D C60D 1_555 1_555
H36D C61D 1_555 1_555
C62D N10D 1_555 1_555
H37D C62D 1_555 1_555
N11D C63D 1_555 1_555
C63D H38D 1_555 1_555
C64D C63D 1_555 1_555
H39D C64D 1_555 1_555
C65D C64D 1_555 1_555
C66D C65D 1_555 1_555
H40D C66D 1_555 1_555
C67D N11D 1_555 1_555
H41D C67D 1_555 1_555
C68D C60D 1_555 1_555
C69D C68D 1_555 1_555
C70D C65D 1_555 1_555
C71D C70D 1_555 1_555
N12D C72D 1_555 1_555
C72D C69D 1_555 1_555
C73D C72D 1_555 1_555
H42D C73D 1_555 1_555
C74D C73D 1_555 1_555
H43D C74D 1_555 1_555
C75D C74D 1_555 1_555
H44D C75D 1_555 1_555
C76D C71D 1_555 1_555
N13D C77D 1_555 1_555
C77D H45D 1_555 1_555
C78D C77D 1_555 1_555
H46D C78D 1_555 1_555
C79D C78D 1_555 1_555
C80D C79D 1_555 1_555
H47D C80D 1_555 1_555
C81D N13D 1_555 1_555
H48D C81D 1_555 1_555
N14D C82D 1_555 1_555
C82D H49D 1_555 1_555
C83D C82D 1_555 1_555
H50D C83D 1_555 1_555
C84D C83D 1_555 1_555
C85D C84D 1_555 1_555
H51D C85D 1_555 1_555
C86D N14D 1_555 1_555
H52D C86D 1_555 1_555
C87D C79D 1_555 1_555
C88D C87D 1_555 1_555
C89D C84D 1_555 1_555
C90D C89D 1_555 1_555
N15D C91D 1_555 1_555
C91D C88D 1_555 1_555
C92D C91D 1_555 1_555
H53D C92D 1_555 1_555
C93D C92D 1_555 1_555
H54D C93D 1_555 1_555
C94D C93D 1_555 1_555
H55D C94D 1_555 1_555
C95D C90D 1_555 1_555
Pd1D N18D 1_555 1_555
Pd3D N16D 1_555 1_555
Pd4D N8D 1_555 1_555
N1E Pd2 1_555 1_555
C1E N1E 1_555 1_555
H1E C1E 1_555 1_555
C2E C1E 1_555 1_555
H2E C2E 1_555 1_555
C3E C2E 1_555 1_555
C4E C3E 1_555 1_555
H3E C4E 1_555 1_555
C5E N1E 1_555 1_555
H4E C5E 1_555 1_555
N2E Pd3D 1_555 1_555
C6E N2E 1_555 1_555
H5E C6E 1_555 1_555
C7E C6E 1_555 1_555
H6E C7E 1_555 1_555
C8E C7E 1_555 1_555
C9E C8E 1_555 1_555
H7E C9E 1_555 1_555
C10E N2E 1_555 1_555
H8E C10E 1_555 1_555
C11E C3E 1_555 1_555
C12E C11E 1_555 1_555
C13E C8E 1_555 1_555
C14E C13E 1_555 1_555
N3E C15E 1_555 1_555
C15E C12E 1_555 1_555
C16E C15E 1_555 1_555
H9E C16E 1_555 1_555
C17E C16E 1_555 1_555
H10E C17E 1_555 1_555
C18E C17E 1_555 1_555
H11E C18E 1_555 1_555
C19E C14E 1_555 1_555
N4E Pd2 1_555 1_555
C20E N4E 1_555 1_555
H12E C20E 1_555 1_555
C21E C20E 1_555 1_555
H13E C21E 1_555 1_555
C22E C21E 1_555 1_555
C23E C22E 1_555 1_555
H14E C23E 1_555 1_555
C24E N4E 1_555 1_555
H15E C24E 1_555 1_555
N5E C25E 1_555 1_555
C25E H16E 1_555 1_555
C26E C25E 1_555 1_555
H17E C26E 1_555 1_555
C27E C26E 1_555 1_555
C28E C27E 1_555 1_555
H18E C28E 1_555 1_555
C29E N5E 1_555 1_555
H19E C29E 1_555 1_555
C30E C22E 1_555 1_555
C31E C30E 1_555 1_555
C32E C27E 1_555 1_555
C33E C32E 1_555 1_555
N6E C34E 1_555 1_555
C34E C31E 1_555 1_555
C35E C34E 1_555 1_555
H20E C35E 1_555 1_555
C36E C35E 1_555 1_555
H21E C36E 1_555 1_555
C37E C36E 1_555 1_555
H22E C37E 1_555 1_555
C38E C33E 1_555 1_555
N7E C39E 1_555 1_555
C39E H23E 1_555 1_555
C40E C39E 1_555 1_555
H24E C40E 1_555 1_555
C41E C40E 1_555 1_555
C42E C41E 1_555 1_555
H25E C42E 1_555 1_555
C43E N7E 1_555 1_555
H26E C43E 1_555 1_555
N8E Pd4D 1_555 1_555
C44E N8E 1_555 1_555
H27E C44E 1_555 1_555
C45E C44E 1_555 1_555
H28E C45E 1_555 1_555
C46E C45E 1_555 1_555
C47E C46E 1_555 1_555
H29E C47E 1_555 1_555
C48E N8E 1_555 1_555
H30E C48E 1_555 1_555
C49E C41E 1_555 1_555
C50E C49E 1_555 1_555
C51E C46E 1_555 1_555
C52E C51E 1_555 1_555
N9E C53E 1_555 1_555
C53E C50E 1_555 1_555
C54E C53E 1_555 1_555
H31E C54E 1_555 1_555
C55E C54E 1_555 1_555
H32E C55E 1_555 1_555
C56E C55E 1_555 1_555
H33E C56E 1_555 1_555
C57E C52E 1_555 1_555
N10E C58E 1_555 1_555
C58E H34E 1_555 1_555
C59E C58E 1_555 1_555
H35E C59E 1_555 1_555
C60E C59E 1_555 1_555
C61E C60E 1_555 1_555
H36E C61E 1_555 1_555
C62E N10E 1_555 1_555
H37E C62E 1_555 1_555
N11E Pd4D 1_555 1_555
C63E N11E 1_555 1_555
H38E C63E 1_555 1_555
C64E C63E 1_555 1_555
H39E C64E 1_555 1_555
C65E C64E 1_555 1_555
C66E C65E 1_555 1_555
H40E C66E 1_555 1_555
C67E N11E 1_555 1_555
H41E C67E 1_555 1_555
C68E C60E 1_555 1_555
C69E C68E 1_555 1_555
C70E C65E 1_555 1_555
C71E C70E 1_555 1_555
N12E C72E 1_555 1_555
C72E C69E 1_555 1_555
C73E C72E 1_555 1_555
H42E C73E 1_555 1_555
C74E C73E 1_555 1_555
H43E C74E 1_555 1_555
C75E C74E 1_555 1_555
H44E C75E 1_555 1_555
C76E C71E 1_555 1_555
N13E C77E 1_555 1_555
C77E H45E 1_555 1_555
C78E C77E 1_555 1_555
H46E C78E 1_555 1_555
C79E C78E 1_555 1_555
C80E C79E 1_555 1_555
H47E C80E 1_555 1_555
C81E N13E 1_555 1_555
H48E C81E 1_555 1_555
N14E C82E 1_555 1_555
C82E H49E 1_555 1_555
C83E C82E 1_555 1_555
H50E C83E 1_555 1_555
C84E C83E 1_555 1_555
C85E C84E 1_555 1_555
H51E C85E 1_555 1_555
C86E N14E 1_555 1_555
H52E C86E 1_555 1_555
C87E C79E 1_555 1_555
C88E C87E 1_555 1_555
C89E C84E 1_555 1_555
C90E C89E 1_555 1_555
N15E C91E 1_555 1_555
C91E C88E 1_555 1_555
C92E C91E 1_555 1_555
H53E C92E 1_555 1_555
C93E C92E 1_555 1_555
H54E C93E 1_555 1_555
C94E C93E 1_555 1_555
H55E C94E 1_555 1_555
C95E C90E 1_555 1_555
Pd1E N18E 1_555 1_555
Pd3E N16E 1_555 1_555
C4 C5 1_555 1_555
C9 C10 1_555 1_555
N3 C19 1_555 1_555
C18 C19 1_555 1_555
N4 Pd2 1_555 1_555
C23 C24 1_555 1_555
C28 C29 1_555 1_555
N6 C38 1_555 1_555
C37 C38 1_555 1_555
N7 Pd1 1_555 1_555
C42 C43 1_555 1_555
C47 C48 1_555 1_555
N9 C57 1_555 1_555
C56 C57 1_555 1_555
C61 C62 1_555 1_555
N11 Pd4 1_555 1_555
C66 C67 1_555 1_555
N12 C76 1_555 1_555
C75 C76 1_555 1_555
N13 Pd1 1_555 1_555
C80 C81 1_555 1_555
N14 Pd3 1_555 1_555
C85 C86 1_555 1_555
N15 C95 1_555 1_555
C94 C95 1_555 1_555
N16 Pd3 1_555 1_555
C99 C100 1_555 1_555
N18 Pd1 1_555 1_555
C109 C110 1_555 1_555
C99E C100E 1_555 1_555
C102E C103E 1_555 1_555
C103E C104E 1_555 1_555
C109E C110E 1_555 1_555
C112E C113E 1_555 1_555
C113E C114E 1_555 1_555
C4A C5A 1_555 1_555
C9A C10A 1_555 1_555
N3A C19A 1_555 1_555
C18A C19A 1_555 1_555
N4A Pd2A 1_555 1_555
C23A C24A 1_555 1_555
C28A C29A 1_555 1_555
N6A C38A 1_555 1_555
C37A C38A 1_555 1_555
N7A Pd1A 1_555 1_555
C42A C43A 1_555 1_555
C47A C48A 1_555 1_555
N9A C57A 1_555 1_555
C56A C57A 1_555 1_555
N10A Pd3A 1_555 1_555
C61A C62A 1_555 1_555
C66A C67A 1_555 1_555
N12A C76A 1_555 1_555
C75A C76A 1_555 1_555
N13A Pd1A 1_555 1_555
C80A C81A 1_555 1_555
N14A Pd3A 1_555 1_555
C85A C86A 1_555 1_555
N15A C95A 1_555 1_555
C94A C95A 1_555 1_555
N16A Pd3A 1_555 1_555
C99A C100A 1_555 1_555
N18A Pd1A 1_555 1_555
C109A C110A 1_555 1_555
C99D C100D 1_555 1_555
C102D C103D 1_555 1_555
C103D C104D 1_555 1_555
C109D C110D 1_555 1_555
C112D C113D 1_555 1_555
C113D C114D 1_555 1_555
C4D C5D 1_555 1_555
N2D Pd3E 1_555 1_555
C9D C10D 1_555 1_555
N3D C19D 1_555 1_555
C18D C19D 1_555 1_555
C23D C24D 1_555 1_555
N5D Pd1D 1_555 1_555
C28D C29D 1_555 1_555
N6D C38D 1_555 1_555
C37D C38D 1_555 1_555
N7D Pd1D 1_555 1_555
C42D C43D 1_555 1_555
C47D C48D 1_555 1_555
N9D C57D 1_555 1_555
C56D C57D 1_555 1_555
N10D Pd3D 1_555 1_555
C61D C62D 1_555 1_555
N11D Pd4D 1_555 1_555
C66D C67D 1_555 1_555
N12D C76D 1_555 1_555
C75D C76D 1_555 1_555
N13D Pd1D 1_555 1_555
C80D C81D 1_555 1_555
N14D Pd3D 1_555 1_555
C85D C86D 1_555 1_555
N15D C95D 1_555 1_555
C94D C95D 1_555 1_555
C4E C5E 1_555 1_555
C9E C10E 1_555 1_555
N3E C19E 1_555 1_555
C18E C19E 1_555 1_555
C23E C24E 1_555 1_555
N5E Pd1E 1_555 1_555
C28E C29E 1_555 1_555
N6E C38E 1_555 1_555
C37E C38E 1_555 1_555
N7E Pd1E 1_555 1_555
C42E C43E 1_555 1_555
C47E C48E 1_555 1_555
N9E C57E 1_555 1_555
C56E C57E 1_555 1_555
N10E Pd3E 1_555 1_555
C61E C62E 1_555 1_555
C66E C67E 1_555 1_555
N12E C76E 1_555 1_555
C75E C76E 1_555 1_555
N13E Pd1E 1_555 1_555
C80E C81E 1_555 1_555
N14E Pd3E 1_555 1_555
C85E C86E 1_555 1_555
N15E C95E 1_555 1_555
C94E C95E 1_555 1_555

#END
