# generated using pymatgen
data_B10H132Pd6C228N36O7F27
_symmetry_space_group_name_H-M   'P 1'
_cell_length_a   33.93975390
_cell_length_b   33.93975390
_cell_length_c   38.13000000
_cell_angle_alpha   115.29705298
_cell_angle_beta   115.29705298
_cell_angle_gamma   91.29400948
_symmetry_Int_Tables_number   1
_chemical_formula_structural   B10H132Pd6C228N36O7F27
_chemical_formula_sum   'B20 H264 Pd12 C456 N72 O14 F54'
_cell_volume   34752.79468067
_cell_formula_units_Z   2
loop_
 _symmetry_equiv_pos_site_id
 _symmetry_equiv_pos_as_xyz
  1  'x, y, z'
loop_
 _atom_site_type_symbol
 _atom_site_label
 _atom_site_symmetry_multiplicity
 _atom_site_fract_x
 _atom_site_fract_y
 _atom_site_fract_z
 _atom_site_occupancy
  B  B1  1  0.874600  0.304400  0.049300  1
  B  B2  1  0.695600  0.125400  0.950700  1
  B  B3  1  0.125400  0.695600  0.950700  1
  B  B4  1  0.304400  0.874600  0.049300  1
  B  B5  1  0.259500  0.714100  0.934600  1
  B  B6  1  0.285900  0.740500  0.065400  1
  B  B7  1  0.740500  0.285900  0.065400  1
  B  B8  1  0.714100  0.259500  0.934600  1
  B  B9  1  0.142400  0.411600  0.752000  1
  B  B10  1  0.588400  0.857600  0.248000  1
  B  B11  1  0.857600  0.588400  0.248000  1
  B  B12  1  0.411600  0.142400  0.752000  1
  B  B13  1  0.896600  0.186800  0.805800  1
  B  B14  1  0.813200  0.103400  0.194200  1
  B  B15  1  0.103400  0.813200  0.194200  1
  B  B16  1  0.186800  0.896600  0.805800  1
  B  B17  1  0.731000  0.269000  0.500000  1
  B  B18  1  0.269000  0.731000  0.500000  1
  B  B19  1  0.594800  0.594800  0.612000  1
  B  B20  1  0.405200  0.405200  0.388000  1
  C  C21  1  0.509100  0.509100  0.066700  1.0
  C  C22  1  0.490900  0.490900  0.933300  1.0
  C  C23  1  0.137800  0.137800  0.151000  1.0
  C  C24  1  0.862200  0.862200  0.849000  1.0
  C  C25  1  0.629100  0.717500  0.533000  1.0
  C  C26  1  0.282500  0.370900  0.467000  1.0
  C  C27  1  0.370900  0.282500  0.467000  1.0
  C  C28  1  0.717500  0.629100  0.533000  1.0
  C  C29  1  0.590000  0.723400  0.504900  1.0
  C  C30  1  0.276600  0.410000  0.495100  1.0
  C  C31  1  0.410000  0.276600  0.495100  1.0
  C  C32  1  0.723400  0.590000  0.504900  1.0
  C  C33  1  0.548200  0.698200  0.490900  1.0
  C  C34  1  0.301800  0.451800  0.509100  1.0
  C  C35  1  0.451800  0.301800  0.509100  1.0
  C  C36  1  0.698200  0.548200  0.490900  1.0
  C  C37  1  0.545700  0.667100  0.504900  1.0
  C  C38  1  0.332900  0.454300  0.495100  1.0
  C  C39  1  0.454300  0.332900  0.495100  1.0
  C  C40  1  0.667100  0.545700  0.504900  1.0
  C  C41  1  0.584800  0.661200  0.533100  1.0
  C  C42  1  0.338800  0.415200  0.466900  1.0
  C  C43  1  0.415200  0.338800  0.466900  1.0
  C  C44  1  0.661200  0.584800  0.533100  1.0
  C  C45  1  0.472900  0.784100  0.234900  1.0
  C  C46  1  0.215900  0.527100  0.765100  1.0
  C  C47  1  0.527100  0.215900  0.765100  1.0
  C  C48  1  0.784100  0.472900  0.234900  1.0
  C  C49  1  0.467800  0.773000  0.264100  1.0
  C  C50  1  0.227000  0.532200  0.735900  1.0
  C  C51  1  0.532200  0.227000  0.735900  1.0
  C  C52  1  0.773000  0.467800  0.264100  1.0
  C  C53  1  0.425300  0.753500  0.254000  1.0
  C  C54  1  0.246500  0.574700  0.746000  1.0
  C  C55  1  0.574700  0.246500  0.746000  1.0
  C  C56  1  0.753500  0.425300  0.254000  1.0
  C  C57  1  0.387900  0.744900  0.214600  1.0
  C  C58  1  0.255100  0.612100  0.785400  1.0
  C  C59  1  0.612100  0.255100  0.785400  1.0
  C  C60  1  0.744900  0.387900  0.214600  1.0
  C  C61  1  0.393000  0.756000  0.185400  1.0
  C  C62  1  0.244000  0.607000  0.814600  1.0
  C  C63  1  0.607000  0.244000  0.814600  1.0
  C  C64  1  0.756000  0.393000  0.185400  1.0
  C  C65  1  0.513000  0.710200  0.464000  1.0
  C  C66  1  0.289800  0.487000  0.536000  1.0
  C  C67  1  0.487000  0.289800  0.536000  1.0
  C  C68  1  0.710200  0.513000  0.464000  1.0
  C  C69  1  0.482700  0.713100  0.441400  1.0
  C  C70  1  0.286900  0.517300  0.558600  1.0
  C  C71  1  0.517300  0.286900  0.558600  1.0
  C  C72  1  0.713100  0.482700  0.441400  1.0
  C  C73  1  0.421600  0.745800  0.289800  1.0
  C  C74  1  0.254200  0.578400  0.710200  1.0
  C  C75  1  0.578400  0.254200  0.710200  1.0
  C  C76  1  0.745800  0.421600  0.289800  1.0
  C  C77  1  0.418300  0.742100  0.316700  1.0
  C  C78  1  0.257900  0.581700  0.683300  1.0
  C  C79  1  0.581700  0.257900  0.683300  1.0
  C  C80  1  0.742100  0.418300  0.316700  1.0
  C  C81  1  0.447300  0.724900  0.409600  1.0
  C  C82  1  0.275100  0.552700  0.590400  1.0
  C  C83  1  0.552700  0.275100  0.590400  1.0
  C  C84  1  0.724900  0.447300  0.409600  1.0
  C  C85  1  0.410700  0.732100  0.416700  1.0
  C  C86  1  0.267900  0.589300  0.583300  1.0
  C  C87  1  0.589300  0.267900  0.583300  1.0
  C  C88  1  0.732100  0.410700  0.416700  1.0
  C  C89  1  0.375100  0.742300  0.389000  1.0
  C  C90  1  0.257700  0.624900  0.611000  1.0
  C  C91  1  0.624900  0.257700  0.611000  1.0
  C  C92  1  0.742300  0.375100  0.389000  1.0
  C  C93  1  0.376200  0.745200  0.354200  1.0
  C  C94  1  0.254800  0.623800  0.645800  1.0
  C  C95  1  0.623800  0.254800  0.645800  1.0
  C  C96  1  0.745200  0.376200  0.354200  1.0
  C  C97  1  0.413000  0.738000  0.347100  1.0
  C  C98  1  0.262000  0.587000  0.652900  1.0
  C  C99  1  0.587000  0.262000  0.652900  1.0
  C  C100  1  0.738000  0.413000  0.347100  1.0
  C  C101  1  0.645500  0.733500  0.656200  1.0
  C  C102  1  0.266500  0.354500  0.343800  1.0
  C  C103  1  0.354500  0.266500  0.343800  1.0
  C  C104  1  0.733500  0.645500  0.656200  1.0
  C  C105  1  0.642900  0.772500  0.687500  1.0
  C  C106  1  0.227500  0.357100  0.312500  1.0
  C  C107  1  0.357100  0.227500  0.312500  1.0
  C  C108  1  0.772500  0.642900  0.687500  1.0
  C  C109  1  0.672100  0.813500  0.705400  1.0
  C  C110  1  0.186500  0.327900  0.294600  1.0
  C  C111  1  0.327900  0.186500  0.294600  1.0
  C  C112  1  0.813500  0.672100  0.705400  1.0
  C  C113  1  0.704000  0.815400  0.692000  1.0
  C  C114  1  0.184600  0.296000  0.308000  1.0
  C  C115  1  0.296000  0.184600  0.308000  1.0
  C  C116  1  0.815400  0.704000  0.692000  1.0
  C  C117  1  0.706600  0.776400  0.660700  1.0
  C  C118  1  0.223600  0.293400  0.339300  1.0
  C  C119  1  0.293400  0.223600  0.339300  1.0
  C  C120  1  0.776400  0.706600  0.660700  1.0
  C  C121  1  0.839200  0.157400  0.877100  1.0
  C  C122  1  0.842600  0.160800  0.122900  1.0
  C  C123  1  0.160800  0.842600  0.122900  1.0
  C  C124  1  0.157400  0.839200  0.877100  1.0
  C  C125  1  0.807800  0.118000  0.859800  1.0
  C  C126  1  0.882000  0.192200  0.140200  1.0
  C  C127  1  0.192200  0.882000  0.140200  1.0
  C  C128  1  0.118000  0.807800  0.859800  1.0
  C  C129  1  0.781500  0.117500  0.879300  1.0
  C  C130  1  0.882500  0.218500  0.120700  1.0
  C  C131  1  0.218500  0.882500  0.120700  1.0
  C  C132  1  0.117500  0.781500  0.879300  1.0
  C  C133  1  0.786700  0.156100  0.916200  1.0
  C  C134  1  0.843900  0.213300  0.083800  1.0
  C  C135  1  0.213300  0.843900  0.083800  1.0
  C  C136  1  0.156100  0.786700  0.916200  1.0
  C  C137  1  0.818000  0.195400  0.933500  1.0
  C  C138  1  0.804600  0.182000  0.066500  1.0
  C  C139  1  0.182000  0.804600  0.066500  1.0
  C  C140  1  0.195400  0.818000  0.933500  1.0
  C  C141  1  0.663500  0.850500  0.734500  1.0
  C  C142  1  0.149500  0.336500  0.265500  1.0
  C  C143  1  0.336500  0.149500  0.265500  1.0
  C  C144  1  0.850500  0.663500  0.734500  1.0
  C  C145  1  0.663100  0.887100  0.761000  1.0
  C  C146  1  0.112900  0.336900  0.239000  1.0
  C  C147  1  0.336900  0.112900  0.239000  1.0
  C  C148  1  0.887100  0.663100  0.761000  1.0
  C  C149  1  0.752600  0.081200  0.867000  1.0
  C  C150  1  0.918800  0.247400  0.133000  1.0
  C  C151  1  0.247400  0.918800  0.133000  1.0
  C  C152  1  0.081200  0.752600  0.867000  1.0
  C  C153  1  0.726600  0.045600  0.849800  1.0
  C  C154  1  0.954400  0.273400  0.150200  1.0
  C  C155  1  0.273400  0.954400  0.150200  1.0
  C  C156  1  0.045600  0.726600  0.849800  1.0
  C  C157  1  0.662500  0.927700  0.791100  1.0
  C  C158  1  0.072300  0.337500  0.208900  1.0
  C  C159  1  0.337500  0.072300  0.208900  1.0
  C  C160  1  0.927700  0.662500  0.791100  1.0
  C  C161  1  0.629400  0.929800  0.803600  1.0
  C  C162  1  0.070200  0.370600  0.196400  1.0
  C  C163  1  0.370600  0.070200  0.196400  1.0
  C  C164  1  0.929800  0.629400  0.803600  1.0
  C  C165  1  0.627500  0.971100  0.832800  1.0
  C  C166  1  0.028900  0.372500  0.167200  1.0
  C  C167  1  0.372500  0.028900  0.167200  1.0
  C  C168  1  0.971100  0.627500  0.832800  1.0
  C  C169  1  0.658700  0.010100  0.849400  1.0
  C  C170  1  0.989900  0.341300  0.150600  1.0
  C  C171  1  0.341300  0.989900  0.150600  1.0
  C  C172  1  0.010100  0.658700  0.849400  1.0
  C  C173  1  0.691900  0.008100  0.836800  1.0
  C  C174  1  0.991900  0.308100  0.163200  1.0
  C  C175  1  0.308100  0.991900  0.163200  1.0
  C  C176  1  0.008100  0.691900  0.836800  1.0
  C  C177  1  0.834700  0.270500  0.865100  1.0
  C  C178  1  0.729500  0.165300  0.134900  1.0
  C  C179  1  0.165300  0.729500  0.134900  1.0
  C  C180  1  0.270500  0.834700  0.865100  1.0
  C  C181  1  0.801300  0.286700  0.842600  1.0
  C  C182  1  0.713300  0.198700  0.157400  1.0
  C  C183  1  0.198700  0.713300  0.157400  1.0
  C  C184  1  0.286700  0.801300  0.842600  1.0
  C  C185  1  0.774900  0.308100  0.860500  1.0
  C  C186  1  0.691900  0.225100  0.139500  1.0
  C  C187  1  0.225100  0.691900  0.139500  1.0
  C  C188  1  0.308100  0.774900  0.860500  1.0
  C  C189  1  0.781800  0.313200  0.901100  1.0
  C  C190  1  0.686800  0.218200  0.098900  1.0
  C  C191  1  0.218200  0.686800  0.098900  1.0
  C  C192  1  0.313200  0.781800  0.901100  1.0
  C  C193  1  0.815300  0.296900  0.923700  1.0
  C  C194  1  0.703100  0.184700  0.076300  1.0
  C  C195  1  0.184700  0.703100  0.076300  1.0
  C  C196  1  0.296900  0.815300  0.923700  1.0
  C  C197  1  0.677800  0.357800  0.584600  1.0
  C  C198  1  0.642200  0.322200  0.415400  1.0
  C  C199  1  0.322200  0.642200  0.415400  1.0
  C  C200  1  0.357800  0.677800  0.584600  1.0
  C  C201  1  0.678600  0.361600  0.622700  1.0
  C  C202  1  0.638400  0.321400  0.377300  1.0
  C  C203  1  0.321400  0.638400  0.377300  1.0
  C  C204  1  0.361600  0.678600  0.622700  1.0
  C  C205  1  0.647000  0.379400  0.634600  1.0
  C  C206  1  0.620600  0.353000  0.365400  1.0
  C  C207  1  0.353000  0.620600  0.365400  1.0
  C  C208  1  0.379400  0.647000  0.634600  1.0
  C  C209  1  0.614600  0.393600  0.608400  1.0
  C  C210  1  0.606400  0.385400  0.391600  1.0
  C  C211  1  0.385400  0.606400  0.391600  1.0
  C  C212  1  0.393600  0.614600  0.608400  1.0
  C  C213  1  0.613800  0.389800  0.570300  1.0
  C  C214  1  0.610200  0.386200  0.429700  1.0
  C  C215  1  0.386200  0.610200  0.429700  1.0
  C  C216  1  0.389800  0.613800  0.570300  1.0
  C  C217  1  0.747700  0.324100  0.836100  1.0
  C  C218  1  0.675900  0.252300  0.163900  1.0
  C  C219  1  0.252300  0.675900  0.163900  1.0
  C  C220  1  0.324100  0.747700  0.836100  1.0
  C  C221  1  0.718300  0.340700  0.820500  1.0
  C  C222  1  0.659300  0.281700  0.179500  1.0
  C  C223  1  0.281700  0.659300  0.179500  1.0
  C  C224  1  0.340700  0.718300  0.820500  1.0
  C  C225  1  0.654500  0.376300  0.673700  1.0
  C  C226  1  0.623700  0.345500  0.326300  1.0
  C  C227  1  0.345500  0.623700  0.326300  1.0
  C  C228  1  0.376300  0.654500  0.673700  1.0
  C  C229  1  0.651200  0.376400  0.704100  1.0
  C  C230  1  0.623600  0.348800  0.295900  1.0
  C  C231  1  0.348800  0.623600  0.295900  1.0
  C  C232  1  0.376400  0.651200  0.704100  1.0
  C  C233  1  0.683100  0.354300  0.795700  1.0
  C  C234  1  0.645700  0.316900  0.204300  1.0
  C  C235  1  0.316900  0.645700  0.204300  1.0
  C  C236  1  0.354300  0.683100  0.795700  1.0
  C  C237  1  0.651800  0.369000  0.809500  1.0
  C  C238  1  0.631000  0.348200  0.190500  1.0
  C  C239  1  0.348200  0.631000  0.190500  1.0
  C  C240  1  0.369000  0.651800  0.809500  1.0
  C  C241  1  0.621200  0.389000  0.789400  1.0
  C  C242  1  0.611000  0.378800  0.210600  1.0
  C  C243  1  0.378800  0.611000  0.210600  1.0
  C  C244  1  0.389000  0.621200  0.789400  1.0
  C  C245  1  0.621700  0.394300  0.755400  1.0
  C  C246  1  0.605700  0.378300  0.244600  1.0
  C  C247  1  0.378300  0.605700  0.244600  1.0
  C  C248  1  0.394300  0.621700  0.755400  1.0
  C  C249  1  0.653000  0.379600  0.741500  1.0
  C  C250  1  0.620400  0.347000  0.258500  1.0
  C  C251  1  0.347000  0.620400  0.258500  1.0
  C  C252  1  0.379600  0.653000  0.741500  1.0
  C  C253  1  0.113400  0.537000  0.774600  1.0
  C  C254  1  0.463000  0.886600  0.225400  1.0
  C  C255  1  0.886600  0.463000  0.225400  1.0
  C  C256  1  0.537000  0.113400  0.774600  1.0
  C  C257  1  0.072900  0.545700  0.752300  1.0
  C  C258  1  0.454300  0.927100  0.247700  1.0
  C  C259  1  0.927100  0.454300  0.247700  1.0
  C  C260  1  0.545700  0.072900  0.752300  1.0
  C  C261  1  0.066600  0.588800  0.769500  1.0
  C  C262  1  0.411200  0.933400  0.230500  1.0
  C  C263  1  0.933400  0.411200  0.230500  1.0
  C  C264  1  0.588800  0.066600  0.769500  1.0
  C  C265  1  0.101000  0.623400  0.809000  1.0
  C  C266  1  0.376600  0.899000  0.191000  1.0
  C  C267  1  0.899000  0.376600  0.191000  1.0
  C  C268  1  0.623400  0.101000  0.809000  1.0
  C  C269  1  0.141500  0.614900  0.831400  1.0
  C  C270  1  0.385100  0.858500  0.168600  1.0
  C  C271  1  0.858500  0.385100  0.168600  1.0
  C  C272  1  0.614900  0.141500  0.831400  1.0
  C  C273  1  0.737100  0.409900  0.535300  1.0
  C  C274  1  0.590100  0.262900  0.464700  1.0
  C  C275  1  0.262900  0.590100  0.464700  1.0
  C  C276  1  0.409900  0.737100  0.535300  1.0
  C  C277  1  0.770300  0.449900  0.559300  1.0
  C  C278  1  0.550100  0.229700  0.440700  1.0
  C  C279  1  0.229700  0.550100  0.440700  1.0
  C  C280  1  0.449900  0.770300  0.559300  1.0
  C  C281  1  0.760200  0.490800  0.577400  1.0
  C  C282  1  0.509200  0.239800  0.422600  1.0
  C  C283  1  0.239800  0.509200  0.422600  1.0
  C  C284  1  0.490800  0.760200  0.577400  1.0
  C  C285  1  0.716900  0.491900  0.571500  1.0
  C  C286  1  0.508100  0.283100  0.428500  1.0
  C  C287  1  0.283100  0.508100  0.428500  1.0
  C  C288  1  0.491900  0.716900  0.571500  1.0
  C  C289  1  0.683800  0.451800  0.547500  1.0
  C  C290  1  0.548200  0.316200  0.452500  1.0
  C  C291  1  0.316200  0.548200  0.452500  1.0
  C  C292  1  0.451800  0.683800  0.547500  1.0
  C  C293  1  0.025500  0.599500  0.743900  1.0
  C  C294  1  0.400500  0.974500  0.256100  1.0
  C  C295  1  0.974500  0.400500  0.256100  1.0
  C  C296  1  0.599500  0.025500  0.743900  1.0
  C  C297  1  0.989000  0.602400  0.721300  1.0
  C  C298  1  0.397600  0.011000  0.278700  1.0
  C  C299  1  0.011000  0.397600  0.278700  1.0
  C  C300  1  0.602400  0.989000  0.721300  1.0
  C  C301  1  0.802600  0.525400  0.603300  1.0
  C  C302  1  0.474600  0.197400  0.396700  1.0
  C  C303  1  0.197400  0.474600  0.396700  1.0
  C  C304  1  0.525400  0.802600  0.603300  1.0
  C  C305  1  0.838300  0.557300  0.624800  1.0
  C  C306  1  0.442700  0.161700  0.375200  1.0
  C  C307  1  0.161700  0.442700  0.375200  1.0
  C  C308  1  0.557300  0.838300  0.624800  1.0
  C  C309  1  0.954500  0.617100  0.698800  1.0
  C  C310  1  0.382900  0.045500  0.301200  1.0
  C  C311  1  0.045500  0.382900  0.301200  1.0
  C  C312  1  0.617100  0.954500  0.698800  1.0
  C  C313  1  0.953900  0.657700  0.698100  1.0
  C  C314  1  0.342300  0.046100  0.301900  1.0
  C  C315  1  0.046100  0.342300  0.301900  1.0
  C  C316  1  0.657700  0.953900  0.698100  1.0
  C  C317  1  0.914000  0.664000  0.671400  1.0
  C  C318  1  0.336000  0.086000  0.328600  1.0
  C  C319  1  0.086000  0.336000  0.328600  1.0
  C  C320  1  0.664000  0.914000  0.671400  1.0
  C  C321  1  0.874600  0.629600  0.645500  1.0
  C  C322  1  0.370400  0.125400  0.354500  1.0
  C  C323  1  0.125400  0.370400  0.354500  1.0
  C  C324  1  0.629600  0.874600  0.645500  1.0
  C  C325  1  0.875300  0.589100  0.646300  1.0
  C  C326  1  0.410900  0.124700  0.353700  1.0
  C  C327  1  0.124700  0.410900  0.353700  1.0
  C  C328  1  0.589100  0.875300  0.646300  1.0
  C  C329  1  0.943900  0.343900  0.002400  1.0
  C  C330  1  0.656100  0.056100  0.997600  1.0
  C  C331  1  0.056100  0.656100  0.997600  1.0
  C  C332  1  0.343900  0.943900  0.002400  1.0
  C  C333  1  0.971400  0.385000  0.017800  1.0
  C  C334  1  0.615000  0.028600  0.982200  1.0
  C  C335  1  0.028600  0.615000  0.982200  1.0
  C  C336  1  0.385000  0.971400  0.017800  1.0
  C  C337  1  0.990400  0.389400  0.993400  1.0
  C  C338  1  0.610600  0.009600  0.006600  1.0
  C  C339  1  0.009600  0.610600  0.006600  1.0
  C  C340  1  0.389400  0.990400  0.993400  1.0
  C  C341  1  0.982000  0.352800  0.953600  1.0
  C  C342  1  0.647200  0.018000  0.046400  1.0
  C  C343  1  0.018000  0.647200  0.046400  1.0
  C  C344  1  0.352800  0.982000  0.953600  1.0
  C  C345  1  0.954500  0.311700  0.938200  1.0
  C  C346  1  0.688300  0.045500  0.061800  1.0
  C  C347  1  0.045500  0.688300  0.061800  1.0
  C  C348  1  0.311700  0.954500  0.938200  1.0
  C  C349  1  0.164200  0.515600  0.877700  1.0
  C  C350  1  0.484400  0.835800  0.122300  1.0
  C  C351  1  0.835800  0.484400  0.122300  1.0
  C  C352  1  0.515600  0.164200  0.877700  1.0
  C  C353  1  0.148500  0.513900  0.905300  1.0
  C  C354  1  0.486100  0.851500  0.094700  1.0
  C  C355  1  0.851500  0.486100  0.094700  1.0
  C  C356  1  0.513900  0.148500  0.905300  1.0
  C  C357  1  0.157500  0.552700  0.943900  1.0
  C  C358  1  0.447300  0.842500  0.056100  1.0
  C  C359  1  0.842500  0.447300  0.056100  1.0
  C  C360  1  0.552700  0.157500  0.943900  1.0
  C  C361  1  0.182400  0.593200  0.954900  1.0
  C  C362  1  0.406800  0.817600  0.045100  1.0
  C  C363  1  0.817600  0.406800  0.045100  1.0
  C  C364  1  0.593200  0.182400  0.954900  1.0
  C  C365  1  0.198200  0.595000  0.927400  1.0
  C  C366  1  0.405000  0.801800  0.072600  1.0
  C  C367  1  0.801800  0.405000  0.072600  1.0
  C  C368  1  0.595000  0.198200  0.927400  1.0
  C  C369  1  0.016200  0.434400  0.009900  1.0
  C  C370  1  0.565600  0.983800  0.990100  1.0
  C  C371  1  0.983800  0.565600  0.990100  1.0
  C  C372  1  0.434400  0.016200  0.009900  1.0
  C  C373  1  0.042000  0.467600  0.025700  1.0
  C  C374  1  0.532400  0.958000  0.974300  1.0
  C  C375  1  0.958000  0.532400  0.974300  1.0
  C  C376  1  0.467600  0.042000  0.025700  1.0
  C  C377  1  0.141900  0.551300  0.973200  1.0
  C  C378  1  0.448700  0.858100  0.026800  1.0
  C  C379  1  0.858100  0.448700  0.026800  1.0
  C  C380  1  0.551300  0.141900  0.973200  1.0
  C  C381  1  0.126300  0.550900  0.994600  1.0
  C  C382  1  0.449100  0.873700  0.005400  1.0
  C  C383  1  0.873700  0.449100  0.005400  1.0
  C  C384  1  0.550900  0.126300  0.994600  1.0
  C  C385  1  0.067900  0.507700  0.036500  1.0
  C  C386  1  0.492300  0.932100  0.963500  1.0
  C  C387  1  0.932100  0.492300  0.963500  1.0
  C  C388  1  0.507700  0.067900  0.036500  1.0
  C  C389  1  0.076600  0.545200  0.075900  1.0
  C  C390  1  0.454800  0.923400  0.924100  1.0
  C  C391  1  0.923400  0.454800  0.924100  1.0
  C  C392  1  0.545200  0.076600  0.075900  1.0
  C  C393  1  0.103700  0.585900  0.090100  1.0
  C  C394  1  0.414100  0.896300  0.909900  1.0
  C  C395  1  0.896300  0.414100  0.909900  1.0
  C  C396  1  0.585900  0.103700  0.090100  1.0
  C  C397  1  0.122100  0.589300  0.064900  1.0
  C  C398  1  0.410700  0.877900  0.935100  1.0
  C  C399  1  0.877900  0.410700  0.935100  1.0
  C  C400  1  0.589300  0.122100  0.064900  1.0
  C  C401  1  0.113300  0.551900  0.025400  1.0
  C  C402  1  0.448100  0.886700  0.974600  1.0
  C  C403  1  0.886700  0.448100  0.974600  1.0
  C  C404  1  0.551900  0.113300  0.025400  1.0
  C  C405  1  0.269600  0.507000  0.861700  1.0
  C  C406  1  0.493000  0.730400  0.138300  1.0
  C  C407  1  0.730400  0.493000  0.138300  1.0
  C  C408  1  0.507000  0.269600  0.861700  1.0
  C  C409  1  0.307700  0.496300  0.885700  1.0
  C  C410  1  0.503700  0.692300  0.114300  1.0
  C  C411  1  0.692300  0.503700  0.114300  1.0
  C  C412  1  0.496300  0.307700  0.885700  1.0
  C  C413  1  0.339500  0.528700  0.928300  1.0
  C  C414  1  0.471300  0.660500  0.071700  1.0
  C  C415  1  0.660500  0.471300  0.071700  1.0
  C  C416  1  0.528700  0.339500  0.928300  1.0
  C  C417  1  0.333200  0.571600  0.946900  1.0
  C  C418  1  0.428400  0.666800  0.053100  1.0
  C  C419  1  0.666800  0.428400  0.053100  1.0
  C  C420  1  0.571600  0.333200  0.946900  1.0
  C  C421  1  0.295100  0.582300  0.922900  1.0
  C  C422  1  0.417700  0.704900  0.077100  1.0
  C  C423  1  0.704900  0.417700  0.077100  1.0
  C  C424  1  0.582300  0.295100  0.922900  1.0
  C  C425  1  0.373000  0.514000  0.954300  1.0
  C  C426  1  0.486000  0.627000  0.045700  1.0
  C  C427  1  0.627000  0.486000  0.045700  1.0
  C  C428  1  0.514000  0.373000  0.954300  1.0
  C  C429  1  0.404100  0.501100  0.974600  1.0
  C  C430  1  0.498900  0.595900  0.025400  1.0
  C  C431  1  0.595900  0.498900  0.025400  1.0
  C  C432  1  0.501100  0.404100  0.974600  1.0
  C  C433  1  0.443300  0.491100  0.999400  1.0
  C  C434  1  0.508900  0.556700  0.000600  1.0
  C  C435  1  0.556700  0.508900  0.000600  1.0
  C  C436  1  0.491100  0.443300  0.999400  1.0
  C  C437  1  0.470300  0.520100  0.043400  1.0
  C  C438  1  0.479900  0.529700  0.956600  1.0
  C  C439  1  0.529700  0.479900  0.956600  1.0
  C  C440  1  0.520100  0.470300  0.043400  1.0
  C  C441  1  0.947800  0.237600  0.011900  1.0
  C  C442  1  0.762400  0.052200  0.988100  1.0
  C  C443  1  0.052200  0.762400  0.988100  1.0
  C  C444  1  0.237600  0.947800  0.011900  1.0
  C  C445  1  0.980900  0.221100  0.034600  1.0
  C  C446  1  0.778900  0.019100  0.965400  1.0
  C  C447  1  0.019100  0.778900  0.965400  1.0
  C  C448  1  0.221100  0.980900  0.034600  1.0
  C  C449  1  0.004300  0.195500  0.014900  1.0
  C  C450  1  0.804500  0.995700  0.985100  1.0
  C  C451  1  0.995700  0.804500  0.985100  1.0
  C  C452  1  0.195500  0.004300  0.014900  1.0
  C  C453  1  0.994700  0.186500  0.972500  1.0
  C  C454  1  0.813500  0.005300  0.027500  1.0
  C  C455  1  0.005300  0.813500  0.027500  1.0
  C  C456  1  0.186500  0.994700  0.972500  1.0
  C  C457  1  0.961600  0.203000  0.949800  1.0
  C  C458  1  0.797000  0.038400  0.050200  1.0
  C  C459  1  0.038400  0.797000  0.050200  1.0
  C  C460  1  0.203000  0.961600  0.949800  1.0
  C  C461  1  0.034100  0.171900  0.033600  1.0
  C  C462  1  0.828100  0.965900  0.966400  1.0
  C  C463  1  0.965900  0.828100  0.966400  1.0
  C  C464  1  0.171900  0.034100  0.033600  1.0
  C  C465  1  0.061900  0.162900  0.061900  1.0
  C  C466  1  0.837100  0.938100  0.938100  1.0
  C  C467  1  0.938100  0.837100  0.938100  1.0
  C  C468  1  0.162900  0.061900  0.061900  1.0
  C  C469  1  0.094800  0.145400  0.086700  1.0
  C  C470  1  0.854600  0.905200  0.913300  1.0
  C  C471  1  0.905200  0.854600  0.913300  1.0
  C  C472  1  0.145400  0.094800  0.086700  1.0
  C  C473  1  0.106700  0.156700  0.130100  1.0
  C  C474  1  0.843300  0.893300  0.869900  1.0
  C  C475  1  0.893300  0.843300  0.869900  1.0
  C  C476  1  0.156700  0.106700  0.130100  1.0
  F  F477  1  0.846600  0.306000  0.014800  1
  F  F478  1  0.694000  0.153400  0.985200  1
  F  F479  1  0.153400  0.694000  0.985200  1
  F  F480  1  0.306000  0.846600  0.014800  1
  F  F481  1  0.873400  0.263600  0.040700  1
  F  F482  1  0.736400  0.126600  0.959300  1
  F  F483  1  0.126600  0.736400  0.959300  1
  F  F484  1  0.263600  0.873400  0.040700  1
  F  F485  1  0.865700  0.324500  0.080900  1
  F  F486  1  0.675500  0.134300  0.919100  1
  F  F487  1  0.134300  0.675500  0.919100  1
  F  F488  1  0.324500  0.865700  0.080900  1
  F  F489  1  0.914000  0.324200  0.061100  1
  F  F490  1  0.675800  0.086000  0.938900  1
  F  F491  1  0.086000  0.675800  0.938900  1
  F  F492  1  0.324200  0.914000  0.061100  1
  F  F493  1  0.247200  0.665600  0.910800  1
  F  F494  1  0.334400  0.752800  0.089200  1
  F  F495  1  0.752800  0.334400  0.089200  1
  F  F496  1  0.665600  0.247200  0.910800  1
  F  F497  1  0.306500  0.729100  0.963400  1
  F  F498  1  0.270900  0.693500  0.036600  1
  F  F499  1  0.693500  0.270900  0.036600  1
  F  F500  1  0.729100  0.306500  0.963400  1
  F  F501  1  0.247200  0.729600  0.903000  1
  F  F502  1  0.270400  0.752800  0.097000  1
  F  F503  1  0.752800  0.270400  0.097000  1
  F  F504  1  0.729600  0.247200  0.903000  1
  F  F505  1  0.235900  0.729300  0.958800  1
  F  F506  1  0.270700  0.764100  0.041200  1
  F  F507  1  0.764100  0.270700  0.041200  1
  F  F508  1  0.729300  0.235900  0.958800  1
  F  F509  1  0.172600  0.455600  0.787300  1
  F  F510  1  0.544400  0.827400  0.212700  1
  F  F511  1  0.827400  0.544400  0.212700  1
  F  F512  1  0.455600  0.172600  0.787300  1
  F  F513  1  0.908600  0.203400  0.856700  1
  F  F514  1  0.796600  0.091400  0.143300  1
  F  F515  1  0.091400  0.796600  0.143300  1
  F  F516  1  0.203400  0.908600  0.856700  1
  F  F517  1  0.697000  0.303000  0.500000  1
  F  F518  1  0.303000  0.697000  0.500000  1
  F  F519  1  0.754600  0.754600  0.581000  1
  F  F520  1  0.245400  0.245400  0.419000  1
  F  F521  1  0.547600  0.432400  0.502000  1
  F  F522  1  0.567600  0.452400  0.498000  1
  F  F523  1  0.452400  0.567600  0.498000  1
  F  F524  1  0.432400  0.547600  0.502000  1
  F  F525  1  0.614000  0.614000  0.597600  1
  F  F526  1  0.386000  0.386000  0.402400  1
  F  F527  1  0.535000  0.705000  0.669000  1
  F  F528  1  0.295000  0.465000  0.331000  1
  F  F529  1  0.465000  0.295000  0.331000  1
  F  F530  1  0.705000  0.535000  0.669000  1
  H  H531  1  0.527200  0.527200  0.097100  1.0
  H  H532  1  0.472800  0.472800  0.902900  1.0
  H  H533  1  0.146500  0.146500  0.180400  1.0
  H  H534  1  0.853500  0.853500  0.819600  1.0
  H  H535  1  0.657100  0.734500  0.542400  1.0
  H  H536  1  0.265500  0.342900  0.457600  1.0
  H  H537  1  0.342900  0.265500  0.457600  1.0
  H  H538  1  0.734500  0.657100  0.542400  1.0
  H  H539  1  0.591700  0.744300  0.495500  1.0
  H  H540  1  0.255700  0.408300  0.504500  1.0
  H  H541  1  0.408300  0.255700  0.504500  1.0
  H  H542  1  0.744300  0.591700  0.495500  1.0
  H  H543  1  0.517700  0.650300  0.495500  1.0
  H  H544  1  0.349700  0.482300  0.504500  1.0
  H  H545  1  0.482300  0.349700  0.504500  1.0
  H  H546  1  0.650300  0.517700  0.495500  1.0
  H  H547  1  0.583000  0.640400  0.542500  1.0
  H  H548  1  0.359600  0.417000  0.457500  1.0
  H  H549  1  0.417000  0.359600  0.457500  1.0
  H  H550  1  0.640400  0.583000  0.542500  1.0
  H  H551  1  0.501300  0.797300  0.241700  1.0
  H  H552  1  0.202700  0.498700  0.758300  1.0
  H  H553  1  0.498700  0.202700  0.758300  1.0
  H  H554  1  0.797300  0.501300  0.241700  1.0
  H  H555  1  0.492800  0.778800  0.290400  1.0
  H  H556  1  0.221200  0.507200  0.709600  1.0
  H  H557  1  0.507200  0.221200  0.709600  1.0
  H  H558  1  0.778800  0.492800  0.290400  1.0
  H  H559  1  0.359400  0.731800  0.207800  1.0
  H  H560  1  0.268200  0.640600  0.792200  1.0
  H  H561  1  0.640600  0.268200  0.792200  1.0
  H  H562  1  0.731800  0.359400  0.207800  1.0
  H  H563  1  0.367900  0.750300  0.159100  1.0
  H  H564  1  0.249700  0.632100  0.840900  1.0
  H  H565  1  0.632100  0.249700  0.840900  1.0
  H  H566  1  0.750300  0.367900  0.159100  1.0
  H  H567  1  0.409900  0.730100  0.440000  1.0
  H  H568  1  0.269900  0.590100  0.560000  1.0
  H  H569  1  0.590100  0.269900  0.560000  1.0
  H  H570  1  0.730100  0.409900  0.440000  1.0
  H  H571  1  0.350500  0.747100  0.393800  1.0
  H  H572  1  0.252900  0.649500  0.606200  1.0
  H  H573  1  0.649500  0.252900  0.606200  1.0
  H  H574  1  0.747100  0.350500  0.393800  1.0
  H  H575  1  0.352400  0.752000  0.335700  1.0
  H  H576  1  0.248000  0.647600  0.664300  1.0
  H  H577  1  0.647600  0.248000  0.664300  1.0
  H  H578  1  0.752000  0.352400  0.335700  1.0
  H  H579  1  0.625900  0.706100  0.644200  1.0
  H  H580  1  0.293900  0.374100  0.355800  1.0
  H  H581  1  0.374100  0.293900  0.355800  1.0
  H  H582  1  0.706100  0.625900  0.644200  1.0
  H  H583  1  0.621600  0.771200  0.696400  1.0
  H  H584  1  0.228800  0.378400  0.303600  1.0
  H  H585  1  0.378400  0.228800  0.303600  1.0
  H  H586  1  0.771200  0.621600  0.696400  1.0
  H  H587  1  0.723600  0.842800  0.704000  1.0
  H  H588  1  0.157200  0.276400  0.296000  1.0
  H  H589  1  0.276400  0.157200  0.296000  1.0
  H  H590  1  0.842800  0.723600  0.704000  1.0
  H  H591  1  0.727900  0.777700  0.651700  1.0
  H  H592  1  0.222300  0.272100  0.348300  1.0
  H  H593  1  0.272100  0.222300  0.348300  1.0
  H  H594  1  0.777700  0.727900  0.651700  1.0
  H  H595  1  0.856800  0.157800  0.864000  1.0
  H  H596  1  0.842200  0.143200  0.136000  1.0
  H  H597  1  0.143200  0.842200  0.136000  1.0
  H  H598  1  0.157800  0.856800  0.864000  1.0
  H  H599  1  0.804400  0.092200  0.835100  1.0
  H  H600  1  0.907800  0.195600  0.164900  1.0
  H  H601  1  0.195600  0.907800  0.164900  1.0
  H  H602  1  0.092200  0.804400  0.835100  1.0
  H  H603  1  0.769100  0.155700  0.929300  1.0
  H  H604  1  0.844300  0.230900  0.070700  1.0
  H  H605  1  0.230900  0.844300  0.070700  1.0
  H  H606  1  0.155700  0.769100  0.929300  1.0
  H  H607  1  0.821500  0.221300  0.958200  1.0
  H  H608  1  0.778700  0.178500  0.041800  1.0
  H  H609  1  0.178500  0.778700  0.041800  1.0
  H  H610  1  0.221300  0.821500  0.958200  1.0
  H  H611  1  0.608500  0.903700  0.792500  1.0
  H  H612  1  0.096300  0.391500  0.207500  1.0
  H  H613  1  0.391500  0.096300  0.207500  1.0
  H  H614  1  0.903700  0.608500  0.792500  1.0
  H  H615  1  0.605400  0.972400  0.841200  1.0
  H  H616  1  0.027600  0.394600  0.158800  1.0
  H  H617  1  0.394600  0.027600  0.158800  1.0
  H  H618  1  0.972400  0.605400  0.841200  1.0
  H  H619  1  0.657400  0.037800  0.868900  1.0
  H  H620  1  0.962200  0.342600  0.131100  1.0
  H  H621  1  0.342600  0.962200  0.131100  1.0
  H  H622  1  0.037800  0.657400  0.868900  1.0
  H  H623  1  0.852300  0.256100  0.853100  1.0
  H  H624  1  0.743900  0.147700  0.146900  1.0
  H  H625  1  0.147700  0.743900  0.146900  1.0
  H  H626  1  0.256100  0.852300  0.853100  1.0
  H  H627  1  0.796600  0.283200  0.815400  1.0
  H  H628  1  0.716800  0.203400  0.184600  1.0
  H  H629  1  0.203400  0.716800  0.184600  1.0
  H  H630  1  0.283200  0.796600  0.815400  1.0
  H  H631  1  0.764100  0.327500  0.913100  1.0
  H  H632  1  0.672500  0.235900  0.086900  1.0
  H  H633  1  0.235900  0.672500  0.086900  1.0
  H  H634  1  0.327500  0.764100  0.913100  1.0
  H  H635  1  0.820000  0.300400  0.950800  1.0
  H  H636  1  0.699600  0.180000  0.049200  1.0
  H  H637  1  0.180000  0.699600  0.049200  1.0
  H  H638  1  0.300400  0.820000  0.950800  1.0
  H  H639  1  0.698900  0.345900  0.576700  1.0
  H  H640  1  0.654100  0.301100  0.423300  1.0
  H  H641  1  0.301100  0.654100  0.423300  1.0
  H  H642  1  0.345900  0.698900  0.576700  1.0
  H  H643  1  0.700300  0.352100  0.640200  1.0
  H  H644  1  0.647900  0.299700  0.359800  1.0
  H  H645  1  0.299700  0.647900  0.359800  1.0
  H  H646  1  0.352100  0.700300  0.640200  1.0
  H  H647  1  0.593400  0.405600  0.616300  1.0
  H  H648  1  0.594400  0.406600  0.383700  1.0
  H  H649  1  0.406600  0.594400  0.383700  1.0
  H  H650  1  0.405600  0.593400  0.616300  1.0
  H  H651  1  0.592100  0.399300  0.552700  1.0
  H  H652  1  0.600700  0.407900  0.447300  1.0
  H  H653  1  0.407900  0.600700  0.447300  1.0
  H  H654  1  0.399300  0.592100  0.552700  1.0
  H  H655  1  0.651500  0.365500  0.832300  1.0
  H  H656  1  0.634500  0.348500  0.167700  1.0
  H  H657  1  0.348500  0.634500  0.167700  1.0
  H  H658  1  0.365500  0.651500  0.832300  1.0
  H  H659  1  0.600300  0.398900  0.798700  1.0
  H  H660  1  0.601100  0.399700  0.201300  1.0
  H  H661  1  0.399700  0.601100  0.201300  1.0
  H  H662  1  0.398900  0.600300  0.798700  1.0
  H  H663  1  0.601100  0.407700  0.741900  1.0
  H  H664  1  0.592300  0.398900  0.258100  1.0
  H  H665  1  0.398900  0.592300  0.258100  1.0
  H  H666  1  0.407700  0.601100  0.741900  1.0
  H  H667  1  0.117600  0.508200  0.763100  1.0
  H  H668  1  0.491800  0.882400  0.236900  1.0
  H  H669  1  0.882400  0.491800  0.236900  1.0
  H  H670  1  0.508200  0.117600  0.763100  1.0
  H  H671  1  0.049900  0.522500  0.725900  1.0
  H  H672  1  0.477500  0.950100  0.274100  1.0
  H  H673  1  0.950100  0.477500  0.274100  1.0
  H  H674  1  0.522500  0.049900  0.725900  1.0
  H  H675  1  0.096900  0.652300  0.820600  1.0
  H  H676  1  0.347700  0.903100  0.179400  1.0
  H  H677  1  0.903100  0.347700  0.179400  1.0
  H  H678  1  0.652300  0.096900  0.820600  1.0
  H  H679  1  0.164500  0.637900  0.857800  1.0
  H  H680  1  0.362100  0.835500  0.142200  1.0
  H  H681  1  0.835500  0.362100  0.142200  1.0
  H  H682  1  0.637900  0.164500  0.857800  1.0
  H  H683  1  0.743900  0.382500  0.523200  1.0
  H  H684  1  0.617500  0.256100  0.476800  1.0
  H  H685  1  0.256100  0.617500  0.476800  1.0
  H  H686  1  0.382500  0.743900  0.523200  1.0
  H  H687  1  0.799200  0.449200  0.563200  1.0
  H  H688  1  0.550800  0.200800  0.436800  1.0
  H  H689  1  0.200800  0.550800  0.436800  1.0
  H  H690  1  0.449200  0.799200  0.563200  1.0
  H  H691  1  0.710200  0.519200  0.583700  1.0
  H  H692  1  0.480800  0.289800  0.416300  1.0
  H  H693  1  0.289800  0.480800  0.416300  1.0
  H  H694  1  0.519200  0.710200  0.583700  1.0
  H  H695  1  0.654900  0.452500  0.543600  1.0
  H  H696  1  0.547500  0.345100  0.456400  1.0
  H  H697  1  0.345100  0.547500  0.456400  1.0
  H  H698  1  0.452500  0.654900  0.543600  1.0
  H  H699  1  0.980100  0.680700  0.715400  1.0
  H  H700  1  0.319300  0.019900  0.284600  1.0
  H  H701  1  0.019900  0.319300  0.284600  1.0
  H  H702  1  0.680700  0.980100  0.715400  1.0
  H  H703  1  0.913500  0.691100  0.670900  1.0
  H  H704  1  0.308900  0.086500  0.329100  1.0
  H  H705  1  0.086500  0.308900  0.329100  1.0
  H  H706  1  0.691100  0.913500  0.670900  1.0
  H  H707  1  0.848000  0.633800  0.627700  1.0
  H  H708  1  0.366200  0.152000  0.372300  1.0
  H  H709  1  0.152000  0.366200  0.372300  1.0
  H  H710  1  0.633800  0.848000  0.627700  1.0
  H  H711  1  0.931200  0.341000  0.018700  1.0
  H  H712  1  0.659000  0.068800  0.981300  1.0
  H  H713  1  0.068800  0.659000  0.981300  1.0
  H  H714  1  0.341000  0.931200  0.018700  1.0
  H  H715  1  0.977100  0.409500  0.044500  1.0
  H  H716  1  0.590500  0.022900  0.955500  1.0
  H  H717  1  0.022900  0.590500  0.955500  1.0
  H  H718  1  0.409500  0.977100  0.044500  1.0
  H  H719  1  0.994700  0.355700  0.937300  1.0
  H  H720  1  0.644300  0.005300  0.062700  1.0
  H  H721  1  0.005300  0.644300  0.062700  1.0
  H  H722  1  0.355700  0.994700  0.937300  1.0
  H  H723  1  0.948800  0.287200  0.911500  1.0
  H  H724  1  0.712800  0.051200  0.088500  1.0
  H  H725  1  0.051200  0.712800  0.088500  1.0
  H  H726  1  0.287200  0.948800  0.911500  1.0
  H  H727  1  0.158100  0.489700  0.851900  1.0
  H  H728  1  0.510300  0.841900  0.148100  1.0
  H  H729  1  0.841900  0.510300  0.148100  1.0
  H  H730  1  0.489700  0.158100  0.851900  1.0
  H  H731  1  0.131800  0.486800  0.897900  1.0
  H  H732  1  0.513200  0.868200  0.102100  1.0
  H  H733  1  0.868200  0.513200  0.102100  1.0
  H  H734  1  0.486800  0.131800  0.897900  1.0
  H  H735  1  0.188500  0.619100  0.980800  1.0
  H  H736  1  0.380900  0.811500  0.019200  1.0
  H  H737  1  0.811500  0.380900  0.019200  1.0
  H  H738  1  0.619100  0.188500  0.980800  1.0
  H  H739  1  0.214900  0.622100  0.934800  1.0
  H  H740  1  0.377900  0.785100  0.065200  1.0
  H  H741  1  0.785100  0.377900  0.065200  1.0
  H  H742  1  0.622100  0.214900  0.934800  1.0
  H  H743  1  0.064300  0.542900  0.092800  1.0
  H  H744  1  0.457100  0.935700  0.907200  1.0
  H  H745  1  0.935700  0.457100  0.907200  1.0
  H  H746  1  0.542900  0.064300  0.092800  1.0
  H  H747  1  0.109600  0.611000  0.116500  1.0
  H  H748  1  0.389000  0.890400  0.883500  1.0
  H  H749  1  0.890400  0.389000  0.883500  1.0
  H  H750  1  0.611000  0.109600  0.116500  1.0
  H  H751  1  0.140200  0.616600  0.074400  1.0
  H  H752  1  0.383400  0.859800  0.925600  1.0
  H  H753  1  0.859800  0.383400  0.925600  1.0
  H  H754  1  0.616600  0.140200  0.074400  1.0
  H  H755  1  0.248300  0.485300  0.833200  1.0
  H  H756  1  0.514700  0.751700  0.166800  1.0
  H  H757  1  0.751700  0.514700  0.166800  1.0
  H  H758  1  0.485300  0.248300  0.833200  1.0
  H  H759  1  0.311800  0.467600  0.873300  1.0
  H  H760  1  0.532400  0.688200  0.126700  1.0
  H  H761  1  0.688200  0.532400  0.126700  1.0
  H  H762  1  0.467600  0.311800  0.873300  1.0
  H  H763  1  0.354500  0.593300  0.975400  1.0
  H  H764  1  0.406700  0.645500  0.024600  1.0
  H  H765  1  0.645500  0.406700  0.024600  1.0
  H  H766  1  0.593300  0.354500  0.975400  1.0
  H  H767  1  0.291000  0.611000  0.935300  1.0
  H  H768  1  0.389000  0.709000  0.064700  1.0
  H  H769  1  0.709000  0.389000  0.064700  1.0
  H  H770  1  0.611000  0.291000  0.935300  1.0
  H  H771  1  0.463300  0.546500  0.057700  1.0
  H  H772  1  0.453500  0.536700  0.942300  1.0
  H  H773  1  0.536700  0.453500  0.942300  1.0
  H  H774  1  0.546500  0.463300  0.057700  1.0
  H  H775  1  0.932100  0.254700  0.025000  1.0
  H  H776  1  0.745300  0.067900  0.975000  1.0
  H  H777  1  0.067900  0.745300  0.975000  1.0
  H  H778  1  0.254700  0.932100  0.025000  1.0
  H  H779  1  0.987200  0.227200  0.062900  1.0
  H  H780  1  0.772800  0.012800  0.937100  1.0
  H  H781  1  0.012800  0.772800  0.937100  1.0
  H  H782  1  0.227200  0.987200  0.062900  1.0
  H  H783  1  0.010400  0.169400  0.959400  1.0
  H  H784  1  0.830600  0.989600  0.040600  1.0
  H  H785  1  0.989600  0.830600  0.040600  1.0
  H  H786  1  0.169400  0.010400  0.959400  1.0
  H  H787  1  0.955300  0.196900  0.921500  1.0
  H  H788  1  0.803100  0.044700  0.078500  1.0
  H  H789  1  0.044700  0.803100  0.078500  1.0
  H  H790  1  0.196900  0.955300  0.921500  1.0
  H  H791  1  0.093800  0.176600  0.144900  1.0
  H  H792  1  0.823400  0.906200  0.855100  1.0
  H  H793  1  0.906200  0.823400  0.855100  1.0
  H  H794  1  0.176600  0.093800  0.144900  1.0
  N  N795  1  0.449900  0.449900  0.976400  1.0
  N  N796  1  0.550100  0.550100  0.023600  1.0
  N  N797  1  0.115800  0.115800  0.067200  1.0
  N  N798  1  0.884200  0.884200  0.932800  1.0
  N  N799  1  0.626500  0.686500  0.547100  1.0
  N  N800  1  0.313500  0.373500  0.452900  1.0
  N  N801  1  0.373500  0.313500  0.452900  1.0
  N  N802  1  0.686500  0.626500  0.547100  1.0
  N  N803  1  0.435500  0.775700  0.195500  1.0
  N  N804  1  0.224300  0.564500  0.804500  1.0
  N  N805  1  0.564500  0.224300  0.804500  1.0
  N  N806  1  0.775700  0.435500  0.195500  1.0
  N  N807  1  0.448500  0.727900  0.374800  1.0
  N  N808  1  0.272100  0.551500  0.625200  1.0
  N  N809  1  0.551500  0.272100  0.625200  1.0
  N  N810  1  0.727900  0.448500  0.374800  1.0
  N  N811  1  0.677300  0.735500  0.642800  1.0
  N  N812  1  0.264500  0.322700  0.357200  1.0
  N  N813  1  0.322700  0.264500  0.357200  1.0
  N  N814  1  0.735500  0.677300  0.642800  1.0
  N  N815  1  0.844300  0.196100  0.913900  1.0
  N  N816  1  0.803900  0.155700  0.086100  1.0
  N  N817  1  0.155700  0.803900  0.086100  1.0
  N  N818  1  0.196100  0.844300  0.913900  1.0
  N  N819  1  0.693700  0.966900  0.807700  1.0
  N  N820  1  0.033100  0.306300  0.192300  1.0
  N  N821  1  0.306300  0.033100  0.192300  1.0
  N  N822  1  0.966900  0.693700  0.807700  1.0
  N  N823  1  0.841700  0.275500  0.905700  1.0
  N  N824  1  0.724500  0.158300  0.094300  1.0
  N  N825  1  0.158300  0.724500  0.094300  1.0
  N  N826  1  0.275500  0.841700  0.905700  1.0
  N  N827  1  0.645300  0.371900  0.558400  1.0
  N  N828  1  0.628100  0.354700  0.441600  1.0
  N  N829  1  0.354700  0.628100  0.441600  1.0
  N  N830  1  0.371900  0.645300  0.558400  1.0
  N  N831  1  0.683700  0.359500  0.761700  1.0
  N  N832  1  0.640500  0.316300  0.238300  1.0
  N  N833  1  0.316300  0.640500  0.238300  1.0
  N  N834  1  0.359500  0.683700  0.761700  1.0
  N  N835  1  0.147700  0.571700  0.814200  1.0
  N  N836  1  0.428300  0.852300  0.185800  1.0
  N  N837  1  0.852300  0.428300  0.185800  1.0
  N  N838  1  0.571700  0.147700  0.814200  1.0
  N  N839  1  0.693900  0.410900  0.529400  1.0
  N  N840  1  0.589100  0.306100  0.470600  1.0
  N  N841  1  0.306100  0.589100  0.470600  1.0
  N  N842  1  0.410900  0.693900  0.529400  1.0
  N  N843  1  0.915200  0.582800  0.672900  1.0
  N  N844  1  0.417200  0.084800  0.327100  1.0
  N  N845  1  0.084800  0.417200  0.327100  1.0
  N  N846  1  0.582800  0.915200  0.672900  1.0
  N  N847  1  0.935400  0.307200  0.962500  1.0
  N  N848  1  0.692800  0.064600  0.037500  1.0
  N  N849  1  0.064600  0.692800  0.037500  1.0
  N  N850  1  0.307200  0.935400  0.962500  1.0
  N  N851  1  0.189200  0.556200  0.888800  1.0
  N  N852  1  0.443800  0.810800  0.111200  1.0
  N  N853  1  0.810800  0.443800  0.111200  1.0
  N  N854  1  0.556200  0.189200  0.888800  1.0
  N  N855  1  0.086300  0.511100  0.011300  1.0
  N  N856  1  0.488900  0.913700  0.988700  1.0
  N  N857  1  0.913700  0.488900  0.988700  1.0
  N  N858  1  0.511100  0.086300  0.011300  1.0
  N  N859  1  0.263300  0.549900  0.880300  1.0
  N  N860  1  0.450100  0.736700  0.119700  1.0
  N  N861  1  0.736700  0.450100  0.119700  1.0
  N  N862  1  0.549900  0.263300  0.880300  1.0
  N  N863  1  0.938200  0.228600  0.969500  1.0
  N  N864  1  0.771400  0.061800  0.030500  1.0
  N  N865  1  0.061800  0.771400  0.030500  1.0
  N  N866  1  0.228600  0.938200  0.969500  1.0
  O  O867  1  0.704900  0.167700  0.784000  1
  O  O868  1  0.832300  0.295100  0.216000  1
  O  O869  1  0.295100  0.832300  0.216000  1
  O  O870  1  0.167700  0.704900  0.784000  1
  O  O871  1  0.884900  0.115100  1.000000  1
  O  O872  1  0.115100  0.884900  1.000000  1
  O  O873  1  0.351800  0.680200  0.906000  1
  O  O874  1  0.319800  0.648200  0.094000  1
  O  O875  1  0.648200  0.319800  0.094000  1
  O  O876  1  0.680200  0.351800  0.906000  1
  O  O877  1  0.101900  0.686100  0.183000  1
  O  O878  1  0.313900  0.898100  0.817000  1
  O  O879  1  0.898100  0.313900  0.817000  1
  O  O880  1  0.686100  0.101900  0.183000  1
  Pd  Pd881  1  0.680380  0.680380  0.595870  1.0
  Pd  Pd882  1  0.319620  0.319620  0.404130  1.0
  Pd  Pd883  1  0.635170  0.364830  0.500000  1.0
  Pd  Pd884  1  0.364830  0.635170  0.500000  1.0
  Pd  Pd885  1  0.889860  0.251900  0.938590  1.0
  Pd  Pd886  1  0.748100  0.110140  0.061410  1.0
  Pd  Pd887  1  0.110140  0.748100  0.061410  1.0
  Pd  Pd888  1  0.251900  0.889860  0.938590  1.0
  Pd  Pd889  1  0.206550  0.561370  0.846630  1.0
  Pd  Pd890  1  0.438630  0.793450  0.153370  1.0
  Pd  Pd891  1  0.793450  0.438630  0.153370  1.0
  Pd  Pd892  1  0.561370  0.206550  0.846630  1.0
