
#######################################################################
#
#                 Cambridge Crystallographic Data Centre
#                                CCDC 
#
#######################################################################
#
# If this CIF has been generated from an entry in the Cambridge 
# Structural Database, then it will include bibliographic, chemical, 
# crystal, experimental, refinement or atomic coordinate data resulting 
# from the CCDC's data processing and validation procedures.
#
#######################################################################

data_DOBRIX
_chemical_formula_moiety         
'C456 H264 N72 Pd12 24+,24(B1 F4 1-),267.2(H2 O1)'
_chemical_name_systematic        
'tetracosakis(\m~2~-3,5-bis(4-pyridylethynyl)pyridine)-dodeca-palladium tetracosakis(tetrafluoroborate) hydrate'
_symmetry_cell_setting           orthorhombic
_symmetry_space_group_name_H-M   'F m m m'
_symmetry_Int_Tables_number      69
_space_group_name_Hall           '-F 2 2'
loop_
_symmetry_equiv_pos_site_id
_symmetry_equiv_pos_as_xyz
1 x,y,z
2 -x,-y,z
3 x,-y,-z
4 -x,y,-z
5 x,1/2+y,1/2+z
6 -x,1/2-y,1/2+z
7 x,1/2-y,1/2-z
8 -x,1/2+y,1/2-z
9 1/2+x,y,1/2+z
10 1/2-x,-y,1/2+z
11 1/2+x,-y,1/2-z
12 1/2-x,y,1/2-z
13 1/2+x,1/2+y,z
14 1/2-x,1/2-y,z
15 1/2+x,1/2-y,-z
16 1/2-x,1/2+y,-z
17 -x,-y,-z
18 x,y,-z
19 -x,y,z
20 x,-y,z
21 -x,1/2-y,1/2-z
22 x,1/2+y,1/2-z
23 -x,1/2+y,1/2+z
24 x,1/2-y,1/2+z
25 1/2-x,-y,1/2-z
26 1/2+x,y,1/2-z
27 1/2-x,y,1/2+z
28 1/2+x,-y,1/2+z
29 1/2-x,1/2-y,-z
30 1/2+x,1/2+y,-z
31 1/2-x,1/2+y,z
32 1/2+x,1/2-y,z
_cell_length_a                   61.994(12)
_cell_length_b                   61.977(12)
_cell_length_c                   61.977(12)
_cell_angle_alpha                90
_cell_angle_beta                 90
_cell_angle_gamma                90
_cell_volume                     238128
_exptl_crystal_colour            colorless
_exptl_crystal_description       cubic
_cell_formula_units_Z            4
loop_
_atom_site_label
_atom_site_type_symbol
_atom_site_fract_x
_atom_site_fract_y
_atom_site_fract_z
N1 N 0.0230(4) 0.2164(7) 0.1848(8)
C1 C 0.0315(7) 0.2080(4) 0.1658(8)
H1 H 0.0265 0.1950 0.1604
C2 C 0.0475(7) 0.2192(9) 0.1548(4)
H2 H 0.0532 0.2137 0.1421
C3 C 0.0551(4) 0.2388(8) 0.1628(8)
C4 C 0.0466(7) 0.2471(4) 0.1819(9)
H3 H 0.0517 0.2602 0.1872
C5 C 0.0306(7) 0.2359(8) 0.1928(4)
H4 H 0.0249 0.2415 0.2056
N2 N 0.1842(7) 0.2177(7) 0.0224(4)
C6 C 0.1658(7) 0.2090(4) 0.0317(7)
H5 H 0.1603 0.1960 0.0267
C7 C 0.1555(4) 0.2197(8) 0.0486(7)
H6 H 0.1432 0.2139 0.0548
C8 C 0.1638(7) 0.2392(8) 0.0561(5)
C9 C 0.1822(8) 0.2479(4) 0.0468(7)
H7 H 0.1877 0.2609 0.0518
C10 C 0.1924(4) 0.2372(8) 0.0300(7)
H8 H 0.2048 0.2430 0.0237
C11 C 0.0732(8) 0.2469(8) 0.1514(10)
C12 C 0.0878(8) 0.2582(9) 0.1446(11)
C13 C 0.1505(9) 0.2471(10) 0.0732(8)
C14 C 0.1440(10) 0.2582(10) 0.0883(9)
N3 N 0.1312(11) 0.2967(6) 0.1326(12)
C15 C 0.1140(11) 0.2862(12) 0.1423(6)
H9 H 0.1077 0.2919 0.1547
C16 C 0.1061(6) 0.2671(11) 0.1336(11)
C17 C 0.1154(11) 0.2586(6) 0.1150(12)
H10 H 0.1101 0.2458 0.1092
C18 C 0.1326(10) 0.2691(12) 0.1053(6)
C19 C 0.1405(6) 0.2882(11) 0.1140(11)
H11 H 0.1520 0.2953 0.1075
N4 N 0.2183(6) 0.1855(6) 0.0212(4)
C20 C 0.2088(4) 0.1668(6) 0.0293(5)
H12 H 0.1960 0.1617 0.0234
C21 C 0.2184(5) 0.1559(5) 0.0464(6)
H13 H 0.2120 0.1434 0.0519
C22 C 0.2374(5) 0.1636(5) 0.0554(5)
C23 C 0.2469(4) 0.1822(5) 0.0472(5)
H14 H 0.2597 0.1874 0.0532
C24 C 0.2373(6) 0.1932(4) 0.0302(5)
H15 H 0.2437 0.2056 0.0247
N5 N 0.2170(6) 0.0214(4) 0.1845(6)
C25 C 0.2075(4) 0.0303(5) 0.1662(6)
H16 H 0.1943 0.0250 0.1613
C26 C 0.2176(5) 0.0471(6) 0.1554(5)
H17 H 0.2112 0.0531 0.1432
C27 C 0.2372(5) 0.0550(5) 0.1627(5)
C28 C 0.2467(4) 0.0461(6) 0.1810(5)
H18 H 0.2599 0.0514 0.1859
C29 C 0.2366(6) 0.0293(5) 0.1918(4)
H19 H 0.2430 0.0233 0.2040
C30 C 0.2477(8) 0.1519(10) 0.0722(8)
C31 C 0.2579(9) 0.1442(11) 0.0873(9)
C32 C 0.2484(8) 0.0711(8) 0.1506(10)
C33 C 0.2580(9) 0.0866(8) 0.1431(11)
N6 N 0.2950(5) 0.1319(12) 0.1323(13)
C34 C 0.2859(12) 0.1414(6) 0.1142(12)
H20 H 0.2925 0.1532 0.1077
C35 C 0.2668(12) 0.1332(11) 0.1056(6)
C36 C 0.2569(5) 0.1155(11) 0.1153(12)
H21 H 0.2442 0.1100 0.1096
C37 C 0.2661(12) 0.1060(6) 0.1334(12)
C38 C 0.2851(13) 0.1143(12) 0.1420(6)
H22 H 0.2912 0.1079 0.1541
N7 N 0.1833(7) 0.0217(4) 0.2151(7)
C39 C 0.1645(8) 0.0312(8) 0.2073(4)
H23 H 0.1585 0.0265 0.1944
C40 C 0.1546(4) 0.0477(7) 0.2189(9)
H24 H 0.1421 0.0540 0.2137
C41 C 0.1636(7) 0.0547(5) 0.2382(8)
C42 C 0.1823(7) 0.0453(7) 0.2460(4)
H25 H 0.1883 0.0500 0.2589
C43 C 0.1922(4) 0.0287(6) 0.2344(8)
H26 H 0.2048 0.0224 0.2396
N8 N 0.0222(4) 0.1845(8) 0.2164(8)
C44 C 0.0309(8) 0.1654(8) 0.2084(5)
H27 H 0.0254 0.1595 0.1957
C45 C 0.0476(8) 0.1553(4) 0.2193(9)
H28 H 0.0534 0.1426 0.2139
C46 C 0.0557(4) 0.1642(9) 0.2382(8)
C47 C 0.0470(8) 0.1833(9) 0.2462(4)
H29 H 0.0524 0.1892 0.2589
C48 C 0.0302(7) 0.1934(4) 0.2353(8)
H30 H 0.0244 0.2061 0.2407
C49 C 0.1501(9) 0.0714(8) 0.2466(8)
C50 C 0.1416(10) 0.0845(8) 0.2589(8)
C51 C 0.0735(8) 0.1534(10) 0.2479(9)
C52 C 0.0859(8) 0.1436(10) 0.2598(8)
N9 N 0.1288(10) 0.1299(10) 0.2959(5)
C53 C 0.1390(5) 0.1120(10) 0.2870(10)
H31 H 0.1508 0.1059 0.2939
C54 C 0.1315(9) 0.1033(5) 0.2677(10)
C55 C 0.1139(9) 0.1126(10) 0.2573(5)
H32 H 0.1090 0.1068 0.2444
C56 C 0.1038(5) 0.1305(9) 0.2662(10)
C57 C 0.1112(10) 0.1391(5) 0.2855(11)
H33 H 0.1044 0.1511 0.2914
Pd1 Pd 0.20130(9) 0.20141(12) 0.0000
Pd2 Pd 0.20116(9) 0.0000 0.20133(12)
Pd3 Pd 0.0000 0.20136(11) 0.20130(11)
N1Q N 0.0230(4) 0.2164(7) -0.1848(8)
C1Q C 0.0315(7) 0.2080(4) -0.1658(8)
H1Q H 0.0265 0.1950 -0.1604
C2Q C 0.0475(7) 0.2192(9) -0.1548(4)
H2Q H 0.0532 0.2137 -0.1421
C3Q C 0.0551(4) 0.2388(8) -0.1628(8)
C4Q C 0.0466(7) 0.2471(4) -0.1819(9)
H3Q H 0.0517 0.2602 -0.1872
C5Q C 0.0306(7) 0.2359(8) -0.1928(4)
H4Q H 0.0249 0.2415 -0.2056
N2Q N 0.1842(7) 0.2177(7) -0.0224(4)
C6Q C 0.1658(7) 0.2090(4) -0.0317(7)
H5Q H 0.1603 0.1960 -0.0267
C7Q C 0.1555(4) 0.2197(8) -0.0486(7)
H6Q H 0.1432 0.2139 -0.0548
C8Q C 0.1638(7) 0.2392(8) -0.0561(5)
C9Q C 0.1822(8) 0.2479(4) -0.0468(7)
H7Q H 0.1877 0.2609 -0.0518
C10Q C 0.1924(4) 0.2372(8) -0.0300(7)
H8Q H 0.2048 0.2430 -0.0237
C11Q C 0.0732(8) 0.2469(8) -0.1514(10)
C12Q C 0.0878(8) 0.2582(9) -0.1446(11)
C13Q C 0.1505(9) 0.2471(10) -0.0732(8)
C14Q C 0.1440(10) 0.2582(10) -0.0883(9)
N3Q N 0.1312(11) 0.2967(6) -0.1326(12)
C15Q C 0.1140(11) 0.2862(12) -0.1423(6)
H9Q H 0.1077 0.2919 -0.1547
C16Q C 0.1061(6) 0.2671(11) -0.1336(11)
C17Q C 0.1154(11) 0.2586(6) -0.1150(12)
H10Q H 0.1101 0.2458 -0.1092
C18Q C 0.1326(10) 0.2691(12) -0.1053(6)
C19Q C 0.1405(6) 0.2882(11) -0.1140(11)
H11Q H 0.1520 0.2953 -0.1075
N4Q N 0.2183(6) 0.1855(6) -0.0212(4)
C20Q C 0.2088(4) 0.1668(6) -0.0293(5)
H12Q H 0.1960 0.1617 -0.0234
C21Q C 0.2184(5) 0.1559(5) -0.0464(6)
H13Q H 0.2120 0.1434 -0.0519
C22Q C 0.2374(5) 0.1636(5) -0.0554(5)
C23Q C 0.2469(4) 0.1822(5) -0.0472(5)
H14Q H 0.2597 0.1874 -0.0532
C24Q C 0.2373(6) 0.1932(4) -0.0302(5)
H15Q H 0.2437 0.2056 -0.0247
N5Q N 0.2170(6) 0.0214(4) -0.1845(6)
C25Q C 0.2075(4) 0.0303(5) -0.1662(6)
H16Q H 0.1943 0.0250 -0.1613
C26Q C 0.2176(5) 0.0471(6) -0.1554(5)
H17Q H 0.2112 0.0531 -0.1432
C27Q C 0.2372(5) 0.0550(5) -0.1627(5)
C28Q C 0.2467(4) 0.0461(6) -0.1810(5)
H18Q H 0.2599 0.0514 -0.1859
C29Q C 0.2366(6) 0.0293(5) -0.1918(4)
H19Q H 0.2430 0.0233 -0.2040
C30Q C 0.2477(8) 0.1519(10) -0.0722(8)
C31Q C 0.2579(9) 0.1442(11) -0.0873(9)
C32Q C 0.2484(8) 0.0711(8) -0.1506(10)
C33Q C 0.2580(9) 0.0866(8) -0.1431(11)
N6Q N 0.2950(5) 0.1319(12) -0.1323(13)
C34Q C 0.2859(12) 0.1414(6) -0.1142(12)
H20Q H 0.2925 0.1532 -0.1077
C35Q C 0.2668(12) 0.1332(11) -0.1056(6)
C36Q C 0.2569(5) 0.1155(11) -0.1153(12)
H21Q H 0.2442 0.1100 -0.1096
C37Q C 0.2661(12) 0.1060(6) -0.1334(12)
C38Q C 0.2851(13) 0.1143(12) -0.1420(6)
H22Q H 0.2912 0.1079 -0.1541
N7Q N 0.1833(7) 0.0217(4) -0.2151(7)
C39Q C 0.1645(8) 0.0312(8) -0.2073(4)
H23Q H 0.1585 0.0265 -0.1944
C40Q C 0.1546(4) 0.0477(7) -0.2189(9)
H24Q H 0.1421 0.0540 -0.2137
C41Q C 0.1636(7) 0.0547(5) -0.2382(8)
C42Q C 0.1823(7) 0.0453(7) -0.2460(4)
H25Q H 0.1883 0.0500 -0.2589
C43Q C 0.1922(4) 0.0287(6) -0.2344(8)
H26Q H 0.2048 0.0224 -0.2396
N8Q N 0.0222(4) 0.1845(8) -0.2164(8)
C44Q C 0.0309(8) 0.1654(8) -0.2084(5)
H27Q H 0.0254 0.1595 -0.1957
C45Q C 0.0476(8) 0.1553(4) -0.2193(9)
H28Q H 0.0534 0.1426 -0.2139
C46Q C 0.0557(4) 0.1642(9) -0.2382(8)
C47Q C 0.0470(8) 0.1833(9) -0.2462(4)
H29Q H 0.0524 0.1892 -0.2589
C48Q C 0.0302(7) 0.1934(4) -0.2353(8)
H30Q H 0.0244 0.2061 -0.2407
C49Q C 0.1501(9) 0.0714(8) -0.2466(8)
C50Q C 0.1416(10) 0.0845(8) -0.2589(8)
C51Q C 0.0735(8) 0.1534(10) -0.2479(9)
C52Q C 0.0859(8) 0.1436(10) -0.2598(8)
N9Q N 0.1288(10) 0.1299(10) -0.2959(5)
C53Q C 0.1390(5) 0.1120(10) -0.2870(10)
H31Q H 0.1508 0.1059 -0.2939
C54Q C 0.1315(9) 0.1033(5) -0.2677(10)
C55Q C 0.1139(9) 0.1126(10) -0.2573(5)
H32Q H 0.1090 0.1068 -0.2444
C56Q C 0.1038(5) 0.1305(9) -0.2662(10)
C57Q C 0.1112(10) 0.1391(5) -0.2855(11)
H33Q H 0.1044 0.1511 -0.2914
Pd2B Pd 0.20116(9) 0.0000 -0.20133(12)
Pd3C Pd 0.0000 0.20136(11) -0.20130(11)
N1R N -0.0230(4) 0.2164(7) 0.1848(8)
C1R C -0.0315(7) 0.2080(4) 0.1658(8)
H1R H -0.0265 0.1950 0.1604
C2R C -0.0475(7) 0.2192(9) 0.1548(4)
H2R H -0.0532 0.2137 0.1421
C3R C -0.0551(4) 0.2388(8) 0.1628(8)
C4R C -0.0466(7) 0.2471(4) 0.1819(9)
H3R H -0.0517 0.2602 0.1872
C5R C -0.0306(7) 0.2359(8) 0.1928(4)
H4R H -0.0249 0.2415 0.2056
N2R N -0.1842(7) 0.2177(7) 0.0224(4)
C6R C -0.1658(7) 0.2090(4) 0.0317(7)
H5R H -0.1603 0.1960 0.0267
C7R C -0.1555(4) 0.2197(8) 0.0486(7)
H6R H -0.1432 0.2139 0.0548
C8R C -0.1638(7) 0.2392(8) 0.0561(5)
C9R C -0.1822(8) 0.2479(4) 0.0468(7)
H7R H -0.1877 0.2609 0.0518
C10R C -0.1924(4) 0.2372(8) 0.0300(7)
H8R H -0.2048 0.2430 0.0237
C11R C -0.0732(8) 0.2469(8) 0.1514(10)
C12R C -0.0878(8) 0.2582(9) 0.1446(11)
C13R C -0.1505(9) 0.2471(10) 0.0732(8)
C14R C -0.1440(10) 0.2582(10) 0.0883(9)
N3R N -0.1312(11) 0.2967(6) 0.1326(12)
C15R C -0.1140(11) 0.2862(12) 0.1423(6)
H9R H -0.1077 0.2919 0.1547
C16R C -0.1061(6) 0.2671(11) 0.1336(11)
C17R C -0.1154(11) 0.2586(6) 0.1150(12)
H10R H -0.1101 0.2458 0.1092
C18R C -0.1326(10) 0.2691(12) 0.1053(6)
C19R C -0.1405(6) 0.2882(11) 0.1140(11)
H11R H -0.1520 0.2953 0.1075
N4R N -0.2183(6) 0.1855(6) 0.0212(4)
C20R C -0.2088(4) 0.1668(6) 0.0293(5)
H12R H -0.1960 0.1617 0.0234
C21R C -0.2184(5) 0.1559(5) 0.0464(6)
H13R H -0.2120 0.1434 0.0519
C22R C -0.2374(5) 0.1636(5) 0.0554(5)
C23R C -0.2469(4) 0.1822(5) 0.0472(5)
H14R H -0.2597 0.1874 0.0532
C24R C -0.2373(6) 0.1932(4) 0.0302(5)
H15R H -0.2437 0.2056 0.0247
N5R N -0.2170(6) 0.0214(4) 0.1845(6)
C25R C -0.2075(4) 0.0303(5) 0.1662(6)
H16R H -0.1943 0.0250 0.1613
C26R C -0.2176(5) 0.0471(6) 0.1554(5)
H17R H -0.2112 0.0531 0.1432
C27R C -0.2372(5) 0.0550(5) 0.1627(5)
C28R C -0.2467(4) 0.0461(6) 0.1810(5)
H18R H -0.2599 0.0514 0.1859
C29R C -0.2366(6) 0.0293(5) 0.1918(4)
H19R H -0.2430 0.0233 0.2040
C30R C -0.2477(8) 0.1519(10) 0.0722(8)
C31R C -0.2579(9) 0.1442(11) 0.0873(9)
C32R C -0.2484(8) 0.0711(8) 0.1506(10)
C33R C -0.2580(9) 0.0866(8) 0.1431(11)
N6R N -0.2950(5) 0.1319(12) 0.1323(13)
C34R C -0.2859(12) 0.1414(6) 0.1142(12)
H20R H -0.2925 0.1532 0.1077
C35R C -0.2668(12) 0.1332(11) 0.1056(6)
C36R C -0.2569(5) 0.1155(11) 0.1153(12)
H21R H -0.2442 0.1100 0.1096
C37R C -0.2661(12) 0.1060(6) 0.1334(12)
C38R C -0.2851(13) 0.1143(12) 0.1420(6)
H22R H -0.2912 0.1079 0.1541
N7R N -0.1833(7) 0.0217(4) 0.2151(7)
C39R C -0.1645(8) 0.0312(8) 0.2073(4)
H23R H -0.1585 0.0265 0.1944
C40R C -0.1546(4) 0.0477(7) 0.2189(9)
H24R H -0.1421 0.0540 0.2137
C41R C -0.1636(7) 0.0547(5) 0.2382(8)
C42R C -0.1823(7) 0.0453(7) 0.2460(4)
H25R H -0.1883 0.0500 0.2589
C43R C -0.1922(4) 0.0287(6) 0.2344(8)
H26R H -0.2048 0.0224 0.2396
N8R N -0.0222(4) 0.1845(8) 0.2164(8)
C44R C -0.0309(8) 0.1654(8) 0.2084(5)
H27R H -0.0254 0.1595 0.1957
C45R C -0.0476(8) 0.1553(4) 0.2193(9)
H28R H -0.0534 0.1426 0.2139
C46R C -0.0557(4) 0.1642(9) 0.2382(8)
C47R C -0.0470(8) 0.1833(9) 0.2462(4)
H29R H -0.0524 0.1892 0.2589
C48R C -0.0302(7) 0.1934(4) 0.2353(8)
H30R H -0.0244 0.2061 0.2407
C49R C -0.1501(9) 0.0714(8) 0.2466(8)
C50R C -0.1416(10) 0.0845(8) 0.2589(8)
C51R C -0.0735(8) 0.1534(10) 0.2479(9)
C52R C -0.0859(8) 0.1436(10) 0.2598(8)
N9R N -0.1288(10) 0.1299(10) 0.2959(5)
C53R C -0.1390(5) 0.1120(10) 0.2870(10)
H31R H -0.1508 0.1059 0.2939
C54R C -0.1315(9) 0.1033(5) 0.2677(10)
C55R C -0.1139(9) 0.1126(10) 0.2573(5)
H32R H -0.1090 0.1068 0.2444
C56R C -0.1038(5) 0.1305(9) 0.2662(10)
C57R C -0.1112(10) 0.1391(5) 0.2855(11)
H33R H -0.1044 0.1511 0.2914
Pd1C Pd -0.20130(9) 0.20141(12) 0.0000
Pd2A Pd -0.20116(9) 0.0000 0.20133(12)
N1S N 0.0230(4) -0.2164(7) 0.1848(8)
C1S C 0.0315(7) -0.2080(4) 0.1658(8)
H1S H 0.0265 -0.1950 0.1604
C2S C 0.0475(7) -0.2192(9) 0.1548(4)
H2S H 0.0532 -0.2137 0.1421
C3S C 0.0551(4) -0.2388(8) 0.1628(8)
C4S C 0.0466(7) -0.2471(4) 0.1819(9)
H3S H 0.0517 -0.2602 0.1872
C5S C 0.0306(7) -0.2359(8) 0.1928(4)
H4S H 0.0249 -0.2415 0.2056
N2S N 0.1842(7) -0.2177(7) 0.0224(4)
C6S C 0.1658(7) -0.2090(4) 0.0317(7)
H5S H 0.1603 -0.1960 0.0267
C7S C 0.1555(4) -0.2197(8) 0.0486(7)
H6S H 0.1432 -0.2139 0.0548
C8S C 0.1638(7) -0.2392(8) 0.0561(5)
C9S C 0.1822(8) -0.2479(4) 0.0468(7)
H7S H 0.1877 -0.2609 0.0518
C10S C 0.1924(4) -0.2372(8) 0.0300(7)
H8S H 0.2048 -0.2430 0.0237
C11S C 0.0732(8) -0.2469(8) 0.1514(10)
C12S C 0.0878(8) -0.2582(9) 0.1446(11)
C13S C 0.1505(9) -0.2471(10) 0.0732(8)
C14S C 0.1440(10) -0.2582(10) 0.0883(9)
N3S N 0.1312(11) -0.2967(6) 0.1326(12)
C15S C 0.1140(11) -0.2862(12) 0.1423(6)
H9S H 0.1077 -0.2919 0.1547
C16S C 0.1061(6) -0.2671(11) 0.1336(11)
C17S C 0.1154(11) -0.2586(6) 0.1150(12)
H10S H 0.1101 -0.2458 0.1092
C18S C 0.1326(10) -0.2691(12) 0.1053(6)
C19S C 0.1405(6) -0.2882(11) 0.1140(11)
H11S H 0.1520 -0.2953 0.1075
N4S N 0.2183(6) -0.1855(6) 0.0212(4)
C20S C 0.2088(4) -0.1668(6) 0.0293(5)
H12S H 0.1960 -0.1617 0.0234
C21S C 0.2184(5) -0.1559(5) 0.0464(6)
H13S H 0.2120 -0.1434 0.0519
C22S C 0.2374(5) -0.1636(5) 0.0554(5)
C23S C 0.2469(4) -0.1822(5) 0.0472(5)
H14S H 0.2597 -0.1874 0.0532
C24S C 0.2373(6) -0.1932(4) 0.0302(5)
H15S H 0.2437 -0.2056 0.0247
N5S N 0.2170(6) -0.0214(4) 0.1845(6)
C25S C 0.2075(4) -0.0303(5) 0.1662(6)
H16S H 0.1943 -0.0250 0.1613
C26S C 0.2176(5) -0.0471(6) 0.1554(5)
H17S H 0.2112 -0.0531 0.1432
C27S C 0.2372(5) -0.0550(5) 0.1627(5)
C28S C 0.2467(4) -0.0461(6) 0.1810(5)
H18S H 0.2599 -0.0514 0.1859
C29S C 0.2366(6) -0.0293(5) 0.1918(4)
H19S H 0.2430 -0.0233 0.2040
C30S C 0.2477(8) -0.1519(10) 0.0722(8)
C31S C 0.2579(9) -0.1442(11) 0.0873(9)
C32S C 0.2484(8) -0.0711(8) 0.1506(10)
C33S C 0.2580(9) -0.0866(8) 0.1431(11)
N6S N 0.2950(5) -0.1319(12) 0.1323(13)
C34S C 0.2859(12) -0.1414(6) 0.1142(12)
H20S H 0.2925 -0.1532 0.1077
C35S C 0.2668(12) -0.1332(11) 0.1056(6)
C36S C 0.2569(5) -0.1155(11) 0.1153(12)
H21S H 0.2442 -0.1100 0.1096
C37S C 0.2661(12) -0.1060(6) 0.1334(12)
C38S C 0.2851(13) -0.1143(12) 0.1420(6)
H22S H 0.2912 -0.1079 0.1541
N7S N 0.1833(7) -0.0217(4) 0.2151(7)
C39S C 0.1645(8) -0.0312(8) 0.2073(4)
H23S H 0.1585 -0.0265 0.1944
C40S C 0.1546(4) -0.0477(7) 0.2189(9)
H24S H 0.1421 -0.0540 0.2137
C41S C 0.1636(7) -0.0547(5) 0.2382(8)
C42S C 0.1823(7) -0.0453(7) 0.2460(4)
H25S H 0.1883 -0.0500 0.2589
C43S C 0.1922(4) -0.0287(6) 0.2344(8)
H26S H 0.2048 -0.0224 0.2396
N8S N 0.0222(4) -0.1845(8) 0.2164(8)
C44S C 0.0309(8) -0.1654(8) 0.2084(5)
H27S H 0.0254 -0.1595 0.1957
C45S C 0.0476(8) -0.1553(4) 0.2193(9)
H28S H 0.0534 -0.1426 0.2139
C46S C 0.0557(4) -0.1642(9) 0.2382(8)
C47S C 0.0470(8) -0.1833(9) 0.2462(4)
H29S H 0.0524 -0.1892 0.2589
C48S C 0.0302(7) -0.1934(4) 0.2353(8)
H30S H 0.0244 -0.2061 0.2407
C49S C 0.1501(9) -0.0714(8) 0.2466(8)
C50S C 0.1416(10) -0.0845(8) 0.2589(8)
C51S C 0.0735(8) -0.1534(10) 0.2479(9)
C52S C 0.0859(8) -0.1436(10) 0.2598(8)
N9S N 0.1288(10) -0.1299(10) 0.2959(5)
C53S C 0.1390(5) -0.1120(10) 0.2870(10)
H31S H 0.1508 -0.1059 0.2939
C54S C 0.1315(9) -0.1033(5) 0.2677(10)
C55S C 0.1139(9) -0.1126(10) 0.2573(5)
H32S H 0.1090 -0.1068 0.2444
C56S C 0.1038(5) -0.1305(9) 0.2662(10)
C57S C 0.1112(10) -0.1391(5) 0.2855(11)
H33S H 0.1044 -0.1511 0.2914
Pd1B Pd 0.20130(9) -0.20141(12) 0.0000
Pd3A Pd 0.0000 -0.20136(11) 0.20130(11)
N1A N -0.0230(4) -0.2164(7) 0.1848(8)
C1A C -0.0315(7) -0.2080(4) 0.1658(8)
H1A H -0.0265 -0.1950 0.1604
C2A C -0.0475(7) -0.2192(9) 0.1548(4)
H2A H -0.0532 -0.2137 0.1421
C3A C -0.0551(4) -0.2388(8) 0.1628(8)
C4A C -0.0466(7) -0.2471(4) 0.1819(9)
H3A H -0.0517 -0.2602 0.1872
C5A C -0.0306(7) -0.2359(8) 0.1928(4)
H4A H -0.0249 -0.2415 0.2056
N2A N -0.1842(7) -0.2177(7) 0.0224(4)
C6A C -0.1658(7) -0.2090(4) 0.0317(7)
H5A H -0.1603 -0.1960 0.0267
C7A C -0.1555(4) -0.2197(8) 0.0486(7)
H6A H -0.1432 -0.2139 0.0548
C8A C -0.1638(7) -0.2392(8) 0.0561(5)
C9A C -0.1822(8) -0.2479(4) 0.0468(7)
H7A H -0.1877 -0.2609 0.0518
C10A C -0.1924(4) -0.2372(8) 0.0300(7)
H8A H -0.2048 -0.2430 0.0237
C11A C -0.0732(8) -0.2469(8) 0.1514(10)
C12A C -0.0878(8) -0.2582(9) 0.1446(11)
C13A C -0.1505(9) -0.2471(10) 0.0732(8)
C14A C -0.1440(10) -0.2582(10) 0.0883(9)
N3A N -0.1312(11) -0.2967(6) 0.1326(12)
C15A C -0.1140(11) -0.2862(12) 0.1423(6)
H9A H -0.1077 -0.2919 0.1547
C16A C -0.1061(6) -0.2671(11) 0.1336(11)
C17A C -0.1154(11) -0.2586(6) 0.1150(12)
H10A H -0.1101 -0.2458 0.1092
C18A C -0.1326(10) -0.2691(12) 0.1053(6)
C19A C -0.1405(6) -0.2882(11) 0.1140(11)
H11A H -0.1520 -0.2953 0.1075
N4A N -0.2183(6) -0.1855(6) 0.0212(4)
C20A C -0.2088(4) -0.1668(6) 0.0293(5)
H12A H -0.1960 -0.1617 0.0234
C21A C -0.2184(5) -0.1559(5) 0.0464(6)
H13A H -0.2120 -0.1434 0.0519
C22A C -0.2374(5) -0.1636(5) 0.0554(5)
C23A C -0.2469(4) -0.1822(5) 0.0472(5)
H14A H -0.2597 -0.1874 0.0532
C24A C -0.2373(6) -0.1932(4) 0.0302(5)
H15A H -0.2437 -0.2056 0.0247
N5A N -0.2170(6) -0.0214(4) 0.1845(6)
C25A C -0.2075(4) -0.0303(5) 0.1662(6)
H16A H -0.1943 -0.0250 0.1613
C26A C -0.2176(5) -0.0471(6) 0.1554(5)
H17A H -0.2112 -0.0531 0.1432
C27A C -0.2372(5) -0.0550(5) 0.1627(5)
C28A C -0.2467(4) -0.0461(6) 0.1810(5)
H18A H -0.2599 -0.0514 0.1859
C29A C -0.2366(6) -0.0293(5) 0.1918(4)
H19A H -0.2430 -0.0233 0.2040
C30A C -0.2477(8) -0.1519(10) 0.0722(8)
C31A C -0.2579(9) -0.1442(11) 0.0873(9)
C32A C -0.2484(8) -0.0711(8) 0.1506(10)
C33A C -0.2580(9) -0.0866(8) 0.1431(11)
N6A N -0.2950(5) -0.1319(12) 0.1323(13)
C34A C -0.2859(12) -0.1414(6) 0.1142(12)
H20A H -0.2925 -0.1532 0.1077
C35A C -0.2668(12) -0.1332(11) 0.1056(6)
C36A C -0.2569(5) -0.1155(11) 0.1153(12)
H21A H -0.2442 -0.1100 0.1096
C37A C -0.2661(12) -0.1060(6) 0.1334(12)
C38A C -0.2851(13) -0.1143(12) 0.1420(6)
H22A H -0.2912 -0.1079 0.1541
N7A N -0.1833(7) -0.0217(4) 0.2151(7)
C39A C -0.1645(8) -0.0312(8) 0.2073(4)
H23A H -0.1585 -0.0265 0.1944
C40A C -0.1546(4) -0.0477(7) 0.2189(9)
H24A H -0.1421 -0.0540 0.2137
C41A C -0.1636(7) -0.0547(5) 0.2382(8)
C42A C -0.1823(7) -0.0453(7) 0.2460(4)
H25A H -0.1883 -0.0500 0.2589
C43A C -0.1922(4) -0.0287(6) 0.2344(8)
H26A H -0.2048 -0.0224 0.2396
N8A N -0.0222(4) -0.1845(8) 0.2164(8)
C44A C -0.0309(8) -0.1654(8) 0.2084(5)
H27A H -0.0254 -0.1595 0.1957
C45A C -0.0476(8) -0.1553(4) 0.2193(9)
H28A H -0.0534 -0.1426 0.2139
C46A C -0.0557(4) -0.1642(9) 0.2382(8)
C47A C -0.0470(8) -0.1833(9) 0.2462(4)
H29A H -0.0524 -0.1892 0.2589
C48A C -0.0302(7) -0.1934(4) 0.2353(8)
H30A H -0.0244 -0.2061 0.2407
C49A C -0.1501(9) -0.0714(8) 0.2466(8)
C50A C -0.1416(10) -0.0845(8) 0.2589(8)
C51A C -0.0735(8) -0.1534(10) 0.2479(9)
C52A C -0.0859(8) -0.1436(10) 0.2598(8)
N9A N -0.1288(10) -0.1299(10) 0.2959(5)
C53A C -0.1390(5) -0.1120(10) 0.2870(10)
H31A H -0.1508 -0.1059 0.2939
C54A C -0.1315(9) -0.1033(5) 0.2677(10)
C55A C -0.1139(9) -0.1126(10) 0.2573(5)
H32A H -0.1090 -0.1068 0.2444
C56A C -0.1038(5) -0.1305(9) 0.2662(10)
C57A C -0.1112(10) -0.1391(5) 0.2855(11)
H33A H -0.1044 -0.1511 0.2914
Pd1A Pd -0.20130(9) -0.20141(12) 0.0000
N1B N 0.0230(4) -0.2164(7) -0.1848(8)
C1B C 0.0315(7) -0.2080(4) -0.1658(8)
H1B H 0.0265 -0.1950 -0.1604
C2B C 0.0475(7) -0.2192(9) -0.1548(4)
H2B H 0.0532 -0.2137 -0.1421
C3B C 0.0551(4) -0.2388(8) -0.1628(8)
C4B C 0.0466(7) -0.2471(4) -0.1819(9)
H3B H 0.0517 -0.2602 -0.1872
C5B C 0.0306(7) -0.2359(8) -0.1928(4)
H4B H 0.0249 -0.2415 -0.2056
N2B N 0.1842(7) -0.2177(7) -0.0224(4)
C6B C 0.1658(7) -0.2090(4) -0.0317(7)
H5B H 0.1603 -0.1960 -0.0267
C7B C 0.1555(4) -0.2197(8) -0.0486(7)
H6B H 0.1432 -0.2139 -0.0548
C8B C 0.1638(7) -0.2392(8) -0.0561(5)
C9B C 0.1822(8) -0.2479(4) -0.0468(7)
H7B H 0.1877 -0.2609 -0.0518
C10B C 0.1924(4) -0.2372(8) -0.0300(7)
H8B H 0.2048 -0.2430 -0.0237
C11B C 0.0732(8) -0.2469(8) -0.1514(10)
C12B C 0.0878(8) -0.2582(9) -0.1446(11)
C13B C 0.1505(9) -0.2471(10) -0.0732(8)
C14B C 0.1440(10) -0.2582(10) -0.0883(9)
N3B N 0.1312(11) -0.2967(6) -0.1326(12)
C15B C 0.1140(11) -0.2862(12) -0.1423(6)
H9B H 0.1077 -0.2919 -0.1547
C16B C 0.1061(6) -0.2671(11) -0.1336(11)
C17B C 0.1154(11) -0.2586(6) -0.1150(12)
H10B H 0.1101 -0.2458 -0.1092
C18B C 0.1326(10) -0.2691(12) -0.1053(6)
C19B C 0.1405(6) -0.2882(11) -0.1140(11)
H11B H 0.1520 -0.2953 -0.1075
N4B N 0.2183(6) -0.1855(6) -0.0212(4)
C20B C 0.2088(4) -0.1668(6) -0.0293(5)
H12B H 0.1960 -0.1617 -0.0234
C21B C 0.2184(5) -0.1559(5) -0.0464(6)
H13B H 0.2120 -0.1434 -0.0519
C22B C 0.2374(5) -0.1636(5) -0.0554(5)
C23B C 0.2469(4) -0.1822(5) -0.0472(5)
H14B H 0.2597 -0.1874 -0.0532
C24B C 0.2373(6) -0.1932(4) -0.0302(5)
H15B H 0.2437 -0.2056 -0.0247
N5B N 0.2170(6) -0.0214(4) -0.1845(6)
C25B C 0.2075(4) -0.0303(5) -0.1662(6)
H16B H 0.1943 -0.0250 -0.1613
C26B C 0.2176(5) -0.0471(6) -0.1554(5)
H17B H 0.2112 -0.0531 -0.1432
C27B C 0.2372(5) -0.0550(5) -0.1627(5)
C28B C 0.2467(4) -0.0461(6) -0.1810(5)
H18B H 0.2599 -0.0514 -0.1859
C29B C 0.2366(6) -0.0293(5) -0.1918(4)
H19B H 0.2430 -0.0233 -0.2040
C30B C 0.2477(8) -0.1519(10) -0.0722(8)
C31B C 0.2579(9) -0.1442(11) -0.0873(9)
C32B C 0.2484(8) -0.0711(8) -0.1506(10)
C33B C 0.2580(9) -0.0866(8) -0.1431(11)
N6B N 0.2950(5) -0.1319(12) -0.1323(13)
C34B C 0.2859(12) -0.1414(6) -0.1142(12)
H20B H 0.2925 -0.1532 -0.1077
C35B C 0.2668(12) -0.1332(11) -0.1056(6)
C36B C 0.2569(5) -0.1155(11) -0.1153(12)
H21B H 0.2442 -0.1100 -0.1096
C37B C 0.2661(12) -0.1060(6) -0.1334(12)
C38B C 0.2851(13) -0.1143(12) -0.1420(6)
H22B H 0.2912 -0.1079 -0.1541
N7B N 0.1833(7) -0.0217(4) -0.2151(7)
C39B C 0.1645(8) -0.0312(8) -0.2073(4)
H23B H 0.1585 -0.0265 -0.1944
C40B C 0.1546(4) -0.0477(7) -0.2189(9)
H24B H 0.1421 -0.0540 -0.2137
C41B C 0.1636(7) -0.0547(5) -0.2382(8)
C42B C 0.1823(7) -0.0453(7) -0.2460(4)
H25B H 0.1883 -0.0500 -0.2589
C43B C 0.1922(4) -0.0287(6) -0.2344(8)
H26B H 0.2048 -0.0224 -0.2396
N8B N 0.0222(4) -0.1845(8) -0.2164(8)
C44B C 0.0309(8) -0.1654(8) -0.2084(5)
H27B H 0.0254 -0.1595 -0.1957
C45B C 0.0476(8) -0.1553(4) -0.2193(9)
H28B H 0.0534 -0.1426 -0.2139
C46B C 0.0557(4) -0.1642(9) -0.2382(8)
C47B C 0.0470(8) -0.1833(9) -0.2462(4)
H29B H 0.0524 -0.1892 -0.2589
C48B C 0.0302(7) -0.1934(4) -0.2353(8)
H30B H 0.0244 -0.2061 -0.2407
C49B C 0.1501(9) -0.0714(8) -0.2466(8)
C50B C 0.1416(10) -0.0845(8) -0.2589(8)
C51B C 0.0735(8) -0.1534(10) -0.2479(9)
C52B C 0.0859(8) -0.1436(10) -0.2598(8)
N9B N 0.1288(10) -0.1299(10) -0.2959(5)
C53B C 0.1390(5) -0.1120(10) -0.2870(10)
H31B H 0.1508 -0.1059 -0.2939
C54B C 0.1315(9) -0.1033(5) -0.2677(10)
C55B C 0.1139(9) -0.1126(10) -0.2573(5)
H32B H 0.1090 -0.1068 -0.2444
C56B C 0.1038(5) -0.1305(9) -0.2662(10)
C57B C 0.1112(10) -0.1391(5) -0.2855(11)
H33B H 0.1044 -0.1511 -0.2914
Pd3B Pd 0.0000 -0.20136(11) -0.20130(11)
N1C N -0.0230(4) 0.2164(7) -0.1848(8)
C1C C -0.0315(7) 0.2080(4) -0.1658(8)
H1C H -0.0265 0.1950 -0.1604
C2C C -0.0475(7) 0.2192(9) -0.1548(4)
H2C H -0.0532 0.2137 -0.1421
C3C C -0.0551(4) 0.2388(8) -0.1628(8)
C4C C -0.0466(7) 0.2471(4) -0.1819(9)
H3C H -0.0517 0.2602 -0.1872
C5C C -0.0306(7) 0.2359(8) -0.1928(4)
H4C H -0.0249 0.2415 -0.2056
N2C N -0.1842(7) 0.2177(7) -0.0224(4)
C6C C -0.1658(7) 0.2090(4) -0.0317(7)
H5C H -0.1603 0.1960 -0.0267
C7C C -0.1555(4) 0.2197(8) -0.0486(7)
H6C H -0.1432 0.2139 -0.0548
C8C C -0.1638(7) 0.2392(8) -0.0561(5)
C9C C -0.1822(8) 0.2479(4) -0.0468(7)
H7C H -0.1877 0.2609 -0.0518
C10C C -0.1924(4) 0.2372(8) -0.0300(7)
H8C H -0.2048 0.2430 -0.0237
C11C C -0.0732(8) 0.2469(8) -0.1514(10)
C12C C -0.0878(8) 0.2582(9) -0.1446(11)
C13C C -0.1505(9) 0.2471(10) -0.0732(8)
C14C C -0.1440(10) 0.2582(10) -0.0883(9)
N3C N -0.1312(11) 0.2967(6) -0.1326(12)
C15C C -0.1140(11) 0.2862(12) -0.1423(6)
H9C H -0.1077 0.2919 -0.1547
C16C C -0.1061(6) 0.2671(11) -0.1336(11)
C17C C -0.1154(11) 0.2586(6) -0.1150(12)
H10C H -0.1101 0.2458 -0.1092
C18C C -0.1326(10) 0.2691(12) -0.1053(6)
C19C C -0.1405(6) 0.2882(11) -0.1140(11)
H11C H -0.1520 0.2953 -0.1075
N4C N -0.2183(6) 0.1855(6) -0.0212(4)
C20C C -0.2088(4) 0.1668(6) -0.0293(5)
H12C H -0.1960 0.1617 -0.0234
C21C C -0.2184(5) 0.1559(5) -0.0464(6)
H13C H -0.2120 0.1434 -0.0519
C22C C -0.2374(5) 0.1636(5) -0.0554(5)
C23C C -0.2469(4) 0.1822(5) -0.0472(5)
H14C H -0.2597 0.1874 -0.0532
C24C C -0.2373(6) 0.1932(4) -0.0302(5)
H15C H -0.2437 0.2056 -0.0247
N5C N -0.2170(6) 0.0214(4) -0.1845(6)
C25C C -0.2075(4) 0.0303(5) -0.1662(6)
H16C H -0.1943 0.0250 -0.1613
C26C C -0.2176(5) 0.0471(6) -0.1554(5)
H17C H -0.2112 0.0531 -0.1432
C27C C -0.2372(5) 0.0550(5) -0.1627(5)
C28C C -0.2467(4) 0.0461(6) -0.1810(5)
H18C H -0.2599 0.0514 -0.1859
C29C C -0.2366(6) 0.0293(5) -0.1918(4)
H19C H -0.2430 0.0233 -0.2040
C30C C -0.2477(8) 0.1519(10) -0.0722(8)
C31C C -0.2579(9) 0.1442(11) -0.0873(9)
C32C C -0.2484(8) 0.0711(8) -0.1506(10)
C33C C -0.2580(9) 0.0866(8) -0.1431(11)
N6C N -0.2950(5) 0.1319(12) -0.1323(13)
C34C C -0.2859(12) 0.1414(6) -0.1142(12)
H20C H -0.2925 0.1532 -0.1077
C35C C -0.2668(12) 0.1332(11) -0.1056(6)
C36C C -0.2569(5) 0.1155(11) -0.1153(12)
H21C H -0.2442 0.1100 -0.1096
C37C C -0.2661(12) 0.1060(6) -0.1334(12)
C38C C -0.2851(13) 0.1143(12) -0.1420(6)
H22C H -0.2912 0.1079 -0.1541
N7C N -0.1833(7) 0.0217(4) -0.2151(7)
C39C C -0.1645(8) 0.0312(8) -0.2073(4)
H23C H -0.1585 0.0265 -0.1944
C40C C -0.1546(4) 0.0477(7) -0.2189(9)
H24C H -0.1421 0.0540 -0.2137
C41C C -0.1636(7) 0.0547(5) -0.2382(8)
C42C C -0.1823(7) 0.0453(7) -0.2460(4)
H25C H -0.1883 0.0500 -0.2589
C43C C -0.1922(4) 0.0287(6) -0.2344(8)
H26C H -0.2048 0.0224 -0.2396
N8C N -0.0222(4) 0.1845(8) -0.2164(8)
C44C C -0.0309(8) 0.1654(8) -0.2084(5)
H27C H -0.0254 0.1595 -0.1957
C45C C -0.0476(8) 0.1553(4) -0.2193(9)
H28C H -0.0534 0.1426 -0.2139
C46C C -0.0557(4) 0.1642(9) -0.2382(8)
C47C C -0.0470(8) 0.1833(9) -0.2462(4)
H29C H -0.0524 0.1892 -0.2589
C48C C -0.0302(7) 0.1934(4) -0.2353(8)
H30C H -0.0244 0.2061 -0.2407
C49C C -0.1501(9) 0.0714(8) -0.2466(8)
C50C C -0.1416(10) 0.0845(8) -0.2589(8)
C51C C -0.0735(8) 0.1534(10) -0.2479(9)
C52C C -0.0859(8) 0.1436(10) -0.2598(8)
N9C N -0.1288(10) 0.1299(10) -0.2959(5)
C53C C -0.1390(5) 0.1120(10) -0.2870(10)
H31C H -0.1508 0.1059 -0.2939
C54C C -0.1315(9) 0.1033(5) -0.2677(10)
C55C C -0.1139(9) 0.1126(10) -0.2573(5)
H32C H -0.1090 0.1068 -0.2444
C56C C -0.1038(5) 0.1305(9) -0.2662(10)
C57C C -0.1112(10) 0.1391(5) -0.2855(11)
H33C H -0.1044 0.1511 -0.2914
Pd2C Pd -0.20116(9) 0.0000 -0.20133(12)
N1P N -0.0230(4) -0.2164(7) -0.1848(8)
C1P C -0.0315(7) -0.2080(4) -0.1658(8)
H1P H -0.0265 -0.1950 -0.1604
C2P C -0.0475(7) -0.2192(9) -0.1548(4)
H2P H -0.0532 -0.2137 -0.1421
C3P C -0.0551(4) -0.2388(8) -0.1628(8)
C4P C -0.0466(7) -0.2471(4) -0.1819(9)
H3P H -0.0517 -0.2602 -0.1872
C5P C -0.0306(7) -0.2359(8) -0.1928(4)
H4P H -0.0249 -0.2415 -0.2056
N2P N -0.1842(7) -0.2177(7) -0.0224(4)
C6P C -0.1658(7) -0.2090(4) -0.0317(7)
H5P H -0.1603 -0.1960 -0.0267
C7P C -0.1555(4) -0.2197(8) -0.0486(7)
H6P H -0.1432 -0.2139 -0.0548
C8P C -0.1638(7) -0.2392(8) -0.0561(5)
C9P C -0.1822(8) -0.2479(4) -0.0468(7)
H7P H -0.1877 -0.2609 -0.0518
C10P C -0.1924(4) -0.2372(8) -0.0300(7)
H8P H -0.2048 -0.2430 -0.0237
C11P C -0.0732(8) -0.2469(8) -0.1514(10)
C12P C -0.0878(8) -0.2582(9) -0.1446(11)
C13P C -0.1505(9) -0.2471(10) -0.0732(8)
C14P C -0.1440(10) -0.2582(10) -0.0883(9)
N3P N -0.1312(11) -0.2967(6) -0.1326(12)
C15P C -0.1140(11) -0.2862(12) -0.1423(6)
H9P H -0.1077 -0.2919 -0.1547
C16P C -0.1061(6) -0.2671(11) -0.1336(11)
C17P C -0.1154(11) -0.2586(6) -0.1150(12)
H10P H -0.1101 -0.2458 -0.1092
C18P C -0.1326(10) -0.2691(12) -0.1053(6)
C19P C -0.1405(6) -0.2882(11) -0.1140(11)
H11P H -0.1520 -0.2953 -0.1075
N4P N -0.2183(6) -0.1855(6) -0.0212(4)
C20P C -0.2088(4) -0.1668(6) -0.0293(5)
H12P H -0.1960 -0.1617 -0.0234
C21P C -0.2184(5) -0.1559(5) -0.0464(6)
H13P H -0.2120 -0.1434 -0.0519
C22P C -0.2374(5) -0.1636(5) -0.0554(5)
C23P C -0.2469(4) -0.1822(5) -0.0472(5)
H14P H -0.2597 -0.1874 -0.0532
C24P C -0.2373(6) -0.1932(4) -0.0302(5)
H15P H -0.2437 -0.2056 -0.0247
N5P N -0.2170(6) -0.0214(4) -0.1845(6)
C25P C -0.2075(4) -0.0303(5) -0.1662(6)
H16P H -0.1943 -0.0250 -0.1613
C26P C -0.2176(5) -0.0471(6) -0.1554(5)
H17P H -0.2112 -0.0531 -0.1432
C27P C -0.2372(5) -0.0550(5) -0.1627(5)
C28P C -0.2467(4) -0.0461(6) -0.1810(5)
H18P H -0.2599 -0.0514 -0.1859
C29P C -0.2366(6) -0.0293(5) -0.1918(4)
H19P H -0.2430 -0.0233 -0.2040
C30P C -0.2477(8) -0.1519(10) -0.0722(8)
C31P C -0.2579(9) -0.1442(11) -0.0873(9)
C32P C -0.2484(8) -0.0711(8) -0.1506(10)
C33P C -0.2580(9) -0.0866(8) -0.1431(11)
N6P N -0.2950(5) -0.1319(12) -0.1323(13)
C34P C -0.2859(12) -0.1414(6) -0.1142(12)
H20P H -0.2925 -0.1532 -0.1077
C35P C -0.2668(12) -0.1332(11) -0.1056(6)
C36P C -0.2569(5) -0.1155(11) -0.1153(12)
H21P H -0.2442 -0.1100 -0.1096
C37P C -0.2661(12) -0.1060(6) -0.1334(12)
C38P C -0.2851(13) -0.1143(12) -0.1420(6)
H22P H -0.2912 -0.1079 -0.1541
N7P N -0.1833(7) -0.0217(4) -0.2151(7)
C39P C -0.1645(8) -0.0312(8) -0.2073(4)
H23P H -0.1585 -0.0265 -0.1944
C40P C -0.1546(4) -0.0477(7) -0.2189(9)
H24P H -0.1421 -0.0540 -0.2137
C41P C -0.1636(7) -0.0547(5) -0.2382(8)
C42P C -0.1823(7) -0.0453(7) -0.2460(4)
H25P H -0.1883 -0.0500 -0.2589
C43P C -0.1922(4) -0.0287(6) -0.2344(8)
H26P H -0.2048 -0.0224 -0.2396
N8P N -0.0222(4) -0.1845(8) -0.2164(8)
C44P C -0.0309(8) -0.1654(8) -0.2084(5)
H27P H -0.0254 -0.1595 -0.1957
C45P C -0.0476(8) -0.1553(4) -0.2193(9)
H28P H -0.0534 -0.1426 -0.2139
C46P C -0.0557(4) -0.1642(9) -0.2382(8)
C47P C -0.0470(8) -0.1833(9) -0.2462(4)
H29P H -0.0524 -0.1892 -0.2589
C48P C -0.0302(7) -0.1934(4) -0.2353(8)
H30P H -0.0244 -0.2061 -0.2407
C49P C -0.1501(9) -0.0714(8) -0.2466(8)
C50P C -0.1416(10) -0.0845(8) -0.2589(8)
C51P C -0.0735(8) -0.1534(10) -0.2479(9)
C52P C -0.0859(8) -0.1436(10) -0.2598(8)
N9P N -0.1288(10) -0.1299(10) -0.2959(5)
C53P C -0.1390(5) -0.1120(10) -0.2870(10)
H31P H -0.1508 -0.1059 -0.2939
C54P C -0.1315(9) -0.1033(5) -0.2677(10)
C55P C -0.1139(9) -0.1126(10) -0.2573(5)
H32P H -0.1090 -0.1068 -0.2444
C56P C -0.1038(5) -0.1305(9) -0.2662(10)
C57P C -0.1112(10) -0.1391(5) -0.2855(11)
H33P H -0.1044 -0.1511 -0.2914
F1 F 0.1628(7) 0.1614(11) 0.0000
B1 B 0.2444(8) 0.2553(8) 0.0014(10)
F2 F 0.2407(16) 0.2336(9) -0.0038(17)
F3 F 0.2406(10) 0.2581(13) 0.0235(9)
F4 F 0.2300(9) 0.2684(11) -0.0103(9)
F5 F 0.2655(8) 0.2619(14) -0.0032(18)
B1M B 0.2556(8) 0.2447(8) 0.0014(10)
F2M F 0.2593(16) 0.2664(9) -0.0038(17)
F3M F 0.2594(10) 0.2419(13) 0.0235(9)
F4M F 0.2700(9) 0.2316(11) -0.0103(9)
F5M F 0.2345(8) 0.2381(14) -0.0032(18)
B1Q B 0.2444(8) 0.2553(8) -0.0014(10)
F2Q F 0.2407(16) 0.2336(9) 0.0038(17)
F3Q F 0.2406(10) 0.2581(13) -0.0235(9)
F4Q F 0.2300(9) 0.2684(11) 0.0103(9)
F5Q F 0.2655(8) 0.2619(14) 0.0032(18)
B1BA B 0.2556(8) 0.2447(8) -0.0014(10)
F2BA F 0.2593(16) 0.2664(9) 0.0038(17)
F3BA F 0.2594(10) 0.2419(13) -0.0235(9)
F4BA F 0.2700(9) 0.2316(11) 0.0103(9)
F5BA F 0.2345(8) 0.2381(14) 0.0032(18)
B2 B 0.0060(10) 0.2516(8) 0.2513(8)
F6 F -0.0074(13) 0.2345(11) 0.2455(18)
F7 F -0.0027(14) 0.2640(9) 0.2681(7)
F8 F 0.0257(9) 0.2430(11) 0.2586(11)
F9 F 0.0093(11) 0.2644(15) 0.2330(9)
B2F B 0.0060(10) 0.2484(8) 0.2487(8)
F6F F -0.0074(13) 0.2655(11) 0.2545(18)
F7F F -0.0027(14) 0.2360(9) 0.2319(7)
F8F F 0.0257(9) 0.2570(11) 0.2414(11)
F9F F 0.0093(11) 0.2356(15) 0.2670(9)
B2R B -0.0060(10) 0.2516(8) 0.2513(8)
F6R F 0.0074(13) 0.2345(11) 0.2455(18)
F7R F 0.0027(14) 0.2640(9) 0.2681(7)
F8R F -0.0257(9) 0.2430(11) 0.2586(11)
F9R F -0.0093(11) 0.2644(15) 0.2330(9)
B2T B -0.0060(10) 0.2484(8) 0.2487(8)
F6T F 0.0074(13) 0.2655(11) 0.2545(18)
F7T F 0.0027(14) 0.2360(9) 0.2319(7)
F8T F -0.0257(9) 0.2570(11) 0.2414(11)
F9T F -0.0093(11) 0.2356(15) 0.2670(9)
O1 O 0.0000 0.267(3) 0.145(3)
O2 O 0.0776(11) 0.1693(13) 0.1699(12)
O3 O 0.287(4) 0.114(3) 0.179(4)
O4 O 0.183(3) 0.281(3) 0.111(3)
O5 O 0.1655(14) 0.0765(16) 0.1697(15)
O6 O 0.1923(12) 0.0906(13) 0.1936(14)
O7 O 0.2753(12) 0.2766(14) 0.0806(13)
O8 O 0.2647(13) 0.1478(15) 0.1547(14)
O9 O 0.1698(15) 0.1753(16) 0.0819(15)
O10 O 0.1954(12) 0.1967(15) 0.0899(14)
O11 O 0.193(3) 0.110(3) 0.160(3)
O12 O 0.1505(18) 0.260(2) 0.155(2)
O13 O 0.1699(19) 0.2777(18) 0.0000
O14 O 0.144(3) 0.0000 0.270(3)
O15 O 0.182(3) 0.284(3) 0.386(3)
O16 O 0.2500 0.066(3) 0.2500
O17 O 0.0657(15) 0.2500 0.2500
O18 O 0.258(3) 0.372(2) 0.0000
O19 O 0.102(4) 0.5000 0.0000
O20 O 0.0000 0.402(3) 0.0000
O21 O 0.281(2) 0.185(3) 0.107(2)
O22 O 0.3081(19) 0.186(2) 0.077(2)
O23 O 0.0887(9) 0.3074(12) 0.3026(12)
O24 O 0.2847(17) 0.0865(18) 0.2089(17)
O25 O 0.226(2) 0.0000 0.118(2)
O26 O 0.279(3) 0.0000 0.165(4)
O27 O 0.281(2) 0.161(3) 0.0000
O28 O 0.163(3) 0.179(3) 0.337(3)
O29 O 0.201(3) 0.167(3) 0.107(3)
O30 O 0.3060(14) 0.0774(17) 0.1872(16)
O31 O 0.0879(15) 0.1960(16) 0.3026(16)
O32 O 0.3037(17) 0.1089(19) 0.238(3)
O33 O 0.2176(13) 0.0832(14) 0.2222(15)
O34 O 0.0000 0.216(2) 0.322(3)
O35 O 0.185(3) 0.156(4) 0.339(3)
O36 O 0.1545(17) 0.152(2) 0.260(2)
O37 O 0.110(2) 0.158(2) 0.196(2)
O38 O 0.328(2) 0.0000 0.2191(17)
O39 O 0.0808(11) 0.2799(14) 0.2747(13)
O40 O 0.213(3) 0.114(3) 0.0000
O41 O 0.224(4) 0.0000 0.152(5)
O42 O 0.158(2) 0.301(2) 0.386(2)
O43 O 0.1120(17) 0.2325(18) 0.3125(19)
O44 O 0.342(2) 0.113(2) 0.304(2)
O45 O 0.115(4) 0.186(4) 0.282(4)
O46 O 0.0000 0.263(3) 0.3769(19)
O47 O 0.122(2) 0.246(2) 0.0000
O48 O 0.206(5) 0.0000 0.018(6)
O49 O 0.308(2) 0.108(2) 0.204(3)
O50 O 0.314(2) 0.115(2) 0.280(3)
O51 O 0.108(2) 0.5000 0.281(2)
O52 O 0.0000 0.169(2) 0.2804(17)
O53 O 0.0000 0.295(4) 0.381(3)
O54 O 0.2500 0.2500 0.0687(19)
O55 O 0.0000 0.203(3) 0.292(3)
O56 O 0.203(2) 0.0000 0.303(3)
loop_
_geom_bond_atom_site_label_1
_geom_bond_atom_site_label_2
_geom_bond_site_symmetry_1
_geom_bond_site_symmetry_2
N1 C1 1_555 1_555
C1 H1 1_555 1_555
C2 C1 1_555 1_555
H2 C2 1_555 1_555
C3 C2 1_555 1_555
C4 C3 1_555 1_555
H3 C4 1_555 1_555
C5 N1 1_555 1_555
H4 C5 1_555 1_555
N2 C6 1_555 1_555
C6 H5 1_555 1_555
C7 C6 1_555 1_555
H6 C7 1_555 1_555
C8 C7 1_555 1_555
C9 C8 1_555 1_555
H7 C9 1_555 1_555
C10 N2 1_555 1_555
H8 C10 1_555 1_555
C11 C3 1_555 1_555
C12 C11 1_555 1_555
C13 C8 1_555 1_555
C14 C13 1_555 1_555
N3 C15 1_555 1_555
C15 H9 1_555 1_555
C16 C12 1_555 1_555
C17 C16 1_555 1_555
H10 C17 1_555 1_555
C18 C14 1_555 1_555
C19 N3 1_555 1_555
H11 C19 1_555 1_555
N4 C20 1_555 1_555
C20 H12 1_555 1_555
C21 C20 1_555 1_555
H13 C21 1_555 1_555
C22 C21 1_555 1_555
C23 C22 1_555 1_555
H14 C23 1_555 1_555
C24 N4 1_555 1_555
H15 C24 1_555 1_555
N5 C25 1_555 1_555
C25 H16 1_555 1_555
C26 C25 1_555 1_555
H17 C26 1_555 1_555
C27 C26 1_555 1_555
C28 C27 1_555 1_555
H18 C28 1_555 1_555
C29 N5 1_555 1_555
H19 C29 1_555 1_555
C30 C22 1_555 1_555
C31 C30 1_555 1_555
C32 C27 1_555 1_555
C33 C32 1_555 1_555
N6 C34 1_555 1_555
C34 H20 1_555 1_555
C35 C31 1_555 1_555
C36 C35 1_555 1_555
H21 C36 1_555 1_555
C37 C33 1_555 1_555
C38 N6 1_555 1_555
H22 C38 1_555 1_555
N7 C39 1_555 1_555
C39 H23 1_555 1_555
C40 C39 1_555 1_555
H24 C40 1_555 1_555
C41 C40 1_555 1_555
C42 C41 1_555 1_555
H25 C42 1_555 1_555
C43 N7 1_555 1_555
H26 C43 1_555 1_555
N8 C44 1_555 1_555
C44 H27 1_555 1_555
C45 C44 1_555 1_555
H28 C45 1_555 1_555
C46 C45 1_555 1_555
C47 C46 1_555 1_555
H29 C47 1_555 1_555
C48 N8 1_555 1_555
H30 C48 1_555 1_555
C49 C41 1_555 1_555
C50 C49 1_555 1_555
C51 C46 1_555 1_555
C52 C51 1_555 1_555
N9 C53 1_555 1_555
C53 H31 1_555 1_555
C54 C50 1_555 1_555
C55 C54 1_555 1_555
H32 C55 1_555 1_555
C56 C52 1_555 1_555
C57 N9 1_555 1_555
H33 C57 1_555 1_555
Pd1 N2 1_555 1_555
Pd2 N5 1_555 1_555
Pd3 N1 1_555 1_555
B1 F2 1_555 1_555
F2 B1M 1_555 1_555
F3 B1 1_555 1_555
F4 B1 1_555 1_555
F5 B1 1_555 1_555
B2 F6 1_555 1_555
F6 B2F 1_555 1_555
F7 B2 1_555 1_555
F8 B2 1_555 1_555
F9 B2 1_555 1_555
N1Q C1Q 1_555 1_555
C1Q H1Q 1_555 1_555
C2Q C1Q 1_555 1_555
H2Q C2Q 1_555 1_555
C3Q C2Q 1_555 1_555
C4Q C3Q 1_555 1_555
H3Q C4Q 1_555 1_555
C5Q N1Q 1_555 1_555
H4Q C5Q 1_555 1_555
N2Q Pd1 1_555 1_555
C6Q N2Q 1_555 1_555
H5Q C6Q 1_555 1_555
C7Q C6Q 1_555 1_555
H6Q C7Q 1_555 1_555
C8Q C7Q 1_555 1_555
C9Q C8Q 1_555 1_555
H7Q C9Q 1_555 1_555
C10Q N2Q 1_555 1_555
H8Q C10Q 1_555 1_555
C11Q C3Q 1_555 1_555
C12Q C11Q 1_555 1_555
C13Q C8Q 1_555 1_555
C14Q C13Q 1_555 1_555
N3Q C15Q 1_555 1_555
C15Q H9Q 1_555 1_555
C16Q C12Q 1_555 1_555
C17Q C16Q 1_555 1_555
H10Q C17Q 1_555 1_555
C18Q C14Q 1_555 1_555
C19Q N3Q 1_555 1_555
H11Q C19Q 1_555 1_555
N4Q Pd1 1_555 1_555
C20Q N4Q 1_555 1_555
H12Q C20Q 1_555 1_555
C21Q C20Q 1_555 1_555
H13Q C21Q 1_555 1_555
C22Q C21Q 1_555 1_555
C23Q C22Q 1_555 1_555
H14Q C23Q 1_555 1_555
C24Q N4Q 1_555 1_555
H15Q C24Q 1_555 1_555
N5Q C25Q 1_555 1_555
C25Q H16Q 1_555 1_555
C26Q C25Q 1_555 1_555
H17Q C26Q 1_555 1_555
C27Q C26Q 1_555 1_555
C28Q C27Q 1_555 1_555
H18Q C28Q 1_555 1_555
C29Q N5Q 1_555 1_555
H19Q C29Q 1_555 1_555
C30Q C22Q 1_555 1_555
C31Q C30Q 1_555 1_555
C32Q C27Q 1_555 1_555
C33Q C32Q 1_555 1_555
N6Q C34Q 1_555 1_555
C34Q H20Q 1_555 1_555
C35Q C31Q 1_555 1_555
C36Q C35Q 1_555 1_555
H21Q C36Q 1_555 1_555
C37Q C33Q 1_555 1_555
C38Q N6Q 1_555 1_555
H22Q C38Q 1_555 1_555
N7Q C39Q 1_555 1_555
C39Q H23Q 1_555 1_555
C40Q C39Q 1_555 1_555
H24Q C40Q 1_555 1_555
C41Q C40Q 1_555 1_555
C42Q C41Q 1_555 1_555
H25Q C42Q 1_555 1_555
C43Q N7Q 1_555 1_555
H26Q C43Q 1_555 1_555
N8Q C44Q 1_555 1_555
C44Q H27Q 1_555 1_555
C45Q C44Q 1_555 1_555
H28Q C45Q 1_555 1_555
C46Q C45Q 1_555 1_555
C47Q C46Q 1_555 1_555
H29Q C47Q 1_555 1_555
C48Q N8Q 1_555 1_555
H30Q C48Q 1_555 1_555
C49Q C41Q 1_555 1_555
C50Q C49Q 1_555 1_555
C51Q C46Q 1_555 1_555
C52Q C51Q 1_555 1_555
N9Q C53Q 1_555 1_555
C53Q H31Q 1_555 1_555
C54Q C50Q 1_555 1_555
C55Q C54Q 1_555 1_555
H32Q C55Q 1_555 1_555
C56Q C52Q 1_555 1_555
C57Q N9Q 1_555 1_555
H33Q C57Q 1_555 1_555
Pd2B N5Q 1_555 1_555
Pd3C N1Q 1_555 1_555
N1R Pd3 1_555 1_555
C1R N1R 1_555 1_555
H1R C1R 1_555 1_555
C2R C1R 1_555 1_555
H2R C2R 1_555 1_555
C3R C2R 1_555 1_555
C4R C3R 1_555 1_555
H3R C4R 1_555 1_555
C5R N1R 1_555 1_555
H4R C5R 1_555 1_555
N2R C6R 1_555 1_555
C6R H5R 1_555 1_555
C7R C6R 1_555 1_555
H6R C7R 1_555 1_555
C8R C7R 1_555 1_555
C9R C8R 1_555 1_555
H7R C9R 1_555 1_555
C10R N2R 1_555 1_555
H8R C10R 1_555 1_555
C11R C3R 1_555 1_555
C12R C11R 1_555 1_555
C13R C8R 1_555 1_555
C14R C13R 1_555 1_555
N3R C15R 1_555 1_555
C15R H9R 1_555 1_555
C16R C12R 1_555 1_555
C17R C16R 1_555 1_555
H10R C17R 1_555 1_555
C18R C14R 1_555 1_555
C19R N3R 1_555 1_555
H11R C19R 1_555 1_555
N4R C20R 1_555 1_555
C20R H12R 1_555 1_555
C21R C20R 1_555 1_555
H13R C21R 1_555 1_555
C22R C21R 1_555 1_555
C23R C22R 1_555 1_555
H14R C23R 1_555 1_555
C24R N4R 1_555 1_555
H15R C24R 1_555 1_555
N5R C25R 1_555 1_555
C25R H16R 1_555 1_555
C26R C25R 1_555 1_555
H17R C26R 1_555 1_555
C27R C26R 1_555 1_555
C28R C27R 1_555 1_555
H18R C28R 1_555 1_555
C29R N5R 1_555 1_555
H19R C29R 1_555 1_555
C30R C22R 1_555 1_555
C31R C30R 1_555 1_555
C32R C27R 1_555 1_555
C33R C32R 1_555 1_555
N6R C34R 1_555 1_555
C34R H20R 1_555 1_555
C35R C31R 1_555 1_555
C36R C35R 1_555 1_555
H21R C36R 1_555 1_555
C37R C33R 1_555 1_555
C38R N6R 1_555 1_555
H22R C38R 1_555 1_555
N7R C39R 1_555 1_555
C39R H23R 1_555 1_555
C40R C39R 1_555 1_555
H24R C40R 1_555 1_555
C41R C40R 1_555 1_555
C42R C41R 1_555 1_555
H25R C42R 1_555 1_555
C43R N7R 1_555 1_555
H26R C43R 1_555 1_555
N8R Pd3 1_555 1_555
C44R N8R 1_555 1_555
H27R C44R 1_555 1_555
C45R C44R 1_555 1_555
H28R C45R 1_555 1_555
C46R C45R 1_555 1_555
C47R C46R 1_555 1_555
H29R C47R 1_555 1_555
C48R N8R 1_555 1_555
H30R C48R 1_555 1_555
C49R C41R 1_555 1_555
C50R C49R 1_555 1_555
C51R C46R 1_555 1_555
C52R C51R 1_555 1_555
N9R C53R 1_555 1_555
C53R H31R 1_555 1_555
C54R C50R 1_555 1_555
C55R C54R 1_555 1_555
H32R C55R 1_555 1_555
C56R C52R 1_555 1_555
C57R N9R 1_555 1_555
H33R C57R 1_555 1_555
Pd1C N2R 1_555 1_555
Pd2A N5R 1_555 1_555
N1S C1S 1_555 1_555
C1S H1S 1_555 1_555
C2S C1S 1_555 1_555
H2S C2S 1_555 1_555
C3S C2S 1_555 1_555
C4S C3S 1_555 1_555
H3S C4S 1_555 1_555
C5S N1S 1_555 1_555
H4S C5S 1_555 1_555
N2S C6S 1_555 1_555
C6S H5S 1_555 1_555
C7S C6S 1_555 1_555
H6S C7S 1_555 1_555
C8S C7S 1_555 1_555
C9S C8S 1_555 1_555
H7S C9S 1_555 1_555
C10S N2S 1_555 1_555
H8S C10S 1_555 1_555
C11S C3S 1_555 1_555
C12S C11S 1_555 1_555
C13S C8S 1_555 1_555
C14S C13S 1_555 1_555
N3S C15S 1_555 1_555
C15S H9S 1_555 1_555
C16S C12S 1_555 1_555
C17S C16S 1_555 1_555
H10S C17S 1_555 1_555
C18S C14S 1_555 1_555
C19S N3S 1_555 1_555
H11S C19S 1_555 1_555
N4S C20S 1_555 1_555
C20S H12S 1_555 1_555
C21S C20S 1_555 1_555
H13S C21S 1_555 1_555
C22S C21S 1_555 1_555
C23S C22S 1_555 1_555
H14S C23S 1_555 1_555
C24S N4S 1_555 1_555
H15S C24S 1_555 1_555
N5S Pd2 1_555 1_555
C25S N5S 1_555 1_555
H16S C25S 1_555 1_555
C26S C25S 1_555 1_555
H17S C26S 1_555 1_555
C27S C26S 1_555 1_555
C28S C27S 1_555 1_555
H18S C28S 1_555 1_555
C29S N5S 1_555 1_555
H19S C29S 1_555 1_555
C30S C22S 1_555 1_555
C31S C30S 1_555 1_555
C32S C27S 1_555 1_555
C33S C32S 1_555 1_555
N6S C34S 1_555 1_555
C34S H20S 1_555 1_555
C35S C31S 1_555 1_555
C36S C35S 1_555 1_555
H21S C36S 1_555 1_555
C37S C33S 1_555 1_555
C38S N6S 1_555 1_555
H22S C38S 1_555 1_555
N7S Pd2 1_555 1_555
C39S N7S 1_555 1_555
H23S C39S 1_555 1_555
C40S C39S 1_555 1_555
H24S C40S 1_555 1_555
C41S C40S 1_555 1_555
C42S C41S 1_555 1_555
H25S C42S 1_555 1_555
C43S N7S 1_555 1_555
H26S C43S 1_555 1_555
N8S C44S 1_555 1_555
C44S H27S 1_555 1_555
C45S C44S 1_555 1_555
H28S C45S 1_555 1_555
C46S C45S 1_555 1_555
C47S C46S 1_555 1_555
H29S C47S 1_555 1_555
C48S N8S 1_555 1_555
H30S C48S 1_555 1_555
C49S C41S 1_555 1_555
C50S C49S 1_555 1_555
C51S C46S 1_555 1_555
C52S C51S 1_555 1_555
N9S C53S 1_555 1_555
C53S H31S 1_555 1_555
C54S C50S 1_555 1_555
C55S C54S 1_555 1_555
H32S C55S 1_555 1_555
C56S C52S 1_555 1_555
C57S N9S 1_555 1_555
H33S C57S 1_555 1_555
Pd1B N2S 1_555 1_555
Pd3A N1S 1_555 1_555
N1A Pd3A 1_555 1_555
C1A N1A 1_555 1_555
H1A C1A 1_555 1_555
C2A C1A 1_555 1_555
H2A C2A 1_555 1_555
C3A C2A 1_555 1_555
C4A C3A 1_555 1_555
H3A C4A 1_555 1_555
C5A N1A 1_555 1_555
H4A C5A 1_555 1_555
N2A C6A 1_555 1_555
C6A H5A 1_555 1_555
C7A C6A 1_555 1_555
H6A C7A 1_555 1_555
C8A C7A 1_555 1_555
C9A C8A 1_555 1_555
H7A C9A 1_555 1_555
C10A N2A 1_555 1_555
H8A C10A 1_555 1_555
C11A C3A 1_555 1_555
C12A C11A 1_555 1_555
C13A C8A 1_555 1_555
C14A C13A 1_555 1_555
N3A C15A 1_555 1_555
C15A H9A 1_555 1_555
C16A C12A 1_555 1_555
C17A C16A 1_555 1_555
H10A C17A 1_555 1_555
C18A C14A 1_555 1_555
C19A N3A 1_555 1_555
H11A C19A 1_555 1_555
N4A C20A 1_555 1_555
C20A H12A 1_555 1_555
C21A C20A 1_555 1_555
H13A C21A 1_555 1_555
C22A C21A 1_555 1_555
C23A C22A 1_555 1_555
H14A C23A 1_555 1_555
C24A N4A 1_555 1_555
H15A C24A 1_555 1_555
N5A Pd2A 1_555 1_555
C25A N5A 1_555 1_555
H16A C25A 1_555 1_555
C26A C25A 1_555 1_555
H17A C26A 1_555 1_555
C27A C26A 1_555 1_555
C28A C27A 1_555 1_555
H18A C28A 1_555 1_555
C29A N5A 1_555 1_555
H19A C29A 1_555 1_555
C30A C22A 1_555 1_555
C31A C30A 1_555 1_555
C32A C27A 1_555 1_555
C33A C32A 1_555 1_555
N6A C34A 1_555 1_555
C34A H20A 1_555 1_555
C35A C31A 1_555 1_555
C36A C35A 1_555 1_555
H21A C36A 1_555 1_555
C37A C33A 1_555 1_555
C38A N6A 1_555 1_555
H22A C38A 1_555 1_555
N7A Pd2A 1_555 1_555
C39A N7A 1_555 1_555
H23A C39A 1_555 1_555
C40A C39A 1_555 1_555
H24A C40A 1_555 1_555
C41A C40A 1_555 1_555
C42A C41A 1_555 1_555
H25A C42A 1_555 1_555
C43A N7A 1_555 1_555
H26A C43A 1_555 1_555
N8A Pd3A 1_555 1_555
C44A N8A 1_555 1_555
H27A C44A 1_555 1_555
C45A C44A 1_555 1_555
H28A C45A 1_555 1_555
C46A C45A 1_555 1_555
C47A C46A 1_555 1_555
H29A C47A 1_555 1_555
C48A N8A 1_555 1_555
H30A C48A 1_555 1_555
C49A C41A 1_555 1_555
C50A C49A 1_555 1_555
C51A C46A 1_555 1_555
C52A C51A 1_555 1_555
N9A C53A 1_555 1_555
C53A H31A 1_555 1_555
C54A C50A 1_555 1_555
C55A C54A 1_555 1_555
H32A C55A 1_555 1_555
C56A C52A 1_555 1_555
C57A N9A 1_555 1_555
H33A C57A 1_555 1_555
Pd1A N2A 1_555 1_555
N1B C1B 1_555 1_555
C1B H1B 1_555 1_555
C2B C1B 1_555 1_555
H2B C2B 1_555 1_555
C3B C2B 1_555 1_555
C4B C3B 1_555 1_555
H3B C4B 1_555 1_555
C5B N1B 1_555 1_555
H4B C5B 1_555 1_555
N2B Pd1B 1_555 1_555
C6B N2B 1_555 1_555
H5B C6B 1_555 1_555
C7B C6B 1_555 1_555
H6B C7B 1_555 1_555
C8B C7B 1_555 1_555
C9B C8B 1_555 1_555
H7B C9B 1_555 1_555
C10B N2B 1_555 1_555
H8B C10B 1_555 1_555
C11B C3B 1_555 1_555
C12B C11B 1_555 1_555
C13B C8B 1_555 1_555
C14B C13B 1_555 1_555
N3B C15B 1_555 1_555
C15B H9B 1_555 1_555
C16B C12B 1_555 1_555
C17B C16B 1_555 1_555
H10B C17B 1_555 1_555
C18B C14B 1_555 1_555
C19B N3B 1_555 1_555
H11B C19B 1_555 1_555
N4B Pd1B 1_555 1_555
C20B N4B 1_555 1_555
H12B C20B 1_555 1_555
C21B C20B 1_555 1_555
H13B C21B 1_555 1_555
C22B C21B 1_555 1_555
C23B C22B 1_555 1_555
H14B C23B 1_555 1_555
C24B N4B 1_555 1_555
H15B C24B 1_555 1_555
N5B Pd2B 1_555 1_555
C25B N5B 1_555 1_555
H16B C25B 1_555 1_555
C26B C25B 1_555 1_555
H17B C26B 1_555 1_555
C27B C26B 1_555 1_555
C28B C27B 1_555 1_555
H18B C28B 1_555 1_555
C29B N5B 1_555 1_555
H19B C29B 1_555 1_555
C30B C22B 1_555 1_555
C31B C30B 1_555 1_555
C32B C27B 1_555 1_555
C33B C32B 1_555 1_555
N6B C34B 1_555 1_555
C34B H20B 1_555 1_555
C35B C31B 1_555 1_555
C36B C35B 1_555 1_555
H21B C36B 1_555 1_555
C37B C33B 1_555 1_555
C38B N6B 1_555 1_555
H22B C38B 1_555 1_555
N7B Pd2B 1_555 1_555
C39B N7B 1_555 1_555
H23B C39B 1_555 1_555
C40B C39B 1_555 1_555
H24B C40B 1_555 1_555
C41B C40B 1_555 1_555
C42B C41B 1_555 1_555
H25B C42B 1_555 1_555
C43B N7B 1_555 1_555
H26B C43B 1_555 1_555
N8B C44B 1_555 1_555
C44B H27B 1_555 1_555
C45B C44B 1_555 1_555
H28B C45B 1_555 1_555
C46B C45B 1_555 1_555
C47B C46B 1_555 1_555
H29B C47B 1_555 1_555
C48B N8B 1_555 1_555
H30B C48B 1_555 1_555
C49B C41B 1_555 1_555
C50B C49B 1_555 1_555
C51B C46B 1_555 1_555
C52B C51B 1_555 1_555
N9B C53B 1_555 1_555
C53B H31B 1_555 1_555
C54B C50B 1_555 1_555
C55B C54B 1_555 1_555
H32B C55B 1_555 1_555
C56B C52B 1_555 1_555
C57B N9B 1_555 1_555
H33B C57B 1_555 1_555
Pd3B N1B 1_555 1_555
N1C Pd3C 1_555 1_555
C1C N1C 1_555 1_555
H1C C1C 1_555 1_555
C2C C1C 1_555 1_555
H2C C2C 1_555 1_555
C3C C2C 1_555 1_555
C4C C3C 1_555 1_555
H3C C4C 1_555 1_555
C5C N1C 1_555 1_555
H4C C5C 1_555 1_555
N2C Pd1C 1_555 1_555
C6C N2C 1_555 1_555
H5C C6C 1_555 1_555
C7C C6C 1_555 1_555
H6C C7C 1_555 1_555
C8C C7C 1_555 1_555
C9C C8C 1_555 1_555
H7C C9C 1_555 1_555
C10C N2C 1_555 1_555
H8C C10C 1_555 1_555
C11C C3C 1_555 1_555
C12C C11C 1_555 1_555
C13C C8C 1_555 1_555
C14C C13C 1_555 1_555
N3C C15C 1_555 1_555
C15C H9C 1_555 1_555
C16C C12C 1_555 1_555
C17C C16C 1_555 1_555
H10C C17C 1_555 1_555
C18C C14C 1_555 1_555
C19C N3C 1_555 1_555
H11C C19C 1_555 1_555
N4C Pd1C 1_555 1_555
C20C N4C 1_555 1_555
H12C C20C 1_555 1_555
C21C C20C 1_555 1_555
H13C C21C 1_555 1_555
C22C C21C 1_555 1_555
C23C C22C 1_555 1_555
H14C C23C 1_555 1_555
C24C N4C 1_555 1_555
H15C C24C 1_555 1_555
N5C C25C 1_555 1_555
C25C H16C 1_555 1_555
C26C C25C 1_555 1_555
H17C C26C 1_555 1_555
C27C C26C 1_555 1_555
C28C C27C 1_555 1_555
H18C C28C 1_555 1_555
C29C N5C 1_555 1_555
H19C C29C 1_555 1_555
C30C C22C 1_555 1_555
C31C C30C 1_555 1_555
C32C C27C 1_555 1_555
C33C C32C 1_555 1_555
N6C C34C 1_555 1_555
C34C H20C 1_555 1_555
C35C C31C 1_555 1_555
C36C C35C 1_555 1_555
H21C C36C 1_555 1_555
C37C C33C 1_555 1_555
C38C N6C 1_555 1_555
H22C C38C 1_555 1_555
N7C C39C 1_555 1_555
C39C H23C 1_555 1_555
C40C C39C 1_555 1_555
H24C C40C 1_555 1_555
C41C C40C 1_555 1_555
C42C C41C 1_555 1_555
H25C C42C 1_555 1_555
C43C N7C 1_555 1_555
H26C C43C 1_555 1_555
N8C Pd3C 1_555 1_555
C44C N8C 1_555 1_555
H27C C44C 1_555 1_555
C45C C44C 1_555 1_555
H28C C45C 1_555 1_555
C46C C45C 1_555 1_555
C47C C46C 1_555 1_555
H29C C47C 1_555 1_555
C48C N8C 1_555 1_555
H30C C48C 1_555 1_555
C49C C41C 1_555 1_555
C50C C49C 1_555 1_555
C51C C46C 1_555 1_555
C52C C51C 1_555 1_555
N9C C53C 1_555 1_555
C53C H31C 1_555 1_555
C54C C50C 1_555 1_555
C55C C54C 1_555 1_555
H32C C55C 1_555 1_555
C56C C52C 1_555 1_555
C57C N9C 1_555 1_555
H33C C57C 1_555 1_555
Pd2C N5C 1_555 1_555
N1P Pd3B 1_555 1_555
C1P N1P 1_555 1_555
H1P C1P 1_555 1_555
C2P C1P 1_555 1_555
H2P C2P 1_555 1_555
C3P C2P 1_555 1_555
C4P C3P 1_555 1_555
H3P C4P 1_555 1_555
C5P N1P 1_555 1_555
H4P C5P 1_555 1_555
N2P Pd1A 1_555 1_555
C6P N2P 1_555 1_555
H5P C6P 1_555 1_555
C7P C6P 1_555 1_555
H6P C7P 1_555 1_555
C8P C7P 1_555 1_555
C9P C8P 1_555 1_555
H7P C9P 1_555 1_555
C10P N2P 1_555 1_555
H8P C10P 1_555 1_555
C11P C3P 1_555 1_555
C12P C11P 1_555 1_555
C13P C8P 1_555 1_555
C14P C13P 1_555 1_555
N3P C15P 1_555 1_555
C15P H9P 1_555 1_555
C16P C12P 1_555 1_555
C17P C16P 1_555 1_555
H10P C17P 1_555 1_555
C18P C14P 1_555 1_555
C19P N3P 1_555 1_555
H11P C19P 1_555 1_555
N4P Pd1A 1_555 1_555
C20P N4P 1_555 1_555
H12P C20P 1_555 1_555
C21P C20P 1_555 1_555
H13P C21P 1_555 1_555
C22P C21P 1_555 1_555
C23P C22P 1_555 1_555
H14P C23P 1_555 1_555
C24P N4P 1_555 1_555
H15P C24P 1_555 1_555
N5P Pd2C 1_555 1_555
C25P N5P 1_555 1_555
H16P C25P 1_555 1_555
C26P C25P 1_555 1_555
H17P C26P 1_555 1_555
C27P C26P 1_555 1_555
C28P C27P 1_555 1_555
H18P C28P 1_555 1_555
C29P N5P 1_555 1_555
H19P C29P 1_555 1_555
C30P C22P 1_555 1_555
C31P C30P 1_555 1_555
C32P C27P 1_555 1_555
C33P C32P 1_555 1_555
N6P C34P 1_555 1_555
C34P H20P 1_555 1_555
C35P C31P 1_555 1_555
C36P C35P 1_555 1_555
H21P C36P 1_555 1_555
C37P C33P 1_555 1_555
C38P N6P 1_555 1_555
H22P C38P 1_555 1_555
N7P Pd2C 1_555 1_555
C39P N7P 1_555 1_555
H23P C39P 1_555 1_555
C40P C39P 1_555 1_555
H24P C40P 1_555 1_555
C41P C40P 1_555 1_555
C42P C41P 1_555 1_555
H25P C42P 1_555 1_555
C43P N7P 1_555 1_555
H26P C43P 1_555 1_555
N8P Pd3B 1_555 1_555
C44P N8P 1_555 1_555
H27P C44P 1_555 1_555
C45P C44P 1_555 1_555
H28P C45P 1_555 1_555
C46P C45P 1_555 1_555
C47P C46P 1_555 1_555
H29P C47P 1_555 1_555
C48P N8P 1_555 1_555
H30P C48P 1_555 1_555
C49P C41P 1_555 1_555
C50P C49P 1_555 1_555
C51P C46P 1_555 1_555
C52P C51P 1_555 1_555
N9P C53P 1_555 1_555
C53P H31P 1_555 1_555
C54P C50P 1_555 1_555
C55P C54P 1_555 1_555
H32P C55P 1_555 1_555
C56P C52P 1_555 1_555
C57P N9P 1_555 1_555
H33P C57P 1_555 1_555
B1M B1 1_555 1_555
F2M B1 1_555 1_555
F3M B1 1_555 1_555
F4M B1M 1_555 1_555
F5M B1 1_555 1_555
B1Q F2 1_555 1_555
F2Q B1 1_555 1_555
F3Q B1 1_555 1_555
F4Q B1 1_555 1_555
F5Q B1 1_555 1_555
B1BA B1 1_555 1_555
F2BA B1 1_555 1_555
F3BA B1M 1_555 1_555
F4BA B1M 1_555 1_555
F5BA B1 1_555 1_555
B2F F7 1_555 1_555
F6F B2 1_555 1_555
F7F B2 1_555 1_555
F8F B2 1_555 1_555
F9F B2 1_555 1_555
B2R B2 1_555 1_555
F6R B2 1_555 1_555
F7R B2 1_555 1_555
F8R F6 1_555 1_555
F9R B2 1_555 1_555
B2T B2 1_555 1_555
F6T B2 1_555 1_555
F7T B2 1_555 1_555
F8T F6F 1_555 1_555
F9T B2 1_555 1_555
C4 C5 1_555 1_555
C9 C10 1_555 1_555
C15 C16 1_555 1_555
C17 C18 1_555 1_555
C18 C19 1_555 1_555
N4 Pd1 1_555 1_555
C23 C24 1_555 1_555
C28 C29 1_555 1_555
C34 C35 1_555 1_555
C36 C37 1_555 1_555
C37 C38 1_555 1_555
N7 Pd2 1_555 1_555
C42 C43 1_555 1_555
N8 Pd3 1_555 1_555
C47 C48 1_555 1_555
C53 C54 1_555 1_555
C55 C56 1_555 1_555
C56 C57 1_555 1_555
F2 B1BA 1_555 1_555
F2 F5BA 1_555 1_555
F3 B1M 1_555 1_555
F3 B1Q 1_555 1_555
F3 F4Q 1_555 1_555
F4 B1Q 1_555 1_555
F4 F3Q 1_555 1_555
F4 F4Q 1_555 1_555
F5 B1M 1_555 1_555
F5 B1Q 1_555 1_555
F5 B1BA 1_555 1_555
F5 F2BA 1_555 1_555
F6 F7F 1_555 1_555
F6 B2R 1_555 1_555
F6 F6R 1_555 1_555
F6 B2T 1_555 1_555
F6 F7T 1_555 1_555
F6 F9T 1_555 1_555
F7 F6F 1_555 1_555
F7 B2R 1_555 1_555
F7 B2T 1_555 1_555
F7 F6T 1_555 1_555
F8 B2F 1_555 1_555
F8 F8F 1_555 1_555
F8 F9F 1_555 1_555
F8 F6R 1_555 1_555
F9 B2F 1_555 1_555
F9 F8F 1_555 1_555
F9 B2R 1_555 1_555
F9 F9R 1_555 1_555
F9 B2T 1_555 1_555
F9 F6T 1_555 1_555
C4Q C5Q 1_555 1_555
C9Q C10Q 1_555 1_555
C15Q C16Q 1_555 1_555
C17Q C18Q 1_555 1_555
C18Q C19Q 1_555 1_555
C23Q C24Q 1_555 1_555
C28Q C29Q 1_555 1_555
C34Q C35Q 1_555 1_555
C36Q C37Q 1_555 1_555
C37Q C38Q 1_555 1_555
N7Q Pd2B 1_555 1_555
C42Q C43Q 1_555 1_555
N8Q Pd3C 1_555 1_555
C47Q C48Q 1_555 1_555
C53Q C54Q 1_555 1_555
C55Q C56Q 1_555 1_555
C56Q C57Q 1_555 1_555
C4R C5R 1_555 1_555
C9R C10R 1_555 1_555
C15R C16R 1_555 1_555
C17R C18R 1_555 1_555
C18R C19R 1_555 1_555
N4R Pd1C 1_555 1_555
C23R C24R 1_555 1_555
C28R C29R 1_555 1_555
C34R C35R 1_555 1_555
C36R C37R 1_555 1_555
C37R C38R 1_555 1_555
N7R Pd2A 1_555 1_555
C42R C43R 1_555 1_555
C47R C48R 1_555 1_555
C53R C54R 1_555 1_555
C55R C56R 1_555 1_555
C56R C57R 1_555 1_555
C4S C5S 1_555 1_555
C9S C10S 1_555 1_555
C15S C16S 1_555 1_555
C17S C18S 1_555 1_555
C18S C19S 1_555 1_555
N4S Pd1B 1_555 1_555
C23S C24S 1_555 1_555
C28S C29S 1_555 1_555
C34S C35S 1_555 1_555
C36S C37S 1_555 1_555
C37S C38S 1_555 1_555
C42S C43S 1_555 1_555
N8S Pd3A 1_555 1_555
C47S C48S 1_555 1_555
C53S C54S 1_555 1_555
C55S C56S 1_555 1_555
C56S C57S 1_555 1_555
C4A C5A 1_555 1_555
C9A C10A 1_555 1_555
C15A C16A 1_555 1_555
C17A C18A 1_555 1_555
C18A C19A 1_555 1_555
N4A Pd1A 1_555 1_555
C23A C24A 1_555 1_555
C28A C29A 1_555 1_555
C34A C35A 1_555 1_555
C36A C37A 1_555 1_555
C37A C38A 1_555 1_555
C42A C43A 1_555 1_555
C47A C48A 1_555 1_555
C53A C54A 1_555 1_555
C55A C56A 1_555 1_555
C56A C57A 1_555 1_555
C4B C5B 1_555 1_555
C9B C10B 1_555 1_555
C15B C16B 1_555 1_555
C17B C18B 1_555 1_555
C18B C19B 1_555 1_555
C23B C24B 1_555 1_555
C28B C29B 1_555 1_555
C34B C35B 1_555 1_555
C36B C37B 1_555 1_555
C37B C38B 1_555 1_555
C42B C43B 1_555 1_555
N8B Pd3B 1_555 1_555
C47B C48B 1_555 1_555
C53B C54B 1_555 1_555
C55B C56B 1_555 1_555
C56B C57B 1_555 1_555
C4C C5C 1_555 1_555
C9C C10C 1_555 1_555
C15C C16C 1_555 1_555
C17C C18C 1_555 1_555
C18C C19C 1_555 1_555
C23C C24C 1_555 1_555
C28C C29C 1_555 1_555
C34C C35C 1_555 1_555
C36C C37C 1_555 1_555
C37C C38C 1_555 1_555
N7C Pd2C 1_555 1_555
C42C C43C 1_555 1_555
C47C C48C 1_555 1_555
C53C C54C 1_555 1_555
C55C C56C 1_555 1_555
C56C C57C 1_555 1_555
C4P C5P 1_555 1_555
C9P C10P 1_555 1_555
C15P C16P 1_555 1_555
C17P C18P 1_555 1_555
C18P C19P 1_555 1_555
C23P C24P 1_555 1_555
C28P C29P 1_555 1_555
C34P C35P 1_555 1_555
C36P C37P 1_555 1_555
C37P C38P 1_555 1_555
C42P C43P 1_555 1_555
C47P C48P 1_555 1_555
C53P C54P 1_555 1_555
C55P C56P 1_555 1_555
C56P C57P 1_555 1_555
B1M F2M 1_555 1_555
B1M F3M 1_555 1_555
B1M F5M 1_555 1_555
B1M B1Q 1_555 1_555
B1M F2Q 1_555 1_555
B1M F5Q 1_555 1_555
B1M F2BA 1_555 1_555
B1M F5BA 1_555 1_555
F2M B1Q 1_555 1_555
F2M F5Q 1_555 1_555
F2M B1BA 1_555 1_555
F3M B1BA 1_555 1_555
F3M F4BA 1_555 1_555
F4M B1BA 1_555 1_555
F4M F3BA 1_555 1_555
F4M F4BA 1_555 1_555
F5M B1Q 1_555 1_555
F5M F2Q 1_555 1_555
F5M B1BA 1_555 1_555
B1Q F2Q 1_555 1_555
B1Q F3Q 1_555 1_555
B1Q F4Q 1_555 1_555
B1Q F5Q 1_555 1_555
B1Q B1BA 1_555 1_555
B1Q F2BA 1_555 1_555
B1Q F3BA 1_555 1_555
B1Q F5BA 1_555 1_555
F2Q B1BA 1_555 1_555
F3Q B1BA 1_555 1_555
F5Q B1BA 1_555 1_555
B1BA F2BA 1_555 1_555
B1BA F3BA 1_555 1_555
B1BA F4BA 1_555 1_555
B1BA F5BA 1_555 1_555
B2F F6F 1_555 1_555
B2F F7F 1_555 1_555
B2F F8F 1_555 1_555
B2F F9F 1_555 1_555
B2F B2R 1_555 1_555
B2F F6R 1_555 1_555
B2F F7R 1_555 1_555
B2F F9R 1_555 1_555
B2F B2T 1_555 1_555
B2F F6T 1_555 1_555
B2F F7T 1_555 1_555
B2F F9T 1_555 1_555
F6F B2R 1_555 1_555
F6F F7R 1_555 1_555
F6F F9R 1_555 1_555
F6F B2T 1_555 1_555
F6F F6T 1_555 1_555
F7F B2R 1_555 1_555
F7F F6R 1_555 1_555
F7F B2T 1_555 1_555
F8F F6T 1_555 1_555
F9F B2R 1_555 1_555
F9F F6R 1_555 1_555
F9F B2T 1_555 1_555
F9F F9T 1_555 1_555
B2R F6R 1_555 1_555
B2R F7R 1_555 1_555
B2R F8R 1_555 1_555
B2R F9R 1_555 1_555
B2R F6T 1_555 1_555
B2R F7T 1_555 1_555
B2R F8T 1_555 1_555
B2R F9T 1_555 1_555
F6R B2T 1_555 1_555
F6R F7T 1_555 1_555
F7R B2T 1_555 1_555
F7R F6T 1_555 1_555
F8R B2T 1_555 1_555
F8R F8T 1_555 1_555
F8R F9T 1_555 1_555
F9R B2T 1_555 1_555
F9R F8T 1_555 1_555
B2T F6T 1_555 1_555
B2T F7T 1_555 1_555
B2T F8T 1_555 1_555
B2T F9T 1_555 1_555

#END
