
#######################################################################
#
#                 Cambridge Crystallographic Data Centre
#                                CCDC 
#
#######################################################################
#
# If this CIF has been generated from an entry in the Cambridge 
# Structural Database, then it will include bibliographic, chemical, 
# crystal, experimental, refinement or atomic coordinate data resulting 
# from the CCDC's data processing and validation procedures.
#
#######################################################################

data_DOBROD
_chemical_formula_moiety         'C456 H264 N72 Pd12 23+,23(B1 F4 1-),19.2(Ag1)'
_chemical_name_systematic        
'tetracosakis(\m~2~-2,6-bis(2-(4-Pyridyl)ethynyl)pyridine)-dodeca-palladium nonadeca-silver tricosakis(tetrafluoroborate)'
_symmetry_cell_setting           monoclinic
_symmetry_space_group_name_H-M   'C 2/m'
_symmetry_Int_Tables_number      12
_space_group_name_Hall           '-C 2y'
loop_
_symmetry_equiv_pos_site_id
_symmetry_equiv_pos_as_xyz
1 x,y,z
2 -x,y,-z
3 1/2+x,1/2+y,z
4 1/2-x,1/2+y,-z
5 -x,-y,-z
6 x,-y,z
7 1/2-x,1/2-y,-z
8 1/2+x,1/2-y,z
_cell_length_a                   61.066(12)
_cell_length_b                   61.073(12)
_cell_length_c                   43.152(9)
_cell_angle_alpha                90
_cell_angle_beta                 135.02(3)
_cell_angle_gamma                90
_cell_volume                     113758
_exptl_crystal_colour            colorless
_exptl_crystal_description       cubic
_cell_formula_units_Z            2
loop_
_atom_site_label
_atom_site_type_symbol
_atom_site_fract_x
_atom_site_fract_y
_atom_site_fract_z
N1 N 0.2921(4) 0.2179(3) 0.4542(5)
C1 C 0.3025(4) 0.2093(2) 0.4366(7)
H1 H 0.3128 0.1959 0.4466
C2 C 0.2974(5) 0.2206(4) 0.4041(7)
H2 H 0.3044 0.2149 0.3924
C3 C 0.2820(5) 0.2406(3) 0.3892(5)
C4 C 0.2716(4) 0.2492(2) 0.4067(7)
H3 H 0.2613 0.2626 0.3967
C5 C 0.2767(4) 0.2378(3) 0.4392(6)
H4 H 0.2697 0.2436 0.4510
N2 N 0.2916(4) 0.2177(3) 0.1298(7)
C6 C 0.3024(4) 0.2095(2) 0.1687(7)
H5 H 0.3130 0.1962 0.1798
C7 C 0.2974(4) 0.2211(4) 0.1909(5)
H6 H 0.3046 0.2156 0.2169
C8 C 0.2815(5) 0.2409(3) 0.1742(7)
C9 C 0.2706(4) 0.2491(2) 0.1353(8)
H7 H 0.2600 0.2623 0.1242
C10 C 0.2757(4) 0.2375(3) 0.1131(5)
H8 H 0.2684 0.2430 0.0871
C11 C 0.2776(8) 0.2506(5) 0.3556(9)
C12 C 0.2732(8) 0.2598(5) 0.3267(9)
C13 C 0.2775(8) 0.2482(4) 0.2009(10)
C14 C 0.2742(8) 0.2622(4) 0.2174(11)
N3 N 0.2707(4) 0.2611(3) 0.2730(9)
C15 C 0.2603(6) 0.2722(4) 0.2888(6)
C16 C 0.2430(6) 0.2913(4) 0.2683(9)
H9 H 0.2361 0.2987 0.2789
C17 C 0.2360(5) 0.2992(3) 0.2319(8)
H10 H 0.2244 0.3120 0.2182
C18 C 0.2463(6) 0.2881(5) 0.2161(6)
H11 H 0.2416 0.2935 0.1918
C19 C 0.2636(6) 0.2691(4) 0.2366(9)
N4 N 0.2579(4) 0.1857(3) 0.0630(7)
C20 C 0.2590(4) 0.1665(3) 0.0816(5)
H12 H 0.2778 0.1615 0.1081
C21 C 0.2320(6) 0.1549(3) 0.0605(8)
H13 H 0.2327 0.1421 0.0729
C22 C 0.2038(4) 0.1624(3) 0.0209(8)
C23 C 0.2027(4) 0.1816(4) 0.0023(6)
H14 H 0.1838 0.1866 -0.0242
C24 C 0.2297(6) 0.1932(2) 0.0234(7)
H15 H 0.2289 0.2060 0.0110
N5 N 0.0962(5) 0.0235(2) 0.0625(7)
C25 C 0.1247(4) 0.0310(3) 0.0806(5)
H16 H 0.1429 0.0248 0.1063
C26 C 0.1261(4) 0.0478(3) 0.0603(8)
H17 H 0.1452 0.0528 0.0724
C27 C 0.0989(6) 0.0570(3) 0.0218(8)
C28 C 0.0704(4) 0.0495(3) 0.0037(6)
H18 H 0.0522 0.0557 -0.0221
C29 C 0.0690(4) 0.0327(3) 0.0240(7)
H19 H 0.0499 0.0277 0.0119
C30 C 0.1788(7) 0.1503(6) 0.0013(12)
C31 C 0.1545(8) 0.1404(6) -0.0201(13)
C32 C 0.1010(10) 0.0748(7) 0.0009(14)
C33 C 0.0979(12) 0.0871(7) -0.0241(16)
N6 N 0.1249(5) 0.1141(5) -0.0189(7)
C34 C 0.1261(5) 0.1311(5) -0.0392(10)
C35 C 0.0991(7) 0.1381(4) -0.0806(10)
H20 H 0.0999 0.1495 -0.0942
C36 C 0.0710(5) 0.1282(5) -0.1019(8)
H21 H 0.0529 0.1329 -0.1296
C37 C 0.0698(5) 0.1112(5) -0.0816(10)
H22 H 0.0510 0.1046 -0.0959
C38 C 0.0968(7) 0.1041(4) -0.0402(10)
N7 N 0.0972(6) 0.0233(2) 0.1304(7)
C39 C 0.1253(4) 0.0311(3) 0.1697(7)
H23 H 0.1439 0.0254 0.1807
C40 C 0.1258(4) 0.0474(4) 0.1925(5)
H24 H 0.1446 0.0527 0.2188
C41 C 0.0981(6) 0.0559(3) 0.1761(7)
C42 C 0.0700(4) 0.0481(3) 0.1368(8)
H25 H 0.0515 0.0537 0.1258
C43 C 0.0696(4) 0.0317(3) 0.1140(5)
H26 H 0.0508 0.0265 0.0877
N8 N 0.2583(4) 0.1851(3) 0.4526(5)
C44 C 0.2587(4) 0.1658(4) 0.4360(7)
H27 H 0.2773 0.1603 0.4469
C45 C 0.2312(6) 0.1545(3) 0.4031(7)
H28 H 0.2314 0.1416 0.3920
C46 C 0.2034(4) 0.1626(4) 0.3868(6)
C47 C 0.2030(4) 0.1820(4) 0.4034(7)
H29 H 0.1844 0.1874 0.3925
C48 C 0.2305(6) 0.1932(2) 0.4363(7)
H30 H 0.2303 0.2062 0.4474
C49 C 0.0993(8) 0.0737(6) 0.1993(12)
C50 C 0.0994(9) 0.0859(6) 0.2217(13)
C51 C 0.1783(8) 0.1504(5) 0.3561(13)
C52 C 0.1543(8) 0.1403(6) 0.3284(13)
N9 N 0.1247(5) 0.1147(5) 0.2695(11)
C53 C 0.0966(8) 0.1053(4) 0.2330(10)
C54 C 0.0693(5) 0.1126(5) 0.2192(9)
H31 H 0.0505 0.1063 0.1948
C55 C 0.0700(5) 0.1293(5) 0.2418(12)
H32 H 0.0517 0.1342 0.2326
C56 C 0.0981(8) 0.1387(4) 0.2783(11)
H33 H 0.0986 0.1499 0.2934
C57 C 0.1255(5) 0.1314(5) 0.2921(8)
N10 N 0.3388(4) 0.2177(3) 0.1311(7)
C58 C 0.3668(5) 0.2097(3) 0.1704(7)
H34 H 0.3672 0.1968 0.1822
C59 C 0.3941(4) 0.2210(4) 0.1920(5)
H35 H 0.4128 0.2156 0.2183
C60 C 0.3935(4) 0.2403(3) 0.1743(7)
C61 C 0.3655(6) 0.2483(3) 0.1350(8)
H36 H 0.3651 0.2612 0.1232
C62 C 0.3382(4) 0.2370(3) 0.1134(5)
H37 H 0.3195 0.2423 0.0872
N11 N 0.6613(4) 0.2179(3) 0.4537(5)
C63 C 0.6333(6) 0.2095(2) 0.4364(7)
H38 H 0.6330 0.1964 0.4470
C64 C 0.6059(4) 0.2207(4) 0.4033(7)
H39 H 0.5872 0.2151 0.3917
C65 C 0.6063(4) 0.2403(3) 0.3875(6)
C66 C 0.6343(6) 0.2488(3) 0.4048(7)
H40 H 0.6346 0.2619 0.3942
C67 C 0.6617(4) 0.2376(4) 0.4379(7)
H41 H 0.6804 0.2432 0.4494
C68 C 0.4241(7) 0.2495(5) 0.1994(12)
C69 C 0.4461(7) 0.2613(6) 0.2170(12)
C70 C 0.5746(8) 0.2501(5) 0.3505(13)
C71 C 0.5521(8) 0.2616(6) 0.3245(14)
N12 N 0.4997(7) 0.2594(3) 0.2684(10)
C72 C 0.4717(5) 0.2688(5) 0.2317(10)
C73 C 0.4714(5) 0.2886(5) 0.2154(9)
H42 H 0.4526 0.2949 0.1909
C74 C 0.4991(7) 0.2989(4) 0.2358(11)
H43 H 0.4989 0.3122 0.2250
C75 C 0.5271(5) 0.2895(5) 0.2725(11)
H44 H 0.5457 0.2965 0.2862
C76 C 0.5274(5) 0.2698(5) 0.2888(8)
N13 N 0.3049(4) 0.1851(3) 0.0622(6)
C77 C 0.3213(4) 0.1655(3) 0.0794(5)
H45 H 0.3284 0.1600 0.1052
C78 C 0.3271(4) 0.1543(2) 0.0578(7)
H46 H 0.3381 0.1411 0.0693
C79 C 0.3165(5) 0.1625(3) 0.0191(7)
C80 C 0.3001(4) 0.1821(3) 0.0020(5)
H47 H 0.2930 0.1877 -0.0238
C81 C 0.2943(3) 0.1934(2) 0.0236(7)
H48 H 0.2834 0.2065 0.0121
N14 N 0.4668(3) 0.0231(2) 0.0638(8)
C82 C 0.4557(5) 0.0313(3) 0.0808(6)
H49 H 0.4631 0.0257 0.1067
C83 C 0.4337(5) 0.0479(3) 0.0589(9)
H50 H 0.4264 0.0534 0.0702
C84 C 0.4228(4) 0.0564(3) 0.0201(8)
C85 C 0.4338(5) 0.0482(4) 0.0031(6)
H51 H 0.4264 0.0538 -0.0228
C86 C 0.4558(5) 0.0316(4) 0.0250(8)
H52 H 0.4632 0.0261 0.0137
C87 C 0.3238(9) 0.1504(6) -0.0002(12)
C88 C 0.3231(9) 0.1412(7) -0.0258(13)
C89 C 0.3978(9) 0.0762(7) -0.0015(13)
C90 C 0.3739(11) 0.0868(8) -0.0264(16)
N15 N 0.3545(7) 0.1146(5) -0.0207(8)
C91 C 0.3356(7) 0.1330(5) -0.0384(10)
C92 C 0.3238(6) 0.1420(4) -0.0773(10)
H53 H 0.3111 0.1543 -0.0891
C93 C 0.3310(7) 0.1326(5) -0.0986(8)
H54 H 0.3231 0.1387 -0.1246
C94 C 0.3499(7) 0.1143(5) -0.0810(10)
H55 H 0.3547 0.1080 -0.0952
C95 C 0.3617(6) 0.1052(4) -0.0420(10)
N16 N 0.5334(3) 0.0233(2) 0.1320(8)
C96 C 0.5449(5) 0.0328(4) 0.1704(8)
H56 H 0.5379 0.0281 0.1825
C97 C 0.5670(5) 0.0493(4) 0.1906(5)
H57 H 0.5746 0.0557 0.2163
C98 C 0.5775(4) 0.0564(3) 0.1725(9)
C99 C 0.5661(6) 0.0469(4) 0.1340(9)
H58 H 0.5731 0.0516 0.1219
C100 C 0.5440(5) 0.0303(3) 0.1138(6)
H59 H 0.5363 0.0240 0.0881
N17 N 0.6950(4) 0.1847(4) 0.4533(5)
C101 C 0.6781(4) 0.1653(4) 0.4363(7)
H60 H 0.6707 0.1595 0.4473
C102 C 0.6724(4) 0.1546(3) 0.4028(8)
H61 H 0.6612 0.1416 0.3914
C103 C 0.6836(5) 0.1632(4) 0.3863(6)
C104 C 0.7004(5) 0.1826(4) 0.4034(8)
H62 H 0.7079 0.1884 0.3923
C105 C 0.7061(4) 0.1934(2) 0.4369(8)
H63 H 0.7174 0.2063 0.4483
C106 C 0.6019(8) 0.0740(6) 0.2008(12)
C107 C 0.6237(9) 0.0866(6) 0.2237(14)
C108 C 0.6779(9) 0.1497(6) 0.3555(13)
C109 C 0.6742(10) 0.1416(7) 0.3264(13)
N18 N 0.6455(7) 0.1145(5) 0.2709(11)
C110 C 0.6382(6) 0.1049(4) 0.2353(10)
C111 C 0.6505(8) 0.1134(5) 0.2204(9)
H64 H 0.6457 0.1070 0.1966
C112 C 0.6700(7) 0.1315(5) 0.2409(11)
H65 H 0.6782 0.1372 0.2309
C113 C 0.6772(6) 0.1411(4) 0.2765(11)
H66 H 0.6903 0.1532 0.2902
C114 C 0.6650(7) 0.1326(5) 0.2914(9)
Pd1 Pd 0.29814(4) 0.20184(3) 0.49996(7)
Pd2 Pd 0.29817(4) 0.20183(3) 0.09634(7)
Pd3 Pd 0.09635(5) 0.0000 0.09644(10)
Pd4 Pd 0.50001(7) 0.0000 0.09628(10)
N1A N 0.7079(4) 0.2179(3) 0.5458(5)
C1A C 0.6975(4) 0.2093(2) 0.5634(7)
H1A H 0.6872 0.1959 0.5534
C2A C 0.7026(5) 0.2206(4) 0.5959(7)
H2A H 0.6956 0.2149 0.6076
C3A C 0.7180(5) 0.2406(3) 0.6108(5)
C4A C 0.7284(4) 0.2492(2) 0.5933(7)
H3A H 0.7387 0.2626 0.6033
C5A C 0.7233(4) 0.2378(3) 0.5608(6)
H4A H 0.7303 0.2436 0.5490
N2A N 0.7084(4) 0.2177(3) 0.8702(7)
C6A C 0.6976(4) 0.2095(2) 0.8313(7)
H5A H 0.6870 0.1962 0.8202
C7A C 0.7026(4) 0.2211(4) 0.8091(5)
H6A H 0.6954 0.2156 0.7831
C8A C 0.7185(5) 0.2409(3) 0.8258(7)
C9A C 0.7294(4) 0.2491(2) 0.8647(8)
H7A H 0.7400 0.2623 0.8758
C10A C 0.7243(4) 0.2375(3) 0.8869(5)
H8A H 0.7316 0.2430 0.9129
C11A C 0.7224(8) 0.2506(5) 0.6444(9)
C12A C 0.7268(8) 0.2598(5) 0.6733(9)
C13A C 0.7225(8) 0.2482(4) 0.7991(10)
C14A C 0.7258(8) 0.2622(4) 0.7826(11)
N3A N 0.7293(4) 0.2611(3) 0.7270(9)
C15A C 0.7397(6) 0.2722(4) 0.7112(6)
C16A C 0.7570(6) 0.2913(4) 0.7317(9)
H9A H 0.7639 0.2987 0.7211
C17A C 0.7640(5) 0.2992(3) 0.7681(8)
H10A H 0.7756 0.3120 0.7818
C18A C 0.7537(6) 0.2881(5) 0.7839(6)
H11A H 0.7584 0.2935 0.8082
C19A C 0.7364(6) 0.2691(4) 0.7634(9)
N4A N 0.7421(4) 0.1857(3) 0.9370(7)
C20A C 0.7410(4) 0.1665(3) 0.9184(5)
H12A H 0.7222 0.1615 0.8919
C21A C 0.7680(6) 0.1549(3) 0.9395(8)
H13A H 0.7673 0.1421 0.9271
C22A C 0.7962(4) 0.1624(3) 0.9791(8)
C23A C 0.7973(4) 0.1816(4) 0.9977(6)
H14A H 0.8162 0.1866 1.0242
C24A C 0.7703(6) 0.1932(2) 0.9766(7)
H15A H 0.7711 0.2060 0.9890
N5A N 0.9038(5) 0.0235(2) 0.9375(7)
C25A C 0.8753(4) 0.0310(3) 0.9194(5)
H16A H 0.8571 0.0248 0.8937
C26A C 0.8739(4) 0.0478(3) 0.9397(8)
H17A H 0.8548 0.0528 0.9276
C27A C 0.9011(6) 0.0570(3) 0.9782(8)
C28A C 0.9296(4) 0.0495(3) 0.9963(6)
H18A H 0.9478 0.0557 1.0221
C29A C 0.9310(4) 0.0327(3) 0.9760(7)
H19A H 0.9501 0.0277 0.9881
C30A C 0.8212(7) 0.1503(6) 0.9987(12)
C31A C 0.8455(8) 0.1404(6) 1.0201(13)
C32A C 0.8990(10) 0.0748(7) 0.9991(14)
C33A C 0.9021(12) 0.0871(7) 1.0241(16)
N6A N 0.8751(5) 0.1141(5) 1.0189(7)
C34A C 0.8739(5) 0.1311(5) 1.0392(10)
C35A C 0.9009(7) 0.1381(4) 1.0806(10)
H20A H 0.9001 0.1495 1.0942
C36A C 0.9290(5) 0.1282(5) 1.1019(8)
H21A H 0.9471 0.1329 1.1296
C37A C 0.9302(5) 0.1112(5) 1.0816(10)
H22A H 0.9490 0.1046 1.0959
C38A C 0.9032(7) 0.1041(4) 1.0402(10)
N7A N 0.9028(6) 0.0233(2) 0.8696(7)
C39A C 0.8747(4) 0.0311(3) 0.8303(7)
H23A H 0.8561 0.0254 0.8193
C40A C 0.8742(4) 0.0474(4) 0.8075(5)
H24A H 0.8554 0.0527 0.7812
C41A C 0.9019(6) 0.0559(3) 0.8239(7)
C42A C 0.9300(4) 0.0481(3) 0.8632(8)
H25A H 0.9485 0.0537 0.8742
C43A C 0.9304(4) 0.0317(3) 0.8860(5)
H26A H 0.9492 0.0265 0.9123
N8A N 0.7417(4) 0.1851(3) 0.5474(5)
C44A C 0.7413(4) 0.1658(4) 0.5640(7)
H27A H 0.7227 0.1603 0.5531
C45A C 0.7688(6) 0.1545(3) 0.5969(7)
H28A H 0.7686 0.1416 0.6080
C46A C 0.7966(4) 0.1626(4) 0.6132(6)
C47A C 0.7970(4) 0.1820(4) 0.5966(7)
H29A H 0.8156 0.1874 0.6075
C48A C 0.7695(6) 0.1932(2) 0.5637(7)
H30A H 0.7697 0.2062 0.5526
C49A C 0.9007(8) 0.0737(6) 0.8007(12)
C50A C 0.9006(9) 0.0859(6) 0.7783(13)
C51A C 0.8217(8) 0.1504(5) 0.6439(13)
C52A C 0.8457(8) 0.1403(6) 0.6716(13)
N9A N 0.8753(5) 0.1147(5) 0.7305(11)
C53A C 0.9034(8) 0.1053(4) 0.7670(10)
C54A C 0.9307(5) 0.1126(5) 0.7808(9)
H31A H 0.9495 0.1063 0.8052
C55A C 0.9300(5) 0.1293(5) 0.7582(12)
H32A H 0.9483 0.1342 0.7674
C56A C 0.9019(8) 0.1387(4) 0.7217(11)
H33A H 0.9014 0.1499 0.7066
C57A C 0.8745(5) 0.1314(5) 0.7079(8)
N10A N 0.6612(4) 0.2177(3) 0.8689(7)
C58A C 0.6332(5) 0.2097(3) 0.8296(7)
H34A H 0.6328 0.1968 0.8178
C59A C 0.6059(4) 0.2210(4) 0.8080(5)
H35A H 0.5872 0.2156 0.7817
C60A C 0.6065(4) 0.2403(3) 0.8257(7)
C61A C 0.6345(6) 0.2483(3) 0.8650(8)
H36A H 0.6349 0.2612 0.8768
C62A C 0.6618(4) 0.2370(3) 0.8866(5)
H37A H 0.6805 0.2423 0.9128
N11A N 0.3387(4) 0.2179(3) 0.5463(5)
C63A C 0.3667(6) 0.2095(2) 0.5636(7)
H38A H 0.3670 0.1964 0.5530
C64A C 0.3941(4) 0.2207(4) 0.5967(7)
H39A H 0.4128 0.2151 0.6083
C65A C 0.3937(4) 0.2403(3) 0.6125(6)
C66A C 0.3657(6) 0.2488(3) 0.5952(7)
H40A H 0.3654 0.2619 0.6058
C67A C 0.3383(4) 0.2376(4) 0.5621(7)
H41A H 0.3196 0.2432 0.5506
C68A C 0.5759(7) 0.2495(5) 0.8006(12)
C69A C 0.5539(7) 0.2613(6) 0.7830(12)
C70A C 0.4254(8) 0.2501(5) 0.6495(13)
C71A C 0.4479(8) 0.2616(6) 0.6755(14)
N12A N 0.5003(7) 0.2594(3) 0.7316(10)
C72A C 0.5283(5) 0.2688(5) 0.7683(10)
C73A C 0.5286(5) 0.2886(5) 0.7846(9)
H42A H 0.5474 0.2949 0.8091
C74A C 0.5009(7) 0.2989(4) 0.7642(11)
H43A H 0.5011 0.3122 0.7750
C75A C 0.4729(5) 0.2895(5) 0.7275(11)
H44A H 0.4543 0.2965 0.7138
C76A C 0.4726(5) 0.2698(5) 0.7112(8)
N13A N 0.6951(4) 0.1851(3) 0.9378(6)
C77A C 0.6787(4) 0.1655(3) 0.9206(5)
H45A H 0.6716 0.1600 0.8948
C78A C 0.6729(4) 0.1543(2) 0.9422(7)
H46A H 0.6619 0.1411 0.9307
C79A C 0.6835(5) 0.1625(3) 0.9809(7)
C80A C 0.6999(4) 0.1821(3) 0.9980(5)
H47A H 0.7070 0.1877 1.0238
C81A C 0.7057(3) 0.1934(2) 0.9764(7)
H48A H 0.7166 0.2065 0.9879
N14A N 0.5332(3) 0.0231(2) 0.9362(8)
C82A C 0.5443(5) 0.0313(3) 0.9192(6)
H49A H 0.5369 0.0257 0.8933
C83A C 0.5663(5) 0.0479(3) 0.9411(9)
H50A H 0.5736 0.0534 0.9298
C84A C 0.5772(4) 0.0564(3) 0.9799(8)
C85A C 0.5662(5) 0.0482(4) 0.9969(6)
H51A H 0.5736 0.0538 1.0228
C86A C 0.5442(5) 0.0316(4) 0.9750(8)
H52A H 0.5368 0.0261 0.9863
C87A C 0.6762(9) 0.1504(6) 1.0002(12)
C88A C 0.6769(9) 0.1412(7) 1.0258(13)
C89A C 0.6022(9) 0.0762(7) 1.0015(13)
C90A C 0.6261(11) 0.0868(8) 1.0264(16)
N15A N 0.6455(7) 0.1146(5) 1.0207(8)
C91A C 0.6644(7) 0.1330(5) 1.0384(10)
C92A C 0.6762(6) 0.1420(4) 1.0773(10)
H53A H 0.6889 0.1543 1.0891
C93A C 0.6690(7) 0.1326(5) 1.0986(8)
H54A H 0.6769 0.1387 1.1246
C94A C 0.6501(7) 0.1143(5) 1.0810(10)
H55A H 0.6453 0.1080 1.0952
C95A C 0.6383(6) 0.1052(4) 1.0420(10)
N16A N 0.4666(3) 0.0233(2) 0.8680(8)
C96A C 0.4551(5) 0.0328(4) 0.8296(8)
H56A H 0.4621 0.0281 0.8175
C97A C 0.4330(5) 0.0493(4) 0.8094(5)
H57A H 0.4254 0.0557 0.7837
C98A C 0.4225(4) 0.0564(3) 0.8275(9)
C99A C 0.4339(6) 0.0469(4) 0.8660(9)
H58A H 0.4269 0.0516 0.8781
C100A C 0.4560(5) 0.0303(3) 0.8862(6)
H59A H 0.4637 0.0240 0.9119
N17A N 0.3050(4) 0.1847(4) 0.5467(5)
C101A C 0.3219(4) 0.1653(4) 0.5637(7)
H60A H 0.3293 0.1595 0.5527
C102A C 0.3276(4) 0.1546(3) 0.5972(8)
H61A H 0.3388 0.1416 0.6086
C103A C 0.3164(5) 0.1632(4) 0.6137(6)
C104A C 0.2996(5) 0.1826(4) 0.5966(8)
H62A H 0.2921 0.1884 0.6077
C105A C 0.2939(4) 0.1934(2) 0.5631(8)
H63A H 0.2826 0.2063 0.5517
C106A C 0.3981(8) 0.0740(6) 0.7992(12)
C107A C 0.3763(9) 0.0866(6) 0.7763(14)
C108A C 0.3221(9) 0.1497(6) 0.6445(13)
C109A C 0.3258(10) 0.1416(7) 0.6736(13)
N18A N 0.3545(7) 0.1145(5) 0.7291(11)
C110A C 0.3618(6) 0.1049(4) 0.7647(10)
C111A C 0.3495(8) 0.1134(5) 0.7796(9)
H64A H 0.3543 0.1070 0.8034
C112A C 0.3300(7) 0.1315(5) 0.7591(11)
H65A H 0.3218 0.1372 0.7691
C113A C 0.3228(6) 0.1411(4) 0.7235(11)
H66A H 0.3097 0.1532 0.7098
C114A C 0.3350(7) 0.1326(5) 0.7086(9)
Pd1A Pd 0.70186(4) 0.20184(3) 0.50004(7)
Pd2A Pd 0.70183(4) 0.20183(3) 0.90366(7)
Pd3A Pd 0.90365(5) 0.0000 0.90356(10)
Pd4A Pd 0.49999(7) 0.0000 0.90372(10)
N1E N 0.2921(4) -0.2179(3) 0.4542(5)
C1E C 0.3025(4) -0.2093(2) 0.4366(7)
H1E H 0.3128 -0.1959 0.4466
C2E C 0.2974(5) -0.2206(4) 0.4041(7)
H2E H 0.3044 -0.2149 0.3924
C3E C 0.2820(5) -0.2406(3) 0.3892(5)
C4E C 0.2716(4) -0.2492(2) 0.4067(7)
H3E H 0.2613 -0.2626 0.3967
C5E C 0.2767(4) -0.2378(3) 0.4392(6)
H4E H 0.2697 -0.2436 0.4510
N2E N 0.2916(4) -0.2177(3) 0.1298(7)
C6E C 0.3024(4) -0.2095(2) 0.1687(7)
H5E H 0.3130 -0.1962 0.1798
C7E C 0.2974(4) -0.2211(4) 0.1909(5)
H6E H 0.3046 -0.2156 0.2169
C8E C 0.2815(5) -0.2409(3) 0.1742(7)
C9E C 0.2706(4) -0.2491(2) 0.1353(8)
H7E H 0.2600 -0.2623 0.1242
C10E C 0.2757(4) -0.2375(3) 0.1131(5)
H8E H 0.2684 -0.2430 0.0871
C11E C 0.2776(8) -0.2506(5) 0.3556(9)
C12E C 0.2732(8) -0.2598(5) 0.3267(9)
C13E C 0.2775(8) -0.2482(4) 0.2009(10)
C14E C 0.2742(8) -0.2622(4) 0.2174(11)
N3E N 0.2707(4) -0.2611(3) 0.2730(9)
C15E C 0.2603(6) -0.2722(4) 0.2888(6)
C16E C 0.2430(6) -0.2913(4) 0.2683(9)
H9E H 0.2361 -0.2987 0.2789
C17E C 0.2360(5) -0.2992(3) 0.2319(8)
H10E H 0.2244 -0.3120 0.2182
C18E C 0.2463(6) -0.2881(5) 0.2161(6)
H11E H 0.2416 -0.2935 0.1918
C19E C 0.2636(6) -0.2691(4) 0.2366(9)
N4E N 0.2579(4) -0.1857(3) 0.0630(7)
C20E C 0.2590(4) -0.1665(3) 0.0816(5)
H12E H 0.2778 -0.1615 0.1081
C21E C 0.2320(6) -0.1549(3) 0.0605(8)
H13E H 0.2327 -0.1421 0.0729
C22E C 0.2038(4) -0.1624(3) 0.0209(8)
C23E C 0.2027(4) -0.1816(4) 0.0023(6)
H14E H 0.1838 -0.1866 -0.0242
C24E C 0.2297(6) -0.1932(2) 0.0234(7)
H15E H 0.2289 -0.2060 0.0110
N5E N 0.0962(5) -0.0235(2) 0.0625(7)
C25E C 0.1247(4) -0.0310(3) 0.0806(5)
H16E H 0.1429 -0.0248 0.1063
C26E C 0.1261(4) -0.0478(3) 0.0603(8)
H17E H 0.1452 -0.0528 0.0724
C27E C 0.0989(6) -0.0570(3) 0.0218(8)
C28E C 0.0704(4) -0.0495(3) 0.0037(6)
H18E H 0.0522 -0.0557 -0.0221
C29E C 0.0690(4) -0.0327(3) 0.0240(7)
H19E H 0.0499 -0.0277 0.0119
C30E C 0.1788(7) -0.1503(6) 0.0013(12)
C31E C 0.1545(8) -0.1404(6) -0.0201(13)
C32E C 0.1010(10) -0.0748(7) 0.0009(14)
C33E C 0.0979(12) -0.0871(7) -0.0241(16)
N6E N 0.1249(5) -0.1141(5) -0.0189(7)
C34E C 0.1261(5) -0.1311(5) -0.0392(10)
C35E C 0.0991(7) -0.1381(4) -0.0806(10)
H20E H 0.0999 -0.1495 -0.0942
C36E C 0.0710(5) -0.1282(5) -0.1019(8)
H21E H 0.0529 -0.1329 -0.1296
C37E C 0.0698(5) -0.1112(5) -0.0816(10)
H22E H 0.0510 -0.1046 -0.0959
C38E C 0.0968(7) -0.1041(4) -0.0402(10)
N7E N 0.0972(6) -0.0233(2) 0.1304(7)
C39E C 0.1253(4) -0.0311(3) 0.1697(7)
H23E H 0.1439 -0.0254 0.1807
C40E C 0.1258(4) -0.0474(4) 0.1925(5)
H24E H 0.1446 -0.0527 0.2188
C41E C 0.0981(6) -0.0559(3) 0.1761(7)
C42E C 0.0700(4) -0.0481(3) 0.1368(8)
H25E H 0.0515 -0.0537 0.1258
C43E C 0.0696(4) -0.0317(3) 0.1140(5)
H26E H 0.0508 -0.0265 0.0877
N8E N 0.2583(4) -0.1851(3) 0.4526(5)
C44E C 0.2587(4) -0.1658(4) 0.4360(7)
H27E H 0.2773 -0.1603 0.4469
C45E C 0.2312(6) -0.1545(3) 0.4031(7)
H28E H 0.2314 -0.1416 0.3920
C46E C 0.2034(4) -0.1626(4) 0.3868(6)
C47E C 0.2030(4) -0.1820(4) 0.4034(7)
H29E H 0.1844 -0.1874 0.3925
C48E C 0.2305(6) -0.1932(2) 0.4363(7)
H30E H 0.2303 -0.2062 0.4474
C49E C 0.0993(8) -0.0737(6) 0.1993(12)
C50E C 0.0994(9) -0.0859(6) 0.2217(13)
C51E C 0.1783(8) -0.1504(5) 0.3561(13)
C52E C 0.1543(8) -0.1403(6) 0.3284(13)
N9E N 0.1247(5) -0.1147(5) 0.2695(11)
C53E C 0.0966(8) -0.1053(4) 0.2330(10)
C54E C 0.0693(5) -0.1126(5) 0.2192(9)
H31E H 0.0505 -0.1063 0.1948
C55E C 0.0700(5) -0.1293(5) 0.2418(12)
H32E H 0.0517 -0.1342 0.2326
C56E C 0.0981(8) -0.1387(4) 0.2783(11)
H33E H 0.0986 -0.1499 0.2934
C57E C 0.1255(5) -0.1314(5) 0.2921(8)
N10E N 0.3388(4) -0.2177(3) 0.1311(7)
C58E C 0.3668(5) -0.2097(3) 0.1704(7)
H34E H 0.3672 -0.1968 0.1822
C59E C 0.3941(4) -0.2210(4) 0.1920(5)
H35E H 0.4128 -0.2156 0.2183
C60E C 0.3935(4) -0.2403(3) 0.1743(7)
C61E C 0.3655(6) -0.2483(3) 0.1350(8)
H36E H 0.3651 -0.2612 0.1232
C62E C 0.3382(4) -0.2370(3) 0.1134(5)
H37E H 0.3195 -0.2423 0.0872
N11E N 0.6613(4) -0.2179(3) 0.4537(5)
C63E C 0.6333(6) -0.2095(2) 0.4364(7)
H38E H 0.6330 -0.1964 0.4470
C64E C 0.6059(4) -0.2207(4) 0.4033(7)
H39E H 0.5872 -0.2151 0.3917
C65E C 0.6063(4) -0.2403(3) 0.3875(6)
C66E C 0.6343(6) -0.2488(3) 0.4048(7)
H40E H 0.6346 -0.2619 0.3942
C67E C 0.6617(4) -0.2376(4) 0.4379(7)
H41E H 0.6804 -0.2432 0.4494
C68E C 0.4241(7) -0.2495(5) 0.1994(12)
C69E C 0.4461(7) -0.2613(6) 0.2170(12)
C70E C 0.5746(8) -0.2501(5) 0.3505(13)
C71E C 0.5521(8) -0.2616(6) 0.3245(14)
N12E N 0.4997(7) -0.2594(3) 0.2684(10)
C72E C 0.4717(5) -0.2688(5) 0.2317(10)
C73E C 0.4714(5) -0.2886(5) 0.2154(9)
H42E H 0.4526 -0.2949 0.1909
C74E C 0.4991(7) -0.2989(4) 0.2358(11)
H43E H 0.4989 -0.3122 0.2250
C75E C 0.5271(5) -0.2895(5) 0.2725(11)
H44E H 0.5457 -0.2965 0.2862
C76E C 0.5274(5) -0.2698(5) 0.2888(8)
N13E N 0.3049(4) -0.1851(3) 0.0622(6)
C77E C 0.3213(4) -0.1655(3) 0.0794(5)
H45E H 0.3284 -0.1600 0.1052
C78E C 0.3271(4) -0.1543(2) 0.0578(7)
H46E H 0.3381 -0.1411 0.0693
C79E C 0.3165(5) -0.1625(3) 0.0191(7)
C80E C 0.3001(4) -0.1821(3) 0.0020(5)
H47E H 0.2930 -0.1877 -0.0238
C81E C 0.2943(3) -0.1934(2) 0.0236(7)
H48E H 0.2834 -0.2065 0.0121
N14E N 0.4668(3) -0.0231(2) 0.0638(8)
C82E C 0.4557(5) -0.0313(3) 0.0808(6)
H49E H 0.4631 -0.0257 0.1067
C83E C 0.4337(5) -0.0479(3) 0.0589(9)
H50E H 0.4264 -0.0534 0.0702
C84E C 0.4228(4) -0.0564(3) 0.0201(8)
C85E C 0.4338(5) -0.0482(4) 0.0031(6)
H51E H 0.4264 -0.0538 -0.0228
C86E C 0.4558(5) -0.0316(4) 0.0250(8)
H52E H 0.4632 -0.0261 0.0137
C87E C 0.3238(9) -0.1504(6) -0.0002(12)
C88E C 0.3231(9) -0.1412(7) -0.0258(13)
C89E C 0.3978(9) -0.0762(7) -0.0015(13)
C90E C 0.3739(11) -0.0868(8) -0.0264(16)
N15E N 0.3545(7) -0.1146(5) -0.0207(8)
C91E C 0.3356(7) -0.1330(5) -0.0384(10)
C92E C 0.3238(6) -0.1420(4) -0.0773(10)
H53E H 0.3111 -0.1543 -0.0891
C93E C 0.3310(7) -0.1326(5) -0.0986(8)
H54E H 0.3231 -0.1387 -0.1246
C94E C 0.3499(7) -0.1143(5) -0.0810(10)
H55E H 0.3547 -0.1080 -0.0952
C95E C 0.3617(6) -0.1052(4) -0.0420(10)
N16E N 0.5334(3) -0.0233(2) 0.1320(8)
C96E C 0.5449(5) -0.0328(4) 0.1704(8)
H56E H 0.5379 -0.0281 0.1825
C97E C 0.5670(5) -0.0493(4) 0.1906(5)
H57E H 0.5746 -0.0557 0.2163
C98E C 0.5775(4) -0.0564(3) 0.1725(9)
C99E C 0.5661(6) -0.0469(4) 0.1340(9)
H58E H 0.5731 -0.0516 0.1219
C100E C 0.5440(5) -0.0303(3) 0.1138(6)
H59E H 0.5363 -0.0240 0.0881
N17E N 0.6950(4) -0.1847(4) 0.4533(5)
C101E C 0.6781(4) -0.1653(4) 0.4363(7)
H60E H 0.6707 -0.1595 0.4473
C102E C 0.6724(4) -0.1546(3) 0.4028(8)
H61E H 0.6612 -0.1416 0.3914
C103E C 0.6836(5) -0.1632(4) 0.3863(6)
C104E C 0.7004(5) -0.1826(4) 0.4034(8)
H62E H 0.7079 -0.1884 0.3923
C105E C 0.7061(4) -0.1934(2) 0.4369(8)
H63E H 0.7174 -0.2063 0.4483
C106E C 0.6019(8) -0.0740(6) 0.2008(12)
C107E C 0.6237(9) -0.0866(6) 0.2237(14)
C108E C 0.6779(9) -0.1497(6) 0.3555(13)
C109E C 0.6742(10) -0.1416(7) 0.3264(13)
N18E N 0.6455(7) -0.1145(5) 0.2709(11)
C110E C 0.6382(6) -0.1049(4) 0.2353(10)
C111E C 0.6505(8) -0.1134(5) 0.2204(9)
H64E H 0.6457 -0.1070 0.1966
C112E C 0.6700(7) -0.1315(5) 0.2409(11)
H65E H 0.6782 -0.1372 0.2309
C113E C 0.6772(6) -0.1411(4) 0.2765(11)
H66E H 0.6903 -0.1532 0.2902
C114E C 0.6650(7) -0.1326(5) 0.2914(9)
Pd1E Pd 0.29814(4) -0.20184(3) 0.49996(7)
Pd2E Pd 0.29817(4) -0.20183(3) 0.09634(7)
N1D N 0.7079(4) -0.2179(3) 0.5458(5)
C1D C 0.6975(4) -0.2093(2) 0.5634(7)
H1D H 0.6872 -0.1959 0.5534
C2D C 0.7026(5) -0.2206(4) 0.5959(7)
H2D H 0.6956 -0.2149 0.6076
C3D C 0.7180(5) -0.2406(3) 0.6108(5)
C4D C 0.7284(4) -0.2492(2) 0.5933(7)
H3D H 0.7387 -0.2626 0.6033
C5D C 0.7233(4) -0.2378(3) 0.5608(6)
H4D H 0.7303 -0.2436 0.5490
N2D N 0.7084(4) -0.2177(3) 0.8702(7)
C6D C 0.6976(4) -0.2095(2) 0.8313(7)
H5D H 0.6870 -0.1962 0.8202
C7D C 0.7026(4) -0.2211(4) 0.8091(5)
H6D H 0.6954 -0.2156 0.7831
C8D C 0.7185(5) -0.2409(3) 0.8258(7)
C9D C 0.7294(4) -0.2491(2) 0.8647(8)
H7D H 0.7400 -0.2623 0.8758
C10D C 0.7243(4) -0.2375(3) 0.8869(5)
H8D H 0.7316 -0.2430 0.9129
C11D C 0.7224(8) -0.2506(5) 0.6444(9)
C12D C 0.7268(8) -0.2598(5) 0.6733(9)
C13D C 0.7225(8) -0.2482(4) 0.7991(10)
C14D C 0.7258(8) -0.2622(4) 0.7826(11)
N3D N 0.7293(4) -0.2611(3) 0.7270(9)
C15D C 0.7397(6) -0.2722(4) 0.7112(6)
C16D C 0.7570(6) -0.2913(4) 0.7317(9)
H9D H 0.7639 -0.2987 0.7211
C17D C 0.7640(5) -0.2992(3) 0.7681(8)
H10D H 0.7756 -0.3120 0.7818
C18D C 0.7537(6) -0.2881(5) 0.7839(6)
H11D H 0.7584 -0.2935 0.8082
C19D C 0.7364(6) -0.2691(4) 0.7634(9)
N4D N 0.7421(4) -0.1857(3) 0.9370(7)
C20D C 0.7410(4) -0.1665(3) 0.9184(5)
H12D H 0.7222 -0.1615 0.8919
C21D C 0.7680(6) -0.1549(3) 0.9395(8)
H13D H 0.7673 -0.1421 0.9271
C22D C 0.7962(4) -0.1624(3) 0.9791(8)
C23D C 0.7973(4) -0.1816(4) 0.9977(6)
H14D H 0.8162 -0.1866 1.0242
C24D C 0.7703(6) -0.1932(2) 0.9766(7)
H15D H 0.7711 -0.2060 0.9890
N5D N 0.9038(5) -0.0235(2) 0.9375(7)
C25D C 0.8753(4) -0.0310(3) 0.9194(5)
H16D H 0.8571 -0.0248 0.8937
C26D C 0.8739(4) -0.0478(3) 0.9397(8)
H17D H 0.8548 -0.0528 0.9276
C27D C 0.9011(6) -0.0570(3) 0.9782(8)
C28D C 0.9296(4) -0.0495(3) 0.9963(6)
H18D H 0.9478 -0.0557 1.0221
C29D C 0.9310(4) -0.0327(3) 0.9760(7)
H19D H 0.9501 -0.0277 0.9881
C30D C 0.8212(7) -0.1503(6) 0.9987(12)
C31D C 0.8455(8) -0.1404(6) 1.0201(13)
C32D C 0.8990(10) -0.0748(7) 0.9991(14)
C33D C 0.9021(12) -0.0871(7) 1.0241(16)
N6D N 0.8751(5) -0.1141(5) 1.0189(7)
C34D C 0.8739(5) -0.1311(5) 1.0392(10)
C35D C 0.9009(7) -0.1381(4) 1.0806(10)
H20D H 0.9001 -0.1495 1.0942
C36D C 0.9290(5) -0.1282(5) 1.1019(8)
H21D H 0.9471 -0.1329 1.1296
C37D C 0.9302(5) -0.1112(5) 1.0816(10)
H22D H 0.9490 -0.1046 1.0959
C38D C 0.9032(7) -0.1041(4) 1.0402(10)
N7D N 0.9028(6) -0.0233(2) 0.8696(7)
C39D C 0.8747(4) -0.0311(3) 0.8303(7)
H23D H 0.8561 -0.0254 0.8193
C40D C 0.8742(4) -0.0474(4) 0.8075(5)
H24D H 0.8554 -0.0527 0.7812
C41D C 0.9019(6) -0.0559(3) 0.8239(7)
C42D C 0.9300(4) -0.0481(3) 0.8632(8)
H25D H 0.9485 -0.0537 0.8742
C43D C 0.9304(4) -0.0317(3) 0.8860(5)
H26D H 0.9492 -0.0265 0.9123
N8D N 0.7417(4) -0.1851(3) 0.5474(5)
C44D C 0.7413(4) -0.1658(4) 0.5640(7)
H27D H 0.7227 -0.1603 0.5531
C45D C 0.7688(6) -0.1545(3) 0.5969(7)
H28D H 0.7686 -0.1416 0.6080
C46D C 0.7966(4) -0.1626(4) 0.6132(6)
C47D C 0.7970(4) -0.1820(4) 0.5966(7)
H29D H 0.8156 -0.1874 0.6075
C48D C 0.7695(6) -0.1932(2) 0.5637(7)
H30D H 0.7697 -0.2062 0.5526
C49D C 0.9007(8) -0.0737(6) 0.8007(12)
C50D C 0.9006(9) -0.0859(6) 0.7783(13)
C51D C 0.8217(8) -0.1504(5) 0.6439(13)
C52D C 0.8457(8) -0.1403(6) 0.6716(13)
N9D N 0.8753(5) -0.1147(5) 0.7305(11)
C53D C 0.9034(8) -0.1053(4) 0.7670(10)
C54D C 0.9307(5) -0.1126(5) 0.7808(9)
H31D H 0.9495 -0.1063 0.8052
C55D C 0.9300(5) -0.1293(5) 0.7582(12)
H32D H 0.9483 -0.1342 0.7674
C56D C 0.9019(8) -0.1387(4) 0.7217(11)
H33D H 0.9014 -0.1499 0.7066
C57D C 0.8745(5) -0.1314(5) 0.7079(8)
N10D N 0.6612(4) -0.2177(3) 0.8689(7)
C58D C 0.6332(5) -0.2097(3) 0.8296(7)
H34D H 0.6328 -0.1968 0.8178
C59D C 0.6059(4) -0.2210(4) 0.8080(5)
H35D H 0.5872 -0.2156 0.7817
C60D C 0.6065(4) -0.2403(3) 0.8257(7)
C61D C 0.6345(6) -0.2483(3) 0.8650(8)
H36D H 0.6349 -0.2612 0.8768
C62D C 0.6618(4) -0.2370(3) 0.8866(5)
H37D H 0.6805 -0.2423 0.9128
N11D N 0.3387(4) -0.2179(3) 0.5463(5)
C63D C 0.3667(6) -0.2095(2) 0.5636(7)
H38D H 0.3670 -0.1964 0.5530
C64D C 0.3941(4) -0.2207(4) 0.5967(7)
H39D H 0.4128 -0.2151 0.6083
C65D C 0.3937(4) -0.2403(3) 0.6125(6)
C66D C 0.3657(6) -0.2488(3) 0.5952(7)
H40D H 0.3654 -0.2619 0.6058
C67D C 0.3383(4) -0.2376(4) 0.5621(7)
H41D H 0.3196 -0.2432 0.5506
C68D C 0.5759(7) -0.2495(5) 0.8006(12)
C69D C 0.5539(7) -0.2613(6) 0.7830(12)
C70D C 0.4254(8) -0.2501(5) 0.6495(13)
C71D C 0.4479(8) -0.2616(6) 0.6755(14)
N12D N 0.5003(7) -0.2594(3) 0.7316(10)
C72D C 0.5283(5) -0.2688(5) 0.7683(10)
C73D C 0.5286(5) -0.2886(5) 0.7846(9)
H42D H 0.5474 -0.2949 0.8091
C74D C 0.5009(7) -0.2989(4) 0.7642(11)
H43D H 0.5011 -0.3122 0.7750
C75D C 0.4729(5) -0.2895(5) 0.7275(11)
H44D H 0.4543 -0.2965 0.7138
C76D C 0.4726(5) -0.2698(5) 0.7112(8)
N13D N 0.6951(4) -0.1851(3) 0.9378(6)
C77D C 0.6787(4) -0.1655(3) 0.9206(5)
H45D H 0.6716 -0.1600 0.8948
C78D C 0.6729(4) -0.1543(2) 0.9422(7)
H46D H 0.6619 -0.1411 0.9307
C79D C 0.6835(5) -0.1625(3) 0.9809(7)
C80D C 0.6999(4) -0.1821(3) 0.9980(5)
H47D H 0.7070 -0.1877 1.0238
C81D C 0.7057(3) -0.1934(2) 0.9764(7)
H48D H 0.7166 -0.2065 0.9879
N14D N 0.5332(3) -0.0231(2) 0.9362(8)
C82D C 0.5443(5) -0.0313(3) 0.9192(6)
H49D H 0.5369 -0.0257 0.8933
C83D C 0.5663(5) -0.0479(3) 0.9411(9)
H50D H 0.5736 -0.0534 0.9298
C84D C 0.5772(4) -0.0564(3) 0.9799(8)
C85D C 0.5662(5) -0.0482(4) 0.9969(6)
H51D H 0.5736 -0.0538 1.0228
C86D C 0.5442(5) -0.0316(4) 0.9750(8)
H52D H 0.5368 -0.0261 0.9863
C87D C 0.6762(9) -0.1504(6) 1.0002(12)
C88D C 0.6769(9) -0.1412(7) 1.0258(13)
C89D C 0.6022(9) -0.0762(7) 1.0015(13)
C90D C 0.6261(11) -0.0868(8) 1.0264(16)
N15D N 0.6455(7) -0.1146(5) 1.0207(8)
C91D C 0.6644(7) -0.1330(5) 1.0384(10)
C92D C 0.6762(6) -0.1420(4) 1.0773(10)
H53D H 0.6889 -0.1543 1.0891
C93D C 0.6690(7) -0.1326(5) 1.0986(8)
H54D H 0.6769 -0.1387 1.1246
C94D C 0.6501(7) -0.1143(5) 1.0810(10)
H55D H 0.6453 -0.1080 1.0952
C95D C 0.6383(6) -0.1052(4) 1.0420(10)
N16D N 0.4666(3) -0.0233(2) 0.8680(8)
C96D C 0.4551(5) -0.0328(4) 0.8296(8)
H56D H 0.4621 -0.0281 0.8175
C97D C 0.4330(5) -0.0493(4) 0.8094(5)
H57D H 0.4254 -0.0557 0.7837
C98D C 0.4225(4) -0.0564(3) 0.8275(9)
C99D C 0.4339(6) -0.0469(4) 0.8660(9)
H58D H 0.4269 -0.0516 0.8781
C100D C 0.4560(5) -0.0303(3) 0.8862(6)
H59D H 0.4637 -0.0240 0.9119
N17D N 0.3050(4) -0.1847(4) 0.5467(5)
C101D C 0.3219(4) -0.1653(4) 0.5637(7)
H60D H 0.3293 -0.1595 0.5527
C102D C 0.3276(4) -0.1546(3) 0.5972(8)
H61D H 0.3388 -0.1416 0.6086
C103D C 0.3164(5) -0.1632(4) 0.6137(6)
C104D C 0.2996(5) -0.1826(4) 0.5966(8)
H62D H 0.2921 -0.1884 0.6077
C105D C 0.2939(4) -0.1934(2) 0.5631(8)
H63D H 0.2826 -0.2063 0.5517
C106D C 0.3981(8) -0.0740(6) 0.7992(12)
C107D C 0.3763(9) -0.0866(6) 0.7763(14)
C108D C 0.3221(9) -0.1497(6) 0.6445(13)
C109D C 0.3258(10) -0.1416(7) 0.6736(13)
N18D N 0.3545(7) -0.1145(5) 0.7291(11)
C110D C 0.3618(6) -0.1049(4) 0.7647(10)
C111D C 0.3495(8) -0.1134(5) 0.7796(9)
H64D H 0.3543 -0.1070 0.8034
C112D C 0.3300(7) -0.1315(5) 0.7591(11)
H65D H 0.3218 -0.1372 0.7691
C113D C 0.3228(6) -0.1411(4) 0.7235(11)
H66D H 0.3097 -0.1532 0.7098
C114D C 0.3350(7) -0.1326(5) 0.7086(9)
Pd1D Pd 0.70186(4) -0.20184(3) 0.50004(7)
Pd2D Pd 0.70183(4) -0.20183(3) 0.90366(7)
Ag1 Ag 0.28920(13) 0.22797(7) 0.28923(18)
Ag2 Ag 0.16643(10) 0.10556(7) 0.04395(18)
Ag3 Ag 0.16636(10) 0.10539(7) 0.28868(17)
Ag4 Ag 0.50002(8) 0.22792(7) 0.28885(17)
Ag5 Ag 0.37766(12) 0.10567(7) 0.04407(18)
Ag6 Ag 0.62241(12) 0.10559(7) 0.28891(17)
B1 B 0.3386(8) 0.1549(6) 0.4759(12)
F1 F 0.3372(8) 0.1620(5) 0.5050(13)
F2 F 0.3542(11) 0.1706(6) 0.4741(17)
F3 F 0.3091(8) 0.1483(7) 0.4370(13)
F4 F 0.3584(9) 0.1372(5) 0.4990(14)
B2 B 0.3392(8) 0.1552(6) 0.2024(12)
F5 F 0.3369(8) 0.1640(6) 0.1705(13)
F6 F 0.3094(8) 0.1498(8) 0.1829(18)
F7 F 0.3545(12) 0.1700(7) 0.2374(13)
F8 F 0.3585(9) 0.1372(6) 0.2172(14)
B3 B 0.7135(16) 0.2023(12) 0.329(3)
F9 F 0.686(2) 0.1900(17) 0.300(4)
F10 F 0.714(3) 0.2182(16) 0.306(4)
F11 F 0.739(2) 0.1883(16) 0.351(4)
F12 F 0.715(3) 0.2130(18) 0.359(3)
B4 B 0.6151(14) 0.3100(10) 0.351(2)
F13 F 0.6365(18) 0.2957(13) 0.359(3)
F14 F 0.5889(17) 0.3108(15) 0.305(2)
F15 F 0.607(2) 0.3031(14) 0.372(3)
F16 F 0.629(2) 0.3307(11) 0.367(3)
B5 B 0.1141(14) 0.1905(10) -0.117(2)
F17 F 0.0871(16) 0.1898(14) -0.127(3)
F18 F 0.1344(18) 0.2052(13) -0.083(3)
F19 F 0.1279(19) 0.1699(11) -0.105(3)
F20 F 0.108(2) 0.1965(14) -0.154(3)
B6 B 0.2860(18) 0.2009(13) -0.094(3)
F21 F 0.288(3) 0.212(2) -0.064(4)
F22 F 0.312(2) 0.1876(19) -0.071(4)
F23 F 0.259(2) 0.1878(19) -0.122(4)
F24 F 0.285(3) 0.2165(19) -0.119(4)
B7 B -0.0002(13) 0.0741(9) 0.121(2)
F25 F 0.0257(15) 0.0631(13) 0.159(2)
F26 F 0.001(2) 0.0742(14) 0.090(3)
F27 F 0.000(2) 0.0957(9) 0.132(3)
F28 F -0.0271(15) 0.0634(12) 0.104(3)
loop_
_geom_bond_atom_site_label_1
_geom_bond_atom_site_label_2
_geom_bond_site_symmetry_1
_geom_bond_site_symmetry_2
N1 C1 1_555 1_555
C1 H1 1_555 1_555
C2 C1 1_555 1_555
H2 C2 1_555 1_555
C3 C2 1_555 1_555
C4 C3 1_555 1_555
H3 C4 1_555 1_555
C5 N1 1_555 1_555
H4 C5 1_555 1_555
N2 C6 1_555 1_555
C6 H5 1_555 1_555
C7 C6 1_555 1_555
H6 C7 1_555 1_555
C8 C7 1_555 1_555
C9 C8 1_555 1_555
H7 C9 1_555 1_555
C10 N2 1_555 1_555
H8 C10 1_555 1_555
C11 C3 1_555 1_555
C12 C11 1_555 1_555
C13 C8 1_555 1_555
C14 C13 1_555 1_555
N3 C15 1_555 1_555
C15 C12 1_555 1_555
C16 C15 1_555 1_555
H9 C16 1_555 1_555
C17 C16 1_555 1_555
H10 C17 1_555 1_555
C18 C17 1_555 1_555
H11 C18 1_555 1_555
C19 C14 1_555 1_555
N4 C20 1_555 1_555
C20 H12 1_555 1_555
C21 C20 1_555 1_555
H13 C21 1_555 1_555
C22 C21 1_555 1_555
C23 C22 1_555 1_555
H14 C23 1_555 1_555
C24 N4 1_555 1_555
H15 C24 1_555 1_555
N5 C25 1_555 1_555
C25 H16 1_555 1_555
C26 C25 1_555 1_555
H17 C26 1_555 1_555
C27 C26 1_555 1_555
C28 C27 1_555 1_555
H18 C28 1_555 1_555
C29 N5 1_555 1_555
H19 C29 1_555 1_555
C30 C22 1_555 1_555
C31 C30 1_555 1_555
C32 C27 1_555 1_555
C33 C32 1_555 1_555
N6 C34 1_555 1_555
C34 C31 1_555 1_555
C35 C34 1_555 1_555
H20 C35 1_555 1_555
C36 C35 1_555 1_555
H21 C36 1_555 1_555
C37 C36 1_555 1_555
H22 C37 1_555 1_555
C38 C33 1_555 1_555
N7 C39 1_555 1_555
C39 H23 1_555 1_555
C40 C39 1_555 1_555
H24 C40 1_555 1_555
C41 C40 1_555 1_555
C42 C41 1_555 1_555
H25 C42 1_555 1_555
C43 N7 1_555 1_555
H26 C43 1_555 1_555
N8 C44 1_555 1_555
C44 H27 1_555 1_555
C45 C44 1_555 1_555
H28 C45 1_555 1_555
C46 C45 1_555 1_555
C47 C46 1_555 1_555
H29 C47 1_555 1_555
C48 N8 1_555 1_555
H30 C48 1_555 1_555
C49 C41 1_555 1_555
C50 C49 1_555 1_555
C51 C46 1_555 1_555
C52 C51 1_555 1_555
N9 C53 1_555 1_555
C53 C50 1_555 1_555
C54 C53 1_555 1_555
H31 C54 1_555 1_555
C55 C54 1_555 1_555
H32 C55 1_555 1_555
C56 C55 1_555 1_555
H33 C56 1_555 1_555
C57 C52 1_555 1_555
N10 C58 1_555 1_555
C58 H34 1_555 1_555
C59 C58 1_555 1_555
H35 C59 1_555 1_555
C60 C59 1_555 1_555
C61 C60 1_555 1_555
H36 C61 1_555 1_555
C62 N10 1_555 1_555
H37 C62 1_555 1_555
N11 C63 1_555 1_555
C63 H38 1_555 1_555
C64 C63 1_555 1_555
H39 C64 1_555 1_555
C65 C64 1_555 1_555
C66 C65 1_555 1_555
H40 C66 1_555 1_555
C67 N11 1_555 1_555
H41 C67 1_555 1_555
C68 C60 1_555 1_555
C69 C68 1_555 1_555
C70 C65 1_555 1_555
C71 C70 1_555 1_555
N12 C72 1_555 1_555
C72 C69 1_555 1_555
C73 C72 1_555 1_555
H42 C73 1_555 1_555
C74 C73 1_555 1_555
H43 C74 1_555 1_555
C75 C74 1_555 1_555
H44 C75 1_555 1_555
C76 C71 1_555 1_555
N13 C77 1_555 1_555
C77 H45 1_555 1_555
C78 C77 1_555 1_555
H46 C78 1_555 1_555
C79 C78 1_555 1_555
C80 C79 1_555 1_555
H47 C80 1_555 1_555
C81 N13 1_555 1_555
H48 C81 1_555 1_555
N14 C82 1_555 1_555
C82 H49 1_555 1_555
C83 C82 1_555 1_555
H50 C83 1_555 1_555
C84 C83 1_555 1_555
C85 C84 1_555 1_555
H51 C85 1_555 1_555
C86 N14 1_555 1_555
H52 C86 1_555 1_555
C87 C79 1_555 1_555
C88 C87 1_555 1_555
C89 C84 1_555 1_555
C90 C89 1_555 1_555
N15 C91 1_555 1_555
C91 C88 1_555 1_555
C92 C91 1_555 1_555
H53 C92 1_555 1_555
C93 C92 1_555 1_555
H54 C93 1_555 1_555
C94 C93 1_555 1_555
H55 C94 1_555 1_555
C95 C90 1_555 1_555
N16 C96 1_555 1_555
C96 H56 1_555 1_555
C97 C96 1_555 1_555
H57 C97 1_555 1_555
C98 C97 1_555 1_555
C99 C98 1_555 1_555
H58 C99 1_555 1_555
C100 N16 1_555 1_555
H59 C100 1_555 1_555
N17 C101 1_555 1_555
C101 H60 1_555 1_555
C102 C101 1_555 1_555
H61 C102 1_555 1_555
C103 C102 1_555 1_555
C104 C103 1_555 1_555
H62 C104 1_555 1_555
C105 N17 1_555 1_555
H63 C105 1_555 1_555
C106 C98 1_555 1_555
C107 C106 1_555 1_555
C108 C103 1_555 1_555
C109 C108 1_555 1_555
N18 C110 1_555 1_555
C110 C107 1_555 1_555
C111 C110 1_555 1_555
H64 C111 1_555 1_555
C112 C111 1_555 1_555
H65 C112 1_555 1_555
C113 C112 1_555 1_555
H66 C113 1_555 1_555
C114 C109 1_555 1_555
Pd1 N1 1_555 1_555
Pd2 N2 1_555 1_555
Pd3 N5 1_555 1_555
Pd4 N14 1_555 1_555
B1 F1 1_555 1_555
F2 B1 1_555 1_555
F3 B1 1_555 1_555
F4 B1 1_555 1_555
B2 F5 1_555 1_555
F6 B2 1_555 1_555
F7 B2 1_555 1_555
F8 B2 1_555 1_555
B3 F9 1_555 1_555
F10 B3 1_555 1_555
F11 B3 1_555 1_555
F12 B3 1_555 1_555
B4 F13 1_555 1_555
F14 B4 1_555 1_555
F15 B4 1_555 1_555
F16 B4 1_555 1_555
B5 F17 1_555 1_555
F18 B5 1_555 1_555
F19 B5 1_555 1_555
F20 B5 1_555 1_555
B6 F21 1_555 1_555
F22 B6 1_555 1_555
F23 B6 1_555 1_555
F24 B6 1_555 1_555
B7 F25 1_555 1_555
F26 B7 1_555 1_555
F27 B7 1_555 1_555
F28 B7 1_555 1_555
N1A C1A 1_555 1_555
C1A H1A 1_555 1_555
C2A C1A 1_555 1_555
H2A C2A 1_555 1_555
C3A C2A 1_555 1_555
C4A C3A 1_555 1_555
H3A C4A 1_555 1_555
C5A N1A 1_555 1_555
H4A C5A 1_555 1_555
N2A C6A 1_555 1_555
C6A H5A 1_555 1_555
C7A C6A 1_555 1_555
H6A C7A 1_555 1_555
C8A C7A 1_555 1_555
C9A C8A 1_555 1_555
H7A C9A 1_555 1_555
C10A N2A 1_555 1_555
H8A C10A 1_555 1_555
C11A C3A 1_555 1_555
C12A C11A 1_555 1_555
C13A C8A 1_555 1_555
C14A C13A 1_555 1_555
N3A C15A 1_555 1_555
C15A C12A 1_555 1_555
C16A C15A 1_555 1_555
H9A C16A 1_555 1_555
C17A C16A 1_555 1_555
H10A C17A 1_555 1_555
C18A C17A 1_555 1_555
H11A C18A 1_555 1_555
C19A C14A 1_555 1_555
N4A C20A 1_555 1_555
C20A H12A 1_555 1_555
C21A C20A 1_555 1_555
H13A C21A 1_555 1_555
C22A C21A 1_555 1_555
C23A C22A 1_555 1_555
H14A C23A 1_555 1_555
C24A N4A 1_555 1_555
H15A C24A 1_555 1_555
N5A C25A 1_555 1_555
C25A H16A 1_555 1_555
C26A C25A 1_555 1_555
H17A C26A 1_555 1_555
C27A C26A 1_555 1_555
C28A C27A 1_555 1_555
H18A C28A 1_555 1_555
C29A N5A 1_555 1_555
H19A C29A 1_555 1_555
C30A C22A 1_555 1_555
C31A C30A 1_555 1_555
C32A C27A 1_555 1_555
C33A C32A 1_555 1_555
N6A C34A 1_555 1_555
C34A C31A 1_555 1_555
C35A C34A 1_555 1_555
H20A C35A 1_555 1_555
C36A C35A 1_555 1_555
H21A C36A 1_555 1_555
C37A C36A 1_555 1_555
H22A C37A 1_555 1_555
C38A C33A 1_555 1_555
N7A C39A 1_555 1_555
C39A H23A 1_555 1_555
C40A C39A 1_555 1_555
H24A C40A 1_555 1_555
C41A C40A 1_555 1_555
C42A C41A 1_555 1_555
H25A C42A 1_555 1_555
C43A N7A 1_555 1_555
H26A C43A 1_555 1_555
N8A C44A 1_555 1_555
C44A H27A 1_555 1_555
C45A C44A 1_555 1_555
H28A C45A 1_555 1_555
C46A C45A 1_555 1_555
C47A C46A 1_555 1_555
H29A C47A 1_555 1_555
C48A N8A 1_555 1_555
H30A C48A 1_555 1_555
C49A C41A 1_555 1_555
C50A C49A 1_555 1_555
C51A C46A 1_555 1_555
C52A C51A 1_555 1_555
N9A C53A 1_555 1_555
C53A C50A 1_555 1_555
C54A C53A 1_555 1_555
H31A C54A 1_555 1_555
C55A C54A 1_555 1_555
H32A C55A 1_555 1_555
C56A C55A 1_555 1_555
H33A C56A 1_555 1_555
C57A C52A 1_555 1_555
N10A C58A 1_555 1_555
C58A H34A 1_555 1_555
C59A C58A 1_555 1_555
H35A C59A 1_555 1_555
C60A C59A 1_555 1_555
C61A C60A 1_555 1_555
H36A C61A 1_555 1_555
C62A N10A 1_555 1_555
H37A C62A 1_555 1_555
N11A Pd1 1_555 1_555
C63A N11A 1_555 1_555
H38A C63A 1_555 1_555
C64A C63A 1_555 1_555
H39A C64A 1_555 1_555
C65A C64A 1_555 1_555
C66A C65A 1_555 1_555
H40A C66A 1_555 1_555
C67A N11A 1_555 1_555
H41A C67A 1_555 1_555
C68A C60A 1_555 1_555
C69A C68A 1_555 1_555
C70A C65A 1_555 1_555
C71A C70A 1_555 1_555
N12A C72A 1_555 1_555
C72A C69A 1_555 1_555
C73A C72A 1_555 1_555
H42A C73A 1_555 1_555
C74A C73A 1_555 1_555
H43A C74A 1_555 1_555
C75A C74A 1_555 1_555
H44A C75A 1_555 1_555
C76A C71A 1_555 1_555
N13A C77A 1_555 1_555
C77A H45A 1_555 1_555
C78A C77A 1_555 1_555
H46A C78A 1_555 1_555
C79A C78A 1_555 1_555
C80A C79A 1_555 1_555
H47A C80A 1_555 1_555
C81A N13A 1_555 1_555
H48A C81A 1_555 1_555
N14A C82A 1_555 1_555
C82A H49A 1_555 1_555
C83A C82A 1_555 1_555
H50A C83A 1_555 1_555
C84A C83A 1_555 1_555
C85A C84A 1_555 1_555
H51A C85A 1_555 1_555
C86A N14A 1_555 1_555
H52A C86A 1_555 1_555
C87A C79A 1_555 1_555
C88A C87A 1_555 1_555
C89A C84A 1_555 1_555
C90A C89A 1_555 1_555
N15A C91A 1_555 1_555
C91A C88A 1_555 1_555
C92A C91A 1_555 1_555
H53A C92A 1_555 1_555
C93A C92A 1_555 1_555
H54A C93A 1_555 1_555
C94A C93A 1_555 1_555
H55A C94A 1_555 1_555
C95A C90A 1_555 1_555
N16A C96A 1_555 1_555
C96A H56A 1_555 1_555
C97A C96A 1_555 1_555
H57A C97A 1_555 1_555
C98A C97A 1_555 1_555
C99A C98A 1_555 1_555
H58A C99A 1_555 1_555
C100A N16A 1_555 1_555
H59A C100A 1_555 1_555
N17A Pd1 1_555 1_555
C101A N17A 1_555 1_555
H60A C101A 1_555 1_555
C102A C101A 1_555 1_555
H61A C102A 1_555 1_555
C103A C102A 1_555 1_555
C104A C103A 1_555 1_555
H62A C104A 1_555 1_555
C105A N17A 1_555 1_555
H63A C105A 1_555 1_555
C106A C98A 1_555 1_555
C107A C106A 1_555 1_555
C108A C103A 1_555 1_555
C109A C108A 1_555 1_555
N18A C110A 1_555 1_555
C110A C107A 1_555 1_555
C111A C110A 1_555 1_555
H64A C111A 1_555 1_555
C112A C111A 1_555 1_555
H65A C112A 1_555 1_555
C113A C112A 1_555 1_555
H66A C113A 1_555 1_555
C114A C109A 1_555 1_555
Pd1A N11 1_555 1_555
Pd2A N2A 1_555 1_555
Pd3A N5A 1_555 1_555
Pd4A N14A 1_555 1_555
N1E C1E 1_555 1_555
C1E H1E 1_555 1_555
C2E C1E 1_555 1_555
H2E C2E 1_555 1_555
C3E C2E 1_555 1_555
C4E C3E 1_555 1_555
H3E C4E 1_555 1_555
C5E N1E 1_555 1_555
H4E C5E 1_555 1_555
N2E C6E 1_555 1_555
C6E H5E 1_555 1_555
C7E C6E 1_555 1_555
H6E C7E 1_555 1_555
C8E C7E 1_555 1_555
C9E C8E 1_555 1_555
H7E C9E 1_555 1_555
C10E N2E 1_555 1_555
H8E C10E 1_555 1_555
C11E C3E 1_555 1_555
C12E C11E 1_555 1_555
C13E C8E 1_555 1_555
C14E C13E 1_555 1_555
N3E C15E 1_555 1_555
C15E C12E 1_555 1_555
C16E C15E 1_555 1_555
H9E C16E 1_555 1_555
C17E C16E 1_555 1_555
H10E C17E 1_555 1_555
C18E C17E 1_555 1_555
H11E C18E 1_555 1_555
C19E C14E 1_555 1_555
N4E C20E 1_555 1_555
C20E H12E 1_555 1_555
C21E C20E 1_555 1_555
H13E C21E 1_555 1_555
C22E C21E 1_555 1_555
C23E C22E 1_555 1_555
H14E C23E 1_555 1_555
C24E N4E 1_555 1_555
H15E C24E 1_555 1_555
N5E Pd3 1_555 1_555
C25E N5E 1_555 1_555
H16E C25E 1_555 1_555
C26E C25E 1_555 1_555
H17E C26E 1_555 1_555
C27E C26E 1_555 1_555
C28E C27E 1_555 1_555
H18E C28E 1_555 1_555
C29E N5E 1_555 1_555
H19E C29E 1_555 1_555
C30E C22E 1_555 1_555
C31E C30E 1_555 1_555
C32E C27E 1_555 1_555
C33E C32E 1_555 1_555
N6E C34E 1_555 1_555
C34E C31E 1_555 1_555
C35E C34E 1_555 1_555
H20E C35E 1_555 1_555
C36E C35E 1_555 1_555
H21E C36E 1_555 1_555
C37E C36E 1_555 1_555
H22E C37E 1_555 1_555
C38E C33E 1_555 1_555
N7E Pd3 1_555 1_555
C39E N7E 1_555 1_555
H23E C39E 1_555 1_555
C40E C39E 1_555 1_555
H24E C40E 1_555 1_555
C41E C40E 1_555 1_555
C42E C41E 1_555 1_555
H25E C42E 1_555 1_555
C43E N7E 1_555 1_555
H26E C43E 1_555 1_555
N8E C44E 1_555 1_555
C44E H27E 1_555 1_555
C45E C44E 1_555 1_555
H28E C45E 1_555 1_555
C46E C45E 1_555 1_555
C47E C46E 1_555 1_555
H29E C47E 1_555 1_555
C48E N8E 1_555 1_555
H30E C48E 1_555 1_555
C49E C41E 1_555 1_555
C50E C49E 1_555 1_555
C51E C46E 1_555 1_555
C52E C51E 1_555 1_555
N9E C53E 1_555 1_555
C53E C50E 1_555 1_555
C54E C53E 1_555 1_555
H31E C54E 1_555 1_555
C55E C54E 1_555 1_555
H32E C55E 1_555 1_555
C56E C55E 1_555 1_555
H33E C56E 1_555 1_555
C57E C52E 1_555 1_555
N10E C58E 1_555 1_555
C58E H34E 1_555 1_555
C59E C58E 1_555 1_555
H35E C59E 1_555 1_555
C60E C59E 1_555 1_555
C61E C60E 1_555 1_555
H36E C61E 1_555 1_555
C62E N10E 1_555 1_555
H37E C62E 1_555 1_555
N11E C63E 1_555 1_555
C63E H38E 1_555 1_555
C64E C63E 1_555 1_555
H39E C64E 1_555 1_555
C65E C64E 1_555 1_555
C66E C65E 1_555 1_555
H40E C66E 1_555 1_555
C67E N11E 1_555 1_555
H41E C67E 1_555 1_555
C68E C60E 1_555 1_555
C69E C68E 1_555 1_555
C70E C65E 1_555 1_555
C71E C70E 1_555 1_555
N12E C72E 1_555 1_555
C72E C69E 1_555 1_555
C73E C72E 1_555 1_555
H42E C73E 1_555 1_555
C74E C73E 1_555 1_555
H43E C74E 1_555 1_555
C75E C74E 1_555 1_555
H44E C75E 1_555 1_555
C76E C71E 1_555 1_555
N13E C77E 1_555 1_555
C77E H45E 1_555 1_555
C78E C77E 1_555 1_555
H46E C78E 1_555 1_555
C79E C78E 1_555 1_555
C80E C79E 1_555 1_555
H47E C80E 1_555 1_555
C81E N13E 1_555 1_555
H48E C81E 1_555 1_555
N14E Pd4 1_555 1_555
C82E N14E 1_555 1_555
H49E C82E 1_555 1_555
C83E C82E 1_555 1_555
H50E C83E 1_555 1_555
C84E C83E 1_555 1_555
C85E C84E 1_555 1_555
H51E C85E 1_555 1_555
C86E N14E 1_555 1_555
H52E C86E 1_555 1_555
C87E C79E 1_555 1_555
C88E C87E 1_555 1_555
C89E C84E 1_555 1_555
C90E C89E 1_555 1_555
N15E C91E 1_555 1_555
C91E C88E 1_555 1_555
C92E C91E 1_555 1_555
H53E C92E 1_555 1_555
C93E C92E 1_555 1_555
H54E C93E 1_555 1_555
C94E C93E 1_555 1_555
H55E C94E 1_555 1_555
C95E C90E 1_555 1_555
N16E Pd4 1_555 1_555
C96E N16E 1_555 1_555
H56E C96E 1_555 1_555
C97E C96E 1_555 1_555
H57E C97E 1_555 1_555
C98E C97E 1_555 1_555
C99E C98E 1_555 1_555
H58E C99E 1_555 1_555
C100E N16E 1_555 1_555
H59E C100E 1_555 1_555
N17E C101E 1_555 1_555
C101E H60E 1_555 1_555
C102E C101E 1_555 1_555
H61E C102E 1_555 1_555
C103E C102E 1_555 1_555
C104E C103E 1_555 1_555
H62E C104E 1_555 1_555
C105E N17E 1_555 1_555
H63E C105E 1_555 1_555
C106E C98E 1_555 1_555
C107E C106E 1_555 1_555
C108E C103E 1_555 1_555
C109E C108E 1_555 1_555
N18E C110E 1_555 1_555
C110E C107E 1_555 1_555
C111E C110E 1_555 1_555
H64E C111E 1_555 1_555
C112E C111E 1_555 1_555
H65E C112E 1_555 1_555
C113E C112E 1_555 1_555
H66E C113E 1_555 1_555
C114E C109E 1_555 1_555
Pd1E N1E 1_555 1_555
Pd2E N2E 1_555 1_555
N1D C1D 1_555 1_555
C1D H1D 1_555 1_555
C2D C1D 1_555 1_555
H2D C2D 1_555 1_555
C3D C2D 1_555 1_555
C4D C3D 1_555 1_555
H3D C4D 1_555 1_555
C5D N1D 1_555 1_555
H4D C5D 1_555 1_555
N2D C6D 1_555 1_555
C6D H5D 1_555 1_555
C7D C6D 1_555 1_555
H6D C7D 1_555 1_555
C8D C7D 1_555 1_555
C9D C8D 1_555 1_555
H7D C9D 1_555 1_555
C10D N2D 1_555 1_555
H8D C10D 1_555 1_555
C11D C3D 1_555 1_555
C12D C11D 1_555 1_555
C13D C8D 1_555 1_555
C14D C13D 1_555 1_555
N3D C15D 1_555 1_555
C15D C12D 1_555 1_555
C16D C15D 1_555 1_555
H9D C16D 1_555 1_555
C17D C16D 1_555 1_555
H10D C17D 1_555 1_555
C18D C17D 1_555 1_555
H11D C18D 1_555 1_555
C19D C14D 1_555 1_555
N4D C20D 1_555 1_555
C20D H12D 1_555 1_555
C21D C20D 1_555 1_555
H13D C21D 1_555 1_555
C22D C21D 1_555 1_555
C23D C22D 1_555 1_555
H14D C23D 1_555 1_555
C24D N4D 1_555 1_555
H15D C24D 1_555 1_555
N5D Pd3A 1_555 1_555
C25D N5D 1_555 1_555
H16D C25D 1_555 1_555
C26D C25D 1_555 1_555
H17D C26D 1_555 1_555
C27D C26D 1_555 1_555
C28D C27D 1_555 1_555
H18D C28D 1_555 1_555
C29D N5D 1_555 1_555
H19D C29D 1_555 1_555
C30D C22D 1_555 1_555
C31D C30D 1_555 1_555
C32D C27D 1_555 1_555
C33D C32D 1_555 1_555
N6D C34D 1_555 1_555
C34D C31D 1_555 1_555
C35D C34D 1_555 1_555
H20D C35D 1_555 1_555
C36D C35D 1_555 1_555
H21D C36D 1_555 1_555
C37D C36D 1_555 1_555
H22D C37D 1_555 1_555
C38D C33D 1_555 1_555
N7D Pd3A 1_555 1_555
C39D N7D 1_555 1_555
H23D C39D 1_555 1_555
C40D C39D 1_555 1_555
H24D C40D 1_555 1_555
C41D C40D 1_555 1_555
C42D C41D 1_555 1_555
H25D C42D 1_555 1_555
C43D N7D 1_555 1_555
H26D C43D 1_555 1_555
N8D C44D 1_555 1_555
C44D H27D 1_555 1_555
C45D C44D 1_555 1_555
H28D C45D 1_555 1_555
C46D C45D 1_555 1_555
C47D C46D 1_555 1_555
H29D C47D 1_555 1_555
C48D N8D 1_555 1_555
H30D C48D 1_555 1_555
C49D C41D 1_555 1_555
C50D C49D 1_555 1_555
C51D C46D 1_555 1_555
C52D C51D 1_555 1_555
N9D C53D 1_555 1_555
C53D C50D 1_555 1_555
C54D C53D 1_555 1_555
H31D C54D 1_555 1_555
C55D C54D 1_555 1_555
H32D C55D 1_555 1_555
C56D C55D 1_555 1_555
H33D C56D 1_555 1_555
C57D C52D 1_555 1_555
N10D C58D 1_555 1_555
C58D H34D 1_555 1_555
C59D C58D 1_555 1_555
H35D C59D 1_555 1_555
C60D C59D 1_555 1_555
C61D C60D 1_555 1_555
H36D C61D 1_555 1_555
C62D N10D 1_555 1_555
H37D C62D 1_555 1_555
N11D Pd1E 1_555 1_555
C63D N11D 1_555 1_555
H38D C63D 1_555 1_555
C64D C63D 1_555 1_555
H39D C64D 1_555 1_555
C65D C64D 1_555 1_555
C66D C65D 1_555 1_555
H40D C66D 1_555 1_555
C67D N11D 1_555 1_555
H41D C67D 1_555 1_555
C68D C60D 1_555 1_555
C69D C68D 1_555 1_555
C70D C65D 1_555 1_555
C71D C70D 1_555 1_555
N12D C72D 1_555 1_555
C72D C69D 1_555 1_555
C73D C72D 1_555 1_555
H42D C73D 1_555 1_555
C74D C73D 1_555 1_555
H43D C74D 1_555 1_555
C75D C74D 1_555 1_555
H44D C75D 1_555 1_555
C76D C71D 1_555 1_555
N13D C77D 1_555 1_555
C77D H45D 1_555 1_555
C78D C77D 1_555 1_555
H46D C78D 1_555 1_555
C79D C78D 1_555 1_555
C80D C79D 1_555 1_555
H47D C80D 1_555 1_555
C81D N13D 1_555 1_555
H48D C81D 1_555 1_555
N14D Pd4A 1_555 1_555
C82D N14D 1_555 1_555
H49D C82D 1_555 1_555
C83D C82D 1_555 1_555
H50D C83D 1_555 1_555
C84D C83D 1_555 1_555
C85D C84D 1_555 1_555
H51D C85D 1_555 1_555
C86D N14D 1_555 1_555
H52D C86D 1_555 1_555
C87D C79D 1_555 1_555
C88D C87D 1_555 1_555
C89D C84D 1_555 1_555
C90D C89D 1_555 1_555
N15D C91D 1_555 1_555
C91D C88D 1_555 1_555
C92D C91D 1_555 1_555
H53D C92D 1_555 1_555
C93D C92D 1_555 1_555
H54D C93D 1_555 1_555
C94D C93D 1_555 1_555
H55D C94D 1_555 1_555
C95D C90D 1_555 1_555
N16D Pd4A 1_555 1_555
C96D N16D 1_555 1_555
H56D C96D 1_555 1_555
C97D C96D 1_555 1_555
H57D C97D 1_555 1_555
C98D C97D 1_555 1_555
C99D C98D 1_555 1_555
H58D C99D 1_555 1_555
C100D N16D 1_555 1_555
H59D C100D 1_555 1_555
N17D Pd1E 1_555 1_555
C101D N17D 1_555 1_555
H60D C101D 1_555 1_555
C102D C101D 1_555 1_555
H61D C102D 1_555 1_555
C103D C102D 1_555 1_555
C104D C103D 1_555 1_555
H62D C104D 1_555 1_555
C105D N17D 1_555 1_555
H63D C105D 1_555 1_555
C106D C98D 1_555 1_555
C107D C106D 1_555 1_555
C108D C103D 1_555 1_555
C109D C108D 1_555 1_555
N18D C110D 1_555 1_555
C110D C107D 1_555 1_555
C111D C110D 1_555 1_555
H64D C111D 1_555 1_555
C112D C111D 1_555 1_555
H65D C112D 1_555 1_555
C113D C112D 1_555 1_555
H66D C113D 1_555 1_555
C114D C109D 1_555 1_555
Pd1D N11E 1_555 1_555
Pd2D N2D 1_555 1_555
C4 C5 1_555 1_555
C9 C10 1_555 1_555
N3 C19 1_555 1_555
C18 C19 1_555 1_555
N4 Pd2 1_555 1_555
C23 C24 1_555 1_555
C28 C29 1_555 1_555
N6 C38 1_555 1_555
C37 C38 1_555 1_555
N7 Pd3 1_555 1_555
C42 C43 1_555 1_555
N8 Pd1 1_555 1_555
C47 C48 1_555 1_555
N9 C57 1_555 1_555
C56 C57 1_555 1_555
N10 Pd2 1_555 1_555
C61 C62 1_555 1_555
C66 C67 1_555 1_555
N12 C76 1_555 1_555
C75 C76 1_555 1_555
N13 Pd2 1_555 1_555
C80 C81 1_555 1_555
C85 C86 1_555 1_555
N15 C95 1_555 1_555
C94 C95 1_555 1_555
N16 Pd4 1_555 1_555
C99 C100 1_555 1_555
N17 Pd1A 1_555 1_555
C104 C105 1_555 1_555
N18 C114 1_555 1_555
C113 C114 1_555 1_555
N1A Pd1A 1_555 1_555
C4A C5A 1_555 1_555
C9A C10A 1_555 1_555
N3A C19A 1_555 1_555
C18A C19A 1_555 1_555
N4A Pd2A 1_555 1_555
C23A C24A 1_555 1_555
C28A C29A 1_555 1_555
N6A C38A 1_555 1_555
C37A C38A 1_555 1_555
N7A Pd3A 1_555 1_555
C42A C43A 1_555 1_555
N8A Pd1A 1_555 1_555
C47A C48A 1_555 1_555
N9A C57A 1_555 1_555
C56A C57A 1_555 1_555
N10A Pd2A 1_555 1_555
C61A C62A 1_555 1_555
C66A C67A 1_555 1_555
N12A C76A 1_555 1_555
C75A C76A 1_555 1_555
N13A Pd2A 1_555 1_555
C80A C81A 1_555 1_555
C85A C86A 1_555 1_555
N15A C95A 1_555 1_555
C94A C95A 1_555 1_555
N16A Pd4A 1_555 1_555
C99A C100A 1_555 1_555
C104A C105A 1_555 1_555
N18A C114A 1_555 1_555
C113A C114A 1_555 1_555
C4E C5E 1_555 1_555
C9E C10E 1_555 1_555
N3E C19E 1_555 1_555
C18E C19E 1_555 1_555
N4E Pd2E 1_555 1_555
C23E C24E 1_555 1_555
C28E C29E 1_555 1_555
N6E C38E 1_555 1_555
C37E C38E 1_555 1_555
C42E C43E 1_555 1_555
N8E Pd1E 1_555 1_555
C47E C48E 1_555 1_555
N9E C57E 1_555 1_555
C56E C57E 1_555 1_555
N10E Pd2E 1_555 1_555
C61E C62E 1_555 1_555
C66E C67E 1_555 1_555
N12E C76E 1_555 1_555
C75E C76E 1_555 1_555
N13E Pd2E 1_555 1_555
C80E C81E 1_555 1_555
C85E C86E 1_555 1_555
N15E C95E 1_555 1_555
C94E C95E 1_555 1_555
C99E C100E 1_555 1_555
N17E Pd1D 1_555 1_555
C104E C105E 1_555 1_555
N18E C114E 1_555 1_555
C113E C114E 1_555 1_555
N1D Pd1D 1_555 1_555
C4D C5D 1_555 1_555
C9D C10D 1_555 1_555
N3D C19D 1_555 1_555
C18D C19D 1_555 1_555
N4D Pd2D 1_555 1_555
C23D C24D 1_555 1_555
C28D C29D 1_555 1_555
N6D C38D 1_555 1_555
C37D C38D 1_555 1_555
C42D C43D 1_555 1_555
N8D Pd1D 1_555 1_555
C47D C48D 1_555 1_555
N9D C57D 1_555 1_555
C56D C57D 1_555 1_555
N10D Pd2D 1_555 1_555
C61D C62D 1_555 1_555
C66D C67D 1_555 1_555
N12D C76D 1_555 1_555
C75D C76D 1_555 1_555
N13D Pd2D 1_555 1_555
C80D C81D 1_555 1_555
C85D C86D 1_555 1_555
N15D C95D 1_555 1_555
C94D C95D 1_555 1_555
C99D C100D 1_555 1_555
C104D C105D 1_555 1_555
N18D C114D 1_555 1_555
C113D C114D 1_555 1_555

#END
