# generated using pymatgen
data_Ag6B13H66Pd3C114(N21F26)2
_symmetry_space_group_name_H-M   'P 1'
_cell_length_a   43.16512901
_cell_length_b   43.15200000
_cell_length_c   61.07300000
_cell_angle_alpha   90.00000000
_cell_angle_beta   90.00000000
_cell_angle_gamma   90.05741216
_symmetry_Int_Tables_number   1
_chemical_formula_structural   Ag6B13H66Pd3C114(N21F26)2
_chemical_formula_sum   'Ag48 B104 H528 Pd24 C912 N336 F416'
_cell_volume   113758.27766627
_cell_formula_units_Z   8
loop_
 _symmetry_equiv_pos_site_id
 _symmetry_equiv_pos_as_xyz
  1  'x, y, z'
loop_
 _atom_site_type_symbol
 _atom_site_label
 _atom_site_symmetry_multiplicity
 _atom_site_fract_x
 _atom_site_fract_y
 _atom_site_fract_z
 _atom_site_occupancy
  Ag  Ag1  1  0.710800  0.999970  0.772030  1
  Ag  Ag2  1  0.289200  0.000030  0.772030  1
  Ag  Ag3  1  0.210800  0.499970  0.272030  1
  Ag  Ag4  1  0.789200  0.500030  0.272030  1
  Ag  Ag5  1  0.289200  0.000030  0.227970  1
  Ag  Ag6  1  0.710800  0.999970  0.227970  1
  Ag  Ag7  1  0.789200  0.500030  0.727970  1
  Ag  Ag8  1  0.210800  0.499970  0.727970  1
  Ag  Ag9  1  0.833570  0.122480  0.894440  1
  Ag  Ag10  1  0.166430  0.877520  0.894440  1
  Ag  Ag11  1  0.333570  0.622480  0.394440  1
  Ag  Ag12  1  0.666430  0.377520  0.394440  1
  Ag  Ag13  1  0.166430  0.877520  0.105560  1
  Ag  Ag14  1  0.833570  0.122480  0.105560  1
  Ag  Ag15  1  0.666430  0.377520  0.605560  1
  Ag  Ag16  1  0.333570  0.622480  0.605560  1
  Ag  Ag17  1  0.833640  0.877680  0.894610  1
  Ag  Ag18  1  0.166360  0.122320  0.894610  1
  Ag  Ag19  1  0.333640  0.377680  0.394610  1
  Ag  Ag20  1  0.666360  0.622320  0.394610  1
  Ag  Ag21  1  0.166360  0.122320  0.105390  1
  Ag  Ag22  1  0.833640  0.877680  0.105390  1
  Ag  Ag23  1  0.666360  0.622320  0.605390  1
  Ag  Ag24  1  0.333640  0.377680  0.605390  1
  Ag  Ag25  1  0.499980  0.211170  0.772080  1
  Ag  Ag26  1  0.500020  0.788830  0.772080  1
  Ag  Ag27  1  0.999980  0.711170  0.272080  1
  Ag  Ag28  1  0.000020  0.288830  0.272080  1
  Ag  Ag29  1  0.500020  0.788830  0.227920  1
  Ag  Ag30  1  0.499980  0.211170  0.227920  1
  Ag  Ag31  1  0.000020  0.288830  0.727920  1
  Ag  Ag32  1  0.999980  0.711170  0.727920  1
  Ag  Ag33  1  0.622340  0.333590  0.894330  1
  Ag  Ag34  1  0.377660  0.666410  0.894330  1
  Ag  Ag35  1  0.122340  0.833590  0.394330  1
  Ag  Ag36  1  0.877660  0.166410  0.394330  1
  Ag  Ag37  1  0.377660  0.666410  0.105670  1
  Ag  Ag38  1  0.622340  0.333590  0.105670  1
  Ag  Ag39  1  0.877660  0.166410  0.605670  1
  Ag  Ag40  1  0.122340  0.833590  0.605670  1
  Ag  Ag41  1  0.377590  0.333500  0.894410  1
  Ag  Ag42  1  0.622410  0.666500  0.894410  1
  Ag  Ag43  1  0.877590  0.833500  0.394410  1
  Ag  Ag44  1  0.122410  0.166500  0.394410  1
  Ag  Ag45  1  0.622410  0.666500  0.105590  1
  Ag  Ag46  1  0.377590  0.333500  0.105590  1
  Ag  Ag47  1  0.122410  0.166500  0.605590  1
  Ag  Ag48  1  0.877590  0.833500  0.605590  1
  B  B49  1  0.661400  0.862700  0.845100  1
  B  B50  1  0.338600  0.137300  0.845100  1
  B  B51  1  0.161400  0.362700  0.345100  1
  B  B52  1  0.838600  0.637300  0.345100  1
  B  B53  1  0.338600  0.137300  0.154900  1
  B  B54  1  0.661400  0.862700  0.154900  1
  B  B55  1  0.838600  0.637300  0.654900  1
  B  B56  1  0.161400  0.362700  0.654900  1
  B  B57  1  0.660800  0.136800  0.844800  1
  B  B58  1  0.339200  0.863200  0.844800  1
  B  B59  1  0.160800  0.636800  0.344800  1
  B  B60  1  0.839200  0.363200  0.344800  1
  B  B61  1  0.339200  0.863200  0.155200  1
  B  B62  1  0.660800  0.136800  0.155200  1
  B  B63  1  0.839200  0.363200  0.655200  1
  B  B64  1  0.160800  0.636800  0.655200  1
  B  B65  1  0.286500  0.384500  0.797700  1
  B  B66  1  0.713500  0.615500  0.797700  1
  B  B67  1  0.786500  0.884500  0.297700  1
  B  B68  1  0.213500  0.115500  0.297700  1
  B  B69  1  0.713500  0.615500  0.202300  1
  B  B70  1  0.286500  0.384500  0.202300  1
  B  B71  1  0.213500  0.115500  0.702300  1
  B  B72  1  0.786500  0.884500  0.702300  1
  B  B73  1  0.384900  0.264100  0.690000  1
  B  B74  1  0.615100  0.735900  0.690000  1
  B  B75  1  0.884900  0.764100  0.190000  1
  B  B76  1  0.115100  0.235900  0.190000  1
  B  B77  1  0.615100  0.735900  0.310000  1
  B  B78  1  0.384900  0.264100  0.310000  1
  B  B79  1  0.115100  0.235900  0.810000  1
  B  B80  1  0.884900  0.764100  0.810000  1
  B  B81  1  0.885900  0.231100  0.809500  1
  B  B82  1  0.114100  0.768900  0.809500  1
  B  B83  1  0.385900  0.731100  0.309500  1
  B  B84  1  0.614100  0.268900  0.309500  1
  B  B85  1  0.114100  0.768900  0.190500  1
  B  B86  1  0.885900  0.231100  0.190500  1
  B  B87  1  0.614100  0.268900  0.690500  1
  B  B88  1  0.385900  0.731100  0.690500  1
  B  B89  1  0.714000  0.380000  0.799100  1
  B  B90  1  0.286000  0.620000  0.799100  1
  B  B91  1  0.214000  0.880000  0.299100  1
  B  B92  1  0.786000  0.120000  0.299100  1
  B  B93  1  0.286000  0.620000  0.200900  1
  B  B94  1  0.714000  0.380000  0.200900  1
  B  B95  1  0.786000  0.120000  0.700900  1
  B  B96  1  0.214000  0.880000  0.700900  1
  B  B97  1  0.000200  0.878800  0.925900  1
  B  B98  1  0.999800  0.121200  0.925900  1
  B  B99  1  0.500200  0.378800  0.425900  1
  B  B100  1  0.499800  0.621200  0.425900  1
  B  B101  1  0.999800  0.121200  0.074100  1
  B  B102  1  0.000200  0.878800  0.074100  1
  B  B103  1  0.499800  0.621200  0.574100  1
  B  B104  1  0.500200  0.378800  0.574100  1
  B  B105  1  0.492200  0.500300  0.001400  1
  B  B106  1  0.507800  0.499700  0.001400  1
  B  B107  1  0.992200  0.000300  0.501400  1
  B  B108  1  0.007800  0.999700  0.501400  1
  B  B109  1  0.507800  0.499700  0.998600  1
  B  B110  1  0.492200  0.500300  0.998600  1
  B  B111  1  0.007800  0.999700  0.498600  1
  B  B112  1  0.992200  0.000300  0.498600  1
  B  B113  1  0.999700  0.991300  0.002200  1
  B  B114  1  0.000300  0.008700  0.002200  1
  B  B115  1  0.499700  0.491300  0.502200  1
  B  B116  1  0.500300  0.508700  0.502200  1
  B  B117  1  0.000300  0.008700  0.997800  1
  B  B118  1  0.999700  0.991300  0.997800  1
  B  B119  1  0.500300  0.508700  0.497800  1
  B  B120  1  0.499700  0.491300  0.497800  1
  B  B121  1  0.802400  0.003700  0.993700  1
  B  B122  1  0.197600  0.996300  0.993700  1
  B  B123  1  0.302400  0.503700  0.493700  1
  B  B124  1  0.697600  0.496300  0.493700  1
  B  B125  1  0.197600  0.996300  0.006300  1
  B  B126  1  0.802400  0.003700  0.006300  1
  B  B127  1  0.697600  0.496300  0.506300  1
  B  B128  1  0.302400  0.503700  0.506300  1
  B  B129  1  0.506100  0.304600  0.010900  1
  B  B130  1  0.493900  0.695400  0.010900  1
  B  B131  1  0.006100  0.804600  0.510900  1
  B  B132  1  0.993900  0.195400  0.510900  1
  B  B133  1  0.493900  0.695400  0.989100  1
  B  B134  1  0.506100  0.304600  0.989100  1
  B  B135  1  0.993900  0.195400  0.489100  1
  B  B136  1  0.006100  0.804600  0.489100  1
  B  B137  1  0.743900  0.749800  0.747400  1
  B  B138  1  0.256100  0.250200  0.747400  1
  B  B139  1  0.243900  0.249800  0.247400  1
  B  B140  1  0.756100  0.750200  0.247400  1
  B  B141  1  0.256100  0.250200  0.252600  1
  B  B142  1  0.743900  0.749800  0.252600  1
  B  B143  1  0.756100  0.750200  0.752600  1
  B  B144  1  0.243900  0.249800  0.752600  1
  B  B145  1  0.749700  0.243900  0.746500  1
  B  B146  1  0.250300  0.756100  0.746500  1
  B  B147  1  0.249700  0.743900  0.246500  1
  B  B148  1  0.750300  0.256100  0.246500  1
  B  B149  1  0.250300  0.756100  0.253500  1
  B  B150  1  0.749700  0.243900  0.253500  1
  B  B151  1  0.750300  0.256100  0.753500  1
  B  B152  1  0.249700  0.743900  0.753500  1
  H  H153  1  0.687200  0.866200  0.804100  1.0
  H  H154  1  0.312800  0.133800  0.804100  1.0
  H  H155  1  0.187200  0.366200  0.304100  1.0
  H  H156  1  0.812800  0.633800  0.304100  1.0
  H  H157  1  0.312800  0.133800  0.195900  1.0
  H  H158  1  0.687200  0.866200  0.195900  1.0
  H  H159  1  0.812800  0.633800  0.695900  1.0
  H  H160  1  0.187200  0.366200  0.695900  1.0
  H  H161  1  0.695600  0.912000  0.785100  1.0
  H  H162  1  0.304400  0.088000  0.785100  1.0
  H  H163  1  0.195600  0.412000  0.285100  1.0
  H  H164  1  0.804400  0.588000  0.285100  1.0
  H  H165  1  0.304400  0.088000  0.214900  1.0
  H  H166  1  0.695600  0.912000  0.214900  1.0
  H  H167  1  0.804400  0.588000  0.714900  1.0
  H  H168  1  0.195600  0.412000  0.714900  1.0
  H  H169  1  0.738700  0.864600  0.737400  1.0
  H  H170  1  0.261300  0.135400  0.737400  1.0
  H  H171  1  0.238700  0.364600  0.237400  1.0
  H  H172  1  0.761300  0.635400  0.237400  1.0
  H  H173  1  0.261300  0.135400  0.262600  1.0
  H  H174  1  0.738700  0.864600  0.262600  1.0
  H  H175  1  0.761300  0.635400  0.762600  1.0
  H  H176  1  0.238700  0.364600  0.762600  1.0
  H  H177  1  0.730300  0.818700  0.756400  1.0
  H  H178  1  0.269700  0.181300  0.756400  1.0
  H  H179  1  0.230300  0.318700  0.256400  1.0
  H  H180  1  0.769700  0.681300  0.256400  1.0
  H  H181  1  0.269700  0.181300  0.243600  1.0
  H  H182  1  0.730300  0.818700  0.243600  1.0
  H  H183  1  0.769700  0.681300  0.743600  1.0
  H  H184  1  0.230300  0.318700  0.743600  1.0
  H  H185  1  0.687000  0.133200  0.803800  1.0
  H  H186  1  0.313000  0.866800  0.803800  1.0
  H  H187  1  0.187000  0.633200  0.303800  1.0
  H  H188  1  0.813000  0.366800  0.303800  1.0
  H  H189  1  0.313000  0.866800  0.196200  1.0
  H  H190  1  0.687000  0.133200  0.196200  1.0
  H  H191  1  0.813000  0.366800  0.696200  1.0
  H  H192  1  0.187000  0.633200  0.696200  1.0
  H  H193  1  0.695400  0.087700  0.784400  1.0
  H  H194  1  0.304600  0.912300  0.784400  1.0
  H  H195  1  0.195400  0.587700  0.284400  1.0
  H  H196  1  0.804600  0.412300  0.284400  1.0
  H  H197  1  0.304600  0.912300  0.215600  1.0
  H  H198  1  0.695400  0.087700  0.215600  1.0
  H  H199  1  0.804600  0.412300  0.715600  1.0
  H  H200  1  0.195400  0.587700  0.715600  1.0
  H  H201  1  0.740000  0.135800  0.737700  1.0
  H  H202  1  0.260000  0.864200  0.737700  1.0
  H  H203  1  0.240000  0.635800  0.237700  1.0
  H  H204  1  0.760000  0.364200  0.237700  1.0
  H  H205  1  0.260000  0.864200  0.262300  1.0
  H  H206  1  0.740000  0.135800  0.262300  1.0
  H  H207  1  0.760000  0.364200  0.762300  1.0
  H  H208  1  0.240000  0.635800  0.762300  1.0
  H  H209  1  0.731600  0.181300  0.757000  1.0
  H  H210  1  0.268400  0.818700  0.757000  1.0
  H  H211  1  0.231600  0.681300  0.257000  1.0
  H  H212  1  0.768400  0.318700  0.257000  1.0
  H  H213  1  0.268400  0.818700  0.243000  1.0
  H  H214  1  0.731600  0.181300  0.243000  1.0
  H  H215  1  0.768400  0.318700  0.743000  1.0
  H  H216  1  0.231600  0.681300  0.743000  1.0
  H  H217  1  0.763900  0.957200  0.701300  1.0
  H  H218  1  0.236100  0.042800  0.701300  1.0
  H  H219  1  0.263900  0.457200  0.201300  1.0
  H  H220  1  0.736100  0.542800  0.201300  1.0
  H  H221  1  0.236100  0.042800  0.298700  1.0
  H  H222  1  0.763900  0.957200  0.298700  1.0
  H  H223  1  0.736100  0.542800  0.798700  1.0
  H  H224  1  0.263900  0.457200  0.798700  1.0
  H  H225  1  0.775600  0.006200  0.688000  1.0
  H  H226  1  0.224400  0.993800  0.688000  1.0
  H  H227  1  0.275600  0.506200  0.188000  1.0
  H  H228  1  0.724400  0.493800  0.188000  1.0
  H  H229  1  0.224400  0.993800  0.312000  1.0
  H  H230  1  0.775600  0.006200  0.312000  1.0
  H  H231  1  0.724400  0.493800  0.812000  1.0
  H  H232  1  0.275600  0.506200  0.812000  1.0
  H  H233  1  0.758400  0.049800  0.706500  1.0
  H  H234  1  0.241600  0.950200  0.706500  1.0
  H  H235  1  0.258400  0.549800  0.206500  1.0
  H  H236  1  0.741600  0.450200  0.206500  1.0
  H  H237  1  0.241600  0.950200  0.293500  1.0
  H  H238  1  0.758400  0.049800  0.293500  1.0
  H  H239  1  0.741600  0.450200  0.793500  1.0
  H  H240  1  0.258400  0.549800  0.793500  1.0
  H  H241  1  0.722200  0.169700  0.838500  1.0
  H  H242  1  0.277800  0.830300  0.838500  1.0
  H  H243  1  0.222200  0.669700  0.338500  1.0
  H  H244  1  0.777800  0.330300  0.338500  1.0
  H  H245  1  0.277800  0.830300  0.161500  1.0
  H  H246  1  0.722200  0.169700  0.161500  1.0
  H  H247  1  0.777800  0.330300  0.661500  1.0
  H  H248  1  0.222200  0.669700  0.661500  1.0
  H  H249  1  0.767300  0.159800  0.857900  1.0
  H  H250  1  0.232700  0.840200  0.857900  1.0
  H  H251  1  0.267300  0.659800  0.357900  1.0
  H  H252  1  0.732700  0.340200  0.357900  1.0
  H  H253  1  0.232700  0.840200  0.142100  1.0
  H  H254  1  0.767300  0.159800  0.142100  1.0
  H  H255  1  0.732700  0.340200  0.642100  1.0
  H  H256  1  0.267300  0.659800  0.642100  1.0
  H  H257  1  0.816200  0.208000  0.813400  1.0
  H  H258  1  0.183800  0.792000  0.813400  1.0
  H  H259  1  0.316200  0.708000  0.313400  1.0
  H  H260  1  0.683800  0.292000  0.313400  1.0
  H  H261  1  0.183800  0.792000  0.186600  1.0
  H  H262  1  0.816200  0.208000  0.186600  1.0
  H  H263  1  0.683800  0.292000  0.686600  1.0
  H  H264  1  0.316200  0.708000  0.686600  1.0
  H  H265  1  0.771100  0.217900  0.794000  1.0
  H  H266  1  0.228900  0.782100  0.794000  1.0
  H  H267  1  0.271100  0.717900  0.294000  1.0
  H  H268  1  0.728900  0.282100  0.294000  1.0
  H  H269  1  0.228900  0.782100  0.206000  1.0
  H  H270  1  0.771100  0.217900  0.206000  1.0
  H  H271  1  0.728900  0.282100  0.706000  1.0
  H  H272  1  0.271100  0.717900  0.706000  1.0
  H  H273  1  0.857100  0.036600  0.975200  1.0
  H  H274  1  0.142900  0.963400  0.975200  1.0
  H  H275  1  0.357100  0.536600  0.475200  1.0
  H  H276  1  0.642900  0.463400  0.475200  1.0
  H  H277  1  0.142900  0.963400  0.024800  1.0
  H  H278  1  0.857100  0.036600  0.024800  1.0
  H  H279  1  0.642900  0.463400  0.524800  1.0
  H  H280  1  0.357100  0.536600  0.524800  1.0
  H  H281  1  0.854800  0.072800  0.947200  1.0
  H  H282  1  0.145200  0.927200  0.947200  1.0
  H  H283  1  0.354800  0.572800  0.447200  1.0
  H  H284  1  0.645200  0.427200  0.447200  1.0
  H  H285  1  0.145200  0.927200  0.052800  1.0
  H  H286  1  0.854800  0.072800  0.052800  1.0
  H  H287  1  0.645200  0.427200  0.552800  1.0
  H  H288  1  0.354800  0.572800  0.552800  1.0
  H  H289  1  0.947800  0.074300  0.944300  1.0
  H  H290  1  0.052200  0.925700  0.944300  1.0
  H  H291  1  0.447800  0.574300  0.444300  1.0
  H  H292  1  0.552200  0.425700  0.444300  1.0
  H  H293  1  0.052200  0.925700  0.055700  1.0
  H  H294  1  0.947800  0.074300  0.055700  1.0
  H  H295  1  0.552200  0.425700  0.555700  1.0
  H  H296  1  0.447800  0.574300  0.555700  1.0
  H  H297  1  0.950100  0.038000  0.972300  1.0
  H  H298  1  0.049900  0.962000  0.972300  1.0
  H  H299  1  0.450100  0.538000  0.472300  1.0
  H  H300  1  0.549900  0.462000  0.472300  1.0
  H  H301  1  0.049900  0.962000  0.027700  1.0
  H  H302  1  0.950100  0.038000  0.027700  1.0
  H  H303  1  0.549900  0.462000  0.527700  1.0
  H  H304  1  0.450100  0.538000  0.527700  1.0
  H  H305  1  0.900100  0.194100  0.850500  1.0
  H  H306  1  0.099900  0.805900  0.850500  1.0
  H  H307  1  0.400100  0.694100  0.350500  1.0
  H  H308  1  0.599900  0.305900  0.350500  1.0
  H  H309  1  0.099900  0.805900  0.149500  1.0
  H  H310  1  0.900100  0.194100  0.149500  1.0
  H  H311  1  0.599900  0.305900  0.649500  1.0
  H  H312  1  0.400100  0.694100  0.649500  1.0
  H  H313  1  0.947100  0.182500  0.867100  1.0
  H  H314  1  0.052900  0.817500  0.867100  1.0
  H  H315  1  0.447100  0.682500  0.367100  1.0
  H  H316  1  0.552900  0.317500  0.367100  1.0
  H  H317  1  0.052900  0.817500  0.132900  1.0
  H  H318  1  0.947100  0.182500  0.132900  1.0
  H  H319  1  0.552900  0.317500  0.632900  1.0
  H  H320  1  0.447100  0.682500  0.632900  1.0
  H  H321  1  0.949000  0.146900  0.895400  1.0
  H  H322  1  0.051000  0.853100  0.895400  1.0
  H  H323  1  0.449000  0.646900  0.395400  1.0
  H  H324  1  0.551000  0.353100  0.395400  1.0
  H  H325  1  0.051000  0.853100  0.104600  1.0
  H  H326  1  0.949000  0.146900  0.104600  1.0
  H  H327  1  0.551000  0.353100  0.604600  1.0
  H  H328  1  0.449000  0.646900  0.604600  1.0
  H  H329  1  0.856100  0.963200  0.974600  1.0
  H  H330  1  0.143900  0.036800  0.974600  1.0
  H  H331  1  0.356100  0.463200  0.474600  1.0
  H  H332  1  0.643900  0.536800  0.474600  1.0
  H  H333  1  0.143900  0.036800  0.025400  1.0
  H  H334  1  0.856100  0.963200  0.025400  1.0
  H  H335  1  0.643900  0.536800  0.525400  1.0
  H  H336  1  0.356100  0.463200  0.525400  1.0
  H  H337  1  0.855400  0.925800  0.947300  1.0
  H  H338  1  0.144600  0.074200  0.947300  1.0
  H  H339  1  0.355400  0.425800  0.447300  1.0
  H  H340  1  0.644600  0.574200  0.447300  1.0
  H  H341  1  0.144600  0.074200  0.052700  1.0
  H  H342  1  0.855400  0.925800  0.052700  1.0
  H  H343  1  0.644600  0.574200  0.552700  1.0
  H  H344  1  0.355400  0.425800  0.552700  1.0
  H  H345  1  0.948500  0.925700  0.946300  1.0
  H  H346  1  0.051500  0.074300  0.946300  1.0
  H  H347  1  0.448500  0.425700  0.446300  1.0
  H  H348  1  0.551500  0.574300  0.446300  1.0
  H  H349  1  0.051500  0.074300  0.053700  1.0
  H  H350  1  0.948500  0.925700  0.053700  1.0
  H  H351  1  0.551500  0.574300  0.553700  1.0
  H  H352  1  0.448500  0.425700  0.553700  1.0
  H  H353  1  0.949200  0.963100  0.973500  1.0
  H  H354  1  0.050800  0.036900  0.973500  1.0
  H  H355  1  0.449200  0.463100  0.473500  1.0
  H  H356  1  0.550800  0.536900  0.473500  1.0
  H  H357  1  0.050800  0.036900  0.026500  1.0
  H  H358  1  0.949200  0.963100  0.026500  1.0
  H  H359  1  0.550800  0.536900  0.526500  1.0
  H  H360  1  0.449200  0.463100  0.526500  1.0
  H  H361  1  0.722700  0.830400  0.839700  1.0
  H  H362  1  0.277300  0.169600  0.839700  1.0
  H  H363  1  0.222700  0.330400  0.339700  1.0
  H  H364  1  0.777300  0.669600  0.339700  1.0
  H  H365  1  0.277300  0.169600  0.160300  1.0
  H  H366  1  0.722700  0.830400  0.160300  1.0
  H  H367  1  0.777300  0.669600  0.660300  1.0
  H  H368  1  0.222700  0.330400  0.660300  1.0
  H  H369  1  0.768600  0.839400  0.858400  1.0
  H  H370  1  0.231400  0.160600  0.858400  1.0
  H  H371  1  0.268600  0.339400  0.358400  1.0
  H  H372  1  0.731400  0.660600  0.358400  1.0
  H  H373  1  0.231400  0.160600  0.141600  1.0
  H  H374  1  0.768600  0.839400  0.141600  1.0
  H  H375  1  0.731400  0.660600  0.641600  1.0
  H  H376  1  0.268600  0.339400  0.641600  1.0
  H  H377  1  0.815600  0.791900  0.812600  1.0
  H  H378  1  0.184400  0.208100  0.812600  1.0
  H  H379  1  0.315600  0.291900  0.312600  1.0
  H  H380  1  0.684400  0.708100  0.312600  1.0
  H  H381  1  0.184400  0.208100  0.187400  1.0
  H  H382  1  0.815600  0.791900  0.187400  1.0
  H  H383  1  0.684400  0.708100  0.687400  1.0
  H  H384  1  0.315600  0.291900  0.687400  1.0
  H  H385  1  0.769700  0.782900  0.793800  1.0
  H  H386  1  0.230300  0.217100  0.793800  1.0
  H  H387  1  0.269700  0.282900  0.293800  1.0
  H  H388  1  0.730300  0.717100  0.293800  1.0
  H  H389  1  0.230300  0.217100  0.206200  1.0
  H  H390  1  0.769700  0.782900  0.206200  1.0
  H  H391  1  0.730300  0.717100  0.706200  1.0
  H  H392  1  0.269700  0.282900  0.706200  1.0
  H  H393  1  0.949500  0.855700  0.893700  1.0
  H  H394  1  0.050500  0.144300  0.893700  1.0
  H  H395  1  0.449500  0.355700  0.393700  1.0
  H  H396  1  0.550500  0.644300  0.393700  1.0
  H  H397  1  0.050500  0.144300  0.106300  1.0
  H  H398  1  0.949500  0.855700  0.106300  1.0
  H  H399  1  0.550500  0.644300  0.606300  1.0
  H  H400  1  0.449500  0.355700  0.606300  1.0
  H  H401  1  0.948300  0.819100  0.865800  1.0
  H  H402  1  0.051700  0.180900  0.865800  1.0
  H  H403  1  0.448300  0.319100  0.365800  1.0
  H  H404  1  0.551700  0.680900  0.365800  1.0
  H  H405  1  0.051700  0.180900  0.134200  1.0
  H  H406  1  0.948300  0.819100  0.134200  1.0
  H  H407  1  0.551700  0.680900  0.634200  1.0
  H  H408  1  0.448300  0.319100  0.634200  1.0
  H  H409  1  0.901400  0.805200  0.850100  1.0
  H  H410  1  0.098600  0.194800  0.850100  1.0
  H  H411  1  0.401400  0.305200  0.350100  1.0
  H  H412  1  0.598600  0.694800  0.350100  1.0
  H  H413  1  0.098600  0.194800  0.149900  1.0
  H  H414  1  0.901400  0.805200  0.149900  1.0
  H  H415  1  0.598600  0.694800  0.649900  1.0
  H  H416  1  0.401400  0.305200  0.649900  1.0
  H  H417  1  0.632800  0.185000  0.803200  1.0
  H  H418  1  0.367200  0.815000  0.803200  1.0
  H  H419  1  0.132800  0.685000  0.303200  1.0
  H  H420  1  0.867200  0.315000  0.303200  1.0
  H  H421  1  0.367200  0.815000  0.196800  1.0
  H  H422  1  0.632800  0.185000  0.196800  1.0
  H  H423  1  0.867200  0.315000  0.696800  1.0
  H  H424  1  0.132800  0.685000  0.696800  1.0
  H  H425  1  0.587200  0.194500  0.784400  1.0
  H  H426  1  0.412800  0.805500  0.784400  1.0
  H  H427  1  0.087200  0.694500  0.284400  1.0
  H  H428  1  0.912800  0.305500  0.284400  1.0
  H  H429  1  0.412800  0.805500  0.215600  1.0
  H  H430  1  0.587200  0.194500  0.215600  1.0
  H  H431  1  0.912800  0.305500  0.715600  1.0
  H  H432  1  0.087200  0.694500  0.715600  1.0
  H  H433  1  0.634900  0.241900  0.738800  1.0
  H  H434  1  0.365100  0.758100  0.738800  1.0
  H  H435  1  0.134900  0.741900  0.238800  1.0
  H  H436  1  0.865100  0.258100  0.238800  1.0
  H  H437  1  0.365100  0.758100  0.261200  1.0
  H  H438  1  0.634900  0.241900  0.261200  1.0
  H  H439  1  0.865100  0.258100  0.761200  1.0
  H  H440  1  0.134900  0.741900  0.761200  1.0
  H  H441  1  0.680500  0.232300  0.757700  1.0
  H  H442  1  0.319500  0.767700  0.757700  1.0
  H  H443  1  0.180500  0.732300  0.257700  1.0
  H  H444  1  0.819500  0.267700  0.257700  1.0
  H  H445  1  0.319500  0.767700  0.242300  1.0
  H  H446  1  0.680500  0.232300  0.242300  1.0
  H  H447  1  0.819500  0.267700  0.742300  1.0
  H  H448  1  0.180500  0.732300  0.742300  1.0
  H  H449  1  0.367000  0.186000  0.803600  1.0
  H  H450  1  0.633000  0.814000  0.803600  1.0
  H  H451  1  0.867000  0.686000  0.303600  1.0
  H  H452  1  0.133000  0.314000  0.303600  1.0
  H  H453  1  0.633000  0.814000  0.196400  1.0
  H  H454  1  0.367000  0.186000  0.196400  1.0
  H  H455  1  0.133000  0.314000  0.696400  1.0
  H  H456  1  0.867000  0.686000  0.696400  1.0
  H  H457  1  0.412800  0.195500  0.784900  1.0
  H  H458  1  0.587200  0.804500  0.784900  1.0
  H  H459  1  0.912800  0.695500  0.284900  1.0
  H  H460  1  0.087200  0.304500  0.284900  1.0
  H  H461  1  0.587200  0.804500  0.215100  1.0
  H  H462  1  0.412800  0.195500  0.215100  1.0
  H  H463  1  0.087200  0.304500  0.715100  1.0
  H  H464  1  0.912800  0.695500  0.715100  1.0
  H  H465  1  0.365400  0.240400  0.738100  1.0
  H  H466  1  0.634600  0.759600  0.738100  1.0
  H  H467  1  0.865400  0.740400  0.238100  1.0
  H  H468  1  0.134600  0.259600  0.238100  1.0
  H  H469  1  0.634600  0.759600  0.261900  1.0
  H  H470  1  0.365400  0.240400  0.261900  1.0
  H  H471  1  0.134600  0.259600  0.761900  1.0
  H  H472  1  0.865400  0.740400  0.761900  1.0
  H  H473  1  0.319600  0.231000  0.756800  1.0
  H  H474  1  0.680400  0.769000  0.756800  1.0
  H  H475  1  0.819600  0.731000  0.256800  1.0
  H  H476  1  0.180400  0.269000  0.256800  1.0
  H  H477  1  0.680400  0.769000  0.243200  1.0
  H  H478  1  0.319600  0.231000  0.243200  1.0
  H  H479  1  0.180400  0.269000  0.743200  1.0
  H  H480  1  0.819600  0.731000  0.743200  1.0
  H  H481  1  0.547400  0.261700  0.705100  1.0
  H  H482  1  0.452600  0.738300  0.705100  1.0
  H  H483  1  0.047400  0.761700  0.205100  1.0
  H  H484  1  0.952600  0.238300  0.205100  1.0
  H  H485  1  0.452600  0.738300  0.294900  1.0
  H  H486  1  0.547400  0.261700  0.294900  1.0
  H  H487  1  0.952600  0.238300  0.794900  1.0
  H  H488  1  0.047400  0.761700  0.794900  1.0
  H  H489  1  0.501100  0.273900  0.687800  1.0
  H  H490  1  0.498900  0.726100  0.687800  1.0
  H  H491  1  0.001100  0.773900  0.187800  1.0
  H  H492  1  0.998900  0.226100  0.187800  1.0
  H  H493  1  0.498900  0.726100  0.312200  1.0
  H  H494  1  0.501100  0.273900  0.312200  1.0
  H  H495  1  0.998900  0.226100  0.812200  1.0
  H  H496  1  0.001100  0.773900  0.812200  1.0
  H  H497  1  0.454300  0.259500  0.703500  1.0
  H  H498  1  0.545700  0.740500  0.703500  1.0
  H  H499  1  0.954300  0.759500  0.203500  1.0
  H  H500  1  0.045700  0.240500  0.203500  1.0
  H  H501  1  0.545700  0.740500  0.296500  1.0
  H  H502  1  0.454300  0.259500  0.296500  1.0
  H  H503  1  0.045700  0.240500  0.796500  1.0
  H  H504  1  0.954300  0.759500  0.796500  1.0
  H  H505  1  0.671600  0.223200  0.840000  1.0
  H  H506  1  0.328400  0.776800  0.840000  1.0
  H  H507  1  0.171600  0.723200  0.340000  1.0
  H  H508  1  0.828400  0.276800  0.340000  1.0
  H  H509  1  0.328400  0.776800  0.160000  1.0
  H  H510  1  0.671600  0.223200  0.160000  1.0
  H  H511  1  0.828400  0.276800  0.660000  1.0
  H  H512  1  0.171600  0.723200  0.660000  1.0
  H  H513  1  0.661900  0.268800  0.858900  1.0
  H  H514  1  0.338100  0.731200  0.858900  1.0
  H  H515  1  0.161900  0.768800  0.358900  1.0
  H  H516  1  0.838100  0.231200  0.358900  1.0
  H  H517  1  0.338100  0.731200  0.141100  1.0
  H  H518  1  0.661900  0.268800  0.141100  1.0
  H  H519  1  0.838100  0.231200  0.641100  1.0
  H  H520  1  0.161900  0.768800  0.641100  1.0
  H  H521  1  0.707000  0.316800  0.812300  1.0
  H  H522  1  0.293000  0.683200  0.812300  1.0
  H  H523  1  0.207000  0.816800  0.312300  1.0
  H  H524  1  0.793000  0.183200  0.312300  1.0
  H  H525  1  0.293000  0.683200  0.187700  1.0
  H  H526  1  0.707000  0.316800  0.187700  1.0
  H  H527  1  0.793000  0.183200  0.687700  1.0
  H  H528  1  0.207000  0.816800  0.687700  1.0
  H  H529  1  0.716600  0.271300  0.793500  1.0
  H  H530  1  0.283400  0.728700  0.793500  1.0
  H  H531  1  0.216600  0.771300  0.293500  1.0
  H  H532  1  0.783400  0.228700  0.293500  1.0
  H  H533  1  0.283400  0.728700  0.206500  1.0
  H  H534  1  0.716600  0.271300  0.206500  1.0
  H  H535  1  0.783400  0.228700  0.706500  1.0
  H  H536  1  0.216600  0.771300  0.706500  1.0
  H  H537  1  0.536900  0.356400  0.974300  1.0
  H  H538  1  0.463100  0.643600  0.974300  1.0
  H  H539  1  0.036900  0.856400  0.474300  1.0
  H  H540  1  0.963100  0.143600  0.474300  1.0
  H  H541  1  0.463100  0.643600  0.025700  1.0
  H  H542  1  0.536900  0.356400  0.025700  1.0
  H  H543  1  0.963100  0.143600  0.525700  1.0
  H  H544  1  0.036900  0.856400  0.525700  1.0
  H  H545  1  0.573600  0.356200  0.946600  1.0
  H  H546  1  0.426400  0.643800  0.946600  1.0
  H  H547  1  0.073600  0.856200  0.446600  1.0
  H  H548  1  0.926400  0.143800  0.446600  1.0
  H  H549  1  0.426400  0.643800  0.053400  1.0
  H  H550  1  0.573600  0.356200  0.053400  1.0
  H  H551  1  0.926400  0.143800  0.553400  1.0
  H  H552  1  0.073600  0.856200  0.553400  1.0
  H  H553  1  0.573600  0.449200  0.946200  1.0
  H  H554  1  0.426400  0.550800  0.946200  1.0
  H  H555  1  0.073600  0.949200  0.446200  1.0
  H  H556  1  0.926400  0.050800  0.446200  1.0
  H  H557  1  0.426400  0.550800  0.053800  1.0
  H  H558  1  0.573600  0.449200  0.053800  1.0
  H  H559  1  0.926400  0.050800  0.553800  1.0
  H  H560  1  0.073600  0.949200  0.553800  1.0
  H  H561  1  0.536800  0.449500  0.973900  1.0
  H  H562  1  0.463200  0.550500  0.973900  1.0
  H  H563  1  0.036800  0.949500  0.473900  1.0
  H  H564  1  0.963200  0.050500  0.473900  1.0
  H  H565  1  0.463200  0.550500  0.026100  1.0
  H  H566  1  0.536800  0.449500  0.026100  1.0
  H  H567  1  0.963200  0.050500  0.526100  1.0
  H  H568  1  0.036800  0.949500  0.526100  1.0
  H  H569  1  0.688900  0.400200  0.845700  1.0
  H  H570  1  0.311100  0.599800  0.845700  1.0
  H  H571  1  0.188900  0.900200  0.345700  1.0
  H  H572  1  0.811100  0.099800  0.345700  1.0
  H  H573  1  0.311100  0.599800  0.154300  1.0
  H  H574  1  0.688900  0.400200  0.154300  1.0
  H  H575  1  0.811100  0.099800  0.654300  1.0
  H  H576  1  0.188900  0.900200  0.654300  1.0
  H  H577  1  0.676900  0.447700  0.861300  1.0
  H  H578  1  0.323100  0.552300  0.861300  1.0
  H  H579  1  0.176900  0.947700  0.361300  1.0
  H  H580  1  0.823100  0.052300  0.361300  1.0
  H  H581  1  0.323100  0.552300  0.138700  1.0
  H  H582  1  0.676900  0.447700  0.138700  1.0
  H  H583  1  0.823100  0.052300  0.638700  1.0
  H  H584  1  0.176900  0.947700  0.638700  1.0
  H  H585  1  0.645300  0.449900  0.892000  1.0
  H  H586  1  0.354700  0.550100  0.892000  1.0
  H  H587  1  0.145300  0.949900  0.392000  1.0
  H  H588  1  0.854700  0.050100  0.392000  1.0
  H  H589  1  0.354700  0.550100  0.108000  1.0
  H  H590  1  0.645300  0.449900  0.108000  1.0
  H  H591  1  0.854700  0.050100  0.608000  1.0
  H  H592  1  0.145300  0.949900  0.608000  1.0
  H  H593  1  0.462100  0.355400  0.971900  1.0
  H  H594  1  0.537900  0.644600  0.971900  1.0
  H  H595  1  0.962100  0.855400  0.471900  1.0
  H  H596  1  0.037900  0.144600  0.471900  1.0
  H  H597  1  0.537900  0.644600  0.028100  1.0
  H  H598  1  0.462100  0.355400  0.028100  1.0
  H  H599  1  0.037900  0.144600  0.528100  1.0
  H  H600  1  0.962100  0.855400  0.528100  1.0
  H  H601  1  0.425400  0.358300  0.944300  1.0
  H  H602  1  0.574600  0.641700  0.944300  1.0
  H  H603  1  0.925400  0.858300  0.444300  1.0
  H  H604  1  0.074600  0.141700  0.444300  1.0
  H  H605  1  0.574600  0.641700  0.055700  1.0
  H  H606  1  0.425400  0.358300  0.055700  1.0
  H  H607  1  0.074600  0.141700  0.555700  1.0
  H  H608  1  0.925400  0.858300  0.555700  1.0
  H  H609  1  0.426900  0.451200  0.948400  1.0
  H  H610  1  0.573100  0.548800  0.948400  1.0
  H  H611  1  0.926900  0.951200  0.448400  1.0
  H  H612  1  0.073100  0.048800  0.448400  1.0
  H  H613  1  0.573100  0.548800  0.051600  1.0
  H  H614  1  0.426900  0.451200  0.051600  1.0
  H  H615  1  0.073100  0.048800  0.551600  1.0
  H  H616  1  0.926900  0.951200  0.551600  1.0
  H  H617  1  0.463700  0.448200  0.976000  1.0
  H  H618  1  0.536300  0.551800  0.976000  1.0
  H  H619  1  0.963700  0.948200  0.476000  1.0
  H  H620  1  0.036300  0.051800  0.476000  1.0
  H  H621  1  0.536300  0.551800  0.024000  1.0
  H  H622  1  0.463700  0.448200  0.024000  1.0
  H  H623  1  0.036300  0.051800  0.524000  1.0
  H  H624  1  0.963700  0.948200  0.524000  1.0
  H  H625  1  0.329300  0.223400  0.840500  1.0
  H  H626  1  0.670700  0.776600  0.840500  1.0
  H  H627  1  0.829300  0.723400  0.340500  1.0
  H  H628  1  0.170700  0.276600  0.340500  1.0
  H  H629  1  0.670700  0.776600  0.159500  1.0
  H  H630  1  0.329300  0.223400  0.159500  1.0
  H  H631  1  0.170700  0.276600  0.659500  1.0
  H  H632  1  0.829300  0.723400  0.659500  1.0
  H  H633  1  0.338800  0.269800  0.858400  1.0
  H  H634  1  0.661200  0.730200  0.858400  1.0
  H  H635  1  0.838800  0.769800  0.358400  1.0
  H  H636  1  0.161200  0.230200  0.358400  1.0
  H  H637  1  0.661200  0.730200  0.141600  1.0
  H  H638  1  0.338800  0.269800  0.141600  1.0
  H  H639  1  0.161200  0.230200  0.641600  1.0
  H  H640  1  0.838800  0.769800  0.641600  1.0
  H  H641  1  0.292100  0.315600  0.811600  1.0
  H  H642  1  0.707900  0.684400  0.811600  1.0
  H  H643  1  0.792100  0.815600  0.311600  1.0
  H  H644  1  0.207900  0.184400  0.311600  1.0
  H  H645  1  0.707900  0.684400  0.188400  1.0
  H  H646  1  0.292100  0.315600  0.188400  1.0
  H  H647  1  0.207900  0.184400  0.688400  1.0
  H  H648  1  0.792100  0.815600  0.688400  1.0
  H  H649  1  0.282600  0.269100  0.793700  1.0
  H  H650  1  0.717400  0.730900  0.793700  1.0
  H  H651  1  0.782600  0.769100  0.293700  1.0
  H  H652  1  0.217400  0.230900  0.293700  1.0
  H  H653  1  0.717400  0.730900  0.206300  1.0
  H  H654  1  0.282600  0.269100  0.206300  1.0
  H  H655  1  0.217400  0.230900  0.706300  1.0
  H  H656  1  0.782600  0.769100  0.706300  1.0
  H  H657  1  0.354300  0.449100  0.893000  1.0
  H  H658  1  0.645700  0.550900  0.893000  1.0
  H  H659  1  0.854300  0.949100  0.393000  1.0
  H  H660  1  0.145700  0.050900  0.393000  1.0
  H  H661  1  0.645700  0.550900  0.107000  1.0
  H  H662  1  0.354300  0.449100  0.107000  1.0
  H  H663  1  0.145700  0.050900  0.607000  1.0
  H  H664  1  0.854300  0.949100  0.607000  1.0
  H  H665  1  0.321800  0.447300  0.862800  1.0
  H  H666  1  0.678200  0.552700  0.862800  1.0
  H  H667  1  0.821800  0.947300  0.362800  1.0
  H  H668  1  0.178200  0.052700  0.362800  1.0
  H  H669  1  0.678200  0.552700  0.137200  1.0
  H  H670  1  0.321800  0.447300  0.137200  1.0
  H  H671  1  0.178200  0.052700  0.637200  1.0
  H  H672  1  0.821800  0.947300  0.637200  1.0
  H  H673  1  0.309700  0.400100  0.846800  1.0
  H  H674  1  0.690300  0.599900  0.846800  1.0
  H  H675  1  0.809700  0.900100  0.346800  1.0
  H  H676  1  0.190300  0.099900  0.346800  1.0
  H  H677  1  0.690300  0.599900  0.153200  1.0
  H  H678  1  0.309700  0.400100  0.153200  1.0
  H  H679  1  0.190300  0.099900  0.653200  1.0
  H  H680  1  0.809700  0.900100  0.653200  1.0
  Pd  Pd681  1  0.903650  0.999910  0.000000  1.0
  Pd  Pd682  1  0.096350  0.000090  0.000000  1.0
  Pd  Pd683  1  0.403650  0.499910  0.500000  1.0
  Pd  Pd684  1  0.596350  0.500090  0.500000  1.0
  Pd  Pd685  1  0.499990  0.403730  0.000000  1.0
  Pd  Pd686  1  0.500010  0.596270  0.000000  1.0
  Pd  Pd687  1  0.999990  0.903730  0.500000  1.0
  Pd  Pd688  1  0.000010  0.096270  0.500000  1.0
  Pd  Pd689  1  0.701860  0.798180  0.798160  1.0
  Pd  Pd690  1  0.298140  0.201820  0.798160  1.0
  Pd  Pd691  1  0.201860  0.298180  0.298160  1.0
  Pd  Pd692  1  0.798140  0.701820  0.298160  1.0
  Pd  Pd693  1  0.298140  0.201820  0.201840  1.0
  Pd  Pd694  1  0.701860  0.798180  0.201840  1.0
  Pd  Pd695  1  0.798140  0.701820  0.701840  1.0
  Pd  Pd696  1  0.201860  0.298180  0.701840  1.0
  Pd  Pd697  1  0.701830  0.201830  0.798170  1.0
  Pd  Pd698  1  0.298170  0.798170  0.798170  1.0
  Pd  Pd699  1  0.201830  0.701830  0.298170  1.0
  Pd  Pd700  1  0.798170  0.298170  0.298170  1.0
  Pd  Pd701  1  0.298170  0.798170  0.201830  1.0
  Pd  Pd702  1  0.701830  0.201830  0.201830  1.0
  Pd  Pd703  1  0.798170  0.298170  0.701830  1.0
  Pd  Pd704  1  0.201830  0.701830  0.701830  1.0
  C  C705  1  0.697500  0.865900  0.790700  1.0
  C  C706  1  0.302500  0.134100  0.790700  1.0
  C  C707  1  0.197500  0.365900  0.290700  1.0
  C  C708  1  0.802500  0.634100  0.290700  1.0
  C  C709  1  0.302500  0.134100  0.209300  1.0
  C  C710  1  0.697500  0.865900  0.209300  1.0
  C  C711  1  0.802500  0.634100  0.709300  1.0
  C  C712  1  0.197500  0.365900  0.709300  1.0
  C  C713  1  0.702600  0.893300  0.779400  1.0
  C  C714  1  0.297400  0.106700  0.779400  1.0
  C  C715  1  0.202600  0.393300  0.279400  1.0
  C  C716  1  0.797400  0.606700  0.279400  1.0
  C  C717  1  0.297400  0.106700  0.220600  1.0
  C  C718  1  0.702600  0.893300  0.220600  1.0
  C  C719  1  0.797400  0.606700  0.720600  1.0
  C  C720  1  0.202600  0.393300  0.720600  1.0
  C  C721  1  0.718000  0.892800  0.759400  1.0
  C  C722  1  0.282000  0.107200  0.759400  1.0
  C  C723  1  0.218000  0.392800  0.259400  1.0
  C  C724  1  0.782000  0.607200  0.259400  1.0
  C  C725  1  0.282000  0.107200  0.240600  1.0
  C  C726  1  0.718000  0.892800  0.240600  1.0
  C  C727  1  0.782000  0.607200  0.740600  1.0
  C  C728  1  0.218000  0.392800  0.740600  1.0
  C  C729  1  0.728400  0.864900  0.750800  1.0
  C  C730  1  0.271600  0.135100  0.750800  1.0
  C  C731  1  0.228400  0.364900  0.250800  1.0
  C  C732  1  0.771600  0.635100  0.250800  1.0
  C  C733  1  0.271600  0.135100  0.249200  1.0
  C  C734  1  0.728400  0.864900  0.249200  1.0
  C  C735  1  0.771600  0.635100  0.749200  1.0
  C  C736  1  0.228400  0.364900  0.749200  1.0
  C  C737  1  0.723300  0.837500  0.762200  1.0
  C  C738  1  0.276700  0.162500  0.762200  1.0
  C  C739  1  0.223300  0.337500  0.262200  1.0
  C  C740  1  0.776700  0.662500  0.262200  1.0
  C  C741  1  0.276700  0.162500  0.237800  1.0
  C  C742  1  0.723300  0.837500  0.237800  1.0
  C  C743  1  0.776700  0.662500  0.737800  1.0
  C  C744  1  0.223300  0.337500  0.737800  1.0
  C  C745  1  0.697600  0.133700  0.790500  1.0
  C  C746  1  0.302400  0.866300  0.790500  1.0
  C  C747  1  0.197600  0.633700  0.290500  1.0
  C  C748  1  0.802400  0.366300  0.290500  1.0
  C  C749  1  0.302400  0.866300  0.209500  1.0
  C  C750  1  0.697600  0.133700  0.209500  1.0
  C  C751  1  0.802400  0.366300  0.709500  1.0
  C  C752  1  0.197600  0.633700  0.709500  1.0
  C  C753  1  0.702600  0.106500  0.778900  1.0
  C  C754  1  0.297400  0.893500  0.778900  1.0
  C  C755  1  0.202600  0.606500  0.278900  1.0
  C  C756  1  0.797400  0.393500  0.278900  1.0
  C  C757  1  0.297400  0.893500  0.221100  1.0
  C  C758  1  0.702600  0.106500  0.221100  1.0
  C  C759  1  0.797400  0.393500  0.721100  1.0
  C  C760  1  0.202600  0.606500  0.721100  1.0
  C  C761  1  0.718500  0.107300  0.759100  1.0
  C  C762  1  0.281500  0.892700  0.759100  1.0
  C  C763  1  0.218500  0.607300  0.259100  1.0
  C  C764  1  0.781500  0.392700  0.259100  1.0
  C  C765  1  0.281500  0.892700  0.240900  1.0
  C  C766  1  0.718500  0.107300  0.240900  1.0
  C  C767  1  0.781500  0.392700  0.740900  1.0
  C  C768  1  0.218500  0.607300  0.740900  1.0
  C  C769  1  0.729400  0.135300  0.750900  1.0
  C  C770  1  0.270600  0.864700  0.750900  1.0
  C  C771  1  0.229400  0.635300  0.250900  1.0
  C  C772  1  0.770600  0.364700  0.250900  1.0
  C  C773  1  0.270600  0.864700  0.249100  1.0
  C  C774  1  0.729400  0.135300  0.249100  1.0
  C  C775  1  0.770600  0.364700  0.749100  1.0
  C  C776  1  0.229400  0.635300  0.749100  1.0
  C  C777  1  0.724300  0.162600  0.762500  1.0
  C  C778  1  0.275700  0.837400  0.762500  1.0
  C  C779  1  0.224300  0.662600  0.262500  1.0
  C  C780  1  0.775700  0.337400  0.262500  1.0
  C  C781  1  0.275700  0.837400  0.237500  1.0
  C  C782  1  0.724300  0.162600  0.237500  1.0
  C  C783  1  0.775700  0.337400  0.737500  1.0
  C  C784  1  0.224300  0.662600  0.737500  1.0
  C  C785  1  0.722400  0.922000  0.749400  1.0
  C  C786  1  0.277600  0.078000  0.749400  1.0
  C  C787  1  0.222400  0.422000  0.249400  1.0
  C  C788  1  0.777600  0.578000  0.249400  1.0
  C  C789  1  0.277600  0.078000  0.250600  1.0
  C  C790  1  0.722400  0.922000  0.250600  1.0
  C  C791  1  0.777600  0.578000  0.750600  1.0
  C  C792  1  0.222400  0.422000  0.750600  1.0
  C  C793  1  0.726800  0.946500  0.740200  1.0
  C  C794  1  0.273200  0.053500  0.740200  1.0
  C  C795  1  0.226800  0.446500  0.240200  1.0
  C  C796  1  0.773200  0.553500  0.240200  1.0
  C  C797  1  0.273200  0.053500  0.259800  1.0
  C  C798  1  0.726800  0.946500  0.259800  1.0
  C  C799  1  0.773200  0.553500  0.759800  1.0
  C  C800  1  0.226800  0.446500  0.759800  1.0
  C  C801  1  0.722500  0.076600  0.751800  1.0
  C  C802  1  0.277500  0.923400  0.751800  1.0
  C  C803  1  0.222500  0.576600  0.251800  1.0
  C  C804  1  0.777500  0.423400  0.251800  1.0
  C  C805  1  0.277500  0.923400  0.248200  1.0
  C  C806  1  0.722500  0.076600  0.248200  1.0
  C  C807  1  0.777500  0.423400  0.748200  1.0
  C  C808  1  0.222500  0.576600  0.748200  1.0
  C  C809  1  0.725800  0.056800  0.737800  1.0
  C  C810  1  0.274200  0.943200  0.737800  1.0
  C  C811  1  0.225800  0.556800  0.237800  1.0
  C  C812  1  0.774200  0.443200  0.237800  1.0
  C  C813  1  0.274200  0.943200  0.262200  1.0
  C  C814  1  0.725800  0.056800  0.262200  1.0
  C  C815  1  0.774200  0.443200  0.762200  1.0
  C  C816  1  0.225800  0.556800  0.762200  1.0
  C  C817  1  0.739700  0.971500  0.727800  1.0
  C  C818  1  0.260300  0.028500  0.727800  1.0
  C  C819  1  0.239700  0.471500  0.227800  1.0
  C  C820  1  0.760300  0.528500  0.227800  1.0
  C  C821  1  0.260300  0.028500  0.272200  1.0
  C  C822  1  0.739700  0.971500  0.272200  1.0
  C  C823  1  0.760300  0.528500  0.772200  1.0
  C  C824  1  0.239700  0.471500  0.772200  1.0
  C  C825  1  0.757000  0.974700  0.708700  1.0
  C  C826  1  0.243000  0.025300  0.708700  1.0
  C  C827  1  0.257000  0.474700  0.208700  1.0
  C  C828  1  0.743000  0.525300  0.208700  1.0
  C  C829  1  0.243000  0.025300  0.291300  1.0
  C  C830  1  0.757000  0.974700  0.291300  1.0
  C  C831  1  0.743000  0.525300  0.791300  1.0
  C  C832  1  0.257000  0.474700  0.791300  1.0
  C  C833  1  0.764000  0.004100  0.700800  1.0
  C  C834  1  0.236000  0.995900  0.700800  1.0
  C  C835  1  0.264000  0.504100  0.200800  1.0
  C  C836  1  0.736000  0.495900  0.200800  1.0
  C  C837  1  0.236000  0.995900  0.299200  1.0
  C  C838  1  0.764000  0.004100  0.299200  1.0
  C  C839  1  0.736000  0.495900  0.799200  1.0
  C  C840  1  0.264000  0.504100  0.799200  1.0
  C  C841  1  0.753700  0.030200  0.711900  1.0
  C  C842  1  0.246300  0.969800  0.711900  1.0
  C  C843  1  0.253700  0.530200  0.211900  1.0
  C  C844  1  0.746300  0.469800  0.211900  1.0
  C  C845  1  0.246300  0.969800  0.288100  1.0
  C  C846  1  0.753700  0.030200  0.288100  1.0
  C  C847  1  0.746300  0.469800  0.788100  1.0
  C  C848  1  0.253700  0.530200  0.788100  1.0
  C  C849  1  0.736400  0.027000  0.730900  1.0
  C  C850  1  0.263600  0.973000  0.730900  1.0
  C  C851  1  0.236400  0.527000  0.230900  1.0
  C  C852  1  0.763600  0.473000  0.230900  1.0
  C  C853  1  0.263600  0.973000  0.269100  1.0
  C  C854  1  0.736400  0.027000  0.269100  1.0
  C  C855  1  0.763600  0.473000  0.769100  1.0
  C  C856  1  0.236400  0.527000  0.769100  1.0
  C  C857  1  0.741000  0.177400  0.833500  1.0
  C  C858  1  0.259000  0.822600  0.833500  1.0
  C  C859  1  0.241000  0.677400  0.333500  1.0
  C  C860  1  0.759000  0.322600  0.333500  1.0
  C  C861  1  0.259000  0.822600  0.166500  1.0
  C  C862  1  0.741000  0.177400  0.166500  1.0
  C  C863  1  0.759000  0.322600  0.666500  1.0
  C  C864  1  0.241000  0.677400  0.666500  1.0
  C  C865  1  0.768000  0.171500  0.845100  1.0
  C  C866  1  0.232000  0.828500  0.845100  1.0
  C  C867  1  0.268000  0.671500  0.345100  1.0
  C  C868  1  0.732000  0.328500  0.345100  1.0
  C  C869  1  0.232000  0.828500  0.154900  1.0
  C  C870  1  0.768000  0.171500  0.154900  1.0
  C  C871  1  0.732000  0.328500  0.654900  1.0
  C  C872  1  0.268000  0.671500  0.654900  1.0
  C  C873  1  0.796200  0.182900  0.837600  1.0
  C  C874  1  0.203800  0.817100  0.837600  1.0
  C  C875  1  0.296200  0.682900  0.337600  1.0
  C  C876  1  0.703800  0.317100  0.337600  1.0
  C  C877  1  0.203800  0.817100  0.162400  1.0
  C  C878  1  0.796200  0.182900  0.162400  1.0
  C  C879  1  0.703800  0.317100  0.662400  1.0
  C  C880  1  0.296200  0.682900  0.662400  1.0
  C  C881  1  0.797300  0.200400  0.818400  1.0
  C  C882  1  0.202700  0.799600  0.818400  1.0
  C  C883  1  0.297300  0.700400  0.318400  1.0
  C  C884  1  0.702700  0.299600  0.318400  1.0
  C  C885  1  0.202700  0.799600  0.181600  1.0
  C  C886  1  0.797300  0.200400  0.181600  1.0
  C  C887  1  0.702700  0.299600  0.681600  1.0
  C  C888  1  0.297300  0.700400  0.681600  1.0
  C  C889  1  0.770300  0.206300  0.806800  1.0
  C  C890  1  0.229700  0.793700  0.806800  1.0
  C  C891  1  0.270300  0.706300  0.306800  1.0
  C  C892  1  0.729700  0.293700  0.306800  1.0
  C  C893  1  0.229700  0.793700  0.193200  1.0
  C  C894  1  0.770300  0.206300  0.193200  1.0
  C  C895  1  0.729700  0.293700  0.693200  1.0
  C  C896  1  0.270300  0.706300  0.693200  1.0
  C  C897  1  0.875300  0.044100  0.969000  1.0
  C  C898  1  0.124700  0.955900  0.969000  1.0
  C  C899  1  0.375300  0.544100  0.469000  1.0
  C  C900  1  0.624700  0.455900  0.469000  1.0
  C  C901  1  0.124700  0.955900  0.031000  1.0
  C  C902  1  0.875300  0.044100  0.031000  1.0
  C  C903  1  0.624700  0.455900  0.531000  1.0
  C  C904  1  0.375300  0.544100  0.531000  1.0
  C  C905  1  0.873900  0.065800  0.952200  1.0
  C  C906  1  0.126100  0.934200  0.952200  1.0
  C  C907  1  0.373900  0.565800  0.452200  1.0
  C  C908  1  0.626100  0.434200  0.452200  1.0
  C  C909  1  0.126100  0.934200  0.047800  1.0
  C  C910  1  0.873900  0.065800  0.047800  1.0
  C  C911  1  0.626100  0.434200  0.547800  1.0
  C  C912  1  0.373900  0.565800  0.547800  1.0
  C  C913  1  0.901100  0.077100  0.943000  1.0
  C  C914  1  0.098900  0.922900  0.943000  1.0
  C  C915  1  0.401100  0.577100  0.443000  1.0
  C  C916  1  0.598900  0.422900  0.443000  1.0
  C  C917  1  0.098900  0.922900  0.057000  1.0
  C  C918  1  0.901100  0.077100  0.057000  1.0
  C  C919  1  0.598900  0.422900  0.557000  1.0
  C  C920  1  0.401100  0.577100  0.557000  1.0
  C  C921  1  0.929600  0.066700  0.950500  1.0
  C  C922  1  0.070400  0.933300  0.950500  1.0
  C  C923  1  0.429600  0.566700  0.450500  1.0
  C  C924  1  0.570400  0.433300  0.450500  1.0
  C  C925  1  0.070400  0.933300  0.049500  1.0
  C  C926  1  0.929600  0.066700  0.049500  1.0
  C  C927  1  0.570400  0.433300  0.549500  1.0
  C  C928  1  0.429600  0.566700  0.549500  1.0
  C  C929  1  0.931000  0.045000  0.967300  1.0
  C  C930  1  0.069000  0.955000  0.967300  1.0
  C  C931  1  0.431000  0.545000  0.467300  1.0
  C  C932  1  0.569000  0.455000  0.467300  1.0
  C  C933  1  0.069000  0.955000  0.032700  1.0
  C  C934  1  0.931000  0.045000  0.032700  1.0
  C  C935  1  0.569000  0.455000  0.532700  1.0
  C  C936  1  0.431000  0.545000  0.532700  1.0
  C  C937  1  0.821200  0.177500  0.849700  1.0
  C  C938  1  0.178800  0.822500  0.849700  1.0
  C  C939  1  0.321200  0.677500  0.349700  1.0
  C  C940  1  0.678800  0.322500  0.349700  1.0
  C  C941  1  0.178800  0.822500  0.150300  1.0
  C  C942  1  0.821200  0.177500  0.150300  1.0
  C  C943  1  0.678800  0.322500  0.650300  1.0
  C  C944  1  0.321200  0.677500  0.650300  1.0
  C  C945  1  0.845500  0.174600  0.859600  1.0
  C  C946  1  0.154500  0.825400  0.859600  1.0
  C  C947  1  0.345500  0.674600  0.359600  1.0
  C  C948  1  0.654500  0.325400  0.359600  1.0
  C  C949  1  0.154500  0.825400  0.140400  1.0
  C  C950  1  0.845500  0.174600  0.140400  1.0
  C  C951  1  0.654500  0.325400  0.640400  1.0
  C  C952  1  0.345500  0.674600  0.640400  1.0
  C  C953  1  0.899000  0.100100  0.925200  1.0
  C  C954  1  0.101000  0.899900  0.925200  1.0
  C  C955  1  0.399000  0.600100  0.425200  1.0
  C  C956  1  0.601000  0.399900  0.425200  1.0
  C  C957  1  0.101000  0.899900  0.074800  1.0
  C  C958  1  0.899000  0.100100  0.074800  1.0
  C  C959  1  0.601000  0.399900  0.574800  1.0
  C  C960  1  0.399000  0.600100  0.574800  1.0
  C  C961  1  0.902100  0.122000  0.912900  1.0
  C  C962  1  0.097900  0.878000  0.912900  1.0
  C  C963  1  0.402100  0.622000  0.412900  1.0
  C  C964  1  0.597900  0.378000  0.412900  1.0
  C  C965  1  0.097900  0.878000  0.087100  1.0
  C  C966  1  0.902100  0.122000  0.087100  1.0
  C  C967  1  0.597900  0.378000  0.587100  1.0
  C  C968  1  0.402100  0.622000  0.587100  1.0
  C  C969  1  0.873900  0.165300  0.868900  1.0
  C  C970  1  0.126100  0.834700  0.868900  1.0
  C  C971  1  0.373900  0.665300  0.368900  1.0
  C  C972  1  0.626100  0.334700  0.368900  1.0
  C  C973  1  0.126100  0.834700  0.131100  1.0
  C  C974  1  0.873900  0.165300  0.131100  1.0
  C  C975  1  0.626100  0.334700  0.631100  1.0
  C  C976  1  0.373900  0.665300  0.631100  1.0
  C  C977  1  0.900900  0.179700  0.861900  1.0
  C  C978  1  0.099100  0.820300  0.861900  1.0
  C  C979  1  0.400900  0.679700  0.361900  1.0
  C  C980  1  0.599100  0.320300  0.361900  1.0
  C  C981  1  0.099100  0.820300  0.138100  1.0
  C  C982  1  0.900900  0.179700  0.138100  1.0
  C  C983  1  0.599100  0.320300  0.638100  1.0
  C  C984  1  0.400900  0.679700  0.638100  1.0
  C  C985  1  0.929000  0.172900  0.871800  1.0
  C  C986  1  0.071000  0.827100  0.871800  1.0
  C  C987  1  0.429000  0.672900  0.371800  1.0
  C  C988  1  0.571000  0.327100  0.371800  1.0
  C  C989  1  0.071000  0.827100  0.128200  1.0
  C  C990  1  0.929000  0.172900  0.128200  1.0
  C  C991  1  0.571000  0.327100  0.628200  1.0
  C  C992  1  0.429000  0.672900  0.628200  1.0
  C  C993  1  0.930200  0.151400  0.888800  1.0
  C  C994  1  0.069800  0.848600  0.888800  1.0
  C  C995  1  0.430200  0.651400  0.388800  1.0
  C  C996  1  0.569800  0.348600  0.388800  1.0
  C  C997  1  0.069800  0.848600  0.111200  1.0
  C  C998  1  0.930200  0.151400  0.111200  1.0
  C  C999  1  0.569800  0.348600  0.611200  1.0
  C  C1000  1  0.430200  0.651400  0.611200  1.0
  C  C1001  1  0.903200  0.137000  0.895900  1.0
  C  C1002  1  0.096800  0.863000  0.895900  1.0
  C  C1003  1  0.403200  0.637000  0.395900  1.0
  C  C1004  1  0.596800  0.363000  0.395900  1.0
  C  C1005  1  0.096800  0.863000  0.104100  1.0
  C  C1006  1  0.903200  0.137000  0.104100  1.0
  C  C1007  1  0.596800  0.363000  0.604100  1.0
  C  C1008  1  0.403200  0.637000  0.604100  1.0
  C  C1009  1  0.874700  0.955600  0.968900  1.0
  C  C1010  1  0.125300  0.044400  0.968900  1.0
  C  C1011  1  0.374700  0.455600  0.468900  1.0
  C  C1012  1  0.625300  0.544400  0.468900  1.0
  C  C1013  1  0.125300  0.044400  0.031100  1.0
  C  C1014  1  0.874700  0.955600  0.031100  1.0
  C  C1015  1  0.625300  0.544400  0.531100  1.0
  C  C1016  1  0.374700  0.455600  0.531100  1.0
  C  C1017  1  0.874200  0.933300  0.952600  1.0
  C  C1018  1  0.125800  0.066700  0.952600  1.0
  C  C1019  1  0.374200  0.433300  0.452600  1.0
  C  C1020  1  0.625800  0.566700  0.452600  1.0
  C  C1021  1  0.125800  0.066700  0.047400  1.0
  C  C1022  1  0.874200  0.933300  0.047400  1.0
  C  C1023  1  0.625800  0.566700  0.547400  1.0
  C  C1024  1  0.374200  0.433300  0.547400  1.0
  C  C1025  1  0.901900  0.922000  0.944100  1.0
  C  C1026  1  0.098100  0.078000  0.944100  1.0
  C  C1027  1  0.401900  0.422000  0.444100  1.0
  C  C1028  1  0.598100  0.578000  0.444100  1.0
  C  C1029  1  0.098100  0.078000  0.055900  1.0
  C  C1030  1  0.901900  0.922000  0.055900  1.0
  C  C1031  1  0.598100  0.578000  0.555900  1.0
  C  C1032  1  0.401900  0.422000  0.555900  1.0
  C  C1033  1  0.930000  0.933200  0.951900  1.0
  C  C1034  1  0.070000  0.066800  0.951900  1.0
  C  C1035  1  0.430000  0.433200  0.451900  1.0
  C  C1036  1  0.570000  0.566800  0.451900  1.0
  C  C1037  1  0.070000  0.066800  0.048100  1.0
  C  C1038  1  0.930000  0.933200  0.048100  1.0
  C  C1039  1  0.570000  0.566800  0.548100  1.0
  C  C1040  1  0.430000  0.433200  0.548100  1.0
  C  C1041  1  0.930400  0.955600  0.968300  1.0
  C  C1042  1  0.069600  0.044400  0.968300  1.0
  C  C1043  1  0.430400  0.455600  0.468300  1.0
  C  C1044  1  0.569600  0.544400  0.468300  1.0
  C  C1045  1  0.069600  0.044400  0.031700  1.0
  C  C1046  1  0.930400  0.955600  0.031700  1.0
  C  C1047  1  0.569600  0.544400  0.531700  1.0
  C  C1048  1  0.430400  0.455600  0.531700  1.0
  C  C1049  1  0.741300  0.822700  0.834200  1.0
  C  C1050  1  0.258700  0.177300  0.834200  1.0
  C  C1051  1  0.241300  0.322700  0.334200  1.0
  C  C1052  1  0.758700  0.677300  0.334200  1.0
  C  C1053  1  0.258700  0.177300  0.165800  1.0
  C  C1054  1  0.741300  0.822700  0.165800  1.0
  C  C1055  1  0.758700  0.677300  0.665800  1.0
  C  C1056  1  0.241300  0.322700  0.665800  1.0
  C  C1057  1  0.768800  0.828100  0.845500  1.0
  C  C1058  1  0.231200  0.171900  0.845500  1.0
  C  C1059  1  0.268800  0.328100  0.345500  1.0
  C  C1060  1  0.731200  0.671900  0.345500  1.0
  C  C1061  1  0.231200  0.171900  0.154500  1.0
  C  C1062  1  0.768800  0.828100  0.154500  1.0
  C  C1063  1  0.731200  0.671900  0.654500  1.0
  C  C1064  1  0.268800  0.328100  0.654500  1.0
  C  C1065  1  0.796600  0.816600  0.837400  1.0
  C  C1066  1  0.203400  0.183400  0.837400  1.0
  C  C1067  1  0.296600  0.316600  0.337400  1.0
  C  C1068  1  0.703400  0.683400  0.337400  1.0
  C  C1069  1  0.203400  0.183400  0.162600  1.0
  C  C1070  1  0.796600  0.816600  0.162600  1.0
  C  C1071  1  0.703400  0.683400  0.662600  1.0
  C  C1072  1  0.296600  0.316600  0.662600  1.0
  C  C1073  1  0.797000  0.799600  0.818000  1.0
  C  C1074  1  0.203000  0.200400  0.818000  1.0
  C  C1075  1  0.297000  0.299600  0.318000  1.0
  C  C1076  1  0.703000  0.700400  0.318000  1.0
  C  C1077  1  0.203000  0.200400  0.182000  1.0
  C  C1078  1  0.797000  0.799600  0.182000  1.0
  C  C1079  1  0.703000  0.700400  0.682000  1.0
  C  C1080  1  0.297000  0.299600  0.682000  1.0
  C  C1081  1  0.769500  0.794200  0.806800  1.0
  C  C1082  1  0.230500  0.205800  0.806800  1.0
  C  C1083  1  0.269500  0.294200  0.306800  1.0
  C  C1084  1  0.730500  0.705800  0.306800  1.0
  C  C1085  1  0.230500  0.205800  0.193200  1.0
  C  C1086  1  0.769500  0.794200  0.193200  1.0
  C  C1087  1  0.730500  0.705800  0.693200  1.0
  C  C1088  1  0.269500  0.294200  0.693200  1.0
  C  C1089  1  0.900700  0.900000  0.926300  1.0
  C  C1090  1  0.099300  0.100000  0.926300  1.0
  C  C1091  1  0.400700  0.400000  0.426300  1.0
  C  C1092  1  0.599300  0.600000  0.426300  1.0
  C  C1093  1  0.099300  0.100000  0.073700  1.0
  C  C1094  1  0.900700  0.900000  0.073700  1.0
  C  C1095  1  0.599300  0.600000  0.573700  1.0
  C  C1096  1  0.400700  0.400000  0.573700  1.0
  C  C1097  1  0.900600  0.877700  0.914100  1.0
  C  C1098  1  0.099400  0.122300  0.914100  1.0
  C  C1099  1  0.400600  0.377700  0.414100  1.0
  C  C1100  1  0.599400  0.622300  0.414100  1.0
  C  C1101  1  0.099400  0.122300  0.085900  1.0
  C  C1102  1  0.900600  0.877700  0.085900  1.0
  C  C1103  1  0.599400  0.622300  0.585900  1.0
  C  C1104  1  0.400600  0.377700  0.585900  1.0
  C  C1105  1  0.821700  0.822200  0.849600  1.0
  C  C1106  1  0.178300  0.177800  0.849600  1.0
  C  C1107  1  0.321700  0.322200  0.349600  1.0
  C  C1108  1  0.678300  0.677800  0.349600  1.0
  C  C1109  1  0.178300  0.177800  0.150400  1.0
  C  C1110  1  0.821700  0.822200  0.150400  1.0
  C  C1111  1  0.678300  0.677800  0.650400  1.0
  C  C1112  1  0.321700  0.322200  0.650400  1.0
  C  C1113  1  0.845700  0.825900  0.859700  1.0
  C  C1114  1  0.154300  0.174100  0.859700  1.0
  C  C1115  1  0.345700  0.325900  0.359700  1.0
  C  C1116  1  0.654300  0.674100  0.359700  1.0
  C  C1117  1  0.154300  0.174100  0.140300  1.0
  C  C1118  1  0.845700  0.825900  0.140300  1.0
  C  C1119  1  0.654300  0.674100  0.640300  1.0
  C  C1120  1  0.345700  0.325900  0.640300  1.0
  C  C1121  1  0.903400  0.863600  0.894700  1.0
  C  C1122  1  0.096600  0.136400  0.894700  1.0
  C  C1123  1  0.403400  0.363600  0.394700  1.0
  C  C1124  1  0.596600  0.636400  0.394700  1.0
  C  C1125  1  0.096600  0.136400  0.105300  1.0
  C  C1126  1  0.903400  0.863600  0.105300  1.0
  C  C1127  1  0.596600  0.636400  0.605300  1.0
  C  C1128  1  0.403400  0.363600  0.605300  1.0
  C  C1129  1  0.930700  0.850100  0.887400  1.0
  C  C1130  1  0.069300  0.149900  0.887400  1.0
  C  C1131  1  0.430700  0.350100  0.387400  1.0
  C  C1132  1  0.569300  0.649900  0.387400  1.0
  C  C1133  1  0.069300  0.149900  0.112600  1.0
  C  C1134  1  0.930700  0.850100  0.112600  1.0
  C  C1135  1  0.569300  0.649900  0.612600  1.0
  C  C1136  1  0.430700  0.350100  0.612600  1.0
  C  C1137  1  0.930000  0.828200  0.870700  1.0
  C  C1138  1  0.070000  0.171800  0.870700  1.0
  C  C1139  1  0.430000  0.328200  0.370700  1.0
  C  C1140  1  0.570000  0.671800  0.370700  1.0
  C  C1141  1  0.070000  0.171800  0.129300  1.0
  C  C1142  1  0.930000  0.828200  0.129300  1.0
  C  C1143  1  0.570000  0.671800  0.629300  1.0
  C  C1144  1  0.430000  0.328200  0.629300  1.0
  C  C1145  1  0.901900  0.819800  0.861300  1.0
  C  C1146  1  0.098100  0.180200  0.861300  1.0
  C  C1147  1  0.401900  0.319800  0.361300  1.0
  C  C1148  1  0.598100  0.680200  0.361300  1.0
  C  C1149  1  0.098100  0.180200  0.138700  1.0
  C  C1150  1  0.901900  0.819800  0.138700  1.0
  C  C1151  1  0.598100  0.680200  0.638700  1.0
  C  C1152  1  0.401900  0.319800  0.638700  1.0
  C  C1153  1  0.874500  0.833400  0.868600  1.0
  C  C1154  1  0.125500  0.166600  0.868600  1.0
  C  C1155  1  0.374500  0.333400  0.368600  1.0
  C  C1156  1  0.625500  0.666600  0.368600  1.0
  C  C1157  1  0.125500  0.166600  0.131400  1.0
  C  C1158  1  0.874500  0.833400  0.131400  1.0
  C  C1159  1  0.625500  0.666600  0.631400  1.0
  C  C1160  1  0.374500  0.333400  0.631400  1.0
  C  C1161  1  0.633200  0.196400  0.790300  1.0
  C  C1162  1  0.366800  0.803600  0.790300  1.0
  C  C1163  1  0.133200  0.696400  0.290300  1.0
  C  C1164  1  0.866800  0.303600  0.290300  1.0
  C  C1165  1  0.366800  0.803600  0.209700  1.0
  C  C1166  1  0.633200  0.196400  0.209700  1.0
  C  C1167  1  0.866800  0.303600  0.709700  1.0
  C  C1168  1  0.133200  0.696400  0.709700  1.0
  C  C1169  1  0.605900  0.202100  0.779000  1.0
  C  C1170  1  0.394100  0.797900  0.779000  1.0
  C  C1171  1  0.105900  0.702100  0.279000  1.0
  C  C1172  1  0.894100  0.297900  0.279000  1.0
  C  C1173  1  0.394100  0.797900  0.221000  1.0
  C  C1174  1  0.605900  0.202100  0.221000  1.0
  C  C1175  1  0.894100  0.297900  0.721000  1.0
  C  C1176  1  0.105900  0.702100  0.721000  1.0
  C  C1177  1  0.606500  0.219200  0.759700  1.0
  C  C1178  1  0.393500  0.780800  0.759700  1.0
  C  C1179  1  0.106500  0.719200  0.259700  1.0
  C  C1180  1  0.893500  0.280800  0.259700  1.0
  C  C1181  1  0.393500  0.780800  0.240300  1.0
  C  C1182  1  0.606500  0.219200  0.240300  1.0
  C  C1183  1  0.893500  0.280800  0.740300  1.0
  C  C1184  1  0.106500  0.719200  0.740300  1.0
  C  C1185  1  0.634500  0.230500  0.751700  1.0
  C  C1186  1  0.365500  0.769500  0.751700  1.0
  C  C1187  1  0.134500  0.730500  0.251700  1.0
  C  C1188  1  0.865500  0.269500  0.251700  1.0
  C  C1189  1  0.365500  0.769500  0.248300  1.0
  C  C1190  1  0.634500  0.230500  0.248300  1.0
  C  C1191  1  0.865500  0.269500  0.748300  1.0
  C  C1192  1  0.134500  0.730500  0.748300  1.0
  C  C1193  1  0.661800  0.224800  0.763000  1.0
  C  C1194  1  0.338200  0.775200  0.763000  1.0
  C  C1195  1  0.161800  0.724800  0.263000  1.0
  C  C1196  1  0.838200  0.275200  0.263000  1.0
  C  C1197  1  0.338200  0.775200  0.237000  1.0
  C  C1198  1  0.661800  0.224800  0.237000  1.0
  C  C1199  1  0.838200  0.275200  0.737000  1.0
  C  C1200  1  0.161800  0.724800  0.737000  1.0
  C  C1201  1  0.366700  0.196900  0.790500  1.0
  C  C1202  1  0.633300  0.803100  0.790500  1.0
  C  C1203  1  0.866700  0.696900  0.290500  1.0
  C  C1204  1  0.133300  0.303100  0.290500  1.0
  C  C1205  1  0.633300  0.803100  0.209500  1.0
  C  C1206  1  0.366700  0.196900  0.209500  1.0
  C  C1207  1  0.133300  0.303100  0.709500  1.0
  C  C1208  1  0.866700  0.696900  0.709500  1.0
  C  C1209  1  0.394100  0.202600  0.779300  1.0
  C  C1210  1  0.605900  0.797400  0.779300  1.0
  C  C1211  1  0.894100  0.702600  0.279300  1.0
  C  C1212  1  0.105900  0.297400  0.279300  1.0
  C  C1213  1  0.605900  0.797400  0.220700  1.0
  C  C1214  1  0.394100  0.202600  0.220700  1.0
  C  C1215  1  0.105900  0.297400  0.720700  1.0
  C  C1216  1  0.894100  0.702600  0.720700  1.0
  C  C1217  1  0.393700  0.218800  0.759700  1.0
  C  C1218  1  0.606300  0.781200  0.759700  1.0
  C  C1219  1  0.893700  0.718800  0.259700  1.0
  C  C1220  1  0.106300  0.281200  0.259700  1.0
  C  C1221  1  0.606300  0.781200  0.240300  1.0
  C  C1222  1  0.393700  0.218800  0.240300  1.0
  C  C1223  1  0.106300  0.281200  0.740300  1.0
  C  C1224  1  0.893700  0.718800  0.740300  1.0
  C  C1225  1  0.365700  0.229500  0.751200  1.0
  C  C1226  1  0.634300  0.770500  0.751200  1.0
  C  C1227  1  0.865700  0.729500  0.251200  1.0
  C  C1228  1  0.134300  0.270500  0.251200  1.0
  C  C1229  1  0.634300  0.770500  0.248800  1.0
  C  C1230  1  0.365700  0.229500  0.248800  1.0
  C  C1231  1  0.134300  0.270500  0.748800  1.0
  C  C1232  1  0.865700  0.729500  0.748800  1.0
  C  C1233  1  0.338300  0.223800  0.762400  1.0
  C  C1234  1  0.661700  0.776200  0.762400  1.0
  C  C1235  1  0.838300  0.723800  0.262400  1.0
  C  C1236  1  0.161700  0.276200  0.262400  1.0
  C  C1237  1  0.661700  0.776200  0.237600  1.0
  C  C1238  1  0.338300  0.223800  0.237600  1.0
  C  C1239  1  0.161700  0.276200  0.737600  1.0
  C  C1240  1  0.838300  0.723800  0.737600  1.0
  C  C1241  1  0.575900  0.224700  0.750500  1.0
  C  C1242  1  0.424100  0.775300  0.750500  1.0
  C  C1243  1  0.075900  0.724700  0.250500  1.0
  C  C1244  1  0.924100  0.275300  0.250500  1.0
  C  C1245  1  0.424100  0.775300  0.249500  1.0
  C  C1246  1  0.575900  0.224700  0.249500  1.0
  C  C1247  1  0.924100  0.275300  0.749500  1.0
  C  C1248  1  0.075900  0.724700  0.749500  1.0
  C  C1249  1  0.553900  0.229100  0.738700  1.0
  C  C1250  1  0.446100  0.770900  0.738700  1.0
  C  C1251  1  0.053900  0.729100  0.238700  1.0
  C  C1252  1  0.946100  0.270900  0.238700  1.0
  C  C1253  1  0.446100  0.770900  0.261300  1.0
  C  C1254  1  0.553900  0.229100  0.261300  1.0
  C  C1255  1  0.946100  0.270900  0.761300  1.0
  C  C1256  1  0.053900  0.729100  0.761300  1.0
  C  C1257  1  0.425400  0.224100  0.749900  1.0
  C  C1258  1  0.574600  0.775900  0.749900  1.0
  C  C1259  1  0.925400  0.724100  0.249900  1.0
  C  C1260  1  0.074600  0.275900  0.249900  1.0
  C  C1261  1  0.574600  0.775900  0.250100  1.0
  C  C1262  1  0.425400  0.224100  0.250100  1.0
  C  C1263  1  0.074600  0.275900  0.750100  1.0
  C  C1264  1  0.925400  0.724100  0.750100  1.0
  C  C1265  1  0.447900  0.227600  0.738400  1.0
  C  C1266  1  0.552100  0.772400  0.738400  1.0
  C  C1267  1  0.947900  0.727600  0.238400  1.0
  C  C1268  1  0.052100  0.272400  0.238400  1.0
  C  C1269  1  0.552100  0.772400  0.261600  1.0
  C  C1270  1  0.447900  0.227600  0.261600  1.0
  C  C1271  1  0.052100  0.272400  0.761600  1.0
  C  C1272  1  0.947900  0.727600  0.761600  1.0
  C  C1273  1  0.528300  0.240000  0.731200  1.0
  C  C1274  1  0.471700  0.760000  0.731200  1.0
  C  C1275  1  0.028300  0.740000  0.231200  1.0
  C  C1276  1  0.971700  0.260000  0.231200  1.0
  C  C1277  1  0.471700  0.760000  0.268800  1.0
  C  C1278  1  0.528300  0.240000  0.268800  1.0
  C  C1279  1  0.971700  0.260000  0.768800  1.0
  C  C1280  1  0.028300  0.740000  0.768800  1.0
  C  C1281  1  0.528600  0.256000  0.711400  1.0
  C  C1282  1  0.471400  0.744000  0.711400  1.0
  C  C1283  1  0.028600  0.756000  0.211400  1.0
  C  C1284  1  0.971400  0.244000  0.211400  1.0
  C  C1285  1  0.471400  0.744000  0.288600  1.0
  C  C1286  1  0.528600  0.256000  0.288600  1.0
  C  C1287  1  0.971400  0.244000  0.788600  1.0
  C  C1288  1  0.028600  0.756000  0.788600  1.0
  C  C1289  1  0.500900  0.263300  0.701100  1.0
  C  C1290  1  0.499100  0.736700  0.701100  1.0
  C  C1291  1  0.000900  0.763300  0.201100  1.0
  C  C1292  1  0.999100  0.236700  0.201100  1.0
  C  C1293  1  0.499100  0.736700  0.298900  1.0
  C  C1294  1  0.500900  0.263300  0.298900  1.0
  C  C1295  1  0.999100  0.236700  0.798900  1.0
  C  C1296  1  0.000900  0.763300  0.798900  1.0
  C  C1297  1  0.472900  0.254600  0.710500  1.0
  C  C1298  1  0.527100  0.745400  0.710500  1.0
  C  C1299  1  0.972900  0.754600  0.210500  1.0
  C  C1300  1  0.027100  0.245400  0.210500  1.0
  C  C1301  1  0.527100  0.745400  0.289500  1.0
  C  C1302  1  0.472900  0.254600  0.289500  1.0
  C  C1303  1  0.027100  0.245400  0.789500  1.0
  C  C1304  1  0.972900  0.754600  0.789500  1.0
  C  C1305  1  0.472600  0.238600  0.730200  1.0
  C  C1306  1  0.527400  0.761400  0.730200  1.0
  C  C1307  1  0.972600  0.738600  0.230200  1.0
  C  C1308  1  0.027400  0.261400  0.230200  1.0
  C  C1309  1  0.527400  0.761400  0.269800  1.0
  C  C1310  1  0.472600  0.238600  0.269800  1.0
  C  C1311  1  0.027400  0.261400  0.769800  1.0
  C  C1312  1  0.972600  0.738600  0.769800  1.0
  C  C1313  1  0.678700  0.241900  0.834500  1.0
  C  C1314  1  0.321300  0.758100  0.834500  1.0
  C  C1315  1  0.178700  0.741900  0.334500  1.0
  C  C1316  1  0.821300  0.258100  0.334500  1.0
  C  C1317  1  0.321300  0.758100  0.165500  1.0
  C  C1318  1  0.678700  0.241900  0.165500  1.0
  C  C1319  1  0.821300  0.258100  0.665500  1.0
  C  C1320  1  0.178700  0.741900  0.665500  1.0
  C  C1321  1  0.672900  0.269300  0.845700  1.0
  C  C1322  1  0.327100  0.730700  0.845700  1.0
  C  C1323  1  0.172900  0.769300  0.345700  1.0
  C  C1324  1  0.827100  0.230700  0.345700  1.0
  C  C1325  1  0.327100  0.730700  0.154300  1.0
  C  C1326  1  0.672900  0.269300  0.154300  1.0
  C  C1327  1  0.827100  0.230700  0.654300  1.0
  C  C1328  1  0.172900  0.769300  0.654300  1.0
  C  C1329  1  0.683500  0.297400  0.837500  1.0
  C  C1330  1  0.316500  0.702600  0.837500  1.0
  C  C1331  1  0.183500  0.797400  0.337500  1.0
  C  C1332  1  0.816500  0.202600  0.337500  1.0
  C  C1333  1  0.316500  0.702600  0.162500  1.0
  C  C1334  1  0.683500  0.297400  0.162500  1.0
  C  C1335  1  0.816500  0.202600  0.662500  1.0
  C  C1336  1  0.183500  0.797400  0.662500  1.0
  C  C1337  1  0.699900  0.298100  0.817900  1.0
  C  C1338  1  0.300100  0.701900  0.817900  1.0
  C  C1339  1  0.199900  0.798100  0.317900  1.0
  C  C1340  1  0.800100  0.201900  0.317900  1.0
  C  C1341  1  0.300100  0.701900  0.182100  1.0
  C  C1342  1  0.699900  0.298100  0.182100  1.0
  C  C1343  1  0.800100  0.201900  0.682100  1.0
  C  C1344  1  0.199900  0.798100  0.682100  1.0
  C  C1345  1  0.705700  0.270700  0.806600  1.0
  C  C1346  1  0.294300  0.729300  0.806600  1.0
  C  C1347  1  0.205700  0.770700  0.306600  1.0
  C  C1348  1  0.794300  0.229300  0.306600  1.0
  C  C1349  1  0.294300  0.729300  0.193400  1.0
  C  C1350  1  0.705700  0.270700  0.193400  1.0
  C  C1351  1  0.794300  0.229300  0.693400  1.0
  C  C1352  1  0.205700  0.770700  0.693400  1.0
  C  C1353  1  0.544300  0.374900  0.968700  1.0
  C  C1354  1  0.455700  0.625100  0.968700  1.0
  C  C1355  1  0.044300  0.874900  0.468700  1.0
  C  C1356  1  0.955700  0.125100  0.468700  1.0
  C  C1357  1  0.455700  0.625100  0.031300  1.0
  C  C1358  1  0.544300  0.374900  0.031300  1.0
  C  C1359  1  0.955700  0.125100  0.531300  1.0
  C  C1360  1  0.044300  0.874900  0.531300  1.0
  C  C1361  1  0.566300  0.374800  0.952100  1.0
  C  C1362  1  0.433700  0.625200  0.952100  1.0
  C  C1363  1  0.066300  0.874800  0.452100  1.0
  C  C1364  1  0.933700  0.125200  0.452100  1.0
  C  C1365  1  0.433700  0.625200  0.047900  1.0
  C  C1366  1  0.566300  0.374800  0.047900  1.0
  C  C1367  1  0.933700  0.125200  0.547900  1.0
  C  C1368  1  0.066300  0.874800  0.547900  1.0
  C  C1369  1  0.577200  0.402700  0.943600  1.0
  C  C1370  1  0.422800  0.597300  0.943600  1.0
  C  C1371  1  0.077200  0.902700  0.443600  1.0
  C  C1372  1  0.922800  0.097300  0.443600  1.0
  C  C1373  1  0.422800  0.597300  0.056400  1.0
  C  C1374  1  0.577200  0.402700  0.056400  1.0
  C  C1375  1  0.922800  0.097300  0.556400  1.0
  C  C1376  1  0.077200  0.902700  0.556400  1.0
  C  C1377  1  0.566200  0.430700  0.951800  1.0
  C  C1378  1  0.433800  0.569300  0.951800  1.0
  C  C1379  1  0.066200  0.930700  0.451800  1.0
  C  C1380  1  0.933800  0.069300  0.451800  1.0
  C  C1381  1  0.433800  0.569300  0.048200  1.0
  C  C1382  1  0.566200  0.430700  0.048200  1.0
  C  C1383  1  0.933800  0.069300  0.548200  1.0
  C  C1384  1  0.066200  0.930700  0.548200  1.0
  C  C1385  1  0.544200  0.430800  0.968400  1.0
  C  C1386  1  0.455800  0.569200  0.968400  1.0
  C  C1387  1  0.044200  0.930800  0.468400  1.0
  C  C1388  1  0.955800  0.069200  0.468400  1.0
  C  C1389  1  0.455800  0.569200  0.031600  1.0
  C  C1390  1  0.544200  0.430800  0.031600  1.0
  C  C1391  1  0.955800  0.069200  0.531600  1.0
  C  C1392  1  0.044200  0.930800  0.531600  1.0
  C  C1393  1  0.676200  0.324000  0.849600  1.0
  C  C1394  1  0.323800  0.676000  0.849600  1.0
  C  C1395  1  0.176200  0.824000  0.349600  1.0
  C  C1396  1  0.823800  0.176000  0.349600  1.0
  C  C1397  1  0.323800  0.676000  0.150400  1.0
  C  C1398  1  0.676200  0.324000  0.150400  1.0
  C  C1399  1  0.823800  0.176000  0.650400  1.0
  C  C1400  1  0.176200  0.824000  0.650400  1.0
  C  C1401  1  0.676900  0.348900  0.858800  1.0
  C  C1402  1  0.323100  0.651100  0.858800  1.0
  C  C1403  1  0.176900  0.848900  0.358800  1.0
  C  C1404  1  0.823100  0.151100  0.358800  1.0
  C  C1405  1  0.323100  0.651100  0.141200  1.0
  C  C1406  1  0.676900  0.348900  0.141200  1.0
  C  C1407  1  0.823100  0.151100  0.641200  1.0
  C  C1408  1  0.176900  0.848900  0.641200  1.0
  C  C1409  1  0.602200  0.399300  0.923800  1.0
  C  C1410  1  0.397800  0.600700  0.923800  1.0
  C  C1411  1  0.102200  0.899300  0.423800  1.0
  C  C1412  1  0.897800  0.100700  0.423800  1.0
  C  C1413  1  0.397800  0.600700  0.076200  1.0
  C  C1414  1  0.602200  0.399300  0.076200  1.0
  C  C1415  1  0.897800  0.100700  0.576200  1.0
  C  C1416  1  0.102200  0.899300  0.576200  1.0
  C  C1417  1  0.626100  0.400300  0.913200  1.0
  C  C1418  1  0.373900  0.599700  0.913200  1.0
  C  C1419  1  0.126100  0.900300  0.413200  1.0
  C  C1420  1  0.873900  0.099700  0.413200  1.0
  C  C1421  1  0.373900  0.599700  0.086800  1.0
  C  C1422  1  0.626100  0.400300  0.086800  1.0
  C  C1423  1  0.873900  0.099700  0.586800  1.0
  C  C1424  1  0.126100  0.900300  0.586800  1.0
  C  C1425  1  0.664400  0.374000  0.867000  1.0
  C  C1426  1  0.335600  0.626000  0.867000  1.0
  C  C1427  1  0.164400  0.874000  0.367000  1.0
  C  C1428  1  0.835600  0.126000  0.367000  1.0
  C  C1429  1  0.335600  0.626000  0.133000  1.0
  C  C1430  1  0.664400  0.374000  0.133000  1.0
  C  C1431  1  0.835600  0.126000  0.633000  1.0
  C  C1432  1  0.164400  0.874000  0.633000  1.0
  C  C1433  1  0.676200  0.401100  0.858000  1.0
  C  C1434  1  0.323800  0.598900  0.858000  1.0
  C  C1435  1  0.176200  0.901100  0.358000  1.0
  C  C1436  1  0.823800  0.098900  0.358000  1.0
  C  C1437  1  0.323800  0.598900  0.142000  1.0
  C  C1438  1  0.676200  0.401100  0.142000  1.0
  C  C1439  1  0.823800  0.098900  0.642000  1.0
  C  C1440  1  0.176200  0.901100  0.642000  1.0
  C  C1441  1  0.669000  0.429600  0.867400  1.0
  C  C1442  1  0.331000  0.570400  0.867400  1.0
  C  C1443  1  0.169000  0.929600  0.367400  1.0
  C  C1444  1  0.831000  0.070400  0.367400  1.0
  C  C1445  1  0.331000  0.570400  0.132600  1.0
  C  C1446  1  0.669000  0.429600  0.132600  1.0
  C  C1447  1  0.831000  0.070400  0.632600  1.0
  C  C1448  1  0.169000  0.929600  0.632600  1.0
  C  C1449  1  0.650100  0.430900  0.885700  1.0
  C  C1450  1  0.349900  0.569100  0.885700  1.0
  C  C1451  1  0.150100  0.930900  0.385700  1.0
  C  C1452  1  0.849900  0.069100  0.385700  1.0
  C  C1453  1  0.349900  0.569100  0.114300  1.0
  C  C1454  1  0.650100  0.430900  0.114300  1.0
  C  C1455  1  0.849900  0.069100  0.614300  1.0
  C  C1456  1  0.150100  0.930900  0.614300  1.0
  C  C1457  1  0.638300  0.403700  0.894800  1.0
  C  C1458  1  0.361700  0.596300  0.894800  1.0
  C  C1459  1  0.138300  0.903700  0.394800  1.0
  C  C1460  1  0.861700  0.096300  0.394800  1.0
  C  C1461  1  0.361700  0.596300  0.105200  1.0
  C  C1462  1  0.638300  0.403700  0.105200  1.0
  C  C1463  1  0.861700  0.096300  0.605200  1.0
  C  C1464  1  0.138300  0.903700  0.605200  1.0
  C  C1465  1  0.455100  0.374500  0.967200  1.0
  C  C1466  1  0.544900  0.625500  0.967200  1.0
  C  C1467  1  0.955100  0.874500  0.467200  1.0
  C  C1468  1  0.044900  0.125500  0.467200  1.0
  C  C1469  1  0.544900  0.625500  0.032800  1.0
  C  C1470  1  0.455100  0.374500  0.032800  1.0
  C  C1471  1  0.044900  0.125500  0.532800  1.0
  C  C1472  1  0.955100  0.874500  0.532800  1.0
  C  C1473  1  0.433000  0.376400  0.950700  1.0
  C  C1474  1  0.567000  0.623600  0.950700  1.0
  C  C1475  1  0.933000  0.876400  0.450700  1.0
  C  C1476  1  0.067000  0.123600  0.450700  1.0
  C  C1477  1  0.567000  0.623600  0.049300  1.0
  C  C1478  1  0.433000  0.376400  0.049300  1.0
  C  C1479  1  0.067000  0.123600  0.549300  1.0
  C  C1480  1  0.933000  0.876400  0.549300  1.0
  C  C1481  1  0.422500  0.405000  0.943600  1.0
  C  C1482  1  0.577500  0.595000  0.943600  1.0
  C  C1483  1  0.922500  0.905000  0.443600  1.0
  C  C1484  1  0.077500  0.095000  0.443600  1.0
  C  C1485  1  0.577500  0.595000  0.056400  1.0
  C  C1486  1  0.422500  0.405000  0.056400  1.0
  C  C1487  1  0.077500  0.095000  0.556400  1.0
  C  C1488  1  0.922500  0.905000  0.556400  1.0
  C  C1489  1  0.433900  0.432100  0.953100  1.0
  C  C1490  1  0.566100  0.567900  0.953100  1.0
  C  C1491  1  0.933900  0.932100  0.453100  1.0
  C  C1492  1  0.066100  0.067900  0.453100  1.0
  C  C1493  1  0.566100  0.567900  0.046900  1.0
  C  C1494  1  0.433900  0.432100  0.046900  1.0
  C  C1495  1  0.066100  0.067900  0.546900  1.0
  C  C1496  1  0.933900  0.932100  0.546900  1.0
  C  C1497  1  0.456000  0.430200  0.969700  1.0
  C  C1498  1  0.544000  0.569800  0.969700  1.0
  C  C1499  1  0.956000  0.930200  0.469700  1.0
  C  C1500  1  0.044000  0.069800  0.469700  1.0
  C  C1501  1  0.544000  0.569800  0.030300  1.0
  C  C1502  1  0.456000  0.430200  0.030300  1.0
  C  C1503  1  0.044000  0.069800  0.530300  1.0
  C  C1504  1  0.956000  0.930200  0.530300  1.0
  C  C1505  1  0.321900  0.241800  0.834700  1.0
  C  C1506  1  0.678100  0.758200  0.834700  1.0
  C  C1507  1  0.821900  0.741800  0.334700  1.0
  C  C1508  1  0.178100  0.258200  0.334700  1.0
  C  C1509  1  0.678100  0.758200  0.165300  1.0
  C  C1510  1  0.321900  0.241800  0.165300  1.0
  C  C1511  1  0.178100  0.258200  0.665300  1.0
  C  C1512  1  0.821900  0.741800  0.665300  1.0
  C  C1513  1  0.327600  0.269600  0.845400  1.0
  C  C1514  1  0.672400  0.730400  0.845400  1.0
  C  C1515  1  0.827600  0.769600  0.345400  1.0
  C  C1516  1  0.172400  0.230400  0.345400  1.0
  C  C1517  1  0.672400  0.730400  0.154600  1.0
  C  C1518  1  0.327600  0.269600  0.154600  1.0
  C  C1519  1  0.172400  0.230400  0.654600  1.0
  C  C1520  1  0.827600  0.769600  0.654600  1.0
  C  C1521  1  0.316400  0.297300  0.836800  1.0
  C  C1522  1  0.683600  0.702700  0.836800  1.0
  C  C1523  1  0.816400  0.797300  0.336800  1.0
  C  C1524  1  0.183600  0.202700  0.336800  1.0
  C  C1525  1  0.683600  0.702700  0.163200  1.0
  C  C1526  1  0.316400  0.297300  0.163200  1.0
  C  C1527  1  0.183600  0.202700  0.663200  1.0
  C  C1528  1  0.816400  0.797300  0.663200  1.0
  C  C1529  1  0.299600  0.297000  0.817400  1.0
  C  C1530  1  0.700400  0.703000  0.817400  1.0
  C  C1531  1  0.799600  0.797000  0.317400  1.0
  C  C1532  1  0.200400  0.203000  0.317400  1.0
  C  C1533  1  0.700400  0.703000  0.182600  1.0
  C  C1534  1  0.299600  0.297000  0.182600  1.0
  C  C1535  1  0.200400  0.203000  0.682600  1.0
  C  C1536  1  0.799600  0.797000  0.682600  1.0
  C  C1537  1  0.293900  0.269200  0.806600  1.0
  C  C1538  1  0.706100  0.730800  0.806600  1.0
  C  C1539  1  0.793900  0.769200  0.306600  1.0
  C  C1540  1  0.206100  0.230800  0.306600  1.0
  C  C1541  1  0.706100  0.730800  0.193400  1.0
  C  C1542  1  0.293900  0.269200  0.193400  1.0
  C  C1543  1  0.206100  0.230800  0.693400  1.0
  C  C1544  1  0.793900  0.769200  0.693400  1.0
  C  C1545  1  0.398100  0.401100  0.926000  1.0
  C  C1546  1  0.601900  0.598900  0.926000  1.0
  C  C1547  1  0.898100  0.901100  0.426000  1.0
  C  C1548  1  0.101900  0.098900  0.426000  1.0
  C  C1549  1  0.601900  0.598900  0.074000  1.0
  C  C1550  1  0.398100  0.401100  0.074000  1.0
  C  C1551  1  0.101900  0.098900  0.574000  1.0
  C  C1552  1  0.898100  0.901100  0.574000  1.0
  C  C1553  1  0.376300  0.400000  0.913400  1.0
  C  C1554  1  0.623700  0.600000  0.913400  1.0
  C  C1555  1  0.876300  0.900000  0.413400  1.0
  C  C1556  1  0.123700  0.100000  0.413400  1.0
  C  C1557  1  0.623700  0.600000  0.086600  1.0
  C  C1558  1  0.376300  0.400000  0.086600  1.0
  C  C1559  1  0.123700  0.100000  0.586600  1.0
  C  C1560  1  0.876300  0.900000  0.586600  1.0
  C  C1561  1  0.322100  0.322400  0.850300  1.0
  C  C1562  1  0.677900  0.677600  0.850300  1.0
  C  C1563  1  0.822100  0.822400  0.350300  1.0
  C  C1564  1  0.177900  0.177600  0.350300  1.0
  C  C1565  1  0.677900  0.677600  0.149700  1.0
  C  C1566  1  0.322100  0.322400  0.149700  1.0
  C  C1567  1  0.177900  0.177600  0.649700  1.0
  C  C1568  1  0.822100  0.822400  0.649700  1.0
  C  C1569  1  0.325800  0.347800  0.858400  1.0
  C  C1570  1  0.674200  0.652200  0.858400  1.0
  C  C1571  1  0.825800  0.847800  0.358400  1.0
  C  C1572  1  0.174200  0.152200  0.358400  1.0
  C  C1573  1  0.674200  0.652200  0.141600  1.0
  C  C1574  1  0.325800  0.347800  0.141600  1.0
  C  C1575  1  0.174200  0.152200  0.641600  1.0
  C  C1576  1  0.825800  0.847800  0.641600  1.0
  C  C1577  1  0.361800  0.402900  0.895100  1.0
  C  C1578  1  0.638200  0.597100  0.895100  1.0
  C  C1579  1  0.861800  0.902900  0.395100  1.0
  C  C1580  1  0.138200  0.097100  0.395100  1.0
  C  C1581  1  0.638200  0.597100  0.104900  1.0
  C  C1582  1  0.361800  0.402900  0.104900  1.0
  C  C1583  1  0.138200  0.097100  0.604900  1.0
  C  C1584  1  0.861800  0.902900  0.604900  1.0
  C  C1585  1  0.349500  0.430100  0.886600  1.0
  C  C1586  1  0.650500  0.569900  0.886600  1.0
  C  C1587  1  0.849500  0.930100  0.386600  1.0
  C  C1588  1  0.150500  0.069900  0.386600  1.0
  C  C1589  1  0.650500  0.569900  0.113400  1.0
  C  C1590  1  0.349500  0.430100  0.113400  1.0
  C  C1591  1  0.150500  0.069900  0.613400  1.0
  C  C1592  1  0.849500  0.930100  0.613400  1.0
  C  C1593  1  0.330000  0.429100  0.868500  1.0
  C  C1594  1  0.670000  0.570900  0.868500  1.0
  C  C1595  1  0.830000  0.929100  0.368500  1.0
  C  C1596  1  0.170000  0.070900  0.368500  1.0
  C  C1597  1  0.670000  0.570900  0.131500  1.0
  C  C1598  1  0.330000  0.429100  0.131500  1.0
  C  C1599  1  0.170000  0.070900  0.631500  1.0
  C  C1600  1  0.830000  0.929100  0.631500  1.0
  C  C1601  1  0.322800  0.400700  0.858900  1.0
  C  C1602  1  0.677200  0.599300  0.858900  1.0
  C  C1603  1  0.822800  0.900700  0.358900  1.0
  C  C1604  1  0.177200  0.099300  0.358900  1.0
  C  C1605  1  0.677200  0.599300  0.141100  1.0
  C  C1606  1  0.322800  0.400700  0.141100  1.0
  C  C1607  1  0.177200  0.099300  0.641100  1.0
  C  C1608  1  0.822800  0.900700  0.641100  1.0
  C  C1609  1  0.335000  0.373600  0.867400  1.0
  C  C1610  1  0.665000  0.626400  0.867400  1.0
  C  C1611  1  0.835000  0.873600  0.367400  1.0
  C  C1612  1  0.165000  0.126400  0.367400  1.0
  C  C1613  1  0.665000  0.626400  0.132600  1.0
  C  C1614  1  0.335000  0.373600  0.132600  1.0
  C  C1615  1  0.165000  0.126400  0.632600  1.0
  C  C1616  1  0.835000  0.873600  0.632600  1.0
  N  N1617  1  0.643000  0.058000  0.815000  1
  N  N1618  1  0.357000  0.942000  0.815000  1
  N  N1619  1  0.143000  0.558000  0.315000  1
  N  N1620  1  0.857000  0.442000  0.315000  1
  N  N1621  1  0.357000  0.942000  0.185000  1
  N  N1622  1  0.643000  0.058000  0.185000  1
  N  N1623  1  0.857000  0.442000  0.685000  1
  N  N1624  1  0.143000  0.558000  0.685000  1
  N  N1625  1  0.638000  0.935000  0.808000  1
  N  N1626  1  0.362000  0.065000  0.808000  1
  N  N1627  1  0.138000  0.435000  0.308000  1
  N  N1628  1  0.862000  0.565000  0.308000  1
  N  N1629  1  0.362000  0.065000  0.192000  1
  N  N1630  1  0.638000  0.935000  0.192000  1
  N  N1631  1  0.862000  0.565000  0.692000  1
  N  N1632  1  0.138000  0.435000  0.692000  1
  N  N1633  1  0.650000  0.962000  0.779300  1
  N  N1634  1  0.350000  0.038000  0.779300  1
  N  N1635  1  0.150000  0.462000  0.279300  1
  N  N1636  1  0.850000  0.538000  0.279300  1
  N  N1637  1  0.350000  0.038000  0.220700  1
  N  N1638  1  0.650000  0.962000  0.220700  1
  N  N1639  1  0.850000  0.538000  0.720700  1
  N  N1640  1  0.150000  0.462000  0.720700  1
  N  N1641  1  0.655000  0.037000  0.780900  1
  N  N1642  1  0.345000  0.963000  0.780900  1
  N  N1643  1  0.155000  0.537000  0.280900  1
  N  N1644  1  0.845000  0.463000  0.280900  1
  N  N1645  1  0.345000  0.963000  0.219100  1
  N  N1646  1  0.655000  0.037000  0.219100  1
  N  N1647  1  0.845000  0.463000  0.719100  1
  N  N1648  1  0.155000  0.537000  0.719100  1
  N  N1649  1  0.804700  0.095300  0.931400  1
  N  N1650  1  0.195300  0.904700  0.931400  1
  N  N1651  1  0.304700  0.595300  0.431400  1
  N  N1652  1  0.695300  0.404700  0.431400  1
  N  N1653  1  0.195300  0.904700  0.068600  1
  N  N1654  1  0.804700  0.095300  0.068600  1
  N  N1655  1  0.695300  0.404700  0.568600  1
  N  N1656  1  0.304700  0.595300  0.568600  1
  N  N1657  1  0.762000  0.136000  0.896600  1
  N  N1658  1  0.238000  0.864000  0.896600  1
  N  N1659  1  0.262000  0.636000  0.396600  1
  N  N1660  1  0.738000  0.364000  0.396600  1
  N  N1661  1  0.238000  0.864000  0.103400  1
  N  N1662  1  0.762000  0.136000  0.103400  1
  N  N1663  1  0.738000  0.364000  0.603400  1
  N  N1664  1  0.262000  0.636000  0.603400  1
  N  N1665  1  0.818000  0.129000  0.948000  1
  N  N1666  1  0.182000  0.871000  0.948000  1
  N  N1667  1  0.318000  0.629000  0.448000  1
  N  N1668  1  0.682000  0.371000  0.448000  1
  N  N1669  1  0.182000  0.871000  0.052000  1
  N  N1670  1  0.818000  0.129000  0.052000  1
  N  N1671  1  0.682000  0.371000  0.552000  1
  N  N1672  1  0.318000  0.629000  0.552000  1
  N  N1673  1  0.770000  0.862000  0.899600  1
  N  N1674  1  0.230000  0.138000  0.899600  1
  N  N1675  1  0.270000  0.362000  0.399600  1
  N  N1676  1  0.730000  0.638000  0.399600  1
  N  N1677  1  0.230000  0.138000  0.100400  1
  N  N1678  1  0.770000  0.862000  0.100400  1
  N  N1679  1  0.730000  0.638000  0.600400  1
  N  N1680  1  0.270000  0.362000  0.600400  1
  N  N1681  1  0.810900  0.922100  0.919400  1
  N  N1682  1  0.189100  0.077900  0.919400  1
  N  N1683  1  0.310900  0.422100  0.419400  1
  N  N1684  1  0.689100  0.577900  0.419400  1
  N  N1685  1  0.189100  0.077900  0.080600  1
  N  N1686  1  0.810900  0.922100  0.080600  1
  N  N1687  1  0.689100  0.577900  0.580600  1
  N  N1688  1  0.310900  0.422100  0.580600  1
  N  N1689  1  0.776000  0.896000  0.876900  1
  N  N1690  1  0.224000  0.104000  0.876900  1
  N  N1691  1  0.276000  0.396000  0.376900  1
  N  N1692  1  0.724000  0.604000  0.376900  1
  N  N1693  1  0.224000  0.104000  0.123100  1
  N  N1694  1  0.776000  0.896000  0.123100  1
  N  N1695  1  0.724000  0.604000  0.623100  1
  N  N1696  1  0.276000  0.396000  0.623100  1
  N  N1697  1  0.801100  0.892900  0.935900  1
  N  N1698  1  0.198900  0.107100  0.935900  1
  N  N1699  1  0.301100  0.392900  0.435900  1
  N  N1700  1  0.698900  0.607100  0.435900  1
  N  N1701  1  0.198900  0.107100  0.064100  1
  N  N1702  1  0.801100  0.892900  0.064100  1
  N  N1703  1  0.698900  0.607100  0.564100  1
  N  N1704  1  0.301100  0.392900  0.564100  1
  N  N1705  1  0.463900  0.195100  0.808000  1
  N  N1706  1  0.536100  0.804900  0.808000  1
  N  N1707  1  0.963900  0.695100  0.308000  1
  N  N1708  1  0.036100  0.304900  0.308000  1
  N  N1709  1  0.536100  0.804900  0.192000  1
  N  N1710  1  0.463900  0.195100  0.192000  1
  N  N1711  1  0.036100  0.304900  0.692000  1
  N  N1712  1  0.963900  0.695100  0.692000  1
  N  N1713  1  0.534700  0.174300  0.799300  1
  N  N1714  1  0.465300  0.825700  0.799300  1
  N  N1715  1  0.034700  0.674300  0.299300  1
  N  N1716  1  0.965300  0.325700  0.299300  1
  N  N1717  1  0.465300  0.825700  0.200700  1
  N  N1718  1  0.534700  0.174300  0.200700  1
  N  N1719  1  0.965300  0.325700  0.700700  1
  N  N1720  1  0.034700  0.674300  0.700700  1
  N  N1721  1  0.538000  0.215000  0.806600  1
  N  N1722  1  0.462000  0.785000  0.806600  1
  N  N1723  1  0.038000  0.715000  0.306600  1
  N  N1724  1  0.962000  0.285000  0.306600  1
  N  N1725  1  0.462000  0.785000  0.193400  1
  N  N1726  1  0.538000  0.215000  0.193400  1
  N  N1727  1  0.962000  0.285000  0.693400  1
  N  N1728  1  0.038000  0.715000  0.693400  1
  N  N1729  1  0.461000  0.157000  0.790900  1
  N  N1730  1  0.539000  0.843000  0.790900  1
  N  N1731  1  0.961000  0.657000  0.290900  1
  N  N1732  1  0.039000  0.343000  0.290900  1
  N  N1733  1  0.539000  0.843000  0.209100  1
  N  N1734  1  0.461000  0.157000  0.209100  1
  N  N1735  1  0.039000  0.343000  0.709100  1
  N  N1736  1  0.961000  0.657000  0.709100  1
  N  N1737  1  0.651000  0.273000  0.903700  1
  N  N1738  1  0.349000  0.727000  0.903700  1
  N  N1739  1  0.151000  0.773000  0.403700  1
  N  N1740  1  0.849000  0.227000  0.403700  1
  N  N1741  1  0.349000  0.727000  0.096300  1
  N  N1742  1  0.651000  0.273000  0.096300  1
  N  N1743  1  0.849000  0.227000  0.596300  1
  N  N1744  1  0.151000  0.773000  0.596300  1
  N  N1745  1  0.575000  0.310000  0.915600  1
  N  N1746  1  0.425000  0.690000  0.915600  1
  N  N1747  1  0.075000  0.810000  0.415600  1
  N  N1748  1  0.925000  0.190000  0.415600  1
  N  N1749  1  0.425000  0.690000  0.084400  1
  N  N1750  1  0.575000  0.310000  0.084400  1
  N  N1751  1  0.925000  0.190000  0.584400  1
  N  N1752  1  0.075000  0.810000  0.584400  1
  N  N1753  1  0.612400  0.277600  0.880300  1
  N  N1754  1  0.387600  0.722400  0.880300  1
  N  N1755  1  0.112400  0.777600  0.380300  1
  N  N1756  1  0.887600  0.222400  0.380300  1
  N  N1757  1  0.387600  0.722400  0.119700  1
  N  N1758  1  0.612400  0.277600  0.119700  1
  N  N1759  1  0.887600  0.222400  0.619700  1
  N  N1760  1  0.112400  0.777600  0.619700  1
  N  N1761  1  0.603000  0.298000  0.937200  1
  N  N1762  1  0.397000  0.702000  0.937200  1
  N  N1763  1  0.103000  0.798000  0.437200  1
  N  N1764  1  0.897000  0.202000  0.437200  1
  N  N1765  1  0.397000  0.702000  0.062800  1
  N  N1766  1  0.603000  0.298000  0.062800  1
  N  N1767  1  0.897000  0.202000  0.562800  1
  N  N1768  1  0.103000  0.798000  0.562800  1
  N  N1769  1  0.375000  0.316000  0.941400  1
  N  N1770  1  0.625000  0.684000  0.941400  1
  N  N1771  1  0.875000  0.816000  0.441400  1
  N  N1772  1  0.125000  0.184000  0.441400  1
  N  N1773  1  0.625000  0.684000  0.058600  1
  N  N1774  1  0.375000  0.316000  0.058600  1
  N  N1775  1  0.125000  0.184000  0.558600  1
  N  N1776  1  0.875000  0.816000  0.558600  1
  N  N1777  1  0.386500  0.277500  0.883100  1
  N  N1778  1  0.613500  0.722500  0.883100  1
  N  N1779  1  0.886500  0.777500  0.383100  1
  N  N1780  1  0.113500  0.222500  0.383100  1
  N  N1781  1  0.613500  0.722500  0.116900  1
  N  N1782  1  0.386500  0.277500  0.116900  1
  N  N1783  1  0.113500  0.222500  0.616900  1
  N  N1784  1  0.886500  0.777500  0.616900  1
  N  N1785  1  0.406000  0.303000  0.930400  1
  N  N1786  1  0.594000  0.697000  0.930400  1
  N  N1787  1  0.906000  0.803000  0.430400  1
  N  N1788  1  0.094000  0.197000  0.430400  1
  N  N1789  1  0.594000  0.697000  0.069600  1
  N  N1790  1  0.406000  0.303000  0.069600  1
  N  N1791  1  0.094000  0.197000  0.569600  1
  N  N1792  1  0.906000  0.803000  0.569600  1
  N  N1793  1  0.334000  0.276000  0.907600  1
  N  N1794  1  0.666000  0.724000  0.907600  1
  N  N1795  1  0.834000  0.776000  0.407600  1
  N  N1796  1  0.166000  0.224000  0.407600  1
  N  N1797  1  0.666000  0.724000  0.092400  1
  N  N1798  1  0.334000  0.276000  0.092400  1
  N  N1799  1  0.166000  0.224000  0.592400  1
  N  N1800  1  0.834000  0.776000  0.592400  1
  N  N1801  1  0.772400  0.106600  0.878700  1
  N  N1802  1  0.227600  0.893400  0.878700  1
  N  N1803  1  0.272400  0.606600  0.378700  1
  N  N1804  1  0.727600  0.393400  0.378700  1
  N  N1805  1  0.227600  0.893400  0.121300  1
  N  N1806  1  0.772400  0.106600  0.121300  1
  N  N1807  1  0.727600  0.393400  0.621300  1
  N  N1808  1  0.272400  0.606600  0.621300  1
  N  N1809  1  0.707900  0.837900  0.782100  1.0
  N  N1810  1  0.292100  0.162100  0.782100  1.0
  N  N1811  1  0.207900  0.337900  0.282100  1.0
  N  N1812  1  0.792100  0.662100  0.282100  1.0
  N  N1813  1  0.292100  0.162100  0.217900  1.0
  N  N1814  1  0.707900  0.837900  0.217900  1.0
  N  N1815  1  0.792100  0.662100  0.717900  1.0
  N  N1816  1  0.207900  0.337900  0.717900  1.0
  N  N1817  1  0.708400  0.161800  0.782300  1.0
  N  N1818  1  0.291600  0.838200  0.782300  1.0
  N  N1819  1  0.208400  0.661800  0.282300  1.0
  N  N1820  1  0.791600  0.338200  0.282300  1.0
  N  N1821  1  0.291600  0.838200  0.217700  1.0
  N  N1822  1  0.708400  0.161800  0.217700  1.0
  N  N1823  1  0.791600  0.338200  0.717700  1.0
  N  N1824  1  0.208400  0.661800  0.717700  1.0
  N  N1825  1  0.729300  0.997700  0.738900  1.0
  N  N1826  1  0.270700  0.002300  0.738900  1.0
  N  N1827  1  0.229300  0.497700  0.238900  1.0
  N  N1828  1  0.770700  0.502300  0.238900  1.0
  N  N1829  1  0.270700  0.002300  0.261100  1.0
  N  N1830  1  0.729300  0.997700  0.261100  1.0
  N  N1831  1  0.770700  0.502300  0.761100  1.0
  N  N1832  1  0.229300  0.497700  0.761100  1.0
  N  N1833  1  0.742100  0.194900  0.814300  1.0
  N  N1834  1  0.257900  0.805100  0.814300  1.0
  N  N1835  1  0.242100  0.694900  0.314300  1.0
  N  N1836  1  0.757900  0.305100  0.314300  1.0
  N  N1837  1  0.257900  0.805100  0.185700  1.0
  N  N1838  1  0.742100  0.194900  0.185700  1.0
  N  N1839  1  0.757900  0.305100  0.685700  1.0
  N  N1840  1  0.242100  0.694900  0.685700  1.0
  N  N1841  1  0.903800  0.033700  0.976500  1.0
  N  N1842  1  0.096200  0.966300  0.976500  1.0
  N  N1843  1  0.403800  0.533700  0.476500  1.0
  N  N1844  1  0.596200  0.466300  0.476500  1.0
  N  N1845  1  0.096200  0.966300  0.023500  1.0
  N  N1846  1  0.903800  0.033700  0.023500  1.0
  N  N1847  1  0.596200  0.466300  0.523500  1.0
  N  N1848  1  0.403800  0.533700  0.523500  1.0
  N  N1849  1  0.875100  0.143800  0.885900  1.0
  N  N1850  1  0.124900  0.856200  0.885900  1.0
  N  N1851  1  0.375100  0.643800  0.385900  1.0
  N  N1852  1  0.624900  0.356200  0.385900  1.0
  N  N1853  1  0.124900  0.856200  0.114100  1.0
  N  N1854  1  0.875100  0.143800  0.114100  1.0
  N  N1855  1  0.624900  0.356200  0.614100  1.0
  N  N1856  1  0.375100  0.643800  0.614100  1.0
  N  N1857  1  0.902800  0.966800  0.976700  1.0
  N  N1858  1  0.097200  0.033200  0.976700  1.0
  N  N1859  1  0.402800  0.466800  0.476700  1.0
  N  N1860  1  0.597200  0.533200  0.476700  1.0
  N  N1861  1  0.097200  0.033200  0.023300  1.0
  N  N1862  1  0.902800  0.966800  0.023300  1.0
  N  N1863  1  0.597200  0.533200  0.523300  1.0
  N  N1864  1  0.402800  0.466800  0.523300  1.0
  N  N1865  1  0.741700  0.805700  0.814900  1.0
  N  N1866  1  0.258300  0.194300  0.814900  1.0
  N  N1867  1  0.241700  0.305700  0.314900  1.0
  N  N1868  1  0.758300  0.694300  0.314900  1.0
  N  N1869  1  0.258300  0.194300  0.185100  1.0
  N  N1870  1  0.741700  0.805700  0.185100  1.0
  N  N1871  1  0.758300  0.694300  0.685100  1.0
  N  N1872  1  0.241700  0.305700  0.685100  1.0
  N  N1873  1  0.875300  0.855200  0.885300  1.0
  N  N1874  1  0.124700  0.144800  0.885300  1.0
  N  N1875  1  0.375300  0.355200  0.385300  1.0
  N  N1876  1  0.624700  0.644800  0.385300  1.0
  N  N1877  1  0.124700  0.144800  0.114700  1.0
  N  N1878  1  0.875300  0.855200  0.114700  1.0
  N  N1879  1  0.624700  0.644800  0.614700  1.0
  N  N1880  1  0.375300  0.355200  0.614700  1.0
  N  N1881  1  0.661200  0.207700  0.782300  1.0
  N  N1882  1  0.338800  0.792300  0.782300  1.0
  N  N1883  1  0.161200  0.707700  0.282300  1.0
  N  N1884  1  0.838800  0.292300  0.282300  1.0
  N  N1885  1  0.338800  0.792300  0.217700  1.0
  N  N1886  1  0.661200  0.207700  0.217700  1.0
  N  N1887  1  0.838800  0.292300  0.717700  1.0
  N  N1888  1  0.161200  0.707700  0.717700  1.0
  N  N1889  1  0.338700  0.207600  0.782100  1.0
  N  N1890  1  0.661300  0.792400  0.782100  1.0
  N  N1891  1  0.838700  0.707600  0.282100  1.0
  N  N1892  1  0.161300  0.292400  0.282100  1.0
  N  N1893  1  0.661300  0.792400  0.217900  1.0
  N  N1894  1  0.338700  0.207600  0.217900  1.0
  N  N1895  1  0.161300  0.292400  0.717900  1.0
  N  N1896  1  0.838700  0.707600  0.717900  1.0
  N  N1897  1  0.500300  0.231300  0.740600  1.0
  N  N1898  1  0.499700  0.768700  0.740600  1.0
  N  N1899  1  0.000300  0.731300  0.240600  1.0
  N  N1900  1  0.999700  0.268700  0.240600  1.0
  N  N1901  1  0.499700  0.768700  0.259400  1.0
  N  N1902  1  0.500300  0.231300  0.259400  1.0
  N  N1903  1  0.999700  0.268700  0.759400  1.0
  N  N1904  1  0.000300  0.731300  0.759400  1.0
  N  N1905  1  0.695100  0.242700  0.814900  1.0
  N  N1906  1  0.304900  0.757300  0.814900  1.0
  N  N1907  1  0.195100  0.742700  0.314900  1.0
  N  N1908  1  0.804900  0.257300  0.314900  1.0
  N  N1909  1  0.304900  0.757300  0.185100  1.0
  N  N1910  1  0.695100  0.242700  0.185100  1.0
  N  N1911  1  0.804900  0.257300  0.685100  1.0
  N  N1912  1  0.195100  0.742700  0.685100  1.0
  N  N1913  1  0.533200  0.403000  0.976900  1.0
  N  N1914  1  0.466800  0.597000  0.976900  1.0
  N  N1915  1  0.033200  0.903000  0.476900  1.0
  N  N1916  1  0.966800  0.097000  0.476900  1.0
  N  N1917  1  0.466800  0.597000  0.023100  1.0
  N  N1918  1  0.533200  0.403000  0.023100  1.0
  N  N1919  1  0.966800  0.097000  0.523100  1.0
  N  N1920  1  0.033200  0.903000  0.523100  1.0
  N  N1921  1  0.645500  0.375200  0.885400  1.0
  N  N1922  1  0.354500  0.624800  0.885400  1.0
  N  N1923  1  0.145500  0.875200  0.385400  1.0
  N  N1924  1  0.854500  0.124800  0.385400  1.0
  N  N1925  1  0.354500  0.624800  0.114600  1.0
  N  N1926  1  0.645500  0.375200  0.114600  1.0
  N  N1927  1  0.854500  0.124800  0.614600  1.0
  N  N1928  1  0.145500  0.875200  0.614600  1.0
  N  N1929  1  0.466600  0.401400  0.976700  1.0
  N  N1930  1  0.533400  0.598600  0.976700  1.0
  N  N1931  1  0.966600  0.901400  0.476700  1.0
  N  N1932  1  0.033400  0.098600  0.476700  1.0
  N  N1933  1  0.533400  0.598600  0.023300  1.0
  N  N1934  1  0.466600  0.401400  0.023300  1.0
  N  N1935  1  0.033400  0.098600  0.523300  1.0
  N  N1936  1  0.966600  0.901400  0.523300  1.0
  N  N1937  1  0.305000  0.241700  0.815300  1.0
  N  N1938  1  0.695000  0.758300  0.815300  1.0
  N  N1939  1  0.805000  0.741700  0.315300  1.0
  N  N1940  1  0.195000  0.258300  0.315300  1.0
  N  N1941  1  0.695000  0.758300  0.184700  1.0
  N  N1942  1  0.305000  0.241700  0.184700  1.0
  N  N1943  1  0.195000  0.258300  0.684700  1.0
  N  N1944  1  0.805000  0.741700  0.684700  1.0
  N  N1945  1  0.354500  0.374600  0.885500  1.0
  N  N1946  1  0.645500  0.625400  0.885500  1.0
  N  N1947  1  0.854500  0.874600  0.385500  1.0
  N  N1948  1  0.145500  0.125400  0.385500  1.0
  N  N1949  1  0.645500  0.625400  0.114500  1.0
  N  N1950  1  0.354500  0.374600  0.114500  1.0
  N  N1951  1  0.145500  0.125400  0.614500  1.0
  N  N1952  1  0.854500  0.874600  0.614500  1.0
  F  F1953  1  0.662800  0.832200  0.838000  1
  F  F1954  1  0.337200  0.167800  0.838000  1
  F  F1955  1  0.162800  0.332200  0.338000  1
  F  F1956  1  0.837200  0.667800  0.338000  1
  F  F1957  1  0.337200  0.167800  0.162000  1
  F  F1958  1  0.662800  0.832200  0.162000  1
  F  F1959  1  0.837200  0.667800  0.662000  1
  F  F1960  1  0.162800  0.332200  0.662000  1
  F  F1961  1  0.645800  0.880100  0.829400  1
  F  F1962  1  0.354200  0.119900  0.829400  1
  F  F1963  1  0.145800  0.380100  0.329400  1
  F  F1964  1  0.854200  0.619900  0.329400  1
  F  F1965  1  0.354200  0.119900  0.170600  1
  F  F1966  1  0.645800  0.880100  0.170600  1
  F  F1967  1  0.854200  0.619900  0.670600  1
  F  F1968  1  0.145800  0.380100  0.670600  1
  F  F1969  1  0.690900  0.872100  0.851700  1
  F  F1970  1  0.309100  0.127900  0.851700  1
  F  F1971  1  0.190900  0.372100  0.351700  1
  F  F1972  1  0.809100  0.627900  0.351700  1
  F  F1973  1  0.309100  0.127900  0.148300  1
  F  F1974  1  0.690900  0.872100  0.148300  1
  F  F1975  1  0.809100  0.627900  0.648300  1
  F  F1976  1  0.190900  0.372100  0.648300  1
  F  F1977  1  0.641600  0.859400  0.862800  1
  F  F1978  1  0.358400  0.140600  0.862800  1
  F  F1979  1  0.141600  0.359400  0.362800  1
  F  F1980  1  0.858400  0.640600  0.362800  1
  F  F1981  1  0.358400  0.140600  0.137200  1
  F  F1982  1  0.641600  0.859400  0.137200  1
  F  F1983  1  0.858400  0.640600  0.637200  1
  F  F1984  1  0.141600  0.359400  0.637200  1
  F  F1985  1  0.663100  0.166400  0.836000  1
  F  F1986  1  0.336900  0.833600  0.836000  1
  F  F1987  1  0.163100  0.666400  0.336000  1
  F  F1988  1  0.836900  0.333600  0.336000  1
  F  F1989  1  0.336900  0.833600  0.164000  1
  F  F1990  1  0.663100  0.166400  0.164000  1
  F  F1991  1  0.836900  0.333600  0.664000  1
  F  F1992  1  0.163100  0.666400  0.664000  1
  F  F1993  1  0.690600  0.126500  0.850200  1
  F  F1994  1  0.309400  0.873500  0.850200  1
  F  F1995  1  0.190600  0.626500  0.350200  1
  F  F1996  1  0.809400  0.373500  0.350200  1
  F  F1997  1  0.309400  0.873500  0.149800  1
  F  F1998  1  0.690600  0.126500  0.149800  1
  F  F1999  1  0.809400  0.373500  0.649800  1
  F  F2000  1  0.190600  0.626500  0.649800  1
  F  F2001  1  0.645500  0.117100  0.830000  1
  F  F2002  1  0.354500  0.882900  0.830000  1
  F  F2003  1  0.145500  0.617100  0.330000  1
  F  F2004  1  0.854500  0.382900  0.330000  1
  F  F2005  1  0.354500  0.882900  0.170000  1
  F  F2006  1  0.645500  0.117100  0.170000  1
  F  F2007  1  0.854500  0.382900  0.670000  1
  F  F2008  1  0.145500  0.617100  0.670000  1
  F  F2009  1  0.641500  0.141300  0.862800  1
  F  F2010  1  0.358500  0.858700  0.862800  1
  F  F2011  1  0.141500  0.641300  0.362800  1
  F  F2012  1  0.858500  0.358700  0.362800  1
  F  F2013  1  0.358500  0.858700  0.137200  1
  F  F2014  1  0.641500  0.141300  0.137200  1
  F  F2015  1  0.858500  0.358700  0.637200  1
  F  F2016  1  0.141500  0.641300  0.637200  1
  F  F2017  1  0.314000  0.386000  0.810000  1
  F  F2018  1  0.686000  0.614000  0.810000  1
  F  F2019  1  0.814000  0.886000  0.310000  1
  F  F2020  1  0.186000  0.114000  0.310000  1
  F  F2021  1  0.686000  0.614000  0.190000  1
  F  F2022  1  0.314000  0.386000  0.190000  1
  F  F2023  1  0.186000  0.114000  0.690000  1
  F  F2024  1  0.814000  0.886000  0.690000  1
  F  F2025  1  0.286000  0.408000  0.781800  1
  F  F2026  1  0.714000  0.592000  0.781800  1
  F  F2027  1  0.786000  0.908000  0.281800  1
  F  F2028  1  0.214000  0.092000  0.281800  1
  F  F2029  1  0.714000  0.592000  0.218200  1
  F  F2030  1  0.286000  0.408000  0.218200  1
  F  F2031  1  0.214000  0.092000  0.718200  1
  F  F2032  1  0.786000  0.908000  0.718200  1
  F  F2033  1  0.261000  0.388000  0.811700  1
  F  F2034  1  0.739000  0.612000  0.811700  1
  F  F2035  1  0.761000  0.888000  0.311700  1
  F  F2036  1  0.239000  0.112000  0.311700  1
  F  F2037  1  0.739000  0.612000  0.188300  1
  F  F2038  1  0.261000  0.388000  0.188300  1
  F  F2039  1  0.239000  0.112000  0.688300  1
  F  F2040  1  0.761000  0.888000  0.688300  1
  F  F2041  1  0.285000  0.356000  0.787000  1
  F  F2042  1  0.715000  0.644000  0.787000  1
  F  F2043  1  0.785000  0.856000  0.287000  1
  F  F2044  1  0.215000  0.144000  0.287000  1
  F  F2045  1  0.715000  0.644000  0.213000  1
  F  F2046  1  0.285000  0.356000  0.213000  1
  F  F2047  1  0.215000  0.144000  0.713000  1
  F  F2048  1  0.785000  0.856000  0.713000  1
  F  F2049  1  0.363500  0.277500  0.704300  1
  F  F2050  1  0.636500  0.722500  0.704300  1
  F  F2051  1  0.863500  0.777500  0.204300  1
  F  F2052  1  0.136500  0.222500  0.204300  1
  F  F2053  1  0.636500  0.722500  0.295700  1
  F  F2054  1  0.363500  0.277500  0.295700  1
  F  F2055  1  0.136500  0.222500  0.795700  1
  F  F2056  1  0.863500  0.777500  0.795700  1
  F  F2057  1  0.411100  0.283900  0.689200  1
  F  F2058  1  0.588900  0.716100  0.689200  1
  F  F2059  1  0.911100  0.783900  0.189200  1
  F  F2060  1  0.088900  0.216100  0.189200  1
  F  F2061  1  0.588900  0.716100  0.310800  1
  F  F2062  1  0.411100  0.283900  0.310800  1
  F  F2063  1  0.088900  0.216100  0.810800  1
  F  F2064  1  0.911100  0.783900  0.810800  1
  F  F2065  1  0.393000  0.235000  0.696900  1
  F  F2066  1  0.607000  0.765000  0.696900  1
  F  F2067  1  0.893000  0.735000  0.196900  1
  F  F2068  1  0.107000  0.265000  0.196900  1
  F  F2069  1  0.607000  0.765000  0.303100  1
  F  F2070  1  0.393000  0.235000  0.303100  1
  F  F2071  1  0.107000  0.265000  0.803100  1
  F  F2072  1  0.893000  0.735000  0.803100  1
  F  F2073  1  0.371000  0.262000  0.669300  1
  F  F2074  1  0.629000  0.738000  0.669300  1
  F  F2075  1  0.871000  0.762000  0.169300  1
  F  F2076  1  0.129000  0.238000  0.169300  1
  F  F2077  1  0.629000  0.738000  0.330700  1
  F  F2078  1  0.371000  0.262000  0.330700  1
  F  F2079  1  0.129000  0.238000  0.830700  1
  F  F2080  1  0.871000  0.762000  0.830700  1
  F  F2081  1  0.912900  0.214100  0.810200  1
  F  F2082  1  0.087100  0.785900  0.810200  1
  F  F2083  1  0.412900  0.714100  0.310200  1
  F  F2084  1  0.587100  0.285900  0.310200  1
  F  F2085  1  0.087100  0.785900  0.189800  1
  F  F2086  1  0.912900  0.214100  0.189800  1
  F  F2087  1  0.587100  0.285900  0.689800  1
  F  F2088  1  0.412900  0.714100  0.689800  1
  F  F2089  1  0.865600  0.217400  0.794800  1
  F  F2090  1  0.134400  0.782600  0.794800  1
  F  F2091  1  0.365600  0.717400  0.294800  1
  F  F2092  1  0.634400  0.282600  0.294800  1
  F  F2093  1  0.134400  0.782600  0.205200  1
  F  F2094  1  0.865600  0.217400  0.205200  1
  F  F2095  1  0.634400  0.282600  0.705200  1
  F  F2096  1  0.365600  0.717400  0.705200  1
  F  F2097  1  0.872100  0.232900  0.830100  1
  F  F2098  1  0.127900  0.767100  0.830100  1
  F  F2099  1  0.372100  0.732900  0.330100  1
  F  F2100  1  0.627900  0.267100  0.330100  1
  F  F2101  1  0.127900  0.767100  0.169900  1
  F  F2102  1  0.872100  0.232900  0.169900  1
  F  F2103  1  0.627900  0.267100  0.669900  1
  F  F2104  1  0.372100  0.732900  0.669900  1
  F  F2105  1  0.892000  0.262000  0.803500  1
  F  F2106  1  0.108000  0.738000  0.803500  1
  F  F2107  1  0.392000  0.762000  0.303500  1
  F  F2108  1  0.608000  0.238000  0.303500  1
  F  F2109  1  0.108000  0.738000  0.196500  1
  F  F2110  1  0.892000  0.262000  0.196500  1
  F  F2111  1  0.608000  0.238000  0.696500  1
  F  F2112  1  0.392000  0.762000  0.696500  1
  F  F2113  1  0.712000  0.352000  0.788000  1
  F  F2114  1  0.288000  0.648000  0.788000  1
  F  F2115  1  0.212000  0.852000  0.288000  1
  F  F2116  1  0.788000  0.148000  0.288000  1
  F  F2117  1  0.288000  0.648000  0.212000  1
  F  F2118  1  0.712000  0.352000  0.212000  1
  F  F2119  1  0.788000  0.148000  0.712000  1
  F  F2120  1  0.212000  0.852000  0.712000  1
  F  F2121  1  0.688000  0.383000  0.812400  1
  F  F2122  1  0.312000  0.617000  0.812400  1
  F  F2123  1  0.188000  0.883000  0.312400  1
  F  F2124  1  0.812000  0.117000  0.312400  1
  F  F2125  1  0.312000  0.617000  0.187600  1
  F  F2126  1  0.688000  0.383000  0.187600  1
  F  F2127  1  0.812000  0.117000  0.687600  1
  F  F2128  1  0.188000  0.883000  0.687600  1
  F  F2129  1  0.741000  0.381000  0.812200  1
  F  F2130  1  0.259000  0.619000  0.812200  1
  F  F2131  1  0.241000  0.881000  0.312200  1
  F  F2132  1  0.759000  0.119000  0.312200  1
  F  F2133  1  0.259000  0.619000  0.187800  1
  F  F2134  1  0.741000  0.381000  0.187800  1
  F  F2135  1  0.759000  0.119000  0.687800  1
  F  F2136  1  0.241000  0.881000  0.687800  1
  F  F2137  1  0.715000  0.404000  0.783500  1
  F  F2138  1  0.285000  0.596000  0.783500  1
  F  F2139  1  0.215000  0.904000  0.283500  1
  F  F2140  1  0.785000  0.096000  0.283500  1
  F  F2141  1  0.285000  0.596000  0.216500  1
  F  F2142  1  0.715000  0.404000  0.216500  1
  F  F2143  1  0.785000  0.096000  0.716500  1
  F  F2144  1  0.215000  0.904000  0.716500  1
  F  F2145  1  0.974300  0.866700  0.936900  1
  F  F2146  1  0.025700  0.133300  0.936900  1
  F  F2147  1  0.474300  0.366700  0.436900  1
  F  F2148  1  0.525700  0.633300  0.436900  1
  F  F2149  1  0.025700  0.133300  0.063100  1
  F  F2150  1  0.974300  0.866700  0.063100  1
  F  F2151  1  0.525700  0.633300  0.563100  1
  F  F2152  1  0.474300  0.366700  0.563100  1
  F  F2153  1  0.999000  0.911000  0.925800  1
  F  F2154  1  0.001000  0.089000  0.925800  1
  F  F2155  1  0.499000  0.411000  0.425800  1
  F  F2156  1  0.501000  0.589000  0.425800  1
  F  F2157  1  0.001000  0.089000  0.074200  1
  F  F2158  1  0.999000  0.911000  0.074200  1
  F  F2159  1  0.501000  0.589000  0.574200  1
  F  F2160  1  0.499000  0.411000  0.574200  1
  F  F2161  1  1.000000  0.868000  0.904300  1
  F  F2162  1  1.000000  0.132000  0.904300  1
  F  F2163  1  0.500000  0.368000  0.404300  1
  F  F2164  1  0.500000  0.632000  0.404300  1
  F  F2165  1  0.000000  0.132000  0.095700  1
  F  F2166  1  0.000000  0.868000  0.095700  1
  F  F2167  1  0.500000  0.632000  0.595700  1
  F  F2168  1  0.500000  0.368000  0.595700  1
  F  F2169  1  0.027100  0.868900  0.936600  1
  F  F2170  1  0.972900  0.131100  0.936600  1
  F  F2171  1  0.527100  0.368900  0.436600  1
  F  F2172  1  0.472900  0.631100  0.436600  1
  F  F2173  1  0.972900  0.131100  0.063400  1
  F  F2174  1  0.027100  0.868900  0.063400  1
  F  F2175  1  0.472900  0.631100  0.563400  1
  F  F2176  1  0.527100  0.368900  0.563400  1
  F  F2177  1  0.488300  0.500700  0.024200  1
  F  F2178  1  0.511700  0.499300  0.024200  1
  F  F2179  1  0.988300  0.000700  0.524200  1
  F  F2180  1  0.011700  0.999300  0.524200  1
  F  F2181  1  0.511700  0.499300  0.975800  1
  F  F2182  1  0.488300  0.500700  0.975800  1
  F  F2183  1  0.011700  0.999300  0.475800  1
  F  F2184  1  0.988300  0.000700  0.475800  1
  F  F2185  1  0.463100  0.500700  0.991100  1
  F  F2186  1  0.536900  0.499300  0.991100  1
  F  F2187  1  0.963100  0.000700  0.491100  1
  F  F2188  1  0.036900  0.999300  0.491100  1
  F  F2189  1  0.536900  0.499300  0.008900  1
  F  F2190  1  0.463100  0.500700  0.008900  1
  F  F2191  1  0.036900  0.999300  0.508900  1
  F  F2192  1  0.963100  0.000700  0.508900  1
  F  F2193  1  0.000300  0.987700  0.025100  1
  F  F2194  1  0.999700  0.012300  0.025100  1
  F  F2195  1  0.500300  0.487700  0.525100  1
  F  F2196  1  0.499700  0.512300  0.525100  1
  F  F2197  1  0.999700  0.012300  0.974900  1
  F  F2198  1  0.000300  0.987700  0.974900  1
  F  F2199  1  0.499700  0.512300  0.474900  1
  F  F2200  1  0.500300  0.487700  0.474900  1
  F  F2201  1  0.973000  0.008000  0.996300  1
  F  F2202  1  0.027000  0.992000  0.996300  1
  F  F2203  1  0.473000  0.508000  0.496300  1
  F  F2204  1  0.527000  0.492000  0.496300  1
  F  F2205  1  0.027000  0.992000  0.003700  1
  F  F2206  1  0.973000  0.008000  0.003700  1
  F  F2207  1  0.527000  0.492000  0.503700  1
  F  F2208  1  0.473000  0.508000  0.503700  1
  F  F2209  1  0.999100  0.962100  0.992000  1
  F  F2210  1  0.000900  0.037900  0.992000  1
  F  F2211  1  0.499100  0.462100  0.492000  1
  F  F2212  1  0.500900  0.537900  0.492000  1
  F  F2213  1  0.000900  0.037900  0.008000  1
  F  F2214  1  0.999100  0.962100  0.008000  1
  F  F2215  1  0.500900  0.537900  0.508000  1
  F  F2216  1  0.499100  0.462100  0.508000  1
  F  F2217  1  0.026400  0.007300  0.995500  1
  F  F2218  1  0.973600  0.992700  0.995500  1
  F  F2219  1  0.526400  0.507300  0.495500  1
  F  F2220  1  0.473600  0.492700  0.495500  1
  F  F2221  1  0.973600  0.992700  0.004500  1
  F  F2222  1  0.026400  0.007300  0.004500  1
  F  F2223  1  0.473600  0.492700  0.504500  1
  F  F2224  1  0.526400  0.507300  0.504500  1
  F  F2225  1  0.808700  0.034600  0.988000  1
  F  F2226  1  0.191300  0.965400  0.988000  1
  F  F2227  1  0.308700  0.534600  0.488000  1
  F  F2228  1  0.691300  0.465400  0.488000  1
  F  F2229  1  0.191300  0.965400  0.012000  1
  F  F2230  1  0.808700  0.034600  0.012000  1
  F  F2231  1  0.691300  0.465400  0.512000  1
  F  F2232  1  0.308700  0.534600  0.512000  1
  F  F2233  1  0.827500  0.992700  0.005700  1
  F  F2234  1  0.172500  0.007300  0.005700  1
  F  F2235  1  0.327500  0.492700  0.505700  1
  F  F2236  1  0.672500  0.507300  0.505700  1
  F  F2237  1  0.172500  0.007300  0.994300  1
  F  F2238  1  0.827500  0.992700  0.994300  1
  F  F2239  1  0.672500  0.507300  0.494300  1
  F  F2240  1  0.327500  0.492700  0.494300  1
  F  F2241  1  0.798600  0.986000  0.974800  1
  F  F2242  1  0.201400  0.014000  0.974800  1
  F  F2243  1  0.298600  0.486000  0.474800  1
  F  F2244  1  0.701400  0.514000  0.474800  1
  F  F2245  1  0.201400  0.014000  0.025200  1
  F  F2246  1  0.798600  0.986000  0.025200  1
  F  F2247  1  0.701400  0.514000  0.525200  1
  F  F2248  1  0.298600  0.486000  0.525200  1
  F  F2249  1  0.775800  0.002300  0.006600  1
  F  F2250  1  0.224200  0.997700  0.006600  1
  F  F2251  1  0.275800  0.502300  0.506600  1
  F  F2252  1  0.724200  0.497700  0.506600  1
  F  F2253  1  0.224200  0.997700  0.993400  1
  F  F2254  1  0.775800  0.002300  0.993400  1
  F  F2255  1  0.724200  0.497700  0.493400  1
  F  F2256  1  0.275800  0.502300  0.493400  1
  F  F2257  1  0.485900  0.305100  0.028700  1
  F  F2258  1  0.514100  0.694900  0.028700  1
  F  F2259  1  0.985900  0.805100  0.528700  1
  F  F2260  1  0.014100  0.194900  0.528700  1
  F  F2261  1  0.514100  0.694900  0.971300  1
  F  F2262  1  0.485900  0.305100  0.971300  1
  F  F2263  1  0.014100  0.194900  0.471300  1
  F  F2264  1  0.985900  0.805100  0.471300  1
  F  F2265  1  0.536900  0.303900  0.018200  1
  F  F2266  1  0.463100  0.696100  0.018200  1
  F  F2267  1  0.036900  0.803900  0.518200  1
  F  F2268  1  0.963100  0.196100  0.518200  1
  F  F2269  1  0.463100  0.696100  0.981800  1
  F  F2270  1  0.536900  0.303900  0.981800  1
  F  F2271  1  0.963100  0.196100  0.481800  1
  F  F2272  1  0.036900  0.803900  0.481800  1
  F  F2273  1  0.501700  0.330300  0.997600  1
  F  F2274  1  0.498300  0.669700  0.997600  1
  F  F2275  1  0.001700  0.830300  0.497600  1
  F  F2276  1  0.998300  0.169700  0.497600  1
  F  F2277  1  0.498300  0.669700  0.002400  1
  F  F2278  1  0.501700  0.330300  0.002400  1
  F  F2279  1  0.998300  0.169700  0.502400  1
  F  F2280  1  0.001700  0.830300  0.502400  1
  F  F2281  1  0.500300  0.278000  0.998200  1
  F  F2282  1  0.499700  0.722000  0.998200  1
  F  F2283  1  0.000300  0.778000  0.498200  1
  F  F2284  1  0.999700  0.222000  0.498200  1
  F  F2285  1  0.499700  0.722000  0.001800  1
  F  F2286  1  0.500300  0.278000  0.001800  1
  F  F2287  1  0.999700  0.222000  0.501800  1
  F  F2288  1  0.000300  0.778000  0.501800  1
  F  F2289  1  0.732900  0.770400  0.731700  1
  F  F2290  1  0.267100  0.229600  0.731700  1
  F  F2291  1  0.232900  0.270400  0.231700  1
  F  F2292  1  0.767100  0.729600  0.231700  1
  F  F2293  1  0.267100  0.229600  0.268300  1
  F  F2294  1  0.732900  0.770400  0.268300  1
  F  F2295  1  0.767100  0.729600  0.768300  1
  F  F2296  1  0.232900  0.270400  0.768300  1
  F  F2297  1  0.723700  0.724800  0.748900  1
  F  F2298  1  0.276300  0.275200  0.748900  1
  F  F2299  1  0.223700  0.224800  0.248900  1
  F  F2300  1  0.776300  0.775200  0.248900  1
  F  F2301  1  0.276300  0.275200  0.251100  1
  F  F2302  1  0.723700  0.724800  0.251100  1
  F  F2303  1  0.776300  0.775200  0.751100  1
  F  F2304  1  0.223700  0.224800  0.751100  1
  F  F2305  1  0.741500  0.765800  0.766800  1
  F  F2306  1  0.258500  0.234200  0.766800  1
  F  F2307  1  0.241500  0.265800  0.266800  1
  F  F2308  1  0.758500  0.734200  0.266800  1
  F  F2309  1  0.258500  0.234200  0.233200  1
  F  F2310  1  0.741500  0.765800  0.233200  1
  F  F2311  1  0.758500  0.734200  0.733200  1
  F  F2312  1  0.241500  0.265800  0.733200  1
  F  F2313  1  0.771300  0.737300  0.740300  1
  F  F2314  1  0.228700  0.262700  0.740300  1
  F  F2315  1  0.271300  0.237300  0.240300  1
  F  F2316  1  0.728700  0.762700  0.240300  1
  F  F2317  1  0.228700  0.262700  0.259700  1
  F  F2318  1  0.771300  0.737300  0.259700  1
  F  F2319  1  0.728700  0.762700  0.759700  1
  F  F2320  1  0.271300  0.237300  0.759700  1
  F  F2321  1  0.733700  0.243000  0.766200  1
  F  F2322  1  0.266300  0.757000  0.766200  1
  F  F2323  1  0.233700  0.743000  0.266200  1
  F  F2324  1  0.766300  0.257000  0.266200  1
  F  F2325  1  0.266300  0.757000  0.233800  1
  F  F2326  1  0.733700  0.243000  0.233800  1
  F  F2327  1  0.766300  0.257000  0.733800  1
  F  F2328  1  0.233700  0.743000  0.733800  1
  F  F2329  1  0.760700  0.272000  0.738600  1
  F  F2330  1  0.239300  0.728000  0.738600  1
  F  F2331  1  0.260700  0.772000  0.238600  1
  F  F2332  1  0.739300  0.228000  0.238600  1
  F  F2333  1  0.239300  0.728000  0.261400  1
  F  F2334  1  0.760700  0.272000  0.261400  1
  F  F2335  1  0.739300  0.228000  0.761400  1
  F  F2336  1  0.260700  0.772000  0.761400  1
  F  F2337  1  0.730800  0.229900  0.731100  1
  F  F2338  1  0.269200  0.770100  0.731100  1
  F  F2339  1  0.230800  0.729900  0.231100  1
  F  F2340  1  0.769200  0.270100  0.231100  1
  F  F2341  1  0.269200  0.770100  0.268900  1
  F  F2342  1  0.730800  0.229900  0.268900  1
  F  F2343  1  0.769200  0.270100  0.768900  1
  F  F2344  1  0.230800  0.729900  0.768900  1
  F  F2345  1  0.775400  0.225000  0.750000  1
  F  F2346  1  0.224600  0.775000  0.750000  1
  F  F2347  1  0.275400  0.725000  0.250000  1
  F  F2348  1  0.724600  0.275000  0.250000  1
  F  F2349  1  0.224600  0.775000  0.250000  1
  F  F2350  1  0.775400  0.225000  0.250000  1
  F  F2351  1  0.724600  0.275000  0.750000  1
  F  F2352  1  0.275400  0.725000  0.750000  1
  F  F2353  1  0.508200  0.472800  0.995400  1
  F  F2354  1  0.491800  0.527200  0.995400  1
  F  F2355  1  0.008200  0.972800  0.495400  1
  F  F2356  1  0.991800  0.027200  0.495400  1
  F  F2357  1  0.491800  0.527200  0.004600  1
  F  F2358  1  0.508200  0.472800  0.004600  1
  F  F2359  1  0.991800  0.027200  0.504600  1
  F  F2360  1  0.008200  0.972800  0.504600  1
  F  F2361  1  0.491000  0.473500  0.994800  1
  F  F2362  1  0.509000  0.526500  0.994800  1
  F  F2363  1  0.991000  0.973500  0.494800  1
  F  F2364  1  0.009000  0.026500  0.494800  1
  F  F2365  1  0.509000  0.526500  0.005200  1
  F  F2366  1  0.491000  0.473500  0.005200  1
  F  F2367  1  0.009000  0.026500  0.505200  1
  F  F2368  1  0.991000  0.973500  0.505200  1
