
#######################################################################
#
#                 Cambridge Crystallographic Data Centre
#                                CCDC 
#
#######################################################################
#
# If this CIF has been generated from an entry in the Cambridge 
# Structural Database, then it will include bibliographic, chemical, 
# crystal, experimental, refinement or atomic coordinate data resulting 
# from the CCDC's data processing and validation procedures.
#
#######################################################################

data_DONJAT
_chemical_formula_moiety         'C44 H28 Ag2 Cl2 N4 O16'
_chemical_name_systematic        
'bis(\m-naphthalene-2,3-diyl diisonicotinate)-bis(perchlorato)-di-silver(i)'
_symmetry_cell_setting           triclinic
_symmetry_space_group_name_H-M   'P -1'
_symmetry_Int_Tables_number      2
_space_group_name_Hall           '-P 1'
loop_
_symmetry_equiv_pos_site_id
_symmetry_equiv_pos_as_xyz
1 x,y,z
2 -x,-y,-z
_cell_length_a                   8.00550(10)
_cell_length_b                   8.21820(10)
_cell_length_c                   16.5990(2)
_cell_angle_alpha                83.3200(10)
_cell_angle_beta                 86.3960(10)
_cell_angle_gamma                71.9490(10)
_cell_volume                     1030.85
_exptl_crystal_colour            colorless
_exptl_crystal_description       block
_cell_formula_units_Z            1
loop_
_atom_site_label
_atom_site_type_symbol
_atom_site_fract_x
_atom_site_fract_y
_atom_site_fract_z
Ag1 Ag 0.17314(5) 1.06465(5) 0.54280(2)
Cl1 Cl 0.20896(18) 0.58864(17) 0.58191(7)
O1 O 0.6414(4) 1.1166(4) 0.16730(18)
O2 O 0.6958(4) 0.8309(4) 0.19304(17)
O3 O 0.4893(4) 0.5529(4) 0.17562(19)
O4 O 0.4154(4) 0.8239(4) 0.11512(18)
O5 O 0.3898(7) 0.5694(7) 0.5936(4)
O6 O 0.1272(8) 0.5803(6) 0.6546(3)
O7 O 0.1439(5) 0.7513(5) 0.5359(2)
O8 O 0.2013(4) 0.4532(4) 0.53750(19)
N1 N 0.3482(4) 1.0348(5) 0.4378(2)
N2 N -0.0056(5) 0.8714(5) 0.3513(2)
C1 C 0.4251(5) 0.8809(6) 0.4111(2)
H1 H 0.4101 0.7841 0.4418
C2 C 0.5250(5) 0.8586(6) 0.3407(2)
H2 H 0.5767 0.7494 0.3241
C3 C 0.5469(5) 1.0038(6) 0.2947(2)
C4 C 0.4771(6) 1.1617(6) 0.3242(2)
H3 H 0.4970 1.2593 0.2965
C5 C 0.3781(6) 1.1728(6) 0.3947(3)
H4 H 0.3293 1.2802 0.4136
C6 C 0.6333(5) 0.9957(6) 0.2120(3)
C7 C 0.7204(6) 0.8054(6) 0.1100(3)
C8 C 0.8784(6) 0.7857(6) 0.0711(3)
H5 H 0.9707 0.8025 0.0969
C9 C 0.9008(6) 0.7391(5) -0.0094(2)
C10 C 1.0640(6) 0.7109(6) -0.0524(3)
H6 H 1.1579 0.7304 -0.0292
C11 C 1.0843(6) 0.6554(6) -0.1278(3)
H7 H 1.1925 0.6356 -0.1552
C12 C 0.9447(6) 0.6281(6) -0.1639(3)
H8 H 0.9610 0.5882 -0.2149
C13 C 0.7850(6) 0.6591(6) -0.1256(2)
H9 H 0.6919 0.6437 -0.1513
C14 C 0.7583(6) 0.7145(5) -0.0471(2)
C15 C 0.5938(6) 0.7431(6) -0.0044(3)
H10 H 0.4975 0.7316 -0.0292
C16 C 0.5783(6) 0.7868(6) 0.0719(3)
C17 C 0.3948(6) 0.6968(7) 0.1711(3)
C18 C 0.2442(5) 0.7629(6) 0.2293(2)
C19 C 0.2103(6) 0.6469(6) 0.2902(3)
H11 H 0.2713 0.5303 0.2910
C20 C 0.0862(6) 0.7050(6) 0.3491(3)
H12 H 0.0644 0.6254 0.3897
C21 C 0.0253(6) 0.9835(6) 0.2912(3)
H13 H -0.0385 1.0993 0.2911
C22 C 0.1484(5) 0.9337(6) 0.2293(2)
H14 H 0.1660 1.0145 0.1883
Ag1A Ag -0.17314(5) 0.93535(5) 0.45720(2)
Cl1A Cl -0.20896(18) 1.41136(17) 0.41809(7)
O1A O -0.6414(4) 0.8834(4) 0.83270(18)
O2A O -0.6958(4) 1.1691(4) 0.80696(17)
O3A O -0.4893(4) 1.4471(4) 0.82438(19)
O4A O -0.4154(4) 1.1761(4) 0.88488(18)
O5A O -0.3898(7) 1.4306(7) 0.4064(4)
O6A O -0.1272(8) 1.4197(6) 0.3454(3)
O7A O -0.1439(5) 1.2487(5) 0.4641(2)
O8A O -0.2013(4) 1.5468(4) 0.46250(19)
N1A N -0.3482(4) 0.9652(5) 0.5622(2)
N2A N 0.0056(5) 1.1286(5) 0.6487(2)
C1A C -0.4251(5) 1.1191(6) 0.5889(2)
H1A H -0.4101 1.2159 0.5582
C2A C -0.5250(5) 1.1414(6) 0.6593(2)
H2A H -0.5767 1.2506 0.6759
C3A C -0.5469(5) 0.9962(6) 0.7053(2)
C4A C -0.4771(6) 0.8383(6) 0.6758(2)
H3A H -0.4970 0.7407 0.7035
C5A C -0.3781(6) 0.8272(6) 0.6053(3)
H4A H -0.3293 0.7198 0.5864
C6A C -0.6333(5) 1.0043(6) 0.7880(3)
C7A C -0.7204(6) 1.1946(6) 0.8900(3)
C8A C -0.8784(6) 1.2143(6) 0.9289(3)
H5A H -0.9707 1.1975 0.9031
C9A C -0.9008(6) 1.2609(5) 1.0094(2)
C10A C -1.0640(6) 1.2891(6) 1.0524(3)
H6A H -1.1579 1.2696 1.0292
C11A C -1.0843(6) 1.3446(6) 1.1278(3)
H7A H -1.1925 1.3644 1.1552
C12A C -0.9447(6) 1.3719(6) 1.1639(3)
H8A H -0.9610 1.4118 1.2149
C13A C -0.7850(6) 1.3409(6) 1.1256(2)
H9A H -0.6919 1.3563 1.1513
C14A C -0.7583(6) 1.2855(5) 1.0471(2)
C15A C -0.5938(6) 1.2569(6) 1.0044(3)
H10A H -0.4975 1.2684 1.0292
C16A C -0.5783(6) 1.2132(6) 0.9281(3)
C17A C -0.3948(6) 1.3032(7) 0.8289(3)
C18A C -0.2442(5) 1.2371(6) 0.7707(2)
C19A C -0.2103(6) 1.3531(6) 0.7098(3)
H11A H -0.2713 1.4697 0.7090
C20A C -0.0862(6) 1.2950(6) 0.6509(3)
H12A H -0.0644 1.3746 0.6103
C21A C -0.0253(6) 1.0165(6) 0.7088(3)
H13A H 0.0385 0.9007 0.7089
C22A C -0.1484(5) 1.0663(6) 0.7707(2)
H14A H -0.1660 0.9855 0.8117
loop_
_geom_bond_atom_site_label_1
_geom_bond_atom_site_label_2
_geom_bond_site_symmetry_1
_geom_bond_site_symmetry_2
Ag1 O7 1_555 1_555
Cl1 O5 1_555 1_555
O1 C6 1_555 1_555
O2 C6 1_555 1_555
O3 C17 1_555 1_555
O4 C16 1_555 1_555
O6 Cl1 1_555 1_555
O7 Cl1 1_555 1_555
O8 Cl1 1_555 1_555
N1 Ag1 1_555 1_555
N2 C20 1_555 1_555
C1 N1 1_555 1_555
H1 C1 1_555 1_555
C2 C1 1_555 1_555
H2 C2 1_555 1_555
C3 C2 1_555 1_555
C4 C3 1_555 1_555
H3 C4 1_555 1_555
C5 N1 1_555 1_555
H4 C5 1_555 1_555
C6 C3 1_555 1_555
C7 O2 1_555 1_555
C8 C7 1_555 1_555
H5 C8 1_555 1_555
C9 C8 1_555 1_555
C10 C9 1_555 1_555
H6 C10 1_555 1_555
C11 C10 1_555 1_555
H7 C11 1_555 1_555
C12 C11 1_555 1_555
H8 C12 1_555 1_555
C13 C12 1_555 1_555
H9 C13 1_555 1_555
C14 C9 1_555 1_555
C15 C14 1_555 1_555
H10 C15 1_555 1_555
C16 C7 1_555 1_555
C17 O4 1_555 1_555
C18 C17 1_555 1_555
C19 C18 1_555 1_555
H11 C19 1_555 1_555
C20 C19 1_555 1_555
H12 C20 1_555 1_555
C21 N2 1_555 1_555
H13 C21 1_555 1_555
C22 C18 1_555 1_555
H14 C22 1_555 1_555
Ag1A N2 1_555 1_555
Cl1A O5A 1_555 1_555
O1A C6A 1_555 1_555
O2A C6A 1_555 1_555
O3A C17A 1_555 1_555
O4A C16A 1_555 1_555
O6A Cl1A 1_555 1_555
O7A Ag1A 1_555 1_555
O8A Cl1A 1_555 1_555
N1A Ag1A 1_555 1_555
N2A Ag1 1_555 1_555
C1A N1A 1_555 1_555
H1A C1A 1_555 1_555
C2A C1A 1_555 1_555
H2A C2A 1_555 1_555
C3A C2A 1_555 1_555
C4A C3A 1_555 1_555
H3A C4A 1_555 1_555
C5A N1A 1_555 1_555
H4A C5A 1_555 1_555
C6A C3A 1_555 1_555
C7A O2A 1_555 1_555
C8A C7A 1_555 1_555
H5A C8A 1_555 1_555
C9A C8A 1_555 1_555
C10A C9A 1_555 1_555
H6A C10A 1_555 1_555
C11A C10A 1_555 1_555
H7A C11A 1_555 1_555
C12A C11A 1_555 1_555
H8A C12A 1_555 1_555
C13A C12A 1_555 1_555
H9A C13A 1_555 1_555
C14A C9A 1_555 1_555
C15A C14A 1_555 1_555
H10A C15A 1_555 1_555
C16A C7A 1_555 1_555
C17A O4A 1_555 1_555
C18A C17A 1_555 1_555
C19A C18A 1_555 1_555
H11A C19A 1_555 1_555
C20A N2A 1_555 1_555
H12A C20A 1_555 1_555
C21A N2A 1_555 1_555
H13A C21A 1_555 1_555
C22A C18A 1_555 1_555
H14A C22A 1_555 1_555
C4 C5 1_555 1_555
C13 C14 1_555 1_555
C15 C16 1_555 1_555
C21 C22 1_555 1_555
Cl1A O7A 1_555 1_555
C4A C5A 1_555 1_555
C13A C14A 1_555 1_555
C15A C16A 1_555 1_555
C19A C20A 1_555 1_555
C21A C22A 1_555 1_555

#END
