
#######################################################################
#
#                 Cambridge Crystallographic Data Centre
#                                CCDC 
#
#######################################################################
#
# If this CIF has been generated from an entry in the Cambridge 
# Structural Database, then it will include bibliographic, chemical, 
# crystal, experimental, refinement or atomic coordinate data resulting 
# from the CCDC's data processing and validation procedures.
#
#######################################################################

data_DOVMUW
_chemical_formula_moiety         '2(C5 H6 N1 O1 1+),C12 H4 Cl4 Cu1 O10 2-'
_chemical_name_systematic        
'bis(4-Hydroxypyridinium) bis(chloranilato)-diaqua-copper(ii)'
_symmetry_cell_setting           triclinic
_symmetry_space_group_name_H-M   'P -1'
_symmetry_Int_Tables_number      2
_space_group_name_Hall           '-P 1'
loop_
_symmetry_equiv_pos_site_id
_symmetry_equiv_pos_as_xyz
1 x,y,z
2 -x,-y,-z
_cell_length_a                   9.028(2)
_cell_length_b                   9.797(2)
_cell_length_c                   8.764(2)
_cell_angle_alpha                113.17(2)
_cell_angle_beta                 117.23(1)
_cell_angle_gamma                71.65(2)
_cell_volume                     624.981
_exptl_crystal_colour            violet
_exptl_crystal_description       prismatic
_cell_formula_units_Z            1
loop_
_atom_site_label
_atom_site_type_symbol
_atom_site_fract_x
_atom_site_fract_y
_atom_site_fract_z
Cu1 Cu 0.0000 0.0000 0.0000
Cl1 Cl -0.4562(1) 0.3489(1) -0.3260(1)
Cl2 Cl -0.4991(1) -0.2296(1) -0.1999(1)
O1 O -0.1694(3) 0.1370(3) -0.1355(3)
O2 O -0.1898(3) -0.0984(3) -0.0815(3)
O3 O -0.7506(3) 0.1987(3) -0.4801(3)
O4 O -0.7768(3) -0.0326(3) -0.4111(4)
O5 O 0.0640(3) -0.1452(3) -0.2922(3)
C1 C -0.3181(4) 0.1066(4) -0.2026(4)
C2 C -0.4624(4) 0.1859(4) -0.2969(5)
C3 C -0.6213(4) 0.1377(4) -0.3809(4)
C4 C -0.6344(4) -0.0001(4) -0.3453(5)
C5 C -0.4841(4) -0.0760(4) -0.2416(5)
C6 C -0.3295(4) -0.0322(4) -0.1730(4)
H1 H -0.0409 -0.1433 -0.3685
H2 H 0.1216 -0.0957 -0.3061
O1A O 0.1694(3) -0.1370(3) 0.1355(3)
C1A C 0.3181(4) -0.1066(4) 0.2026(4)
C2A C 0.4624(4) -0.1859(4) 0.2969(5)
Cl1A Cl 0.4562(1) -0.3489(1) 0.3260(1)
C3A C 0.6213(4) -0.1377(4) 0.3809(4)
O3A O 0.7506(3) -0.1987(3) 0.4801(3)
C4A C 0.6344(4) 0.0001(4) 0.3453(5)
O4A O 0.7768(3) 0.0326(3) 0.4111(4)
C5A C 0.4841(4) 0.0760(4) 0.2416(5)
Cl2A Cl 0.4991(1) 0.2296(1) 0.1999(1)
C6A C 0.3295(4) 0.0322(4) 0.1730(4)
O2A O 0.1898(3) 0.0984(3) 0.0815(3)
O5A O -0.0640(3) 0.1452(3) 0.2922(3)
H1A H 0.0409 0.1433 0.3685
H2A H -0.1216 0.0957 0.3061
O6 O -0.2241(3) 0.3837(3) 0.1881(4)
N1 N 0.0540(4) 0.6668(4) 0.2442(5)
C7 C -0.1278(5) 0.4712(4) 0.2076(5)
C8 C -0.2037(5) 0.5802(4) 0.1158(5)
C9 C -0.1104(5) 0.6746(4) 0.1350(5)
C10 C 0.1301(5) 0.5637(5) 0.3336(6)
C11 C 0.0444(5) 0.4628(4) 0.3164(5)
H3 H -0.1550 0.2971 0.2383
H4 H -0.3220 0.5742 0.0300
H5 H -0.1555 0.7694 0.0943
H6 H 0.1177 0.7315 0.2363
H7 H 0.2521 0.5520 0.4087
H8 H 0.1005 0.3870 0.3979
loop_
_geom_bond_atom_site_label_1
_geom_bond_atom_site_label_2
_geom_bond_site_symmetry_1
_geom_bond_site_symmetry_2
Cu1 O1 1_555 1_555
Cl1 C2 1_555 1_555
Cl2 C5 1_555 1_555
O1 C1 1_555 1_555
O2 Cu1 1_555 1_555
O3 C3 1_555 1_555
O4 C4 1_555 1_555
O5 Cu1 1_555 1_555
C1 C2 1_555 1_555
C2 C3 1_555 1_555
C3 C4 1_555 1_555
C4 C5 1_555 1_555
C5 C6 1_555 1_555
C6 O2 1_555 1_555
H1 O5 1_555 1_555
H2 O5 1_555 1_555
O6 C7 1_555 1_555
N1 C9 1_555 1_555
C7 C8 1_555 1_555
C8 C9 1_555 1_555
C9 H5 1_555 1_555
C10 N1 1_555 1_555
C11 C7 1_555 1_555
H3 O6 1_555 1_555
H4 C8 1_555 1_555
H6 N1 1_555 1_555
H7 C10 1_555 1_555
H8 C11 1_555 1_555
O1A Cu1 1_555 1_555
C1A O1A 1_555 1_555
C2A C1A 1_555 1_555
Cl1A C2A 1_555 1_555
C3A C2A 1_555 1_555
O3A C3A 1_555 1_555
C4A C3A 1_555 1_555
O4A C4A 1_555 1_555
C5A C4A 1_555 1_555
Cl2A C5A 1_555 1_555
C6A C1A 1_555 1_555
O2A Cu1 1_555 1_555
O5A Cu1 1_555 1_555
H1A O5A 1_555 1_555
H2A O5A 1_555 1_555
C1 C6 1_555 1_555
C10 C11 1_555 1_555
C5A C6A 1_555 1_555
C6A O2A 1_555 1_555

#END
