
#######################################################################
#
#                 Cambridge Crystallographic Data Centre
#                                CCDC 
#
#######################################################################
#
# If this CIF has been generated from an entry in the Cambridge 
# Structural Database, then it will include bibliographic, chemical, 
# crystal, experimental, refinement or atomic coordinate data resulting 
# from the CCDC's data processing and validation procedures.
#
#######################################################################

data_DUBJIU
_chemical_formula_moiety         'C44 H36 Cl4 N4 Pd2 Si2'
_chemical_name_systematic        
bis(\m~2~-(3,3'-(Diphenylsilanediyl)bispyridine))-tetrachloro-di-palladium(ii)
_symmetry_cell_setting           monoclinic
_symmetry_space_group_name_H-M   'C 2/c'
_symmetry_Int_Tables_number      15
_space_group_name_Hall           '-C 2yn'
loop_
_symmetry_equiv_pos_site_id
_symmetry_equiv_pos_as_xyz
1 x,y,z
2 -x,y,1/2-z
3 1/2+x,1/2+y,z
4 1/2-x,1/2+y,1/2-z
5 -x,-y,-z
6 x,-y,1/2+z
7 1/2-x,1/2-y,-z
8 1/2+x,1/2-y,1/2+z
_cell_length_a                   17.9540(9)
_cell_length_b                   13.9431(7)
_cell_length_c                   19.0212(9)
_cell_angle_alpha                90
_cell_angle_beta                 114.8390(10)
_cell_angle_gamma                90
_cell_volume                     4321.17
_exptl_crystal_colour            yellow
_exptl_crystal_description       block
_chemical_melting_point          201deg.C(dec.)
_cell_formula_units_Z            4
loop_
_atom_site_label
_atom_site_type_symbol
_atom_site_fract_x
_atom_site_fract_y
_atom_site_fract_z
Pd1 Pd 0.007954(10) 0.567344(11) 0.141017(9)
Cl1 Cl 0.12047(4) 0.48731(4) 0.14238(4)
Cl2 Cl -0.10323(4) 0.65607(4) 0.13100(4)
Si1 Si -0.05745(4) 0.16898(4) 0.06151(3)
N1 N -0.04932(11) 0.44283(12) 0.14701(10)
N2 N -0.06075(12) 0.30970(13) -0.13084(10)
C1 C -0.10225(14) 0.43941(16) 0.18015(13)
H1 H -0.1114 0.4959 0.2034
C2 C -0.14363(14) 0.35713(17) 0.18165(13)
H2 H -0.1789 0.3562 0.2074
C3 C -0.13335(14) 0.27558(16) 0.14521(13)
H3 H -0.1634 0.2190 0.1441
C4 C -0.07905(12) 0.27637(15) 0.11026(12)
C5 C -0.03711(13) 0.36176(15) 0.11487(12)
H4 H 0.0026 0.3629 0.0940
C6 C -0.12260(14) 0.06767(15) 0.06585(13)
C7 C -0.20872(15) 0.07562(18) 0.03033(14)
H5 H -0.2331 0.1325 0.0028
C8 C -0.25858(17) 0.0027(2) 0.03457(15)
H6 H -0.3165 0.0099 0.0104
C9 C -0.2244(2) -0.0803(2) 0.07378(18)
H7 H -0.2586 -0.1305 0.0769
C10 C -0.1404(2) -0.09053(18) 0.10849(18)
H8 H -0.1170 -0.1483 0.1350
C11 C -0.08945(17) -0.01740(16) 0.10520(15)
H9 H -0.0316 -0.0254 0.1299
C12 C 0.05463(13) 0.14197(15) 0.11180(13)
C13 C 0.08962(15) 0.11781(18) 0.19045(14)
H10 H 0.0559 0.1149 0.2178
C14 C 0.17309(16) 0.09795(19) 0.22928(15)
H11 H 0.1960 0.0808 0.2825
C15 C 0.22228(16) 0.10328(19) 0.18998(17)
H12 H 0.2793 0.0899 0.2164
C16 C 0.18938(16) 0.1279(2) 0.11249(17)
H13 H 0.2237 0.1319 0.0858
C17 C 0.10610(15) 0.14663(18) 0.07376(15)
H14 H 0.0837 0.1630 0.0203
C18 C -0.08184(13) 0.20012(15) -0.04240(12)
C19 C -0.12090(15) 0.13792(17) -0.10411(13)
H15 H -0.1415 0.0782 -0.0959
C20 C -0.12984(17) 0.16312(18) -0.17771(14)
H16 H -0.1577 0.1214 -0.2202
C21 C -0.09837(15) 0.24842(17) -0.18914(13)
H17 H -0.1034 0.2642 -0.2395
C22 C -0.05361(15) 0.28557(17) -0.05994(13)
H18 H -0.0275 0.3299 -0.0190
Pd1D Pd -0.007954(10) 0.432656(11) -0.141017(9)
Cl1D Cl -0.12047(4) 0.51269(4) -0.14238(4)
Cl2D Cl 0.10323(4) 0.34393(4) -0.13100(4)
Si1D Si 0.05745(4) 0.83102(4) -0.06151(3)
N1D N 0.04932(11) 0.55717(12) -0.14701(10)
N2D N 0.06075(12) 0.69030(13) 0.13084(10)
C1D C 0.10225(14) 0.56059(16) -0.18015(13)
H1D H 0.1114 0.5041 -0.2034
C2D C 0.14363(14) 0.64287(17) -0.18165(13)
H2D H 0.1789 0.6438 -0.2074
C3D C 0.13335(14) 0.72442(16) -0.14521(13)
H3D H 0.1634 0.7810 -0.1441
C4D C 0.07905(12) 0.72363(15) -0.11026(12)
C5D C 0.03711(13) 0.63824(15) -0.11487(12)
H4D H -0.0026 0.6371 -0.0940
C6D C 0.12260(14) 0.93233(15) -0.06585(13)
C7D C 0.20872(15) 0.92438(18) -0.03033(14)
H5D H 0.2331 0.8675 -0.0028
C8D C 0.25858(17) 0.9973(2) -0.03457(15)
H6D H 0.3165 0.9901 -0.0104
C9D C 0.2244(2) 1.0803(2) -0.07378(18)
H7D H 0.2586 1.1305 -0.0769
C10D C 0.1404(2) 1.09053(18) -0.10849(18)
H8D H 0.1170 1.1483 -0.1350
C11D C 0.08945(17) 1.01740(16) -0.10520(15)
H9D H 0.0316 1.0254 -0.1299
C12D C -0.05463(13) 0.85803(15) -0.11180(13)
C13D C -0.08962(15) 0.88219(18) -0.19045(14)
H10D H -0.0559 0.8851 -0.2178
C14D C -0.17309(16) 0.90205(19) -0.22928(15)
H11D H -0.1960 0.9192 -0.2825
C15D C -0.22228(16) 0.89672(19) -0.18998(17)
H12D H -0.2793 0.9101 -0.2164
C16D C -0.18938(16) 0.8721(2) -0.11249(17)
H13D H -0.2237 0.8681 -0.0858
C17D C -0.10610(15) 0.85337(18) -0.07376(15)
H14D H -0.0837 0.8370 -0.0203
C18D C 0.08184(13) 0.79988(15) 0.04240(12)
C19D C 0.12090(15) 0.86208(17) 0.10411(13)
H15D H 0.1415 0.9218 0.0959
C20D C 0.12984(17) 0.83688(18) 0.17771(14)
H16D H 0.1577 0.8786 0.2202
C21D C 0.09837(15) 0.75158(17) 0.18914(13)
H17D H 0.1034 0.7358 0.2395
C22D C 0.05361(15) 0.71443(17) 0.05994(13)
H18D H 0.0275 0.6701 0.0190
loop_
_geom_bond_atom_site_label_1
_geom_bond_atom_site_label_2
_geom_bond_site_symmetry_1
_geom_bond_site_symmetry_2
Pd1 Cl1 1_555 1_555
Cl2 Pd1 1_555 1_555
Si1 C4 1_555 1_555
N1 Pd1 1_555 1_555
N2 C21 1_555 1_555
C1 N1 1_555 1_555
H1 C1 1_555 1_555
C2 C1 1_555 1_555
H2 C2 1_555 1_555
C3 C2 1_555 1_555
H3 C3 1_555 1_555
C4 C3 1_555 1_555
C5 N1 1_555 1_555
H4 C5 1_555 1_555
C6 Si1 1_555 1_555
C7 C6 1_555 1_555
H5 C7 1_555 1_555
C8 C7 1_555 1_555
H6 C8 1_555 1_555
C9 C8 1_555 1_555
H7 C9 1_555 1_555
C10 C9 1_555 1_555
H8 C10 1_555 1_555
C11 C6 1_555 1_555
H9 C11 1_555 1_555
C12 Si1 1_555 1_555
C13 C12 1_555 1_555
H10 C13 1_555 1_555
C14 C13 1_555 1_555
H11 C14 1_555 1_555
C15 C14 1_555 1_555
H12 C15 1_555 1_555
C16 C15 1_555 1_555
H13 C16 1_555 1_555
C17 C12 1_555 1_555
H14 C17 1_555 1_555
C18 Si1 1_555 1_555
C19 C18 1_555 1_555
H15 C19 1_555 1_555
C20 C19 1_555 1_555
H16 C20 1_555 1_555
C21 C20 1_555 1_555
H17 C21 1_555 1_555
C22 N2 1_555 1_555
H18 C22 1_555 1_555
Pd1D N2 1_555 1_555
Cl1D Pd1D 1_555 1_555
Cl2D Pd1D 1_555 1_555
Si1D C4D 1_555 1_555
N1D Pd1D 1_555 1_555
N2D Pd1 1_555 1_555
C1D N1D 1_555 1_555
H1D C1D 1_555 1_555
C2D C1D 1_555 1_555
H2D C2D 1_555 1_555
C3D C2D 1_555 1_555
H3D C3D 1_555 1_555
C4D C3D 1_555 1_555
C5D N1D 1_555 1_555
H4D C5D 1_555 1_555
C6D Si1D 1_555 1_555
C7D C6D 1_555 1_555
H5D C7D 1_555 1_555
C8D C7D 1_555 1_555
H6D C8D 1_555 1_555
C9D C8D 1_555 1_555
H7D C9D 1_555 1_555
C10D C9D 1_555 1_555
H8D C10D 1_555 1_555
C11D C6D 1_555 1_555
H9D C11D 1_555 1_555
C12D Si1D 1_555 1_555
C13D C12D 1_555 1_555
H10D C13D 1_555 1_555
C14D C13D 1_555 1_555
H11D C14D 1_555 1_555
C15D C14D 1_555 1_555
H12D C15D 1_555 1_555
C16D C15D 1_555 1_555
H13D C16D 1_555 1_555
C17D C12D 1_555 1_555
H14D C17D 1_555 1_555
C18D Si1D 1_555 1_555
C19D C18D 1_555 1_555
H15D C19D 1_555 1_555
C20D C19D 1_555 1_555
H16D C20D 1_555 1_555
C21D N2D 1_555 1_555
H17D C21D 1_555 1_555
C22D N2D 1_555 1_555
H18D C22D 1_555 1_555
C4 C5 1_555 1_555
C10 C11 1_555 1_555
C16 C17 1_555 1_555
C18 C22 1_555 1_555
C4D C5D 1_555 1_555
C10D C11D 1_555 1_555
C16D C17D 1_555 1_555
C18D C22D 1_555 1_555
C20D C21D 1_555 1_555

#END
