
#######################################################################
#
#                 Cambridge Crystallographic Data Centre
#                                CCDC 
#
#######################################################################
#
# If this CIF has been generated from an entry in the Cambridge 
# Structural Database, then it will include bibliographic, chemical, 
# crystal, experimental, refinement or atomic coordinate data resulting 
# from the CCDC's data processing and validation procedures.
#
#######################################################################

data_EBELUS
_chemical_formula_moiety         
'C96 H120 N32 Pd8 16+,16(N1 O3 1-),C1 Br4,24(H2 O1)'
_chemical_name_systematic        
"tetrakis(\m~4~-1,3-bis(3-Pyridyl)-5-(pyrimidin-5-yl)benzene)-octakis(ethane-1,2-diamine-N,N')-octa-palladium hexadecanitrate tetrabromomethane clathrate hydrate"
_symmetry_cell_setting           monoclinic
_symmetry_space_group_name_H-M   'C 2/c'
_symmetry_Int_Tables_number      15
_space_group_name_Hall           '-C 2yn'
loop_
_symmetry_equiv_pos_site_id
_symmetry_equiv_pos_as_xyz
1 x,y,z
2 -x,y,1/2-z
3 1/2+x,1/2+y,z
4 1/2-x,1/2+y,1/2-z
5 -x,-y,-z
6 x,-y,1/2+z
7 1/2-x,1/2-y,-z
8 1/2+x,1/2-y,1/2+z
_cell_length_a                   40.32(3)
_cell_length_b                   15.767(9)
_cell_length_c                   30.83(2)
_cell_angle_alpha                90
_cell_angle_beta                 127.36(2)
_cell_angle_gamma                90
_cell_volume                     15578.4
_cell_formula_units_Z            4
loop_
_atom_site_label
_atom_site_type_symbol
_atom_site_fract_x
_atom_site_fract_y
_atom_site_fract_z
Pd1 Pd 0.1787(1) 0.4162(1) 0.8015(1)
Pd2 Pd 0.0937(1) 0.8282(1) 1.0156(1)
Pd3 Pd 0.2257(1) 0.5082(1) 1.0133(1)
Pd4 Pd 0.0800(1) 0.7515(1) 0.5852(1)
C2 C 0.1037(2) 0.8307(4) 0.7709(3)
C3 C 0.0876(2) 0.8676(4) 0.7957(3)
C4 C 0.0940(2) 0.8317(4) 0.8414(3)
C5 C 0.1169(2) 0.7572(4) 0.8624(3)
C6 C 0.1339(2) 0.7194(4) 0.8392(3)
C7 C 0.1273(2) 0.7561(4) 0.7935(2)
N1 N 0.0826(2) 0.8382(4) 0.6359(2)
C8 C 0.0953(2) 0.8661(4) 0.7210(3)
C9 C 0.0900(2) 0.8112(4) 0.6822(3)
C10 C 0.0799(3) 0.9229(5) 0.6266(3)
C11 C 0.0834(3) 0.9816(5) 0.6621(3)
C12 C 0.0920(2) 0.9530(4) 0.7108(3)
N2 N 0.0728(2) 0.8766(4) 0.9418(2)
C13 C 0.0745(2) 0.8699(4) 0.8657(3)
C14 C 0.0905(2) 0.8492(4) 0.9190(3)
C15 C 0.0397(2) 0.9283(5) 0.9147(3)
C16 C 0.0239(3) 0.9539(5) 0.8636(3)
C17 C 0.0407(3) 0.9228(5) 0.8376(3)
N3 N 0.1801(2) 0.5078(4) 0.8502(2)
N4 N 0.2019(2) 0.5474(4) 0.9367(2)
C18 C 0.1586(2) 0.6410(4) 0.8624(3)
C19 C 0.1591(2) 0.5786(4) 0.8299(3)
C20 C 0.2017(2) 0.4934(5) 0.9033(3)
C21 C 0.1813(2) 0.6210(4) 0.9171(3)
C22 C 0.0098(2) 0.4196(4) 0.6620(3)
C23 C -0.0292(2) 0.3859(5) 0.6384(3)
C24 C -0.0639(2) 0.4235(4) 0.5929(3)
C25 C -0.0599(2) 0.4963(4) 0.5710(3)
C26 C 0.0139(2) 0.4960(4) 0.6418(3)
C27 C -0.0211(2) 0.5324(4) 0.5953(3)
N5 N 0.1218(2) 0.3749(4) 0.7771(2)
C28 C 0.0477(2) 0.3816(4) 0.7126(3)
C29 C 0.0877(2) 0.4056(4) 0.7319(3)
C30 C 0.1181(3) 0.3177(5) 0.8060(3)
C31 C 0.0796(3) 0.2885(6) 0.7896(4)
C32 C 0.0446(3) 0.3203(6) 0.7424(3)
N6 N 0.1793(2) 0.4188(4) 0.9784(2)
C33 C -0.1068(2) 0.3895(4) 0.5691(3)
C34 C 0.1403(2) 0.4439(4) 0.9556(3)
C35 C 0.1866(2) 0.3377(5) 0.9756(3)
C36 C 0.1552(2) 0.2788(5) 0.9506(3)
C37 C -0.1146(3) 0.3036(5) 0.5711(3)
N7 N 0.0235(2) 0.7100(4) 0.5637(2)
N8 N 0.0457(2) 0.7426(4) 0.9761(2)
C38 C -0.0162(2) 0.6132(4) 0.5742(3)
C39 C 0.0204(2) 0.6371(4) 0.5832(3)
C40 C -0.0094(2) 0.7591(5) 0.5336(3)
C41 C 0.0492(2) 0.6700(4) 0.9558(3)
N9 N 0.2339(2) 0.4545(4) 0.8210(3)
N10 N 0.1811(2) 0.3291(4) 0.7558(3)
C42 C 0.2406(3) 0.4111(6) 0.7831(4)
C43 C 0.2249(3) 0.3227(6) 0.7746(4)
N11 N 0.1411(2) 0.9122(4) 1.0572(3)
N12 N 0.1182(2) 0.7803(4) 1.0908(3)
C44 C 0.1588(3) 0.9085(6) 1.1155(4)
C45 C 0.1596(3) 0.8196(6) 1.1298(4)
N13 N 0.2730(2) 0.5932(5) 1.0510(3)
N14 N 0.2478(2) 0.4741(4) 1.0893(2)
C46 C 0.2893(4) 0.5981(7) 1.1080(3)
C47 C 0.2906(3) 0.5120(7) 1.1273(3)
N15 N 0.0825(2) 0.6643(4) 0.5385(3)
N16 N 0.1369(2) 0.7859(5) 0.6067(3)
C48 C 0.1244(4) 0.6609(11) 0.5530(5)
C49 C 0.1508(4) 0.7185(8) 0.5898(9)
H1 H 0.0720 0.9186 0.7810
H2 H 0.1210 0.7316 0.8932
H3 H 0.1389 0.7306 0.7775
H4 H 0.0917 0.7520 0.6887
H5 H 0.0755 0.9423 0.5943
H6 H 0.0801 1.0403 0.6536
H7 H 0.0955 0.9923 0.7366
H8 H 0.1148 0.8147 0.9399
H9 H 0.0274 0.9469 0.9313
H10 H 0.0014 0.9931 0.8451
H11 H 0.0286 0.9384 0.8010
H12 H 0.1436 0.5885 0.7918
H13 H 0.2176 0.4428 0.9181
H14 H 0.1823 0.6602 0.9413
H15 H -0.0321 0.3366 0.6535
H16 H -0.0839 0.5212 0.5392
H17 H 0.0404 0.5222 0.6599
H18 H 0.0906 0.4460 0.7115
H19 H 0.1427 0.2965 0.8389
H20 H 0.0776 0.2476 0.8106
H21 H 0.0179 0.3003 0.7298
H22 H 0.1354 0.5026 0.9565
H23 H 0.2143 0.3200 0.9912
H24 H 0.1610 0.2213 0.9481
H25 H -0.0928 0.2631 0.5869
H26 H 0.0440 0.6009 0.6039
H27 H -0.0072 0.8086 0.5181
H28 H 0.0749 0.6575 0.9622
H29 H 0.2339 0.5124 0.8174
H30 H 0.2551 0.4404 0.8566
H31 H 0.1724 0.2774 0.7592
H32 H 0.1637 0.3448 0.7197
H33 H 0.2252 0.4415 0.7478
H34 H 0.2706 0.4109 0.7994
H35 H 0.2422 0.2901 0.8090
H36 H 0.2257 0.2938 0.7437
H37 H 0.1614 0.8991 1.0532
H38 H 0.1315 0.9661 1.0438
H39 H 0.1011 0.7928 1.1003
H40 H 0.1207 0.7223 1.0908
H41 H 0.1874 0.9322 1.1384
H42 H 0.1414 0.9422 1.1219
H43 H 0.1677 0.8161 1.1671
H44 H 0.1806 0.7884 1.1292
H45 H 0.2937 0.5761 1.0486
H46 H 0.2635 0.6455 1.0347
H47 H 0.2307 0.4941 1.0973
H48 H 0.2492 0.4159 1.0925
H49 H 0.2712 0.6348 1.1116
H50 H 0.3177 0.6228 1.1302
H51 H 0.2991 0.5142 1.1649
H52 H 0.3112 0.4769 1.1277
H53 H 0.0754 0.6117 0.5435
H54 H 0.0635 0.6784 0.5022
H55 H 0.1348 0.8357 0.5897
H56 H 0.1554 0.7937 0.6438
H57 H 0.1362 0.6037 0.5674
H58 H 0.1222 0.6690 0.5195
H59 H 0.1647 0.7455 0.5758
H60 H 0.1727 0.6871 0.6232
C34A C -0.1403(2) 0.4439(4) 0.5444(3)
N6A N -0.1793(2) 0.4188(4) 0.5216(2)
Pd3A Pd -0.2257(1) 0.5082(1) 0.4867(1)
N4A N -0.2019(2) 0.5474(4) 0.5633(2)
C20A C -0.2017(2) 0.4934(5) 0.5967(3)
N3A N -0.1801(2) 0.5078(4) 0.6498(2)
Pd1A Pd -0.1787(1) 0.4162(1) 0.6985(1)
N5A N -0.1218(2) 0.3749(4) 0.7229(2)
C29A C -0.0877(2) 0.4056(4) 0.7681(3)
C28A C -0.0477(2) 0.3816(4) 0.7874(3)
C22A C -0.0098(2) 0.4196(4) 0.8380(3)
C23A C 0.0292(2) 0.3859(5) 0.8616(3)
C24A C 0.0639(2) 0.4235(4) 0.9071(3)
C25A C 0.0599(2) 0.4963(4) 0.9290(3)
C27A C 0.0211(2) 0.5324(4) 0.9047(3)
C26A C -0.0139(2) 0.4960(4) 0.8582(3)
H17A H -0.0404 0.5222 0.8401
C38A C 0.0162(2) 0.6132(4) 0.9258(3)
C39A C -0.0204(2) 0.6371(4) 0.9168(3)
N7A N -0.0235(2) 0.7100(4) 0.9363(2)
Pd4A Pd -0.0800(1) 0.7515(1) 0.9148(1)
N1A N -0.0826(2) 0.8382(4) 0.8641(2)
C9A C -0.0900(2) 0.8112(4) 0.8178(3)
C8A C -0.0953(2) 0.8661(4) 0.7790(3)
C2A C -0.1037(2) 0.8307(4) 0.7291(3)
C3A C -0.0876(2) 0.8676(4) 0.7043(3)
C4A C -0.0940(2) 0.8317(4) 0.6586(3)
C5A C -0.1169(2) 0.7572(4) 0.6376(3)
C6A C -0.1339(2) 0.7194(4) 0.6608(3)
C7A C -0.1273(2) 0.7561(4) 0.7065(2)
H3A H -0.1389 0.7306 0.7225
C18A C -0.1586(2) 0.6410(4) 0.6376(3)
C19A C -0.1591(2) 0.5786(4) 0.6701(3)
H12A H -0.1436 0.5885 0.7082
C21A C -0.1813(2) 0.6210(4) 0.5829(3)
H14A H -0.1823 0.6602 0.5587
H2A H -0.1210 0.7316 0.6068
C13A C -0.0745(2) 0.8699(4) 0.6343(3)
C14A C -0.0905(2) 0.8492(4) 0.5810(3)
N2A N -0.0728(2) 0.8766(4) 0.5582(2)
Pd2A Pd -0.0937(1) 0.8282(1) 0.4844(1)
N8A N -0.0457(2) 0.7426(4) 0.5239(2)
C41A C -0.0492(2) 0.6700(4) 0.5442(3)
H28A H -0.0749 0.6575 0.5378
N11A N -0.1411(2) 0.9122(4) 0.4428(3)
C44A C -0.1588(3) 0.9085(6) 0.3845(4)
C45A C -0.1596(3) 0.8196(6) 0.3702(4)
N12A N -0.1182(2) 0.7803(4) 0.4092(3)
H39A H -0.1011 0.7928 0.3997
H40A H -0.1207 0.7223 0.4092
H43A H -0.1677 0.8161 0.3329
H44A H -0.1806 0.7884 0.3708
H41A H -0.1874 0.9322 0.3616
H42A H -0.1414 0.9422 0.3781
H37A H -0.1614 0.8991 0.4468
H38A H -0.1315 0.9661 0.4562
C15A C -0.0397(2) 0.9283(5) 0.5853(3)
C16A C -0.0239(3) 0.9539(5) 0.6364(3)
C17A C -0.0407(3) 0.9228(5) 0.6624(3)
H11A H -0.0286 0.9384 0.6990
H10A H -0.0014 0.9931 0.6549
H9A H -0.0274 0.9469 0.5687
H8A H -0.1148 0.8147 0.5601
H1A H -0.0720 0.9186 0.7190
C12A C -0.0920(2) 0.9530(4) 0.7892(3)
C11A C -0.0834(3) 0.9816(5) 0.8379(3)
C10A C -0.0799(3) 0.9229(5) 0.8734(3)
H5A H -0.0755 0.9423 0.9057
H6A H -0.0801 1.0403 0.8464
H7A H -0.0955 0.9923 0.7634
H4A H -0.0917 0.7520 0.8113
N15A N -0.0825(2) 0.6643(4) 0.9615(3)
C48A C -0.1244(4) 0.6609(11) 0.9470(5)
C49A C -0.1508(4) 0.7185(8) 0.9102(9)
N16A N -0.1369(2) 0.7859(5) 0.8933(3)
H55A H -0.1348 0.8357 0.9103
H56A H -0.1554 0.7937 0.8562
H59A H -0.1647 0.7455 0.9242
H60A H -0.1727 0.6871 0.8768
H57A H -0.1362 0.6037 0.9326
H58A H -0.1222 0.6690 0.9805
H53A H -0.0754 0.6117 0.9565
H54A H -0.0635 0.6784 0.9978
C40A C 0.0094(2) 0.7591(5) 0.9664(3)
H27A H 0.0072 0.8086 0.9819
H26A H -0.0440 0.6009 0.8961
H16A H 0.0839 0.5212 0.9608
C33A C 0.1068(2) 0.3895(4) 0.9309(3)
C37A C 0.1146(3) 0.3036(5) 0.9289(3)
H25A H 0.0928 0.2631 0.9131
H15A H 0.0321 0.3366 0.8465
C32A C -0.0446(3) 0.3203(6) 0.7576(3)
C31A C -0.0796(3) 0.2885(6) 0.7104(4)
C30A C -0.1181(3) 0.3177(5) 0.6940(3)
H19A H -0.1427 0.2965 0.6611
H20A H -0.0776 0.2476 0.6894
H21A H -0.0179 0.3003 0.7702
H18A H -0.0906 0.4460 0.7885
N9A N -0.2339(2) 0.4545(4) 0.6790(3)
C42A C -0.2406(3) 0.4111(6) 0.7169(4)
C43A C -0.2249(3) 0.3227(6) 0.7254(4)
N10A N -0.1811(2) 0.3291(4) 0.7442(3)
H31A H -0.1724 0.2774 0.7408
H32A H -0.1637 0.3448 0.7803
H35A H -0.2422 0.2901 0.6910
H36A H -0.2257 0.2938 0.7563
H33A H -0.2252 0.4415 0.7522
H34A H -0.2706 0.4109 0.7006
H29A H -0.2339 0.5124 0.6826
H30A H -0.2551 0.4404 0.6434
H13A H -0.2176 0.4428 0.5819
N13A N -0.2730(2) 0.5932(5) 0.4490(3)
C46A C -0.2893(4) 0.5981(7) 0.3920(3)
C47A C -0.2906(3) 0.5120(7) 0.3727(3)
N14A N -0.2478(2) 0.4741(4) 0.4107(2)
H47A H -0.2307 0.4941 0.4027
H48A H -0.2492 0.4159 0.4075
H51A H -0.2991 0.5142 0.3351
H52A H -0.3112 0.4769 0.3723
H49A H -0.2712 0.6348 0.3884
H50A H -0.3177 0.6228 0.3698
H45A H -0.2937 0.5761 0.4514
H46A H -0.2635 0.6455 0.4653
C35A C -0.1866(2) 0.3377(5) 0.5244(3)
C36A C -0.1552(2) 0.2788(5) 0.5494(3)
H24A H -0.1610 0.2213 0.5519
H23A H -0.2143 0.3200 0.5088
H22A H -0.1354 0.5026 0.5435
C1 C 0.0000 0.3731(8) 0.2500
Br1 Br -0.0089(1) 0.3012(1) 0.2926(1)
Br2 Br 0.0478(1) 0.4432(1) 0.2965(1)
Br1A Br 0.0089(1) 0.3012(1) 0.2074(1)
Br2A Br -0.0478(1) 0.4432(1) 0.2035(1)
N17 N 0.2317(3) 0.7604(6) 0.4066(3)
O1 O 0.2087(3) 0.8096(6) 0.4079(5)
O2 O 0.2567(2) 0.7866(5) 0.3988(3)
O3 O 0.2311(5) 0.6872(6) 0.4152(6)
N18 N 0.3064(3) 0.3253(7) 0.7527(3)
O4 O 0.2833(5) 0.3393(9) 0.7046(4)
O5 O 0.3140(3) 0.2507(6) 0.7700(4)
O6 O 0.3221(2) 0.3852(5) 0.7850(3)
N19 N 0.3715(2) 0.0768(4) 0.8106(3)
O7 O 0.3847(2) 0.0746(6) 0.8582(3)
O8 O 0.3369(2) 0.0531(5) 0.7760(3)
O9 O 0.3949(2) 0.1012(4) 0.7989(2)
N20 N 0.1496(6) 0.0325(10) 0.9491(7)
O10 O 0.1201(5) 0.0811(9) 0.9425(6)
O11 O 0.1768(8) 0.0121(13) 0.9916(7)
O12 O 0.1465(4) 0.0095(8) 0.9077(6)
N21 N 0.1557(4) 0.6437(7) 1.0214(5)
O13 O 0.1933(5) 0.6436(18) 1.0489(7)
O14 O 0.1432(5) 0.6095(19) 1.0531(8)
O15 O 0.1360(2) 0.6525(4) 0.9743(3)
N23 N 0.2170(4) 0.8102(9) 1.0382(5)
O18 O 0.2080(7) 0.8430(20) 1.0606(10)
O19 O 0.1906(6) 0.8042(13) 0.9903(7)
O20 O 0.2452(5) 0.7863(10) 1.0468(11)
N24 N -0.0119(5) 0.2247(19) 0.5778(7)
O21 O 0.0053(9) 0.2680(30) 0.5629(10)
O22 O -0.0517(4) 0.2079(9) 0.5567(5)
O23 O 0.0093(4) 0.1821(10) 0.6270(5)
O26 O 0.0998(3) -0.0756(5) 0.5210(4)
O27 O 0.2017(8) 0.5523(12) 0.1406(7)
O28 O 0.1102(4) -0.0922(7) 0.3088(5)
O29 O -0.0399(4) 0.1582(6) 0.6616(5)
O30 O 0.1940(3) 0.0578(6) 0.7464(4)
O31 O 0.1257(6) 0.3848(6) 0.6450(4)
O32 O 0.2761(4) 0.0991(8) 0.8026(6)
O33 O 0.2368(3) 0.6378(6) 0.8243(4)
O34 O 0.1976(3) 0.1143(6) 0.0785(4)
O35 O 0.1497(3) 0.1622(5) 0.7640(3)
O36 O -0.0250(5) 0.0748(9) 0.7478(7)
O37 O 0.0895(3) 0.2037(7) 0.6564(4)
N22? N 0.0007(6) -0.0281(9) 0.4923(5)
O16? O 0.0204(5) -0.0878(9) 0.4928(7)
O17? O 0.0239(4) 0.0433(5) 0.5060(5)
N25? N 0.0198(10) 0.4430(30) 0.5315(12)
O24? O 0.0312(7) 0.5151(10) 0.5192(8)
O25? O 0.0400(13) 0.3770(13) 0.5610(12)
loop_
_geom_bond_atom_site_label_1
_geom_bond_atom_site_label_2
_geom_bond_site_symmetry_1
_geom_bond_site_symmetry_2
Pd1 N3 1_555 1_555
Pd2 N2 1_555 1_555
Pd3 N4 1_555 1_555
Pd4 N1 1_555 1_555
C1 Br1 1_555 1_555
Br2 C1 1_555 1_555
C2 C3 1_555 1_555
C3 C4 1_555 1_555
C4 C5 1_555 1_555
C5 C6 1_555 1_555
C6 C7 1_555 1_555
C7 C2 1_555 1_555
N1 C9 1_555 1_555
C8 C2 1_555 1_555
C9 C8 1_555 1_555
C10 N1 1_555 1_555
C11 C10 1_555 1_555
C12 C8 1_555 1_555
N2 C14 1_555 1_555
C13 C4 1_555 1_555
C14 C13 1_555 1_555
C15 N2 1_555 1_555
C16 C15 1_555 1_555
C17 C13 1_555 1_555
N3 C19 1_555 1_555
N4 C20 1_555 1_555
C18 C6 1_555 1_555
C19 C18 1_555 1_555
C20 N3 1_555 1_555
C21 N4 1_555 1_555
C22 C23 1_555 1_555
C23 C24 1_555 1_555
C24 C25 1_555 1_555
C25 C27 1_555 1_555
C26 C22 1_555 1_555
C27 C26 1_555 1_555
N5 Pd1 1_555 1_555
C28 C22 1_555 1_555
C29 N5 1_555 1_555
C30 N5 1_555 1_555
C31 C30 1_555 1_555
C32 C28 1_555 1_555
N6 Pd3 1_555 1_555
C33 C24 1_555 1_555
C34 N6 1_555 1_555
C35 N6 1_555 1_555
C36 C35 1_555 1_555
C37 C33 1_555 1_555
N7 Pd4 1_555 1_555
N8 Pd2 1_555 1_555
C38 C27 1_555 1_555
C39 N7 1_555 1_555
C40 N7 1_555 1_555
C41 N8 1_555 1_555
N9 Pd1 1_555 1_555
N10 Pd1 1_555 1_555
C42 N9 1_555 1_555
C43 N10 1_555 1_555
N11 Pd2 1_555 1_555
N12 Pd2 1_555 1_555
C44 N11 1_555 1_555
C45 N12 1_555 1_555
N13 Pd3 1_555 1_555
N14 Pd3 1_555 1_555
C46 N13 1_555 1_555
C47 N14 1_555 1_555
N15 Pd4 1_555 1_555
N16 Pd4 1_555 1_555
C48 N15 1_555 1_555
C49 N16 1_555 1_555
N17 O1 1_555 1_555
O2 N17 1_555 1_555
O3 N17 1_555 1_555
N18 O4 1_555 1_555
O5 N18 1_555 1_555
O6 N18 1_555 1_555
N19 O7 1_555 1_555
O8 N19 1_555 1_555
O9 N19 1_555 1_555
N20 O10 1_555 1_555
O11 N20 1_555 1_555
O12 N20 1_555 1_555
N21 O13 1_555 1_555
O14 N21 1_555 1_555
O15 N21 1_555 1_555
N23 O18 1_555 1_555
O19 N23 1_555 1_555
O20 N23 1_555 1_555
N24 O21 1_555 1_555
O22 N24 1_555 1_555
O23 N24 1_555 1_555
H1 C3 1_555 1_555
H2 C5 1_555 1_555
H3 C7 1_555 1_555
H4 C9 1_555 1_555
H5 C10 1_555 1_555
H6 C11 1_555 1_555
H7 C12 1_555 1_555
H8 C14 1_555 1_555
H9 C15 1_555 1_555
H10 C16 1_555 1_555
H11 C17 1_555 1_555
H12 C19 1_555 1_555
H13 C20 1_555 1_555
H14 C21 1_555 1_555
H15 C23 1_555 1_555
H16 C25 1_555 1_555
H17 C26 1_555 1_555
H18 C29 1_555 1_555
H19 C30 1_555 1_555
H20 C31 1_555 1_555
H21 C32 1_555 1_555
H22 C34 1_555 1_555
H23 C35 1_555 1_555
H24 C36 1_555 1_555
H25 C37 1_555 1_555
H26 C39 1_555 1_555
H27 C40 1_555 1_555
H28 C41 1_555 1_555
H29 N9 1_555 1_555
H30 N9 1_555 1_555
H31 N10 1_555 1_555
H32 N10 1_555 1_555
H33 C42 1_555 1_555
H34 C42 1_555 1_555
H35 C43 1_555 1_555
H36 C43 1_555 1_555
H37 N11 1_555 1_555
H38 N11 1_555 1_555
H39 N12 1_555 1_555
H40 N12 1_555 1_555
H41 C44 1_555 1_555
H42 C44 1_555 1_555
H43 C45 1_555 1_555
H44 C45 1_555 1_555
H45 N13 1_555 1_555
H46 N13 1_555 1_555
H47 N14 1_555 1_555
H48 N14 1_555 1_555
H49 C46 1_555 1_555
H50 C46 1_555 1_555
H51 C47 1_555 1_555
H52 C47 1_555 1_555
H53 N15 1_555 1_555
H54 N15 1_555 1_555
H55 N16 1_555 1_555
H56 N16 1_555 1_555
H57 C48 1_555 1_555
H58 C48 1_555 1_555
H59 C49 1_555 1_555
H60 C49 1_555 1_555
C34A C33 1_555 1_555
N6A C34A 1_555 1_555
Pd3A N6A 1_555 1_555
N4A Pd3A 1_555 1_555
C20A N4A 1_555 1_555
N3A C20A 1_555 1_555
Pd1A N3A 1_555 1_555
N5A Pd1A 1_555 1_555
C29A N5A 1_555 1_555
C28A C29A 1_555 1_555
C22A C28A 1_555 1_555
C23A C22A 1_555 1_555
C24A C23A 1_555 1_555
C25A C24A 1_555 1_555
C27A C25A 1_555 1_555
C26A C22A 1_555 1_555
H17A C26A 1_555 1_555
C38A C41 1_555 1_555
C39A C38A 1_555 1_555
N7A C39A 1_555 1_555
Pd4A N7A 1_555 1_555
N1A Pd4A 1_555 1_555
C9A N1A 1_555 1_555
C8A C9A 1_555 1_555
C2A C8A 1_555 1_555
C3A C2A 1_555 1_555
C4A C3A 1_555 1_555
C5A C4A 1_555 1_555
C6A C5A 1_555 1_555
C7A C2A 1_555 1_555
H3A C7A 1_555 1_555
C18A C6A 1_555 1_555
C19A N3A 1_555 1_555
H12A C19A 1_555 1_555
C21A N4A 1_555 1_555
H14A C21A 1_555 1_555
H2A C5A 1_555 1_555
C13A C4A 1_555 1_555
C14A C13A 1_555 1_555
N2A C14A 1_555 1_555
Pd2A N2A 1_555 1_555
N8A C40 1_555 1_555
C41A C38 1_555 1_555
H28A C41A 1_555 1_555
N11A Pd2A 1_555 1_555
C44A N11A 1_555 1_555
C45A C44A 1_555 1_555
N12A Pd2A 1_555 1_555
H39A N12A 1_555 1_555
H40A N12A 1_555 1_555
H43A C45A 1_555 1_555
H44A C45A 1_555 1_555
H41A C44A 1_555 1_555
H42A C44A 1_555 1_555
H37A N11A 1_555 1_555
H38A N11A 1_555 1_555
C15A N2A 1_555 1_555
C16A C15A 1_555 1_555
C17A C13A 1_555 1_555
H11A C17A 1_555 1_555
H10A C16A 1_555 1_555
H9A C15A 1_555 1_555
H8A C14A 1_555 1_555
H1A C3A 1_555 1_555
C12A C8A 1_555 1_555
C11A C12A 1_555 1_555
C10A N1A 1_555 1_555
H5A C10A 1_555 1_555
H6A C11A 1_555 1_555
H7A C12A 1_555 1_555
H4A C9A 1_555 1_555
N15A Pd4A 1_555 1_555
C48A N15A 1_555 1_555
C49A C48A 1_555 1_555
N16A Pd4A 1_555 1_555
H55A N16A 1_555 1_555
H56A N16A 1_555 1_555
H59A C49A 1_555 1_555
H60A C49A 1_555 1_555
H57A C48A 1_555 1_555
H58A C48A 1_555 1_555
H53A N15A 1_555 1_555
H54A N15A 1_555 1_555
C40A N8 1_555 1_555
H27A C40A 1_555 1_555
H26A C39A 1_555 1_555
H16A C25A 1_555 1_555
C33A C34 1_555 1_555
C37A C36 1_555 1_555
H25A C37A 1_555 1_555
H15A C23A 1_555 1_555
C32A C28A 1_555 1_555
C31A C32A 1_555 1_555
C30A N5A 1_555 1_555
H19A C30A 1_555 1_555
H20A C31A 1_555 1_555
H21A C32A 1_555 1_555
H18A C29A 1_555 1_555
N9A Pd1A 1_555 1_555
C42A N9A 1_555 1_555
C43A C42A 1_555 1_555
N10A Pd1A 1_555 1_555
H31A N10A 1_555 1_555
H32A N10A 1_555 1_555
H35A C43A 1_555 1_555
H36A C43A 1_555 1_555
H33A C42A 1_555 1_555
H34A C42A 1_555 1_555
H29A N9A 1_555 1_555
H30A N9A 1_555 1_555
H13A C20A 1_555 1_555
N13A Pd3A 1_555 1_555
C46A N13A 1_555 1_555
C47A C46A 1_555 1_555
N14A Pd3A 1_555 1_555
H47A N14A 1_555 1_555
H48A N14A 1_555 1_555
H51A C47A 1_555 1_555
H52A C47A 1_555 1_555
H49A C46A 1_555 1_555
H50A C46A 1_555 1_555
H45A N13A 1_555 1_555
H46A N13A 1_555 1_555
C35A N6A 1_555 1_555
C36A C37 1_555 1_555
H24A C36A 1_555 1_555
H23A C35A 1_555 1_555
H22A C34A 1_555 1_555
Br1A C1 1_555 1_555
Br2A C1 1_555 1_555
C11 C12 1_555 1_555
C16 C17 1_555 1_555
C18 C21 1_555 1_555
C28 C29 1_555 1_555
C31 C32 1_555 1_555
C38 C39 1_555 1_555
C42 C43 1_555 1_555
C44 C45 1_555 1_555
C46 C47 1_555 1_555
C48 C49 1_555 1_555
C24A C33A 1_555 1_555
C27A C26A 1_555 1_555
C27A C38A 1_555 1_555
N7A C40A 1_555 1_555
C6A C7A 1_555 1_555
C18A C19A 1_555 1_555
C18A C21A 1_555 1_555
Pd2A N8A 1_555 1_555
N8A C41A 1_555 1_555
C45A N12A 1_555 1_555
C16A C17A 1_555 1_555
C11A C10A 1_555 1_555
C49A N16A 1_555 1_555
C33A C37A 1_555 1_555
C31A C30A 1_555 1_555
C43A N10A 1_555 1_555
C47A N14A 1_555 1_555
C35A C36A 1_555 1_555

#END
