# generated using pymatgen
data_H336Pd6C248N56O137
_symmetry_space_group_name_H-M   'P 1'
_cell_length_a   26.15000000
_cell_length_b   26.15000000
_cell_length_c   31.58300000
_cell_angle_alpha   90.00000000
_cell_angle_beta   90.00000000
_cell_angle_gamma   90.00000000
_symmetry_Int_Tables_number   1
_chemical_formula_structural   H336Pd6C248N56O137
_chemical_formula_sum   'H1344 Pd24 C992 N224 O548'
_cell_volume   21597.16601750
_cell_formula_units_Z   4
loop_
 _symmetry_equiv_pos_site_id
 _symmetry_equiv_pos_as_xyz
  1  'x, y, z'
loop_
 _atom_site_type_symbol
 _atom_site_label
 _atom_site_symmetry_multiplicity
 _atom_site_fract_x
 _atom_site_fract_y
 _atom_site_fract_z
 _atom_site_occupancy
  H  H1  1  0.850600  0.469400  0.072200  1
  H  H2  1  0.649400  0.530600  0.572200  1
  H  H3  1  0.280600  0.100600  0.322200  1
  H  H4  1  0.219400  0.899400  0.822200  1
  H  H5  1  0.350600  0.969400  0.572200  1
  H  H6  1  0.149400  0.030600  0.072200  1
  H  H7  1  0.780600  0.600600  0.822200  1
  H  H8  1  0.719400  0.399400  0.322200  1
  H  H9  1  0.149400  0.530600  0.927800  1
  H  H10  1  0.350600  0.469400  0.427800  1
  H  H11  1  0.719400  0.899400  0.677800  1
  H  H12  1  0.780600  0.100600  0.177800  1
  H  H13  1  0.649400  0.030600  0.427800  1
  H  H14  1  0.850600  0.969400  0.927800  1
  H  H15  1  0.219400  0.399400  0.177800  1
  H  H16  1  0.280600  0.600600  0.677800  1
  H  H17  1  0.831600  0.494900  0.115500  1
  H  H18  1  0.668400  0.505100  0.615500  1
  H  H19  1  0.255100  0.081600  0.365500  1
  H  H20  1  0.244900  0.918400  0.865500  1
  H  H21  1  0.331600  0.994900  0.615500  1
  H  H22  1  0.168400  0.005100  0.115500  1
  H  H23  1  0.755100  0.581600  0.865500  1
  H  H24  1  0.744900  0.418400  0.365500  1
  H  H25  1  0.168400  0.505100  0.884500  1
  H  H26  1  0.331600  0.494900  0.384500  1
  H  H27  1  0.744900  0.918400  0.634500  1
  H  H28  1  0.755100  0.081600  0.134500  1
  H  H29  1  0.668400  0.005100  0.384500  1
  H  H30  1  0.831600  0.994900  0.884500  1
  H  H31  1  0.244900  0.418400  0.134500  1
  H  H32  1  0.255100  0.581600  0.634500  1
  H  H33  1  0.807100  0.512400  0.071400  1
  H  H34  1  0.692900  0.487600  0.571400  1
  H  H35  1  0.237600  0.057100  0.321400  1
  H  H36  1  0.262400  0.942900  0.821400  1
  H  H37  1  0.307100  0.012400  0.571400  1
  H  H38  1  0.192900  0.987600  0.071400  1
  H  H39  1  0.737600  0.557100  0.821400  1
  H  H40  1  0.762400  0.442900  0.321400  1
  H  H41  1  0.192900  0.487600  0.928600  1
  H  H42  1  0.307100  0.512400  0.428600  1
  H  H43  1  0.762400  0.942900  0.678600  1
  H  H44  1  0.737600  0.057100  0.178600  1
  H  H45  1  0.692900  0.987600  0.428600  1
  H  H46  1  0.807100  0.012400  0.928600  1
  H  H47  1  0.262400  0.442900  0.178600  1
  H  H48  1  0.237600  0.557100  0.678600  1
  H  H49  1  0.797000  0.416100  0.032000  1
  H  H50  1  0.703000  0.583900  0.532000  1
  H  H51  1  0.333900  0.047000  0.282000  1
  H  H52  1  0.166100  0.953000  0.782000  1
  H  H53  1  0.297000  0.916100  0.532000  1
  H  H54  1  0.203000  0.083900  0.032000  1
  H  H55  1  0.833900  0.547000  0.782000  1
  H  H56  1  0.666100  0.453000  0.282000  1
  H  H57  1  0.203000  0.583900  0.968000  1
  H  H58  1  0.297000  0.416100  0.468000  1
  H  H59  1  0.666100  0.953000  0.718000  1
  H  H60  1  0.833900  0.047000  0.218000  1
  H  H61  1  0.703000  0.083900  0.468000  1
  H  H62  1  0.797000  0.916100  0.968000  1
  H  H63  1  0.166100  0.453000  0.218000  1
  H  H64  1  0.333900  0.547000  0.718000  1
  H  H65  1  0.753100  0.458700  0.032100  1
  H  H66  1  0.746900  0.541300  0.532100  1
  H  H67  1  0.291300  0.003100  0.282100  1
  H  H68  1  0.208700  0.996900  0.782100  1
  H  H69  1  0.253100  0.958700  0.532100  1
  H  H70  1  0.246900  0.041300  0.032100  1
  H  H71  1  0.791300  0.503100  0.782100  1
  H  H72  1  0.708700  0.496900  0.282100  1
  H  H73  1  0.246900  0.541300  0.967900  1
  H  H74  1  0.253100  0.458700  0.467900  1
  H  H75  1  0.708700  0.996900  0.717900  1
  H  H76  1  0.791300  0.003100  0.217900  1
  H  H77  1  0.746900  0.041300  0.467900  1
  H  H78  1  0.753100  0.958700  0.967900  1
  H  H79  1  0.208700  0.496900  0.217900  1
  H  H80  1  0.291300  0.503100  0.717900  1
  H  H81  1  0.739700  0.400800  0.044400  1
  H  H82  1  0.760300  0.599200  0.544400  1
  H  H83  1  0.349200  0.989700  0.294400  1
  H  H84  1  0.150800  0.010300  0.794400  1
  H  H85  1  0.239700  0.900800  0.544400  1
  H  H86  1  0.260300  0.099200  0.044400  1
  H  H87  1  0.849200  0.489700  0.794400  1
  H  H88  1  0.650800  0.510300  0.294400  1
  H  H89  1  0.260300  0.599200  0.955600  1
  H  H90  1  0.239700  0.400800  0.455600  1
  H  H91  1  0.650800  0.010300  0.705600  1
  H  H92  1  0.849200  0.989700  0.205600  1
  H  H93  1  0.760300  0.099200  0.455600  1
  H  H94  1  0.739700  0.900800  0.955600  1
  H  H95  1  0.150800  0.510300  0.205600  1
  H  H96  1  0.349200  0.489700  0.705600  1
  H  H97  1  0.815000  0.408700  0.140900  1
  H  H98  1  0.685000  0.591300  0.640900  1
  H  H99  1  0.341300  0.065000  0.390900  1
  H  H100  1  0.158700  0.935000  0.890900  1
  H  H101  1  0.315000  0.908700  0.640900  1
  H  H102  1  0.185000  0.091300  0.140900  1
  H  H103  1  0.841300  0.565000  0.890900  1
  H  H104  1  0.658700  0.435000  0.390900  1
  H  H105  1  0.185000  0.591300  0.859100  1
  H  H106  1  0.315000  0.408700  0.359100  1
  H  H107  1  0.658700  0.935000  0.609100  1
  H  H108  1  0.841300  0.065000  0.109100  1
  H  H109  1  0.685000  0.091300  0.359100  1
  H  H110  1  0.815000  0.908700  0.859100  1
  H  H111  1  0.158700  0.435000  0.109100  1
  H  H112  1  0.341300  0.565000  0.609100  1
  H  H113  1  0.826300  0.380800  0.096500  1
  H  H114  1  0.673700  0.619200  0.596500  1
  H  H115  1  0.369200  0.076300  0.346500  1
  H  H116  1  0.130800  0.923700  0.846500  1
  H  H117  1  0.326300  0.880800  0.596500  1
  H  H118  1  0.173700  0.119200  0.096500  1
  H  H119  1  0.869200  0.576300  0.846500  1
  H  H120  1  0.630800  0.423700  0.346500  1
  H  H121  1  0.173700  0.619200  0.903500  1
  H  H122  1  0.326300  0.380800  0.403500  1
  H  H123  1  0.630800  0.923700  0.653500  1
  H  H124  1  0.869200  0.076300  0.153500  1
  H  H125  1  0.673700  0.119200  0.403500  1
  H  H126  1  0.826300  0.880800  0.903500  1
  H  H127  1  0.130800  0.423700  0.153500  1
  H  H128  1  0.369200  0.576300  0.653500  1
  H  H129  1  0.770700  0.331900  0.137200  1
  H  H130  1  0.729300  0.668100  0.637200  1
  H  H131  1  0.418100  0.020700  0.387200  1
  H  H132  1  0.081900  0.979300  0.887200  1
  H  H133  1  0.270700  0.831900  0.637200  1
  H  H134  1  0.229300  0.168100  0.137200  1
  H  H135  1  0.918100  0.520700  0.887200  1
  H  H136  1  0.581900  0.479300  0.387200  1
  H  H137  1  0.229300  0.668100  0.862800  1
  H  H138  1  0.270700  0.331900  0.362800  1
  H  H139  1  0.581900  0.979300  0.612800  1
  H  H140  1  0.918100  0.020700  0.112800  1
  H  H141  1  0.729300  0.168100  0.362800  1
  H  H142  1  0.770700  0.831900  0.862800  1
  H  H143  1  0.081900  0.479300  0.112800  1
  H  H144  1  0.418100  0.520700  0.612800  1
  H  H145  1  0.743300  0.350700  0.094500  1
  H  H146  1  0.756700  0.649300  0.594500  1
  H  H147  1  0.399300  0.993300  0.344500  1
  H  H148  1  0.100700  0.006700  0.844500  1
  H  H149  1  0.243300  0.850700  0.594500  1
  H  H150  1  0.256700  0.149300  0.094500  1
  H  H151  1  0.899300  0.493300  0.844500  1
  H  H152  1  0.600700  0.506700  0.344500  1
  H  H153  1  0.256700  0.649300  0.905500  1
  H  H154  1  0.243300  0.350700  0.405500  1
  H  H155  1  0.600700  0.006700  0.655500  1
  H  H156  1  0.899300  0.993300  0.155500  1
  H  H157  1  0.756700  0.149300  0.405500  1
  H  H158  1  0.743300  0.850700  0.905500  1
  H  H159  1  0.100700  0.506700  0.155500  1
  H  H160  1  0.399300  0.493300  0.655500  1
  H  H161  1  0.665200  0.328400  0.142700  1
  H  H162  1  0.834800  0.671600  0.642700  1
  H  H163  1  0.421600  0.915200  0.392700  1
  H  H164  1  0.078400  0.084800  0.892700  1
  H  H165  1  0.165200  0.828400  0.642700  1
  H  H166  1  0.334800  0.171600  0.142700  1
  H  H167  1  0.921600  0.415200  0.892700  1
  H  H168  1  0.578400  0.584800  0.392700  1
  H  H169  1  0.334800  0.671600  0.857300  1
  H  H170  1  0.165200  0.328400  0.357300  1
  H  H171  1  0.578400  0.084800  0.607300  1
  H  H172  1  0.921600  0.915200  0.107300  1
  H  H173  1  0.834800  0.171600  0.357300  1
  H  H174  1  0.665200  0.828400  0.857300  1
  H  H175  1  0.078400  0.584800  0.107300  1
  H  H176  1  0.421600  0.415200  0.607300  1
  H  H177  1  0.672600  0.360300  0.099800  1
  H  H178  1  0.827400  0.639700  0.599800  1
  H  H179  1  0.389700  0.922600  0.349800  1
  H  H180  1  0.110300  0.077400  0.849800  1
  H  H181  1  0.172600  0.860300  0.599800  1
  H  H182  1  0.327400  0.139700  0.099800  1
  H  H183  1  0.889700  0.422600  0.849800  1
  H  H184  1  0.610300  0.577400  0.349800  1
  H  H185  1  0.327400  0.639700  0.900200  1
  H  H186  1  0.172600  0.360300  0.400200  1
  H  H187  1  0.610300  0.077400  0.650200  1
  H  H188  1  0.889700  0.922600  0.150200  1
  H  H189  1  0.827400  0.139700  0.400200  1
  H  H190  1  0.672600  0.860300  0.900200  1
  H  H191  1  0.110300  0.577400  0.150200  1
  H  H192  1  0.389700  0.422600  0.650200  1
  H  H193  1  0.635100  0.381100  0.136000  1
  H  H194  1  0.864900  0.618900  0.636000  1
  H  H195  1  0.368900  0.885100  0.386000  1
  H  H196  1  0.131100  0.114900  0.886000  1
  H  H197  1  0.135100  0.881100  0.636000  1
  H  H198  1  0.364900  0.118900  0.136000  1
  H  H199  1  0.868900  0.385100  0.886000  1
  H  H200  1  0.631100  0.614900  0.386000  1
  H  H201  1  0.364900  0.618900  0.864000  1
  H  H202  1  0.135100  0.381100  0.364000  1
  H  H203  1  0.631100  0.114900  0.614000  1
  H  H204  1  0.868900  0.885100  0.114000  1
  H  H205  1  0.864900  0.118900  0.364000  1
  H  H206  1  0.635100  0.881100  0.864000  1
  H  H207  1  0.131100  0.614900  0.114000  1
  H  H208  1  0.368900  0.385100  0.614000  1
  H  H209  1  0.730900  0.362300  0.207200  1
  H  H210  1  0.769100  0.637700  0.707200  1
  H  H211  1  0.387700  0.980900  0.457200  1
  H  H212  1  0.112300  0.019100  0.957200  1
  H  H213  1  0.230900  0.862300  0.707200  1
  H  H214  1  0.269100  0.137700  0.207200  1
  H  H215  1  0.887700  0.480900  0.957200  1
  H  H216  1  0.612300  0.519100  0.457200  1
  H  H217  1  0.269100  0.637700  0.792800  1
  H  H218  1  0.230900  0.362300  0.292800  1
  H  H219  1  0.612300  0.019100  0.542800  1
  H  H220  1  0.887700  0.980900  0.042800  1
  H  H221  1  0.769100  0.137700  0.292800  1
  H  H222  1  0.730900  0.862300  0.792800  1
  H  H223  1  0.112300  0.519100  0.042800  1
  H  H224  1  0.387700  0.480900  0.542800  1
  H  H225  1  0.708900  0.419300  0.210300  1
  H  H226  1  0.791100  0.580700  0.710300  1
  H  H227  1  0.330700  0.958900  0.460300  1
  H  H228  1  0.169300  0.041100  0.960300  1
  H  H229  1  0.208900  0.919300  0.710300  1
  H  H230  1  0.291100  0.080700  0.210300  1
  H  H231  1  0.830700  0.458900  0.960300  1
  H  H232  1  0.669300  0.541100  0.460300  1
  H  H233  1  0.291100  0.580700  0.789700  1
  H  H234  1  0.208900  0.419300  0.289700  1
  H  H235  1  0.669300  0.041100  0.539700  1
  H  H236  1  0.830700  0.958900  0.039700  1
  H  H237  1  0.791100  0.080700  0.289700  1
  H  H238  1  0.708900  0.919300  0.789700  1
  H  H239  1  0.169300  0.541100  0.039700  1
  H  H240  1  0.330700  0.458900  0.539700  1
  H  H241  1  0.766100  0.409800  0.194000  1
  H  H242  1  0.733900  0.590200  0.694000  1
  H  H243  1  0.340200  0.016100  0.444000  1
  H  H244  1  0.159800  0.983900  0.944000  1
  H  H245  1  0.266100  0.909800  0.694000  1
  H  H246  1  0.233900  0.090200  0.194000  1
  H  H247  1  0.840200  0.516100  0.944000  1
  H  H248  1  0.659800  0.483900  0.444000  1
  H  H249  1  0.233900  0.590200  0.806000  1
  H  H250  1  0.266100  0.409800  0.306000  1
  H  H251  1  0.659800  0.983900  0.556000  1
  H  H252  1  0.840200  0.016100  0.056000  1
  H  H253  1  0.733900  0.090200  0.306000  1
  H  H254  1  0.766100  0.909800  0.806000  1
  H  H255  1  0.159800  0.483900  0.056000  1
  H  H256  1  0.340200  0.516100  0.556000  1
  H  H257  1  0.467800  0.796400  0.513100  1
  H  H258  1  0.032200  0.203600  0.013100  1
  H  H259  1  0.953600  0.717800  0.763100  1
  H  H260  1  0.546400  0.282200  0.263100  1
  H  H261  1  0.967800  0.296400  0.013100  1
  H  H262  1  0.532200  0.703600  0.513100  1
  H  H263  1  0.453600  0.217800  0.263100  1
  H  H264  1  0.046400  0.782200  0.763100  1
  H  H265  1  0.532200  0.203600  0.486900  1
  H  H266  1  0.967800  0.796400  0.986900  1
  H  H267  1  0.046400  0.282200  0.236900  1
  H  H268  1  0.453600  0.717800  0.736900  1
  H  H269  1  0.032200  0.703600  0.986900  1
  H  H270  1  0.467800  0.296400  0.486900  1
  H  H271  1  0.546400  0.782200  0.736900  1
  H  H272  1  0.953600  0.217800  0.236900  1
  H  H273  1  0.528400  0.795200  0.520700  1
  H  H274  1  0.971600  0.204800  0.020700  1
  H  H275  1  0.954800  0.778400  0.770700  1
  H  H276  1  0.545200  0.221600  0.270700  1
  H  H277  1  0.028400  0.295200  0.020700  1
  H  H278  1  0.471600  0.704800  0.520700  1
  H  H279  1  0.454800  0.278400  0.270700  1
  H  H280  1  0.045200  0.721600  0.770700  1
  H  H281  1  0.471600  0.204800  0.479300  1
  H  H282  1  0.028400  0.795200  0.979300  1
  H  H283  1  0.045200  0.221600  0.229300  1
  H  H284  1  0.454800  0.778400  0.729300  1
  H  H285  1  0.971600  0.704800  0.979300  1
  H  H286  1  0.528400  0.295200  0.479300  1
  H  H287  1  0.545200  0.721600  0.729300  1
  H  H288  1  0.954800  0.278400  0.229300  1
  H  H289  1  0.572100  0.851600  0.482800  1
  H  H290  1  0.927900  0.148400  0.982800  1
  H  H291  1  0.898400  0.822100  0.732800  1
  H  H292  1  0.601600  0.177900  0.232800  1
  H  H293  1  0.072100  0.351600  0.982800  1
  H  H294  1  0.427900  0.648400  0.482800  1
  H  H295  1  0.398400  0.322100  0.232800  1
  H  H296  1  0.101600  0.677900  0.732800  1
  H  H297  1  0.427900  0.148400  0.517200  1
  H  H298  1  0.072100  0.851600  0.017200  1
  H  H299  1  0.101600  0.177900  0.267200  1
  H  H300  1  0.398400  0.822100  0.767200  1
  H  H301  1  0.927900  0.648400  0.017200  1
  H  H302  1  0.572100  0.351600  0.517200  1
  H  H303  1  0.601600  0.677900  0.767200  1
  H  H304  1  0.898400  0.322100  0.267200  1
  H  H305  1  0.573800  0.842900  0.432700  1
  H  H306  1  0.926200  0.157100  0.932700  1
  H  H307  1  0.907100  0.823800  0.682700  1
  H  H308  1  0.592900  0.176200  0.182700  1
  H  H309  1  0.073800  0.342900  0.932700  1
  H  H310  1  0.426200  0.657100  0.432700  1
  H  H311  1  0.407100  0.323800  0.182700  1
  H  H312  1  0.092900  0.676200  0.682700  1
  H  H313  1  0.426200  0.157100  0.567300  1
  H  H314  1  0.073800  0.842900  0.067300  1
  H  H315  1  0.092900  0.176200  0.317300  1
  H  H316  1  0.407100  0.823800  0.817300  1
  H  H317  1  0.926200  0.657100  0.067300  1
  H  H318  1  0.573800  0.342900  0.567300  1
  H  H319  1  0.592900  0.676200  0.817300  1
  H  H320  1  0.907100  0.323800  0.317300  1
  H  H321  1  0.592500  0.798500  0.464000  1
  H  H322  1  0.907500  0.201500  0.964000  1
  H  H323  1  0.951500  0.842500  0.714000  1
  H  H324  1  0.548500  0.157500  0.214000  1
  H  H325  1  0.092500  0.298500  0.964000  1
  H  H326  1  0.407500  0.701500  0.464000  1
  H  H327  1  0.451500  0.342500  0.214000  1
  H  H328  1  0.048500  0.657500  0.714000  1
  H  H329  1  0.407500  0.201500  0.536000  1
  H  H330  1  0.092500  0.798500  0.036000  1
  H  H331  1  0.048500  0.157500  0.286000  1
  H  H332  1  0.451500  0.842500  0.786000  1
  H  H333  1  0.907500  0.701500  0.036000  1
  H  H334  1  0.592500  0.298500  0.536000  1
  H  H335  1  0.548500  0.657500  0.786000  1
  H  H336  1  0.951500  0.342500  0.286000  1
  H  H337  1  0.471400  0.868800  0.477200  1
  H  H338  1  0.028600  0.131200  0.977200  1
  H  H339  1  0.881200  0.721400  0.727200  1
  H  H340  1  0.618800  0.278600  0.227200  1
  H  H341  1  0.971400  0.368800  0.977200  1
  H  H342  1  0.528600  0.631200  0.477200  1
  H  H343  1  0.381200  0.221400  0.227200  1
  H  H344  1  0.118800  0.778600  0.727200  1
  H  H345  1  0.528600  0.131200  0.522800  1
  H  H346  1  0.971400  0.868800  0.022800  1
  H  H347  1  0.118800  0.278600  0.272800  1
  H  H348  1  0.381200  0.721400  0.772800  1
  H  H349  1  0.028600  0.631200  0.022800  1
  H  H350  1  0.471400  0.368800  0.522800  1
  H  H351  1  0.618800  0.778600  0.772800  1
  H  H352  1  0.881200  0.221400  0.272800  1
  H  H353  1  0.434700  0.827200  0.455900  1
  H  H354  1  0.065300  0.172800  0.955900  1
  H  H355  1  0.922800  0.684700  0.705900  1
  H  H356  1  0.577200  0.315300  0.205900  1
  H  H357  1  0.934700  0.327200  0.955900  1
  H  H358  1  0.565300  0.672800  0.455900  1
  H  H359  1  0.422800  0.184700  0.205900  1
  H  H360  1  0.077200  0.815300  0.705900  1
  H  H361  1  0.565300  0.172800  0.544100  1
  H  H362  1  0.934700  0.827200  0.044100  1
  H  H363  1  0.077200  0.315300  0.294100  1
  H  H364  1  0.422800  0.684700  0.794100  1
  H  H365  1  0.065300  0.672800  0.044100  1
  H  H366  1  0.434700  0.327200  0.544100  1
  H  H367  1  0.577200  0.815300  0.794100  1
  H  H368  1  0.922800  0.184700  0.294100  1
  H  H369  1  0.473800  0.859100  0.427200  1
  H  H370  1  0.026200  0.140900  0.927200  1
  H  H371  1  0.890900  0.723800  0.677200  1
  H  H372  1  0.609100  0.276200  0.177200  1
  H  H373  1  0.973800  0.359100  0.927200  1
  H  H374  1  0.526200  0.640900  0.427200  1
  H  H375  1  0.390900  0.223800  0.177200  1
  H  H376  1  0.109100  0.776200  0.677200  1
  H  H377  1  0.526200  0.140900  0.572800  1
  H  H378  1  0.973800  0.859100  0.072800  1
  H  H379  1  0.109100  0.276200  0.322800  1
  H  H380  1  0.390900  0.723800  0.822800  1
  H  H381  1  0.026200  0.640900  0.072800  1
  H  H382  1  0.473800  0.359100  0.572800  1
  H  H383  1  0.609100  0.776200  0.822800  1
  H  H384  1  0.890900  0.223800  0.322800  1
  H  H385  1  0.567000  0.685900  0.359300  1.0
  H  H386  1  0.933000  0.314100  0.859300  1.0
  H  H387  1  0.064100  0.817000  0.609300  1.0
  H  H388  1  0.435900  0.183000  0.109300  1.0
  H  H389  1  0.067000  0.185900  0.859300  1.0
  H  H390  1  0.433000  0.814100  0.359300  1.0
  H  H391  1  0.564100  0.317000  0.109300  1.0
  H  H392  1  0.935900  0.683000  0.609300  1.0
  H  H393  1  0.433000  0.314100  0.640700  1.0
  H  H394  1  0.067000  0.685900  0.140700  1.0
  H  H395  1  0.935900  0.183000  0.390700  1.0
  H  H396  1  0.564100  0.817000  0.890700  1.0
  H  H397  1  0.933000  0.814100  0.140700  1.0
  H  H398  1  0.567000  0.185900  0.640700  1.0
  H  H399  1  0.435900  0.683000  0.890700  1.0
  H  H400  1  0.064100  0.317000  0.390700  1.0
  H  H401  1  0.561200  0.632900  0.300400  1.0
  H  H402  1  0.938800  0.367100  0.800400  1.0
  H  H403  1  0.117100  0.811200  0.550400  1.0
  H  H404  1  0.382900  0.188800  0.050400  1.0
  H  H405  1  0.061200  0.132900  0.800400  1.0
  H  H406  1  0.438800  0.867100  0.300400  1.0
  H  H407  1  0.617100  0.311200  0.050400  1.0
  H  H408  1  0.882900  0.688800  0.550400  1.0
  H  H409  1  0.438800  0.367100  0.699600  1.0
  H  H410  1  0.061200  0.632900  0.199600  1.0
  H  H411  1  0.882900  0.188800  0.449600  1.0
  H  H412  1  0.617100  0.811200  0.949600  1.0
  H  H413  1  0.938800  0.867100  0.199600  1.0
  H  H414  1  0.561200  0.132900  0.699600  1.0
  H  H415  1  0.382900  0.688800  0.949600  1.0
  H  H416  1  0.117100  0.311200  0.449600  1.0
  H  H417  1  0.408000  0.647700  0.303900  1.0
  H  H418  1  0.092000  0.352300  0.803900  1.0
  H  H419  1  0.102300  0.658000  0.553900  1.0
  H  H420  1  0.397700  0.342000  0.053900  1.0
  H  H421  1  0.908000  0.147700  0.803900  1.0
  H  H422  1  0.592000  0.852300  0.303900  1.0
  H  H423  1  0.602300  0.158000  0.053900  1.0
  H  H424  1  0.897700  0.842000  0.553900  1.0
  H  H425  1  0.592000  0.352300  0.696100  1.0
  H  H426  1  0.908000  0.647700  0.196100  1.0
  H  H427  1  0.897700  0.342000  0.446100  1.0
  H  H428  1  0.602300  0.658000  0.946100  1.0
  H  H429  1  0.092000  0.852300  0.196100  1.0
  H  H430  1  0.408000  0.147700  0.696100  1.0
  H  H431  1  0.397700  0.842000  0.946100  1.0
  H  H432  1  0.102300  0.158000  0.446100  1.0
  H  H433  1  0.417400  0.701900  0.363500  1.0
  H  H434  1  0.082600  0.298100  0.863500  1.0
  H  H435  1  0.048100  0.667400  0.613500  1.0
  H  H436  1  0.451900  0.332600  0.113500  1.0
  H  H437  1  0.917400  0.201900  0.863500  1.0
  H  H438  1  0.582600  0.798100  0.363500  1.0
  H  H439  1  0.548100  0.167400  0.113500  1.0
  H  H440  1  0.951900  0.832600  0.613500  1.0
  H  H441  1  0.582600  0.298100  0.636500  1.0
  H  H442  1  0.917400  0.701900  0.136500  1.0
  H  H443  1  0.951900  0.332600  0.386500  1.0
  H  H444  1  0.548100  0.667400  0.886500  1.0
  H  H445  1  0.082600  0.798100  0.136500  1.0
  H  H446  1  0.417400  0.201900  0.636500  1.0
  H  H447  1  0.451900  0.832600  0.886500  1.0
  H  H448  1  0.048100  0.167400  0.386500  1.0
  H  H449  1  0.599800  0.460600  0.110000  1.0
  H  H450  1  0.900200  0.539400  0.610000  1.0
  H  H451  1  0.289400  0.849800  0.360000  1.0
  H  H452  1  0.210600  0.150200  0.860000  1.0
  H  H453  1  0.099800  0.960600  0.610000  1.0
  H  H454  1  0.400200  0.039400  0.110000  1.0
  H  H455  1  0.789400  0.349800  0.860000  1.0
  H  H456  1  0.710600  0.650200  0.360000  1.0
  H  H457  1  0.400200  0.539400  0.890000  1.0
  H  H458  1  0.099800  0.460600  0.390000  1.0
  H  H459  1  0.710600  0.150200  0.640000  1.0
  H  H460  1  0.789400  0.849800  0.140000  1.0
  H  H461  1  0.900200  0.039400  0.390000  1.0
  H  H462  1  0.599800  0.960600  0.890000  1.0
  H  H463  1  0.210600  0.650200  0.140000  1.0
  H  H464  1  0.289400  0.349800  0.640000  1.0
  H  H465  1  0.526200  0.497200  0.138900  1.0
  H  H466  1  0.973800  0.502800  0.638900  1.0
  H  H467  1  0.252800  0.776200  0.388900  1.0
  H  H468  1  0.247200  0.223800  0.888900  1.0
  H  H469  1  0.026200  0.997200  0.638900  1.0
  H  H470  1  0.473800  0.002800  0.138900  1.0
  H  H471  1  0.752800  0.276200  0.888900  1.0
  H  H472  1  0.747200  0.723800  0.388900  1.0
  H  H473  1  0.473800  0.502800  0.861100  1.0
  H  H474  1  0.026200  0.497200  0.361100  1.0
  H  H475  1  0.747200  0.223800  0.611100  1.0
  H  H476  1  0.752800  0.776200  0.111100  1.0
  H  H477  1  0.973800  0.002800  0.361100  1.0
  H  H478  1  0.526200  0.997200  0.861100  1.0
  H  H479  1  0.247200  0.723800  0.111100  1.0
  H  H480  1  0.252800  0.276200  0.611100  1.0
  H  H481  1  0.612600  0.558500  0.231800  1.0
  H  H482  1  0.887400  0.441500  0.731800  1.0
  H  H483  1  0.191500  0.862600  0.481800  1.0
  H  H484  1  0.308500  0.137400  0.981800  1.0
  H  H485  1  0.112600  0.058500  0.731800  1.0
  H  H486  1  0.387400  0.941500  0.231800  1.0
  H  H487  1  0.691500  0.362600  0.981800  1.0
  H  H488  1  0.808500  0.637400  0.481800  1.0
  H  H489  1  0.387400  0.441500  0.768200  1.0
  H  H490  1  0.112600  0.558500  0.268200  1.0
  H  H491  1  0.808500  0.137400  0.518200  1.0
  H  H492  1  0.691500  0.862600  0.018200  1.0
  H  H493  1  0.887400  0.941500  0.268200  1.0
  H  H494  1  0.612600  0.058500  0.768200  1.0
  H  H495  1  0.308500  0.637400  0.018200  1.0
  H  H496  1  0.191500  0.362600  0.518200  1.0
  H  H497  1  0.684500  0.521200  0.200700  1.0
  H  H498  1  0.815500  0.478800  0.700700  1.0
  H  H499  1  0.228800  0.934500  0.450700  1.0
  H  H500  1  0.271200  0.065500  0.950700  1.0
  H  H501  1  0.184500  0.021200  0.700700  1.0
  H  H502  1  0.315500  0.978800  0.200700  1.0
  H  H503  1  0.728800  0.434500  0.950700  1.0
  H  H504  1  0.771200  0.565500  0.450700  1.0
  H  H505  1  0.315500  0.478800  0.799300  1.0
  H  H506  1  0.184500  0.521200  0.299300  1.0
  H  H507  1  0.771200  0.065500  0.549300  1.0
  H  H508  1  0.728800  0.934500  0.049300  1.0
  H  H509  1  0.815500  0.978800  0.299300  1.0
  H  H510  1  0.684500  0.021200  0.799300  1.0
  H  H511  1  0.271200  0.565500  0.049300  1.0
  H  H512  1  0.228800  0.434500  0.549300  1.0
  H  H513  1  0.339000  0.591900  0.236000  1.0
  H  H514  1  0.161000  0.408100  0.736000  1.0
  H  H515  1  0.158100  0.589000  0.486000  1.0
  H  H516  1  0.341900  0.411000  0.986000  1.0
  H  H517  1  0.839000  0.091900  0.736000  1.0
  H  H518  1  0.661000  0.908100  0.236000  1.0
  H  H519  1  0.658100  0.089000  0.986000  1.0
  H  H520  1  0.841900  0.911000  0.486000  1.0
  H  H521  1  0.661000  0.408100  0.764000  1.0
  H  H522  1  0.839000  0.591900  0.264000  1.0
  H  H523  1  0.841900  0.411000  0.514000  1.0
  H  H524  1  0.658100  0.589000  0.014000  1.0
  H  H525  1  0.161000  0.908100  0.264000  1.0
  H  H526  1  0.339000  0.091900  0.764000  1.0
  H  H527  1  0.341900  0.911000  0.014000  1.0
  H  H528  1  0.158100  0.089000  0.514000  1.0
  H  H529  1  0.402800  0.516300  0.139100  1.0
  H  H530  1  0.097200  0.483700  0.639100  1.0
  H  H531  1  0.233700  0.652800  0.389100  1.0
  H  H532  1  0.266300  0.347200  0.889100  1.0
  H  H533  1  0.902800  0.016300  0.639100  1.0
  H  H534  1  0.597200  0.983700  0.139100  1.0
  H  H535  1  0.733700  0.152800  0.889100  1.0
  H  H536  1  0.766300  0.847200  0.389100  1.0
  H  H537  1  0.597200  0.483700  0.860900  1.0
  H  H538  1  0.902800  0.516300  0.360900  1.0
  H  H539  1  0.766300  0.347200  0.610900  1.0
  H  H540  1  0.733700  0.652800  0.110900  1.0
  H  H541  1  0.097200  0.983700  0.360900  1.0
  H  H542  1  0.402800  0.016300  0.860900  1.0
  H  H543  1  0.266300  0.847200  0.110900  1.0
  H  H544  1  0.233700  0.152800  0.610900  1.0
  H  H545  1  0.851800  0.452300  0.095400  1.0
  H  H546  1  0.648200  0.547700  0.595400  1.0
  H  H547  1  0.297700  0.101800  0.345400  1.0
  H  H548  1  0.202300  0.898200  0.845400  1.0
  H  H549  1  0.351800  0.952300  0.595400  1.0
  H  H550  1  0.148200  0.047700  0.095400  1.0
  H  H551  1  0.797700  0.601800  0.845400  1.0
  H  H552  1  0.702300  0.398200  0.345400  1.0
  H  H553  1  0.148200  0.547700  0.904600  1.0
  H  H554  1  0.351800  0.452300  0.404600  1.0
  H  H555  1  0.702300  0.898200  0.654600  1.0
  H  H556  1  0.797700  0.101800  0.154600  1.0
  H  H557  1  0.648200  0.047700  0.404600  1.0
  H  H558  1  0.851800  0.952300  0.904600  1.0
  H  H559  1  0.202300  0.398200  0.154600  1.0
  H  H560  1  0.297700  0.601800  0.654600  1.0
  H  H561  1  0.823200  0.455100  0.140100  1.0
  H  H562  1  0.676800  0.544900  0.640100  1.0
  H  H563  1  0.294900  0.073200  0.390100  1.0
  H  H564  1  0.205100  0.926800  0.890100  1.0
  H  H565  1  0.323200  0.955100  0.640100  1.0
  H  H566  1  0.176800  0.044900  0.140100  1.0
  H  H567  1  0.794900  0.573200  0.890100  1.0
  H  H568  1  0.705100  0.426800  0.390100  1.0
  H  H569  1  0.176800  0.544900  0.859900  1.0
  H  H570  1  0.323200  0.455100  0.359900  1.0
  H  H571  1  0.705100  0.926800  0.609900  1.0
  H  H572  1  0.794900  0.073200  0.109900  1.0
  H  H573  1  0.676800  0.044900  0.359900  1.0
  H  H574  1  0.823200  0.955100  0.859900  1.0
  H  H575  1  0.205100  0.426800  0.109900  1.0
  H  H576  1  0.294900  0.573200  0.609900  1.0
  H  H577  1  0.817500  0.501000  0.106900  1.0
  H  H578  1  0.682500  0.499000  0.606900  1.0
  H  H579  1  0.249000  0.067500  0.356900  1.0
  H  H580  1  0.251000  0.932500  0.856900  1.0
  H  H581  1  0.317500  0.001000  0.606900  1.0
  H  H582  1  0.182500  0.999000  0.106900  1.0
  H  H583  1  0.749000  0.567500  0.856900  1.0
  H  H584  1  0.751000  0.432500  0.356900  1.0
  H  H585  1  0.182500  0.499000  0.893100  1.0
  H  H586  1  0.317500  0.501000  0.393100  1.0
  H  H587  1  0.751000  0.932500  0.643100  1.0
  H  H588  1  0.749000  0.067500  0.143100  1.0
  H  H589  1  0.682500  0.999000  0.393100  1.0
  H  H590  1  0.817500  0.001000  0.893100  1.0
  H  H591  1  0.251000  0.432500  0.143100  1.0
  H  H592  1  0.249000  0.567500  0.643100  1.0
  H  H593  1  0.807200  0.432200  0.034700  1.0
  H  H594  1  0.692800  0.567800  0.534700  1.0
  H  H595  1  0.317800  0.057200  0.284700  1.0
  H  H596  1  0.182200  0.942800  0.784700  1.0
  H  H597  1  0.307200  0.932200  0.534700  1.0
  H  H598  1  0.192800  0.067800  0.034700  1.0
  H  H599  1  0.817800  0.557200  0.784700  1.0
  H  H600  1  0.682200  0.442800  0.284700  1.0
  H  H601  1  0.192800  0.567800  0.965300  1.0
  H  H602  1  0.307200  0.432200  0.465300  1.0
  H  H603  1  0.682200  0.942800  0.715300  1.0
  H  H604  1  0.817800  0.057200  0.215300  1.0
  H  H605  1  0.692800  0.067800  0.465300  1.0
  H  H606  1  0.807200  0.932200  0.965300  1.0
  H  H607  1  0.182200  0.442800  0.215300  1.0
  H  H608  1  0.317800  0.557200  0.715300  1.0
  H  H609  1  0.770700  0.481000  0.039800  1.0
  H  H610  1  0.729300  0.519000  0.539800  1.0
  H  H611  1  0.269000  0.020700  0.289800  1.0
  H  H612  1  0.231000  0.979300  0.789800  1.0
  H  H613  1  0.270700  0.981000  0.539800  1.0
  H  H614  1  0.229300  0.019000  0.039800  1.0
  H  H615  1  0.769000  0.520700  0.789800  1.0
  H  H616  1  0.731000  0.479300  0.289800  1.0
  H  H617  1  0.229300  0.519000  0.960200  1.0
  H  H618  1  0.270700  0.481000  0.460200  1.0
  H  H619  1  0.731000  0.979300  0.710200  1.0
  H  H620  1  0.769000  0.020700  0.210200  1.0
  H  H621  1  0.729300  0.019000  0.460200  1.0
  H  H622  1  0.770700  0.981000  0.960200  1.0
  H  H623  1  0.231000  0.479300  0.210200  1.0
  H  H624  1  0.269000  0.520700  0.710200  1.0
  H  H625  1  0.746500  0.425000  0.035800  1.0
  H  H626  1  0.753500  0.575000  0.535800  1.0
  H  H627  1  0.325000  0.996500  0.285800  1.0
  H  H628  1  0.175000  0.003500  0.785800  1.0
  H  H629  1  0.246500  0.925000  0.535800  1.0
  H  H630  1  0.253500  0.075000  0.035800  1.0
  H  H631  1  0.825000  0.496500  0.785800  1.0
  H  H632  1  0.675000  0.503500  0.285800  1.0
  H  H633  1  0.253500  0.575000  0.964200  1.0
  H  H634  1  0.246500  0.425000  0.464200  1.0
  H  H635  1  0.675000  0.003500  0.714200  1.0
  H  H636  1  0.825000  0.996500  0.214200  1.0
  H  H637  1  0.753500  0.075000  0.464200  1.0
  H  H638  1  0.746500  0.925000  0.964200  1.0
  H  H639  1  0.175000  0.503500  0.214200  1.0
  H  H640  1  0.325000  0.496500  0.714200  1.0
  H  H641  1  0.754000  0.363100  0.081900  1.0
  H  H642  1  0.746000  0.636900  0.581900  1.0
  H  H643  1  0.386900  0.004000  0.331900  1.0
  H  H644  1  0.113100  0.996000  0.831900  1.0
  H  H645  1  0.254000  0.863100  0.581900  1.0
  H  H646  1  0.246000  0.136900  0.081900  1.0
  H  H647  1  0.886900  0.504000  0.831900  1.0
  H  H648  1  0.613100  0.496000  0.331900  1.0
  H  H649  1  0.246000  0.636900  0.918100  1.0
  H  H650  1  0.254000  0.363100  0.418100  1.0
  H  H651  1  0.613100  0.996000  0.668100  1.0
  H  H652  1  0.886900  0.004000  0.168100  1.0
  H  H653  1  0.746000  0.136900  0.418100  1.0
  H  H654  1  0.754000  0.863100  0.918100  1.0
  H  H655  1  0.113100  0.496000  0.168100  1.0
  H  H656  1  0.386900  0.504000  0.668100  1.0
  H  H657  1  0.812500  0.367200  0.096700  1.0
  H  H658  1  0.687500  0.632800  0.596700  1.0
  H  H659  1  0.382800  0.062500  0.346700  1.0
  H  H660  1  0.117200  0.937500  0.846700  1.0
  H  H661  1  0.312500  0.867200  0.596700  1.0
  H  H662  1  0.187500  0.132800  0.096700  1.0
  H  H663  1  0.882800  0.562500  0.846700  1.0
  H  H664  1  0.617200  0.437500  0.346700  1.0
  H  H665  1  0.187500  0.632800  0.903300  1.0
  H  H666  1  0.312500  0.367200  0.403300  1.0
  H  H667  1  0.617200  0.937500  0.653300  1.0
  H  H668  1  0.882800  0.062500  0.153300  1.0
  H  H669  1  0.687500  0.132800  0.403300  1.0
  H  H670  1  0.812500  0.867200  0.903300  1.0
  H  H671  1  0.117200  0.437500  0.153300  1.0
  H  H672  1  0.382800  0.562500  0.653300  1.0
  H  H673  1  0.761000  0.334300  0.152200  1.0
  H  H674  1  0.739000  0.665700  0.652200  1.0
  H  H675  1  0.415700  0.011000  0.402200  1.0
  H  H676  1  0.084300  0.989000  0.902200  1.0
  H  H677  1  0.261000  0.834300  0.652200  1.0
  H  H678  1  0.239000  0.165700  0.152200  1.0
  H  H679  1  0.915700  0.511000  0.902200  1.0
  H  H680  1  0.584300  0.489000  0.402200  1.0
  H  H681  1  0.239000  0.665700  0.847800  1.0
  H  H682  1  0.261000  0.334300  0.347800  1.0
  H  H683  1  0.584300  0.989000  0.597800  1.0
  H  H684  1  0.915700  0.011000  0.097800  1.0
  H  H685  1  0.739000  0.165700  0.347800  1.0
  H  H686  1  0.761000  0.834300  0.847800  1.0
  H  H687  1  0.084300  0.489000  0.097800  1.0
  H  H688  1  0.415700  0.511000  0.597800  1.0
  H  H689  1  0.786000  0.387900  0.166100  1.0
  H  H690  1  0.714000  0.612100  0.666100  1.0
  H  H691  1  0.362100  0.036000  0.416100  1.0
  H  H692  1  0.137900  0.964000  0.916100  1.0
  H  H693  1  0.286000  0.887900  0.666100  1.0
  H  H694  1  0.214000  0.112100  0.166100  1.0
  H  H695  1  0.862100  0.536000  0.916100  1.0
  H  H696  1  0.637900  0.464000  0.416100  1.0
  H  H697  1  0.214000  0.612100  0.833900  1.0
  H  H698  1  0.286000  0.387900  0.333900  1.0
  H  H699  1  0.637900  0.964000  0.583900  1.0
  H  H700  1  0.862100  0.036000  0.083900  1.0
  H  H701  1  0.714000  0.112100  0.333900  1.0
  H  H702  1  0.786000  0.887900  0.833900  1.0
  H  H703  1  0.137900  0.464000  0.083900  1.0
  H  H704  1  0.362100  0.536000  0.583900  1.0
  H  H705  1  0.675400  0.328900  0.156300  1.0
  H  H706  1  0.824600  0.671100  0.656300  1.0
  H  H707  1  0.421100  0.925400  0.406300  1.0
  H  H708  1  0.078900  0.074600  0.906300  1.0
  H  H709  1  0.175400  0.828900  0.656300  1.0
  H  H710  1  0.324600  0.171100  0.156300  1.0
  H  H711  1  0.921100  0.425400  0.906300  1.0
  H  H712  1  0.578900  0.574600  0.406300  1.0
  H  H713  1  0.324600  0.671100  0.843700  1.0
  H  H714  1  0.175400  0.328900  0.343700  1.0
  H  H715  1  0.578900  0.074600  0.593700  1.0
  H  H716  1  0.921100  0.925400  0.093700  1.0
  H  H717  1  0.824600  0.171100  0.343700  1.0
  H  H718  1  0.675400  0.828900  0.843700  1.0
  H  H719  1  0.078900  0.574600  0.093700  1.0
  H  H720  1  0.421100  0.425400  0.593700  1.0
  H  H721  1  0.670500  0.355600  0.110900  1.0
  H  H722  1  0.829500  0.644400  0.610900  1.0
  H  H723  1  0.394400  0.920500  0.360900  1.0
  H  H724  1  0.105600  0.079500  0.860900  1.0
  H  H725  1  0.170500  0.855600  0.610900  1.0
  H  H726  1  0.329500  0.144400  0.110900  1.0
  H  H727  1  0.894400  0.420500  0.860900  1.0
  H  H728  1  0.605600  0.579500  0.360900  1.0
  H  H729  1  0.329500  0.644400  0.889100  1.0
  H  H730  1  0.170500  0.355600  0.389100  1.0
  H  H731  1  0.605600  0.079500  0.639100  1.0
  H  H732  1  0.894400  0.920500  0.139100  1.0
  H  H733  1  0.829500  0.144400  0.389100  1.0
  H  H734  1  0.670500  0.855600  0.889100  1.0
  H  H735  1  0.105600  0.579500  0.139100  1.0
  H  H736  1  0.394400  0.420500  0.639100  1.0
  H  H737  1  0.639900  0.378200  0.150500  1.0
  H  H738  1  0.860100  0.621800  0.650500  1.0
  H  H739  1  0.371800  0.889900  0.400500  1.0
  H  H740  1  0.128200  0.110100  0.900500  1.0
  H  H741  1  0.139900  0.878200  0.650500  1.0
  H  H742  1  0.360100  0.121800  0.150500  1.0
  H  H743  1  0.871800  0.389900  0.900500  1.0
  H  H744  1  0.628200  0.610100  0.400500  1.0
  H  H745  1  0.360100  0.621800  0.849500  1.0
  H  H746  1  0.139900  0.378200  0.349500  1.0
  H  H747  1  0.628200  0.110100  0.599500  1.0
  H  H748  1  0.871800  0.889900  0.099500  1.0
  H  H749  1  0.860100  0.121800  0.349500  1.0
  H  H750  1  0.639900  0.878200  0.849500  1.0
  H  H751  1  0.128200  0.610100  0.099500  1.0
  H  H752  1  0.371800  0.389900  0.599500  1.0
  H  H753  1  0.699900  0.363100  0.212600  1.0
  H  H754  1  0.800100  0.636900  0.712600  1.0
  H  H755  1  0.386900  0.949900  0.462600  1.0
  H  H756  1  0.113100  0.050100  0.962600  1.0
  H  H757  1  0.199900  0.863100  0.712600  1.0
  H  H758  1  0.300100  0.136900  0.212600  1.0
  H  H759  1  0.886900  0.449900  0.962600  1.0
  H  H760  1  0.613100  0.550100  0.462600  1.0
  H  H761  1  0.300100  0.636900  0.787400  1.0
  H  H762  1  0.199900  0.363100  0.287400  1.0
  H  H763  1  0.613100  0.050100  0.537400  1.0
  H  H764  1  0.886900  0.949900  0.037400  1.0
  H  H765  1  0.800100  0.136900  0.287400  1.0
  H  H766  1  0.699900  0.863100  0.787400  1.0
  H  H767  1  0.113100  0.550100  0.037400  1.0
  H  H768  1  0.386900  0.449900  0.537400  1.0
  H  H769  1  0.665500  0.412400  0.203200  1.0
  H  H770  1  0.834500  0.587600  0.703200  1.0
  H  H771  1  0.337600  0.915500  0.453200  1.0
  H  H772  1  0.162400  0.084500  0.953200  1.0
  H  H773  1  0.165500  0.912400  0.703200  1.0
  H  H774  1  0.334500  0.087600  0.203200  1.0
  H  H775  1  0.837600  0.415500  0.953200  1.0
  H  H776  1  0.662400  0.584500  0.453200  1.0
  H  H777  1  0.334500  0.587600  0.796800  1.0
  H  H778  1  0.165500  0.412400  0.296800  1.0
  H  H779  1  0.662400  0.084500  0.546800  1.0
  H  H780  1  0.837600  0.915500  0.046800  1.0
  H  H781  1  0.834500  0.087600  0.296800  1.0
  H  H782  1  0.665500  0.912400  0.796800  1.0
  H  H783  1  0.162400  0.584500  0.046800  1.0
  H  H784  1  0.337600  0.415500  0.546800  1.0
  H  H785  1  0.725000  0.418900  0.213600  1.0
  H  H786  1  0.775000  0.581100  0.713600  1.0
  H  H787  1  0.331100  0.975000  0.463600  1.0
  H  H788  1  0.168900  0.025000  0.963600  1.0
  H  H789  1  0.225000  0.918900  0.713600  1.0
  H  H790  1  0.275000  0.081100  0.213600  1.0
  H  H791  1  0.831100  0.475000  0.963600  1.0
  H  H792  1  0.668900  0.525000  0.463600  1.0
  H  H793  1  0.275000  0.581100  0.786400  1.0
  H  H794  1  0.225000  0.418900  0.286400  1.0
  H  H795  1  0.668900  0.025000  0.536400  1.0
  H  H796  1  0.831100  0.975000  0.036400  1.0
  H  H797  1  0.775000  0.081100  0.286400  1.0
  H  H798  1  0.725000  0.918900  0.786400  1.0
  H  H799  1  0.168900  0.525000  0.036400  1.0
  H  H800  1  0.331100  0.475000  0.536400  1.0
  H  H801  1  0.484100  0.792500  0.527500  1.0
  H  H802  1  0.015900  0.207500  0.027500  1.0
  H  H803  1  0.957500  0.734100  0.777500  1.0
  H  H804  1  0.542500  0.265900  0.277500  1.0
  H  H805  1  0.984100  0.292500  0.027500  1.0
  H  H806  1  0.515900  0.707500  0.527500  1.0
  H  H807  1  0.457500  0.234100  0.277500  1.0
  H  H808  1  0.042500  0.765900  0.777500  1.0
  H  H809  1  0.515900  0.207500  0.472500  1.0
  H  H810  1  0.984100  0.792500  0.972500  1.0
  H  H811  1  0.042500  0.265900  0.222500  1.0
  H  H812  1  0.457500  0.734100  0.722500  1.0
  H  H813  1  0.015900  0.707500  0.972500  1.0
  H  H814  1  0.484100  0.292500  0.472500  1.0
  H  H815  1  0.542500  0.765900  0.722500  1.0
  H  H816  1  0.957500  0.234100  0.222500  1.0
  H  H817  1  0.446300  0.763200  0.494800  1.0
  H  H818  1  0.053700  0.236800  0.994800  1.0
  H  H819  1  0.986800  0.696300  0.744800  1.0
  H  H820  1  0.513200  0.303700  0.244800  1.0
  H  H821  1  0.946300  0.263200  0.994800  1.0
  H  H822  1  0.553700  0.736800  0.494800  1.0
  H  H823  1  0.486800  0.196300  0.244800  1.0
  H  H824  1  0.013200  0.803700  0.744800  1.0
  H  H825  1  0.553700  0.236800  0.505200  1.0
  H  H826  1  0.946300  0.763200  0.005200  1.0
  H  H827  1  0.013200  0.303700  0.255200  1.0
  H  H828  1  0.486800  0.696300  0.755200  1.0
  H  H829  1  0.053700  0.736800  0.005200  1.0
  H  H830  1  0.446300  0.263200  0.505200  1.0
  H  H831  1  0.513200  0.803700  0.755200  1.0
  H  H832  1  0.986800  0.196300  0.255200  1.0
  H  H833  1  0.562100  0.837000  0.491100  1.0
  H  H834  1  0.937900  0.163000  0.991100  1.0
  H  H835  1  0.913000  0.812100  0.741100  1.0
  H  H836  1  0.587000  0.187900  0.241100  1.0
  H  H837  1  0.062100  0.337000  0.991100  1.0
  H  H838  1  0.437900  0.663000  0.491100  1.0
  H  H839  1  0.413000  0.312100  0.241100  1.0
  H  H840  1  0.087000  0.687900  0.741100  1.0
  H  H841  1  0.437900  0.163000  0.508900  1.0
  H  H842  1  0.062100  0.837000  0.008900  1.0
  H  H843  1  0.087000  0.187900  0.258900  1.0
  H  H844  1  0.413000  0.812100  0.758900  1.0
  H  H845  1  0.937900  0.663000  0.008900  1.0
  H  H846  1  0.562100  0.337000  0.508900  1.0
  H  H847  1  0.587000  0.687900  0.758900  1.0
  H  H848  1  0.913000  0.312100  0.258900  1.0
  H  H849  1  0.573800  0.825300  0.442300  1.0
  H  H850  1  0.926200  0.174700  0.942300  1.0
  H  H851  1  0.924700  0.823800  0.692300  1.0
  H  H852  1  0.575300  0.176200  0.192300  1.0
  H  H853  1  0.073800  0.325300  0.942300  1.0
  H  H854  1  0.426200  0.674700  0.442300  1.0
  H  H855  1  0.424700  0.323800  0.192300  1.0
  H  H856  1  0.075300  0.676200  0.692300  1.0
  H  H857  1  0.426200  0.174700  0.557700  1.0
  H  H858  1  0.073800  0.825300  0.057700  1.0
  H  H859  1  0.075300  0.176200  0.307700  1.0
  H  H860  1  0.424700  0.823800  0.807700  1.0
  H  H861  1  0.926200  0.674700  0.057700  1.0
  H  H862  1  0.573800  0.325300  0.557700  1.0
  H  H863  1  0.575300  0.676200  0.807700  1.0
  H  H864  1  0.924700  0.323800  0.307700  1.0
  H  H865  1  0.575300  0.779900  0.476300  1.0
  H  H866  1  0.924700  0.220100  0.976300  1.0
  H  H867  1  0.970100  0.825300  0.726300  1.0
  H  H868  1  0.529900  0.174700  0.226300  1.0
  H  H869  1  0.075300  0.279900  0.976300  1.0
  H  H870  1  0.424700  0.720100  0.476300  1.0
  H  H871  1  0.470100  0.325300  0.226300  1.0
  H  H872  1  0.029900  0.674700  0.726300  1.0
  H  H873  1  0.424700  0.220100  0.523700  1.0
  H  H874  1  0.075300  0.779900  0.023700  1.0
  H  H875  1  0.029900  0.174700  0.273700  1.0
  H  H876  1  0.470100  0.825300  0.773700  1.0
  H  H877  1  0.924700  0.720100  0.023700  1.0
  H  H878  1  0.575300  0.279900  0.523700  1.0
  H  H879  1  0.529900  0.674700  0.773700  1.0
  H  H880  1  0.970100  0.325300  0.273700  1.0
  H  H881  1  0.488800  0.875600  0.479000  1.0
  H  H882  1  0.011200  0.124400  0.979000  1.0
  H  H883  1  0.874400  0.738800  0.729000  1.0
  H  H884  1  0.625600  0.261200  0.229000  1.0
  H  H885  1  0.988800  0.375600  0.979000  1.0
  H  H886  1  0.511200  0.624400  0.479000  1.0
  H  H887  1  0.374400  0.238800  0.229000  1.0
  H  H888  1  0.125600  0.761200  0.729000  1.0
  H  H889  1  0.511200  0.124400  0.521000  1.0
  H  H890  1  0.988800  0.875600  0.021000  1.0
  H  H891  1  0.125600  0.261200  0.271000  1.0
  H  H892  1  0.374400  0.738800  0.771000  1.0
  H  H893  1  0.011200  0.624400  0.021000  1.0
  H  H894  1  0.488800  0.375600  0.521000  1.0
  H  H895  1  0.625600  0.761200  0.771000  1.0
  H  H896  1  0.874400  0.238800  0.271000  1.0
  H  H897  1  0.445600  0.847700  0.451500  1.0
  H  H898  1  0.054400  0.152300  0.951500  1.0
  H  H899  1  0.902300  0.695600  0.701500  1.0
  H  H900  1  0.597700  0.304400  0.201500  1.0
  H  H901  1  0.945600  0.347700  0.951500  1.0
  H  H902  1  0.554400  0.652300  0.451500  1.0
  H  H903  1  0.402300  0.195600  0.201500  1.0
  H  H904  1  0.097700  0.804400  0.701500  1.0
  H  H905  1  0.554400  0.152300  0.548500  1.0
  H  H906  1  0.945600  0.847700  0.048500  1.0
  H  H907  1  0.097700  0.304400  0.298500  1.0
  H  H908  1  0.402300  0.695600  0.798500  1.0
  H  H909  1  0.054400  0.652300  0.048500  1.0
  H  H910  1  0.445600  0.347700  0.548500  1.0
  H  H911  1  0.597700  0.804400  0.798500  1.0
  H  H912  1  0.902300  0.195600  0.298500  1.0
  H  H913  1  0.495900  0.869300  0.428900  1.0
  H  H914  1  0.004100  0.130700  0.928900  1.0
  H  H915  1  0.880700  0.745900  0.678900  1.0
  H  H916  1  0.619300  0.254100  0.178900  1.0
  H  H917  1  0.995900  0.369300  0.928900  1.0
  H  H918  1  0.504100  0.630700  0.428900  1.0
  H  H919  1  0.380700  0.245900  0.178900  1.0
  H  H920  1  0.119300  0.754100  0.678900  1.0
  H  H921  1  0.504100  0.130700  0.571100  1.0
  H  H922  1  0.995900  0.869300  0.071100  1.0
  H  H923  1  0.119300  0.254100  0.321100  1.0
  H  H924  1  0.380700  0.745900  0.821100  1.0
  H  H925  1  0.004100  0.630700  0.071100  1.0
  H  H926  1  0.495900  0.369300  0.571100  1.0
  H  H927  1  0.619300  0.754100  0.821100  1.0
  H  H928  1  0.880700  0.245900  0.321100  1.0
  H  H929  1  0.551700  0.588400  0.253200  1.0
  H  H930  1  0.948300  0.411600  0.753200  1.0
  H  H931  1  0.161600  0.801700  0.503200  1.0
  H  H932  1  0.338400  0.198300  0.003200  1.0
  H  H933  1  0.051700  0.088400  0.753200  1.0
  H  H934  1  0.448300  0.911600  0.253200  1.0
  H  H935  1  0.661600  0.301700  0.003200  1.0
  H  H936  1  0.838400  0.698300  0.503200  1.0
  H  H937  1  0.448300  0.411600  0.746800  1.0
  H  H938  1  0.051700  0.588400  0.246800  1.0
  H  H939  1  0.838400  0.198300  0.496800  1.0
  H  H940  1  0.661600  0.801700  0.996800  1.0
  H  H941  1  0.948300  0.911600  0.246800  1.0
  H  H942  1  0.551700  0.088400  0.746800  1.0
  H  H943  1  0.338400  0.698300  0.996800  1.0
  H  H944  1  0.161600  0.301700  0.496800  1.0
  H  H945  1  0.467700  0.525200  0.166900  1.0
  H  H946  1  0.032300  0.474800  0.666900  1.0
  H  H947  1  0.224800  0.717700  0.416900  1.0
  H  H948  1  0.275200  0.282300  0.916900  1.0
  H  H949  1  0.967700  0.025200  0.666900  1.0
  H  H950  1  0.532300  0.974800  0.166900  1.0
  H  H951  1  0.724800  0.217700  0.916900  1.0
  H  H952  1  0.775200  0.782300  0.416900  1.0
  H  H953  1  0.532300  0.474800  0.833100  1.0
  H  H954  1  0.967700  0.525200  0.333100  1.0
  H  H955  1  0.775200  0.282300  0.583100  1.0
  H  H956  1  0.724800  0.717700  0.083100  1.0
  H  H957  1  0.032300  0.974800  0.333100  1.0
  H  H958  1  0.467700  0.025200  0.833100  1.0
  H  H959  1  0.275200  0.782300  0.083100  1.0
  H  H960  1  0.224800  0.217700  0.583100  1.0
  H  H961  1  0.405400  0.607800  0.254600  1.0
  H  H962  1  0.094600  0.392200  0.754600  1.0
  H  H963  1  0.142200  0.655400  0.504600  1.0
  H  H964  1  0.357800  0.344600  0.004600  1.0
  H  H965  1  0.905400  0.107800  0.754600  1.0
  H  H966  1  0.594600  0.892200  0.254600  1.0
  H  H967  1  0.642200  0.155400  0.004600  1.0
  H  H968  1  0.857800  0.844600  0.504600  1.0
  H  H969  1  0.594600  0.392200  0.745400  1.0
  H  H970  1  0.905400  0.607800  0.245400  1.0
  H  H971  1  0.857800  0.344600  0.495400  1.0
  H  H972  1  0.642200  0.655400  0.995400  1.0
  H  H973  1  0.094600  0.892200  0.245400  1.0
  H  H974  1  0.405400  0.107800  0.745400  1.0
  H  H975  1  0.357800  0.844600  0.995400  1.0
  H  H976  1  0.142200  0.155400  0.495400  1.0
  H  H977  1  0.395900  0.646600  0.114700  1.0
  H  H978  1  0.104100  0.353400  0.614700  1.0
  H  H979  1  0.103400  0.645900  0.364700  1.0
  H  H980  1  0.396600  0.354100  0.864700  1.0
  H  H981  1  0.895900  0.146600  0.614700  1.0
  H  H982  1  0.604100  0.853400  0.114700  1.0
  H  H983  1  0.603400  0.145900  0.864700  1.0
  H  H984  1  0.896600  0.854100  0.364700  1.0
  H  H985  1  0.604100  0.353400  0.885300  1.0
  H  H986  1  0.895900  0.646600  0.385300  1.0
  H  H987  1  0.896600  0.354100  0.635300  1.0
  H  H988  1  0.603400  0.645900  0.135300  1.0
  H  H989  1  0.104100  0.853400  0.385300  1.0
  H  H990  1  0.395900  0.146600  0.885300  1.0
  H  H991  1  0.396600  0.854100  0.135300  1.0
  H  H992  1  0.103400  0.145900  0.635300  1.0
  H  H993  1  0.482000  0.756000  0.251100  1.0
  H  H994  1  0.018000  0.244000  0.751100  1.0
  H  H995  1  0.994000  0.732000  0.501100  1.0
  H  H996  1  0.506000  0.268000  0.001100  1.0
  H  H997  1  0.982000  0.256000  0.751100  1.0
  H  H998  1  0.518000  0.744000  0.251100  1.0
  H  H999  1  0.494000  0.232000  0.001100  1.0
  H  H1000  1  0.006000  0.768000  0.501100  1.0
  H  H1001  1  0.518000  0.244000  0.748900  1.0
  H  H1002  1  0.982000  0.756000  0.248900  1.0
  H  H1003  1  0.006000  0.268000  0.498900  1.0
  H  H1004  1  0.494000  0.732000  0.998900  1.0
  H  H1005  1  0.018000  0.744000  0.248900  1.0
  H  H1006  1  0.482000  0.256000  0.748900  1.0
  H  H1007  1  0.506000  0.768000  0.998900  1.0
  H  H1008  1  0.994000  0.232000  0.498900  1.0
  H  H1009  1  0.396100  0.752400  0.230000  1.0
  H  H1010  1  0.103900  0.247600  0.730000  1.0
  H  H1011  1  0.997600  0.646100  0.480000  1.0
  H  H1012  1  0.502400  0.353900  0.980000  1.0
  H  H1013  1  0.896100  0.252400  0.730000  1.0
  H  H1014  1  0.603900  0.747600  0.230000  1.0
  H  H1015  1  0.497600  0.146100  0.980000  1.0
  H  H1016  1  0.002400  0.853900  0.480000  1.0
  H  H1017  1  0.603900  0.247600  0.770000  1.0
  H  H1018  1  0.896100  0.752400  0.270000  1.0
  H  H1019  1  0.002400  0.353900  0.520000  1.0
  H  H1020  1  0.497600  0.646100  0.020000  1.0
  H  H1021  1  0.103900  0.747600  0.270000  1.0
  H  H1022  1  0.396100  0.252400  0.770000  1.0
  H  H1023  1  0.502400  0.853900  0.020000  1.0
  H  H1024  1  0.997600  0.146100  0.520000  1.0
  H  H1025  1  0.549400  0.622400  0.077300  1.0
  H  H1026  1  0.950600  0.377600  0.577300  1.0
  H  H1027  1  0.127600  0.799400  0.327300  1.0
  H  H1028  1  0.372400  0.200600  0.827300  1.0
  H  H1029  1  0.049400  0.122400  0.577300  1.0
  H  H1030  1  0.450600  0.877600  0.077300  1.0
  H  H1031  1  0.627600  0.299400  0.827300  1.0
  H  H1032  1  0.872400  0.700600  0.327300  1.0
  H  H1033  1  0.450600  0.377600  0.922700  1.0
  H  H1034  1  0.049400  0.622400  0.422700  1.0
  H  H1035  1  0.872400  0.200600  0.672700  1.0
  H  H1036  1  0.627600  0.799400  0.172700  1.0
  H  H1037  1  0.950600  0.877600  0.422700  1.0
  H  H1038  1  0.549400  0.122400  0.922700  1.0
  H  H1039  1  0.372400  0.700600  0.172700  1.0
  H  H1040  1  0.127600  0.299400  0.672700  1.0
  H  H1041  1  0.601100  0.647200  0.177500  1.0
  H  H1042  1  0.898900  0.352800  0.677500  1.0
  H  H1043  1  0.102800  0.851100  0.427500  1.0
  H  H1044  1  0.397200  0.148900  0.927500  1.0
  H  H1045  1  0.101100  0.147200  0.677500  1.0
  H  H1046  1  0.398900  0.852800  0.177500  1.0
  H  H1047  1  0.602800  0.351100  0.927500  1.0
  H  H1048  1  0.897200  0.648900  0.427500  1.0
  H  H1049  1  0.398900  0.352800  0.822500  1.0
  H  H1050  1  0.101100  0.647200  0.322500  1.0
  H  H1051  1  0.897200  0.148900  0.572500  1.0
  H  H1052  1  0.602800  0.851100  0.072500  1.0
  H  H1053  1  0.898900  0.852800  0.322500  1.0
  H  H1054  1  0.601100  0.147200  0.822500  1.0
  H  H1055  1  0.397200  0.648900  0.072500  1.0
  H  H1056  1  0.102800  0.351100  0.572500  1.0
  H  H1057  1  0.576400  0.696100  0.226800  1.0
  H  H1058  1  0.923600  0.303900  0.726800  1.0
  H  H1059  1  0.053900  0.826400  0.476800  1.0
  H  H1060  1  0.446100  0.173600  0.976800  1.0
  H  H1061  1  0.076400  0.196100  0.726800  1.0
  H  H1062  1  0.423600  0.803900  0.226800  1.0
  H  H1063  1  0.553900  0.326400  0.976800  1.0
  H  H1064  1  0.946100  0.673600  0.476800  1.0
  H  H1065  1  0.423600  0.303900  0.773200  1.0
  H  H1066  1  0.076400  0.696100  0.273200  1.0
  H  H1067  1  0.946100  0.173600  0.523200  1.0
  H  H1068  1  0.553900  0.826400  0.023200  1.0
  H  H1069  1  0.923600  0.803900  0.273200  1.0
  H  H1070  1  0.576400  0.196100  0.773200  1.0
  H  H1071  1  0.446100  0.673600  0.023200  1.0
  H  H1072  1  0.053900  0.326400  0.523200  1.0
  H  H1073  1  0.591600  0.610500  0.092300  1.0
  H  H1074  1  0.908400  0.389500  0.592300  1.0
  H  H1075  1  0.139500  0.841600  0.342300  1.0
  H  H1076  1  0.360500  0.158400  0.842300  1.0
  H  H1077  1  0.091600  0.110500  0.592300  1.0
  H  H1078  1  0.408400  0.889500  0.092300  1.0
  H  H1079  1  0.639500  0.341600  0.842300  1.0
  H  H1080  1  0.860500  0.658400  0.342300  1.0
  H  H1081  1  0.408400  0.389500  0.907700  1.0
  H  H1082  1  0.091600  0.610500  0.407700  1.0
  H  H1083  1  0.860500  0.158400  0.657700  1.0
  H  H1084  1  0.639500  0.841600  0.157700  1.0
  H  H1085  1  0.908400  0.889500  0.407700  1.0
  H  H1086  1  0.591600  0.110500  0.907700  1.0
  H  H1087  1  0.360500  0.658400  0.157700  1.0
  H  H1088  1  0.139500  0.341600  0.657700  1.0
  H  H1089  1  0.563900  0.551100  0.039900  1.0
  H  H1090  1  0.936100  0.448900  0.539900  1.0
  H  H1091  1  0.198900  0.813900  0.289900  1.0
  H  H1092  1  0.301100  0.186100  0.789900  1.0
  H  H1093  1  0.063900  0.051100  0.539900  1.0
  H  H1094  1  0.436100  0.948900  0.039900  1.0
  H  H1095  1  0.698900  0.313900  0.789900  1.0
  H  H1096  1  0.801100  0.686100  0.289900  1.0
  H  H1097  1  0.436100  0.448900  0.960100  1.0
  H  H1098  1  0.063900  0.551100  0.460100  1.0
  H  H1099  1  0.801100  0.186100  0.710100  1.0
  H  H1100  1  0.698900  0.813900  0.210100  1.0
  H  H1101  1  0.936100  0.948900  0.460100  1.0
  H  H1102  1  0.563900  0.051100  0.960100  1.0
  H  H1103  1  0.301100  0.686100  0.210100  1.0
  H  H1104  1  0.198900  0.313900  0.710100  1.0
  H  H1105  1  0.482200  0.535100  0.028300  1.0
  H  H1106  1  0.017800  0.464900  0.528300  1.0
  H  H1107  1  0.214900  0.732200  0.278300  1.0
  H  H1108  1  0.285100  0.267800  0.778300  1.0
  H  H1109  1  0.982200  0.035100  0.528300  1.0
  H  H1110  1  0.517800  0.964900  0.028300  1.0
  H  H1111  1  0.714900  0.232200  0.778300  1.0
  H  H1112  1  0.785100  0.767800  0.278300  1.0
  H  H1113  1  0.517800  0.464900  0.971700  1.0
  H  H1114  1  0.982200  0.535100  0.471700  1.0
  H  H1115  1  0.785100  0.267800  0.721700  1.0
  H  H1116  1  0.714900  0.732200  0.221700  1.0
  H  H1117  1  0.017800  0.964900  0.471700  1.0
  H  H1118  1  0.482200  0.035100  0.971700  1.0
  H  H1119  1  0.285100  0.767800  0.221700  1.0
  H  H1120  1  0.214900  0.232200  0.721700  1.0
  H  H1121  1  0.417000  0.590100  0.061700  1.0
  H  H1122  1  0.083000  0.409900  0.561700  1.0
  H  H1123  1  0.159900  0.667000  0.311700  1.0
  H  H1124  1  0.340100  0.333000  0.811700  1.0
  H  H1125  1  0.917000  0.090100  0.561700  1.0
  H  H1126  1  0.583000  0.909900  0.061700  1.0
  H  H1127  1  0.659900  0.167000  0.811700  1.0
  H  H1128  1  0.840100  0.833000  0.311700  1.0
  H  H1129  1  0.583000  0.409900  0.938300  1.0
  H  H1130  1  0.917000  0.590100  0.438300  1.0
  H  H1131  1  0.840100  0.333000  0.688300  1.0
  H  H1132  1  0.659900  0.667000  0.188300  1.0
  H  H1133  1  0.083000  0.909900  0.438300  1.0
  H  H1134  1  0.417000  0.090100  0.938300  1.0
  H  H1135  1  0.340100  0.833000  0.188300  1.0
  H  H1136  1  0.159900  0.167000  0.688300  1.0
  H  H1137  1  0.456300  0.595700  0.111000  1.0
  H  H1138  1  0.043700  0.404300  0.611000  1.0
  H  H1139  1  0.154300  0.706300  0.361000  1.0
  H  H1140  1  0.345700  0.293700  0.861000  1.0
  H  H1141  1  0.956300  0.095700  0.611000  1.0
  H  H1142  1  0.543700  0.904300  0.111000  1.0
  H  H1143  1  0.654300  0.206300  0.861000  1.0
  H  H1144  1  0.845700  0.793700  0.361000  1.0
  H  H1145  1  0.543700  0.404300  0.889000  1.0
  H  H1146  1  0.956300  0.595700  0.389000  1.0
  H  H1147  1  0.845700  0.293700  0.639000  1.0
  H  H1148  1  0.654300  0.706300  0.139000  1.0
  H  H1149  1  0.043700  0.904300  0.389000  1.0
  H  H1150  1  0.456300  0.095700  0.889000  1.0
  H  H1151  1  0.345700  0.793700  0.139000  1.0
  H  H1152  1  0.154300  0.206300  0.639000  1.0
  H  H1153  1  0.503100  0.608500  0.041400  1.0
  H  H1154  1  0.996900  0.391500  0.541400  1.0
  H  H1155  1  0.141500  0.753100  0.291400  1.0
  H  H1156  1  0.358500  0.246900  0.791400  1.0
  H  H1157  1  0.003100  0.108500  0.541400  1.0
  H  H1158  1  0.496900  0.891500  0.041400  1.0
  H  H1159  1  0.641500  0.253100  0.791400  1.0
  H  H1160  1  0.858500  0.746900  0.291400  1.0
  H  H1161  1  0.496900  0.391500  0.958600  1.0
  H  H1162  1  0.003100  0.608500  0.458600  1.0
  H  H1163  1  0.858500  0.246900  0.708600  1.0
  H  H1164  1  0.641500  0.753100  0.208600  1.0
  H  H1165  1  0.996900  0.891500  0.458600  1.0
  H  H1166  1  0.503100  0.108500  0.958600  1.0
  H  H1167  1  0.358500  0.746900  0.208600  1.0
  H  H1168  1  0.141500  0.253100  0.708600  1.0
  H  H1169  1  0.477100  0.648700  0.140800  1.0
  H  H1170  1  0.022900  0.351300  0.640800  1.0
  H  H1171  1  0.101300  0.727100  0.390800  1.0
  H  H1172  1  0.398700  0.272900  0.890800  1.0
  H  H1173  1  0.977100  0.148700  0.640800  1.0
  H  H1174  1  0.522900  0.851300  0.140800  1.0
  H  H1175  1  0.601300  0.227100  0.890800  1.0
  H  H1176  1  0.898700  0.772900  0.390800  1.0
  H  H1177  1  0.522900  0.351300  0.859200  1.0
  H  H1178  1  0.977100  0.648700  0.359200  1.0
  H  H1179  1  0.898700  0.272900  0.609200  1.0
  H  H1180  1  0.601300  0.727100  0.109200  1.0
  H  H1181  1  0.022900  0.851300  0.359200  1.0
  H  H1182  1  0.477100  0.148700  0.859200  1.0
  H  H1183  1  0.398700  0.772900  0.109200  1.0
  H  H1184  1  0.101300  0.227100  0.609200  1.0
  H  H1185  1  0.420800  0.709200  0.154600  1.0
  H  H1186  1  0.079200  0.290800  0.654600  1.0
  H  H1187  1  0.040800  0.670800  0.404600  1.0
  H  H1188  1  0.459200  0.329200  0.904600  1.0
  H  H1189  1  0.920800  0.209200  0.654600  1.0
  H  H1190  1  0.579200  0.790800  0.154600  1.0
  H  H1191  1  0.540800  0.170800  0.904600  1.0
  H  H1192  1  0.959200  0.829200  0.404600  1.0
  H  H1193  1  0.579200  0.290800  0.845400  1.0
  H  H1194  1  0.920800  0.709200  0.345400  1.0
  H  H1195  1  0.959200  0.329200  0.595400  1.0
  H  H1196  1  0.540800  0.670800  0.095400  1.0
  H  H1197  1  0.079200  0.790800  0.345400  1.0
  H  H1198  1  0.420800  0.209200  0.845400  1.0
  H  H1199  1  0.459200  0.829200  0.095400  1.0
  H  H1200  1  0.040800  0.170800  0.595400  1.0
  H  H1201  1  0.472900  0.726100  0.132100  1.0
  H  H1202  1  0.027100  0.273900  0.632100  1.0
  H  H1203  1  0.023900  0.722900  0.382100  1.0
  H  H1204  1  0.476100  0.277100  0.882100  1.0
  H  H1205  1  0.972900  0.226100  0.632100  1.0
  H  H1206  1  0.527100  0.773900  0.132100  1.0
  H  H1207  1  0.523900  0.222900  0.882100  1.0
  H  H1208  1  0.976100  0.777100  0.382100  1.0
  H  H1209  1  0.527100  0.273900  0.867900  1.0
  H  H1210  1  0.972900  0.726100  0.367900  1.0
  H  H1211  1  0.976100  0.277100  0.617900  1.0
  H  H1212  1  0.523900  0.722900  0.117900  1.0
  H  H1213  1  0.027100  0.773900  0.367900  1.0
  H  H1214  1  0.472900  0.226100  0.867900  1.0
  H  H1215  1  0.476100  0.777100  0.117900  1.0
  H  H1216  1  0.023900  0.222900  0.617900  1.0
  H  H1217  1  0.485100  0.716000  0.206600  1.0
  H  H1218  1  0.014900  0.284000  0.706600  1.0
  H  H1219  1  0.034000  0.735100  0.456600  1.0
  H  H1220  1  0.466000  0.264900  0.956600  1.0
  H  H1221  1  0.985100  0.216000  0.706600  1.0
  H  H1222  1  0.514900  0.784000  0.206600  1.0
  H  H1223  1  0.534000  0.235100  0.956600  1.0
  H  H1224  1  0.966000  0.764900  0.456600  1.0
  H  H1225  1  0.514900  0.284000  0.793400  1.0
  H  H1226  1  0.985100  0.716000  0.293400  1.0
  H  H1227  1  0.966000  0.264900  0.543400  1.0
  H  H1228  1  0.534000  0.735100  0.043400  1.0
  H  H1229  1  0.014900  0.784000  0.293400  1.0
  H  H1230  1  0.485100  0.216000  0.793400  1.0
  H  H1231  1  0.466000  0.764900  0.043400  1.0
  H  H1232  1  0.034000  0.235100  0.543400  1.0
  H  H1233  1  0.502800  0.726300  0.192400  1.0
  H  H1234  1  0.997200  0.273700  0.692400  1.0
  H  H1235  1  0.023700  0.752800  0.442400  1.0
  H  H1236  1  0.476300  0.247200  0.942400  1.0
  H  H1237  1  0.002800  0.226300  0.692400  1.0
  H  H1238  1  0.497200  0.773700  0.192400  1.0
  H  H1239  1  0.523700  0.252800  0.942400  1.0
  H  H1240  1  0.976300  0.747200  0.442400  1.0
  H  H1241  1  0.497200  0.273700  0.807600  1.0
  H  H1242  1  0.002800  0.726300  0.307600  1.0
  H  H1243  1  0.976300  0.247200  0.557600  1.0
  H  H1244  1  0.523700  0.752800  0.057600  1.0
  H  H1245  1  0.997200  0.773700  0.307600  1.0
  H  H1246  1  0.502800  0.226300  0.807600  1.0
  H  H1247  1  0.476300  0.747200  0.057600  1.0
  H  H1248  1  0.023700  0.252800  0.557600  1.0
  H  H1249  1  0.443900  0.774500  0.254100  1.0
  H  H1250  1  0.056100  0.225500  0.754100  1.0
  H  H1251  1  0.975500  0.693900  0.504100  1.0
  H  H1252  1  0.524500  0.306100  0.004100  1.0
  H  H1253  1  0.943900  0.274500  0.754100  1.0
  H  H1254  1  0.556100  0.725500  0.254100  1.0
  H  H1255  1  0.475500  0.193900  0.004100  1.0
  H  H1256  1  0.024500  0.806100  0.504100  1.0
  H  H1257  1  0.556100  0.225500  0.745900  1.0
  H  H1258  1  0.943900  0.774500  0.245900  1.0
  H  H1259  1  0.024500  0.306100  0.495900  1.0
  H  H1260  1  0.475500  0.693900  0.995900  1.0
  H  H1261  1  0.056100  0.725500  0.245900  1.0
  H  H1262  1  0.443900  0.274500  0.745900  1.0
  H  H1263  1  0.524500  0.806100  0.995900  1.0
  H  H1264  1  0.975500  0.193900  0.495900  1.0
  H  H1265  1  0.401700  0.741000  0.229900  1.0
  H  H1266  1  0.098300  0.259000  0.729900  1.0
  H  H1267  1  0.009000  0.651700  0.479900  1.0
  H  H1268  1  0.491000  0.348300  0.979900  1.0
  H  H1269  1  0.901700  0.241000  0.729900  1.0
  H  H1270  1  0.598300  0.759000  0.229900  1.0
  H  H1271  1  0.509000  0.151700  0.979900  1.0
  H  H1272  1  0.991000  0.848300  0.479900  1.0
  H  H1273  1  0.598300  0.259000  0.770100  1.0
  H  H1274  1  0.901700  0.741000  0.270100  1.0
  H  H1275  1  0.991000  0.348300  0.520100  1.0
  H  H1276  1  0.509000  0.651700  0.020100  1.0
  H  H1277  1  0.098300  0.759000  0.270100  1.0
  H  H1278  1  0.401700  0.241000  0.770100  1.0
  H  H1279  1  0.491000  0.848300  0.020100  1.0
  H  H1280  1  0.009000  0.151700  0.520100  1.0
  H  H1281  1  0.570000  0.656000  0.208200  1.0
  H  H1282  1  0.930000  0.344000  0.708200  1.0
  H  H1283  1  0.094000  0.820000  0.458200  1.0
  H  H1284  1  0.406000  0.180000  0.958200  1.0
  H  H1285  1  0.070000  0.156000  0.708200  1.0
  H  H1286  1  0.430000  0.844000  0.208200  1.0
  H  H1287  1  0.594000  0.320000  0.958200  1.0
  H  H1288  1  0.906000  0.680000  0.458200  1.0
  H  H1289  1  0.430000  0.344000  0.791800  1.0
  H  H1290  1  0.070000  0.656000  0.291800  1.0
  H  H1291  1  0.906000  0.180000  0.541800  1.0
  H  H1292  1  0.594000  0.820000  0.041800  1.0
  H  H1293  1  0.930000  0.844000  0.291800  1.0
  H  H1294  1  0.570000  0.156000  0.791800  1.0
  H  H1295  1  0.406000  0.680000  0.041800  1.0
  H  H1296  1  0.094000  0.320000  0.541800  1.0
  H  H1297  1  0.623900  0.672600  0.227900  1.0
  H  H1298  1  0.876100  0.327400  0.727900  1.0
  H  H1299  1  0.077400  0.873900  0.477900  1.0
  H  H1300  1  0.422600  0.126100  0.977900  1.0
  H  H1301  1  0.123900  0.172600  0.727900  1.0
  H  H1302  1  0.376100  0.827400  0.227900  1.0
  H  H1303  1  0.577400  0.373900  0.977900  1.0
  H  H1304  1  0.922600  0.626100  0.477900  1.0
  H  H1305  1  0.376100  0.327400  0.772100  1.0
  H  H1306  1  0.123900  0.672600  0.272100  1.0
  H  H1307  1  0.922600  0.126100  0.522100  1.0
  H  H1308  1  0.577400  0.873900  0.022100  1.0
  H  H1309  1  0.876100  0.827400  0.272100  1.0
  H  H1310  1  0.623900  0.172600  0.772100  1.0
  H  H1311  1  0.422600  0.626100  0.022100  1.0
  H  H1312  1  0.077400  0.373900  0.522100  1.0
  H  H1313  1  0.406500  0.622700  0.096800  1.0
  H  H1314  1  0.093500  0.377300  0.596800  1.0
  H  H1315  1  0.127300  0.656500  0.346800  1.0
  H  H1316  1  0.372700  0.343500  0.846800  1.0
  H  H1317  1  0.906500  0.122700  0.596800  1.0
  H  H1318  1  0.593500  0.877300  0.096800  1.0
  H  H1319  1  0.627300  0.156500  0.846800  1.0
  H  H1320  1  0.872700  0.843500  0.346800  1.0
  H  H1321  1  0.593500  0.377300  0.903200  1.0
  H  H1322  1  0.906500  0.622700  0.403200  1.0
  H  H1323  1  0.872700  0.343500  0.653200  1.0
  H  H1324  1  0.627300  0.656500  0.153200  1.0
  H  H1325  1  0.093500  0.877300  0.403200  1.0
  H  H1326  1  0.406500  0.122700  0.903200  1.0
  H  H1327  1  0.372700  0.843500  0.153200  1.0
  H  H1328  1  0.127300  0.156500  0.653200  1.0
  H  H1329  1  0.461500  0.601100  0.083700  1.0
  H  H1330  1  0.038500  0.398900  0.583700  1.0
  H  H1331  1  0.148900  0.711500  0.333700  1.0
  H  H1332  1  0.351100  0.288500  0.833700  1.0
  H  H1333  1  0.961500  0.101100  0.583700  1.0
  H  H1334  1  0.538500  0.898900  0.083700  1.0
  H  H1335  1  0.648900  0.211500  0.833700  1.0
  H  H1336  1  0.851100  0.788500  0.333700  1.0
  H  H1337  1  0.538500  0.398900  0.916300  1.0
  H  H1338  1  0.961500  0.601100  0.416300  1.0
  H  H1339  1  0.851100  0.288500  0.666300  1.0
  H  H1340  1  0.648900  0.711500  0.166300  1.0
  H  H1341  1  0.038500  0.898900  0.416300  1.0
  H  H1342  1  0.461500  0.101100  0.916300  1.0
  H  H1343  1  0.351100  0.788500  0.166300  1.0
  H  H1344  1  0.148900  0.211500  0.666300  1.0
  Pd  Pd1345  1  0.500000  0.750000  0.413790  1.0
  Pd  Pd1346  1  0.000000  0.250000  0.913790  1.0
  Pd  Pd1347  1  0.000000  0.750000  0.663790  1.0
  Pd  Pd1348  1  0.500000  0.250000  0.163790  1.0
  Pd  Pd1349  1  0.500000  0.250000  0.586210  1.0
  Pd  Pd1350  1  0.000000  0.750000  0.086210  1.0
  Pd  Pd1351  1  0.000000  0.250000  0.336210  1.0
  Pd  Pd1352  1  0.500000  0.750000  0.836210  1.0
  Pd  Pd1353  1  0.712620  0.463710  0.122808  1.0
  Pd  Pd1354  1  0.787380  0.536290  0.622808  1.0
  Pd  Pd1355  1  0.286290  0.962620  0.372808  1.0
  Pd  Pd1356  1  0.213710  0.037380  0.872808  1.0
  Pd  Pd1357  1  0.212620  0.963710  0.622808  1.0
  Pd  Pd1358  1  0.287380  0.036290  0.122808  1.0
  Pd  Pd1359  1  0.786290  0.462620  0.872808  1.0
  Pd  Pd1360  1  0.713710  0.537380  0.372808  1.0
  Pd  Pd1361  1  0.287380  0.536290  0.877192  1.0
  Pd  Pd1362  1  0.212620  0.463710  0.377192  1.0
  Pd  Pd1363  1  0.713710  0.037380  0.627192  1.0
  Pd  Pd1364  1  0.786290  0.962620  0.127192  1.0
  Pd  Pd1365  1  0.787380  0.036290  0.377192  1.0
  Pd  Pd1366  1  0.712620  0.963710  0.877192  1.0
  Pd  Pd1367  1  0.213710  0.537380  0.127192  1.0
  Pd  Pd1368  1  0.286290  0.462620  0.627192  1.0
  C  C1369  1  0.821000  0.483400  0.087300  1
  C  C1370  1  0.679000  0.516600  0.587300  1
  C  C1371  1  0.266600  0.071000  0.337300  1
  C  C1372  1  0.233400  0.929000  0.837300  1
  C  C1373  1  0.321000  0.983400  0.587300  1
  C  C1374  1  0.179000  0.016600  0.087300  1
  C  C1375  1  0.766600  0.571000  0.837300  1
  C  C1376  1  0.733400  0.429000  0.337300  1
  C  C1377  1  0.179000  0.516600  0.912700  1
  C  C1378  1  0.321000  0.483400  0.412700  1
  C  C1379  1  0.733400  0.929000  0.662700  1
  C  C1380  1  0.766600  0.071000  0.162700  1
  C  C1381  1  0.679000  0.016600  0.412700  1
  C  C1382  1  0.821000  0.983400  0.912700  1
  C  C1383  1  0.233400  0.429000  0.162700  1
  C  C1384  1  0.266600  0.571000  0.662700  1
  C  C1385  1  0.765700  0.427700  0.046100  1
  C  C1386  1  0.734300  0.572300  0.546100  1
  C  C1387  1  0.322300  0.015700  0.296100  1
  C  C1388  1  0.177700  0.984300  0.796100  1
  C  C1389  1  0.265700  0.927700  0.546100  1
  C  C1390  1  0.234300  0.072300  0.046100  1
  C  C1391  1  0.822300  0.515700  0.796100  1
  C  C1392  1  0.677700  0.484300  0.296100  1
  C  C1393  1  0.234300  0.572300  0.953900  1
  C  C1394  1  0.265700  0.427700  0.453900  1
  C  C1395  1  0.677700  0.984300  0.703900  1
  C  C1396  1  0.822300  0.015700  0.203900  1
  C  C1397  1  0.734300  0.072300  0.453900  1
  C  C1398  1  0.765700  0.927700  0.953900  1
  C  C1399  1  0.177700  0.484300  0.203900  1
  C  C1400  1  0.322300  0.515700  0.703900  1
  C  C1401  1  0.799500  0.397200  0.113900  1
  C  C1402  1  0.700500  0.602800  0.613900  1
  C  C1403  1  0.352800  0.049500  0.363900  1
  C  C1404  1  0.147200  0.950500  0.863900  1
  C  C1405  1  0.299500  0.897200  0.613900  1
  C  C1406  1  0.200500  0.102800  0.113900  1
  C  C1407  1  0.852800  0.549500  0.863900  1
  C  C1408  1  0.647200  0.450500  0.363900  1
  C  C1409  1  0.200500  0.602800  0.886100  1
  C  C1410  1  0.299500  0.397200  0.386100  1
  C  C1411  1  0.647200  0.950500  0.636100  1
  C  C1412  1  0.852800  0.049500  0.136100  1
  C  C1413  1  0.700500  0.102800  0.386100  1
  C  C1414  1  0.799500  0.897200  0.886100  1
  C  C1415  1  0.147200  0.450500  0.136100  1
  C  C1416  1  0.352800  0.549500  0.636100  1
  C  C1417  1  0.758000  0.362300  0.121700  1
  C  C1418  1  0.742000  0.637700  0.621700  1
  C  C1419  1  0.387700  0.008000  0.371700  1
  C  C1420  1  0.112300  0.992000  0.871700  1
  C  C1421  1  0.258000  0.862300  0.621700  1
  C  C1422  1  0.242000  0.137700  0.121700  1
  C  C1423  1  0.887700  0.508000  0.871700  1
  C  C1424  1  0.612300  0.492000  0.371700  1
  C  C1425  1  0.242000  0.637700  0.878300  1
  C  C1426  1  0.258000  0.362300  0.378300  1
  C  C1427  1  0.612300  0.992000  0.628300  1
  C  C1428  1  0.887700  0.008000  0.128300  1
  C  C1429  1  0.742000  0.137700  0.378300  1
  C  C1430  1  0.758000  0.862300  0.878300  1
  C  C1431  1  0.112300  0.492000  0.128300  1
  C  C1432  1  0.387700  0.508000  0.628300  1
  C  C1433  1  0.667100  0.362800  0.130500  1
  C  C1434  1  0.832900  0.637200  0.630500  1
  C  C1435  1  0.387200  0.917100  0.380500  1
  C  C1436  1  0.112800  0.082900  0.880500  1
  C  C1437  1  0.167100  0.862800  0.630500  1
  C  C1438  1  0.332900  0.137200  0.130500  1
  C  C1439  1  0.887200  0.417100  0.880500  1
  C  C1440  1  0.612800  0.582900  0.380500  1
  C  C1441  1  0.332900  0.637200  0.869500  1
  C  C1442  1  0.167100  0.362800  0.369500  1
  C  C1443  1  0.612800  0.082900  0.619500  1
  C  C1444  1  0.887200  0.917100  0.119500  1
  C  C1445  1  0.832900  0.137200  0.369500  1
  C  C1446  1  0.667100  0.862800  0.869500  1
  C  C1447  1  0.112800  0.582900  0.119500  1
  C  C1448  1  0.387200  0.417100  0.619500  1
  C  C1449  1  0.731100  0.396300  0.194100  1
  C  C1450  1  0.768900  0.603700  0.694100  1
  C  C1451  1  0.353700  0.981100  0.444100  1
  C  C1452  1  0.146300  0.018900  0.944100  1
  C  C1453  1  0.231100  0.896300  0.694100  1
  C  C1454  1  0.268900  0.103700  0.194100  1
  C  C1455  1  0.853700  0.481100  0.944100  1
  C  C1456  1  0.646300  0.518900  0.444100  1
  C  C1457  1  0.268900  0.603700  0.805900  1
  C  C1458  1  0.231100  0.396300  0.305900  1
  C  C1459  1  0.646300  0.018900  0.555900  1
  C  C1460  1  0.853700  0.981100  0.055900  1
  C  C1461  1  0.768900  0.103700  0.305900  1
  C  C1462  1  0.731100  0.896300  0.805900  1
  C  C1463  1  0.146300  0.518900  0.055900  1
  C  C1464  1  0.353700  0.481100  0.555900  1
  C  C1465  1  0.500600  0.783300  0.501800  1
  C  C1466  1  0.999400  0.216700  0.001800  1
  C  C1467  1  0.966700  0.750600  0.751800  1
  C  C1468  1  0.533300  0.249400  0.251800  1
  C  C1469  1  0.000600  0.283300  0.001800  1
  C  C1470  1  0.499400  0.716700  0.501800  1
  C  C1471  1  0.466700  0.250600  0.251800  1
  C  C1472  1  0.033300  0.749400  0.751800  1
  C  C1473  1  0.499400  0.216700  0.498200  1
  C  C1474  1  0.000600  0.783300  0.998200  1
  C  C1475  1  0.033300  0.249400  0.248200  1
  C  C1476  1  0.466700  0.750600  0.748200  1
  C  C1477  1  0.999400  0.716700  0.998200  1
  C  C1478  1  0.500600  0.283300  0.498200  1
  C  C1479  1  0.533300  0.749400  0.748200  1
  C  C1480  1  0.966700  0.250600  0.248200  1
  C  C1481  1  0.567900  0.826400  0.460100  1
  C  C1482  1  0.932100  0.173600  0.960100  1
  C  C1483  1  0.923600  0.817900  0.710100  1
  C  C1484  1  0.576400  0.182100  0.210100  1
  C  C1485  1  0.067900  0.326400  0.960100  1
  C  C1486  1  0.432100  0.673600  0.460100  1
  C  C1487  1  0.423600  0.317900  0.210100  1
  C  C1488  1  0.076400  0.682100  0.710100  1
  C  C1489  1  0.432100  0.173600  0.539900  1
  C  C1490  1  0.067900  0.826400  0.039900  1
  C  C1491  1  0.076400  0.182100  0.289900  1
  C  C1492  1  0.423600  0.817900  0.789900  1
  C  C1493  1  0.932100  0.673600  0.039900  1
  C  C1494  1  0.567900  0.326400  0.539900  1
  C  C1495  1  0.576400  0.682100  0.789900  1
  C  C1496  1  0.923600  0.317900  0.289900  1
  C  C1497  1  0.468700  0.842900  0.454900  1
  C  C1498  1  0.031300  0.157100  0.954900  1
  C  C1499  1  0.907100  0.718700  0.704900  1
  C  C1500  1  0.592900  0.281300  0.204900  1
  C  C1501  1  0.968700  0.342900  0.954900  1
  C  C1502  1  0.531300  0.657100  0.454900  1
  C  C1503  1  0.407100  0.218700  0.204900  1
  C  C1504  1  0.092900  0.781300  0.704900  1
  C  C1505  1  0.531300  0.157100  0.545100  1
  C  C1506  1  0.968700  0.842900  0.045100  1
  C  C1507  1  0.092900  0.281300  0.295100  1
  C  C1508  1  0.407100  0.718700  0.795100  1
  C  C1509  1  0.031300  0.657100  0.045100  1
  C  C1510  1  0.468700  0.342900  0.545100  1
  C  C1511  1  0.592900  0.781300  0.795100  1
  C  C1512  1  0.907100  0.218700  0.295100  1
  C  C1513  1  0.534300  0.678100  0.347900  1.0
  C  C1514  1  0.965700  0.321900  0.847900  1.0
  C  C1515  1  0.071900  0.784300  0.597900  1.0
  C  C1516  1  0.428100  0.215700  0.097900  1.0
  C  C1517  1  0.034300  0.178100  0.847900  1.0
  C  C1518  1  0.465700  0.821900  0.347900  1.0
  C  C1519  1  0.571900  0.284300  0.097900  1.0
  C  C1520  1  0.928100  0.715700  0.597900  1.0
  C  C1521  1  0.465700  0.321900  0.652100  1.0
  C  C1522  1  0.034300  0.678100  0.152100  1.0
  C  C1523  1  0.928100  0.215700  0.402100  1.0
  C  C1524  1  0.571900  0.784300  0.902100  1.0
  C  C1525  1  0.965700  0.821900  0.152100  1.0
  C  C1526  1  0.534300  0.178100  0.652100  1.0
  C  C1527  1  0.428100  0.715700  0.902100  1.0
  C  C1528  1  0.071900  0.284300  0.402100  1.0
  C  C1529  1  0.531100  0.646600  0.312800  1.0
  C  C1530  1  0.968900  0.353400  0.812800  1.0
  C  C1531  1  0.103400  0.781100  0.562800  1.0
  C  C1532  1  0.396600  0.218900  0.062800  1.0
  C  C1533  1  0.031100  0.146600  0.812800  1.0
  C  C1534  1  0.468900  0.853400  0.312800  1.0
  C  C1535  1  0.603400  0.281100  0.062800  1.0
  C  C1536  1  0.896600  0.718900  0.562800  1.0
  C  C1537  1  0.468900  0.353400  0.687200  1.0
  C  C1538  1  0.031100  0.646600  0.187200  1.0
  C  C1539  1  0.896600  0.218900  0.437200  1.0
  C  C1540  1  0.603400  0.781100  0.937200  1.0
  C  C1541  1  0.968900  0.853400  0.187200  1.0
  C  C1542  1  0.531100  0.146600  0.687200  1.0
  C  C1543  1  0.396600  0.718900  0.937200  1.0
  C  C1544  1  0.103400  0.281100  0.437200  1.0
  C  C1545  1  0.483600  0.635300  0.296000  1.0
  C  C1546  1  0.016400  0.364700  0.796000  1.0
  C  C1547  1  0.114700  0.733600  0.546000  1.0
  C  C1548  1  0.385300  0.266400  0.046000  1.0
  C  C1549  1  0.983600  0.135300  0.796000  1.0
  C  C1550  1  0.516400  0.864700  0.296000  1.0
  C  C1551  1  0.614700  0.233600  0.046000  1.0
  C  C1552  1  0.885300  0.766400  0.546000  1.0
  C  C1553  1  0.516400  0.364700  0.704000  1.0
  C  C1554  1  0.983600  0.635300  0.204000  1.0
  C  C1555  1  0.885300  0.266400  0.454000  1.0
  C  C1556  1  0.614700  0.733600  0.954000  1.0
  C  C1557  1  0.016400  0.864700  0.204000  1.0
  C  C1558  1  0.483600  0.135300  0.704000  1.0
  C  C1559  1  0.385300  0.766400  0.954000  1.0
  C  C1560  1  0.114700  0.233600  0.454000  1.0
  C  C1561  1  0.441100  0.655300  0.314700  1.0
  C  C1562  1  0.058900  0.344700  0.814700  1.0
  C  C1563  1  0.094700  0.691100  0.564700  1.0
  C  C1564  1  0.405300  0.308900  0.064700  1.0
  C  C1565  1  0.941100  0.155300  0.814700  1.0
  C  C1566  1  0.558900  0.844700  0.314700  1.0
  C  C1567  1  0.594700  0.191100  0.064700  1.0
  C  C1568  1  0.905300  0.808900  0.564700  1.0
  C  C1569  1  0.558900  0.344700  0.685300  1.0
  C  C1570  1  0.941100  0.655300  0.185300  1.0
  C  C1571  1  0.905300  0.308900  0.435300  1.0
  C  C1572  1  0.594700  0.691100  0.935300  1.0
  C  C1573  1  0.058900  0.844700  0.185300  1.0
  C  C1574  1  0.441100  0.155300  0.685300  1.0
  C  C1575  1  0.405300  0.808900  0.935300  1.0
  C  C1576  1  0.094700  0.191100  0.435300  1.0
  C  C1577  1  0.446900  0.687600  0.350600  1.0
  C  C1578  1  0.053100  0.312400  0.850600  1.0
  C  C1579  1  0.062400  0.696900  0.600600  1.0
  C  C1580  1  0.437600  0.303100  0.100600  1.0
  C  C1581  1  0.946900  0.187600  0.850600  1.0
  C  C1582  1  0.553100  0.812400  0.350600  1.0
  C  C1583  1  0.562400  0.196900  0.100600  1.0
  C  C1584  1  0.937600  0.803100  0.600600  1.0
  C  C1585  1  0.553100  0.312400  0.649400  1.0
  C  C1586  1  0.946900  0.687600  0.149400  1.0
  C  C1587  1  0.937600  0.303100  0.399400  1.0
  C  C1588  1  0.562400  0.696900  0.899400  1.0
  C  C1589  1  0.053100  0.812400  0.149400  1.0
  C  C1590  1  0.446900  0.187600  0.649400  1.0
  C  C1591  1  0.437600  0.803100  0.899400  1.0
  C  C1592  1  0.062400  0.196900  0.399400  1.0
  C  C1593  1  0.602300  0.480600  0.135000  1.0
  C  C1594  1  0.897700  0.519400  0.635000  1.0
  C  C1595  1  0.269400  0.852300  0.385000  1.0
  C  C1596  1  0.230600  0.147700  0.885000  1.0
  C  C1597  1  0.102300  0.980600  0.635000  1.0
  C  C1598  1  0.397700  0.019400  0.135000  1.0
  C  C1599  1  0.769400  0.352300  0.885000  1.0
  C  C1600  1  0.730600  0.647700  0.385000  1.0
  C  C1601  1  0.397700  0.519400  0.865000  1.0
  C  C1602  1  0.102300  0.480600  0.365000  1.0
  C  C1603  1  0.730600  0.147700  0.615000  1.0
  C  C1604  1  0.769400  0.852300  0.115000  1.0
  C  C1605  1  0.897700  0.019400  0.365000  1.0
  C  C1606  1  0.602300  0.980600  0.865000  1.0
  C  C1607  1  0.230600  0.647700  0.115000  1.0
  C  C1608  1  0.269400  0.352300  0.615000  1.0
  C  C1609  1  0.558400  0.502000  0.152300  1.0
  C  C1610  1  0.941600  0.498000  0.652300  1.0
  C  C1611  1  0.248000  0.808400  0.402300  1.0
  C  C1612  1  0.252000  0.191600  0.902300  1.0
  C  C1613  1  0.058400  0.002000  0.652300  1.0
  C  C1614  1  0.441600  0.998000  0.152300  1.0
  C  C1615  1  0.748000  0.308400  0.902300  1.0
  C  C1616  1  0.752000  0.691600  0.402300  1.0
  C  C1617  1  0.441600  0.498000  0.847700  1.0
  C  C1618  1  0.058400  0.502000  0.347700  1.0
  C  C1619  1  0.752000  0.191600  0.597700  1.0
  C  C1620  1  0.748000  0.808400  0.097700  1.0
  C  C1621  1  0.941600  0.998000  0.347700  1.0
  C  C1622  1  0.558400  0.002000  0.847700  1.0
  C  C1623  1  0.252000  0.691600  0.097700  1.0
  C  C1624  1  0.248000  0.308400  0.597700  1.0
  C  C1625  1  0.562000  0.530100  0.188800  1.0
  C  C1626  1  0.938000  0.469900  0.688800  1.0
  C  C1627  1  0.219900  0.812000  0.438800  1.0
  C  C1628  1  0.280100  0.188000  0.938800  1.0
  C  C1629  1  0.062000  0.030100  0.688800  1.0
  C  C1630  1  0.438000  0.969900  0.188800  1.0
  C  C1631  1  0.719900  0.312000  0.938800  1.0
  C  C1632  1  0.780100  0.688000  0.438800  1.0
  C  C1633  1  0.438000  0.469900  0.811200  1.0
  C  C1634  1  0.062000  0.530100  0.311200  1.0
  C  C1635  1  0.780100  0.188000  0.561200  1.0
  C  C1636  1  0.719900  0.812000  0.061200  1.0
  C  C1637  1  0.938000  0.969900  0.311200  1.0
  C  C1638  1  0.562000  0.030100  0.811200  1.0
  C  C1639  1  0.280100  0.688000  0.061200  1.0
  C  C1640  1  0.219900  0.312000  0.561200  1.0
  C  C1641  1  0.609200  0.538200  0.207000  1.0
  C  C1642  1  0.890800  0.461800  0.707000  1.0
  C  C1643  1  0.211800  0.859200  0.457000  1.0
  C  C1644  1  0.288200  0.140800  0.957000  1.0
  C  C1645  1  0.109200  0.038200  0.707000  1.0
  C  C1646  1  0.390800  0.961800  0.207000  1.0
  C  C1647  1  0.711800  0.359200  0.957000  1.0
  C  C1648  1  0.788200  0.640800  0.457000  1.0
  C  C1649  1  0.390800  0.461800  0.793000  1.0
  C  C1650  1  0.109200  0.538200  0.293000  1.0
  C  C1651  1  0.788200  0.140800  0.543000  1.0
  C  C1652  1  0.711800  0.859200  0.043000  1.0
  C  C1653  1  0.890800  0.961800  0.293000  1.0
  C  C1654  1  0.609200  0.038200  0.793000  1.0
  C  C1655  1  0.288200  0.640800  0.043000  1.0
  C  C1656  1  0.211800  0.359200  0.543000  1.0
  C  C1657  1  0.651900  0.516000  0.188200  1.0
  C  C1658  1  0.848100  0.484000  0.688200  1.0
  C  C1659  1  0.234000  0.901900  0.438200  1.0
  C  C1660  1  0.266000  0.098100  0.938200  1.0
  C  C1661  1  0.151900  0.016000  0.688200  1.0
  C  C1662  1  0.348100  0.984000  0.188200  1.0
  C  C1663  1  0.734000  0.401900  0.938200  1.0
  C  C1664  1  0.766000  0.598100  0.438200  1.0
  C  C1665  1  0.348100  0.484000  0.811800  1.0
  C  C1666  1  0.151900  0.516000  0.311800  1.0
  C  C1667  1  0.766000  0.098100  0.561800  1.0
  C  C1668  1  0.734000  0.901900  0.061800  1.0
  C  C1669  1  0.848100  0.984000  0.311800  1.0
  C  C1670  1  0.651900  0.016000  0.811800  1.0
  C  C1671  1  0.266000  0.598100  0.061800  1.0
  C  C1672  1  0.234000  0.401900  0.561800  1.0
  C  C1673  1  0.288600  0.564300  0.192600  1.0
  C  C1674  1  0.211400  0.435700  0.692600  1.0
  C  C1675  1  0.185700  0.538600  0.442600  1.0
  C  C1676  1  0.314300  0.461400  0.942600  1.0
  C  C1677  1  0.788600  0.064300  0.692600  1.0
  C  C1678  1  0.711400  0.935700  0.192600  1.0
  C  C1679  1  0.685700  0.038600  0.942600  1.0
  C  C1680  1  0.814300  0.961400  0.442600  1.0
  C  C1681  1  0.711400  0.435700  0.807400  1.0
  C  C1682  1  0.788600  0.564300  0.307400  1.0
  C  C1683  1  0.814300  0.461400  0.557400  1.0
  C  C1684  1  0.685700  0.538600  0.057400  1.0
  C  C1685  1  0.211400  0.935700  0.307400  1.0
  C  C1686  1  0.288600  0.064300  0.807400  1.0
  C  C1687  1  0.314300  0.961400  0.057400  1.0
  C  C1688  1  0.185700  0.038600  0.557400  1.0
  C  C1689  1  0.336100  0.573400  0.210200  1.0
  C  C1690  1  0.163900  0.426600  0.710200  1.0
  C  C1691  1  0.176600  0.586100  0.460200  1.0
  C  C1692  1  0.323400  0.413900  0.960200  1.0
  C  C1693  1  0.836100  0.073400  0.710200  1.0
  C  C1694  1  0.663900  0.926600  0.210200  1.0
  C  C1695  1  0.676600  0.086100  0.960200  1.0
  C  C1696  1  0.823400  0.913900  0.460200  1.0
  C  C1697  1  0.663900  0.426600  0.789800  1.0
  C  C1698  1  0.836100  0.573400  0.289800  1.0
  C  C1699  1  0.823400  0.413900  0.539800  1.0
  C  C1700  1  0.676600  0.586100  0.039800  1.0
  C  C1701  1  0.163900  0.926600  0.289800  1.0
  C  C1702  1  0.336100  0.073400  0.789800  1.0
  C  C1703  1  0.323400  0.913900  0.039800  1.0
  C  C1704  1  0.176600  0.086100  0.539800  1.0
  C  C1705  1  0.378900  0.555600  0.190200  1.0
  C  C1706  1  0.121100  0.444400  0.690200  1.0
  C  C1707  1  0.194400  0.628900  0.440200  1.0
  C  C1708  1  0.305600  0.371100  0.940200  1.0
  C  C1709  1  0.878900  0.055600  0.690200  1.0
  C  C1710  1  0.621100  0.944400  0.190200  1.0
  C  C1711  1  0.694400  0.128900  0.940200  1.0
  C  C1712  1  0.805600  0.871100  0.440200  1.0
  C  C1713  1  0.621100  0.444400  0.809800  1.0
  C  C1714  1  0.878900  0.555600  0.309800  1.0
  C  C1715  1  0.805600  0.371100  0.559800  1.0
  C  C1716  1  0.694400  0.628900  0.059800  1.0
  C  C1717  1  0.121100  0.944400  0.309800  1.0
  C  C1718  1  0.378900  0.055600  0.809800  1.0
  C  C1719  1  0.305600  0.871100  0.059800  1.0
  C  C1720  1  0.194400  0.128900  0.559800  1.0
  C  C1721  1  0.373500  0.529300  0.153300  1.0
  C  C1722  1  0.126500  0.470700  0.653300  1.0
  C  C1723  1  0.220700  0.623500  0.403300  1.0
  C  C1724  1  0.279300  0.376500  0.903300  1.0
  C  C1725  1  0.873500  0.029300  0.653300  1.0
  C  C1726  1  0.626500  0.970700  0.153300  1.0
  C  C1727  1  0.720700  0.123500  0.903300  1.0
  C  C1728  1  0.779300  0.876500  0.403300  1.0
  C  C1729  1  0.626500  0.470700  0.846700  1.0
  C  C1730  1  0.873500  0.529300  0.346700  1.0
  C  C1731  1  0.779300  0.376500  0.596700  1.0
  C  C1732  1  0.720700  0.623500  0.096700  1.0
  C  C1733  1  0.126500  0.970700  0.346700  1.0
  C  C1734  1  0.373500  0.029300  0.846700  1.0
  C  C1735  1  0.279300  0.876500  0.096700  1.0
  C  C1736  1  0.220700  0.123500  0.596700  1.0
  C  C1737  1  0.324800  0.521700  0.136200  1.0
  C  C1738  1  0.175200  0.478300  0.636200  1.0
  C  C1739  1  0.228300  0.574800  0.386200  1.0
  C  C1740  1  0.271700  0.425200  0.886200  1.0
  C  C1741  1  0.824800  0.021700  0.636200  1.0
  C  C1742  1  0.675200  0.978300  0.136200  1.0
  C  C1743  1  0.728300  0.074800  0.886200  1.0
  C  C1744  1  0.771700  0.925200  0.386200  1.0
  C  C1745  1  0.675200  0.478300  0.863800  1.0
  C  C1746  1  0.824800  0.521700  0.363800  1.0
  C  C1747  1  0.771700  0.425200  0.613800  1.0
  C  C1748  1  0.728300  0.574800  0.113800  1.0
  C  C1749  1  0.175200  0.978300  0.363800  1.0
  C  C1750  1  0.324800  0.021700  0.863800  1.0
  C  C1751  1  0.271700  0.925200  0.113800  1.0
  C  C1752  1  0.228300  0.074800  0.613800  1.0
  C  C1753  1  0.479000  0.601400  0.258300  1.0
  C  C1754  1  0.021000  0.398600  0.758300  1.0
  C  C1755  1  0.148600  0.729000  0.508300  1.0
  C  C1756  1  0.351400  0.271000  0.008300  1.0
  C  C1757  1  0.979000  0.101400  0.758300  1.0
  C  C1758  1  0.521000  0.898600  0.258300  1.0
  C  C1759  1  0.648600  0.229000  0.008300  1.0
  C  C1760  1  0.851400  0.771000  0.508300  1.0
  C  C1761  1  0.521000  0.398600  0.741700  1.0
  C  C1762  1  0.979000  0.601400  0.241700  1.0
  C  C1763  1  0.851400  0.271000  0.491700  1.0
  C  C1764  1  0.648600  0.729000  0.991700  1.0
  C  C1765  1  0.021000  0.898600  0.241700  1.0
  C  C1766  1  0.479000  0.101400  0.741700  1.0
  C  C1767  1  0.351400  0.771000  0.991700  1.0
  C  C1768  1  0.148600  0.229000  0.491700  1.0
  C  C1769  1  0.514900  0.553500  0.207800  1.0
  C  C1770  1  0.985100  0.446500  0.707800  1.0
  C  C1771  1  0.196500  0.764900  0.457800  1.0
  C  C1772  1  0.303500  0.235100  0.957800  1.0
  C  C1773  1  0.014900  0.053500  0.707800  1.0
  C  C1774  1  0.485100  0.946500  0.207800  1.0
  C  C1775  1  0.696500  0.264900  0.957800  1.0
  C  C1776  1  0.803500  0.735100  0.457800  1.0
  C  C1777  1  0.485100  0.446500  0.792200  1.0
  C  C1778  1  0.014900  0.553500  0.292200  1.0
  C  C1779  1  0.803500  0.235100  0.542200  1.0
  C  C1780  1  0.696500  0.764900  0.042200  1.0
  C  C1781  1  0.985100  0.946500  0.292200  1.0
  C  C1782  1  0.514900  0.053500  0.792200  1.0
  C  C1783  1  0.303500  0.735100  0.042200  1.0
  C  C1784  1  0.196500  0.264900  0.542200  1.0
  C  C1785  1  0.430400  0.565400  0.208400  1.0
  C  C1786  1  0.069600  0.434600  0.708400  1.0
  C  C1787  1  0.184600  0.680400  0.458400  1.0
  C  C1788  1  0.315400  0.319600  0.958400  1.0
  C  C1789  1  0.930400  0.065400  0.708400  1.0
  C  C1790  1  0.569600  0.934600  0.208400  1.0
  C  C1791  1  0.684600  0.180400  0.958400  1.0
  C  C1792  1  0.815400  0.819600  0.458400  1.0
  C  C1793  1  0.569600  0.434600  0.791600  1.0
  C  C1794  1  0.930400  0.565400  0.291600  1.0
  C  C1795  1  0.815400  0.319600  0.541600  1.0
  C  C1796  1  0.684600  0.680400  0.041600  1.0
  C  C1797  1  0.069600  0.934600  0.291600  1.0
  C  C1798  1  0.430400  0.065400  0.791600  1.0
  C  C1799  1  0.315400  0.819600  0.041600  1.0
  C  C1800  1  0.184600  0.180400  0.541600  1.0
  C  C1801  1  0.820800  0.463900  0.110000  1.0
  C  C1802  1  0.679200  0.536100  0.610000  1.0
  C  C1803  1  0.286100  0.070800  0.360000  1.0
  C  C1804  1  0.213900  0.929200  0.860000  1.0
  C  C1805  1  0.320800  0.963900  0.610000  1.0
  C  C1806  1  0.179200  0.036100  0.110000  1.0
  C  C1807  1  0.786100  0.570800  0.860000  1.0
  C  C1808  1  0.713900  0.429200  0.360000  1.0
  C  C1809  1  0.179200  0.536100  0.890000  1.0
  C  C1810  1  0.320800  0.463900  0.390000  1.0
  C  C1811  1  0.713900  0.929200  0.640000  1.0
  C  C1812  1  0.786100  0.070800  0.140000  1.0
  C  C1813  1  0.679200  0.036100  0.390000  1.0
  C  C1814  1  0.820800  0.963900  0.890000  1.0
  C  C1815  1  0.213900  0.429200  0.140000  1.0
  C  C1816  1  0.286100  0.570800  0.640000  1.0
  C  C1817  1  0.775200  0.444800  0.047000  1.0
  C  C1818  1  0.724800  0.555200  0.547000  1.0
  C  C1819  1  0.305200  0.025200  0.297000  1.0
  C  C1820  1  0.194800  0.974800  0.797000  1.0
  C  C1821  1  0.275200  0.944800  0.547000  1.0
  C  C1822  1  0.224800  0.055200  0.047000  1.0
  C  C1823  1  0.805200  0.525200  0.797000  1.0
  C  C1824  1  0.694800  0.474800  0.297000  1.0
  C  C1825  1  0.224800  0.555200  0.953000  1.0
  C  C1826  1  0.275200  0.444800  0.453000  1.0
  C  C1827  1  0.694800  0.974800  0.703000  1.0
  C  C1828  1  0.805200  0.025200  0.203000  1.0
  C  C1829  1  0.724800  0.055200  0.453000  1.0
  C  C1830  1  0.775200  0.944800  0.953000  1.0
  C  C1831  1  0.194800  0.474800  0.203000  1.0
  C  C1832  1  0.305200  0.525200  0.703000  1.0
  C  C1833  1  0.777700  0.381000  0.101400  1.0
  C  C1834  1  0.722300  0.619000  0.601400  1.0
  C  C1835  1  0.369000  0.027700  0.351400  1.0
  C  C1836  1  0.131000  0.972300  0.851400  1.0
  C  C1837  1  0.277700  0.881000  0.601400  1.0
  C  C1838  1  0.222300  0.119000  0.101400  1.0
  C  C1839  1  0.869000  0.527700  0.851400  1.0
  C  C1840  1  0.631000  0.472300  0.351400  1.0
  C  C1841  1  0.222300  0.619000  0.898600  1.0
  C  C1842  1  0.277700  0.381000  0.398600  1.0
  C  C1843  1  0.631000  0.972300  0.648600  1.0
  C  C1844  1  0.869000  0.027700  0.148600  1.0
  C  C1845  1  0.722300  0.119000  0.398600  1.0
  C  C1846  1  0.777700  0.881000  0.898600  1.0
  C  C1847  1  0.131000  0.472300  0.148600  1.0
  C  C1848  1  0.369000  0.527700  0.648600  1.0
  C  C1849  1  0.761700  0.371400  0.146200  1.0
  C  C1850  1  0.738300  0.628600  0.646200  1.0
  C  C1851  1  0.378600  0.011700  0.396200  1.0
  C  C1852  1  0.121400  0.988300  0.896200  1.0
  C  C1853  1  0.261700  0.871400  0.646200  1.0
  C  C1854  1  0.238300  0.128600  0.146200  1.0
  C  C1855  1  0.878600  0.511700  0.896200  1.0
  C  C1856  1  0.621400  0.488300  0.396200  1.0
  C  C1857  1  0.238300  0.628600  0.853800  1.0
  C  C1858  1  0.261700  0.371400  0.353800  1.0
  C  C1859  1  0.621400  0.988300  0.603800  1.0
  C  C1860  1  0.878600  0.011700  0.103800  1.0
  C  C1861  1  0.738300  0.128600  0.353800  1.0
  C  C1862  1  0.761700  0.871400  0.853800  1.0
  C  C1863  1  0.121400  0.488300  0.103800  1.0
  C  C1864  1  0.378600  0.511700  0.603800  1.0
  C  C1865  1  0.671600  0.361600  0.141500  1.0
  C  C1866  1  0.828400  0.638400  0.641500  1.0
  C  C1867  1  0.388400  0.921600  0.391500  1.0
  C  C1868  1  0.111600  0.078400  0.891500  1.0
  C  C1869  1  0.171600  0.861600  0.641500  1.0
  C  C1870  1  0.328400  0.138400  0.141500  1.0
  C  C1871  1  0.888400  0.421600  0.891500  1.0
  C  C1872  1  0.611600  0.578400  0.391500  1.0
  C  C1873  1  0.328400  0.638400  0.858500  1.0
  C  C1874  1  0.171600  0.361600  0.358500  1.0
  C  C1875  1  0.611600  0.078400  0.608500  1.0
  C  C1876  1  0.888400  0.921600  0.108500  1.0
  C  C1877  1  0.828400  0.138400  0.358500  1.0
  C  C1878  1  0.671600  0.861600  0.858500  1.0
  C  C1879  1  0.111600  0.578400  0.108500  1.0
  C  C1880  1  0.388400  0.421600  0.608500  1.0
  C  C1881  1  0.699500  0.397200  0.199700  1.0
  C  C1882  1  0.800500  0.602800  0.699700  1.0
  C  C1883  1  0.352800  0.949500  0.449700  1.0
  C  C1884  1  0.147200  0.050500  0.949700  1.0
  C  C1885  1  0.199500  0.897200  0.699700  1.0
  C  C1886  1  0.300500  0.102800  0.199700  1.0
  C  C1887  1  0.852800  0.449500  0.949700  1.0
  C  C1888  1  0.647200  0.550500  0.449700  1.0
  C  C1889  1  0.300500  0.602800  0.800300  1.0
  C  C1890  1  0.199500  0.397200  0.300300  1.0
  C  C1891  1  0.647200  0.050500  0.550300  1.0
  C  C1892  1  0.852800  0.949500  0.050300  1.0
  C  C1893  1  0.800500  0.102800  0.300300  1.0
  C  C1894  1  0.699500  0.897200  0.800300  1.0
  C  C1895  1  0.147200  0.550500  0.050300  1.0
  C  C1896  1  0.352800  0.449500  0.550300  1.0
  C  C1897  1  0.482200  0.772900  0.500800  1.0
  C  C1898  1  0.017800  0.227100  0.000800  1.0
  C  C1899  1  0.977100  0.732200  0.750800  1.0
  C  C1900  1  0.522900  0.267800  0.250800  1.0
  C  C1901  1  0.982200  0.272900  0.000800  1.0
  C  C1902  1  0.517800  0.727100  0.500800  1.0
  C  C1903  1  0.477100  0.232200  0.250800  1.0
  C  C1904  1  0.022900  0.767800  0.750800  1.0
  C  C1905  1  0.517800  0.227100  0.499200  1.0
  C  C1906  1  0.982200  0.772900  0.999200  1.0
  C  C1907  1  0.022900  0.267800  0.249200  1.0
  C  C1908  1  0.477100  0.732200  0.749200  1.0
  C  C1909  1  0.017800  0.727100  0.999200  1.0
  C  C1910  1  0.482200  0.272900  0.499200  1.0
  C  C1911  1  0.522900  0.767800  0.749200  1.0
  C  C1912  1  0.977100  0.232200  0.249200  1.0
  C  C1913  1  0.558200  0.811900  0.468200  1.0
  C  C1914  1  0.941800  0.188100  0.968200  1.0
  C  C1915  1  0.938100  0.808200  0.718200  1.0
  C  C1916  1  0.561900  0.191800  0.218200  1.0
  C  C1917  1  0.058200  0.311900  0.968200  1.0
  C  C1918  1  0.441800  0.688100  0.468200  1.0
  C  C1919  1  0.438100  0.308200  0.218200  1.0
  C  C1920  1  0.061900  0.691800  0.718200  1.0
  C  C1921  1  0.441800  0.188100  0.531800  1.0
  C  C1922  1  0.058200  0.811900  0.031800  1.0
  C  C1923  1  0.061900  0.191800  0.281800  1.0
  C  C1924  1  0.438100  0.808200  0.781800  1.0
  C  C1925  1  0.941800  0.688100  0.031800  1.0
  C  C1926  1  0.558200  0.311900  0.531800  1.0
  C  C1927  1  0.561900  0.691800  0.781800  1.0
  C  C1928  1  0.938100  0.308200  0.281800  1.0
  C  C1929  1  0.482400  0.853200  0.454600  1.0
  C  C1930  1  0.017600  0.146800  0.954600  1.0
  C  C1931  1  0.896800  0.732400  0.704600  1.0
  C  C1932  1  0.603200  0.267600  0.204600  1.0
  C  C1933  1  0.982400  0.353200  0.954600  1.0
  C  C1934  1  0.517600  0.646800  0.454600  1.0
  C  C1935  1  0.396800  0.232400  0.204600  1.0
  C  C1936  1  0.103200  0.767600  0.704600  1.0
  C  C1937  1  0.517600  0.146800  0.545400  1.0
  C  C1938  1  0.982400  0.853200  0.045400  1.0
  C  C1939  1  0.103200  0.267600  0.295400  1.0
  C  C1940  1  0.396800  0.732400  0.795400  1.0
  C  C1941  1  0.017600  0.646800  0.045400  1.0
  C  C1942  1  0.482400  0.353200  0.545400  1.0
  C  C1943  1  0.603200  0.767600  0.795400  1.0
  C  C1944  1  0.896800  0.232400  0.295400  1.0
  C  C1945  1  0.533000  0.658900  0.144900  1.0
  C  C1946  1  0.967000  0.341100  0.644900  1.0
  C  C1947  1  0.091100  0.783000  0.394900  1.0
  C  C1948  1  0.408900  0.217000  0.894900  1.0
  C  C1949  1  0.033000  0.158900  0.644900  1.0
  C  C1950  1  0.467000  0.841100  0.144900  1.0
  C  C1951  1  0.591100  0.283000  0.894900  1.0
  C  C1952  1  0.908900  0.717000  0.394900  1.0
  C  C1953  1  0.467000  0.341100  0.855100  1.0
  C  C1954  1  0.033000  0.658900  0.355100  1.0
  C  C1955  1  0.908900  0.217000  0.605100  1.0
  C  C1956  1  0.591100  0.783000  0.105100  1.0
  C  C1957  1  0.967000  0.841100  0.355100  1.0
  C  C1958  1  0.533000  0.158900  0.855100  1.0
  C  C1959  1  0.408900  0.717000  0.105100  1.0
  C  C1960  1  0.091100  0.283000  0.605100  1.0
  C  C1961  1  0.518900  0.627400  0.111800  1.0
  C  C1962  1  0.981100  0.372600  0.611800  1.0
  C  C1963  1  0.122600  0.768900  0.361800  1.0
  C  C1964  1  0.377400  0.231100  0.861800  1.0
  C  C1965  1  0.018900  0.127400  0.611800  1.0
  C  C1966  1  0.481100  0.872600  0.111800  1.0
  C  C1967  1  0.622600  0.268900  0.861800  1.0
  C  C1968  1  0.877400  0.731100  0.361800  1.0
  C  C1969  1  0.481100  0.372600  0.888200  1.0
  C  C1970  1  0.018900  0.627400  0.388200  1.0
  C  C1971  1  0.877400  0.231100  0.638200  1.0
  C  C1972  1  0.622600  0.768900  0.138200  1.0
  C  C1973  1  0.981100  0.872600  0.388200  1.0
  C  C1974  1  0.518900  0.127400  0.888200  1.0
  C  C1975  1  0.377400  0.731100  0.138200  1.0
  C  C1976  1  0.122600  0.268900  0.638200  1.0
  C  C1977  1  0.467900  0.620700  0.101500  1.0
  C  C1978  1  0.032100  0.379300  0.601500  1.0
  C  C1979  1  0.129300  0.717900  0.351500  1.0
  C  C1980  1  0.370700  0.282100  0.851500  1.0
  C  C1981  1  0.967900  0.120700  0.601500  1.0
  C  C1982  1  0.532100  0.879300  0.101500  1.0
  C  C1983  1  0.629300  0.217900  0.851500  1.0
  C  C1984  1  0.870700  0.782100  0.351500  1.0
  C  C1985  1  0.532100  0.379300  0.898500  1.0
  C  C1986  1  0.967900  0.620700  0.398500  1.0
  C  C1987  1  0.870700  0.282100  0.648500  1.0
  C  C1988  1  0.629300  0.717900  0.148500  1.0
  C  C1989  1  0.032100  0.879300  0.398500  1.0
  C  C1990  1  0.467900  0.120700  0.898500  1.0
  C  C1991  1  0.370700  0.782100  0.148500  1.0
  C  C1992  1  0.129300  0.217900  0.648500  1.0
  C  C1993  1  0.430700  0.648000  0.123400  1.0
  C  C1994  1  0.069300  0.352000  0.623400  1.0
  C  C1995  1  0.102000  0.680700  0.373400  1.0
  C  C1996  1  0.398000  0.319300  0.873400  1.0
  C  C1997  1  0.930700  0.148000  0.623400  1.0
  C  C1998  1  0.569300  0.852000  0.123400  1.0
  C  C1999  1  0.602000  0.180700  0.873400  1.0
  C  C2000  1  0.898000  0.819300  0.373400  1.0
  C  C2001  1  0.569300  0.352000  0.876600  1.0
  C  C2002  1  0.930700  0.648000  0.376600  1.0
  C  C2003  1  0.898000  0.319300  0.626600  1.0
  C  C2004  1  0.602000  0.680700  0.126600  1.0
  C  C2005  1  0.069300  0.852000  0.376600  1.0
  C  C2006  1  0.430700  0.148000  0.876600  1.0
  C  C2007  1  0.398000  0.819300  0.126600  1.0
  C  C2008  1  0.102000  0.180700  0.626600  1.0
  C  C2009  1  0.444600  0.677700  0.157800  1.0
  C  C2010  1  0.055400  0.322300  0.657800  1.0
  C  C2011  1  0.072300  0.694600  0.407800  1.0
  C  C2012  1  0.427700  0.305400  0.907800  1.0
  C  C2013  1  0.944600  0.177700  0.657800  1.0
  C  C2014  1  0.555400  0.822300  0.157800  1.0
  C  C2015  1  0.572300  0.194600  0.907800  1.0
  C  C2016  1  0.927700  0.805400  0.407800  1.0
  C  C2017  1  0.555400  0.322300  0.842200  1.0
  C  C2018  1  0.944600  0.677700  0.342200  1.0
  C  C2019  1  0.927700  0.305400  0.592200  1.0
  C  C2020  1  0.572300  0.694600  0.092200  1.0
  C  C2021  1  0.055400  0.822300  0.342200  1.0
  C  C2022  1  0.444600  0.177700  0.842200  1.0
  C  C2023  1  0.427700  0.805400  0.092200  1.0
  C  C2024  1  0.072300  0.194600  0.592200  1.0
  C  C2025  1  0.495200  0.680600  0.170600  1.0
  C  C2026  1  0.004800  0.319400  0.670600  1.0
  C  C2027  1  0.069400  0.745200  0.420600  1.0
  C  C2028  1  0.430600  0.254800  0.920600  1.0
  C  C2029  1  0.995200  0.180600  0.670600  1.0
  C  C2030  1  0.504800  0.819400  0.170600  1.0
  C  C2031  1  0.569400  0.245200  0.920600  1.0
  C  C2032  1  0.930600  0.754800  0.420600  1.0
  C  C2033  1  0.504800  0.319400  0.829400  1.0
  C  C2034  1  0.995200  0.680600  0.329400  1.0
  C  C2035  1  0.930600  0.254800  0.579400  1.0
  C  C2036  1  0.569400  0.745200  0.079400  1.0
  C  C2037  1  0.004800  0.819400  0.329400  1.0
  C  C2038  1  0.495200  0.180600  0.829400  1.0
  C  C2039  1  0.430600  0.754800  0.079400  1.0
  C  C2040  1  0.069400  0.245200  0.579400  1.0
  C  C2041  1  0.509600  0.715700  0.200500  1.0
  C  C2042  1  0.990400  0.284300  0.700500  1.0
  C  C2043  1  0.034300  0.759600  0.450500  1.0
  C  C2044  1  0.465700  0.240400  0.950500  1.0
  C  C2045  1  0.009600  0.215700  0.700500  1.0
  C  C2046  1  0.490400  0.784300  0.200500  1.0
  C  C2047  1  0.534300  0.259600  0.950500  1.0
  C  C2048  1  0.965700  0.740400  0.450500  1.0
  C  C2049  1  0.490400  0.284300  0.799500  1.0
  C  C2050  1  0.009600  0.715700  0.299500  1.0
  C  C2051  1  0.965700  0.240400  0.549500  1.0
  C  C2052  1  0.534300  0.759600  0.049500  1.0
  C  C2053  1  0.990400  0.784300  0.299500  1.0
  C  C2054  1  0.509600  0.215700  0.799500  1.0
  C  C2055  1  0.465700  0.740400  0.049500  1.0
  C  C2056  1  0.034300  0.259600  0.549500  1.0
  C  C2057  1  0.472000  0.738200  0.226100  1.0
  C  C2058  1  0.028000  0.261800  0.726100  1.0
  C  C2059  1  0.011800  0.722000  0.476100  1.0
  C  C2060  1  0.488200  0.278000  0.976100  1.0
  C  C2061  1  0.972000  0.238200  0.726100  1.0
  C  C2062  1  0.528000  0.761800  0.226100  1.0
  C  C2063  1  0.511800  0.222000  0.976100  1.0
  C  C2064  1  0.988200  0.778000  0.476100  1.0
  C  C2065  1  0.528000  0.261800  0.773900  1.0
  C  C2066  1  0.972000  0.738200  0.273900  1.0
  C  C2067  1  0.988200  0.278000  0.523900  1.0
  C  C2068  1  0.511800  0.722000  0.023900  1.0
  C  C2069  1  0.028000  0.761800  0.273900  1.0
  C  C2070  1  0.472000  0.238200  0.773900  1.0
  C  C2071  1  0.488200  0.778000  0.023900  1.0
  C  C2072  1  0.011800  0.222000  0.523900  1.0
  C  C2073  1  0.421000  0.734200  0.214600  1.0
  C  C2074  1  0.079000  0.265800  0.714600  1.0
  C  C2075  1  0.015800  0.671000  0.464600  1.0
  C  C2076  1  0.484200  0.329000  0.964600  1.0
  C  C2077  1  0.921000  0.234200  0.714600  1.0
  C  C2078  1  0.579000  0.765800  0.214600  1.0
  C  C2079  1  0.515800  0.171000  0.964600  1.0
  C  C2080  1  0.984200  0.829000  0.464600  1.0
  C  C2081  1  0.579000  0.265800  0.785400  1.0
  C  C2082  1  0.921000  0.734200  0.285400  1.0
  C  C2083  1  0.984200  0.329000  0.535400  1.0
  C  C2084  1  0.515800  0.671000  0.035400  1.0
  C  C2085  1  0.079000  0.765800  0.285400  1.0
  C  C2086  1  0.421000  0.234200  0.785400  1.0
  C  C2087  1  0.484200  0.829000  0.035400  1.0
  C  C2088  1  0.015800  0.171000  0.535400  1.0
  C  C2089  1  0.546000  0.657000  0.069600  1.0
  C  C2090  1  0.954000  0.343000  0.569600  1.0
  C  C2091  1  0.093000  0.796000  0.319600  1.0
  C  C2092  1  0.407000  0.204000  0.819600  1.0
  C  C2093  1  0.046000  0.157000  0.569600  1.0
  C  C2094  1  0.454000  0.843000  0.069600  1.0
  C  C2095  1  0.593000  0.296000  0.819600  1.0
  C  C2096  1  0.907000  0.704000  0.319600  1.0
  C  C2097  1  0.454000  0.343000  0.930400  1.0
  C  C2098  1  0.046000  0.657000  0.430400  1.0
  C  C2099  1  0.907000  0.204000  0.680400  1.0
  C  C2100  1  0.593000  0.796000  0.180400  1.0
  C  C2101  1  0.954000  0.843000  0.430400  1.0
  C  C2102  1  0.546000  0.157000  0.930400  1.0
  C  C2103  1  0.407000  0.704000  0.180400  1.0
  C  C2104  1  0.093000  0.296000  0.680400  1.0
  C  C2105  1  0.581700  0.676800  0.165500  1.0
  C  C2106  1  0.918300  0.323200  0.665500  1.0
  C  C2107  1  0.073200  0.831700  0.415500  1.0
  C  C2108  1  0.426800  0.168300  0.915500  1.0
  C  C2109  1  0.081700  0.176800  0.665500  1.0
  C  C2110  1  0.418300  0.823200  0.165500  1.0
  C  C2111  1  0.573200  0.331700  0.915500  1.0
  C  C2112  1  0.926800  0.668300  0.415500  1.0
  C  C2113  1  0.418300  0.323200  0.834500  1.0
  C  C2114  1  0.081700  0.676800  0.334500  1.0
  C  C2115  1  0.926800  0.168300  0.584500  1.0
  C  C2116  1  0.573200  0.831700  0.084500  1.0
  C  C2117  1  0.918300  0.823200  0.334500  1.0
  C  C2118  1  0.581700  0.176800  0.834500  1.0
  C  C2119  1  0.426800  0.668300  0.084500  1.0
  C  C2120  1  0.073200  0.331700  0.584500  1.0
  C  C2121  1  0.566600  0.713000  0.199800  1.0
  C  C2122  1  0.933400  0.287000  0.699800  1.0
  C  C2123  1  0.037000  0.816600  0.449800  1.0
  C  C2124  1  0.463000  0.183400  0.949800  1.0
  C  C2125  1  0.066600  0.213000  0.699800  1.0
  C  C2126  1  0.433400  0.787000  0.199800  1.0
  C  C2127  1  0.537000  0.316600  0.949800  1.0
  C  C2128  1  0.963000  0.683400  0.449800  1.0
  C  C2129  1  0.433400  0.287000  0.800200  1.0
  C  C2130  1  0.066600  0.713000  0.300200  1.0
  C  C2131  1  0.963000  0.183400  0.550200  1.0
  C  C2132  1  0.537000  0.816600  0.050200  1.0
  C  C2133  1  0.933400  0.787000  0.300200  1.0
  C  C2134  1  0.566600  0.213000  0.800200  1.0
  C  C2135  1  0.463000  0.683400  0.050200  1.0
  C  C2136  1  0.037000  0.316600  0.550200  1.0
  C  C2137  1  0.556000  0.603900  0.087900  1.0
  C  C2138  1  0.944000  0.396100  0.587900  1.0
  C  C2139  1  0.146100  0.806000  0.337900  1.0
  C  C2140  1  0.353900  0.194000  0.837900  1.0
  C  C2141  1  0.056000  0.103900  0.587900  1.0
  C  C2142  1  0.444000  0.896100  0.087900  1.0
  C  C2143  1  0.646100  0.306000  0.837900  1.0
  C  C2144  1  0.853900  0.694000  0.337900  1.0
  C  C2145  1  0.444000  0.396100  0.912100  1.0
  C  C2146  1  0.056000  0.603900  0.412100  1.0
  C  C2147  1  0.853900  0.194000  0.662100  1.0
  C  C2148  1  0.646100  0.806000  0.162100  1.0
  C  C2149  1  0.944000  0.896100  0.412100  1.0
  C  C2150  1  0.556000  0.103900  0.912100  1.0
  C  C2151  1  0.353900  0.694000  0.162100  1.0
  C  C2152  1  0.146100  0.306000  0.662100  1.0
  C  C2153  1  0.539000  0.569000  0.056000  1.0
  C  C2154  1  0.961000  0.431000  0.556000  1.0
  C  C2155  1  0.181000  0.789000  0.306000  1.0
  C  C2156  1  0.319000  0.211000  0.806000  1.0
  C  C2157  1  0.039000  0.069000  0.556000  1.0
  C  C2158  1  0.461000  0.931000  0.056000  1.0
  C  C2159  1  0.681000  0.289000  0.806000  1.0
  C  C2160  1  0.819000  0.711000  0.306000  1.0
  C  C2161  1  0.461000  0.431000  0.944000  1.0
  C  C2162  1  0.039000  0.569000  0.444000  1.0
  C  C2163  1  0.819000  0.211000  0.694000  1.0
  C  C2164  1  0.681000  0.789000  0.194000  1.0
  C  C2165  1  0.961000  0.931000  0.444000  1.0
  C  C2166  1  0.539000  0.069000  0.944000  1.0
  C  C2167  1  0.319000  0.711000  0.194000  1.0
  C  C2168  1  0.181000  0.289000  0.694000  1.0
  C  C2169  1  0.492000  0.561000  0.048100  1.0
  C  C2170  1  0.008000  0.439000  0.548100  1.0
  C  C2171  1  0.189000  0.742000  0.298100  1.0
  C  C2172  1  0.311000  0.258000  0.798100  1.0
  C  C2173  1  0.992000  0.061000  0.548100  1.0
  C  C2174  1  0.508000  0.939000  0.048100  1.0
  C  C2175  1  0.689000  0.242000  0.798100  1.0
  C  C2176  1  0.811000  0.758000  0.298100  1.0
  C  C2177  1  0.508000  0.439000  0.951900  1.0
  C  C2178  1  0.992000  0.561000  0.451900  1.0
  C  C2179  1  0.811000  0.258000  0.701900  1.0
  C  C2180  1  0.689000  0.742000  0.201900  1.0
  C  C2181  1  0.008000  0.939000  0.451900  1.0
  C  C2182  1  0.492000  0.061000  0.951900  1.0
  C  C2183  1  0.311000  0.758000  0.201900  1.0
  C  C2184  1  0.189000  0.242000  0.701900  1.0
  C  C2185  1  0.452000  0.591000  0.070000  1.0
  C  C2186  1  0.048000  0.409000  0.570000  1.0
  C  C2187  1  0.159000  0.702000  0.320000  1.0
  C  C2188  1  0.341000  0.298000  0.820000  1.0
  C  C2189  1  0.952000  0.091000  0.570000  1.0
  C  C2190  1  0.548000  0.909000  0.070000  1.0
  C  C2191  1  0.659000  0.202000  0.820000  1.0
  C  C2192  1  0.841000  0.798000  0.320000  1.0
  C  C2193  1  0.548000  0.409000  0.930000  1.0
  C  C2194  1  0.952000  0.591000  0.430000  1.0
  C  C2195  1  0.841000  0.298000  0.680000  1.0
  C  C2196  1  0.659000  0.702000  0.180000  1.0
  C  C2197  1  0.048000  0.909000  0.430000  1.0
  C  C2198  1  0.452000  0.091000  0.930000  1.0
  C  C2199  1  0.341000  0.798000  0.180000  1.0
  C  C2200  1  0.159000  0.202000  0.680000  1.0
  C  C2201  1  0.467500  0.631000  0.103100  1.0
  C  C2202  1  0.032500  0.369000  0.603100  1.0
  C  C2203  1  0.119000  0.717500  0.353100  1.0
  C  C2204  1  0.381000  0.282500  0.853100  1.0
  C  C2205  1  0.967500  0.131000  0.603100  1.0
  C  C2206  1  0.532500  0.869000  0.103100  1.0
  C  C2207  1  0.619000  0.217500  0.853100  1.0
  C  C2208  1  0.881000  0.782500  0.353100  1.0
  C  C2209  1  0.532500  0.369000  0.896900  1.0
  C  C2210  1  0.967500  0.631000  0.396900  1.0
  C  C2211  1  0.881000  0.282500  0.646900  1.0
  C  C2212  1  0.619000  0.717500  0.146900  1.0
  C  C2213  1  0.032500  0.869000  0.396900  1.0
  C  C2214  1  0.467500  0.131000  0.896900  1.0
  C  C2215  1  0.381000  0.782500  0.146900  1.0
  C  C2216  1  0.119000  0.217500  0.646900  1.0
  C  C2217  1  0.498000  0.638000  0.061600  1.0
  C  C2218  1  0.002000  0.362000  0.561600  1.0
  C  C2219  1  0.112000  0.748000  0.311600  1.0
  C  C2220  1  0.388000  0.252000  0.811600  1.0
  C  C2221  1  0.998000  0.138000  0.561600  1.0
  C  C2222  1  0.502000  0.862000  0.061600  1.0
  C  C2223  1  0.612000  0.248000  0.811600  1.0
  C  C2224  1  0.888000  0.752000  0.311600  1.0
  C  C2225  1  0.502000  0.362000  0.938400  1.0
  C  C2226  1  0.998000  0.638000  0.438400  1.0
  C  C2227  1  0.888000  0.252000  0.688400  1.0
  C  C2228  1  0.612000  0.748000  0.188400  1.0
  C  C2229  1  0.002000  0.862000  0.438400  1.0
  C  C2230  1  0.498000  0.138000  0.938400  1.0
  C  C2231  1  0.388000  0.752000  0.188400  1.0
  C  C2232  1  0.112000  0.248000  0.688400  1.0
  C  C2233  1  0.498700  0.660500  0.134400  1.0
  C  C2234  1  0.001300  0.339500  0.634400  1.0
  C  C2235  1  0.089500  0.748700  0.384400  1.0
  C  C2236  1  0.410500  0.251300  0.884400  1.0
  C  C2237  1  0.998700  0.160500  0.634400  1.0
  C  C2238  1  0.501300  0.839500  0.134400  1.0
  C  C2239  1  0.589500  0.248700  0.884400  1.0
  C  C2240  1  0.910500  0.751300  0.384400  1.0
  C  C2241  1  0.501300  0.339500  0.865600  1.0
  C  C2242  1  0.998700  0.660500  0.365600  1.0
  C  C2243  1  0.910500  0.251300  0.615600  1.0
  C  C2244  1  0.589500  0.748700  0.115600  1.0
  C  C2245  1  0.001300  0.839500  0.365600  1.0
  C  C2246  1  0.498700  0.160500  0.865600  1.0
  C  C2247  1  0.410500  0.751300  0.115600  1.0
  C  C2248  1  0.089500  0.248700  0.615600  1.0
  C  C2249  1  0.543000  0.669000  0.075800  1.0
  C  C2250  1  0.957000  0.331000  0.575800  1.0
  C  C2251  1  0.081000  0.793000  0.325800  1.0
  C  C2252  1  0.419000  0.207000  0.825800  1.0
  C  C2253  1  0.043000  0.169000  0.575800  1.0
  C  C2254  1  0.457000  0.831000  0.075800  1.0
  C  C2255  1  0.581000  0.293000  0.825800  1.0
  C  C2256  1  0.919000  0.707000  0.325800  1.0
  C  C2257  1  0.457000  0.331000  0.924200  1.0
  C  C2258  1  0.043000  0.669000  0.424200  1.0
  C  C2259  1  0.919000  0.207000  0.674200  1.0
  C  C2260  1  0.581000  0.793000  0.174200  1.0
  C  C2261  1  0.957000  0.831000  0.424200  1.0
  C  C2262  1  0.543000  0.169000  0.924200  1.0
  C  C2263  1  0.419000  0.707000  0.174200  1.0
  C  C2264  1  0.081000  0.293000  0.674200  1.0
  C  C2265  1  0.465000  0.669300  0.115900  1.0
  C  C2266  1  0.035000  0.330700  0.615900  1.0
  C  C2267  1  0.080700  0.715000  0.365900  1.0
  C  C2268  1  0.419300  0.285000  0.865900  1.0
  C  C2269  1  0.965000  0.169300  0.615900  1.0
  C  C2270  1  0.535000  0.830700  0.115900  1.0
  C  C2271  1  0.580700  0.215000  0.865900  1.0
  C  C2272  1  0.919300  0.785000  0.365900  1.0
  C  C2273  1  0.535000  0.330700  0.884100  1.0
  C  C2274  1  0.965000  0.669300  0.384100  1.0
  C  C2275  1  0.919300  0.285000  0.634100  1.0
  C  C2276  1  0.580700  0.715000  0.134100  1.0
  C  C2277  1  0.035000  0.830700  0.384100  1.0
  C  C2278  1  0.465000  0.169300  0.884100  1.0
  C  C2279  1  0.419300  0.785000  0.134100  1.0
  C  C2280  1  0.080700  0.215000  0.634100  1.0
  C  C2281  1  0.446000  0.737000  0.152000  1.0
  C  C2282  1  0.054000  0.263000  0.652000  1.0
  C  C2283  1  0.013000  0.696000  0.402000  1.0
  C  C2284  1  0.487000  0.304000  0.902000  1.0
  C  C2285  1  0.946000  0.237000  0.652000  1.0
  C  C2286  1  0.554000  0.763000  0.152000  1.0
  C  C2287  1  0.513000  0.196000  0.902000  1.0
  C  C2288  1  0.987000  0.804000  0.402000  1.0
  C  C2289  1  0.554000  0.263000  0.848000  1.0
  C  C2290  1  0.946000  0.737000  0.348000  1.0
  C  C2291  1  0.987000  0.304000  0.598000  1.0
  C  C2292  1  0.513000  0.696000  0.098000  1.0
  C  C2293  1  0.054000  0.763000  0.348000  1.0
  C  C2294  1  0.446000  0.237000  0.848000  1.0
  C  C2295  1  0.487000  0.804000  0.098000  1.0
  C  C2296  1  0.013000  0.196000  0.598000  1.0
  C  C2297  1  0.470000  0.748000  0.195000  1.0
  C  C2298  1  0.030000  0.252000  0.695000  1.0
  C  C2299  1  0.002000  0.720000  0.445000  1.0
  C  C2300  1  0.498000  0.280000  0.945000  1.0
  C  C2301  1  0.970000  0.248000  0.695000  1.0
  C  C2302  1  0.530000  0.752000  0.195000  1.0
  C  C2303  1  0.502000  0.220000  0.945000  1.0
  C  C2304  1  0.998000  0.780000  0.445000  1.0
  C  C2305  1  0.530000  0.252000  0.805000  1.0
  C  C2306  1  0.970000  0.748000  0.305000  1.0
  C  C2307  1  0.998000  0.280000  0.555000  1.0
  C  C2308  1  0.502000  0.720000  0.055000  1.0
  C  C2309  1  0.030000  0.752000  0.305000  1.0
  C  C2310  1  0.470000  0.248000  0.805000  1.0
  C  C2311  1  0.498000  0.780000  0.055000  1.0
  C  C2312  1  0.002000  0.220000  0.555000  1.0
  C  C2313  1  0.428000  0.767000  0.226100  1.0
  C  C2314  1  0.072000  0.233000  0.726100  1.0
  C  C2315  1  0.983000  0.678000  0.476100  1.0
  C  C2316  1  0.517000  0.322000  0.976100  1.0
  C  C2317  1  0.928000  0.267000  0.726100  1.0
  C  C2318  1  0.572000  0.733000  0.226100  1.0
  C  C2319  1  0.483000  0.178000  0.976100  1.0
  C  C2320  1  0.017000  0.822000  0.476100  1.0
  C  C2321  1  0.572000  0.233000  0.773900  1.0
  C  C2322  1  0.928000  0.767000  0.273900  1.0
  C  C2323  1  0.017000  0.322000  0.523900  1.0
  C  C2324  1  0.483000  0.678000  0.023900  1.0
  C  C2325  1  0.072000  0.733000  0.273900  1.0
  C  C2326  1  0.428000  0.267000  0.773900  1.0
  C  C2327  1  0.517000  0.822000  0.023900  1.0
  C  C2328  1  0.983000  0.178000  0.523900  1.0
  C  C2329  1  0.596000  0.684000  0.209000  1.0
  C  C2330  1  0.904000  0.316000  0.709000  1.0
  C  C2331  1  0.066000  0.846000  0.459000  1.0
  C  C2332  1  0.434000  0.154000  0.959000  1.0
  C  C2333  1  0.096000  0.184000  0.709000  1.0
  C  C2334  1  0.404000  0.816000  0.209000  1.0
  C  C2335  1  0.566000  0.346000  0.959000  1.0
  C  C2336  1  0.934000  0.654000  0.459000  1.0
  C  C2337  1  0.404000  0.316000  0.791000  1.0
  C  C2338  1  0.096000  0.684000  0.291000  1.0
  C  C2339  1  0.934000  0.154000  0.541000  1.0
  C  C2340  1  0.566000  0.846000  0.041000  1.0
  C  C2341  1  0.904000  0.816000  0.291000  1.0
  C  C2342  1  0.596000  0.184000  0.791000  1.0
  C  C2343  1  0.434000  0.654000  0.041000  1.0
  C  C2344  1  0.066000  0.346000  0.541000  1.0
  C  C2345  1  0.440000  0.633000  0.085000  1.0
  C  C2346  1  0.060000  0.367000  0.585000  1.0
  C  C2347  1  0.117000  0.690000  0.335000  1.0
  C  C2348  1  0.383000  0.310000  0.835000  1.0
  C  C2349  1  0.940000  0.133000  0.585000  1.0
  C  C2350  1  0.560000  0.867000  0.085000  1.0
  C  C2351  1  0.617000  0.190000  0.835000  1.0
  C  C2352  1  0.883000  0.810000  0.335000  1.0
  C  C2353  1  0.560000  0.367000  0.915000  1.0
  C  C2354  1  0.940000  0.633000  0.415000  1.0
  C  C2355  1  0.883000  0.310000  0.665000  1.0
  C  C2356  1  0.617000  0.690000  0.165000  1.0
  C  C2357  1  0.060000  0.867000  0.415000  1.0
  C  C2358  1  0.440000  0.133000  0.915000  1.0
  C  C2359  1  0.383000  0.810000  0.165000  1.0
  C  C2360  1  0.117000  0.190000  0.665000  1.0
  N  N2361  1  0.616900  0.431200  0.020900  1
  N  N2362  1  0.883100  0.568800  0.520900  1
  N  N2363  1  0.318800  0.866900  0.270900  1
  N  N2364  1  0.181200  0.133100  0.770900  1
  N  N2365  1  0.116900  0.931200  0.520900  1
  N  N2366  1  0.383100  0.068800  0.020900  1
  N  N2367  1  0.818800  0.366900  0.770900  1
  N  N2368  1  0.681200  0.633100  0.270900  1
  N  N2369  1  0.383100  0.568800  0.979100  1
  N  N2370  1  0.116900  0.431200  0.479100  1
  N  N2371  1  0.681200  0.133100  0.729100  1
  N  N2372  1  0.818800  0.866900  0.229100  1
  N  N2373  1  0.883100  0.068800  0.479100  1
  N  N2374  1  0.616900  0.931200  0.979100  1
  N  N2375  1  0.181200  0.633100  0.229100  1
  N  N2376  1  0.318800  0.366900  0.729100  1
  N  N2377  1  0.822400  0.521200  0.201100  1
  N  N2378  1  0.677600  0.478800  0.701100  1
  N  N2379  1  0.228800  0.072400  0.451100  1
  N  N2380  1  0.271200  0.927600  0.951100  1
  N  N2381  1  0.322400  0.021200  0.701100  1
  N  N2382  1  0.177600  0.978800  0.201100  1
  N  N2383  1  0.728800  0.572400  0.951100  1
  N  N2384  1  0.771200  0.427600  0.451100  1
  N  N2385  1  0.177600  0.478800  0.798900  1
  N  N2386  1  0.322400  0.521200  0.298900  1
  N  N2387  1  0.771200  0.927600  0.548900  1
  N  N2388  1  0.728800  0.072400  0.048900  1
  N  N2389  1  0.677600  0.978800  0.298900  1
  N  N2390  1  0.822400  0.021200  0.798900  1
  N  N2391  1  0.271200  0.427600  0.048900  1
  N  N2392  1  0.228800  0.572400  0.548900  1
  N  N2393  1  0.519000  0.968000  0.362100  1
  N  N2394  1  0.981000  0.032000  0.862100  1
  N  N2395  1  0.782000  0.769000  0.612100  1
  N  N2396  1  0.718000  0.231000  0.112100  1
  N  N2397  1  0.019000  0.468000  0.862100  1
  N  N2398  1  0.481000  0.532000  0.362100  1
  N  N2399  1  0.282000  0.269000  0.112100  1
  N  N2400  1  0.218000  0.731000  0.612100  1
  N  N2401  1  0.481000  0.032000  0.637900  1
  N  N2402  1  0.019000  0.968000  0.137900  1
  N  N2403  1  0.218000  0.231000  0.387900  1
  N  N2404  1  0.282000  0.769000  0.887900  1
  N  N2405  1  0.981000  0.532000  0.137900  1
  N  N2406  1  0.519000  0.468000  0.637900  1
  N  N2407  1  0.718000  0.731000  0.887900  1
  N  N2408  1  0.782000  0.269000  0.387900  1
  N  N2409  1  0.839400  0.290200  0.990900  1
  N  N2410  1  0.660600  0.709800  0.490900  1
  N  N2411  1  0.459800  0.089400  0.240900  1
  N  N2412  1  0.040200  0.910600  0.740900  1
  N  N2413  1  0.339400  0.790200  0.490900  1
  N  N2414  1  0.160600  0.209800  0.990900  1
  N  N2415  1  0.959800  0.589400  0.740900  1
  N  N2416  1  0.540200  0.410600  0.240900  1
  N  N2417  1  0.160600  0.709800  0.009100  1
  N  N2418  1  0.339400  0.290200  0.509100  1
  N  N2419  1  0.540200  0.910600  0.759100  1
  N  N2420  1  0.959800  0.089400  0.259100  1
  N  N2421  1  0.660600  0.209800  0.509100  1
  N  N2422  1  0.839400  0.790200  0.009100  1
  N  N2423  1  0.040200  0.410600  0.259100  1
  N  N2424  1  0.459800  0.589400  0.759100  1
  N  N2425  1  0.492400  0.698100  0.366100  1.0
  N  N2426  1  0.007600  0.301900  0.866100  1.0
  N  N2427  1  0.051900  0.742400  0.616100  1.0
  N  N2428  1  0.448100  0.257600  0.116100  1.0
  N  N2429  1  0.992400  0.198100  0.866100  1.0
  N  N2430  1  0.507600  0.801900  0.366100  1.0
  N  N2431  1  0.551900  0.242400  0.116100  1.0
  N  N2432  1  0.948100  0.757600  0.616100  1.0
  N  N2433  1  0.507600  0.301900  0.633900  1.0
  N  N2434  1  0.992400  0.698100  0.133900  1.0
  N  N2435  1  0.948100  0.257600  0.383900  1.0
  N  N2436  1  0.551900  0.742400  0.883900  1.0
  N  N2437  1  0.007600  0.801900  0.133900  1.0
  N  N2438  1  0.492400  0.198100  0.633900  1.0
  N  N2439  1  0.448100  0.757600  0.883900  1.0
  N  N2440  1  0.051900  0.242400  0.383900  1.0
  N  N2441  1  0.521400  0.582500  0.242200  1.0
  N  N2442  1  0.978600  0.417500  0.742200  1.0
  N  N2443  1  0.167500  0.771400  0.492200  1.0
  N  N2444  1  0.332500  0.228600  0.992200  1.0
  N  N2445  1  0.021400  0.082500  0.742200  1.0
  N  N2446  1  0.478600  0.917500  0.242200  1.0
  N  N2447  1  0.667500  0.271400  0.992200  1.0
  N  N2448  1  0.832500  0.728600  0.492200  1.0
  N  N2449  1  0.478600  0.417500  0.757800  1.0
  N  N2450  1  0.021400  0.582500  0.257800  1.0
  N  N2451  1  0.832500  0.228600  0.507800  1.0
  N  N2452  1  0.667500  0.771400  0.007800  1.0
  N  N2453  1  0.978600  0.917500  0.257800  1.0
  N  N2454  1  0.521400  0.082500  0.757800  1.0
  N  N2455  1  0.332500  0.728600  0.007800  1.0
  N  N2456  1  0.167500  0.271400  0.507800  1.0
  N  N2457  1  0.470600  0.544200  0.189800  1.0
  N  N2458  1  0.029400  0.455800  0.689800  1.0
  N  N2459  1  0.205800  0.720600  0.439800  1.0
  N  N2460  1  0.294200  0.279400  0.939800  1.0
  N  N2461  1  0.970600  0.044200  0.689800  1.0
  N  N2462  1  0.529400  0.955800  0.189800  1.0
  N  N2463  1  0.705800  0.220600  0.939800  1.0
  N  N2464  1  0.794200  0.779400  0.439800  1.0
  N  N2465  1  0.529400  0.455800  0.810200  1.0
  N  N2466  1  0.970600  0.544200  0.310200  1.0
  N  N2467  1  0.794200  0.279400  0.560200  1.0
  N  N2468  1  0.705800  0.720600  0.060200  1.0
  N  N2469  1  0.029400  0.955800  0.310200  1.0
  N  N2470  1  0.470600  0.044200  0.810200  1.0
  N  N2471  1  0.294200  0.779400  0.060200  1.0
  N  N2472  1  0.205800  0.220600  0.560200  1.0
  N  N2473  1  0.432800  0.594300  0.242900  1.0
  N  N2474  1  0.067200  0.405700  0.742900  1.0
  N  N2475  1  0.155700  0.682800  0.492900  1.0
  N  N2476  1  0.344300  0.317200  0.992900  1.0
  N  N2477  1  0.932800  0.094300  0.742900  1.0
  N  N2478  1  0.567200  0.905700  0.242900  1.0
  N  N2479  1  0.655700  0.182800  0.992900  1.0
  N  N2480  1  0.844300  0.817200  0.492900  1.0
  N  N2481  1  0.567200  0.405700  0.757100  1.0
  N  N2482  1  0.932800  0.594300  0.257100  1.0
  N  N2483  1  0.844300  0.317200  0.507100  1.0
  N  N2484  1  0.655700  0.682800  0.007100  1.0
  N  N2485  1  0.067200  0.905700  0.257100  1.0
  N  N2486  1  0.432800  0.094300  0.757100  1.0
  N  N2487  1  0.344300  0.817200  0.007100  1.0
  N  N2488  1  0.155700  0.182800  0.507100  1.0
  N  N2489  1  0.648600  0.487800  0.153400  1.0
  N  N2490  1  0.851400  0.512200  0.653400  1.0
  N  N2491  1  0.262200  0.898600  0.403400  1.0
  N  N2492  1  0.237800  0.101400  0.903400  1.0
  N  N2493  1  0.148600  0.987800  0.653400  1.0
  N  N2494  1  0.351400  0.012200  0.153400  1.0
  N  N2495  1  0.762200  0.398600  0.903400  1.0
  N  N2496  1  0.737800  0.601400  0.403400  1.0
  N  N2497  1  0.351400  0.512200  0.846600  1.0
  N  N2498  1  0.148600  0.487800  0.346600  1.0
  N  N2499  1  0.737800  0.101400  0.596600  1.0
  N  N2500  1  0.762200  0.898600  0.096600  1.0
  N  N2501  1  0.851400  0.012200  0.346600  1.0
  N  N2502  1  0.648600  0.987800  0.846600  1.0
  N  N2503  1  0.237800  0.601400  0.096600  1.0
  N  N2504  1  0.262200  0.398600  0.596600  1.0
  N  N2505  1  0.283000  0.539200  0.156300  1.0
  N  N2506  1  0.217000  0.460800  0.656300  1.0
  N  N2507  1  0.210800  0.533000  0.406300  1.0
  N  N2508  1  0.289200  0.467000  0.906300  1.0
  N  N2509  1  0.783000  0.039200  0.656300  1.0
  N  N2510  1  0.717000  0.960800  0.156300  1.0
  N  N2511  1  0.710800  0.033000  0.906300  1.0
  N  N2512  1  0.789200  0.967000  0.406300  1.0
  N  N2513  1  0.717000  0.460800  0.843700  1.0
  N  N2514  1  0.783000  0.539200  0.343700  1.0
  N  N2515  1  0.789200  0.467000  0.593700  1.0
  N  N2516  1  0.710800  0.533000  0.093700  1.0
  N  N2517  1  0.217000  0.960800  0.343700  1.0
  N  N2518  1  0.283000  0.039200  0.843700  1.0
  N  N2519  1  0.289200  0.967000  0.093700  1.0
  N  N2520  1  0.210800  0.033000  0.593700  1.0
  N  N2521  1  0.712400  0.392500  0.150900  1.0
  N  N2522  1  0.787600  0.607500  0.650900  1.0
  N  N2523  1  0.357500  0.962400  0.400900  1.0
  N  N2524  1  0.142500  0.037600  0.900900  1.0
  N  N2525  1  0.212400  0.892500  0.650900  1.0
  N  N2526  1  0.287600  0.107500  0.150900  1.0
  N  N2527  1  0.857500  0.462400  0.900900  1.0
  N  N2528  1  0.642500  0.537600  0.400900  1.0
  N  N2529  1  0.287600  0.607500  0.849100  1.0
  N  N2530  1  0.212400  0.392500  0.349100  1.0
  N  N2531  1  0.642500  0.037600  0.599100  1.0
  N  N2532  1  0.857500  0.962400  0.099100  1.0
  N  N2533  1  0.787600  0.107500  0.349100  1.0
  N  N2534  1  0.712400  0.892500  0.849100  1.0
  N  N2535  1  0.142500  0.537600  0.099100  1.0
  N  N2536  1  0.357500  0.462400  0.599100  1.0
  N  N2537  1  0.777100  0.439300  0.091900  1.0
  N  N2538  1  0.722900  0.560700  0.591900  1.0
  N  N2539  1  0.310700  0.027100  0.341900  1.0
  N  N2540  1  0.189300  0.972900  0.841900  1.0
  N  N2541  1  0.277100  0.939300  0.591900  1.0
  N  N2542  1  0.222900  0.060700  0.091900  1.0
  N  N2543  1  0.810700  0.527100  0.841900  1.0
  N  N2544  1  0.689300  0.472900  0.341900  1.0
  N  N2545  1  0.222900  0.560700  0.908100  1.0
  N  N2546  1  0.277100  0.439300  0.408100  1.0
  N  N2547  1  0.689300  0.972900  0.658100  1.0
  N  N2548  1  0.810700  0.027100  0.158100  1.0
  N  N2549  1  0.722900  0.060700  0.408100  1.0
  N  N2550  1  0.777100  0.939300  0.908100  1.0
  N  N2551  1  0.189300  0.472900  0.158100  1.0
  N  N2552  1  0.310700  0.527100  0.658100  1.0
  N  N2553  1  0.508400  0.802900  0.461500  1.0
  N  N2554  1  0.991600  0.197100  0.961500  1.0
  N  N2555  1  0.947100  0.758400  0.711500  1.0
  N  N2556  1  0.552900  0.241600  0.211500  1.0
  N  N2557  1  0.008400  0.302900  0.961500  1.0
  N  N2558  1  0.491600  0.697100  0.461500  1.0
  N  N2559  1  0.447100  0.258400  0.211500  1.0
  N  N2560  1  0.052900  0.741600  0.711500  1.0
  N  N2561  1  0.491600  0.197100  0.538500  1.0
  N  N2562  1  0.008400  0.802900  0.038500  1.0
  N  N2563  1  0.052900  0.241600  0.288500  1.0
  N  N2564  1  0.447100  0.758400  0.788500  1.0
  N  N2565  1  0.991600  0.697100  0.038500  1.0
  N  N2566  1  0.508400  0.302900  0.538500  1.0
  N  N2567  1  0.552900  0.741600  0.788500  1.0
  N  N2568  1  0.947100  0.258400  0.288500  1.0
  N  N2569  1  0.542700  0.679700  0.117900  1.0
  N  N2570  1  0.957300  0.320300  0.617900  1.0
  N  N2571  1  0.070300  0.792700  0.367900  1.0
  N  N2572  1  0.429700  0.207300  0.867900  1.0
  N  N2573  1  0.042700  0.179700  0.617900  1.0
  N  N2574  1  0.457300  0.820300  0.117900  1.0
  N  N2575  1  0.570300  0.292700  0.867900  1.0
  N  N2576  1  0.929700  0.707300  0.367900  1.0
  N  N2577  1  0.457300  0.320300  0.882100  1.0
  N  N2578  1  0.042700  0.679700  0.382100  1.0
  N  N2579  1  0.929700  0.207300  0.632100  1.0
  N  N2580  1  0.570300  0.792700  0.132100  1.0
  N  N2581  1  0.957300  0.820300  0.382100  1.0
  N  N2582  1  0.542700  0.179700  0.882100  1.0
  N  N2583  1  0.429700  0.707300  0.132100  1.0
  N  N2584  1  0.070300  0.292700  0.632100  1.0
  O  O2585  1  0.635800  0.411300  0.042900  1
  O  O2586  1  0.864200  0.588700  0.542900  1
  O  O2587  1  0.338700  0.885800  0.292900  1
  O  O2588  1  0.161300  0.114200  0.792900  1
  O  O2589  1  0.135800  0.911300  0.542900  1
  O  O2590  1  0.364200  0.088700  0.042900  1
  O  O2591  1  0.838700  0.385800  0.792900  1
  O  O2592  1  0.661300  0.614200  0.292900  1
  O  O2593  1  0.364200  0.588700  0.957100  1
  O  O2594  1  0.135800  0.411300  0.457100  1
  O  O2595  1  0.661300  0.114200  0.707100  1
  O  O2596  1  0.838700  0.885800  0.207100  1
  O  O2597  1  0.864200  0.088700  0.457100  1
  O  O2598  1  0.635800  0.911300  0.957100  1
  O  O2599  1  0.161300  0.614200  0.207100  1
  O  O2600  1  0.338700  0.385800  0.707100  1
  O  O2601  1  0.639600  0.452700  0.987000  1
  O  O2602  1  0.860400  0.547300  0.487000  1
  O  O2603  1  0.297300  0.889600  0.237000  1
  O  O2604  1  0.202700  0.110400  0.737000  1
  O  O2605  1  0.139600  0.952700  0.487000  1
  O  O2606  1  0.360400  0.047300  0.987000  1
  O  O2607  1  0.797300  0.389600  0.737000  1
  O  O2608  1  0.702700  0.610400  0.237000  1
  O  O2609  1  0.360400  0.547300  0.013000  1
  O  O2610  1  0.139600  0.452700  0.513000  1
  O  O2611  1  0.702700  0.110400  0.763000  1
  O  O2612  1  0.797300  0.889600  0.263000  1
  O  O2613  1  0.860400  0.047300  0.513000  1
  O  O2614  1  0.639600  0.952700  0.013000  1
  O  O2615  1  0.202700  0.610400  0.263000  1
  O  O2616  1  0.297300  0.389600  0.763000  1
  O  O2617  1  0.576400  0.461100  0.024000  1
  O  O2618  1  0.923600  0.538900  0.524000  1
  O  O2619  1  0.288900  0.826400  0.274000  1
  O  O2620  1  0.211100  0.173600  0.774000  1
  O  O2621  1  0.076400  0.961100  0.524000  1
  O  O2622  1  0.423600  0.038900  0.024000  1
  O  O2623  1  0.788900  0.326400  0.774000  1
  O  O2624  1  0.711100  0.673600  0.274000  1
  O  O2625  1  0.423600  0.538900  0.976000  1
  O  O2626  1  0.076400  0.461100  0.476000  1
  O  O2627  1  0.711100  0.173600  0.726000  1
  O  O2628  1  0.788900  0.826400  0.226000  1
  O  O2629  1  0.923600  0.038900  0.476000  1
  O  O2630  1  0.576400  0.961100  0.976000  1
  O  O2631  1  0.211100  0.673600  0.226000  1
  O  O2632  1  0.288900  0.326400  0.726000  1
  O  O2633  1  0.776700  0.510200  0.204200  1
  O  O2634  1  0.723300  0.489800  0.704200  1
  O  O2635  1  0.239800  0.026700  0.454200  1
  O  O2636  1  0.260200  0.973300  0.954200  1
  O  O2637  1  0.276700  0.010200  0.704200  1
  O  O2638  1  0.223300  0.989800  0.204200  1
  O  O2639  1  0.739800  0.526700  0.954200  1
  O  O2640  1  0.760200  0.473300  0.454200  1
  O  O2641  1  0.223300  0.489800  0.795800  1
  O  O2642  1  0.276700  0.510200  0.295800  1
  O  O2643  1  0.760200  0.973300  0.545800  1
  O  O2644  1  0.739800  0.026700  0.045800  1
  O  O2645  1  0.723300  0.989800  0.295800  1
  O  O2646  1  0.776700  0.010200  0.795800  1
  O  O2647  1  0.260200  0.473300  0.045800  1
  O  O2648  1  0.239800  0.526700  0.545800  1
  O  O2649  1  0.854500  0.485500  0.212800  1
  O  O2650  1  0.645500  0.514500  0.712800  1
  O  O2651  1  0.264500  0.104500  0.462800  1
  O  O2652  1  0.235500  0.895500  0.962800  1
  O  O2653  1  0.354500  0.985500  0.712800  1
  O  O2654  1  0.145500  0.014500  0.212800  1
  O  O2655  1  0.764500  0.604500  0.962800  1
  O  O2656  1  0.735500  0.395500  0.462800  1
  O  O2657  1  0.145500  0.514500  0.787200  1
  O  O2658  1  0.354500  0.485500  0.287200  1
  O  O2659  1  0.735500  0.895500  0.537200  1
  O  O2660  1  0.764500  0.104500  0.037200  1
  O  O2661  1  0.645500  0.014500  0.287200  1
  O  O2662  1  0.854500  0.985500  0.787200  1
  O  O2663  1  0.235500  0.395500  0.037200  1
  O  O2664  1  0.264500  0.604500  0.537200  1
  O  O2665  1  0.837400  0.564600  0.178500  1
  O  O2666  1  0.662600  0.435400  0.678500  1
  O  O2667  1  0.185400  0.087400  0.428500  1
  O  O2668  1  0.314600  0.912600  0.928500  1
  O  O2669  1  0.337400  0.064600  0.678500  1
  O  O2670  1  0.162600  0.935400  0.178500  1
  O  O2671  1  0.685400  0.587400  0.928500  1
  O  O2672  1  0.814600  0.412600  0.428500  1
  O  O2673  1  0.162600  0.435400  0.821500  1
  O  O2674  1  0.337400  0.564600  0.321500  1
  O  O2675  1  0.814600  0.912600  0.571500  1
  O  O2676  1  0.685400  0.087400  0.071500  1
  O  O2677  1  0.662600  0.935400  0.321500  1
  O  O2678  1  0.837400  0.064600  0.821500  1
  O  O2679  1  0.314600  0.412600  0.071500  1
  O  O2680  1  0.185400  0.587400  0.571500  1
  O  O2681  1  0.793400  0.300000  0.033100  1
  O  O2682  1  0.706600  0.700000  0.533100  1
  O  O2683  1  0.450000  0.043400  0.283100  1
  O  O2684  1  0.050000  0.956600  0.783100  1
  O  O2685  1  0.293400  0.800000  0.533100  1
  O  O2686  1  0.206600  0.200000  0.033100  1
  O  O2687  1  0.950000  0.543400  0.783100  1
  O  O2688  1  0.550000  0.456600  0.283100  1
  O  O2689  1  0.206600  0.700000  0.966900  1
  O  O2690  1  0.293400  0.300000  0.466900  1
  O  O2691  1  0.550000  0.956600  0.716900  1
  O  O2692  1  0.950000  0.043400  0.216900  1
  O  O2693  1  0.706600  0.200000  0.466900  1
  O  O2694  1  0.793400  0.800000  0.966900  1
  O  O2695  1  0.050000  0.456600  0.216900  1
  O  O2696  1  0.450000  0.543400  0.716900  1
  O  O2697  1  0.876800  0.337200  0.039400  1
  O  O2698  1  0.623200  0.662800  0.539400  1
  O  O2699  1  0.412800  0.126800  0.289400  1
  O  O2700  1  0.087200  0.873200  0.789400  1
  O  O2701  1  0.376800  0.837200  0.539400  1
  O  O2702  1  0.123200  0.162800  0.039400  1
  O  O2703  1  0.912800  0.626800  0.789400  1
  O  O2704  1  0.587200  0.373200  0.289400  1
  O  O2705  1  0.123200  0.662800  0.960600  1
  O  O2706  1  0.376800  0.337200  0.460600  1
  O  O2707  1  0.587200  0.873200  0.710600  1
  O  O2708  1  0.912800  0.126800  0.210600  1
  O  O2709  1  0.623200  0.162800  0.460600  1
  O  O2710  1  0.876800  0.837200  0.960600  1
  O  O2711  1  0.087200  0.373200  0.210600  1
  O  O2712  1  0.412800  0.626800  0.710600  1
  O  O2713  1  0.936400  0.424100  0.051300  1
  O  O2714  1  0.563600  0.575900  0.551300  1
  O  O2715  1  0.325900  0.186400  0.301300  1
  O  O2716  1  0.174100  0.813600  0.801300  1
  O  O2717  1  0.436400  0.924100  0.551300  1
  O  O2718  1  0.063600  0.075900  0.051300  1
  O  O2719  1  0.825900  0.686400  0.801300  1
  O  O2720  1  0.674100  0.313600  0.301300  1
  O  O2721  1  0.063600  0.575900  0.948700  1
  O  O2722  1  0.436400  0.424100  0.448700  1
  O  O2723  1  0.674100  0.813600  0.698700  1
  O  O2724  1  0.825900  0.186400  0.198700  1
  O  O2725  1  0.563600  0.075900  0.448700  1
  O  O2726  1  0.936400  0.924100  0.948700  1
  O  O2727  1  0.174100  0.313600  0.198700  1
  O  O2728  1  0.325900  0.686400  0.698700  1
  O  O2729  1  0.553000  0.929600  0.390600  1
  O  O2730  1  0.947000  0.070400  0.890600  1
  O  O2731  1  0.820400  0.803000  0.640600  1
  O  O2732  1  0.679600  0.197000  0.140600  1
  O  O2733  1  0.053000  0.429600  0.890600  1
  O  O2734  1  0.447000  0.570400  0.390600  1
  O  O2735  1  0.320400  0.303000  0.140600  1
  O  O2736  1  0.179600  0.697000  0.640600  1
  O  O2737  1  0.447000  0.070400  0.609400  1
  O  O2738  1  0.053000  0.929600  0.109400  1
  O  O2739  1  0.179600  0.197000  0.359400  1
  O  O2740  1  0.320400  0.803000  0.859400  1
  O  O2741  1  0.947000  0.570400  0.109400  1
  O  O2742  1  0.553000  0.429600  0.609400  1
  O  O2743  1  0.679600  0.697000  0.859400  1
  O  O2744  1  0.820400  0.303000  0.359400  1
  O  O2745  1  0.571900  0.970500  0.349400  1
  O  O2746  1  0.928100  0.029500  0.849400  1
  O  O2747  1  0.779500  0.821900  0.599400  1
  O  O2748  1  0.720500  0.178100  0.099400  1
  O  O2749  1  0.071900  0.470500  0.849400  1
  O  O2750  1  0.428100  0.529500  0.349400  1
  O  O2751  1  0.279500  0.321900  0.099400  1
  O  O2752  1  0.220500  0.678100  0.599400  1
  O  O2753  1  0.428100  0.029500  0.650600  1
  O  O2754  1  0.071900  0.970500  0.150600  1
  O  O2755  1  0.220500  0.178100  0.400600  1
  O  O2756  1  0.279500  0.821900  0.900600  1
  O  O2757  1  0.928100  0.529500  0.150600  1
  O  O2758  1  0.571900  0.470500  0.650600  1
  O  O2759  1  0.720500  0.678100  0.900600  1
  O  O2760  1  0.779500  0.321900  0.400600  1
  O  O2761  1  0.490400  0.991600  0.343700  1
  O  O2762  1  0.009600  0.008400  0.843700  1
  O  O2763  1  0.758400  0.740400  0.593700  1
  O  O2764  1  0.741600  0.259600  0.093700  1
  O  O2765  1  0.990400  0.491600  0.843700  1
  O  O2766  1  0.509600  0.508400  0.343700  1
  O  O2767  1  0.258400  0.240400  0.093700  1
  O  O2768  1  0.241600  0.759600  0.593700  1
  O  O2769  1  0.509600  0.008400  0.656300  1
  O  O2770  1  0.990400  0.991600  0.156300  1
  O  O2771  1  0.241600  0.259600  0.406300  1
  O  O2772  1  0.258400  0.740400  0.906300  1
  O  O2773  1  0.009600  0.508400  0.156300  1
  O  O2774  1  0.490400  0.491600  0.656300  1
  O  O2775  1  0.741600  0.759600  0.906300  1
  O  O2776  1  0.758400  0.240400  0.406300  1
  O  O2777  1  0.003200  0.337900  0.167600  1
  O  O2778  1  0.496800  0.662100  0.667600  1
  O  O2779  1  0.412100  0.253200  0.417600  1
  O  O2780  1  0.087900  0.746800  0.917600  1
  O  O2781  1  0.503200  0.837900  0.667600  1
  O  O2782  1  0.996800  0.162100  0.167600  1
  O  O2783  1  0.912100  0.753200  0.917600  1
  O  O2784  1  0.587900  0.246800  0.417600  1
  O  O2785  1  0.996800  0.662100  0.832400  1
  O  O2786  1  0.503200  0.337900  0.332400  1
  O  O2787  1  0.587900  0.746800  0.582400  1
  O  O2788  1  0.912100  0.253200  0.082400  1
  O  O2789  1  0.496800  0.162100  0.332400  1
  O  O2790  1  0.003200  0.837900  0.832400  1
  O  O2791  1  0.087900  0.246800  0.082400  1
  O  O2792  1  0.412100  0.753200  0.582400  1
  O  O2793  1  0.825300  0.570400  0.038900  1
  O  O2794  1  0.674700  0.429600  0.538900  1
  O  O2795  1  0.179600  0.075300  0.288900  1
  O  O2796  1  0.320400  0.924700  0.788900  1
  O  O2797  1  0.325300  0.070400  0.538900  1
  O  O2798  1  0.174700  0.929600  0.038900  1
  O  O2799  1  0.679600  0.575300  0.788900  1
  O  O2800  1  0.820400  0.424700  0.288900  1
  O  O2801  1  0.174700  0.429600  0.961100  1
  O  O2802  1  0.325300  0.570400  0.461100  1
  O  O2803  1  0.820400  0.924700  0.711100  1
  O  O2804  1  0.679600  0.075300  0.211100  1
  O  O2805  1  0.674700  0.929600  0.461100  1
  O  O2806  1  0.825300  0.070400  0.961100  1
  O  O2807  1  0.320400  0.424700  0.211100  1
  O  O2808  1  0.179600  0.575300  0.711100  1
  O  O2809  1  0.500000  0.750000  0.625000  1
  O  O2810  1  0.000000  0.250000  0.125000  1
  O  O2811  1  0.000000  0.750000  0.875000  1
  O  O2812  1  0.500000  0.250000  0.375000  1
  O  O2813  1  0.625700  0.725000  0.405700  1
  O  O2814  1  0.874300  0.275000  0.905700  1
  O  O2815  1  0.025000  0.875700  0.655700  1
  O  O2816  1  0.475000  0.124300  0.155700  1
  O  O2817  1  0.125700  0.225000  0.905700  1
  O  O2818  1  0.374300  0.775000  0.405700  1
  O  O2819  1  0.525000  0.375700  0.155700  1
  O  O2820  1  0.975000  0.624300  0.655700  1
  O  O2821  1  0.374300  0.275000  0.594300  1
  O  O2822  1  0.125700  0.725000  0.094300  1
  O  O2823  1  0.975000  0.124300  0.344300  1
  O  O2824  1  0.525000  0.875700  0.844300  1
  O  O2825  1  0.874300  0.775000  0.094300  1
  O  O2826  1  0.625700  0.225000  0.594300  1
  O  O2827  1  0.475000  0.624300  0.844300  1
  O  O2828  1  0.025000  0.375700  0.344300  1
  O  O2829  1  0.499700  0.423000  0.079800  1
  O  O2830  1  0.000300  0.577000  0.579800  1
  O  O2831  1  0.327000  0.749700  0.329800  1
  O  O2832  1  0.173000  0.250300  0.829800  1
  O  O2833  1  0.999700  0.923000  0.579800  1
  O  O2834  1  0.500300  0.077000  0.079800  1
  O  O2835  1  0.827000  0.249700  0.829800  1
  O  O2836  1  0.673000  0.750300  0.329800  1
  O  O2837  1  0.500300  0.577000  0.920200  1
  O  O2838  1  0.999700  0.423000  0.420200  1
  O  O2839  1  0.673000  0.250300  0.670200  1
  O  O2840  1  0.827000  0.749700  0.170200  1
  O  O2841  1  0.000300  0.077000  0.420200  1
  O  O2842  1  0.499700  0.923000  0.920200  1
  O  O2843  1  0.173000  0.750300  0.170200  1
  O  O2844  1  0.327000  0.249700  0.670200  1
  O  O2845  1  0.922900  0.529100  0.034800  1
  O  O2846  1  0.577100  0.470900  0.534800  1
  O  O2847  1  0.220900  0.172900  0.284800  1
  O  O2848  1  0.279100  0.827100  0.784800  1
  O  O2849  1  0.422900  0.029100  0.534800  1
  O  O2850  1  0.077100  0.970900  0.034800  1
  O  O2851  1  0.720900  0.672900  0.784800  1
  O  O2852  1  0.779100  0.327100  0.284800  1
  O  O2853  1  0.077100  0.470900  0.965200  1
  O  O2854  1  0.422900  0.529100  0.465200  1
  O  O2855  1  0.779100  0.827100  0.715200  1
  O  O2856  1  0.720900  0.172900  0.215200  1
  O  O2857  1  0.577100  0.970900  0.465200  1
  O  O2858  1  0.922900  0.029100  0.965200  1
  O  O2859  1  0.279100  0.327100  0.215200  1
  O  O2860  1  0.220900  0.672900  0.715200  1
  O  O2861  1  0.885900  0.344700  0.177400  1
  O  O2862  1  0.614100  0.655300  0.677400  1
  O  O2863  1  0.405300  0.135900  0.427400  1
  O  O2864  1  0.094700  0.864100  0.927400  1
  O  O2865  1  0.385900  0.844700  0.677400  1
  O  O2866  1  0.114100  0.155300  0.177400  1
  O  O2867  1  0.905300  0.635900  0.927400  1
  O  O2868  1  0.594700  0.364100  0.427400  1
  O  O2869  1  0.114100  0.655300  0.822600  1
  O  O2870  1  0.385900  0.344700  0.322600  1
  O  O2871  1  0.594700  0.864100  0.572600  1
  O  O2872  1  0.905300  0.135900  0.072600  1
  O  O2873  1  0.614100  0.155300  0.322600  1
  O  O2874  1  0.885900  0.844700  0.822600  1
  O  O2875  1  0.094700  0.364100  0.072600  1
  O  O2876  1  0.405300  0.635900  0.572600  1
  O  O2877  1  0.815500  0.291400  0.215100  1
  O  O2878  1  0.684500  0.708600  0.715100  1
  O  O2879  1  0.458600  0.065500  0.465100  1
  O  O2880  1  0.041400  0.934500  0.965100  1
  O  O2881  1  0.315500  0.791400  0.715100  1
  O  O2882  1  0.184500  0.208600  0.215100  1
  O  O2883  1  0.958600  0.565500  0.965100  1
  O  O2884  1  0.541400  0.434500  0.465100  1
  O  O2885  1  0.184500  0.708600  0.784900  1
  O  O2886  1  0.315500  0.291400  0.284900  1
  O  O2887  1  0.541400  0.934500  0.534900  1
  O  O2888  1  0.958600  0.065500  0.034900  1
  O  O2889  1  0.684500  0.208600  0.284900  1
  O  O2890  1  0.815500  0.791400  0.784900  1
  O  O2891  1  0.041400  0.434500  0.034900  1
  O  O2892  1  0.458600  0.565500  0.534900  1
  O  O2893  1  0.952500  0.409000  0.140000  1
  O  O2894  1  0.547500  0.591000  0.640000  1
  O  O2895  1  0.341000  0.202500  0.390000  1
  O  O2896  1  0.159000  0.797500  0.890000  1
  O  O2897  1  0.452500  0.909000  0.640000  1
  O  O2898  1  0.047500  0.091000  0.140000  1
  O  O2899  1  0.841000  0.702500  0.890000  1
  O  O2900  1  0.659000  0.297500  0.390000  1
  O  O2901  1  0.047500  0.591000  0.860000  1
  O  O2902  1  0.452500  0.409000  0.360000  1
  O  O2903  1  0.659000  0.797500  0.610000  1
  O  O2904  1  0.841000  0.202500  0.110000  1
  O  O2905  1  0.547500  0.091000  0.360000  1
  O  O2906  1  0.952500  0.909000  0.860000  1
  O  O2907  1  0.159000  0.297500  0.110000  1
  O  O2908  1  0.341000  0.702500  0.610000  1
  O  O2909  1  0.794000  0.649400  0.194300  1
  O  O2910  1  0.706000  0.350600  0.694300  1
  O  O2911  1  0.100600  0.044000  0.444300  1
  O  O2912  1  0.399400  0.956000  0.944300  1
  O  O2913  1  0.294000  0.149400  0.694300  1
  O  O2914  1  0.206000  0.850600  0.194300  1
  O  O2915  1  0.600600  0.544000  0.944300  1
  O  O2916  1  0.899400  0.456000  0.444300  1
  O  O2917  1  0.206000  0.350600  0.805700  1
  O  O2918  1  0.294000  0.649400  0.305700  1
  O  O2919  1  0.899400  0.956000  0.555700  1
  O  O2920  1  0.600600  0.044000  0.055700  1
  O  O2921  1  0.706000  0.850600  0.305700  1
  O  O2922  1  0.794000  0.149400  0.805700  1
  O  O2923  1  0.399400  0.456000  0.055700  1
  O  O2924  1  0.100600  0.544000  0.555700  1
  O  O2925  1  0.637500  0.893400  0.391700  1
  O  O2926  1  0.862500  0.106600  0.891700  1
  O  O2927  1  0.856600  0.887500  0.641700  1
  O  O2928  1  0.643400  0.112500  0.141700  1
  O  O2929  1  0.137500  0.393400  0.891700  1
  O  O2930  1  0.362500  0.606600  0.391700  1
  O  O2931  1  0.356600  0.387500  0.141700  1
  O  O2932  1  0.143400  0.612500  0.641700  1
  O  O2933  1  0.362500  0.106600  0.608300  1
  O  O2934  1  0.137500  0.893400  0.108300  1
  O  O2935  1  0.143400  0.112500  0.358300  1
  O  O2936  1  0.356600  0.887500  0.858300  1
  O  O2937  1  0.862500  0.606600  0.108300  1
  O  O2938  1  0.637500  0.393400  0.608300  1
  O  O2939  1  0.643400  0.612500  0.858300  1
  O  O2940  1  0.856600  0.387500  0.358300  1
  O  O2941  1  0.010000  0.411000  0.094800  1
  O  O2942  1  0.490000  0.589000  0.594800  1
  O  O2943  1  0.339000  0.260000  0.344800  1
  O  O2944  1  0.161000  0.740000  0.844800  1
  O  O2945  1  0.510000  0.911000  0.594800  1
  O  O2946  1  0.990000  0.089000  0.094800  1
  O  O2947  1  0.839000  0.760000  0.844800  1
  O  O2948  1  0.661000  0.240000  0.344800  1
  O  O2949  1  0.990000  0.589000  0.905200  1
  O  O2950  1  0.510000  0.411000  0.405200  1
  O  O2951  1  0.661000  0.740000  0.655200  1
  O  O2952  1  0.839000  0.260000  0.155200  1
  O  O2953  1  0.490000  0.089000  0.405200  1
  O  O2954  1  0.010000  0.911000  0.905200  1
  O  O2955  1  0.161000  0.240000  0.155200  1
  O  O2956  1  0.339000  0.760000  0.655200  1
  O  O2957  1  0.577000  0.402300  0.055400  1
  O  O2958  1  0.923000  0.597700  0.555400  1
  O  O2959  1  0.347700  0.827000  0.305400  1
  O  O2960  1  0.152300  0.173000  0.805400  1
  O  O2961  1  0.077000  0.902300  0.555400  1
  O  O2962  1  0.423000  0.097700  0.055400  1
  O  O2963  1  0.847700  0.327000  0.805400  1
  O  O2964  1  0.652300  0.673000  0.305400  1
  O  O2965  1  0.423000  0.597700  0.944600  1
  O  O2966  1  0.077000  0.402300  0.444600  1
  O  O2967  1  0.652300  0.173000  0.694600  1
  O  O2968  1  0.847700  0.827000  0.194600  1
  O  O2969  1  0.923000  0.097700  0.444600  1
  O  O2970  1  0.577000  0.902300  0.944600  1
  O  O2971  1  0.152300  0.673000  0.194600  1
  O  O2972  1  0.347700  0.327000  0.694600  1
  O  O2973  1  0.842500  0.337100  0.977500  1
  O  O2974  1  0.657500  0.662900  0.477500  1
  O  O2975  1  0.412900  0.092500  0.227500  1
  O  O2976  1  0.087100  0.907500  0.727500  1
  O  O2977  1  0.342500  0.837100  0.477500  1
  O  O2978  1  0.157500  0.162900  0.977500  1
  O  O2979  1  0.912900  0.592500  0.727500  1
  O  O2980  1  0.587100  0.407500  0.227500  1
  O  O2981  1  0.157500  0.662900  0.022500  1
  O  O2982  1  0.342500  0.337100  0.522500  1
  O  O2983  1  0.587100  0.907500  0.772500  1
  O  O2984  1  0.912900  0.092500  0.272500  1
  O  O2985  1  0.657500  0.162900  0.522500  1
  O  O2986  1  0.842500  0.837100  0.022500  1
  O  O2987  1  0.087100  0.407500  0.272500  1
  O  O2988  1  0.412900  0.592500  0.772500  1
  O  O2989  1  0.810600  0.254600  0.981900  1
  O  O2990  1  0.689400  0.745400  0.481900  1
  O  O2991  1  0.495400  0.060600  0.231900  1
  O  O2992  1  0.004600  0.939400  0.731900  1
  O  O2993  1  0.310600  0.754600  0.481900  1
  O  O2994  1  0.189400  0.245400  0.981900  1
  O  O2995  1  0.995400  0.560600  0.731900  1
  O  O2996  1  0.504600  0.439400  0.231900  1
  O  O2997  1  0.189400  0.745400  0.018100  1
  O  O2998  1  0.310600  0.254600  0.518100  1
  O  O2999  1  0.504600  0.939400  0.768100  1
  O  O3000  1  0.995400  0.060600  0.268100  1
  O  O3001  1  0.689400  0.245400  0.518100  1
  O  O3002  1  0.810600  0.754600  0.018100  1
  O  O3003  1  0.004600  0.439400  0.268100  1
  O  O3004  1  0.495400  0.560600  0.768100  1
  O  O3005  1  0.523300  0.940900  0.394100  1
  O  O3006  1  0.976700  0.059100  0.894100  1
  O  O3007  1  0.809100  0.773300  0.644100  1
  O  O3008  1  0.690900  0.226700  0.144100  1
  O  O3009  1  0.023300  0.440900  0.894100  1
  O  O3010  1  0.476700  0.559100  0.394100  1
  O  O3011  1  0.309100  0.273300  0.144100  1
  O  O3012  1  0.190900  0.726700  0.644100  1
  O  O3013  1  0.476700  0.059100  0.605900  1
  O  O3014  1  0.023300  0.940900  0.105900  1
  O  O3015  1  0.190900  0.226700  0.355900  1
  O  O3016  1  0.309100  0.773300  0.855900  1
  O  O3017  1  0.976700  0.559100  0.105900  1
  O  O3018  1  0.523300  0.440900  0.605900  1
  O  O3019  1  0.690900  0.726700  0.855900  1
  O  O3020  1  0.809100  0.273300  0.355900  1
  O  O3021  1  0.542800  0.997600  0.318300  1
  O  O3022  1  0.957200  0.002400  0.818300  1
  O  O3023  1  0.752400  0.792800  0.568300  1
  O  O3024  1  0.747600  0.207200  0.068300  1
  O  O3025  1  0.042800  0.497600  0.818300  1
  O  O3026  1  0.457200  0.502400  0.318300  1
  O  O3027  1  0.252400  0.292800  0.068300  1
  O  O3028  1  0.247600  0.707200  0.568300  1
  O  O3029  1  0.457200  0.002400  0.681700  1
  O  O3030  1  0.042800  0.997600  0.181700  1
  O  O3031  1  0.247600  0.207200  0.431700  1
  O  O3032  1  0.252400  0.792800  0.931700  1
  O  O3033  1  0.957200  0.502400  0.181700  1
  O  O3034  1  0.542800  0.497600  0.681700  1
  O  O3035  1  0.747600  0.707200  0.931700  1
  O  O3036  1  0.752400  0.292800  0.431700  1
  O  O3037  1  0.900400  0.371300  0.046600  1
  O  O3038  1  0.599600  0.628700  0.546600  1
  O  O3039  1  0.378700  0.150400  0.296600  1
  O  O3040  1  0.121300  0.849600  0.796600  1
  O  O3041  1  0.400400  0.871300  0.546600  1
  O  O3042  1  0.099600  0.128700  0.046600  1
  O  O3043  1  0.878700  0.650400  0.796600  1
  O  O3044  1  0.621300  0.349600  0.296600  1
  O  O3045  1  0.099600  0.628700  0.953400  1
  O  O3046  1  0.400400  0.371300  0.453400  1
  O  O3047  1  0.621300  0.849600  0.703400  1
  O  O3048  1  0.878700  0.150400  0.203400  1
  O  O3049  1  0.599600  0.128700  0.453400  1
  O  O3050  1  0.900400  0.871300  0.953400  1
  O  O3051  1  0.121300  0.349600  0.203400  1
  O  O3052  1  0.378700  0.650400  0.703400  1
  O  O3053  1  0.539400  0.027400  0.276200  1
  O  O3054  1  0.960600  0.972600  0.776200  1
  O  O3055  1  0.722600  0.789400  0.526200  1
  O  O3056  1  0.777400  0.210600  0.026200  1
  O  O3057  1  0.039400  0.527400  0.776200  1
  O  O3058  1  0.460600  0.472600  0.276200  1
  O  O3059  1  0.222600  0.289400  0.026200  1
  O  O3060  1  0.277400  0.710600  0.526200  1
  O  O3061  1  0.460600  0.972600  0.723800  1
  O  O3062  1  0.039400  0.027400  0.223800  1
  O  O3063  1  0.277400  0.210600  0.473800  1
  O  O3064  1  0.222600  0.789400  0.973800  1
  O  O3065  1  0.960600  0.472600  0.223800  1
  O  O3066  1  0.539400  0.527400  0.723800  1
  O  O3067  1  0.777400  0.710600  0.973800  1
  O  O3068  1  0.722600  0.289400  0.473800  1
  O  O3069  1  0.037000  0.343000  0.150200  1
  O  O3070  1  0.463000  0.657000  0.650200  1
  O  O3071  1  0.407000  0.287000  0.400200  1
  O  O3072  1  0.093000  0.713000  0.900200  1
  O  O3073  1  0.537000  0.843000  0.650200  1
  O  O3074  1  0.963000  0.157000  0.150200  1
  O  O3075  1  0.907000  0.787000  0.900200  1
  O  O3076  1  0.593000  0.213000  0.400200  1
  O  O3077  1  0.963000  0.657000  0.849800  1
  O  O3078  1  0.537000  0.343000  0.349800  1
  O  O3079  1  0.593000  0.713000  0.599800  1
  O  O3080  1  0.907000  0.287000  0.099800  1
  O  O3081  1  0.463000  0.157000  0.349800  1
  O  O3082  1  0.037000  0.843000  0.849800  1
  O  O3083  1  0.093000  0.213000  0.099800  1
  O  O3084  1  0.407000  0.787000  0.599800  1
  O  O3085  1  0.829000  0.600000  0.003000  1
  O  O3086  1  0.671000  0.400000  0.503000  1
  O  O3087  1  0.150000  0.079000  0.253000  1
  O  O3088  1  0.350000  0.921000  0.753000  1
  O  O3089  1  0.329000  0.100000  0.503000  1
  O  O3090  1  0.171000  0.900000  0.003000  1
  O  O3091  1  0.650000  0.579000  0.753000  1
  O  O3092  1  0.850000  0.421000  0.253000  1
  O  O3093  1  0.171000  0.400000  0.997000  1
  O  O3094  1  0.329000  0.600000  0.497000  1
  O  O3095  1  0.850000  0.921000  0.747000  1
  O  O3096  1  0.650000  0.079000  0.247000  1
  O  O3097  1  0.671000  0.900000  0.497000  1
  O  O3098  1  0.829000  0.100000  0.997000  1
  O  O3099  1  0.350000  0.421000  0.247000  1
  O  O3100  1  0.150000  0.579000  0.747000  1
  O  O3101  1  0.488900  0.665500  0.171800  1.0
  O  O3102  1  0.011100  0.334500  0.671800  1.0
  O  O3103  1  0.084500  0.738900  0.421800  1.0
  O  O3104  1  0.415500  0.261100  0.921800  1.0
  O  O3105  1  0.988900  0.165500  0.671800  1.0
  O  O3106  1  0.511100  0.834500  0.171800  1.0
  O  O3107  1  0.584500  0.238900  0.921800  1.0
  O  O3108  1  0.915500  0.761100  0.421800  1.0
  O  O3109  1  0.511100  0.334500  0.828200  1.0
  O  O3110  1  0.988900  0.665500  0.328200  1.0
  O  O3111  1  0.915500  0.261100  0.578200  1.0
  O  O3112  1  0.584500  0.738900  0.078200  1.0
  O  O3113  1  0.011100  0.834500  0.328200  1.0
  O  O3114  1  0.488900  0.165500  0.828200  1.0
  O  O3115  1  0.415500  0.761100  0.078200  1.0
  O  O3116  1  0.084500  0.238900  0.578200  1.0
  O  O3117  1  0.435000  0.673900  0.198600  1.0
  O  O3118  1  0.065000  0.326100  0.698600  1.0
  O  O3119  1  0.076100  0.685000  0.448600  1.0
  O  O3120  1  0.423900  0.315000  0.948600  1.0
  O  O3121  1  0.935000  0.173900  0.698600  1.0
  O  O3122  1  0.565000  0.826100  0.198600  1.0
  O  O3123  1  0.576100  0.185000  0.948600  1.0
  O  O3124  1  0.923900  0.815000  0.448600  1.0
  O  O3125  1  0.565000  0.326100  0.801400  1.0
  O  O3126  1  0.935000  0.673900  0.301400  1.0
  O  O3127  1  0.923900  0.315000  0.551400  1.0
  O  O3128  1  0.576100  0.685000  0.051400  1.0
  O  O3129  1  0.065000  0.826100  0.301400  1.0
  O  O3130  1  0.435000  0.173900  0.801400  1.0
  O  O3131  1  0.423900  0.815000  0.051400  1.0
  O  O3132  1  0.076100  0.185000  0.551400  1.0
