
#######################################################################
#
#                 Cambridge Crystallographic Data Centre
#                                CCDC 
#
#######################################################################
#
# If this CIF has been generated from an entry in the Cambridge 
# Structural Database, then it will include bibliographic, chemical, 
# crystal, experimental, refinement or atomic coordinate data resulting 
# from the CCDC's data processing and validation procedures.
#
#######################################################################

data_ECAPIJ
_chemical_formula_moiety         
'C108 H144 N36 Pd6 12+,C26 H24 N1 O2,12(N1 O3 1-),47.2(H2 O1)'
_chemical_name_systematic        
"tetrakis(\m~3~-2,4,6-tris(pyridin-4-yl)-1,3,5-triazine)-hexakis(1,2-bis(dimethylamino)ethane)-hexa-palladium(ii) 10-cyclohexyl-8c,11a,11b,11c-tetrahydro-5bH-7,11-aceanthryleno[1',2':3,4]cyclobuta[1,2-c]pyrrole-9,11(8bH,10H)-dione dodecakis(nitrate) hydrate"
_symmetry_cell_setting           tetragonal
_symmetry_space_group_name_H-M   'I 41/a'
_symmetry_Int_Tables_number      88
_space_group_name_Hall           '-I 4ad'
loop_
_symmetry_equiv_pos_site_id
_symmetry_equiv_pos_as_xyz
1 x,y,z
2 1/2-x,-y,1/2+z
3 3/4-y,1/4+x,1/4+z
4 3/4+y,3/4-x,3/4+z
5 1/2+x,1/2+y,1/2+z
6 -x,1/2-y,z
7 1/4-y,3/4+x,3/4+z
8 1/4+y,1/4-x,1/4+z
9 -x,-y,-z
10 1/2+x,y,1/2-z
11 1/4+y,3/4-x,3/4-z
12 1/4-y,1/4+x,1/4-z
13 1/2-x,1/2-y,1/2-z
14 x,1/2+y,-z
15 3/4+y,1/4-x,1/4-z
16 3/4-y,3/4+x,3/4-z
_cell_length_a                   26.150(6)
_cell_length_b                   26.150(6)
_cell_length_c                   31.583(7)
_cell_angle_alpha                90
_cell_angle_beta                 90
_cell_angle_gamma                90
_cell_volume                     21597.2
_exptl_crystal_colour            yellow
_exptl_crystal_description       block
_cell_formula_units_Z            4
loop_
_atom_site_label
_atom_site_type_symbol
_atom_site_fract_x
_atom_site_fract_y
_atom_site_fract_z
N2 N 0.6169(6) 0.4312(6) 0.0209(5)
O3 O 0.6358(4) 0.4113(4) 0.0429(3)
O4 O 0.6396(5) 0.4527(5) -0.0130(4)
O5 O 0.5764(7) 0.4611(7) 0.0240(6)
N3 N 0.8224(14) 0.5212(14) 0.2011(10)
O6 O 0.7767(4) 0.5102(4) 0.2042(3)
O7 O 0.8545(9) 0.4855(9) 0.2128(7)
O8 O 0.8374(8) 0.5646(8) 0.1785(7)
O9 O 0.7934(9) 0.3000(9) 0.0331(8)
O10 O 0.8768(7) 0.3372(7) 0.0394(6)
O11 O 0.9364(8) 0.4241(8) 0.0513(6)
N4 N 0.519(2) 0.968(2) 0.3621(17)
O12 O 0.5530(9) 0.9296(8) 0.3906(7)
O13 O 0.5719(16) 0.9705(15) 0.3494(14)
O14 O 0.4904(10) 0.9916(9) 0.3437(7)
O15 O 1.0032(13) 0.3379(9) 0.1676(9)
O16 O 0.8253(8) 0.5704(8) 0.0389(7)
O17 O 0.5000 0.7500 0.6250
O18 O 0.6257(3) 0.7250(3) 0.4057(3)
O19 O 0.4997(6) 0.4230(6) 0.0798(5)
O20 O 0.9229(6) 0.5291(6) 0.0348(5)
O21 O 0.8859(6) 0.3447(6) 0.1774(5)
O22 O 0.8155(7) 0.2914(7) 0.2151(6)
O23 O 0.9525(8) 0.4090(8) 0.1400(7)
O24 O 0.7940(9) 0.6494(9) 0.1943(7)
O25 O 0.6375(10) 0.8934(10) 0.3917(8)
O26 O 1.010(2) 0.411(2) 0.0948(18)
Pd1 Pd 0.5000 0.7500 0.41379(3)
Pd2 Pd 0.71262(2) 0.46371(2) 0.122808(18)
C27 C 0.5343(3) 0.6781(3) 0.3479(2)
H24 H 0.5670 0.6859 0.3593
C28 C 0.5311(3) 0.6466(3) 0.3128(2)
H25 H 0.5612 0.6329 0.3004
C29 C 0.4836(3) 0.6353(3) 0.2960(3)
C30 C 0.4411(3) 0.6553(4) 0.3147(3)
H26 H 0.4080 0.6477 0.3039
C31 C 0.4469(3) 0.6876(4) 0.3506(3)
H27 H 0.4174 0.7019 0.3635
C32 C 0.6023(3) 0.4806(4) 0.1350(3)
H28 H 0.5998 0.4606 0.1100
C33 C 0.5584(3) 0.5020(3) 0.1523(3)
H29 H 0.5262 0.4972 0.1389
C34 C 0.5620(3) 0.5301(3) 0.1888(3)
C35 C 0.6092(3) 0.5382(3) 0.2070(3)
H30 H 0.6126 0.5585 0.2318
C36 C 0.6519(3) 0.5160(3) 0.1882(3)
H31 H 0.6845 0.5212 0.2007
C37 C 0.2886(3) 0.5643(4) 0.1926(3)
C38 C 0.3361(3) 0.5734(4) 0.2102(3)
H32 H 0.3390 0.5919 0.2360
C39 C 0.3789(3) 0.5556(3) 0.1902(3)
C40 C 0.3735(3) 0.5293(4) 0.1533(3)
H33 H 0.4028 0.5163 0.1391
C41 C 0.3248(3) 0.5217(4) 0.1362(3)
C42 C 0.4790(3) 0.6014(4) 0.2583(3)
C43 C 0.5149(3) 0.5535(3) 0.2078(3)
C44 C 0.4304(3) 0.5654(4) 0.2084(3)
C45 C 0.8208(6) 0.4639(6) 0.1100(5)
H34 H 0.8518 0.4523 0.0954
H35 H 0.8232 0.4551 0.1401
H36 H 0.8175 0.5010 0.1069
C46 C 0.7752(7) 0.4448(7) 0.0470(5)
H37 H 0.8072 0.4322 0.0347
H38 H 0.7707 0.4810 0.0398
H39 H 0.7465 0.4250 0.0358
C47 C 0.7777(6) 0.3810(6) 0.1014(5)
H40 H 0.7540 0.3631 0.0819
H41 H 0.8125 0.3672 0.0967
C48 C 0.7617(5) 0.3714(5) 0.1462(5)
H42 H 0.7610 0.3343 0.1522
H43 H 0.7860 0.3879 0.1661
C49 C 0.6716(9) 0.3616(9) 0.1415(7)
H44 H 0.6754 0.3289 0.1563
H45 H 0.6705 0.3556 0.1109
H46 H 0.6399 0.3782 0.1505
C50 C 0.6995(7) 0.3972(6) 0.1997(5)
H47 H 0.6999 0.3631 0.2126
H48 H 0.6655 0.4124 0.2032
H49 H 0.7250 0.4189 0.2136
C51 C 0.4822(7) 0.7729(7) 0.5008(5)
H50 H 0.4841 0.7925 0.5275
H51 H 0.4463 0.7632 0.4948
C52 C 0.5582(7) 0.8119(8) 0.4682(6)
H52 H 0.5621 0.8370 0.4911
H53 H 0.5738 0.8253 0.4423
H54 H 0.5753 0.7799 0.4763
C53 C 0.4824(7) 0.8532(6) 0.4546(5)
H55 H 0.4888 0.8756 0.4790
H56 H 0.4456 0.8477 0.4515
H57 H 0.4959 0.8693 0.4289
N5 N 0.4924(3) 0.6981(3) 0.3661(2)
N6 N 0.5214(3) 0.5825(3) 0.2422(2)
H58 H 0.5517 0.5884 0.2532
N7 N 0.4706(2) 0.5442(3) 0.1898(2)
H59 H 0.4677 0.5252 0.1669
N8 N 0.4328(3) 0.5943(3) 0.2429(2)
H60 H 0.4054 0.6078 0.2546
N9 N 0.6486(2) 0.4878(3) 0.1534(2)
N10 N 0.2830(3) 0.5392(2) 0.1563(2)
N11 N 0.7124(3) 0.3925(3) 0.1509(2)
N12 N 0.7771(3) 0.4393(3) 0.0919(2)
N13 N 0.5084(3) 0.8029(3) 0.4615(2)
Pd1K Pd 0.5000 0.7500 -0.16379(3)
Pd2K Pd 0.78629(2) 0.96262(2) 0.127192(18)
Pd2E Pd 0.28738(2) 1.03629(2) 0.122808(18)
Pd2N Pd 0.21371(2) 0.53738(2) 0.127192(18)
C27N C 0.4281(3) 0.7157(3) -0.0979(2)
C27K C 0.5719(3) 0.7843(3) -0.0979(2)
C27E C 0.4657(3) 0.8219(3) 0.3479(2)
H24N H 0.4359 0.6830 -0.1093
H24K H 0.5641 0.8170 -0.1093
H24E H 0.4330 0.8141 0.3593
C28N C 0.3966(3) 0.7189(3) -0.0628(2)
C28K C 0.6034(3) 0.7811(3) -0.0628(2)
C28E C 0.4689(3) 0.8534(3) 0.3128(2)
H25K H 0.6171 0.8112 -0.0504
H25N H 0.3829 0.6888 -0.0504
H25E H 0.4388 0.8671 0.3004
C29N C 0.3853(3) 0.7664(3) -0.0460(3)
C29K C 0.6147(3) 0.7336(3) -0.0460(3)
C29E C 0.5164(3) 0.8647(3) 0.2960(3)
C30K C 0.5947(4) 0.6911(3) -0.0647(3)
C30N C 0.4053(4) 0.8089(3) -0.0647(3)
C30E C 0.5589(3) 0.8447(4) 0.3147(3)
H26K H 0.6023 0.6580 -0.0539
H26N H 0.3977 0.8420 -0.0539
H26E H 0.5920 0.8523 0.3039
C31K C 0.5624(4) 0.6969(3) -0.1006(3)
C31N C 0.4376(4) 0.8031(3) -0.1006(3)
C31E C 0.5531(3) 0.8124(4) 0.3506(3)
H27K H 0.5481 0.6674 -0.1135
H27N H 0.4519 0.8326 -0.1135
H27E H 0.5826 0.7981 0.3635
C32K C 0.7694(4) 0.8523(3) 0.1150(3)
C32E C 0.3977(3) 1.0194(4) 0.1350(3)
C32N C 0.2306(4) 0.6477(3) 0.1150(3)
H28K H 0.7894 0.8498 0.1400
H28E H 0.4002 1.0394 0.1100
H28N H 0.2106 0.6502 0.1400
C33K C 0.7480(3) 0.8084(3) 0.0977(3)
C33E C 0.4416(3) 0.9980(3) 0.1523(3)
C33N C 0.2520(3) 0.6916(3) 0.0977(3)
H29N H 0.2472 0.7238 0.1111
H29E H 0.4738 1.0028 0.1389
H29K H 0.7528 0.7762 0.1111
C34K C 0.7199(3) 0.8120(3) 0.0612(3)
C34E C 0.4380(3) 0.9699(3) 0.1888(3)
C34N C 0.2801(3) 0.6880(3) 0.0612(3)
C35N C 0.2882(3) 0.6408(3) 0.0430(3)
C35E C 0.3908(3) 0.9618(3) 0.2070(3)
C35K C 0.7118(3) 0.8592(3) 0.0430(3)
H30N H 0.3085 0.6374 0.0182
H30E H 0.3874 0.9415 0.2318
H30K H 0.6915 0.8626 0.0182
C36N C 0.2660(3) 0.5981(3) 0.0618(3)
C36E C 0.3481(3) 0.9840(3) 0.1882(3)
C36K C 0.7340(3) 0.9019(3) 0.0618(3)
H31N H 0.2712 0.5655 0.0493
H31E H 0.3155 0.9788 0.2007
H31K H 0.7288 0.9345 0.0493
C37K C 0.6857(4) 0.5386(3) 0.0574(3)
C37E C 0.7114(3) 0.9357(4) 0.1926(3)
C37N C 0.3143(4) 0.9614(3) 0.0574(3)
C38K C 0.6766(4) 0.5861(3) 0.0398(3)
C38E C 0.6639(3) 0.9266(4) 0.2102(3)
C38N C 0.3234(4) 0.9139(3) 0.0398(3)
H32K H 0.6581 0.5890 0.0140
H32E H 0.6610 0.9081 0.2360
H32N H 0.3419 0.9110 0.0140
C39K C 0.6944(3) 0.6289(3) 0.0598(3)
C39E C 0.6211(3) 0.9444(3) 0.1902(3)
C39N C 0.3056(3) 0.8711(3) 0.0598(3)
C40K C 0.7207(4) 0.6235(3) 0.0967(3)
C40E C 0.6265(3) 0.9707(4) 0.1533(3)
C40N C 0.2793(4) 0.8765(3) 0.0967(3)
H33K H 0.7337 0.6528 0.1109
H33E H 0.5972 0.9837 0.1391
H33N H 0.2663 0.8472 0.1109
C41K C 0.7283(4) 0.5748(3) 0.1138(3)
C41E C 0.6752(3) 0.9783(4) 0.1362(3)
C41N C 0.2717(4) 0.9252(3) 0.1138(3)
C42N C 0.3514(4) 0.7710(3) -0.0083(3)
C42K C 0.6486(4) 0.7290(3) -0.0083(3)
C42E C 0.5210(3) 0.8986(4) 0.2583(3)
C43K C 0.6965(3) 0.7649(3) 0.0422(3)
C43E C 0.4851(3) 0.9465(3) 0.2078(3)
C43N C 0.3035(3) 0.7351(3) 0.0422(3)
C44K C 0.6846(4) 0.6804(3) 0.0416(3)
C44E C 0.5696(3) 0.9346(4) 0.2084(3)
C44N C 0.3154(4) 0.8196(3) 0.0416(3)
C45N C 0.2139(6) 0.4292(6) 0.1400(5)
C45E C 0.1792(6) 1.0361(6) 0.1100(5)
C45K C 0.7861(6) 1.0708(6) 0.1400(5)
H34N H 0.2023 0.3982 0.1546
H34E H 0.1482 1.0477 0.0954
H34K H 0.7977 1.1018 0.1546
H35N H 0.2051 0.4268 0.1099
H35E H 0.1768 1.0449 0.1401
H35K H 0.7949 1.0732 0.1099
H36N H 0.2510 0.4325 0.1431
H36E H 0.1825 0.9990 0.1069
H36K H 0.7490 1.0675 0.1431
C46N C 0.1948(7) 0.4748(7) 0.2030(5)
C46E C 0.2248(7) 1.0552(7) 0.0470(5)
C46K C 0.8052(7) 1.0252(7) 0.2030(5)
H37N H 0.1822 0.4428 0.2153
H37E H 0.1928 1.0678 0.0347
H37K H 0.8178 1.0572 0.2153
H38N H 0.2310 0.4793 0.2102
H38E H 0.2293 1.0190 0.0398
H38K H 0.7690 1.0207 0.2102
H39N H 0.1750 0.5035 0.2142
H39E H 0.2535 1.0750 0.0358
H39K H 0.8250 0.9965 0.2142
C47N C 0.1310(6) 0.4723(6) 0.1486(5)
C47E C 0.2223(6) 1.1190(6) 0.1014(5)
C47K C 0.8690(6) 1.0277(6) 0.1486(5)
H40N H 0.1131 0.4960 0.1681
H40E H 0.2460 1.1369 0.0819
H40K H 0.8869 1.0040 0.1681
H41N H 0.1172 0.4375 0.1533
H41E H 0.1875 1.1328 0.0967
H41K H 0.8828 1.0625 0.1533
C48N C 0.1214(5) 0.4883(5) 0.1038(5)
C48E C 0.2383(5) 1.1286(5) 0.1462(5)
C48K C 0.8786(5) 1.0117(5) 0.1038(5)
H42N H 0.0843 0.4890 0.0978
H42E H 0.2390 1.1657 0.1522
H42K H 0.9157 1.0110 0.0978
H43N H 0.1379 0.4640 0.0839
H43E H 0.2140 1.1121 0.1661
H43K H 0.8621 1.0360 0.0839
C49N C 0.1116(9) 0.5784(9) 0.1085(7)
C49E C 0.3284(9) 1.1384(9) 0.1415(7)
C49K C 0.8884(9) 0.9216(9) 0.1085(7)
H44N H 0.0789 0.5746 0.0937
H44E H 0.3246 1.1711 0.1563
H44K H 0.9211 0.9254 0.0937
H45N H 0.1056 0.5795 0.1391
H45E H 0.3295 1.1444 0.1109
H45K H 0.8944 0.9205 0.1391
H46N H 0.1282 0.6101 0.0995
H46E H 0.3601 1.1218 0.1505
H46K H 0.8718 0.8899 0.0995
C50N C 0.1472(6) 0.5505(7) 0.0503(5)
C50E C 0.3005(7) 1.1028(6) 0.1997(5)
C50K C 0.8528(6) 0.9495(7) 0.0503(5)
H47N H 0.1131 0.5501 0.0374
H47E H 0.3001 1.1369 0.2126
H47K H 0.8869 0.9499 0.0374
H48N H 0.1624 0.5845 0.0468
H48E H 0.3345 1.0876 0.2032
H48K H 0.8376 0.9155 0.0468
H49N H 0.1689 0.5250 0.0364
H49E H 0.2750 1.0811 0.2136
H49K H 0.8311 0.9750 0.0364
C51N C 0.5229(7) 0.7678(7) -0.2508(5)
C51K C 0.4771(7) 0.7322(7) -0.2508(5)
C51E C 0.5178(7) 0.7271(7) 0.5008(5)
H50K H 0.4575 0.7341 -0.2775
H50N H 0.5425 0.7659 -0.2775
H50E H 0.5159 0.7075 0.5275
H51K H 0.4868 0.6963 -0.2448
H51N H 0.5132 0.8037 -0.2448
H51E H 0.5537 0.7368 0.4948
C52K C 0.4381(8) 0.8082(7) -0.2182(6)
C52N C 0.5619(8) 0.6918(7) -0.2182(6)
C52E C 0.4418(7) 0.6881(8) 0.4682(6)
H52K H 0.4130 0.8121 -0.2411
H52N H 0.5870 0.6879 -0.2411
H52E H 0.4379 0.6630 0.4911
H53K H 0.4247 0.8238 -0.1923
H53N H 0.5753 0.6762 -0.1923
H53E H 0.4262 0.6747 0.4423
H54K H 0.4701 0.8253 -0.2263
H54N H 0.5299 0.6747 -0.2263
H54E H 0.4247 0.7201 0.4763
C53K C 0.3968(6) 0.7324(7) -0.2046(5)
C53N C 0.6032(6) 0.7676(7) -0.2046(5)
C53E C 0.5176(7) 0.6468(6) 0.4546(5)
H55K H 0.3744 0.7388 -0.2290
H55N H 0.6256 0.7612 -0.2290
H55E H 0.5112 0.6244 0.4790
H56K H 0.4023 0.6956 -0.2015
H56N H 0.5977 0.8044 -0.2015
H56E H 0.5544 0.6523 0.4515
H57K H 0.3807 0.7459 -0.1789
H57N H 0.6193 0.7541 -0.1789
H57E H 0.5041 0.6307 0.4289
N5N N 0.4481(3) 0.7576(3) -0.1161(2)
N5K N 0.5519(3) 0.7424(3) -0.1161(2)
N5E N 0.5076(3) 0.8019(3) 0.3661(2)
N6N N 0.3325(3) 0.7286(3) 0.0078(2)
N6K N 0.6675(3) 0.7714(3) 0.0078(2)
N6E N 0.4786(3) 0.9175(3) 0.2422(2)
H58K H 0.6616 0.8017 -0.0032
H58N H 0.3384 0.6983 -0.0032
H58E H 0.4483 0.9116 0.2532
N7K N 0.7058(3) 0.7206(2) 0.0602(2)
N7E N 0.5294(2) 0.9558(3) 0.1898(2)
N7N N 0.2942(3) 0.7794(2) 0.0602(2)
H59N H 0.2752 0.7823 0.0831
H59E H 0.5323 0.9748 0.1669
H59K H 0.7248 0.7177 0.0831
N8K N 0.6557(3) 0.6828(3) 0.0071(2)
N8N N 0.3443(3) 0.8172(3) 0.0071(2)
N8E N 0.5672(3) 0.9057(3) 0.2429(2)
H60K H 0.6422 0.6554 -0.0046
H60N H 0.3578 0.8446 -0.0046
H60E H 0.5946 0.8922 0.2546
N9K N 0.7622(3) 0.8986(2) 0.0966(2)
N9E N 0.3514(2) 1.0122(3) 0.1534(2)
N9N N 0.2378(3) 0.6014(2) 0.0966(2)
N10K N 0.7108(2) 0.5330(3) 0.0937(2)
N10E N 0.7170(3) 0.9608(2) 0.1563(2)
N10N N 0.2892(2) 0.9670(3) 0.0937(2)
N11N N 0.1425(3) 0.5376(3) 0.0991(2)
N11E N 0.2876(3) 1.1075(3) 0.1509(2)
N11K N 0.8575(3) 0.9624(3) 0.0991(2)
N12N N 0.1893(3) 0.4729(3) 0.1581(2)
N12E N 0.2229(3) 1.0607(3) 0.0919(2)
N12K N 0.8107(3) 1.0271(3) 0.1581(2)
N13N N 0.5529(3) 0.7416(3) -0.2115(2)
N13K N 0.4471(3) 0.7584(3) -0.2115(2)
N13E N 0.4916(3) 0.6971(3) 0.4615(2)
C1 C 0.5330(16) 0.6589(13) 0.1449(10)
C2 C 0.5189(18) 0.6274(12) 0.1118(10)
C3 C 0.4679(19) 0.6207(14) 0.1015(11)
C4 C 0.4307(17) 0.648(2) 0.1234(15)
H1 H 0.3959 0.6466 0.1147
C5 C 0.4446(16) 0.6777(19) 0.1578(14)
C6 C 0.4952(16) 0.6806(19) 0.1706(13)
C7 C 0.5096(19) 0.7157(18) 0.2005(13)
C8 C 0.472(2) 0.7382(18) 0.2261(13)
H2 H 0.4820 0.7560 0.2511
C9 C 0.421(2) 0.7342(18) 0.2146(15)
H3 H 0.3961 0.7524 0.2300
C10 C 0.5460(18) 0.657(2) 0.0696(16)
H4 H 0.5494 0.6224 0.0773
C11 C 0.5817(17) 0.6768(18) 0.1655(16)
H5 H 0.6011 0.6472 0.1775
C12 C 0.5666(19) 0.713(2) 0.1998(14)
H6 H 0.5764 0.6961 0.2268
C13 C 0.556(2) 0.6039(19) 0.0879(14)
H7 H 0.5916 0.6105 0.0923
C14 C 0.539(3) 0.569(2) 0.0560(15)
H8 H 0.5639 0.5511 0.0399
C15 C 0.492(3) 0.561(2) 0.0481(14)
H9 H 0.4822 0.5351 0.0283
C16 C 0.452(3) 0.591(3) 0.070(2)
H10 H 0.4170 0.5901 0.0617
C17 C 0.4675(18) 0.6310(17) 0.1031(13)
H11 H 0.4563 0.5957 0.1110
C18 C 0.498(2) 0.6380(17) 0.0616(13)
H12 H 0.5031 0.6085 0.0414
C19 C 0.4987(15) 0.6605(17) 0.1344(11)
C20 C 0.543(2) 0.6690(18) 0.0758(13)
C21 C 0.465(2) 0.6693(19) 0.1159(15)
H13 H 0.4771 0.6487 0.1408
C22 C 0.4460(15) 0.737(2) 0.1520(19)
H14 H 0.4208 0.7092 0.1546
H15 H 0.4729 0.7261 0.1321
C23 C 0.470(3) 0.748(3) 0.195(2)
H16 H 0.4851 0.7160 0.2066
H17 H 0.5028 0.7263 0.1924
C24 C 0.428(4) 0.767(4) 0.2261(15)
H18 H 0.4439 0.7745 0.2541
H19 H 0.4017 0.7410 0.2299
C25 C 0.596(3) 0.684(3) 0.209(2)
H20 H 0.5700 0.6560 0.2082
H21 H 0.6239 0.6726 0.2279
C26 C 0.440(3) 0.633(2) 0.085(2)
H22 H 0.4065 0.6227 0.0968
H23 H 0.4615 0.6011 0.0837
O1 O 0.4889(14) 0.6655(16) 0.1718(12)
O2 O 0.435(3) 0.6739(19) 0.1986(18)
N1 N 0.5427(19) 0.6797(18) 0.1179(14)
C1K C 0.5911(13) 0.7830(16) 0.1051(10)
C1E C 0.4670(16) 0.8411(13) 0.1449(10)
C1N C 0.4089(13) 0.7170(16) 0.1051(10)
C2K C 0.6226(12) 0.7689(18) 0.1382(10)
C2E C 0.4811(18) 0.8726(12) 0.1118(10)
C2N C 0.3774(12) 0.7311(18) 0.1382(10)
C3K C 0.6293(14) 0.7179(19) 0.1485(11)
C3E C 0.5321(19) 0.8793(14) 0.1015(11)
C3N C 0.3707(14) 0.7821(19) 0.1485(11)
C4K C 0.602(2) 0.6807(17) 0.1266(15)
C4E C 0.5693(17) 0.852(2) 0.1234(15)
C4N C 0.398(2) 0.8193(17) 0.1266(15)
H1N H 0.3966 0.8541 0.1353
H1E H 0.6041 0.8534 0.1147
H1K H 0.6034 0.6459 0.1353
C5K C 0.5723(19) 0.6946(16) 0.0922(14)
C5E C 0.5554(16) 0.8223(19) 0.1578(14)
C5N C 0.4277(19) 0.8054(16) 0.0922(14)
C6K C 0.5694(19) 0.7452(16) 0.0794(13)
C6E C 0.5048(16) 0.8194(19) 0.1706(13)
C6N C 0.4306(19) 0.7548(16) 0.0794(13)
C7E C 0.4904(19) 0.7843(18) 0.2005(13)
C7K C 0.5343(18) 0.7596(19) 0.0495(13)
C7N C 0.4657(18) 0.7404(19) 0.0495(13)
C8E C 0.528(2) 0.7618(18) 0.2261(13)
C8N C 0.4882(18) 0.778(2) 0.0239(13)
C8K C 0.5118(18) 0.722(2) 0.0239(13)
H2E H 0.5180 0.7440 0.2511
H2N H 0.5060 0.7680 -0.0011
H2K H 0.4940 0.7320 -0.0011
C9E C 0.579(2) 0.7658(18) 0.2146(15)
C9N C 0.4842(18) 0.829(2) 0.0354(15)
C9K C 0.5158(18) 0.671(2) 0.0354(15)
H3E H 0.6039 0.7476 0.2300
H3N H 0.5024 0.8539 0.0200
H3K H 0.4976 0.6461 0.0200
C10K C 0.593(2) 0.7960(18) 0.1804(16)
C10N C 0.407(2) 0.7040(18) 0.1804(16)
C10E C 0.4540(18) 0.843(2) 0.0696(16)
H4K H 0.6276 0.7994 0.1727
H4E H 0.4506 0.8776 0.0773
H4N H 0.3724 0.7006 0.1727
C11E C 0.4183(17) 0.8232(18) 0.1655(16)
C11N C 0.4268(18) 0.6683(17) 0.0845(16)
C11K C 0.5732(18) 0.8317(17) 0.0845(16)
H5E H 0.3989 0.8528 0.1775
H5K H 0.6028 0.8511 0.0725
H5N H 0.3972 0.6489 0.0725
C12E C 0.4334(19) 0.787(2) 0.1998(14)
C12K C 0.537(2) 0.8166(19) 0.0502(14)
C12N C 0.463(2) 0.6834(19) 0.0502(14)
H6K H 0.5539 0.8264 0.0232
H6E H 0.4236 0.8039 0.2268
H6N H 0.4461 0.6736 0.0232
C13K C 0.6461(19) 0.806(2) 0.1621(14)
C13N C 0.3539(19) 0.694(2) 0.1621(14)
C13E C 0.444(2) 0.8961(19) 0.0879(14)
H7N H 0.3605 0.6584 0.1577
H7E H 0.4084 0.8895 0.0923
H7K H 0.6395 0.8416 0.1577
C14K C 0.681(2) 0.789(3) 0.1940(15)
C14N C 0.319(2) 0.711(3) 0.1940(15)
C14E C 0.461(3) 0.931(2) 0.0560(15)
H8E H 0.4361 0.9489 0.0399
H8N H 0.3011 0.6861 0.2101
H8K H 0.6989 0.8139 0.2101
C15K C 0.689(2) 0.742(3) 0.2019(14)
C15N C 0.311(2) 0.758(3) 0.2019(14)
C15E C 0.508(3) 0.939(2) 0.0481(14)
H9E H 0.5178 0.9649 0.0283
H9K H 0.7149 0.7322 0.2217
H9N H 0.2851 0.7678 0.2217
C16K C 0.659(3) 0.702(3) 0.180(2)
C16N C 0.341(3) 0.798(3) 0.180(2)
C16E C 0.548(3) 0.909(3) 0.070(2)
H10N H 0.3401 0.8330 0.1883
H10E H 0.5830 0.9099 0.0617
H10K H 0.6599 0.6670 0.1883
C17N C 0.3810(17) 0.7825(18) 0.1469(13)
C17E C 0.5325(18) 0.8690(17) 0.1031(13)
C17K C 0.6190(17) 0.7175(18) 0.1469(13)
H11N H 0.3457 0.7937 0.1390
H11E H 0.5437 0.9043 0.1110
H11K H 0.6543 0.7063 0.1390
C18N C 0.3880(17) 0.752(2) 0.1884(13)
C18E C 0.502(2) 0.8620(17) 0.0616(13)
C18K C 0.6120(17) 0.748(2) 0.1884(13)
H12E H 0.4969 0.8915 0.0414
H12K H 0.6415 0.7531 0.2086
H12N H 0.3585 0.7469 0.2086
C19E C 0.5013(15) 0.8395(17) 0.1344(11)
C19N C 0.4105(17) 0.7513(15) 0.1156(11)
C19K C 0.5895(17) 0.7487(15) 0.1156(11)
C20N C 0.4190(18) 0.707(2) 0.1742(13)
C20E C 0.457(2) 0.8310(18) 0.0758(13)
C20K C 0.5810(18) 0.793(2) 0.1742(13)
C21N C 0.4193(19) 0.785(2) 0.1341(15)
C21K C 0.5807(19) 0.715(2) 0.1341(15)
C21E C 0.535(2) 0.8307(19) 0.1159(15)
H13E H 0.5229 0.8513 0.1408
H13N H 0.3987 0.7729 0.1092
H13K H 0.6013 0.7271 0.1092
C22E C 0.5540(15) 0.763(2) 0.1520(19)
C22N C 0.487(2) 0.8040(15) 0.0980(19)
C22K C 0.513(2) 0.6960(15) 0.0980(19)
H14N H 0.4592 0.8292 0.0954
H14K H 0.5408 0.6708 0.0954
H14E H 0.5792 0.7908 0.1546
H15N H 0.4761 0.7771 0.1179
H15K H 0.5239 0.7229 0.1179
H15E H 0.5271 0.7739 0.1321
C23E C 0.530(3) 0.752(3) 0.195(2)
C23N C 0.498(3) 0.780(3) 0.055(2)
C23K C 0.502(3) 0.720(3) 0.055(2)
H16N H 0.4660 0.7649 0.0434
H16K H 0.5340 0.7351 0.0434
H16E H 0.5149 0.7840 0.2066
H17K H 0.5237 0.7528 0.0576
H17E H 0.4972 0.7737 0.1924
H17N H 0.4763 0.7472 0.0576
C24E C 0.572(4) 0.733(4) 0.2261(15)
C24N C 0.517(4) 0.822(4) 0.0239(15)
C24K C 0.483(4) 0.678(4) 0.0239(15)
H18K H 0.4755 0.6939 -0.0041
H18E H 0.5561 0.7255 0.2541
H18N H 0.5245 0.8061 -0.0041
H19K H 0.5090 0.6517 0.0201
H19E H 0.5983 0.7590 0.2299
H19N H 0.4910 0.8483 0.0201
C25K C 0.566(3) 0.846(3) 0.041(2)
C25N C 0.434(3) 0.654(3) 0.041(2)
C25E C 0.404(3) 0.816(3) 0.209(2)
H20N H 0.4060 0.6800 0.0418
H20E H 0.4300 0.8440 0.2082
H20K H 0.5940 0.8200 0.0418
H21N H 0.4226 0.6261 0.0221
H21E H 0.3761 0.8274 0.2279
H21K H 0.5774 0.8739 0.0221
C26N C 0.383(2) 0.810(3) 0.165(2)
C26E C 0.560(3) 0.867(2) 0.085(2)
C26K C 0.617(2) 0.690(3) 0.165(2)
H22N H 0.3727 0.8435 0.1532
H22E H 0.5935 0.8773 0.0968
H22K H 0.6273 0.6565 0.1532
H23K H 0.6489 0.7115 0.1663
H23N H 0.3511 0.7885 0.1663
H23E H 0.5385 0.8989 0.0837
O1E O 0.5111(14) 0.8345(16) 0.1718(12)
O1K O 0.5845(16) 0.7389(14) 0.0782(12)
O1N O 0.4155(16) 0.7611(14) 0.0782(12)
O2N O 0.4239(19) 0.815(3) 0.0514(18)
O2K O 0.5761(19) 0.685(3) 0.0514(18)
O2E O 0.565(3) 0.8261(19) 0.1986(18)
N1E N 0.4573(19) 0.8203(18) 0.1179(14)
N1K N 0.5703(18) 0.7927(19) 0.1321(14)
N1N N 0.4297(18) 0.7073(19) 0.1321(14)
O27? O 0.5770(17) 0.4023(17) 0.0554(14)
N14? N 0.8394(11) 0.2902(13) -0.0091(9)
O28? O 0.8425(9) 0.3371(9) -0.0225(8)
O29? O 0.8106(13) 0.2546(14) -0.0181(10)
O30? O 0.5233(9) 0.9409(8) 0.3941(7)
O31? O 0.5428(7) 0.9976(7) 0.3183(6)
C54? C 0.8210(10) 0.4834(10) 0.0873(9)
C55? C 0.7657(10) 0.4277(11) 0.0461(7)
C56? C 0.7995(9) 0.3972(9) 0.1139(8)
C57? C 0.7580(9) 0.3623(9) 0.1217(8)
C58? C 0.6671(11) 0.3628(10) 0.1305(10)
C59? C 0.7311(11) 0.3963(10) 0.1941(8)
C60? C 0.5006(9) 0.7833(8) 0.5018(6)
C61? C 0.5679(9) 0.8264(10) 0.4601(8)
C62? C 0.4687(12) 0.8429(11) 0.4549(9)
H61? H 0.8506 0.4694 0.0722
H62? H 0.8316 0.4949 0.1155
H63? H 0.8071 0.5124 0.0714
H64? H 0.7970 0.4161 0.0320
H65? H 0.7531 0.4587 0.0321
H66? H 0.7397 0.4008 0.0444
H67? H 0.8150 0.4087 0.1409
H68? H 0.8263 0.3808 0.0965
H69? H 0.7707 0.3319 0.1372
H70? H 0.7433 0.3507 0.0945
H71? H 0.6652 0.3284 0.1427
H72? H 0.6726 0.3603 0.0998
H73? H 0.6351 0.3811 0.1360
H74? H 0.7309 0.3623 0.2072
H75? H 0.7089 0.4193 0.2103
H76? H 0.7661 0.4098 0.1940
H77? H 0.4678 0.7964 0.5131
H78? H 0.5284 0.7952 0.5207
H79? H 0.5721 0.8516 0.4828
H80? H 0.5738 0.8429 0.4327
H81? H 0.5925 0.7985 0.4640
H82? H 0.4714 0.8688 0.4772
H83? H 0.4347 0.8272 0.4559
H84? H 0.4738 0.8591 0.4272
O32? O 0.9004(10) 0.3713(11) 0.0466(8)
O33? O 0.5394(9) 1.0274(10) 0.2762(8)
O34? O 1.0370(14) 0.3430(11) 0.1502(10)
O35? O 0.829(2) 0.600(2) 0.003(2)
loop_
_geom_bond_atom_site_label_1
_geom_bond_atom_site_label_2
_geom_bond_site_symmetry_1
_geom_bond_site_symmetry_2
C1 C2 1_555 1_555
C2 C3 1_555 1_555
C3 C4 1_555 1_555
C4 H1 1_555 1_555
C5 C4 1_555 1_555
C6 C1 1_555 1_555
C7 C6 1_555 1_555
C8 C7 1_555 1_555
H2 C8 1_555 1_555
C9 C8 1_555 1_555
H3 C9 1_555 1_555
C10 C2 1_555 1_555
H4 C10 1_555 1_555
C11 C1 1_555 1_555
H5 C11 1_555 1_555
C12 C7 1_555 1_555
H6 C12 1_555 1_555
C13 C2 1_555 1_555
H7 C13 1_555 1_555
C14 C13 1_555 1_555
H8 C14 1_555 1_555
C15 C14 1_555 1_555
H9 C15 1_555 1_555
C16 C3 1_555 1_555
H10 C16 1_555 1_555
C17 C2 1_555 1_555
H11 C3 1_555 1_555
C18 C2 1_555 1_555
H12 C15 1_555 1_555
C19 C1 1_555 1_555
C20 C2 1_555 1_555
C21 C3 1_555 1_555
H13 C5 1_555 1_555
C22 C5 1_555 1_555
H14 C5 1_555 1_555
H15 C22 1_555 1_555
C23 C7 1_555 1_555
H16 C7 1_555 1_555
H17 C7 1_555 1_555
C24 C8 1_555 1_555
H18 C24 1_555 1_555
H19 C9 1_555 1_555
C25 C11 1_555 1_555
H20 C25 1_555 1_555
H21 C25 1_555 1_555
C26 C3 1_555 1_555
H22 C4 1_555 1_555
H23 C3 1_555 1_555
O1 C1 1_555 1_555
O2 C5 1_555 1_555
N1 C1 1_555 1_555
N2 O3 1_555 1_555
O4 N2 1_555 1_555
O5 N2 1_555 1_555
N3 O6 1_555 1_555
O7 N3 1_555 1_555
O8 N3 1_555 1_555
N4 O12 1_555 1_555
O13 N4 1_555 1_555
O14 N4 1_555 1_555
Pd1 N5 1_555 1_555
Pd2 N9 1_555 1_555
C27 H24 1_555 1_555
C28 C27 1_555 1_555
H25 C28 1_555 1_555
C29 C28 1_555 1_555
C30 C29 1_555 1_555
H26 C30 1_555 1_555
C31 C30 1_555 1_555
H27 C31 1_555 1_555
C32 H28 1_555 1_555
C33 C32 1_555 1_555
H29 C33 1_555 1_555
C34 C33 1_555 1_555
C35 C34 1_555 1_555
H30 C35 1_555 1_555
C36 C35 1_555 1_555
H31 C36 1_555 1_555
C37 C38 1_555 1_555
C38 H32 1_555 1_555
C39 C38 1_555 1_555
C40 C39 1_555 1_555
H33 C40 1_555 1_555
C41 C40 1_555 1_555
C42 C29 1_555 1_555
C43 C34 1_555 1_555
C44 C39 1_555 1_555
C45 H34 1_555 1_555
H35 C45 1_555 1_555
H36 C45 1_555 1_555
C46 H37 1_555 1_555
H38 C46 1_555 1_555
H39 C46 1_555 1_555
C47 H40 1_555 1_555
H41 C47 1_555 1_555
C48 C47 1_555 1_555
H42 C48 1_555 1_555
H43 C48 1_555 1_555
C49 H44 1_555 1_555
H45 C49 1_555 1_555
H46 C49 1_555 1_555
C50 H47 1_555 1_555
H48 C50 1_555 1_555
H49 C50 1_555 1_555
C51 H50 1_555 1_555
H51 C51 1_555 1_555
C52 H52 1_555 1_555
H53 C52 1_555 1_555
H54 C52 1_555 1_555
C53 H55 1_555 1_555
H56 C53 1_555 1_555
H57 C53 1_555 1_555
N5 C27 1_555 1_555
N6 C42 1_555 1_555
H58 N6 1_555 1_555
N7 C43 1_555 1_555
H59 N7 1_555 1_555
N8 C42 1_555 1_555
H60 N8 1_555 1_555
N9 C32 1_555 1_555
N10 C37 1_555 1_555
N11 Pd2 1_555 1_555
N12 Pd2 1_555 1_555
N13 Pd1 1_555 1_555
C1K C2K 1_555 1_555
C1E C2E 1_555 1_555
C1N C2N 1_555 1_555
C2K C3K 1_555 1_555
C2E C3E 1_555 1_555
C2N C3N 1_555 1_555
C3K C11 1_555 1_555
C3E C4E 1_555 1_555
C3N C4N 1_555 1_555
C4K C11 1_555 1_555
C4E H1E 1_555 1_555
C4N H1N 1_555 1_555
H1K C4K 1_555 1_555
C5K C10 1_555 1_555
C5E C4E 1_555 1_555
C5N C4N 1_555 1_555
C6K C1K 1_555 1_555
C6E C1E 1_555 1_555
C6N C1N 1_555 1_555
C7E C8 1_555 1_555
C7K C6K 1_555 1_555
C7N C6N 1_555 1_555
C8E C7 1_555 1_555
C8N C7K 1_555 1_555
C8K C7K 1_555 1_555
H2E C8E 1_555 1_555
H2N C8N 1_555 1_555
H2K C8K 1_555 1_555
C9E C12 1_555 1_555
C9N C8N 1_555 1_555
C9K C10 1_555 1_555
H3E C9E 1_555 1_555
H3N C9N 1_555 1_555
H3K C9K 1_555 1_555
C10K C2K 1_555 1_555
C10N C5 1_555 1_555
C10E C2E 1_555 1_555
H4K C10K 1_555 1_555
H4E C10E 1_555 1_555
H4N C10N 1_555 1_555
C11E C1E 1_555 1_555
C11N C3 1_555 1_555
C11K C1K 1_555 1_555
H5E C11E 1_555 1_555
H5K C11K 1_555 1_555
H5N C26 1_555 1_555
C12E C9 1_555 1_555
C12K C7K 1_555 1_555
C12N C18 1_555 1_555
H6K C12K 1_555 1_555
H6E C24 1_555 1_555
H6N C12N 1_555 1_555
C13K C2K 1_555 1_555
C13N C2N 1_555 1_555
C13E C2E 1_555 1_555
H7N C13N 1_555 1_555
H7E C13E 1_555 1_555
H7K C13K 1_555 1_555
C14K C13K 1_555 1_555
C14N C13N 1_555 1_555
C14E C13E 1_555 1_555
H8E C14E 1_555 1_555
H8N C14N 1_555 1_555
H8K C14K 1_555 1_555
C15K C14K 1_555 1_555
C15N C14N 1_555 1_555
C15E C14E 1_555 1_555
H9E C15E 1_555 1_555
H9K C15K 1_555 1_555
H9N C15N 1_555 1_555
C16K C3K 1_555 1_555
C16N C3N 1_555 1_555
C16E C3E 1_555 1_555
H10N C16N 1_555 1_555
H10E C16E 1_555 1_555
H10K C16K 1_555 1_555
C17N C2N 1_555 1_555
C17E C2E 1_555 1_555
C17K C11 1_555 1_555
H11N C3N 1_555 1_555
H11E C3E 1_555 1_555
H11K C3K 1_555 1_555
C18N C9 1_555 1_555
C18E C2E 1_555 1_555
C18K C12 1_555 1_555
H12E C15E 1_555 1_555
H12K C15K 1_555 1_555
H12N C15N 1_555 1_555
C19E C1E 1_555 1_555
C19N C22 1_555 1_555
C19K C1K 1_555 1_555
C20N C5 1_555 1_555
C20E C2E 1_555 1_555
C20K C2K 1_555 1_555
C21N C22 1_555 1_555
C21K C11 1_555 1_555
C21E C3E 1_555 1_555
H13E C5E 1_555 1_555
H13N C5N 1_555 1_555
H13K C5K 1_555 1_555
C22E C5E 1_555 1_555
C22N C5N 1_555 1_555
C22K C10 1_555 1_555
H14N C5N 1_555 1_555
H14K C10 1_555 1_555
H14E C5E 1_555 1_555
H15N C22N 1_555 1_555
H15K N1 1_555 1_555
H15E C22E 1_555 1_555
C23E C7 1_555 1_555
C23N C7K 1_555 1_555
C23K C7K 1_555 1_555
H16N C7N 1_555 1_555
H16K C7K 1_555 1_555
H16E C7E 1_555 1_555
H17K C7K 1_555 1_555
H17E C23 1_555 1_555
H17N C7N 1_555 1_555
C24E C12 1_555 1_555
C24N C8N 1_555 1_555
C24K C18 1_555 1_555
H18K C24K 1_555 1_555
H18E C24E 1_555 1_555
H18N C24N 1_555 1_555
H19K C9K 1_555 1_555
H19E C9E 1_555 1_555
H19N C9N 1_555 1_555
C25K C11K 1_555 1_555
C25N C26 1_555 1_555
C25E C24 1_555 1_555
H20N C25N 1_555 1_555
H20E C25E 1_555 1_555
H20K C25K 1_555 1_555
H21N C25N 1_555 1_555
H21E C25E 1_555 1_555
H21K C25K 1_555 1_555
C26N C3N 1_555 1_555
C26E C3E 1_555 1_555
C26K C11 1_555 1_555
H22N C4N 1_555 1_555
H22E C4E 1_555 1_555
H22K C4K 1_555 1_555
H23K C3K 1_555 1_555
H23N C3N 1_555 1_555
H23E C3E 1_555 1_555
O1E C1E 1_555 1_555
O1K C1K 1_555 1_555
O1N C1N 1_555 1_555
O2N C5N 1_555 1_555
O2K C10 1_555 1_555
O2E C5E 1_555 1_555
N1E C1E 1_555 1_555
N1K C1K 1_555 1_555
N1N C4 1_555 1_555
Pd1K N5N 1_555 1_555
Pd2K N9K 1_555 1_555
Pd2E N9E 1_555 1_555
Pd2N N10 1_555 1_555
C27N H24N 1_555 1_555
C27K H24K 1_555 1_555
C27E H24E 1_555 1_555
C28N C27N 1_555 1_555
C28K C27K 1_555 1_555
C28E C27E 1_555 1_555
H25K C28K 1_555 1_555
H25N C28N 1_555 1_555
H25E C28E 1_555 1_555
C29N C28N 1_555 1_555
C29K C28K 1_555 1_555
C29E C28E 1_555 1_555
C30K C29K 1_555 1_555
C30N C29N 1_555 1_555
C30E C29E 1_555 1_555
H26K C30K 1_555 1_555
H26N C30N 1_555 1_555
H26E C30E 1_555 1_555
C31K C30K 1_555 1_555
C31N C30N 1_555 1_555
C31E C30E 1_555 1_555
H27K C31K 1_555 1_555
H27N C31N 1_555 1_555
H27E C31E 1_555 1_555
C32K H28K 1_555 1_555
C32E H28E 1_555 1_555
C32N H28N 1_555 1_555
C33K C32K 1_555 1_555
C33E C32E 1_555 1_555
C33N C32N 1_555 1_555
H29N C33N 1_555 1_555
H29E C33E 1_555 1_555
H29K C33K 1_555 1_555
C34K C33K 1_555 1_555
C34E C33E 1_555 1_555
C34N C33N 1_555 1_555
C35N C34N 1_555 1_555
C35E C34E 1_555 1_555
C35K C34K 1_555 1_555
H30N C35N 1_555 1_555
H30E C35E 1_555 1_555
H30K C35K 1_555 1_555
C36N C35N 1_555 1_555
C36E C35E 1_555 1_555
C36K C35K 1_555 1_555
H31N C36N 1_555 1_555
H31E C36E 1_555 1_555
H31K C36K 1_555 1_555
C37K C38K 1_555 1_555
C37E C38E 1_555 1_555
C37N C38N 1_555 1_555
C38K H32K 1_555 1_555
C38E H32E 1_555 1_555
C38N H32N 1_555 1_555
C39K C38K 1_555 1_555
C39E C38E 1_555 1_555
C39N C38N 1_555 1_555
C40K C39K 1_555 1_555
C40E C39E 1_555 1_555
C40N C39N 1_555 1_555
H33K C40K 1_555 1_555
H33E C40E 1_555 1_555
H33N C40N 1_555 1_555
C41K C40K 1_555 1_555
C41E C40E 1_555 1_555
C41N C40N 1_555 1_555
C42N C29N 1_555 1_555
C42K C29K 1_555 1_555
C42E C29E 1_555 1_555
C43K C34K 1_555 1_555
C43E C34E 1_555 1_555
C43N C34N 1_555 1_555
C44K C39K 1_555 1_555
C44E C39E 1_555 1_555
C44N C39N 1_555 1_555
C45N H34N 1_555 1_555
C45E H34E 1_555 1_555
C45K H34K 1_555 1_555
H35N C45N 1_555 1_555
H35E C45E 1_555 1_555
H35K C45K 1_555 1_555
H36N C45N 1_555 1_555
H36E C45E 1_555 1_555
H36K C45K 1_555 1_555
C46N H37N 1_555 1_555
C46E H37E 1_555 1_555
C46K H37K 1_555 1_555
H38N C46N 1_555 1_555
H38E C46E 1_555 1_555
H38K C46K 1_555 1_555
H39N C46N 1_555 1_555
H39E C46E 1_555 1_555
H39K C46K 1_555 1_555
C47N H40N 1_555 1_555
C47E H40E 1_555 1_555
C47K H40K 1_555 1_555
H41N C47N 1_555 1_555
H41E C47E 1_555 1_555
H41K C47K 1_555 1_555
C48N C47N 1_555 1_555
C48E C47E 1_555 1_555
C48K C47K 1_555 1_555
H42N C48N 1_555 1_555
H42E C48E 1_555 1_555
H42K C48K 1_555 1_555
H43N C48N 1_555 1_555
H43E C48E 1_555 1_555
H43K C48K 1_555 1_555
C49N H44N 1_555 1_555
C49E H44E 1_555 1_555
C49K H44K 1_555 1_555
H45N C49N 1_555 1_555
H45E C49E 1_555 1_555
H45K C49K 1_555 1_555
H46N C49N 1_555 1_555
H46E C49E 1_555 1_555
H46K C49K 1_555 1_555
C50N H47N 1_555 1_555
C50E H47E 1_555 1_555
C50K H47K 1_555 1_555
H48N C50N 1_555 1_555
H48E C50E 1_555 1_555
H48K C50K 1_555 1_555
H49N C50N 1_555 1_555
H49E C50E 1_555 1_555
H49K C50K 1_555 1_555
C51N C51K 1_555 1_555
C51K H50K 1_555 1_555
C51E C51 1_555 1_555
H50N C51N 1_555 1_555
H50E C51E 1_555 1_555
H51K C51K 1_555 1_555
H51N C51N 1_555 1_555
H51E C51E 1_555 1_555
C52K H52K 1_555 1_555
C52N H52N 1_555 1_555
C52E H52E 1_555 1_555
H53K C52K 1_555 1_555
H53N C52N 1_555 1_555
H53E C52E 1_555 1_555
H54K C52K 1_555 1_555
H54N C52N 1_555 1_555
H54E C52E 1_555 1_555
C53K H55K 1_555 1_555
C53N H55N 1_555 1_555
C53E H55E 1_555 1_555
H56K C53K 1_555 1_555
H56N C53N 1_555 1_555
H56E C53E 1_555 1_555
H57K C53K 1_555 1_555
H57N C53N 1_555 1_555
H57E C53E 1_555 1_555
N5N C27N 1_555 1_555
N5K Pd1K 1_555 1_555
N5E Pd1 1_555 1_555
N6N C42N 1_555 1_555
N6K C42K 1_555 1_555
N6E C42E 1_555 1_555
H58K N6K 1_555 1_555
H58N N6N 1_555 1_555
H58E N6E 1_555 1_555
N7K C43K 1_555 1_555
N7E C43E 1_555 1_555
N7N C43N 1_555 1_555
H59N N7N 1_555 1_555
H59E N7E 1_555 1_555
H59K N7K 1_555 1_555
N8K C42K 1_555 1_555
N8N C42N 1_555 1_555
N8E C42E 1_555 1_555
H60K N8K 1_555 1_555
H60N N8N 1_555 1_555
H60E N8E 1_555 1_555
N9K C32K 1_555 1_555
N9E C32E 1_555 1_555
N9N Pd2N 1_555 1_555
N10K Pd2 1_555 1_555
N10E Pd2K 1_555 1_555
N10N Pd2E 1_555 1_555
N11N Pd2N 1_555 1_555
N11E Pd2E 1_555 1_555
N11K Pd2K 1_555 1_555
N12N Pd2N 1_555 1_555
N12E Pd2E 1_555 1_555
N12K Pd2K 1_555 1_555
N13N Pd1K 1_555 1_555
N13K Pd1K 1_555 1_555
N13E Pd1 1_555 1_555
C2 C19 1_555 1_555
C2 N1 1_555 1_555
C3 C17 1_555 1_555
C3 C18 1_555 1_555
C3 C19 1_555 1_555
C4 C17 1_555 1_555
C4 C21 1_555 1_555
C4 C26 1_555 1_555
C4 C11N 1_555 1_555
C5 C6 1_555 1_555
C5 C19 1_555 1_555
C5 C21 1_555 1_555
C5 O1 1_555 1_555
C5 N1N 1_555 1_555
C6 C19 1_555 1_555
C6 O1 1_555 1_555
C7 O1 1_555 1_555
C8 C23 1_555 1_555
C8 H16 1_555 1_555
C8 C8E 1_555 1_555
C9 C23 1_555 1_555
C9 C24 1_555 1_555
C9 O2 1_555 1_555
C9 C10N 1_555 1_555
C9 C20N 1_555 1_555
H3 C24 1_555 1_555
H3 H19 1_555 1_555
C10 C13 1_555 1_555
C10 C18 1_555 1_555
C10 C20 1_555 1_555
C10 N1 1_555 1_555
H4 C13 1_555 1_555
H4 C20 1_555 1_555
C11 C12 1_555 1_555
H5 C26K 1_555 1_555
C12 C25 1_555 1_555
C12 C23E 1_555 1_555
H6 C25 1_555 1_555
H6 C24E 1_555 1_555
C15 C16 1_555 1_555
C16 C17 1_555 1_555
C16 H11 1_555 1_555
C16 C18 1_555 1_555
C16 C26 1_555 1_555
C16 H23 1_555 1_555
C17 H11 1_555 1_555
C17 C18 1_555 1_555
C17 C19 1_555 1_555
C17 C21 1_555 1_555
C17 H13 1_555 1_555
C17 C26 1_555 1_555
C17 H23 1_555 1_555
C17 C11N 1_555 1_555
C18 H12 1_555 1_555
C18 C20 1_555 1_555
C18 C26 1_555 1_555
C18 C9K 1_555 1_555
C19 C21 1_555 1_555
C19 H13 1_555 1_555
C19 O1 1_555 1_555
C19 N1 1_555 1_555
C19 C22K 1_555 1_555
C20 N1 1_555 1_555
C20 C5K 1_555 1_555
C20 C9K 1_555 1_555
C20 C22K 1_555 1_555
C20 H14K 1_555 1_555
C20 O2K 1_555 1_555
C21 H13 1_555 1_555
C21 C26 1_555 1_555
C21 C11N 1_555 1_555
C21 C22K 1_555 1_555
C21 N1N 1_555 1_555
H13 O1 1_555 1_555
C22 H14 1_555 1_555
C22 C23 1_555 1_555
C22 C10N 1_555 1_555
C22 C20N 1_555 1_555
C22 N1N 1_555 1_555
H14 C10N 1_555 1_555
H14 C20N 1_555 1_555
H14 N1N 1_555 1_555
H15 N1N 1_555 1_555
C23 H16 1_555 1_555
C23 H17 1_555 1_555
C23 C24 1_555 1_555
C23 C7E 1_555 1_555
C23 C12E 1_555 1_555
C23 C23E 1_555 1_555
H16 H17 1_555 1_555
H17 C23E 1_555 1_555
C24 H19 1_555 1_555
C24 C12E 1_555 1_555
C24 C18N 1_555 1_555
C25 C24E 1_555 1_555
C25 C26K 1_555 1_555
C26 H22 1_555 1_555
C26 H23 1_555 1_555
C26 C11N 1_555 1_555
O1 O2 1_555 1_555
O2 C10N 1_555 1_555
O2 C20N 1_555 1_555
N1 C4K 1_555 1_555
N1 C5K 1_555 1_555
N1 C21K 1_555 1_555
N1 C22K 1_555 1_555
N1 H14K 1_555 1_555
C31 N5 1_555 1_555
C36 N9 1_555 1_555
C41 N10 1_555 1_555
C43 N6 1_555 1_555
C44 N7 1_555 1_555
C44 N8 1_555 1_555
C45 N12 1_555 1_555
C46 N12 1_555 1_555
C47 N12 1_555 1_555
C48 N11 1_555 1_555
C49 N11 1_555 1_555
C50 N11 1_555 1_555
C51 N13 1_555 1_555
C52 N13 1_555 1_555
C53 N13 1_555 1_555
C1N C11N 1_555 1_555
C1N C19N 1_555 1_555
C1N N1N 1_555 1_555
C2K C17K 1_555 1_555
C2K C18K 1_555 1_555
C2K C19K 1_555 1_555
C2K N1K 1_555 1_555
C2E C19E 1_555 1_555
C2E N1E 1_555 1_555
C2N C10N 1_555 1_555
C2N C18N 1_555 1_555
C2N C19N 1_555 1_555
C2N C20N 1_555 1_555
C2N N1N 1_555 1_555
C3K C4K 1_555 1_555
C3K C17K 1_555 1_555
C3K C18K 1_555 1_555
C3K C19K 1_555 1_555
C3K C21K 1_555 1_555
C3K C26K 1_555 1_555
C3E C11K 1_555 1_555
C3E C17E 1_555 1_555
C3E C18E 1_555 1_555
C3E C19E 1_555 1_555
C3N C11E 1_555 1_555
C3N C17N 1_555 1_555
C3N C18N 1_555 1_555
C3N C19N 1_555 1_555
C3N C21N 1_555 1_555
C4K C5K 1_555 1_555
C4K C17K 1_555 1_555
C4K C21K 1_555 1_555
C4K C26K 1_555 1_555
C4E C11K 1_555 1_555
C4E C17E 1_555 1_555
C4E C21E 1_555 1_555
C4E C26E 1_555 1_555
C4E N1K 1_555 1_555
C4N C11E 1_555 1_555
C4N C17N 1_555 1_555
C4N C21N 1_555 1_555
C4N C26N 1_555 1_555
C4N N1E 1_555 1_555
C5K C6K 1_555 1_555
C5K C19K 1_555 1_555
C5K C21K 1_555 1_555
C5K C22K 1_555 1_555
C5K H14K 1_555 1_555
C5K O1K 1_555 1_555
C5K O2K 1_555 1_555
C5E C6E 1_555 1_555
C5E C10K 1_555 1_555
C5E C19E 1_555 1_555
C5E C20K 1_555 1_555
C5E C21E 1_555 1_555
C5E O1E 1_555 1_555
C5E N1K 1_555 1_555
C5N C6N 1_555 1_555
C5N C10E 1_555 1_555
C5N C19N 1_555 1_555
C5N C20E 1_555 1_555
C5N C21N 1_555 1_555
C5N O1N 1_555 1_555
C5N N1E 1_555 1_555
C6K C19K 1_555 1_555
C6K O1K 1_555 1_555
C6E C7E 1_555 1_555
C6E C19E 1_555 1_555
C6E O1E 1_555 1_555
C6N C19N 1_555 1_555
C6N O1N 1_555 1_555
C7E C8E 1_555 1_555
C7E C12E 1_555 1_555
C7E C23E 1_555 1_555
C7E H17E 1_555 1_555
C7E O1E 1_555 1_555
C7K O1K 1_555 1_555
C7N C8N 1_555 1_555
C7N C8K 1_555 1_555
C7N C12N 1_555 1_555
C7N C23N 1_555 1_555
C7N C23K 1_555 1_555
C7N O1N 1_555 1_555
C8E C9E 1_555 1_555
C8E C23E 1_555 1_555
C8E H16E 1_555 1_555
C8E C24E 1_555 1_555
C8N C8K 1_555 1_555
C8N C23N 1_555 1_555
C8N H16N 1_555 1_555
C8K C9K 1_555 1_555
C8K C23K 1_555 1_555
C8K H16K 1_555 1_555
C8K C24K 1_555 1_555
C9E C10K 1_555 1_555
C9E C18K 1_555 1_555
C9E C20K 1_555 1_555
C9E C23E 1_555 1_555
C9E C24E 1_555 1_555
C9E O2E 1_555 1_555
C9N C10E 1_555 1_555
C9N C12K 1_555 1_555
C9N C18E 1_555 1_555
C9N C20E 1_555 1_555
C9N C23N 1_555 1_555
C9N C24N 1_555 1_555
C9N O2N 1_555 1_555
C9K C12N 1_555 1_555
C9K C23K 1_555 1_555
C9K C24K 1_555 1_555
C9K O2K 1_555 1_555
H3E C24E 1_555 1_555
H3E H19E 1_555 1_555
H3N C24N 1_555 1_555
H3N H19N 1_555 1_555
H3K C24K 1_555 1_555
H3K H19K 1_555 1_555
C10K C13K 1_555 1_555
C10K C18K 1_555 1_555
C10K C20K 1_555 1_555
C10K C22E 1_555 1_555
C10K H14E 1_555 1_555
C10K O2E 1_555 1_555
C10K N1K 1_555 1_555
C10N C13N 1_555 1_555
C10N C18N 1_555 1_555
C10N C20N 1_555 1_555
C10N N1N 1_555 1_555
C10E C13E 1_555 1_555
C10E C18E 1_555 1_555
C10E C20E 1_555 1_555
C10E C22N 1_555 1_555
C10E H14N 1_555 1_555
C10E O2N 1_555 1_555
C10E N1E 1_555 1_555
H4K C13K 1_555 1_555
H4K C20K 1_555 1_555
H4E C13E 1_555 1_555
H4E C20E 1_555 1_555
H4N C13N 1_555 1_555
H4N C20N 1_555 1_555
C11E C12E 1_555 1_555
C11E C17N 1_555 1_555
C11E C21N 1_555 1_555
C11E C25E 1_555 1_555
C11E C26N 1_555 1_555
C11N H5N 1_555 1_555
C11N C12N 1_555 1_555
C11N C25N 1_555 1_555
C11K C12K 1_555 1_555
C11K C17E 1_555 1_555
C11K C21E 1_555 1_555
C11K C26E 1_555 1_555
H5E C26N 1_555 1_555
H5K C26E 1_555 1_555
C12E H6E 1_555 1_555
C12E C18N 1_555 1_555
C12E C25E 1_555 1_555
C12K C18E 1_555 1_555
C12K C23N 1_555 1_555
C12K C24N 1_555 1_555
C12K C25K 1_555 1_555
C12N C23K 1_555 1_555
C12N C24K 1_555 1_555
C12N C25N 1_555 1_555
H6K C24N 1_555 1_555
H6K C25K 1_555 1_555
H6E C25E 1_555 1_555
H6N C24K 1_555 1_555
H6N C25N 1_555 1_555
C15K C16K 1_555 1_555
C15N C16N 1_555 1_555
C15E C16E 1_555 1_555
C16K C17K 1_555 1_555
C16K H11K 1_555 1_555
C16K C18K 1_555 1_555
C16K C26K 1_555 1_555
C16K H23K 1_555 1_555
C16N C17N 1_555 1_555
C16N H11N 1_555 1_555
C16N C18N 1_555 1_555
C16N C26N 1_555 1_555
C16N H23N 1_555 1_555
C16E C17E 1_555 1_555
C16E H11E 1_555 1_555
C16E C18E 1_555 1_555
C16E C26E 1_555 1_555
C16E H23E 1_555 1_555
C17N H11N 1_555 1_555
C17N C18N 1_555 1_555
C17N C19N 1_555 1_555
C17N C21N 1_555 1_555
C17N H13N 1_555 1_555
C17N C26N 1_555 1_555
C17N H23N 1_555 1_555
C17E H11E 1_555 1_555
C17E C18E 1_555 1_555
C17E C19E 1_555 1_555
C17E C21E 1_555 1_555
C17E H13E 1_555 1_555
C17E C26E 1_555 1_555
C17E H23E 1_555 1_555
C17K H11K 1_555 1_555
C17K C18K 1_555 1_555
C17K C19K 1_555 1_555
C17K C21K 1_555 1_555
C17K H13K 1_555 1_555
C17K C26K 1_555 1_555
C17K H23K 1_555 1_555
C18N H12N 1_555 1_555
C18N C20N 1_555 1_555
C18N C26N 1_555 1_555
C18E H12E 1_555 1_555
C18E C20E 1_555 1_555
C18E C24N 1_555 1_555
C18E C26E 1_555 1_555
C18K H12K 1_555 1_555
C18K C20K 1_555 1_555
C18K C24E 1_555 1_555
C18K C26K 1_555 1_555
C19E C21E 1_555 1_555
C19E H13E 1_555 1_555
C19E C22N 1_555 1_555
C19E O1E 1_555 1_555
C19E N1E 1_555 1_555
C19N C21N 1_555 1_555
C19N H13N 1_555 1_555
C19N O1N 1_555 1_555
C19N N1N 1_555 1_555
C19K C21K 1_555 1_555
C19K H13K 1_555 1_555
C19K C22E 1_555 1_555
C19K O1K 1_555 1_555
C19K N1K 1_555 1_555
C20N N1N 1_555 1_555
C20E C22N 1_555 1_555
C20E H14N 1_555 1_555
C20E O2N 1_555 1_555
C20E N1E 1_555 1_555
C20K C22E 1_555 1_555
C20K H14E 1_555 1_555
C20K O2E 1_555 1_555
C20K N1K 1_555 1_555
C21N H13N 1_555 1_555
C21N C26N 1_555 1_555
C21N N1E 1_555 1_555
C21K H13K 1_555 1_555
C21K C22E 1_555 1_555
C21K C26K 1_555 1_555
C21E H13E 1_555 1_555
C21E C22N 1_555 1_555
C21E C26E 1_555 1_555
C21E N1K 1_555 1_555
H13E O1E 1_555 1_555
H13N O1N 1_555 1_555
H13K O1K 1_555 1_555
C22E H14E 1_555 1_555
C22E C23E 1_555 1_555
C22E N1K 1_555 1_555
C22N H14N 1_555 1_555
C22N C23N 1_555 1_555
C22N N1E 1_555 1_555
C22K H14K 1_555 1_555
C22K H15K 1_555 1_555
C22K C23K 1_555 1_555
H14N N1E 1_555 1_555
H14E N1K 1_555 1_555
H15N N1E 1_555 1_555
H15E N1K 1_555 1_555
C23E H16E 1_555 1_555
C23E H17E 1_555 1_555
C23E C24E 1_555 1_555
C23N C23K 1_555 1_555
C23N H16N 1_555 1_555
C23N H17K 1_555 1_555
C23N H17N 1_555 1_555
C23N C24N 1_555 1_555
C23K H16K 1_555 1_555
C23K H17K 1_555 1_555
C23K H17N 1_555 1_555
C23K C24K 1_555 1_555
H16N H17N 1_555 1_555
H16K H17K 1_555 1_555
H16E H17E 1_555 1_555
C24E H19E 1_555 1_555
C24N H19N 1_555 1_555
C24N C25K 1_555 1_555
C24K H19K 1_555 1_555
C24K C25N 1_555 1_555
C25K C26E 1_555 1_555
C25E C26N 1_555 1_555
C26N H22N 1_555 1_555
C26N H23N 1_555 1_555
C26E H22E 1_555 1_555
C26E H23E 1_555 1_555
C26K H22K 1_555 1_555
C26K H23K 1_555 1_555
O1E O2E 1_555 1_555
O1K O2K 1_555 1_555
O1N O2N 1_555 1_555
C27K N5K 1_555 1_555
C27E N5E 1_555 1_555
C31K N5K 1_555 1_555
C31N N5N 1_555 1_555
C31E N5E 1_555 1_555
C32N N9N 1_555 1_555
C36N N9N 1_555 1_555
C36E N9E 1_555 1_555
C36K N9K 1_555 1_555
C37K N10K 1_555 1_555
C37E N10E 1_555 1_555
C37N N10N 1_555 1_555
C41K N10K 1_555 1_555
C41E N10E 1_555 1_555
C41N N10N 1_555 1_555
C43K N6K 1_555 1_555
C43E N6E 1_555 1_555
C43N N6N 1_555 1_555
C44K N7K 1_555 1_555
C44K N8K 1_555 1_555
C44E N7E 1_555 1_555
C44E N8E 1_555 1_555
C44N N7N 1_555 1_555
C44N N8N 1_555 1_555
C45N N12N 1_555 1_555
C45E N12E 1_555 1_555
C45K N12K 1_555 1_555
C46N N12N 1_555 1_555
C46E N12E 1_555 1_555
C46K N12K 1_555 1_555
C47N N12N 1_555 1_555
C47E N12E 1_555 1_555
C47K N12K 1_555 1_555
C48N N11N 1_555 1_555
C48E N11E 1_555 1_555
C48K N11K 1_555 1_555
C49N N11N 1_555 1_555
C49E N11E 1_555 1_555
C49K N11K 1_555 1_555
C50N N11N 1_555 1_555
C50E N11E 1_555 1_555
C50K N11K 1_555 1_555
C51N N13N 1_555 1_555
C51K N13K 1_555 1_555
C51E N13E 1_555 1_555
C52K N13K 1_555 1_555
C52N N13N 1_555 1_555
C52E N13E 1_555 1_555
C53K N13K 1_555 1_555
C53N N13N 1_555 1_555
C53E N13E 1_555 1_555

#END
