
#######################################################################
#
#                 Cambridge Crystallographic Data Centre
#                                CCDC 
#
#######################################################################
#
# If this CIF has been generated from an entry in the Cambridge 
# Structural Database, then it will include bibliographic, chemical, 
# crystal, experimental, refinement or atomic coordinate data resulting 
# from the CCDC's data processing and validation procedures.
#
#######################################################################

data_ECOLUD
_chemical_formula_moiety         'C228 H216 Cu24 O144 S12,14.5(H2 O1)'
_chemical_name_systematic        
'tetracosakis(\m~4~-5-Hydroxybenzene-1,3-dicarboxylato)-dodecakis((methanolato)-(dimethylsulfoxy))-tetracosa-copper hydrate'
_symmetry_cell_setting           tetragonal
_symmetry_space_group_name_H-M   'I 4/m m m'
_symmetry_Int_Tables_number      139
_space_group_name_Hall           '-I 4 2'
loop_
_symmetry_equiv_pos_site_id
_symmetry_equiv_pos_as_xyz
1 x,y,z
2 -y,x,z
3 y,-x,z
4 y,x,-z
5 1/2+x,1/2+y,1/2+z
6 1/2-y,1/2+x,1/2+z
7 1/2+y,1/2-x,1/2+z
8 1/2+y,1/2+x,1/2-z
9 -x,-y,z
10 -x,y,-z
11 x,-y,-z
12 -y,-x,-z
13 1/2-x,1/2-y,1/2+z
14 1/2-x,1/2+y,1/2-z
15 1/2+x,1/2-y,1/2-z
16 1/2-y,1/2-x,1/2-z
17 -x,-y,-z
18 y,-x,-z
19 -y,x,-z
20 -y,-x,z
21 1/2-x,1/2-y,1/2-z
22 1/2+y,1/2-x,1/2-z
23 1/2-y,1/2+x,1/2-z
24 1/2-y,1/2-x,1/2+z
25 x,y,-z
26 x,-y,z
27 -x,y,z
28 y,x,z
29 1/2+x,1/2+y,1/2-z
30 1/2+x,1/2-y,1/2+z
31 1/2-x,1/2+y,1/2+z
32 1/2+y,1/2+x,1/2+z
_cell_length_a                   31.111(4)
_cell_length_b                   31.111(4)
_cell_length_c                   35.999(6)
_cell_angle_alpha                90
_cell_angle_beta                 90
_cell_angle_gamma                90
_cell_volume                     34843.2
_exptl_crystal_colour            'blue green'
_exptl_crystal_description       block
_cell_formula_units_Z            4
loop_
_atom_site_label
_atom_site_type_symbol
_atom_site_fract_x
_atom_site_fract_y
_atom_site_fract_z
Cu1 Cu 0.25604(10) 1.0000 1.0000
Cu2 Cu 0.34134(11) 1.0000 1.0000
Cu3 Cu 0.17093(6) 0.82907(6) 0.79193(8)
Cu4 Cu 0.12862(6) 0.87138(6) 0.84396(8)
O1 O 0.1899(9) 1.0000 1.0000
O2 O 0.4085(9) 1.0000 1.0000
O3 O 0.2049(3) 0.7951(3) 0.7501(5)
O4 O 0.0941(4) 0.9059(4) 0.8858(7)
O5 O 0.3353(4) 0.9562(4) 0.9620(3)
O6 O 0.2633(3) 0.9558(3) 0.9617(3)
O7 O 0.2217(4) 0.8416(4) 0.8216(3)
O8 O 0.1855(4) 0.8784(3) 0.8666(3)
O9 O 0.3748(5) 0.8569(8) 0.8591(6)
O10 O 0.0780(3) 0.8601(4) 0.8137(3)
O11 O 0.1138(4) 0.8235(4) 0.7690(3)
O12 O 0.0000 0.7837(14) 0.6782(7)
S1 S 0.2033(2) 0.7967(2) 0.7137(3)
C1 C 0.2993(7) 0.9136(6) 0.9172(5)
C2 C 0.2601(6) 0.9010(5) 0.9011(5)
H1 H 0.2337 0.9106 0.9115
C3 C 0.2599(6) 0.8748(5) 0.8705(5)
C4 C 0.3001(8) 0.8574(6) 0.8584(6)
H2 H 0.3008 0.8365 0.8392
C5 C 0.3381(7) 0.8714(9) 0.8748(8)
C6 C 0.3369(7) 0.9007(7) 0.9051(6)
H3 H 0.3627 0.9107 0.9162
C7 C 0.2997(6) 0.9457(6) 0.9493(4)
C8 C 0.2178(6) 0.8641(6) 0.8516(5)
C9 C 0.0000 0.8390(7) 0.7827(7)
H4 H 0.0000 0.8520 0.8066
C10 C 0.0374(6) 0.8290(5) 0.7643(5)
C11 C 0.0387(7) 0.8080(8) 0.7298(6)
H5 H 0.0652 0.8002 0.7185
C12 C 0.0000 0.7992(10) 0.7131(10)
C13 C 0.0815(6) 0.8382(6) 0.7848(5)
C14 C 0.2380(8) 0.7620(8) 0.6898(9)
C15 C 0.4394(19) 1.0000 0.9726(16)
C15X C 0.4394(19) 1.0000 1.0274(16)
O5X O 0.3353(4) 0.9562(4) 1.0380(3)
C7X C 0.2997(6) 0.9457(6) 1.0507(4)
O6X O 0.2633(3) 0.9558(3) 1.0383(3)
O6Y O 0.2633(3) 1.0442(3) 0.9617(3)
C7Y C 0.2997(6) 1.0543(6) 0.9493(4)
O5Y O 0.3353(4) 1.0438(4) 0.9620(3)
O5J O 0.3353(4) 1.0438(4) 1.0380(3)
C7J C 0.2997(6) 1.0543(6) 1.0507(4)
O6J O 0.2633(3) 1.0442(3) 1.0383(3)
C1J C 0.2993(7) 1.0864(6) 1.0828(5)
C2J C 0.2601(6) 1.0990(5) 1.0989(5)
H1J H 0.2337 1.0894 1.0885
C3J C 0.2599(6) 1.1252(5) 1.1295(5)
C4J C 0.3001(8) 1.1426(6) 1.1416(6)
H2J H 0.3008 1.1635 1.1608
C5J C 0.3381(7) 1.1286(9) 1.1252(8)
O9J O 0.3748(5) 1.1431(8) 1.1409(6)
C6J C 0.3369(7) 1.0993(7) 1.0949(6)
H3J H 0.3627 1.0893 1.0838
C8J C 0.2178(6) 1.1359(6) 1.1484(5)
O7J O 0.2217(4) 1.1584(4) 1.1784(3)
Cu3J Cu 0.17093(6) 1.17093(6) 1.20807(8)
O3J O 0.2049(3) 1.2049(3) 1.2499(5)
S1J S 0.2033(2) 1.2033(2) 1.2863(3)
C14J C 0.2380(8) 1.2380(8) 1.3102(9)
O7R O 0.1584(4) 1.2217(4) 1.1784(3)
C8R C 0.1359(6) 1.2178(6) 1.1484(5)
O8R O 0.1216(3) 1.1855(4) 1.1334(3)
Cu4R Cu 0.12862(6) 1.12862(6) 1.15604(8)
O4R O 0.0941(4) 1.0941(4) 1.1142(7)
O8J O 0.1855(4) 1.1216(3) 1.1334(3)
O10R O 0.1399(4) 1.0780(3) 1.1863(3)
C13R C 0.1618(6) 1.0815(6) 1.2152(5)
O11R O 0.1765(4) 1.1138(4) 1.2310(3)
O11J O 0.1138(4) 1.1765(4) 1.2310(3)
C13J C 0.0815(6) 1.1618(6) 1.2152(5)
O10J O 0.0780(3) 1.1399(4) 1.1863(3)
C10J C 0.0374(6) 1.1710(5) 1.2357(5)
C9J C 0.0000 1.1610(7) 1.2173(7)
H4J H 0.0000 1.1480 1.1934
C10P C -0.0374(6) 1.1710(5) 1.2357(5)
C11P C -0.0387(7) 1.1920(8) 1.2702(6)
H5P H -0.0652 1.1998 1.2815
C12P C 0.0000 1.2008(10) 1.2869(10)
O12P O 0.0000 1.2163(14) 1.3218(7)
C11J C 0.0387(7) 1.1920(8) 1.2702(6)
H5J H 0.0652 1.1998 1.2815
C13P C -0.0815(6) 1.1618(6) 1.2152(5)
O10P O -0.0780(3) 1.1399(4) 1.1863(3)
Cu4P Cu -0.12862(6) 1.12862(6) 1.15604(8)
O4P O -0.0941(4) 1.0941(4) 1.1142(7)
O8P O -0.1855(4) 1.1216(3) 1.1334(3)
C8P C -0.2178(6) 1.1359(6) 1.1484(5)
O7P O -0.2217(4) 1.1584(4) 1.1784(3)
Cu3P Cu -0.17093(6) 1.17093(6) 1.20807(8)
O3P O -0.2049(3) 1.2049(3) 1.2499(5)
S1P S -0.2033(2) 1.2033(2) 1.2863(3)
C14P C -0.2380(8) 1.2380(8) 1.3102(9)
O7C O -0.1584(4) 1.2217(4) 1.1784(3)
C8C C -0.1359(6) 1.2178(6) 1.1484(5)
O8C O -0.1216(3) 1.1855(4) 1.1334(3)
O10C O -0.1399(4) 1.0780(3) 1.1863(3)
C13C C -0.1618(6) 1.0815(6) 1.2152(5)
O11C O -0.1765(4) 1.1138(4) 1.2310(3)
O11P O -0.1138(4) 1.1765(4) 1.2310(3)
C10C C -0.1710(5) 1.0374(6) 1.2357(5)
C9C C -0.1610(7) 1.0000 1.2173(7)
H4C H -0.1480 1.0000 1.1934
C10Q C -0.1710(5) 0.9626(6) 1.2357(5)
C11Q C -0.1920(8) 0.9613(7) 1.2702(6)
H5Q H -0.1998 0.9348 1.2815
C12Q C -0.2008(10) 1.0000 1.2869(10)
O12Q O -0.2163(14) 1.0000 1.3218(7)
C11C C -0.1920(8) 1.0387(7) 1.2702(6)
H5C H -0.1998 1.0652 1.2815
C13Q C -0.1618(6) 0.9185(6) 1.2152(5)
O10Q O -0.1399(4) 0.9220(3) 1.1863(3)
Cu4Q Cu -0.12862(6) 0.87138(6) 1.15604(8)
O4Q O -0.0941(4) 0.9059(4) 1.1142(7)
O8Q O -0.1216(3) 0.8145(4) 1.1334(3)
C8Q C -0.1359(6) 0.7822(6) 1.1484(5)
O7Q O -0.1584(4) 0.7783(4) 1.1784(3)
Cu3Q Cu -0.17093(6) 0.82907(6) 1.20807(8)
O3Q O -0.2049(3) 0.7951(3) 1.2499(5)
S1Q S -0.2033(2) 0.7967(2) 1.2863(3)
C14Q C -0.2380(8) 0.7620(8) 1.3102(9)
O7I O -0.2217(4) 0.8416(4) 1.1784(3)
C8I C -0.2178(6) 0.8641(6) 1.1484(5)
O8I O -0.1855(4) 0.8784(3) 1.1334(3)
O10I O -0.0780(3) 0.8601(4) 1.1863(3)
C13I C -0.0815(6) 0.8382(6) 1.2152(5)
O11I O -0.1138(4) 0.8235(4) 1.2310(3)
O11Q O -0.1765(4) 0.8862(4) 1.2310(3)
C10I C -0.0374(6) 0.8290(5) 1.2357(5)
C9I C 0.0000 0.8390(7) 1.2173(7)
H4I H 0.0000 0.8520 1.1934
C10X C 0.0374(6) 0.8290(5) 1.2357(5)
C11X C 0.0387(7) 0.8080(8) 1.2702(6)
H5X H 0.0652 0.8002 1.2815
C12X C 0.0000 0.7992(10) 1.2869(10)
O12X O 0.0000 0.7837(14) 1.3218(7)
C11I C -0.0387(7) 0.8080(8) 1.2702(6)
H5I H -0.0652 0.8002 1.2815
C13X C 0.0815(6) 0.8382(6) 1.2152(5)
O10X O 0.0780(3) 0.8601(4) 1.1863(3)
Cu4X Cu 0.12862(6) 0.87138(6) 1.15604(8)
O4X O 0.0941(4) 0.9059(4) 1.1142(7)
O8X O 0.1855(4) 0.8784(3) 1.1334(3)
C8X C 0.2178(6) 0.8641(6) 1.1484(5)
O7X O 0.2217(4) 0.8416(4) 1.1784(3)
Cu3X Cu 0.17093(6) 0.82907(6) 1.20807(8)
O3X O 0.2049(3) 0.7951(3) 1.2499(5)
S1X S 0.2033(2) 0.7967(2) 1.2863(3)
C14X C 0.2380(8) 0.7620(8) 1.3102(9)
O7K O 0.1584(4) 0.7783(4) 1.1784(3)
C8K C 0.1359(6) 0.7822(6) 1.1484(5)
O8K O 0.1216(3) 0.8145(4) 1.1334(3)
O10K O 0.1399(4) 0.9220(3) 1.1863(3)
C13K C 0.1618(6) 0.9185(6) 1.2152(5)
O11K O 0.1765(4) 0.8862(4) 1.2310(3)
O11X O 0.1138(4) 0.8235(4) 1.2310(3)
C10K C 0.1710(5) 0.9626(6) 1.2357(5)
C9K C 0.1610(7) 1.0000 1.2173(7)
H4K H 0.1480 1.0000 1.1934
C10R C 0.1710(5) 1.0374(6) 1.2357(5)
C11R C 0.1920(8) 1.0387(7) 1.2702(6)
H5R H 0.1998 1.0652 1.2815
C12R C 0.2008(10) 1.0000 1.2869(10)
O12R O 0.2163(14) 1.0000 1.3218(7)
C11K C 0.1920(8) 0.9613(7) 1.2702(6)
H5K H 0.1998 0.9348 1.2815
C3K C 0.1252(5) 0.7401(6) 1.1295(5)
C2K C 0.0990(5) 0.7399(6) 1.0989(5)
C1K C 0.0864(6) 0.7007(7) 1.0828(5)
C6K C 0.0993(7) 0.6631(7) 1.0949(6)
C5K C 0.1286(9) 0.6619(7) 1.1252(8)
O9K O 0.1431(8) 0.6252(5) 1.1409(6)
C4K C 0.1426(6) 0.6999(8) 1.1416(6)
H2K H 0.1635 0.6992 1.1608
H3K H 0.0893 0.6373 1.0838
C7K C 0.0543(6) 0.7003(6) 1.0507(4)
O5K O 0.0438(4) 0.6647(4) 1.0380(3)
Cu2K Cu 0.0000 0.65866(11) 1.0000
O2K O 0.0000 0.5915(9) 1.0000
C15K C 0.0000 0.5606(19) 1.0274(16)
C15S C 0.0000 0.5606(19) 0.9726(16)
O5S O 0.0438(4) 0.6647(4) 0.9620(3)
C7S C 0.0543(6) 0.7003(6) 0.9493(4)
O6S O 0.0442(3) 0.7367(3) 0.9617(3)
Cu1S Cu 0.0000 0.74396(10) 1.0000
O1S O 0.0000 0.8101(9) 1.0000
O6K O 0.0442(3) 0.7367(3) 1.0383(3)
O6B O -0.0442(3) 0.7367(3) 0.9617(3)
C7B C -0.0543(6) 0.7003(6) 0.9493(4)
O5B O -0.0438(4) 0.6647(4) 0.9620(3)
O5Q O -0.0438(4) 0.6647(4) 1.0380(3)
C7Q C -0.0543(6) 0.7003(6) 1.0507(4)
O6Q O -0.0442(3) 0.7367(3) 1.0383(3)
C1Q C -0.0864(6) 0.7007(7) 1.0828(5)
C2Q C -0.0990(5) 0.7399(6) 1.0989(5)
H1Q H -0.0894 0.7663 1.0885
C3Q C -0.1252(5) 0.7401(6) 1.1295(5)
C4Q C -0.1426(6) 0.6999(8) 1.1416(6)
H2Q H -0.1635 0.6992 1.1608
C5Q C -0.1286(9) 0.6619(7) 1.1252(8)
O9Q O -0.1431(8) 0.6252(5) 1.1409(6)
C6Q C -0.0993(7) 0.6631(7) 1.0949(6)
H3Q H -0.0893 0.6373 1.0838
C1B C -0.0864(6) 0.7007(7) 0.9172(5)
C2B C -0.0990(5) 0.7399(6) 0.9011(5)
H1B H -0.0894 0.7663 0.9115
C3B C -0.1252(5) 0.7401(6) 0.8705(5)
C4B C -0.1426(6) 0.6999(8) 0.8584(6)
H2B H -0.1635 0.6992 0.8392
C5B C -0.1286(9) 0.6619(7) 0.8748(8)
O9B O -0.1431(8) 0.6252(5) 0.8591(6)
C6B C -0.0993(7) 0.6631(7) 0.9051(6)
H3B H -0.0893 0.6373 0.9162
C8B C -0.1359(6) 0.7822(6) 0.8516(5)
O7B O -0.1584(4) 0.7783(4) 0.8216(3)
Cu3B Cu -0.17093(6) 0.82907(6) 0.79193(8)
O3B O -0.2049(3) 0.7951(3) 0.7501(5)
S1B S -0.2033(2) 0.7967(2) 0.7137(3)
C14B C -0.2380(8) 0.7620(8) 0.6898(9)
O7Z O -0.2217(4) 0.8416(4) 0.8216(3)
C8Z C -0.2178(6) 0.8641(6) 0.8516(5)
O8Z O -0.1855(4) 0.8784(3) 0.8666(3)
Cu4Z Cu -0.12862(6) 0.87138(6) 0.84396(8)
O4Z O -0.0941(4) 0.9059(4) 0.8858(7)
O8B O -0.1216(3) 0.8145(4) 0.8666(3)
O10Z O -0.0780(3) 0.8601(4) 0.8137(3)
C13Z C -0.0815(6) 0.8382(6) 0.7848(5)
O11Z O -0.1138(4) 0.8235(4) 0.7690(3)
O11B O -0.1765(4) 0.8862(4) 0.7690(3)
C13B C -0.1618(6) 0.9185(6) 0.7848(5)
O10B O -0.1399(4) 0.9220(3) 0.8137(3)
C10B C -0.1710(5) 0.9626(6) 0.7643(5)
C9B C -0.1610(7) 1.0000 0.7827(7)
H4B H -0.1480 1.0000 0.8066
C10AA C -0.1710(5) 1.0374(6) 0.7643(5)
C11AA C -0.1920(8) 1.0387(7) 0.7298(6)
H5AA H -0.1998 1.0652 0.7185
C12AA C -0.2008(10) 1.0000 0.7131(10)
O12AA O -0.2163(14) 1.0000 0.6782(7)
C11B C -0.1920(8) 0.9613(7) 0.7298(6)
H5B H -0.1998 0.9348 0.7185
C13AA C -0.1618(6) 1.0815(6) 0.7848(5)
O10AA O -0.1399(4) 1.0780(3) 0.8137(3)
Cu4AA Cu -0.12862(6) 1.12862(6) 0.84396(8)
O4AA O -0.0941(4) 1.0941(4) 0.8858(7)
O8AA O -0.1216(3) 1.1855(4) 0.8666(3)
C8AA C -0.1359(6) 1.2178(6) 0.8516(5)
O7AA O -0.1584(4) 1.2217(4) 0.8216(3)
Cu3AA Cu -0.17093(6) 1.17093(6) 0.79193(8)
O3AA O -0.2049(3) 1.2049(3) 0.7501(5)
S1AA S -0.2033(2) 1.2033(2) 0.7137(3)
C14AA C -0.2380(8) 1.2380(8) 0.6898(9)
O7H O -0.2217(4) 1.1584(4) 0.8216(3)
C8H C -0.2178(6) 1.1359(6) 0.8516(5)
O8H O -0.1855(4) 1.1216(3) 0.8666(3)
O10H O -0.0780(3) 1.1399(4) 0.8137(3)
C13H C -0.0815(6) 1.1618(6) 0.7848(5)
O11H O -0.1138(4) 1.1765(4) 0.7690(3)
O11AA O -0.1765(4) 1.1138(4) 0.7690(3)
C10H C -0.0374(6) 1.1710(5) 0.7643(5)
C9H C 0.0000 1.1610(7) 0.7827(7)
H4H H 0.0000 1.1480 0.8066
C10Y C 0.0374(6) 1.1710(5) 0.7643(5)
C11Y C 0.0387(7) 1.1920(8) 0.7298(6)
H5Y H 0.0652 1.1998 0.7185
C12Y C 0.0000 1.2008(10) 0.7131(10)
O12Y O 0.0000 1.2163(14) 0.6782(7)
C11H C -0.0387(7) 1.1920(8) 0.7298(6)
H5H H -0.0652 1.1998 0.7185
C13Y C 0.0815(6) 1.1618(6) 0.7848(5)
O10Y O 0.0780(3) 1.1399(4) 0.8137(3)
Cu4Y Cu 0.12862(6) 1.12862(6) 0.84396(8)
O4Y O 0.0941(4) 1.0941(4) 0.8858(7)
O8Y O 0.1855(4) 1.1216(3) 0.8666(3)
C8Y C 0.2178(6) 1.1359(6) 0.8516(5)
O7Y O 0.2217(4) 1.1584(4) 0.8216(3)
Cu3Y Cu 0.17093(6) 1.17093(6) 0.79193(8)
O3Y O 0.2049(3) 1.2049(3) 0.7501(5)
S1Y S 0.2033(2) 1.2033(2) 0.7137(3)
C14Y C 0.2380(8) 1.2380(8) 0.6898(9)
O7A O 0.1584(4) 1.2217(4) 0.8216(3)
C8A C 0.1359(6) 1.2178(6) 0.8516(5)
O8A O 0.1216(3) 1.1855(4) 0.8666(3)
O10A O 0.1399(4) 1.0780(3) 0.8137(3)
C13A C 0.1618(6) 1.0815(6) 0.7848(5)
O11A O 0.1765(4) 1.1138(4) 0.7690(3)
O11Y O 0.1138(4) 1.1765(4) 0.7690(3)
C10A C 0.1710(5) 1.0374(6) 0.7643(5)
C9A C 0.1610(7) 1.0000 0.7827(7)
H4A H 0.1480 1.0000 0.8066
C10S C 0.1710(5) 0.9626(6) 0.7643(5)
C11S C 0.1920(8) 0.9613(7) 0.7298(6)
H5S H 0.1998 0.9348 0.7185
C12S C 0.2008(10) 1.0000 0.7131(10)
O12S O 0.2163(14) 1.0000 0.6782(7)
C11A C 0.1920(8) 1.0387(7) 0.7298(6)
H5A H 0.1998 1.0652 0.7185
C13S C 0.1618(6) 0.9185(6) 0.7848(5)
O10S O 0.1399(4) 0.9220(3) 0.8137(3)
O7S O 0.1584(4) 0.7783(4) 0.8216(3)
C8S C 0.1359(6) 0.7822(6) 0.8516(5)
O8S O 0.1216(3) 0.8145(4) 0.8666(3)
O11S O 0.1765(4) 0.8862(4) 0.7690(3)
C10Z C -0.0374(6) 0.8290(5) 0.7643(5)
C11Z C -0.0387(7) 0.8080(8) 0.7298(6)
H5Z H -0.0652 0.8002 0.7185
C3S C 0.1252(5) 0.7401(6) 0.8705(5)
C2S C 0.0990(5) 0.7399(6) 0.9011(5)
C1S C 0.0864(6) 0.7007(7) 0.9172(5)
C6S C 0.0993(7) 0.6631(7) 0.9051(6)
C5S C 0.1286(9) 0.6619(7) 0.8748(8)
O9S O 0.1431(8) 0.6252(5) 0.8591(6)
C4S C 0.1426(6) 0.6999(8) 0.8584(6)
H2S H 0.1635 0.6992 0.8392
H3S H 0.0893 0.6373 0.9162
H1S H 0.0894 0.7663 0.9115
C3A C 0.1252(5) 1.2599(6) 0.8705(5)
C2A C 0.0990(5) 1.2601(6) 0.9011(5)
C1A C 0.0864(6) 1.2993(7) 0.9172(5)
C6A C 0.0993(7) 1.3369(7) 0.9051(6)
C5A C 0.1286(9) 1.3381(7) 0.8748(8)
O9A O 0.1431(8) 1.3748(5) 0.8591(6)
C4A C 0.1426(6) 1.3001(8) 0.8584(6)
H2A H 0.1635 1.3008 0.8392
H3A H 0.0893 1.3627 0.9162
C7A C 0.0543(6) 1.2997(6) 0.9493(4)
O5A O 0.0438(4) 1.3353(4) 0.9620(3)
Cu2A Cu 0.0000 1.34134(11) 1.0000
O2A O 0.0000 1.4085(9) 1.0000
C15A C 0.0000 1.4394(19) 0.9726(16)
C15R C 0.0000 1.4394(19) 1.0274(16)
O5R O 0.0438(4) 1.3353(4) 1.0380(3)
C7R C 0.0543(6) 1.2997(6) 1.0507(4)
O6R O 0.0442(3) 1.2633(3) 1.0383(3)
Cu1R Cu 0.0000 1.25604(10) 1.0000
O1R O 0.0000 1.1899(9) 1.0000
O6A O 0.0442(3) 1.2633(3) 0.9617(3)
O6C O -0.0442(3) 1.2633(3) 1.0383(3)
C7C C -0.0543(6) 1.2997(6) 1.0507(4)
O5C O -0.0438(4) 1.3353(4) 1.0380(3)
O5AA O -0.0438(4) 1.3353(4) 0.9620(3)
C7AA C -0.0543(6) 1.2997(6) 0.9493(4)
O6AA O -0.0442(3) 1.2633(3) 0.9617(3)
C1AA C -0.0864(6) 1.2993(7) 0.9172(5)
C2AA C -0.0990(5) 1.2601(6) 0.9011(5)
H1AA H -0.0894 1.2337 0.9115
C3AA C -0.1252(5) 1.2599(6) 0.8705(5)
C4AA C -0.1426(6) 1.3001(8) 0.8584(6)
H2AA H -0.1635 1.3008 0.8392
C5AA C -0.1286(9) 1.3381(7) 0.8748(8)
O9AA O -0.1431(8) 1.3748(5) 0.8591(6)
C6AA C -0.0993(7) 1.3369(7) 0.9051(6)
H3AA H -0.0893 1.3627 0.9162
C1C C -0.0864(6) 1.2993(7) 1.0828(5)
C2C C -0.0990(5) 1.2601(6) 1.0989(5)
H1C H -0.0894 1.2337 1.0885
C3C C -0.1252(5) 1.2599(6) 1.1295(5)
C4C C -0.1426(6) 1.3001(8) 1.1416(6)
H2C H -0.1635 1.3008 1.1608
C5C C -0.1286(9) 1.3381(7) 1.1252(8)
O9C O -0.1431(8) 1.3748(5) 1.1409(6)
C6C C -0.0993(7) 1.3369(7) 1.0949(6)
H3C H -0.0893 1.3627 1.0838
C1R C 0.0864(6) 1.2993(7) 1.0828(5)
C2R C 0.0990(5) 1.2601(6) 1.0989(5)
H1R H 0.0894 1.2337 1.0885
C3R C 0.1252(5) 1.2599(6) 1.1295(5)
C4R C 0.1426(6) 1.3001(8) 1.1416(6)
H2R H 0.1635 1.3008 1.1608
C5R C 0.1286(9) 1.3381(7) 1.1252(8)
O9R O 0.1431(8) 1.3748(5) 1.1409(6)
C6R C 0.0993(7) 1.3369(7) 1.0949(6)
H3R H 0.0893 1.3627 1.0838
H1A H 0.0894 1.2337 0.9115
C3Y C 0.2599(6) 1.1252(5) 0.8705(5)
C2Y C 0.2601(6) 1.0990(5) 0.9011(5)
C1Y C 0.2993(7) 1.0864(6) 0.9172(5)
C6Y C 0.3369(7) 1.0993(7) 0.9051(6)
C5Y C 0.3381(7) 1.1286(9) 0.8748(8)
O9Y O 0.3748(5) 1.1431(8) 0.8591(6)
C4Y C 0.3001(8) 1.1426(6) 0.8584(6)
H2Y H 0.3008 1.1635 0.8392
H3Y H 0.3627 1.0893 0.9162
H1Y H 0.2337 1.0894 0.9115
C3H C -0.2599(6) 1.1252(5) 0.8705(5)
C2H C -0.2601(6) 1.0990(5) 0.9011(5)
C1H C -0.2993(7) 1.0864(6) 0.9172(5)
C6H C -0.3369(7) 1.0993(7) 0.9051(6)
C5H C -0.3381(7) 1.1286(9) 0.8748(8)
O9H O -0.3748(5) 1.1431(8) 0.8591(6)
C4H C -0.3001(8) 1.1426(6) 0.8584(6)
H2H H -0.3008 1.1635 0.8392
H3H H -0.3627 1.0893 0.9162
C7H C -0.2997(6) 1.0543(6) 0.9493(4)
O5H O -0.3353(4) 1.0438(4) 0.9620(3)
Cu2H Cu -0.34134(11) 1.0000 1.0000
O2H O -0.4085(9) 1.0000 1.0000
C15H C -0.4394(19) 1.0000 0.9726(16)
C15P C -0.4394(19) 1.0000 1.0274(16)
O5P O -0.3353(4) 1.0438(4) 1.0380(3)
C7P C -0.2997(6) 1.0543(6) 1.0507(4)
O6P O -0.2633(3) 1.0442(3) 1.0383(3)
Cu1P Cu -0.25604(10) 1.0000 1.0000
O1P O -0.1899(9) 1.0000 1.0000
O6H O -0.2633(3) 1.0442(3) 0.9617(3)
O6I O -0.2633(3) 0.9558(3) 1.0383(3)
C7I C -0.2997(6) 0.9457(6) 1.0507(4)
O5I O -0.3353(4) 0.9562(4) 1.0380(3)
O5Z O -0.3353(4) 0.9562(4) 0.9620(3)
C7Z C -0.2997(6) 0.9457(6) 0.9493(4)
O6Z O -0.2633(3) 0.9558(3) 0.9617(3)
C1Z C -0.2993(7) 0.9136(6) 0.9172(5)
C2Z C -0.2601(6) 0.9010(5) 0.9011(5)
H1Z H -0.2337 0.9106 0.9115
C3Z C -0.2599(6) 0.8748(5) 0.8705(5)
C4Z C -0.3001(8) 0.8574(6) 0.8584(6)
H2Z H -0.3008 0.8365 0.8392
C5Z C -0.3381(7) 0.8714(9) 0.8748(8)
O9Z O -0.3748(5) 0.8569(8) 0.8591(6)
C6Z C -0.3369(7) 0.9007(7) 0.9051(6)
H3Z H -0.3627 0.9107 0.9162
C1I C -0.2993(7) 0.9136(6) 1.0828(5)
C2I C -0.2601(6) 0.9010(5) 1.0989(5)
H1I H -0.2337 0.9106 1.0885
C3I C -0.2599(6) 0.8748(5) 1.1295(5)
C4I C -0.3001(8) 0.8574(6) 1.1416(6)
H2I H -0.3008 0.8365 1.1608
C5I C -0.3381(7) 0.8714(9) 1.1252(8)
O9I O -0.3748(5) 0.8569(8) 1.1409(6)
C6I C -0.3369(7) 0.9007(7) 1.0949(6)
H3I H -0.3627 0.9107 1.0838
C1P C -0.2993(7) 1.0864(6) 1.0828(5)
C2P C -0.2601(6) 1.0990(5) 1.0989(5)
H1P H -0.2337 1.0894 1.0885
C3P C -0.2599(6) 1.1252(5) 1.1295(5)
C4P C -0.3001(8) 1.1426(6) 1.1416(6)
H2P H -0.3008 1.1635 1.1608
C5P C -0.3381(7) 1.1286(9) 1.1252(8)
O9P O -0.3748(5) 1.1431(8) 1.1409(6)
C6P C -0.3369(7) 1.0993(7) 1.0949(6)
H3P H -0.3627 1.0893 1.0838
H1H H -0.2337 1.0894 0.9115
H1K H 0.0894 0.7663 1.0885
C3X C 0.2599(6) 0.8748(5) 1.1295(5)
C2X C 0.2601(6) 0.9010(5) 1.0989(5)
C1X C 0.2993(7) 0.9136(6) 1.0828(5)
C6X C 0.3369(7) 0.9007(7) 1.0949(6)
C5X C 0.3381(7) 0.8714(9) 1.1252(8)
O9X O 0.3748(5) 0.8569(8) 1.1409(6)
C4X C 0.3001(8) 0.8574(6) 1.1416(6)
H2X H 0.3008 0.8365 1.1608
H3X H 0.3627 0.9107 1.0838
H1X H 0.2337 0.9106 1.0885
O13 O 0.0808(16) 0.7668(16) 0.6115(16)
O14 O 0.2368(15) 0.7632(15) 0.561(2)
O15 O 0.3841(16) 0.7873(16) 0.7389(15)
O16 O 0.288(2) 1.0000 0.792(2)
O17 O 0.3675(16) 0.8177(16) 0.7968(14)
O18 O 0.1819(14) 0.8750(14) 0.9672(13)
O19 O 0.373(3) 0.829(3) 0.0000
O20 O 0.0000 0.941(2) 0.8267(18)
O21 O 0.1274(9) 0.0000 0.9223(8)
O22? O 0.1584(15) 0.0000 0.8999(14)
O23? O 0.3957(9) 0.7832(10) 0.7846(8)
O24? O 0.3114(11) 0.9784(9) 0.8219(9)
O25? O 0.3322(16) 1.0000 0.7898(14)
O26? O 0.4088(15) 0.8260(15) 0.7721(14)
O27? O 0.2712(13) 0.7288(13) 0.5856(17)
O28? O 0.277(4) 1.0000 0.829(3)
O29? O 0.2722(13) 0.7278(13) 0.5123(19)
loop_
_geom_bond_atom_site_label_1
_geom_bond_atom_site_label_2
_geom_bond_site_symmetry_1
_geom_bond_site_symmetry_2
Cu1 O1 1_555 1_555
Cu2 O2 1_555 1_555
Cu3 O3 1_555 1_555
Cu4 O4 1_555 1_555
O2 C15 1_555 1_555
O3 S1 1_555 1_555
O5 Cu2 1_555 1_555
O6 Cu1 1_555 1_555
O7 Cu3 1_555 1_555
O8 Cu4 1_555 1_555
O9 C5 1_555 1_555
O10 Cu4 1_555 1_555
O11 Cu3 1_555 1_555
O12 C12 1_555 1_555
S1 C14 1_555 1_555
C1 C2 1_555 1_555
C2 H1 1_555 1_555
C3 C2 1_555 1_555
C4 C3 1_555 1_555
H2 C4 1_555 1_555
C5 C4 1_555 1_555
C6 C1 1_555 1_555
H3 C6 1_555 1_555
C7 O5 1_555 1_555
C8 O7 1_555 1_555
C9 H4 1_555 1_555
C10 C9 1_555 1_555
C11 C10 1_555 1_555
H5 C11 1_555 1_555
C12 C11 1_555 1_555
C13 O10 1_555 1_555
C15X O2 1_555 1_555
O5X Cu2 1_555 1_555
C7X O5X 1_555 1_555
O6X Cu1 1_555 1_555
O6Y Cu1 1_555 1_555
C7Y O6Y 1_555 1_555
O5Y Cu2 1_555 1_555
O5J Cu2 1_555 1_555
C7J O5J 1_555 1_555
O6J Cu1 1_555 1_555
C1J C7J 1_555 1_555
C2J C1J 1_555 1_555
H1J C2J 1_555 1_555
C3J C2J 1_555 1_555
C4J C3J 1_555 1_555
H2J C4J 1_555 1_555
C5J C4J 1_555 1_555
O9J C5J 1_555 1_555
C6J C1J 1_555 1_555
H3J C6J 1_555 1_555
C8J C3J 1_555 1_555
O7J C8J 1_555 1_555
Cu3J O7J 1_555 1_555
O3J Cu3J 1_555 1_555
S1J O3J 1_555 1_555
C14J S1J 1_555 1_555
O7R Cu3J 1_555 1_555
C8R O7R 1_555 1_555
O8R C8R 1_555 1_555
Cu4R O8R 1_555 1_555
O4R Cu4R 1_555 1_555
O8J C8J 1_555 1_555
O10R Cu4R 1_555 1_555
C13R O10R 1_555 1_555
O11R Cu3J 1_555 1_555
O11J Cu3J 1_555 1_555
C13J O11J 1_555 1_555
O10J Cu4R 1_555 1_555
C10J C13J 1_555 1_555
C9J C10J 1_555 1_555
H4J C9J 1_555 1_555
C10P C9J 1_555 1_555
C11P C10P 1_555 1_555
H5P C11P 1_555 1_555
C12P C11P 1_555 1_555
O12P C12P 1_555 1_555
C11J C10J 1_555 1_555
H5J C11J 1_555 1_555
C13P C10P 1_555 1_555
O10P C13P 1_555 1_555
Cu4P O10P 1_555 1_555
O4P Cu4P 1_555 1_555
O8P Cu4P 1_555 1_555
C8P O8P 1_555 1_555
O7P C8P 1_555 1_555
Cu3P O7P 1_555 1_555
O3P Cu3P 1_555 1_555
S1P O3P 1_555 1_555
C14P S1P 1_555 1_555
O7C Cu3P 1_555 1_555
C8C O7C 1_555 1_555
O8C Cu4P 1_555 1_555
O10C Cu4P 1_555 1_555
C13C O10C 1_555 1_555
O11C Cu3P 1_555 1_555
O11P C13P 1_555 1_555
C10C C13C 1_555 1_555
C9C C10C 1_555 1_555
H4C C9C 1_555 1_555
C10Q C9C 1_555 1_555
C11Q C10Q 1_555 1_555
H5Q C11Q 1_555 1_555
C12Q C11Q 1_555 1_555
O12Q C12Q 1_555 1_555
C11C C10C 1_555 1_555
H5C C11C 1_555 1_555
C13Q C10Q 1_555 1_555
O10Q C13Q 1_555 1_555
Cu4Q O10Q 1_555 1_555
O4Q Cu4Q 1_555 1_555
O8Q Cu4Q 1_555 1_555
C8Q O8Q 1_555 1_555
O7Q C8Q 1_555 1_555
Cu3Q O7Q 1_555 1_555
O3Q Cu3Q 1_555 1_555
S1Q O3Q 1_555 1_555
C14Q S1Q 1_555 1_555
O7I Cu3Q 1_555 1_555
C8I O7I 1_555 1_555
O8I Cu4Q 1_555 1_555
O10I Cu4Q 1_555 1_555
C13I O10I 1_555 1_555
O11I Cu3Q 1_555 1_555
O11Q C13Q 1_555 1_555
C10I C13I 1_555 1_555
C9I C10I 1_555 1_555
H4I C9I 1_555 1_555
C10X C9I 1_555 1_555
C11X C10X 1_555 1_555
H5X C11X 1_555 1_555
C12X C11X 1_555 1_555
O12X C12X 1_555 1_555
C11I C10I 1_555 1_555
H5I C11I 1_555 1_555
C13X C10X 1_555 1_555
O10X C13X 1_555 1_555
Cu4X O10X 1_555 1_555
O4X Cu4X 1_555 1_555
O8X Cu4X 1_555 1_555
C8X O8X 1_555 1_555
O7X C8X 1_555 1_555
Cu3X O7X 1_555 1_555
O3X Cu3X 1_555 1_555
S1X O3X 1_555 1_555
C14X S1X 1_555 1_555
O7K Cu3X 1_555 1_555
C8K O7K 1_555 1_555
O8K Cu4X 1_555 1_555
O10K Cu4X 1_555 1_555
C13K O10K 1_555 1_555
O11K Cu3X 1_555 1_555
O11X C13X 1_555 1_555
C10K C13K 1_555 1_555
C9K C10K 1_555 1_555
H4K C9K 1_555 1_555
C10R C13R 1_555 1_555
C11R C10R 1_555 1_555
H5R C11R 1_555 1_555
C12R C11R 1_555 1_555
O12R C12R 1_555 1_555
C11K C10K 1_555 1_555
H5K C11K 1_555 1_555
C3K C8K 1_555 1_555
C2K C3K 1_555 1_555
C1K C2K 1_555 1_555
C6K C1K 1_555 1_555
C5K C6K 1_555 1_555
O9K C5K 1_555 1_555
C4K C3K 1_555 1_555
H2K C4K 1_555 1_555
H3K C6K 1_555 1_555
C7K C1K 1_555 1_555
O5K C7K 1_555 1_555
Cu2K O5K 1_555 1_555
O2K Cu2K 1_555 1_555
C15K O2K 1_555 1_555
C15S O2K 1_555 1_555
O5S Cu2K 1_555 1_555
C7S O5S 1_555 1_555
O6S C7S 1_555 1_555
Cu1S O6S 1_555 1_555
O1S Cu1S 1_555 1_555
O6K C7K 1_555 1_555
O6B Cu1S 1_555 1_555
C7B O6B 1_555 1_555
O5B Cu2K 1_555 1_555
O5Q Cu2K 1_555 1_555
C7Q O5Q 1_555 1_555
O6Q Cu1S 1_555 1_555
C1Q C7Q 1_555 1_555
C2Q C1Q 1_555 1_555
H1Q C2Q 1_555 1_555
C3Q C8Q 1_555 1_555
C4Q C3Q 1_555 1_555
H2Q C4Q 1_555 1_555
C5Q C4Q 1_555 1_555
O9Q C5Q 1_555 1_555
C6Q C1Q 1_555 1_555
H3Q C6Q 1_555 1_555
C1B C7B 1_555 1_555
C2B C1B 1_555 1_555
H1B C2B 1_555 1_555
C3B C2B 1_555 1_555
C4B C3B 1_555 1_555
H2B C4B 1_555 1_555
C5B C4B 1_555 1_555
O9B C5B 1_555 1_555
C6B C1B 1_555 1_555
H3B C6B 1_555 1_555
C8B C3B 1_555 1_555
O7B C8B 1_555 1_555
Cu3B O7B 1_555 1_555
O3B Cu3B 1_555 1_555
S1B O3B 1_555 1_555
C14B S1B 1_555 1_555
O7Z Cu3B 1_555 1_555
C8Z O7Z 1_555 1_555
O8Z C8Z 1_555 1_555
Cu4Z O8Z 1_555 1_555
O4Z Cu4Z 1_555 1_555
O8B C8B 1_555 1_555
O10Z Cu4Z 1_555 1_555
C13Z O10Z 1_555 1_555
O11Z Cu3B 1_555 1_555
O11B Cu3B 1_555 1_555
C13B O11B 1_555 1_555
O10B Cu4Z 1_555 1_555
C10B C13B 1_555 1_555
C9B C10B 1_555 1_555
H4B C9B 1_555 1_555
C10AA C9B 1_555 1_555
C11AA C10AA 1_555 1_555
H5AA C11AA 1_555 1_555
C12AA C11AA 1_555 1_555
O12AA C12AA 1_555 1_555
C11B C10B 1_555 1_555
H5B C11B 1_555 1_555
C13AA C10AA 1_555 1_555
O10AA C13AA 1_555 1_555
Cu4AA O10AA 1_555 1_555
O4AA Cu4AA 1_555 1_555
O8AA Cu4AA 1_555 1_555
C8AA O8AA 1_555 1_555
O7AA C8AA 1_555 1_555
Cu3AA O7AA 1_555 1_555
O3AA Cu3AA 1_555 1_555
S1AA O3AA 1_555 1_555
C14AA S1AA 1_555 1_555
O7H Cu3AA 1_555 1_555
C8H O7H 1_555 1_555
O8H Cu4AA 1_555 1_555
O10H Cu4AA 1_555 1_555
C13H O10H 1_555 1_555
O11H Cu3AA 1_555 1_555
O11AA C13AA 1_555 1_555
C10H C13H 1_555 1_555
C9H C10H 1_555 1_555
H4H C9H 1_555 1_555
C10Y C9H 1_555 1_555
C11Y C10Y 1_555 1_555
H5Y C11Y 1_555 1_555
C12Y C11Y 1_555 1_555
O12Y C12Y 1_555 1_555
C11H C10H 1_555 1_555
H5H C11H 1_555 1_555
C13Y C10Y 1_555 1_555
O10Y C13Y 1_555 1_555
Cu4Y O10Y 1_555 1_555
O4Y Cu4Y 1_555 1_555
O8Y Cu4Y 1_555 1_555
C8Y O8Y 1_555 1_555
O7Y C8Y 1_555 1_555
Cu3Y O7Y 1_555 1_555
O3Y Cu3Y 1_555 1_555
S1Y O3Y 1_555 1_555
C14Y S1Y 1_555 1_555
O7A Cu3Y 1_555 1_555
C8A O7A 1_555 1_555
O8A Cu4Y 1_555 1_555
O10A Cu4Y 1_555 1_555
C13A O10A 1_555 1_555
O11A Cu3Y 1_555 1_555
O11Y C13Y 1_555 1_555
C10A C13A 1_555 1_555
C9A C10A 1_555 1_555
H4A C9A 1_555 1_555
C10S C9A 1_555 1_555
C11S C10S 1_555 1_555
H5S C11S 1_555 1_555
C12S C11S 1_555 1_555
O12S C12S 1_555 1_555
C11A C10A 1_555 1_555
H5A C11A 1_555 1_555
C13S C10S 1_555 1_555
O10S Cu4 1_555 1_555
O7S Cu3 1_555 1_555
C8S O7S 1_555 1_555
O8S Cu4 1_555 1_555
O11S Cu3 1_555 1_555
C10Z C9 1_555 1_555
C11Z C12 1_555 1_555
H5Z C11Z 1_555 1_555
C3S C8S 1_555 1_555
C2S C3S 1_555 1_555
C1S C7S 1_555 1_555
C6S C1S 1_555 1_555
C5S C6S 1_555 1_555
O9S C5S 1_555 1_555
C4S C3S 1_555 1_555
H2S C4S 1_555 1_555
H3S C6S 1_555 1_555
H1S C2S 1_555 1_555
C3A C8A 1_555 1_555
C2A C3A 1_555 1_555
C1A C2A 1_555 1_555
C6A C1A 1_555 1_555
C5A C6A 1_555 1_555
O9A C5A 1_555 1_555
C4A C3A 1_555 1_555
H2A C4A 1_555 1_555
H3A C6A 1_555 1_555
C7A C1A 1_555 1_555
O5A C7A 1_555 1_555
Cu2A O5A 1_555 1_555
O2A Cu2A 1_555 1_555
C15A O2A 1_555 1_555
C15R O2A 1_555 1_555
O5R Cu2A 1_555 1_555
C7R O5R 1_555 1_555
O6R C7R 1_555 1_555
Cu1R O6R 1_555 1_555
O1R Cu1R 1_555 1_555
O6A C7A 1_555 1_555
O6C Cu1R 1_555 1_555
C7C O6C 1_555 1_555
O5C Cu2A 1_555 1_555
O5AA Cu2A 1_555 1_555
C7AA O5AA 1_555 1_555
O6AA Cu1R 1_555 1_555
C1AA C7AA 1_555 1_555
C2AA C1AA 1_555 1_555
H1AA C2AA 1_555 1_555
C3AA C8AA 1_555 1_555
C4AA C3AA 1_555 1_555
H2AA C4AA 1_555 1_555
C5AA C4AA 1_555 1_555
O9AA C5AA 1_555 1_555
C6AA C1AA 1_555 1_555
H3AA C6AA 1_555 1_555
C1C C7C 1_555 1_555
C2C C1C 1_555 1_555
H1C C2C 1_555 1_555
C3C C8C 1_555 1_555
C4C C3C 1_555 1_555
H2C C4C 1_555 1_555
C5C C4C 1_555 1_555
O9C C5C 1_555 1_555
C6C C1C 1_555 1_555
H3C C6C 1_555 1_555
C1R C7R 1_555 1_555
C2R C1R 1_555 1_555
H1R C2R 1_555 1_555
C3R C8R 1_555 1_555
C4R C3R 1_555 1_555
H2R C4R 1_555 1_555
C5R C4R 1_555 1_555
O9R C5R 1_555 1_555
C6R C1R 1_555 1_555
H3R C6R 1_555 1_555
H1A C2A 1_555 1_555
C3Y C8Y 1_555 1_555
C2Y C3Y 1_555 1_555
C1Y C7Y 1_555 1_555
C6Y C1Y 1_555 1_555
C5Y C6Y 1_555 1_555
O9Y C5Y 1_555 1_555
C4Y C3Y 1_555 1_555
H2Y C4Y 1_555 1_555
H3Y C6Y 1_555 1_555
H1Y C2Y 1_555 1_555
C3H C8H 1_555 1_555
C2H C3H 1_555 1_555
C1H C2H 1_555 1_555
C6H C1H 1_555 1_555
C5H C6H 1_555 1_555
O9H C5H 1_555 1_555
C4H C3H 1_555 1_555
H2H C4H 1_555 1_555
H3H C6H 1_555 1_555
C7H C1H 1_555 1_555
O5H C7H 1_555 1_555
Cu2H O5H 1_555 1_555
O2H Cu2H 1_555 1_555
C15H O2H 1_555 1_555
C15P O2H 1_555 1_555
O5P Cu2H 1_555 1_555
C7P O5P 1_555 1_555
O6P C7P 1_555 1_555
Cu1P O6P 1_555 1_555
O1P Cu1P 1_555 1_555
O6H C7H 1_555 1_555
O6I Cu1P 1_555 1_555
C7I O6I 1_555 1_555
O5I Cu2H 1_555 1_555
O5Z Cu2H 1_555 1_555
C7Z O5Z 1_555 1_555
O6Z Cu1P 1_555 1_555
C1Z C7Z 1_555 1_555
C2Z C1Z 1_555 1_555
H1Z C2Z 1_555 1_555
C3Z C8Z 1_555 1_555
C4Z C3Z 1_555 1_555
H2Z C4Z 1_555 1_555
C5Z C4Z 1_555 1_555
O9Z C5Z 1_555 1_555
C6Z C1Z 1_555 1_555
H3Z C6Z 1_555 1_555
C1I C7I 1_555 1_555
C2I C1I 1_555 1_555
H1I C2I 1_555 1_555
C3I C8I 1_555 1_555
C4I C3I 1_555 1_555
H2I C4I 1_555 1_555
C5I C4I 1_555 1_555
O9I C5I 1_555 1_555
C6I C1I 1_555 1_555
H3I C6I 1_555 1_555
C1P C7P 1_555 1_555
C2P C1P 1_555 1_555
H1P C2P 1_555 1_555
C3P C8P 1_555 1_555
C4P C3P 1_555 1_555
H2P C4P 1_555 1_555
C5P C4P 1_555 1_555
O9P C5P 1_555 1_555
C6P C1P 1_555 1_555
H3P C6P 1_555 1_555
H1H C2H 1_555 1_555
H1K C2K 1_555 1_555
C3X C8X 1_555 1_555
C2X C3X 1_555 1_555
C1X C7X 1_555 1_555
C6X C1X 1_555 1_555
C5X C6X 1_555 1_555
O9X C5X 1_555 1_555
C4X C3X 1_555 1_555
H2X C4X 1_555 1_555
H3X C6X 1_555 1_555
H1X C2X 1_555 1_555
O6 C7 1_555 1_555
O8 C8 1_555 1_555
O11 C13 1_555 1_555
C1 C7 1_555 1_555
C3 C8 1_555 1_555
C5 C6 1_555 1_555
C10 C13 1_555 1_555
C7X O6X 1_555 1_555
C7Y O5Y 1_555 1_555
C7J O6J 1_555 1_555
C5J C6J 1_555 1_555
Cu4R O8J 1_555 1_555
C13R O11R 1_555 1_555
C13J O10J 1_555 1_555
C12P C11J 1_555 1_555
Cu3P O11P 1_555 1_555
C8C O8C 1_555 1_555
C13C O11C 1_555 1_555
C12Q C11C 1_555 1_555
Cu3Q O11Q 1_555 1_555
C8I O8I 1_555 1_555
C13I O11I 1_555 1_555
C12X C11I 1_555 1_555
Cu3X O11X 1_555 1_555
C8K O8K 1_555 1_555
C13K O11K 1_555 1_555
C9K C10R 1_555 1_555
C12R C11K 1_555 1_555
C5K C4K 1_555 1_555
Cu1S O6K 1_555 1_555
C7B O5B 1_555 1_555
C7Q O6Q 1_555 1_555
C2Q C3Q 1_555 1_555
C5Q C6Q 1_555 1_555
C5B C6B 1_555 1_555
Cu4Z O8B 1_555 1_555
C13Z O11Z 1_555 1_555
C13Z C10Z 1_555 1_555
C13B O10B 1_555 1_555
C12AA C11B 1_555 1_555
Cu3AA O11AA 1_555 1_555
C8H O8H 1_555 1_555
C13H O11H 1_555 1_555
C12Y C11H 1_555 1_555
Cu3Y O11Y 1_555 1_555
C8A O8A 1_555 1_555
C13A O11A 1_555 1_555
C12S C11A 1_555 1_555
C13S O10S 1_555 1_555
C13S O11S 1_555 1_555
C8S O8S 1_555 1_555
C10Z C11Z 1_555 1_555
C2S C1S 1_555 1_555
C5S C4S 1_555 1_555
C5A C4A 1_555 1_555
Cu1R O6A 1_555 1_555
C7C O5C 1_555 1_555
C7AA O6AA 1_555 1_555
C2AA C3AA 1_555 1_555
C5AA C6AA 1_555 1_555
C2C C3C 1_555 1_555
C5C C6C 1_555 1_555
C2R C3R 1_555 1_555
C5R C6R 1_555 1_555
C2Y C1Y 1_555 1_555
C5Y C4Y 1_555 1_555
C5H C4H 1_555 1_555
Cu1P O6H 1_555 1_555
C7I O5I 1_555 1_555
C7Z O6Z 1_555 1_555
C2Z C3Z 1_555 1_555
C5Z C6Z 1_555 1_555
C2I C3I 1_555 1_555
C5I C6I 1_555 1_555
C2P C3P 1_555 1_555
C5P C6P 1_555 1_555
C2X C1X 1_555 1_555
C5X C4X 1_555 1_555

#END
