
#######################################################################
#
#                 Cambridge Crystallographic Data Centre
#                                CCDC 
#
#######################################################################
#
# If this CIF has been generated from an entry in the Cambridge 
# Structural Database, then it will include bibliographic, chemical, 
# crystal, experimental, refinement or atomic coordinate data resulting 
# from the CCDC's data processing and validation procedures.
#
#######################################################################

data_EDIBIC
_chemical_formula_moiety         'C144 H216 N72 Pd18 36+,36(N1 O3 1-),27(H2 O1)'
_chemical_name_systematic        
'hexakis((\m~6~-1,3,5-tris(3,5-pyrimidyl)benzene)-tris((ethane-1,2-diamine)-palladium(ii))) pentanitrate clathrate henitriacontanitrate hydrate'
_symmetry_cell_setting           hexagonal
_symmetry_space_group_name_H-M   'P 63/m'
_symmetry_Int_Tables_number      176
_space_group_name_Hall           '-P 6c'
loop_
_symmetry_equiv_pos_site_id
_symmetry_equiv_pos_as_xyz
1 x,y,z
2 x-y,x,1/2+z
3 -y,x-y,z
4 -x,-y,1/2+z
5 -x+y,-x,z
6 y,-x+y,1/2+z
7 -x,-y,-z
8 -x+y,-x,1/2-z
9 y,-x+y,-z
10 x,y,1/2-z
11 x-y,x,-z
12 -y,x-y,1/2-z
_cell_length_a                   23.168(8)
_cell_length_b                   23.168(8)
_cell_length_c                   34.10(2)
_cell_angle_alpha                90
_cell_angle_beta                 90
_cell_angle_gamma                120
_cell_volume                     15851.2
_exptl_crystal_colour            colorless
_exptl_crystal_description       prismatic
_chemical_melting_point          220deg.C(dec.)
_cell_formula_units_Z            2
_exptl_crystal_recrystallization_method methanol/water
loop_
_atom_site_label
_atom_site_type_symbol
_atom_site_fract_x
_atom_site_fract_y
_atom_site_fract_z
O1 O 0.683(3) 0.293(3) 0.584(2)
O2 O 0.693(4) 0.244(3) 0.647(2)
O5 O 0.3333 -0.3333 0.615(2)
O7 O 0.263(5) -0.106(5) 0.2500
O8 O 0.231(2) 0.006(2) 0.225(1)
N17 N 0.296(5) 0.050(5) 0.2500
O8I O 0.231(2) 0.006(2) 0.275(1)
Pd1 Pd 0.7001(3) 0.2080(3) 0.4588(2)
Pd2 Pd 0.9525(4) 0.2149(4) 0.7500
Pd3 Pd 0.7422(3) 0.0474(3) 0.6418(2)
Pd4 Pd 0.5187(4) -0.0806(4) 0.7500
N1 N 0.640(3) 0.124(3) 0.427(3)
N2 N 0.781(3) 0.212(3) 0.432(2)
N3 N 0.615(4) 0.204(3) 0.477(2)
N4 N 0.767(3) 0.300(3) 0.477(2)
N5 N 0.808(2) 0.142(2) 0.664(1)
N6 N 0.888(4) 0.207(3) 0.709(2)
N7 N 1.014(3) 0.216(4) 0.796(3)
N8 N 0.826(3) 0.049(2) 0.623(2)
N9 N 0.686(3) -0.037(3) 0.614(3)
N10 N 0.655(2) 0.038(2) 0.666(2)
N11 N 0.564(3) -0.010(2) 0.700(2)
N12 N 0.473(4) -0.153(3) 0.799(2)
C1 C 0.763(7) 0.144(6) 0.413(2)
C2 C 0.680(5) 0.113(5) 0.395(3)
C3 C 0.591(3) 0.242(3) 0.468(2)
C4 C 0.789(3) 0.305(3) 0.513(3)
C5 C 0.828(3) 0.358(3) 0.537(2)
C6 C 0.602(4) 0.180(5) 0.516(3)
C7 C 0.853(3) 0.383(4) 0.583(2)
C8 C 0.897(4) 0.441(3) 0.607(4)
C9 C 0.907(4) 0.435(4) 0.642(2)
C10 C 0.897(3) 0.378(3) 0.660(2)
C11 C 0.870(3) 0.324(3) 0.641(2)
C12 C 0.846(2) 0.316(3) 0.600(3)
C13 C 0.861(3) 0.257(3) 0.660(3)
C14 C 0.897(3) 0.255(4) 0.693(2)
C15 C 0.845(3) 0.149(3) 0.698(2)
C16 C 0.803(3) 0.193(3) 0.646(2)
C17 C 1.051(4) 0.217(4) 0.776(2)
C18 C 0.808(3) -0.001(4) 0.593(2)
C19 C 0.733(4) -0.055(4) 0.605(3)
C20 C 0.627(4) -0.006(3) 0.687(3)
C21 C 0.528(4) 0.014(3) 0.687(2)
C22 C 0.947(3) 0.512(2) 0.653(2)
C23 C 0.637(2) 0.072(3) 0.643(2)
C24 C 0.432(5) -0.202(6) 0.773(2)
N4D N 0.533(4) 0.233(3) 0.477(2)
Pd1D Pd 0.5079(4) 0.2999(3) 0.4588(2)
N1D N 0.484(4) 0.360(3) 0.427(3)
C2D C 0.433(7) 0.320(5) 0.395(3)
C1D C 0.381(9) 0.237(7) 0.413(2)
N2D N 0.431(4) 0.219(3) 0.432(2)
N3D N 0.589(5) 0.385(4) 0.477(2)
C3D C 0.651(4) 0.409(3) 0.468(2)
N4B N 0.700(3) 0.467(4) 0.477(2)
Pd1B Pd 0.7920(3) 0.4921(4) 0.4588(2)
N1B N 0.876(3) 0.516(4) 0.427(3)
C2B C 0.887(5) 0.567(7) 0.395(3)
C1B C 0.856(6) 0.619(9) 0.413(2)
N2B N 0.788(3) 0.569(4) 0.432(2)
N3B N 0.796(3) 0.411(5) 0.477(2)
C3B C 0.758(3) 0.349(4) 0.468(2)
C6B C 0.820(5) 0.422(6) 0.516(3)
N6I N 0.888(4) 0.207(3) 0.791(2)
C14I C 0.897(3) 0.255(4) 0.807(2)
C13I C 0.861(3) 0.257(3) 0.840(3)
C11I C 0.870(3) 0.324(3) 0.859(2)
C10I C 0.897(3) 0.378(3) 0.840(2)
C9I C 0.907(4) 0.435(4) 0.858(2)
C8I C 0.897(4) 0.441(3) 0.893(4)
C7I C 0.853(3) 0.383(4) 0.917(2)
C5I C 0.828(3) 0.358(3) 0.963(2)
C4I C 0.789(3) 0.305(3) 0.987(3)
N4I N 0.767(3) 0.300(3) 1.023(2)
Pd1I Pd 0.7001(3) 0.2080(3) 1.0412(2)
N1I N 0.640(3) 0.124(3) 1.073(3)
C2I C 0.680(5) 0.113(5) 1.105(3)
C1I C 0.763(7) 0.144(6) 1.087(2)
N2I N 0.781(3) 0.212(3) 1.068(2)
N3I N 0.615(4) 0.204(3) 1.023(2)
C3I C 0.591(3) 0.242(3) 1.032(2)
N4G N 0.533(4) 0.233(3) 1.023(2)
Pd1G Pd 0.5079(4) 0.2999(3) 1.0412(2)
N1G N 0.484(4) 0.360(3) 1.073(3)
C2G C 0.433(7) 0.320(5) 1.105(3)
C1G C 0.381(9) 0.237(7) 1.087(2)
N2G N 0.431(4) 0.219(3) 1.068(2)
N3G N 0.589(5) 0.385(4) 1.023(2)
C3G C 0.651(4) 0.409(3) 1.032(2)
N4K N 0.700(3) 0.467(4) 1.023(2)
Pd1K Pd 0.7920(3) 0.4921(4) 1.0412(2)
N1K N 0.876(3) 0.516(4) 1.073(3)
C2K C 0.887(5) 0.567(7) 1.105(3)
C1K C 0.856(6) 0.619(9) 1.087(2)
N2K N 0.788(3) 0.569(4) 1.068(2)
N3K N 0.796(3) 0.411(5) 1.023(2)
C3K C 0.758(3) 0.349(4) 1.032(2)
C6K C 0.820(5) 0.422(6) 0.984(3)
C4K C 0.695(3) 0.484(4) 0.987(3)
C5K C 0.642(3) 0.470(4) 0.963(2)
C6G C 0.578(6) 0.398(4) 0.984(3)
C7K C 0.617(4) 0.470(5) 0.917(2)
C8K C 0.559(3) 0.456(5) 0.893(4)
C9K C 0.565(4) 0.472(6) 0.858(2)
C10K C 0.622(3) 0.519(4) 0.840(2)
C11K C 0.676(3) 0.546(4) 0.859(2)
C12K C 0.684(3) 0.530(4) 0.900(3)
C13K C 0.743(3) 0.604(4) 0.840(3)
C14K C 0.745(4) 0.642(5) 0.807(2)
N6K N 0.793(3) 0.681(5) 0.791(2)
Pd2K Pd 0.7851(4) 0.7376(6) 0.7500
N6B N 0.793(3) 0.681(5) 0.709(2)
C14B C 0.745(4) 0.642(5) 0.693(2)
C13B C 0.743(3) 0.604(4) 0.660(3)
C11B C 0.676(3) 0.546(4) 0.641(2)
C10B C 0.622(3) 0.519(4) 0.660(2)
C9B C 0.565(4) 0.472(6) 0.642(2)
C8B C 0.559(3) 0.456(5) 0.607(4)
C7B C 0.617(4) 0.470(5) 0.583(2)
C5B C 0.642(3) 0.470(4) 0.537(2)
C4B C 0.695(3) 0.484(4) 0.513(3)
C6D C 0.578(6) 0.398(4) 0.516(3)
C12B C 0.684(3) 0.530(4) 0.600(3)
C22B C 0.488(2) 0.435(4) 0.653(2)
C21D C 0.486(5) 0.472(4) 0.687(2)
N11D N 0.426(4) 0.436(3) 0.700(2)
Pd4D Pd 0.4007(6) 0.4813(4) 0.7500
N11G N 0.426(4) 0.436(3) 0.800(2)
C20G C 0.367(5) 0.373(4) 0.813(3)
N10G N 0.383(3) 0.345(2) 0.834(2)
Pd3G Pd 0.3052(4) 0.2578(3) 0.8582(2)
N5G N 0.334(3) 0.192(2) 0.836(1)
C15G C 0.304(4) 0.155(3) 0.802(2)
N6G N 0.319(5) 0.112(4) 0.791(2)
Pd2G Pd 0.2624(6) 0.0475(4) 0.7500
N6D N 0.319(5) 0.112(4) 0.709(2)
C14D C 0.358(5) 0.103(3) 0.693(2)
C13D C 0.396(4) 0.139(3) 0.660(3)
C11D C 0.454(4) 0.130(3) 0.641(2)
C10D C 0.481(4) 0.103(3) 0.660(2)
C9D C 0.528(6) 0.093(4) 0.642(2)
C8D C 0.544(5) 0.103(4) 0.607(4)
C7D C 0.530(5) 0.147(3) 0.583(2)
C5D C 0.530(4) 0.172(3) 0.537(2)
C4D C 0.516(4) 0.211(3) 0.513(3)
C12D C 0.470(4) 0.154(2) 0.600(3)
C22D C 0.565(4) 0.053(3) 0.653(2)
N11I N 0.564(3) -0.010(2) 0.800(2)
C20I C 0.627(4) -0.006(3) 0.813(3)
N10I N 0.655(2) 0.038(2) 0.834(2)
Pd3I Pd 0.7422(3) 0.0474(3) 0.8582(2)
N5I N 0.808(2) 0.142(2) 0.836(1)
C15I C 0.845(3) 0.149(3) 0.802(2)
C16I C 0.803(3) 0.193(3) 0.854(2)
N8I N 0.826(3) 0.049(2) 0.877(2)
C18I C 0.808(3) -0.001(4) 0.907(2)
C19I C 0.733(4) -0.055(4) 0.895(3)
N9I N 0.686(3) -0.037(3) 0.886(3)
C23I C 0.637(2) 0.072(3) 0.857(2)
C22G C 0.565(4) 0.053(3) 0.847(2)
C9G C 0.528(6) 0.093(4) 0.858(2)
C8G C 0.544(5) 0.103(4) 0.893(4)
C7G C 0.530(5) 0.147(3) 0.917(2)
C5G C 0.530(4) 0.172(3) 0.963(2)
C4G C 0.516(4) 0.211(3) 0.987(3)
C6I C 0.602(4) 0.180(5) 0.984(3)
C12G C 0.470(4) 0.154(2) 0.900(3)
C11G C 0.454(4) 0.130(3) 0.859(2)
C10G C 0.481(4) 0.103(3) 0.840(2)
C13G C 0.396(4) 0.139(3) 0.840(3)
C14G C 0.358(5) 0.103(3) 0.807(2)
C16G C 0.390(4) 0.197(3) 0.854(2)
C21I C 0.528(4) 0.014(3) 0.813(2)
C24I C 0.432(5) -0.202(6) 0.727(2)
N12I N 0.473(4) -0.153(3) 0.701(2)
C16D C 0.390(4) 0.197(3) 0.646(2)
N5D N 0.334(3) 0.192(2) 0.664(1)
Pd3D Pd 0.3052(4) 0.2578(3) 0.6418(2)
N8D N 0.223(4) 0.174(3) 0.623(2)
C18D C 0.191(5) 0.192(3) 0.593(2)
C19D C 0.212(6) 0.267(4) 0.605(3)
N9D N 0.277(4) 0.314(3) 0.614(3)
N10D N 0.383(3) 0.345(2) 0.666(2)
C20D C 0.367(5) 0.373(4) 0.687(3)
C23D C 0.435(4) 0.363(2) 0.643(2)
C15D C 0.304(4) 0.155(3) 0.698(2)
N7G N 0.202(5) -0.014(3) 0.704(3)
C17G C 0.166(6) -0.051(4) 0.724(2)
C17D C 0.166(6) -0.051(4) 0.776(2)
N7D N 0.202(5) -0.014(3) 0.796(3)
N8G N 0.223(4) 0.174(3) 0.877(2)
C18G C 0.191(5) 0.192(3) 0.907(2)
C19G C 0.212(6) 0.267(4) 0.895(3)
N9G N 0.277(4) 0.314(3) 0.886(3)
C23G C 0.435(4) 0.363(2) 0.857(2)
C22K C 0.488(2) 0.435(4) 0.847(2)
C21G C 0.486(5) 0.472(4) 0.813(2)
N12D N 0.374(5) 0.527(4) 0.799(2)
C24D C 0.366(8) 0.568(5) 0.773(2)
C24G C 0.366(8) 0.568(5) 0.727(2)
N12G N 0.374(5) 0.527(4) 0.701(2)
C16B C 0.807(3) 0.610(4) 0.646(2)
N5B N 0.858(2) 0.666(3) 0.664(1)
Pd3B Pd 0.9526(3) 0.6948(4) 0.6418(2)
N8B N 0.951(2) 0.777(4) 0.623(2)
C18B C 1.001(4) 0.809(5) 0.593(2)
C19B C 1.055(4) 0.788(6) 0.605(3)
N9B N 1.037(3) 0.723(4) 0.614(3)
N10B N 0.962(2) 0.617(3) 0.666(2)
C20B C 1.006(3) 0.633(5) 0.687(3)
N11B N 1.010(2) 0.574(4) 0.700(2)
Pd4B Pd 1.0806(4) 0.5993(6) 0.7500
N11K N 1.010(2) 0.574(4) 0.800(2)
C20K C 1.006(3) 0.633(5) 0.813(3)
N10K N 0.962(2) 0.617(3) 0.834(2)
Pd3K Pd 0.9526(3) 0.6948(4) 0.8582(2)
N5K N 0.858(2) 0.666(3) 0.836(1)
C15K C 0.851(3) 0.696(4) 0.802(2)
C16K C 0.807(3) 0.610(4) 0.854(2)
N8K N 0.951(2) 0.777(4) 0.877(2)
C18K C 1.001(4) 0.809(5) 0.907(2)
C19K C 1.055(4) 0.788(6) 0.895(3)
N9K N 1.037(3) 0.723(4) 0.886(3)
C23K C 0.928(3) 0.565(4) 0.857(2)
C22I C 0.947(3) 0.512(2) 0.847(2)
C21K C 0.986(3) 0.514(5) 0.813(2)
N12B N 1.153(3) 0.626(5) 0.799(2)
C24B C 1.202(6) 0.634(8) 0.773(2)
C24K C 1.202(6) 0.634(8) 0.727(2)
N12K N 1.153(3) 0.626(5) 0.701(2)
C21B C 0.986(3) 0.514(5) 0.687(2)
C23B C 0.928(3) 0.565(4) 0.643(2)
C15B C 0.851(3) 0.696(4) 0.698(2)
N7K N 0.784(4) 0.798(5) 0.704(3)
C17K C 0.783(4) 0.834(6) 0.724(2)
C17B C 0.783(4) 0.834(6) 0.776(2)
N7B N 0.784(4) 0.798(5) 0.796(3)
C12I C 0.846(2) 0.316(3) 0.900(3)
C17I C 1.051(4) 0.217(4) 0.724(2)
N7I N 1.014(3) 0.216(4) 0.704(3)
O3? O 0.734(3) 0.122(4) 0.534(2)
O4? O 0.473(4) -0.106(4) 0.626(3)
O6? O 0.242(4) -0.196(4) 0.2500
O9? O 0.822(4) -0.220(4) 0.632(3)
N13? N 0.6667 0.3333 0.542(2)
N14? N 0.716(3) 0.147(3) 0.561(2)
N15? N 0.509(4) -0.118(4) 0.602(3)
N16? N 0.325(5) -0.148(4) 0.2500
N18? N 0.779(5) -0.273(5) 0.598(3)
loop_
_geom_bond_atom_site_label_1
_geom_bond_atom_site_label_2
_geom_bond_site_symmetry_1
_geom_bond_site_symmetry_2
Pd1 N1 1_555 1_555
Pd2 N6 1_555 1_555
Pd3 N5 1_555 1_555
Pd4 N11 1_555 1_555
O8 N17 1_555 1_555
N1 C2 1_555 1_555
N2 Pd1 1_555 1_555
N3 Pd1 1_555 1_555
N4 Pd1 1_555 1_555
N5 C15 1_555 1_555
N6 C14 1_555 1_555
N7 Pd2 1_555 1_555
N8 Pd3 1_555 1_555
N9 Pd3 1_555 1_555
N10 Pd3 1_555 1_555
N11 C20 1_555 1_555
N12 Pd4 1_555 1_555
N17 O8I 1_555 1_555
C1 N2 1_555 1_555
C2 C1 1_555 1_555
C3 N3 1_555 1_555
C4 N4 1_555 1_555
C5 C4 1_555 1_555
C6 N3 1_555 1_555
C7 C5 1_555 1_555
C8 C7 1_555 1_555
C9 C8 1_555 1_555
C10 C9 1_555 1_555
C11 C10 1_555 1_555
C12 C7 1_555 1_555
C13 C11 1_555 1_555
C14 C13 1_555 1_555
C15 N6 1_555 1_555
C16 N5 1_555 1_555
C17 N7 1_555 1_555
C18 N8 1_555 1_555
C19 N9 1_555 1_555
C20 N10 1_555 1_555
C21 N11 1_555 1_555
C22 C9 1_555 1_555
C23 N10 1_555 1_555
C24 N12 1_555 1_555
N4D C3 1_555 1_555
Pd1D N4D 1_555 1_555
N1D Pd1D 1_555 1_555
C2D N1D 1_555 1_555
C1D C2D 1_555 1_555
N2D Pd1D 1_555 1_555
N3D Pd1D 1_555 1_555
C3D N3D 1_555 1_555
N4B C3D 1_555 1_555
Pd1B N4B 1_555 1_555
N1B Pd1B 1_555 1_555
C2B N1B 1_555 1_555
C1B C2B 1_555 1_555
N2B Pd1B 1_555 1_555
N3B Pd1B 1_555 1_555
C3B N4 1_555 1_555
C6B C5 1_555 1_555
N6I Pd2 1_555 1_555
C14I N6I 1_555 1_555
C13I C14I 1_555 1_555
C11I C13I 1_555 1_555
C10I C11I 1_555 1_555
C9I C10I 1_555 1_555
C8I C9I 1_555 1_555
C7I C8I 1_555 1_555
C5I C7I 1_555 1_555
C4I C5I 1_555 1_555
N4I C4I 1_555 1_555
Pd1I N4I 1_555 1_555
N1I Pd1I 1_555 1_555
C2I N1I 1_555 1_555
C1I C2I 1_555 1_555
N2I Pd1I 1_555 1_555
N3I Pd1I 1_555 1_555
C3I N3I 1_555 1_555
N4G C3I 1_555 1_555
Pd1G N4G 1_555 1_555
N1G Pd1G 1_555 1_555
C2G N1G 1_555 1_555
C1G C2G 1_555 1_555
N2G Pd1G 1_555 1_555
N3G Pd1G 1_555 1_555
C3G N3G 1_555 1_555
N4K C3G 1_555 1_555
Pd1K N4K 1_555 1_555
N1K Pd1K 1_555 1_555
C2K N1K 1_555 1_555
C1K C2K 1_555 1_555
N2K Pd1K 1_555 1_555
N3K Pd1K 1_555 1_555
C3K N4I 1_555 1_555
C6K C5I 1_555 1_555
C4K N4K 1_555 1_555
C5K C4K 1_555 1_555
C6G N3G 1_555 1_555
C7K C5K 1_555 1_555
C8K C7K 1_555 1_555
C9K C8K 1_555 1_555
C10K C9K 1_555 1_555
C11K C10K 1_555 1_555
C12K C7K 1_555 1_555
C13K C11K 1_555 1_555
C14K C13K 1_555 1_555
N6K C14K 1_555 1_555
Pd2K N6K 1_555 1_555
N6B Pd2K 1_555 1_555
C14B N6B 1_555 1_555
C13B C14B 1_555 1_555
C11B C13B 1_555 1_555
C10B C11B 1_555 1_555
C9B C10B 1_555 1_555
C8B C9B 1_555 1_555
C7B C8B 1_555 1_555
C5B C7B 1_555 1_555
C4B N4B 1_555 1_555
C6D N3D 1_555 1_555
C12B C11B 1_555 1_555
C22B C9B 1_555 1_555
C21D C22B 1_555 1_555
N11D C21D 1_555 1_555
Pd4D N11D 1_555 1_555
N11G Pd4D 1_555 1_555
C20G N11G 1_555 1_555
N10G C20G 1_555 1_555
Pd3G N10G 1_555 1_555
N5G Pd3G 1_555 1_555
C15G N5G 1_555 1_555
N6G C15G 1_555 1_555
Pd2G N6G 1_555 1_555
N6D Pd2G 1_555 1_555
C14D N6D 1_555 1_555
C13D C14D 1_555 1_555
C11D C13D 1_555 1_555
C10D C11D 1_555 1_555
C9D C10D 1_555 1_555
C8D C9D 1_555 1_555
C7D C8D 1_555 1_555
C5D C6 1_555 1_555
C4D N4D 1_555 1_555
C12D C11D 1_555 1_555
C22D C21 1_555 1_555
N11I Pd4 1_555 1_555
C20I N11I 1_555 1_555
N10I C20I 1_555 1_555
Pd3I N10I 1_555 1_555
N5I Pd3I 1_555 1_555
C15I N6I 1_555 1_555
C16I C13I 1_555 1_555
N8I Pd3I 1_555 1_555
C18I N8I 1_555 1_555
C19I C18I 1_555 1_555
N9I Pd3I 1_555 1_555
C23I N10I 1_555 1_555
C22G C23I 1_555 1_555
C9G C22G 1_555 1_555
C8G C9G 1_555 1_555
C7G C8G 1_555 1_555
C5G C7G 1_555 1_555
C4G N4G 1_555 1_555
C6I N3I 1_555 1_555
C12G C7G 1_555 1_555
C11G C12G 1_555 1_555
C10G C9G 1_555 1_555
C13G C11G 1_555 1_555
C14G N6G 1_555 1_555
C16G N5G 1_555 1_555
C21I N11I 1_555 1_555
C24I C24 1_555 1_555
N12I Pd4 1_555 1_555
C16D C13D 1_555 1_555
N5D C16D 1_555 1_555
Pd3D N5D 1_555 1_555
N8D Pd3D 1_555 1_555
C18D N8D 1_555 1_555
C19D C18D 1_555 1_555
N9D Pd3D 1_555 1_555
N10D Pd3D 1_555 1_555
C20D N11D 1_555 1_555
C23D C22B 1_555 1_555
C15D N6D 1_555 1_555
N7G Pd2G 1_555 1_555
C17G N7G 1_555 1_555
C17D C17G 1_555 1_555
N7D Pd2G 1_555 1_555
N8G Pd3G 1_555 1_555
C18G N8G 1_555 1_555
C19G C18G 1_555 1_555
N9G Pd3G 1_555 1_555
C23G N10G 1_555 1_555
C22K C9K 1_555 1_555
C21G N11G 1_555 1_555
N12D Pd4D 1_555 1_555
C24D N12D 1_555 1_555
C24G C24D 1_555 1_555
N12G Pd4D 1_555 1_555
C16B C13B 1_555 1_555
N5B C16B 1_555 1_555
Pd3B N5B 1_555 1_555
N8B Pd3B 1_555 1_555
C18B N8B 1_555 1_555
C19B C18B 1_555 1_555
N9B Pd3B 1_555 1_555
N10B Pd3B 1_555 1_555
C20B N10B 1_555 1_555
N11B C20B 1_555 1_555
Pd4B N11B 1_555 1_555
N11K Pd4B 1_555 1_555
C20K N11K 1_555 1_555
N10K C20K 1_555 1_555
Pd3K N10K 1_555 1_555
N5K Pd3K 1_555 1_555
C15K N6K 1_555 1_555
C16K C13K 1_555 1_555
N8K Pd3K 1_555 1_555
C18K N8K 1_555 1_555
C19K C18K 1_555 1_555
N9K Pd3K 1_555 1_555
C23K N10K 1_555 1_555
C22I C9I 1_555 1_555
C21K N11K 1_555 1_555
N12B Pd4B 1_555 1_555
C24B N12B 1_555 1_555
C24K C24B 1_555 1_555
N12K Pd4B 1_555 1_555
C21B C22 1_555 1_555
C23B C22 1_555 1_555
C15B N6B 1_555 1_555
N7K Pd2K 1_555 1_555
C17K N7K 1_555 1_555
C17B C17K 1_555 1_555
N7B Pd2K 1_555 1_555
C12I C11I 1_555 1_555
C17I C17 1_555 1_555
N7I Pd2 1_555 1_555
C11 C12 1_555 1_555
C13 C16 1_555 1_555
C18 C19 1_555 1_555
C23 C22D 1_555 1_555
C1D N2D 1_555 1_555
C1B N2B 1_555 1_555
N3B C3B 1_555 1_555
N3B C6B 1_555 1_555
C7I C12I 1_555 1_555
C1I N2I 1_555 1_555
C1G N2G 1_555 1_555
C1K N2K 1_555 1_555
N3K C3K 1_555 1_555
N3K C6K 1_555 1_555
C5K C6G 1_555 1_555
C11K C12K 1_555 1_555
C7B C12B 1_555 1_555
C5B C4B 1_555 1_555
C5B C6D 1_555 1_555
C9D C22D 1_555 1_555
C7D C5D 1_555 1_555
C7D C12D 1_555 1_555
C5D C4D 1_555 1_555
N5I C15I 1_555 1_555
N5I C16I 1_555 1_555
C19I N9I 1_555 1_555
C22G C21I 1_555 1_555
C5G C4G 1_555 1_555
C5G C6I 1_555 1_555
C11G C10G 1_555 1_555
C13G C14G 1_555 1_555
C13G C16G 1_555 1_555
C24I N12I 1_555 1_555
N5D C15D 1_555 1_555
C19D N9D 1_555 1_555
N10D C20D 1_555 1_555
N10D C23D 1_555 1_555
C17D N7D 1_555 1_555
C19G N9G 1_555 1_555
C23G C22K 1_555 1_555
C22K C21G 1_555 1_555
C24G N12G 1_555 1_555
N5B C15B 1_555 1_555
C19B N9B 1_555 1_555
N10B C23B 1_555 1_555
N11B C21B 1_555 1_555
N5K C15K 1_555 1_555
N5K C16K 1_555 1_555
C19K N9K 1_555 1_555
C23K C22I 1_555 1_555
C22I C21K 1_555 1_555
C24K N12K 1_555 1_555
C17B N7B 1_555 1_555
C17I N7I 1_555 1_555

#END
