# generated using pymatgen
data_P17H228Pt6C146N7(OF6)5
_symmetry_space_group_name_H-M   'P 1'
_cell_length_a   20.60550000
_cell_length_b   20.86100000
_cell_length_c   29.24060000
_cell_angle_alpha   79.88400000
_cell_angle_beta   69.54900000
_cell_angle_gamma   61.38500000
_symmetry_Int_Tables_number   1
_chemical_formula_structural   P17H228Pt6C146N7(OF6)5
_chemical_formula_sum   'P34 H456 Pt12 C292 N14 O10 F60'
_cell_volume   10337.91187342
_cell_formula_units_Z   2
loop_
 _symmetry_equiv_pos_site_id
 _symmetry_equiv_pos_as_xyz
  1  'x, y, z'
loop_
 _atom_site_type_symbol
 _atom_site_label
 _atom_site_symmetry_multiplicity
 _atom_site_fract_x
 _atom_site_fract_y
 _atom_site_fract_z
 _atom_site_occupancy
  P  P1  1  0.583500  0.086770  0.148020  1
  P  P2  1  0.416500  0.913230  0.851980  1
  P  P3  1  0.795800  0.080200  0.174860  1
  P  P4  1  0.204200  0.919800  0.825140  1
  P  P5  1  0.887400  0.457800  0.102120  1
  P  P6  1  0.112600  0.542200  0.897880  1
  P  P7  1  0.666100  0.679800  0.131560  1
  P  P8  1  0.333900  0.320200  0.868440  1
  P  P9  1  0.240000  0.756990  0.148670  1
  P  P10  1  0.760000  0.243010  0.851330  1
  P  P11  1  0.188320  0.558250  0.174150  1
  P  P12  1  0.811680  0.441750  0.825850  1
  P  P13  1  0.675100  0.084500  0.400130  1
  P  P14  1  0.324900  0.915500  0.599870  1
  P  P15  1  0.466700  0.123040  0.352880  1
  P  P16  1  0.533300  0.876960  0.647120  1
  P  P17  1  0.089820  0.571810  0.400720  1
  P  P18  1  0.910180  0.428190  0.599280  1
  P  P19  1  0.172600  0.751700  0.357400  1
  P  P20  1  0.827400  0.248300  0.642600  1
  P  P21  1  0.599910  0.693300  0.334130  1
  P  P22  1  0.400090  0.306700  0.665870  1
  P  P23  1  0.803800  0.459810  0.321390  1
  P  P24  1  0.196200  0.540190  0.678610  1
  P  P25  1  0.647800  0.111300  0.760400  1
  P  P26  1  0.352200  0.888700  0.239600  1
  P  P27  1  0.911300  0.225900  0.014500  1
  P  P28  1  0.088700  0.774100  0.985500  1
  P  P29  1  0.656500  0.305300  0.492350  1
  P  P30  1  0.343500  0.694700  0.507650  1
  P  P31  1  0.464800  0.326990  0.025850  1
  P  P32  1  0.535200  0.673010  0.974150  1
  P  P33  1  0.765200  0.668900  0.499370  1
  P  P34  1  0.234800  0.331100  0.500630  1
  H  H35  1  0.559400  0.249500  0.201800  1
  H  H36  1  0.440600  0.750500  0.798200  1
  H  H37  1  0.516200  0.367000  0.172200  1
  H  H38  1  0.483800  0.633000  0.827800  1
  H  H39  1  0.693900  0.294400  0.049800  1
  H  H40  1  0.306100  0.705600  0.950200  1
  H  H41  1  0.725700  0.178900  0.079800  1
  H  H42  1  0.274300  0.821100  0.920200  1
  H  H43  1  0.712000  0.556700  0.043000  1
  H  H44  1  0.288000  0.443300  0.957000  1
  H  H45  1  0.640800  0.508000  0.027800  1
  H  H46  1  0.359200  0.492000  0.972200  1
  H  H47  1  0.635600  0.407700  0.159200  1
  H  H48  1  0.364400  0.592300  0.840800  1
  H  H49  1  0.700600  0.463400  0.171200  1
  H  H50  1  0.299400  0.536600  0.828800  1
  H  H51  1  0.338200  0.578300  0.073900  1
  H  H52  1  0.661800  0.421700  0.926100  1
  H  H53  1  0.463700  0.492200  0.043600  1
  H  H54  1  0.536300  0.507800  0.956400  1
  H  H55  1  0.495000  0.490200  0.171800  1
  H  H56  1  0.505000  0.509800  0.828200  1
  H  H57  1  0.367900  0.570000  0.200500  1
  H  H58  1  0.632100  0.430000  0.799500  1
  H  H59  1  0.592100  0.244700  0.319900  1
  H  H60  1  0.407900  0.755300  0.680100  1
  H  H61  1  0.568000  0.355900  0.340700  1
  H  H62  1  0.432000  0.644100  0.659300  1
  H  H63  1  0.410800  0.341200  0.464700  1
  H  H64  1  0.589200  0.658800  0.535300  1
  H  H65  1  0.449900  0.226000  0.443800  1
  H  H66  1  0.550100  0.774000  0.556200  1
  H  H67  1  0.213500  0.627700  0.454800  1
  H  H68  1  0.786500  0.372300  0.545200  1
  H  H69  1  0.328300  0.549800  0.472600  1
  H  H70  1  0.671700  0.450200  0.527400  1
  H  H71  1  0.408900  0.449900  0.346300  1
  H  H72  1  0.591100  0.550100  0.653700  1
  H  H73  1  0.295000  0.528100  0.330900  1
  H  H74  1  0.705000  0.471900  0.669100  1
  H  H75  1  0.623300  0.527400  0.419900  1
  H  H76  1  0.376700  0.472600  0.580100  1
  H  H77  1  0.539700  0.476300  0.456900  1
  H  H78  1  0.460300  0.523700  0.543100  1
  H  H79  1  0.506300  0.486600  0.328700  1
  H  H80  1  0.493700  0.513400  0.671300  1
  H  H81  1  0.599300  0.525800  0.293800  1
  H  H82  1  0.400700  0.474200  0.706200  1
  H  H83  1  0.769500  0.957800  0.114000  1
  H  H84  1  0.230500  0.042200  0.886000  1
  H  H85  1  0.811800  0.831500  0.121900  1
  H  H86  1  0.188200  0.168500  0.878100  1
  H  H87  1  0.788400  0.779100  0.197500  1
  H  H88  1  0.211600  0.220900  0.802500  1
  H  H89  1  0.748700  0.790900  0.285200  1
  H  H90  1  0.251300  0.209100  0.714800  1
  H  H91  1  0.712200  0.792200  0.375700  1
  H  H92  1  0.287800  0.207800  0.624300  1
  H  H93  1  0.636500  0.861300  0.443400  1
  H  H94  1  0.363500  0.138700  0.556600  1
  H  H95  1  0.574900  0.987100  0.439500  1
  H  H96  1  0.425100  0.012900  0.560500  1
  H  H97  1  0.651000  0.041400  0.273000  1
  H  H98  1  0.349000  0.958600  0.727000  1
  H  H99  1  0.865500  0.632200  0.048500  1
  H  H100  1  0.134500  0.367800  0.951500  1
  H  H101  1  0.951500  0.678400  0.040400  1
  H  H102  1  0.048500  0.321600  0.959600  1
  H  H103  1  0.980300  0.687400  0.105500  1
  H  H104  1  0.019700  0.312600  0.894500  1
  H  H105  1  0.960000  0.675000  0.194300  1
  H  H106  1  0.040000  0.325000  0.805700  1
  H  H107  1  0.934700  0.676000  0.282400  1
  H  H108  1  0.065300  0.324000  0.717600  1
  H  H109  1  0.858300  0.668200  0.359400  1
  H  H110  1  0.141700  0.331800  0.640600  1
  H  H111  1  0.766200  0.628500  0.371300  1
  H  H112  1  0.233800  0.371500  0.628700  1
  H  H113  1  0.775400  0.595100  0.215600  1
  H  H114  1  0.224600  0.404900  0.784400  1
  H  H115  1  0.109700  0.735300  0.114300  1
  H  H116  1  0.890300  0.264700  0.885700  1
  H  H117  1  0.981500  0.817800  0.121200  1
  H  H118  1  0.018500  0.182200  0.878800  1
  H  H119  1  0.894000  0.862300  0.196500  1
  H  H120  1  0.106000  0.137700  0.803500  1
  H  H121  1  0.862800  0.854800  0.282600  1
  H  H122  1  0.137200  0.145200  0.717400  1
  H  H123  1  0.822700  0.843600  0.373000  1
  H  H124  1  0.177300  0.156400  0.627000  1
  H  H125  1  0.853900  0.813000  0.443400  1
  H  H126  1  0.146100  0.187000  0.556600  1
  H  H127  1  0.982000  0.743900  0.440400  1
  H  H128  1  0.018000  0.256100  0.559600  1
  H  H129  1  0.118700  0.693200  0.275000  1
  H  H130  1  0.881300  0.306800  0.725000  1
  H  H131  1  0.657700  0.988700  0.094200  1
  H  H132  1  0.342300  0.011300  0.905800  1
  H  H133  1  0.581700  0.042100  0.080800  1
  H  H134  1  0.418300  0.957900  0.919200  1
  H  H135  1  0.636000  0.119800  0.044900  1
  H  H136  1  0.364000  0.880200  0.955100  1
  H  H137  1  0.683600  0.043300  0.019800  1
  H  H138  1  0.316400  0.956700  0.980200  1
  H  H139  1  0.713100  0.062300  0.055800  1
  H  H140  1  0.286900  0.937700  0.944200  1
  H  H141  1  0.575300  0.989700  0.198100  1
  H  H142  1  0.424700  0.010300  0.801900  1
  H  H143  1  0.510000  0.063500  0.223400  1
  H  H144  1  0.490000  0.936500  0.776600  1
  H  H145  1  0.433700  0.074200  0.174600  1
  H  H146  1  0.566300  0.925800  0.825400  1
  H  H147  1  0.453200  0.000400  0.204000  1
  H  H148  1  0.546800  0.999600  0.796000  1
  H  H149  1  0.499400  0.000800  0.148600  1
  H  H150  1  0.500600  0.999200  0.851400  1
  H  H151  1  0.531100  0.203100  0.114900  1
  H  H152  1  0.468900  0.796900  0.885100  1
  H  H153  1  0.485000  0.162100  0.113900  1
  H  H154  1  0.515000  0.837900  0.886100  1
  H  H155  1  0.411500  0.191600  0.192600  1
  H  H156  1  0.588500  0.808400  0.807400  1
  H  H157  1  0.409800  0.263500  0.164500  1
  H  H158  1  0.590200  0.736500  0.835500  1
  H  H159  1  0.462600  0.224200  0.198500  1
  H  H160  1  0.537400  0.775800  0.801500  1
  H  H161  1  0.926800  0.018200  0.128800  1
  H  H162  1  0.073200  0.981800  0.871200  1
  H  H163  1  0.887400  0.966800  0.138500  1
  H  H164  1  0.112600  0.033200  0.861500  1
  H  H165  1  0.821300  0.045900  0.079000  1
  H  H166  1  0.178700  0.954100  0.921000  1
  H  H167  1  0.908300  0.988500  0.058100  1
  H  H168  1  0.091700  0.011500  0.941900  1
  H  H169  1  0.887100  0.070400  0.063000  1
  H  H170  1  0.112900  0.929600  0.937000  1
  H  H171  1  0.776200  0.072400  0.257900  1
  H  H172  1  0.223800  0.927600  0.742100  1
  H  H173  1  0.812100  0.994500  0.237000  1
  H  H174  1  0.187900  0.005500  0.763000  1
  H  H175  1  0.918700  0.046900  0.206800  1
  H  H176  1  0.081300  0.953100  0.793200  1
  H  H177  1  0.927400  0.972200  0.233100  1
  H  H178  1  0.072600  0.027800  0.766900  1
  H  H179  1  0.888200  0.042900  0.263900  1
  H  H180  1  0.111800  0.957100  0.736100  1
  H  H181  1  0.865500  0.145200  0.162000  1
  H  H182  1  0.134500  0.854800  0.838000  1
  H  H183  1  0.805600  0.181500  0.132500  1
  H  H184  1  0.194400  0.818500  0.867500  1
  H  H185  1  0.703500  0.227500  0.210200  1
  H  H186  1  0.296500  0.772500  0.789800  1
  H  H187  1  0.759900  0.263300  0.194100  1
  H  H188  1  0.240100  0.736700  0.805900  1
  H  H189  1  0.769700  0.201400  0.234000  1
  H  H190  1  0.230300  0.798600  0.766000  1
  H  H191  1  0.939400  0.487300  0.152700  1
  H  H192  1  0.060600  0.512700  0.847300  1
  H  H193  1  0.958400  0.405700  0.160300  1
  H  H194  1  0.041600  0.594300  0.839700  1
  H  H195  1  0.059800  0.374200  0.124500  1
  H  H196  1  0.940200  0.625800  0.875500  1
  H  H197  1  0.042400  0.452600  0.135700  1
  H  H198  1  0.957600  0.547400  0.864300  1
  H  H199  1  0.043600  0.436400  0.085000  1
  H  H200  1  0.956400  0.563600  0.915000  1
  H  H201  1  0.955100  0.493100  0.026400  1
  H  H202  1  0.044900  0.506900  0.973600  1
  H  H203  1  0.982800  0.409100  0.026300  1
  H  H204  1  0.017200  0.590900  0.973700  1
  H  H205  1  0.858300  0.444700  0.018100  1
  H  H206  1  0.141700  0.555300  0.981900  1
  H  H207  1  0.925700  0.446300  0.972200  1
  H  H208  1  0.074300  0.553700  0.027800  1
  H  H209  1  0.861100  0.518800  0.999700  1
  H  H210  1  0.138900  0.481200  0.000300  1
  H  H211  1  0.819300  0.393600  0.135300  1
  H  H212  1  0.180700  0.606400  0.864700  1
  H  H213  1  0.885100  0.356000  0.088300  1
  H  H214  1  0.114900  0.644000  0.911700  1
  H  H215  1  0.921600  0.287300  0.124200  1
  H  H216  1  0.078400  0.712700  0.875800  1
  H  H217  1  0.867200  0.333333  0.171700  1
  H  H218  1  0.132800  0.666667  0.828300  1
  H  H219  1  0.946000  0.335900  0.143000  1
  H  H220  1  0.054000  0.664100  0.857000  1
  H  H221  1  0.688800  0.739400  0.178800  1
  H  H222  1  0.311200  0.260600  0.821200  1
  H  H223  1  0.722600  0.754800  0.123600  1
  H  H224  1  0.277400  0.245200  0.876400  1
  H  H225  1  0.609400  0.849200  0.121000  1
  H  H226  1  0.390600  0.150800  0.879000  1
  H  H227  1  0.615700  0.858000  0.171200  1
  H  H228  1  0.384300  0.142000  0.828800  1
  H  H229  1  0.562400  0.825100  0.169500  1
  H  H230  1  0.437600  0.174900  0.830500  1
  H  H231  1  0.599900  0.653900  0.212200  1
  H  H232  1  0.400100  0.346100  0.787800  1
  H  H233  1  0.544300  0.728600  0.194700  1
  H  H234  1  0.455700  0.271400  0.805300  1
  H  H235  1  0.482400  0.677300  0.196000  1
  H  H236  1  0.517600  0.322700  0.804000  1
  H  H237  1  0.551800  0.599500  0.196000  1
  H  H238  1  0.448200  0.400500  0.804000  1
  H  H239  1  0.545300  0.641900  0.146700  1
  H  H240  1  0.454700  0.358100  0.853300  1
  H  H241  1  0.575400  0.759800  0.095100  1
  H  H242  1  0.424600  0.240200  0.904900  1
  H  H243  1  0.601500  0.678800  0.082500  1
  H  H244  1  0.398500  0.321200  0.917500  1
  H  H245  1  0.716200  0.740800  0.039800  1
  H  H246  1  0.283800  0.259200  0.960200  1
  H  H247  1  0.665700  0.745300  0.008600  1
  H  H248  1  0.334300  0.254700  0.991400  1
  H  H249  1  0.727500  0.669100  0.021000  1
  H  H250  1  0.272500  0.330900  0.979000  1
  H  H251  1  0.163000  0.823100  0.099200  1
  H  H252  1  0.837000  0.176900  0.900800  1
  H  H253  1  0.228400  0.846800  0.089100  1
  H  H254  1  0.771600  0.153200  0.910900  1
  H  H255  1  0.318200  0.738100  0.046500  1
  H  H256  1  0.681800  0.261900  0.953500  1
  H  H257  1  0.252700  0.786300  0.022300  1
  H  H258  1  0.747300  0.213700  0.977700  1
  H  H259  1  0.250400  0.718600  0.054700  1
  H  H260  1  0.749600  0.281400  0.945300  1
  H  H261  1  0.352100  0.722800  0.167700  1
  H  H262  1  0.647900  0.277200  0.832300  1
  H  H263  1  0.373300  0.697200  0.115100  1
  H  H264  1  0.626700  0.302800  0.884900  1
  H  H265  1  0.353600  0.814200  0.084100  1
  H  H266  1  0.646400  0.185800  0.915900  1
  H  H267  1  0.414800  0.784900  0.112400  1
  H  H268  1  0.585200  0.215100  0.887600  1
  H  H269  1  0.328900  0.841900  0.136900  1
  H  H270  1  0.671100  0.158100  0.863100  1
  H  H271  1  0.168700  0.803500  0.227000  1
  H  H272  1  0.831300  0.196500  0.773000  1
  H  H273  1  0.216200  0.846000  0.198700  1
  H  H274  1  0.783800  0.154000  0.801300  1
  H  H275  1  0.125800  0.925000  0.170400  1
  H  H276  1  0.874200  0.075000  0.829600  1
  H  H277  1  0.078000  0.908000  0.221600  1
  H  H278  1  0.922000  0.092000  0.778400  1
  H  H279  1  0.089300  0.872400  0.174600  1
  H  H280  1  0.910700  0.127600  0.825400  1
  H  H281  1  0.133100  0.524200  0.131400  1
  H  H282  1  0.866900  0.475800  0.868600  1
  H  H283  1  0.096100  0.609700  0.132600  1
  H  H284  1  0.903900  0.390300  0.867400  1
  H  H285  1  0.208400  0.607200  0.071200  1
  H  H286  1  0.791600  0.392800  0.928800  1
  H  H287  1  0.174500  0.567700  0.052100  1
  H  H288  1  0.825500  0.432300  0.947900  1
  H  H289  1  0.247100  0.521700  0.070600  1
  H  H290  1  0.752900  0.478300  0.929400  1
  H  H291  1  0.138500  0.546300  0.258100  1
  H  H292  1  0.861500  0.453700  0.741900  1
  H  H293  1  0.071400  0.602100  0.237100  1
  H  H294  1  0.928600  0.397900  0.762900  1
  H  H295  1  0.067400  0.504000  0.210300  1
  H  H296  1  0.932600  0.496000  0.789700  1
  H  H297  1  0.050600  0.500900  0.267000  1
  H  H298  1  0.949400  0.499100  0.733000  1
  H  H299  1  0.132600  0.449000  0.233300  1
  H  H300  1  0.867400  0.551000  0.766700  1
  H  H301  1  0.250700  0.432500  0.163100  1
  H  H302  1  0.749300  0.567500  0.836900  1
  H  H303  1  0.309300  0.464600  0.136400  1
  H  H304  1  0.690700  0.535400  0.863600  1
  H  H305  1  0.308600  0.478300  0.217700  1
  H  H306  1  0.691400  0.521700  0.782300  1
  H  H307  1  0.354500  0.398800  0.197200  1
  H  H308  1  0.645500  0.601200  0.802800  1
  H  H309  1  0.271100  0.424700  0.235000  1
  H  H310  1  0.728900  0.575300  0.765000  1
  H  H311  1  0.658900  0.006200  0.466900  1
  H  H312  1  0.341100  0.993800  0.533100  1
  H  H313  1  0.696800  0.050100  0.476600  1
  H  H314  1  0.303200  0.949900  0.523400  1
  H  H315  1  0.566300  0.157800  0.494600  1
  H  H316  1  0.433700  0.842200  0.505400  1
  H  H317  1  0.571100  0.095100  0.533700  1
  H  H318  1  0.428900  0.904900  0.466300  1
  H  H319  1  0.532500  0.105100  0.493600  1
  H  H320  1  0.467500  0.894900  0.506400  1
  H  H321  1  0.759500  0.966400  0.370400  1
  H  H322  1  0.240500  0.033600  0.629600  1
  H  H323  1  0.782600  0.022400  0.334200  1
  H  H324  1  0.217400  0.977600  0.665800  1
  H  H325  1  0.861800  0.018400  0.373800  1
  H  H326  1  0.138200  0.981600  0.626200  1
  H  H327  1  0.870300  0.939100  0.386100  1
  H  H328  1  0.129700  0.060900  0.613900  1
  H  H329  1  0.813000  0.001200  0.424500  1
  H  H330  1  0.187000  0.998800  0.575500  1
  H  H331  1  0.647600  0.204400  0.412200  1
  H  H332  1  0.352400  0.795600  0.587800  1
  H  H333  1  0.726000  0.149600  0.422300  1
  H  H334  1  0.274000  0.850400  0.577700  1
  H  H335  1  0.795300  0.148700  0.344600  1
  H  H336  1  0.204700  0.851300  0.655400  1
  H  H337  1  0.730600  0.230000  0.350300  1
  H  H338  1  0.269400  0.770000  0.649700  1
  H  H339  1  0.724300  0.173000  0.325700  1
  H  H340  1  0.275700  0.827000  0.674300  1
  H  H341  1  0.515100  0.023200  0.303100  1
  H  H342  1  0.484900  0.976800  0.696900  1
  H  H343  1  0.488700  0.001000  0.357800  1
  H  H344  1  0.511300  0.999000  0.642200  1
  H  H345  1  0.361100  0.057700  0.357600  1
  H  H346  1  0.638900  0.942300  0.642400  1
  H  H347  1  0.412900  0.998600  0.316700  1
  H  H348  1  0.587100  0.001400  0.683300  1
  H  H349  1  0.386800  0.081600  0.303100  1
  H  H350  1  0.613200  0.918400  0.696900  1
  H  H351  1  0.370300  0.204700  0.412300  1
  H  H352  1  0.629700  0.795300  0.587700  1
  H  H353  1  0.336100  0.166400  0.392500  1
  H  H354  1  0.663900  0.833600  0.607500  1
  H  H355  1  0.373600  0.066500  0.442800  1
  H  H356  1  0.626400  0.933500  0.557200  1
  H  H357  1  0.343500  0.131800  0.476700  1
  H  H358  1  0.656500  0.868200  0.523300  1
  H  H359  1  0.432900  0.085100  0.452400  1
  H  H360  1  0.567100  0.914900  0.547600  1
  H  H361  1  0.494600  0.170000  0.275000  1
  H  H362  1  0.505400  0.830000  0.725000  1
  H  H363  1  0.410900  0.176500  0.291300  1
  H  H364  1  0.589100  0.823500  0.708700  1
  H  H365  1  0.362800  0.280200  0.335900  1
  H  H366  1  0.637200  0.719800  0.664100  1
  H  H367  1  0.406100  0.291600  0.281500  1
  H  H368  1  0.593900  0.708400  0.718500  1
  H  H369  1  0.446700  0.273000  0.321800  1
  H  H370  1  0.553300  0.727000  0.678200  1
  H  H371  1  0.977000  0.626200  0.376600  1
  H  H372  1  0.023000  0.373800  0.623400  1
  H  H373  1  0.046500  0.572700  0.336000  1
  H  H374  1  0.953500  0.427300  0.664000  1
  H  H375  1  0.027600  0.476600  0.371400  1
  H  H376  1  0.972400  0.523400  0.628600  1
  H  H377  1  0.942300  0.539200  0.381000  1
  H  H378  1  0.057700  0.460800  0.619000  1
  H  H379  1  0.981500  0.514000  0.422600  1
  H  H380  1  0.018500  0.486000  0.577400  1
  H  H381  1  0.984200  0.623300  0.470900  1
  H  H382  1  0.015800  0.376700  0.529100  1
  H  H383  1  0.025600  0.538300  0.477200  1
  H  H384  1  0.974400  0.461700  0.522800  1
  H  H385  1  0.122400  0.544400  0.496900  1
  H  H386  1  0.877600  0.455600  0.503100  1
  H  H387  1  0.041900  0.597900  0.531200  1
  H  H388  1  0.958100  0.402100  0.468800  1
  H  H389  1  0.087800  0.628700  0.486100  1
  H  H390  1  0.912200  0.371300  0.513900  1
  H  H391  1  0.200100  0.469900  0.409700  1
  H  H392  1  0.799900  0.530100  0.590300  1
  H  H393  1  0.136600  0.447000  0.412600  1
  H  H394  1  0.863400  0.553000  0.587400  1
  H  H395  1  0.166600  0.449700  0.330200  1
  H  H396  1  0.833400  0.550300  0.669800  1
  H  H397  1  0.245200  0.404400  0.342200  1
  H  H398  1  0.754800  0.595600  0.657800  1
  H  H399  1  0.220800  0.485600  0.324200  1
  H  H400  1  0.779200  0.514400  0.675800  1
  H  H401  1  0.101300  0.826700  0.305100  1
  H  H402  1  0.898700  0.173300  0.694900  1
  H  H403  1  0.053400  0.852600  0.358900  1
  H  H404  1  0.946600  0.147400  0.641100  1
  H  H405  1  0.129700  0.909400  0.354000  1
  H  H406  1  0.870300  0.090600  0.646000  1
  H  H407  1  0.081900  0.942200  0.316800  1
  H  H408  1  0.918100  0.057800  0.683200  1
  H  H409  1  0.170700  0.888000  0.298800  1
  H  H410  1  0.829300  0.112000  0.701200  1
  H  H411  1  0.274500  0.768500  0.309400  1
  H  H412  1  0.725500  0.231500  0.690600  1
  H  H413  1  0.301300  0.698000  0.340700  1
  H  H414  1  0.698700  0.302000  0.659300  1
  H  H415  1  0.281400  0.651700  0.287200  1
  H  H416  1  0.718600  0.348300  0.712800  1
  H  H417  1  0.355500  0.662400  0.276800  1
  H  H418  1  0.644500  0.337600  0.723200  1
  H  H419  1  0.288600  0.718200  0.255400  1
  H  H420  1  0.711400  0.281800  0.744600  1
  H  H421  1  0.234400  0.733500  0.413200  1
  H  H422  1  0.765600  0.266500  0.586800  1
  H  H423  1  0.204700  0.814800  0.394600  1
  H  H424  1  0.795300  0.185200  0.605400  1
  H  H425  1  0.082400  0.799900  0.439100  1
  H  H426  1  0.917600  0.200100  0.560900  1
  H  H427  1  0.113700  0.842500  0.457600  1
  H  H428  1  0.886300  0.157500  0.542400  1
  H  H429  1  0.136700  0.760200  0.472200  1
  H  H430  1  0.863300  0.239800  0.527800  1
  H  H431  1  0.639200  0.743300  0.379600  1
  H  H432  1  0.360800  0.256700  0.620400  1
  H  H433  1  0.548800  0.786300  0.390700  1
  H  H434  1  0.451200  0.213700  0.609300  1
  H  H435  1  0.535900  0.689100  0.440900  1
  H  H436  1  0.464100  0.310900  0.559100  1
  H  H437  1  0.576700  0.721200  0.460000  1
  H  H438  1  0.423300  0.278800  0.540000  1
  H  H439  1  0.626100  0.648000  0.430700  1
  H  H440  1  0.373900  0.352000  0.569300  1
  H  H441  1  0.664800  0.753600  0.278000  1
  H  H442  1  0.335200  0.246400  0.722000  1
  H  H443  1  0.607900  0.747700  0.257000  1
  H  H444  1  0.392100  0.252300  0.743000  1
  H  H445  1  0.544100  0.852500  0.330000  1
  H  H446  1  0.455900  0.147500  0.670000  1
  H  H447  1  0.508200  0.855000  0.290100  1
  H  H448  1  0.491800  0.145000  0.709900  1
  H  H449  1  0.579300  0.871900  0.275800  1
  H  H450  1  0.420700  0.128100  0.724200  1
  H  H451  1  0.510100  0.652700  0.355900  1
  H  H452  1  0.489900  0.347300  0.644100  1
  H  H453  1  0.473700  0.729900  0.375500  1
  H  H454  1  0.526300  0.270100  0.624500  1
  H  H455  1  0.443500  0.680900  0.329200  1
  H  H456  1  0.556500  0.319100  0.670800  1
  H  H457  1  0.473400  0.734300  0.295000  1
  H  H458  1  0.526600  0.265700  0.705000  1
  H  H459  1  0.410100  0.761100  0.345800  1
  H  H460  1  0.589900  0.238900  0.654200  1
  H  H461  1  0.881100  0.457800  0.245200  1
  H  H462  1  0.118900  0.542200  0.754800  1
  H  H463  1  0.909500  0.475800  0.282000  1
  H  H464  1  0.090500  0.524200  0.718000  1
  H  H465  1  0.938100  0.332100  0.281500  1
  H  H466  1  0.061900  0.667900  0.718500  1
  H  H467  1  0.989900  0.361900  0.289900  1
  H  H468  1  0.010100  0.638100  0.710100  1
  H  H469  1  0.989200  0.358700  0.237000  1
  H  H470  1  0.010800  0.641300  0.763000  1
  H  H471  1  0.831100  0.341100  0.325800  1
  H  H472  1  0.168900  0.658900  0.674200  1
  H  H473  1  0.744000  0.388400  0.353000  1
  H  H474  1  0.256000  0.611600  0.647000  1
  H  H475  1  0.796700  0.378700  0.257500  1
  H  H476  1  0.203300  0.621300  0.742500  1
  H  H477  1  0.711800  0.402600  0.292800  1
  H  H478  1  0.288200  0.597400  0.707200  1
  H  H479  1  0.774500  0.320900  0.292000  1
  H  H480  1  0.225500  0.679100  0.708000  1
  H  H481  1  0.849500  0.387800  0.374600  1
  H  H482  1  0.150500  0.612200  0.625400  1
  H  H483  1  0.875000  0.448800  0.362000  1
  H  H484  1  0.125000  0.551200  0.638000  1
  H  H485  1  0.761400  0.514900  0.421200  1
  H  H486  1  0.238600  0.485100  0.578800  1
  H  H487  1  0.832500  0.451100  0.435400  1
  H  H488  1  0.167500  0.548900  0.564600  1
  H  H489  1  0.762400  0.438700  0.437200  1
  H  H490  1  0.237600  0.561300  0.562800  1
  Pt  Pt491  1  0.681800  0.091900  0.167552  1
  Pt  Pt492  1  0.318200  0.908100  0.832448  1
  Pt  Pt493  1  0.774010  0.566520  0.118802  1
  Pt  Pt494  1  0.225990  0.433480  0.881198  1
  Pt  Pt495  1  0.218480  0.654360  0.166388  1
  Pt  Pt496  1  0.781520  0.345640  0.833612  1
  Pt  Pt497  1  0.573900  0.108160  0.371686  1
  Pt  Pt498  1  0.426100  0.891840  0.628314  1
  Pt  Pt499  1  0.136900  0.657970  0.375670  1
  Pt  Pt500  1  0.863100  0.342030  0.624330  1
  Pt  Pt501  1  0.700890  0.574900  0.323357  1
  Pt  Pt502  1  0.299110  0.425100  0.676643  1
  C  C503  1  0.585600  0.258600  0.170300  1
  C  C504  1  0.414400  0.741400  0.829700  1
  C  C505  1  0.560000  0.329700  0.152900  1
  C  C506  1  0.440000  0.670300  0.847100  1
  C  C507  1  0.599100  0.345800  0.106900  1
  C  C508  1  0.400900  0.654200  0.893100  1
  C  C509  1  0.664000  0.286600  0.080400  1
  C  C510  1  0.336000  0.713400  0.919600  1
  C  C511  1  0.683900  0.217700  0.098900  1
  C  C512  1  0.316100  0.782300  0.901100  1
  C  C513  1  0.694500  0.527800  0.066900  1
  C  C514  1  0.305500  0.472200  0.933100  1
  C  C515  1  0.652800  0.497500  0.057000  1
  C  C516  1  0.347200  0.502500  0.943000  1
  C  C517  1  0.629600  0.451200  0.092000  1
  C  C518  1  0.370400  0.548800  0.908000  1
  C  C519  1  0.649200  0.438700  0.135200  1
  C  C520  1  0.350800  0.561300  0.864800  1
  C  C521  1  0.688600  0.472300  0.142100  1
  C  C522  1  0.311400  0.527700  0.857900  1
  C  C523  1  0.369500  0.559400  0.094200  1
  C  C524  1  0.630500  0.440600  0.905800  1
  C  C525  1  0.445500  0.507500  0.075600  1
  C  C526  1  0.554500  0.492500  0.924400  1
  C  C527  1  0.495600  0.477700  0.104300  1
  C  C528  1  0.504400  0.522300  0.895700  1
  C  C529  1  0.463800  0.505600  0.151600  1
  C  C530  1  0.536200  0.494400  0.848400  1
  C  C531  1  0.387500  0.555100  0.168200  1
  C  C532  1  0.612500  0.444900  0.831800  1
  C  C533  1  0.579500  0.421700  0.083900  1
  C  C534  1  0.420500  0.578300  0.916100  1
  C  C535  1  0.558900  0.263000  0.350700  1
  C  C536  1  0.441100  0.737000  0.649300  1
  C  C537  1  0.542000  0.331100  0.362200  1
  C  C538  1  0.458000  0.668900  0.637800  1
  C  C539  1  0.485900  0.364300  0.406100  1
  C  C540  1  0.514100  0.635700  0.593900  1
  C  C541  1  0.450600  0.321900  0.435900  1
  C  C542  1  0.549400  0.678100  0.564100  1
  C  C543  1  0.474100  0.252700  0.422800  1
  C  C544  1  0.525900  0.747300  0.577200  1
  C  C545  1  0.253300  0.591700  0.432700  1
  C  C546  1  0.746700  0.408300  0.567300  1
  C  C547  1  0.322300  0.544600  0.443500  1
  C  C548  1  0.677700  0.455400  0.556500  1
  C  C549  1  0.381700  0.490300  0.411100  1
  C  C550  1  0.618300  0.509700  0.588900  1
  C  C551  1  0.370100  0.485500  0.369000  1
  C  C552  1  0.629900  0.514500  0.631000  1
  C  C553  1  0.301600  0.532900  0.359800  1
  C  C554  1  0.698400  0.467100  0.640200  1
  C  C555  1  0.601400  0.516800  0.401100  1
  C  C556  1  0.398600  0.483200  0.598900  1
  C  C557  1  0.550200  0.486900  0.423600  1
  C  C558  1  0.449800  0.513100  0.576400  1
  C  C559  1  0.515400  0.472800  0.397100  1
  C  C560  1  0.484600  0.527200  0.602900  1
  C  C561  1  0.531700  0.491500  0.347600  1
  C  C562  1  0.468300  0.508500  0.652400  1
  C  C563  1  0.585900  0.517400  0.327300  1
  C  C564  1  0.414100  0.482600  0.672700  1
  C  C565  1  0.457700  0.440600  0.421900  1
  C  C566  1  0.542300  0.559400  0.578100  1
  C  C567  1  0.758900  0.937800  0.145200  1
  C  C568  1  0.241100  0.062200  0.854800  1
  C  C569  1  0.785800  0.860300  0.149700  1
  C  C570  1  0.214200  0.139700  0.850300  1
  C  C571  1  0.773000  0.829000  0.194700  1
  C  C572  1  0.227000  0.171000  0.805300  1
  C  C573  1  0.736000  0.872400  0.238300  1
  C  C574  1  0.264000  0.127600  0.761700  1
  C  C575  1  0.728800  0.841400  0.283000  1
  C  C576  1  0.271200  0.158600  0.717000  1
  C  C577  1  0.694000  0.879400  0.325600  1
  C  C578  1  0.306000  0.120600  0.674400  1
  C  C579  1  0.687000  0.842800  0.373200  1
  C  C580  1  0.313000  0.157200  0.626800  1
  C  C581  1  0.643300  0.884200  0.413000  1
  C  C582  1  0.356700  0.115800  0.587000  1
  C  C583  1  0.607100  0.961200  0.410800  1
  C  C584  1  0.392900  0.038800  0.589200  1
  C  C585  1  0.617700  0.999800  0.367300  1
  C  C586  1  0.382300  0.000200  0.632700  1
  C  C587  1  0.659500  0.959200  0.323500  1
  C  C588  1  0.340500  0.040800  0.676500  1
  C  C589  1  0.670100  0.991000  0.275700  1
  C  C590  1  0.329900  0.009000  0.724300  1
  C  C591  1  0.706700  0.951500  0.233200  1
  C  C592  1  0.293300  0.048500  0.766800  1
  C  C593  1  0.718600  0.984000  0.184200  1
  C  C594  1  0.281400  0.016000  0.815800  1
  C  C595  1  0.839300  0.613400  0.119900  1
  C  C596  1  0.160700  0.386600  0.880100  1
  C  C597  1  0.875800  0.635700  0.076300  1
  C  C598  1  0.124200  0.364300  0.923700  1
  C  C599  1  0.928200  0.664100  0.071100  1
  C  C600  1  0.071800  0.335900  0.928900  1
  C  C601  1  0.944400  0.670200  0.109700  1
  C  C602  1  0.055600  0.329800  0.890300  1
  C  C603  1  0.907900  0.651100  0.157900  1
  C  C604  1  0.092100  0.348900  0.842100  1
  C  C605  1  0.922200  0.660400  0.198500  1
  C  C606  1  0.077800  0.339600  0.801500  1
  C  C607  1  0.881900  0.648400  0.244500  1
  C  C608  1  0.118100  0.351600  0.755500  1
  C  C609  1  0.895700  0.662800  0.287000  1
  C  C610  1  0.104300  0.337200  0.713000  1
  C  C611  1  0.851600  0.656700  0.332600  1
  C  C612  1  0.148400  0.343300  0.667400  1
  C  C613  1  0.794900  0.632700  0.339400  1
  C  C614  1  0.205100  0.367300  0.660600  1
  C  C615  1  0.779200  0.615400  0.303300  1
  C  C616  1  0.220800  0.384600  0.696700  1
  C  C617  1  0.823500  0.623500  0.252700  1
  C  C618  1  0.176500  0.376500  0.747300  1
  C  C619  1  0.811800  0.611600  0.211300  1
  C  C620  1  0.188200  0.388400  0.788700  1
  C  C621  1  0.852100  0.623400  0.163500  1
  C  C622  1  0.147900  0.376600  0.836500  1
  C  C623  1  0.101800  0.724500  0.183500  1
  C  C624  1  0.898200  0.275500  0.816500  1
  C  C625  1  0.075100  0.751100  0.145300  1
  C  C626  1  0.924900  0.248900  0.854700  1
  C  C627  1  0.997200  0.801800  0.149100  1
  C  C628  1  0.002800  0.198200  0.850900  1
  C  C629  1  0.944800  0.827300  0.193900  1
  C  C630  1  0.055200  0.172700  0.806100  1
  C  C631  1  0.968100  0.800400  0.236100  1
  C  C632  1  0.031900  0.199600  0.763900  1
  C  C633  1  0.914000  0.822300  0.280900  1
  C  C634  1  0.086000  0.177700  0.719100  1
  C  C635  1  0.933400  0.797000  0.324000  1
  C  C636  1  0.066600  0.203000  0.676000  1
  C  C637  1  0.874700  0.816700  0.371600  1
  C  C638  1  0.125300  0.183300  0.628400  1
  C  C639  1  0.892400  0.797800  0.413600  1
  C  C640  1  0.107600  0.202200  0.586400  1
  C  C641  1  0.969900  0.754600  0.411300  1
  C  C642  1  0.030100  0.245400  0.588700  1
  C  C643  1  0.032600  0.725500  0.367100  1
  C  C644  1  0.967400  0.274500  0.632900  1
  C  C645  1  0.013500  0.747500  0.322400  1
  C  C646  1  0.986500  0.252500  0.677600  1
  C  C647  1  0.067300  0.725000  0.276800  1
  C  C648  1  0.932700  0.275000  0.723200  1
  C  C649  1  0.047200  0.748900  0.231900  1
  C  C650  1  0.952800  0.251100  0.768100  1
  C  C651  1  0.624100  0.039700  0.089600  1
  C  C652  1  0.375900  0.960300  0.910400  1
  C  C653  1  0.667900  0.068700  0.049100  1
  C  C654  1  0.332100  0.931300  0.950900  1
  C  C655  1  0.535800  0.037600  0.192700  1
  C  C656  1  0.464200  0.962400  0.807300  1
  C  C657  1  0.474600  0.027200  0.178600  1
  C  C658  1  0.525400  0.972800  0.821400  1
  C  C659  1  0.507000  0.173000  0.134200  1
  C  C660  1  0.493000  0.827000  0.865800  1
  C  C661  1  0.442000  0.217000  0.176200  1
  C  C662  1  0.558000  0.783000  0.823800  1
  C  C663  1  0.880700  0.016000  0.129000  1
  C  C664  1  0.119300  0.984000  0.871000  1
  C  C665  1  0.873700  0.031600  0.077500  1
  C  C666  1  0.126300  0.968400  0.922500  1
  C  C667  1  0.816100  0.039900  0.231500  1
  C  C668  1  0.183900  0.960100  0.768500  1
  C  C669  1  0.894800  0.024000  0.234100  1
  C  C670  1  0.105200  0.976000  0.765900  1
  C  C671  1  0.812300  0.160000  0.163800  1
  C  C672  1  0.187700  0.840000  0.836200  1
  C  C673  1  0.755900  0.218700  0.204500  1
  C  C674  1  0.244100  0.781300  0.795500  1
  C  C675  1  0.962100  0.442300  0.135300  1
  C  C676  1  0.037900  0.557700  0.864700  1
  C  C677  1  0.030400  0.426000  0.119300  1
  C  C678  1  0.969600  0.574000  0.880700  1
  C  C679  1  0.937200  0.456000  0.034200  1
  C  C680  1  0.062800  0.544000  0.965800  1
  C  C681  1  0.891800  0.467400  0.003500  1
  C  C682  1  0.108200  0.532600  0.996500  1
  C  C683  1  0.874400  0.376800  0.118800  1
  C  C684  1  0.125600  0.623200  0.881200  1
  C  C685  1  0.903000  0.332000  0.140000  1
  C  C686  1  0.097000  0.668000  0.860000  1
  C  C687  1  0.677500  0.752500  0.148000  1
  C  C688  1  0.322500  0.247500  0.852000  1
  C  C689  1  0.610100  0.828100  0.152900  1
  C  C690  1  0.389900  0.171900  0.847100  1
  C  C691  1  0.580000  0.678300  0.185100  1
  C  C692  1  0.420000  0.321700  0.814900  1
  C  C693  1  0.536500  0.646800  0.180600  1
  C  C694  1  0.463500  0.353200  0.819400  1
  C  C695  1  0.619500  0.712100  0.086600  1
  C  C696  1  0.380500  0.287900  0.913400  1
  C  C697  1  0.690300  0.717400  0.032900  1
  C  C698  1  0.309700  0.282600  0.967100  1
  C  C699  1  0.217800  0.805000  0.094500  1
  C  C700  1  0.782200  0.195000  0.905500  1
  C  C701  1  0.263900  0.757800  0.050600  1
  C  C702  1  0.736100  0.242200  0.949400  1
  C  C703  1  0.340000  0.738100  0.137100  1
  C  C704  1  0.660000  0.261900  0.862900  1
  C  C705  1  0.361300  0.800600  0.115600  1
  C  C706  1  0.638700  0.199400  0.884400  1
  C  C707  1  0.182700  0.827200  0.196100  1
  C  C708  1  0.817300  0.172800  0.803900  1
  C  C709  1  0.113200  0.888200  0.190200  1
  C  C710  1  0.886800  0.111800  0.809800  1
  C  C711  1  0.144600  0.565100  0.127700  1
  C  C712  1  0.855400  0.434900  0.872300  1
  C  C713  1  0.198800  0.565500  0.075400  1
  C  C714  1  0.801200  0.434500  0.924600  1
  C  C715  1  0.116600  0.554600  0.231900  1
  C  C716  1  0.883400  0.445400  0.768100  1
  C  C717  1  0.089200  0.496700  0.236000  1
  C  C718  1  0.910800  0.503300  0.764000  1
  C  C719  1  0.268900  0.466000  0.166400  1
  C  C720  1  0.731100  0.534000  0.833600  1
  C  C721  1  0.304000  0.439500  0.207900  1
  C  C722  1  0.696000  0.560500  0.792100  1
  C  C723  1  0.656200  0.054300  0.465000  1
  C  C724  1  0.343800  0.945700  0.535000  1
  C  C725  1  0.573100  0.108600  0.500300  1
  C  C726  1  0.426900  0.891400  0.499700  1
  C  C727  1  0.767100  0.009300  0.368400  1
  C  C728  1  0.232900  0.990700  0.631600  1
  C  C729  1  0.834700  0.990100  0.390400  1
  C  C730  1  0.165300  0.009900  0.609600  1
  C  C731  1  0.696300  0.161400  0.399900  1
  C  C732  1  0.303700  0.838600  0.600100  1
  C  C733  1  0.740700  0.180000  0.350600  1
  C  C734  1  0.259300  0.820000  0.649400  1
  C  C735  1  0.473600  0.039000  0.333700  1
  C  C736  1  0.526400  0.961000  0.666300  1
  C  C737  1  0.402200  0.044700  0.327200  1
  C  C738  1  0.597800  0.955300  0.672800  1
  C  C739  1  0.379400  0.158100  0.402900  1
  C  C740  1  0.620600  0.841900  0.597100  1
  C  C741  1  0.382700  0.105300  0.448100  1
  C  C742  1  0.617300  0.894700  0.551900  1
  C  C743  1  0.446500  0.183900  0.301800  1
  C  C744  1  0.553500  0.816100  0.698200  1
  C  C745  1  0.412400  0.264500  0.311100  1
  C  C746  1  0.587600  0.735500  0.688900  1
  C  C747  1  0.020900  0.577800  0.370900  1
  C  C748  1  0.979100  0.422200  0.629100  1
  C  C749  1  0.990300  0.521800  0.388100  1
  C  C750  1  0.009700  0.478200  0.611900  1
  C  C751  1  0.034400  0.580900  0.466400  1
  C  C752  1  0.965600  0.419100  0.533600  1
  C  C753  1  0.075400  0.588700  0.498100  1
  C  C754  1  0.924600  0.411300  0.501900  1
  C  C755  1  0.161700  0.477000  0.394800  1
  C  C756  1  0.838300  0.523000  0.605200  1
  C  C757  1  0.202200  0.451900  0.343300  1
  C  C758  1  0.797800  0.548100  0.656700  1
  C  C759  1  0.104500  0.837300  0.335000  1
  C  C760  1  0.895500  0.162700  0.665000  1
  C  C761  1  0.123400  0.899700  0.325300  1
  C  C762  1  0.876600  0.100300  0.674700  1
  C  C763  1  0.269100  0.724000  0.319500  1
  C  C764  1  0.730900  0.276000  0.680500  1
  C  C765  1  0.300000  0.687000  0.282800  1
  C  C766  1  0.700000  0.313000  0.717200  1
  C  C767  1  0.191000  0.775100  0.405300  1
  C  C768  1  0.809000  0.224900  0.594700  1
  C  C769  1  0.126000  0.796000  0.446800  1
  C  C770  1  0.874000  0.204000  0.553200  1
  C  C771  1  0.592400  0.737900  0.386700  1
  C  C772  1  0.407600  0.262100  0.613300  1
  C  C773  1  0.581800  0.695100  0.433900  1
  C  C774  1  0.418200  0.304900  0.566100  1
  C  C775  1  0.612300  0.760000  0.285900  1
  C  C776  1  0.387700  0.240000  0.714100  1
  C  C777  1  0.555400  0.842900  0.296500  1
  C  C778  1  0.444600  0.157100  0.703500  1
  C  C779  1  0.502300  0.702000  0.345700  1
  C  C780  1  0.497700  0.298000  0.654300  1
  C  C781  1  0.456000  0.720000  0.328000  1
  C  C782  1  0.544000  0.280000  0.672000  1
  C  C783  1  0.891600  0.443400  0.276300  1
  C  C784  1  0.108400  0.556600  0.723700  1
  C  C785  1  0.958300  0.367000  0.270700  1
  C  C786  1  0.041700  0.633000  0.729300  1
  C  C787  1  0.784900  0.384600  0.322700  1
  C  C788  1  0.215100  0.615400  0.677300  1
  C  C789  1  0.765700  0.370800  0.289000  1
  C  C790  1  0.234300  0.629200  0.711000  1
  C  C791  1  0.830000  0.440000  0.371800  1
  C  C792  1  0.170000  0.560000  0.628200  1
  C  C793  1  0.793700  0.463000  0.420100  1
  C  C794  1  0.206300  0.537000  0.579900  1
  N  N795  1  0.645400  0.203400  0.144000  1
  N  N796  1  0.354600  0.796600  0.856000  1
  N  N797  1  0.710200  0.517000  0.109200  1
  N  N798  1  0.289800  0.483000  0.890800  1
  N  N799  1  0.338000  0.584300  0.140600  1
  N  N800  1  0.662000  0.415700  0.859400  1
  N  N801  1  0.529300  0.221100  0.382200  1
  N  N802  1  0.470700  0.778900  0.617800  1
  N  N803  1  0.243400  0.586000  0.390700  1
  N  N804  1  0.756600  0.414000  0.609300  1
  N  N805  1  0.620100  0.531000  0.352500  1
  N  N806  1  0.379900  0.469000  0.647500  1
  N  N807  1  0.530800  0.411900  0.252900  1
  N  N808  1  0.469200  0.588100  0.747100  1
  O  O809  1  0.599300  0.417400  0.031900  1
  O  O810  1  0.400700  0.582600  0.968100  1
  O  O811  1  0.441300  0.440000  0.474100  1
  O  O812  1  0.558700  0.560000  0.525900  1
  O  O813  1  0.473000  0.389800  0.263600  1
  O  O814  1  0.527000  0.610200  0.736400  1
  O  O815  1  0.606100  0.361000  0.245900  1
  O  O816  1  0.393900  0.639000  0.754100  1
  O  O817  1  0.516000  0.484100  0.246900  1
  O  O818  1  0.484000  0.515900  0.753100  1
  F  F819  1  0.658500  0.037100  0.752700  1
  F  F820  1  0.341500  0.962900  0.247300  1
  F  F821  1  0.569400  0.149200  0.751300  1
  F  F822  1  0.430600  0.850800  0.248700  1
  F  F823  1  0.597300  0.111400  0.814600  1
  F  F824  1  0.402700  0.888600  0.185400  1
  F  F825  1  0.686200  0.124900  0.707600  1
  F  F826  1  0.313800  0.875100  0.292400  1
  F  F827  1  0.718300  0.085500  0.776400  1
  F  F828  1  0.281700  0.914500  0.223600  1
  F  F829  1  0.635100  0.188300  0.771200  1
  F  F830  1  0.364900  0.811700  0.228800  1
  F  F831  1  0.841900  0.284000  0.052000  1
  F  F832  1  0.158100  0.716000  0.948000  1
  F  F833  1  0.855400  0.194200  0.021300  1
  F  F834  1  0.144600  0.805800  0.978700  1
  F  F835  1  0.886000  0.272200  0.973600  1
  F  F836  1  0.114000  0.727800  0.026400  1
  F  F837  1  0.943700  0.172900  0.052400  1
  F  F838  1  0.056300  0.827100  0.947600  1
  F  F839  1  0.956600  0.266900  0.010100  1
  F  F840  1  0.043400  0.733100  0.989900  1
  F  F841  1  0.976100  0.170100  0.975200  1
  F  F842  1  0.023900  0.829900  0.024800  1
  F  F843  1  0.633100  0.315800  0.444600  1
  F  F844  1  0.366900  0.684200  0.555400  1
  F  F845  1  0.629100  0.244200  0.509200  1
  F  F846  1  0.370900  0.755800  0.490800  1
  F  F847  1  0.570200  0.364500  0.516300  1
  F  F848  1  0.429800  0.635500  0.483700  1
  F  F849  1  0.737800  0.245100  0.466400  1
  F  F850  1  0.262200  0.754900  0.533600  1
  F  F851  1  0.677300  0.369900  0.474900  1
  F  F852  1  0.322700  0.630100  0.525100  1
  F  F853  1  0.671900  0.298700  0.541000  1
  F  F854  1  0.328100  0.701300  0.459000  1
  F  F855  1  0.462700  0.317700  0.974700  1
  F  F856  1  0.537300  0.682300  0.025300  1
  F  F857  1  0.511300  0.373200  0.000700  1
  F  F858  1  0.488700  0.626800  0.999300  1
  F  F859  1  0.541700  0.255100  0.018800  1
  F  F860  1  0.458300  0.744900  0.981200  1
  F  F861  1  0.389300  0.399900  0.033700  1
  F  F862  1  0.610700  0.600100  0.966300  1
  F  F863  1  0.420000  0.281600  0.053300  1
  F  F864  1  0.580000  0.718400  0.946700  1
  F  F865  1  0.468600  0.337900  0.077000  1
  F  F866  1  0.531400  0.662100  0.923000  1
  F  F867  1  0.726000  0.665700  0.555900  1
  F  F868  1  0.274000  0.334300  0.444100  1
  F  F869  1  0.680300  0.730100  0.496900  1
  F  F870  1  0.319700  0.269900  0.503100  1
  F  F871  1  0.745500  0.609700  0.492700  1
  F  F872  1  0.254500  0.390300  0.507300  1
  F  F873  1  0.846500  0.610800  0.503500  1
  F  F874  1  0.153500  0.389200  0.496500  1
  F  F875  1  0.780100  0.731200  0.508800  1
  F  F876  1  0.219900  0.268800  0.491200  1
  F  F877  1  0.801600  0.677000  0.443900  1
  F  F878  1  0.198400  0.323000  0.556100  1
