
#######################################################################
#
#                 Cambridge Crystallographic Data Centre
#                                CCDC 
#
#######################################################################
#
# If this CIF has been generated from an entry in the Cambridge 
# Structural Database, then it will include bibliographic, chemical, 
# crystal, experimental, refinement or atomic coordinate data resulting 
# from the CCDC's data processing and validation procedures.
#
#######################################################################

data_EFUTEE
_chemical_formula_moiety         'C196 H258 N6 P12 Pt6 6+,6(F6 P1 1-)'
_chemical_name_systematic        
"bis(\m~3~-1,1,1-tris(4-(2-(Pyrid-4-yl)ethynyl)phenyl)ethane-N,N',N'')-tris(\m~2~-anthracene-1,8-diyl)-dodecakis(triethylphosphine)-hexa-platinum hexakis(hexafluorophosphate)"
_symmetry_cell_setting           rhombohedral
_symmetry_space_group_name_H-M   'R -3 c'
_symmetry_Int_Tables_number      167
_space_group_name_Hall           '-R 3 2"c'
loop_
_symmetry_equiv_pos_site_id
_symmetry_equiv_pos_as_xyz
1 x,y,z
2 -y,x-y,z
3 -x+y,-x,z
4 y,x,1/2-z
5 2/3+x,1/3+y,1/3+z
6 2/3-y,1/3+x-y,1/3+z
7 2/3-x+y,1/3-x,1/3+z
8 2/3+y,1/3+x,5/6-z
9 1/3+x,2/3+y,2/3+z
10 1/3+y,2/3+x,1/6-z
11 -x+y,y,1/2+z
12 x,x-y,1/2+z
13 2/3+y,1/3-x+y,1/3-z
14 2/3+x-y,1/3+x,1/3-z
15 2/3-x+y,1/3+y,5/6+z
16 2/3+x,1/3+x-y,5/6+z
17 1/3-x+y,2/3+y,1/6+z
18 1/3+x,2/3+x-y,1/6+z
19 -x,-y,-z
20 y,-x+y,-z
21 x-y,x,-z
22 -y,-x,1/2+z
23 1/3-x,2/3-y,2/3-z
24 1/3+y,2/3-x+y,2/3-z
25 1/3+x-y,2/3+x,2/3-z
26 1/3-y,2/3-x,1/6+z
27 2/3-x,1/3-y,1/3-z
28 2/3-y,1/3-x,5/6+z
29 x-y,-y,1/2-z
30 -x,-x+y,1/2-z
31 1/3-y,2/3+x-y,2/3+z
32 1/3-x+y,2/3-x,2/3+z
33 1/3+x-y,2/3-y,1/6-z
34 1/3-x,2/3-x+y,1/6-z
35 2/3+x-y,1/3-y,5/6-z
36 2/3-x,1/3-x+y,5/6-z
_cell_length_a                   30.6988(2)
_cell_length_b                   30.6988(2)
_cell_length_c                   52.3624(8)
_cell_angle_alpha                90
_cell_angle_beta                 90
_cell_angle_gamma                120.00
_cell_volume                     42735.9
_cell_formula_units_Z            6
_exptl_crystal_recrystallization_method 'diethyl ether/dimethylformamide'
loop_
_atom_site_label
_atom_site_type_symbol
_atom_site_fract_x
_atom_site_fract_y
_atom_site_fract_z
Pt1 Pt 0.10050(3) 0.74584(3) 0.031463(16)
P1 P 0.0624(3) 0.7905(3) 0.01667(16)
P2 P 0.1475(3) 0.7084(3) 0.04049(18)
C1 C -0.2826(6) 0.3790(6) -0.0155(3)
C2 C -0.3333 0.3333 -0.0257(6)
C3 C -0.1435(8) 0.5032(7) 0.0074(5)
C4 C -0.1901(7) 0.4603(7) 0.0003(4)
C5 C -0.2421(8) 0.3924(7) -0.0293(4)
H1 H -0.2442 0.3760 -0.0446
N1 N 0.0343(6) 0.6746(7) 0.0246(3)
C6 C 0.0254(8) 0.6537(11) 0.0055(8)
H2 H 0.0484 0.6699 -0.0076
C7 C -0.0170(9) 0.6053(8) -0.0007(5)
H3 H -0.0187 0.5893 -0.0160
C8 C -0.0549(8) 0.5841(8) 0.0170(5)
C9 C -0.1022(8) 0.5400(8) 0.0118(5)
C10 C -0.2793(7) 0.4067(8) 0.0061(4)
H4 H -0.3083 0.3978 0.0154
C11 C -0.2353(7) 0.4459(8) 0.0141(4)
H5 H -0.2345 0.4636 0.0287
C12 C -0.1933(7) 0.4334(8) -0.0204(5)
H6 H -0.1642 0.4406 -0.0292
C13 C -0.0444(8) 0.6085(10) 0.0401(5)
H7 H -0.0671 0.5957 0.0536
C14 C 0.0016(8) 0.6535(8) 0.0428(4)
H8 H 0.0091 0.6692 0.0587
C15 C 0.113(3) 0.650(3) 0.0580(15)
H9 H 0.0777 0.6337 0.0536
H10 H 0.1165 0.6563 0.0760
C16 C 0.190(3) 0.713(3) 0.0045(12)
H12 H 0.2117 0.7481 -0.0003
H13 H 0.2106 0.6979 0.0072
C17 C 0.130(4) 0.895(3) 0.0152(17)
H14 H 0.1158 0.9019 0.0005
H15 H 0.1506 0.8813 0.0098
H16 H 0.1497 0.9251 0.0247
C18 C -0.3333 0.3333 -0.0549(8)
H17 H -0.3252 0.3088 -0.0610
H18 H -0.3088 0.3660 -0.0610
H19 H -0.3660 0.3252 -0.0610
C19 C 0.1565(8) 0.8231(8) 0.0833
H20 H 0.1262 0.7929 0.0833
C20 C 0.1805(7) 0.8405(7) 0.0602(4)
C21 C 0.2281(9) 0.8861(8) 0.0610(4)
C22 C 0.2468(9) 0.9134(9) 0.0833
H21 H 0.2771 0.9437 0.0833
C23 C 0.1940(10) 0.8367(9) 0.0155(4)
H22 H 0.1829 0.8189 0.0003
C24 C 0.1631(9) 0.8143(8) 0.0370(5)
C25 C -0.017(3) 0.749(2) 0.0203(12)
H23 H -0.0262 0.7310 0.0363
H25 H -0.0306 0.7712 0.0197
C26 C 0.0817(16) 0.8513(16) 0.0343(8)
H26 H 0.0935 0.8506 0.0514
H27 H 0.0542 0.8582 0.0354
C27 C 0.2531(13) 0.9073(11) 0.0392(7)
H28 H 0.2807 0.9397 0.0401
C28 C 0.2395(12) 0.8827(12) 0.0143(6)
H29 H 0.2585 0.8958 -0.0005
C29 C 0.2026(18) 0.7480(18) 0.0609(9)
H30 H 0.1922 0.7513 0.0780
H31 H 0.2229 0.7813 0.0536
C30 C 0.164(2) 0.695(2) -0.0094(10)
H32 H 0.1323 0.6718 -0.0018
H33 H 0.1752 0.6763 -0.0198
H34 H 0.1606 0.7185 -0.0198
C31 C 0.234(2) 0.718(2) 0.0615(10)
H35 H 0.2445 0.7169 0.0787
H36 H 0.2627 0.7342 0.0506
H37 H 0.2125 0.6838 0.0556
C32 C 0.076(2) 0.801(3) -0.0151(12)
H38 H 0.0581 0.8183 -0.0202
H39 H 0.1111 0.8263 -0.0152
C33 C 0.071(2) 0.772(2) -0.0364(13)
H40 H 0.0812 0.7477 -0.0321
H41 H 0.0923 0.7933 -0.0499
H42 H 0.0368 0.7545 -0.0421
C34 C -0.039 0.710 -0.003
C35 C 0.135 0.614 0.051
C1B C -0.3384(8) 0.2826(6) -0.0155(3)
C5B C -0.3655(11) 0.2421(8) -0.0293(4)
H1B H -0.3798 0.2442 -0.0446
C12B C -0.3733(11) 0.1933(7) -0.0204(5)
C4B C -0.3496(10) 0.1901(7) 0.0003(4)
C3B C -0.3533(11) 0.1435(8) 0.0074(5)
C9B C -0.3578(11) 0.1022(8) 0.0118(5)
C8B C -0.3610(11) 0.0549(8) 0.0170(5)
C7B C -0.3777(12) 0.0170(9) -0.0007(5)
C6B C -0.3717(14) -0.0254(8) 0.0055(8)
N1B N -0.3597(9) -0.0343(6) 0.0246(3)
Pt1B Pt -0.35466(4) -0.10050(3) 0.031463(16)
P1B P -0.2719(4) -0.0624(3) 0.01667(16)
C25B C -0.234(4) 0.017(3) 0.0203(12)
H23B H -0.2428 0.0262 0.0363
H25B H -0.1982 0.0306 0.0197
C34B C -0.251 0.039 -0.003
C26B C -0.2304(23) -0.0817(16) 0.0343(8)
C17B C -0.235(5) -0.130(4) 0.0152(17)
H14B H -0.2139 -0.1158 0.0005
H15B H -0.2693 -0.1506 0.0098
H16B H -0.2246 -0.1497 0.0247
H26B H -0.2429 -0.0935 0.0514
H27B H -0.1960 -0.0542 0.0354
C32B C -0.275(4) -0.076(2) -0.0151(12)
H38B H -0.2398 -0.0581 -0.0202
H39B H -0.2848 -0.1111 -0.0152
C33B C -0.299(3) -0.071(2) -0.0364(13)
H40B H -0.3335 -0.0812 -0.0321
H41B H -0.2990 -0.0923 -0.0499
H42B H -0.2823 -0.0368 -0.0421
P2B P -0.4391(4) -0.1475(3) 0.04049(18)
C15B C -0.463(4) -0.113(3) 0.0580(15)
H9B H -0.4440 -0.0777 0.0536
H10B H -0.4602 -0.1165 0.0760
C35B C -0.521 -0.135 0.051
C16B C -0.477(4) -0.190(3) 0.0045(12)
H12B H -0.4636 -0.2117 -0.0003
H13B H -0.5127 -0.2106 0.0072
C30B C -0.469(3) -0.164(2) -0.0094(10)
H32B H -0.4605 -0.1323 -0.0018
H33B H -0.4989 -0.1752 -0.0198
H34B H -0.4421 -0.1606 -0.0198
C29B C -0.4546(25) -0.2026(18) 0.0609(9)
H30B H -0.4409 -0.1922 0.0780
H31B H -0.4416 -0.2229 0.0536
C31B C -0.516(3) -0.234(2) 0.0615(10)
H35B H -0.5276 -0.2445 0.0787
H36B H -0.5285 -0.2627 0.0506
H37B H -0.5287 -0.2125 0.0556
C24B C -0.3488(12) -0.1631(9) 0.0370(5)
C20B C -0.3400(10) -0.1805(7) 0.0602(4)
C19B C -0.3334(11) -0.1565(8) 0.0833
H20B H -0.3333 -0.1262 0.0833
C20FA C -0.3267(10) -0.1738(7) 0.1065(4)
C21FA C -0.3247(12) -0.2194(8) 0.1057(4)
C22FA C -0.3333(13) -0.2467(9) 0.0834
C21B C -0.3420(12) -0.2281(9) 0.0610(4)
C27B C -0.3458(17) -0.2531(13) 0.0392(7)
H28B H -0.3410 -0.2807 0.0401
C28B C -0.3568(17) -0.2395(12) 0.0143(6)
C23B C -0.3573(13) -0.1940(10) 0.0155(4)
H22B H -0.3640 -0.1829 0.0003
H29B H -0.3627 -0.2585 -0.0005
H21FA H -0.3333 -0.2770 0.0834
C27FA C -0.3209(17) -0.2406(11) 0.1275(7)
H28FA H -0.3257 -0.2730 0.1266
C28FA C -0.3099(17) -0.2160(12) 0.1524(6)
C23FA C -0.3094(13) -0.1700(9) 0.1512(4)
H22FA H -0.3027 -0.1522 0.1664
C24FA C -0.3179(12) -0.1476(8) 0.1297(5)
Pt1FA Pt -0.31201(4) -0.07917(3) 0.135204(16)
P1FA P -0.3948(4) -0.1238(3) 0.15000(16)
C25FA C -0.433(4) -0.082(2) 0.1464(12)
H23FA H -0.4239 -0.0643 0.1304
H25FA H -0.4685 -0.1045 0.1470
C34FA C -0.415667 -0.043333 0.169667
C26FA C -0.4363(23) -0.1846(16) 0.1324(8)
C17FA C -0.432(5) -0.228(3) 0.1515(17)
H14FA H -0.4528 -0.2352 0.1662
H15FA H -0.3974 -0.2146 0.1569
H16FA H -0.4421 -0.2584 0.1420
H26FA H -0.4238 -0.1839 0.1153
H27FA H -0.4707 -0.1915 0.1313
C32FA C -0.392(4) -0.134(3) 0.1818(12)
H38FA H -0.4269 -0.1516 0.1869
H39FA H -0.3819 -0.1596 0.1819
C33FA C -0.368(3) -0.105(2) 0.2031(13)
H40FA H -0.3332 -0.0810 0.1988
H41FA H -0.3677 -0.1266 0.2166
H42FA H -0.3844 -0.0878 0.2088
P2FA P -0.2276(4) -0.0417(3) 0.12618(18)
C15FA C -0.204(4) 0.017(3) 0.1087(15)
H9FA H -0.2227 0.0330 0.1131
H10FA H -0.2065 0.0104 0.0907
C35FA C -0.145667 0.052667 0.115667
C16FA C -0.190(4) -0.046(3) 0.1622(12)
H12FA H -0.2031 -0.0814 0.1670
H13FA H -0.1540 -0.0312 0.1595
C30FA C -0.198(3) -0.028(2) 0.1761(10)
H32FA H -0.2062 -0.0051 0.1685
H33FA H -0.1678 -0.0096 0.1865
H34FA H -0.2246 -0.0518 0.1865
C29FA C -0.2121(25) -0.0813(18) 0.1058(9)
H30FA H -0.2258 -0.0846 0.0887
H31FA H -0.2251 -0.1146 0.1131
C31FA C -0.151(3) -0.051(2) 0.1052(10)
H35FA H -0.1391 -0.0502 0.0880
H36FA H -0.1382 -0.0675 0.1161
H37FA H -0.1380 -0.0171 0.1111
N1FA N -0.3070(9) -0.0079(7) 0.1421(3)
C6FA C -0.2950(14) 0.0130(11) 0.1612(8)
H2FA H -0.2882 -0.0032 0.1743
C7FA C -0.2890(12) 0.0614(8) 0.1674(5)
H3FA H -0.2747 0.0774 0.1827
C8FA C -0.3057(11) 0.0826(8) 0.1497(5)
C9FA C -0.3089(11) 0.1267(8) 0.1549(5)
C3FA C -0.3134(11) 0.1635(7) 0.1593(5)
C4FA C -0.3171(10) 0.2064(7) 0.1664(4)
C11FA C -0.3479(11) 0.2208(8) 0.1526(4)
C10FA C -0.3527(11) 0.2600(8) 0.1606(4)
C1FA C -0.3283(8) 0.2877(6) 0.1822(3)
C2FA C -0.3333 0.3334 0.1924(6)
C1I C -0.2877(6) 0.3841(6) 0.1822(3)
C5I C -0.2743(7) 0.4246(8) 0.1960(4)
H1I H -0.2907 0.4225 0.2113
C12I C -0.2333(8) 0.4734(7) 0.1871(5)
C4I C -0.2064(7) 0.4766(7) 0.1664(4)
C3I C -0.1635(7) 0.5232(8) 0.1593(5)
C9I C -0.1267(8) 0.5645(8) 0.1549(5)
C8I C -0.0826(8) 0.6118(8) 0.1497(5)
C7I C -0.0614(8) 0.6497(9) 0.1674(5)
C6I C -0.0130(11) 0.6921(8) 0.1612(8)
N1I N 0.0079(7) 0.7010(6) 0.1421(3)
Pt1I Pt 0.07917(3) 0.76717(3) 0.135204(16)
P1I P 0.1238(3) 0.7291(3) 0.15000(16)
C25I C 0.082(2) 0.650(3) 0.1464(12)
H23I H 0.0643 0.6405 0.1304
H25I H 0.1045 0.6361 0.1470
C34I C 0.043333 0.627667 0.169667
C26I C 0.1846(16) 0.7484(16) 0.1324(8)
C17I C 0.228(3) 0.797(4) 0.1515(17)
H14I H 0.2352 0.7825 0.1662
H15I H 0.2146 0.8173 0.1569
H16I H 0.2584 0.8164 0.1420
H26I H 0.1839 0.7602 0.1153
H27I H 0.1915 0.7209 0.1313
C32I C 0.134(3) 0.743(2) 0.1818(12)
H38I H 0.1516 0.7248 0.1869
H39I H 0.1596 0.7778 0.1819
C33I C 0.105(2) 0.738(2) 0.2031(13)
H40I H 0.0810 0.7479 0.1988
H41I H 0.1266 0.7590 0.2166
H42I H 0.0878 0.7035 0.2088
P2I P 0.0417(3) 0.8142(3) 0.12618(18)
C15I C -0.017(3) 0.780(3) 0.1087(15)
H9I H -0.0330 0.7444 0.1131
H10I H -0.0104 0.7832 0.0907
C35I C -0.052667 0.801667 0.115667
C16I C 0.046(3) 0.857(3) 0.1622(12)
H12I H 0.0814 0.8784 0.1670
H13I H 0.0312 0.8773 0.1595
C30I C 0.028(2) 0.831(2) 0.1761(10)
H32I H 0.0051 0.7990 0.1685
H33I H 0.0096 0.8419 0.1865
H34I H 0.0518 0.8273 0.1865
C29I C 0.0813(18) 0.8693(18) 0.1058(9)
H30I H 0.0846 0.8589 0.0887
H31I H 0.1146 0.8896 0.1131
C31I C 0.051(2) 0.901(2) 0.1052(10)
H35I H 0.0502 0.9112 0.0880
H36I H 0.0675 0.9294 0.1161
H37I H 0.0171 0.8792 0.1111
C24I C 0.1476(8) 0.8298(9) 0.1297(5)
C20I C 0.1738(7) 0.8472(7) 0.1065(4)
C21I C 0.2194(8) 0.8948(9) 0.1057(4)
C27I C 0.2406(11) 0.9198(13) 0.1275(7)
H28I H 0.2730 0.9474 0.1266
C28I C 0.2160(12) 0.9062(12) 0.1524(6)
C23I C 0.1700(9) 0.8607(10) 0.1512(4)
H22I H 0.1522 0.8496 0.1664
H29I H 0.2291 0.9252 0.1672
C14I C -0.0132(8) 0.6683(8) 0.1239(4)
C13I C -0.0582(10) 0.6223(8) 0.1266(5)
H7I H -0.0710 0.5996 0.1131
H8I H 0.0025 0.6758 0.1080
H2I H 0.0032 0.7151 0.1743
H3I H -0.0774 0.6480 0.1827
C11I C -0.2208(8) 0.4314(7) 0.1526(4)
C10I C -0.2600(8) 0.3874(7) 0.1606(4)
H4I H -0.2689 0.3584 0.1513
H5I H -0.2031 0.4322 0.1380
H6I H -0.2261 0.5025 0.1959
C1GA C -0.3841(6) 0.3283(8) 0.1822(3)
C5GA C -0.4246(8) 0.3012(11) 0.1960(4)
H1GA H -0.4225 0.2869 0.2113
C12GA C -0.4734(7) 0.2934(11) 0.1871(5)
C4GA C -0.4766(7) 0.3171(10) 0.1664(4)
C3GA C -0.5232(8) 0.3134(11) 0.1593(5)
C9GA C -0.5645(8) 0.3089(11) 0.1549(5)
C8GA C -0.6118(8) 0.3057(11) 0.1497(5)
C7GA C -0.6497(9) 0.2890(12) 0.1674(5)
C6GA C -0.6921(8) 0.2950(14) 0.1612(8)
N1GA N -0.7010(6) 0.3070(9) 0.1421(3)
Pt1GA Pt -0.76717(3) 0.31201(4) 0.135204(16)
P1GA P -0.7291(3) 0.3948(4) 0.15000(16)
C25GA C -0.650(3) 0.433(4) 0.1464(12)
H23GA H -0.6405 0.4239 0.1304
H25GA H -0.6361 0.4685 0.1470
C34GA C -0.627667 0.415667 0.169667
C26GA C -0.7484(16) 0.4363(23) 0.1324(8)
C17GA C -0.797(4) 0.432(5) 0.1515(17)
H14GA H -0.7825 0.4528 0.1662
H15GA H -0.8173 0.3974 0.1569
H16GA H -0.8164 0.4421 0.1420
H26GA H -0.7602 0.4238 0.1153
H27GA H -0.7209 0.4707 0.1313
C32GA C -0.743(2) 0.392(4) 0.1818(12)
H38GA H -0.7248 0.4269 0.1869
H39GA H -0.7778 0.3819 0.1819
C33GA C -0.738(2) 0.368(3) 0.2031(13)
H40GA H -0.7479 0.3332 0.1988
H41GA H -0.7590 0.3677 0.2166
H42GA H -0.7035 0.3844 0.2088
P2GA P -0.8142(3) 0.2276(4) 0.12618(18)
C15GA C -0.780(3) 0.204(4) 0.1087(15)
H9GA H -0.7444 0.2227 0.1131
H10GA H -0.7832 0.2065 0.0907
C35GA C -0.801667 0.145667 0.115667
C16GA C -0.857(3) 0.190(4) 0.1622(12)
H12GA H -0.8784 0.2031 0.1670
H13GA H -0.8773 0.1540 0.1595
C30GA C -0.831(2) 0.198(3) 0.1761(10)
H32GA H -0.7990 0.2062 0.1685
H33GA H -0.8419 0.1678 0.1865
H34GA H -0.8273 0.2246 0.1865
C29GA C -0.8693(18) 0.2121(25) 0.1058(9)
H30GA H -0.8589 0.2258 0.0887
H31GA H -0.8896 0.2251 0.1131
C31GA C -0.901(2) 0.151(3) 0.1052(10)
H35GA H -0.9112 0.1391 0.0880
H36GA H -0.9294 0.1382 0.1161
H37GA H -0.8792 0.1380 0.1111
C24GA C -0.8298(9) 0.3179(12) 0.1297(5)
C20GA C -0.8472(7) 0.3267(10) 0.1065(4)
C19GA C -0.8232(8) 0.3333(11) 0.0834
H20GA H -0.7929 0.3334 0.0834
C20A C -0.8405(7) 0.3400(10) 0.0602(4)
C21A C -0.8861(8) 0.3420(12) 0.0610(4)
C22A C -0.9134(9) 0.3334(13) 0.0833
C21GA C -0.8948(9) 0.3247(12) 0.1057(4)
C27GA C -0.9198(13) 0.3209(17) 0.1275(7)
H28GA H -0.9474 0.3257 0.1266
C28GA C -0.9062(12) 0.3099(17) 0.1524(6)
C23GA C -0.8607(10) 0.3094(13) 0.1512(4)
H22GA H -0.8496 0.3027 0.1664
H29GA H -0.9252 0.3040 0.1672
H21A H -0.9437 0.3334 0.0833
C27A C -0.9073(11) 0.3458(17) 0.0392(7)
H28A H -0.9397 0.3410 0.0401
C28A C -0.8827(12) 0.3568(17) 0.0143(6)
C23A C -0.8367(9) 0.3573(13) 0.0155(4)
H22A H -0.8189 0.3640 0.0003
C24A C -0.8143(8) 0.3488(12) 0.0370(5)
Pt1A Pt -0.74584(3) 0.35466(4) 0.031463(16)
P1A P -0.7905(3) 0.2719(4) 0.01667(16)
C25A C -0.749(2) 0.234(4) 0.0203(12)
H23A H -0.7310 0.2428 0.0363
H25A H -0.7712 0.1982 0.0197
C34A C -0.710 0.251 -0.003
C26A C -0.8513(16) 0.2304(23) 0.0343(8)
C17A C -0.895(3) 0.235(5) 0.0152(17)
H14A H -0.9019 0.2139 0.0005
H15A H -0.8813 0.2693 0.0098
H16A H -0.9251 0.2246 0.0247
H26A H -0.8506 0.2429 0.0514
H27A H -0.8582 0.1960 0.0354
C32A C -0.801(3) 0.275(4) -0.0151(12)
H38A H -0.8183 0.2398 -0.0202
H39A H -0.8263 0.2848 -0.0152
C33A C -0.772(2) 0.299(3) -0.0364(13)
H40A H -0.7477 0.3335 -0.0321
H41A H -0.7933 0.2990 -0.0499
H42A H -0.7545 0.2823 -0.0421
P2A P -0.7084(3) 0.4391(4) 0.04049(18)
C15A C -0.650(3) 0.463(4) 0.0580(15)
H9A H -0.6337 0.4440 0.0536
H10A H -0.6563 0.4602 0.0760
C35A C -0.614 0.521 0.051
C16A C -0.713(3) 0.477(4) 0.0045(12)
H12A H -0.7481 0.4636 -0.0003
H13A H -0.6979 0.5127 0.0072
C30A C -0.695(2) 0.469(3) -0.0094(10)
H32A H -0.6718 0.4605 -0.0018
H33A H -0.6763 0.4989 -0.0198
H34A H -0.7185 0.4421 -0.0198
C29A C -0.7480(18) 0.4546(25) 0.0609(9)
H30A H -0.7513 0.4409 0.0780
H31A H -0.7813 0.4416 0.0536
C31A C -0.718(2) 0.516(3) 0.0615(10)
H35A H -0.7169 0.5276 0.0787
H36A H -0.7342 0.5285 0.0506
H37A H -0.6838 0.5287 0.0556
N1A N -0.6746(7) 0.3597(9) 0.0246(3)
C6A C -0.6537(11) 0.3717(14) 0.0055(8)
H2A H -0.6699 0.3785 -0.0076
C7A C -0.6053(8) 0.3777(12) -0.0007(5)
H3A H -0.5893 0.3920 -0.0160
C8A C -0.5841(8) 0.3610(11) 0.0170(5)
C9A C -0.5400(8) 0.3578(11) 0.0118(5)
C3A C -0.5032(7) 0.3533(11) 0.0074(5)
C4A C -0.4603(7) 0.3496(10) 0.0003(4)
C11A C -0.4459(8) 0.3188(11) 0.0141(4)
C10A C -0.4067(8) 0.3140(11) 0.0061(4)
C1A C -0.3790(6) 0.3384(8) -0.0155(3)
C5A C -0.3924(7) 0.3655(11) -0.0293(4)
H1A H -0.3760 0.3798 -0.0446
C12A C -0.4334(8) 0.3733(11) -0.0204(5)
H6A H -0.4406 0.3952 -0.0292
H4A H -0.3978 0.2939 0.0154
H5A H -0.4636 0.3019 0.0287
C13A C -0.6085(10) 0.3471(13) 0.0401(5)
H7A H -0.5957 0.3372 0.0536
C14A C -0.6535(8) 0.3481(11) 0.0428(4)
H8A H -0.6692 0.3399 0.0587
H29A H -0.8958 0.3627 -0.0005
C14GA C -0.6683(8) 0.3186(11) 0.1239(4)
C13GA C -0.6223(8) 0.3196(13) 0.1266(5)
H7GA H -0.5996 0.3295 0.1131
H8GA H -0.6758 0.3268 0.1080
H2GA H -0.7151 0.2882 0.1743
H3GA H -0.6480 0.2747 0.1827
C11GA C -0.4314(7) 0.3479(11) 0.1526(4)
C10GA C -0.3874(7) 0.3527(11) 0.1606(4)
H4GA H -0.3584 0.3728 0.1513
H5GA H -0.4322 0.3648 0.1380
H6GA H -0.5025 0.2715 0.1959
C18FA C -0.3333 0.3334 0.2216(8)
H17FA H -0.3007 0.3579 0.2277
H17GA H -0.3415 0.3007 0.2277
H17I H -0.3579 0.3415 0.2277
C5FA C -0.3012(11) 0.2743(7) 0.1960(4)
H1FA H -0.2869 0.2907 0.2113
C12FA C -0.2934(11) 0.2333(8) 0.1871(5)
H6FA H -0.2715 0.2261 0.1959
H4FA H -0.3728 0.2689 0.1513
H5FA H -0.3648 0.2031 0.1380
C13FA C -0.3196(13) 0.0582(10) 0.1266(5)
H7FA H -0.3295 0.0710 0.1131
C14FA C -0.3186(11) 0.0132(8) 0.1239(4)
H8FA H -0.3268 -0.0025 0.1080
H29FA H -0.3040 -0.2291 0.1672
C14B C -0.3481(11) -0.0016(8) 0.0428(4)
C13B C -0.3471(13) 0.0444(8) 0.0401(5)
H7B H -0.3372 0.0671 0.0536
H8B H -0.3399 -0.0091 0.0587
H2B H -0.3785 -0.0484 -0.0076
H3B H -0.3920 0.0187 -0.0160
C11B C -0.3188(11) 0.2353(7) 0.0141(4)
C10B C -0.3140(11) 0.2793(7) 0.0061(4)
H4B H -0.2939 0.3083 0.0154
H5B H -0.3019 0.2345 0.0287
H6B H -0.3952 0.1642 -0.0292
P3 P 0.0578(4) 0.6667 0.9167
F1 F 0.0258(9) 0.6771(9) 0.9376(4)
F2 F 0.0923(12) 0.6663(12) 0.9395(6)
F5 F 0.0718(15) 0.7146(15) 0.9047(7)
F1HA F 0.0154(13) 0.6562(9) 0.8957(4)
F2HA F 0.0927(17) 0.6670(12) 0.8938(6)
F5HA F 0.0239(21) 0.6187(15) 0.9286(7)
H11? H 0.1254 0.6276 0.0537
H24? H -0.0313 0.7249 0.0066
F3? F 0.110(2) 0.718(2) 0.9242(10)
F4? F 0.089(3) 0.749(3) 0.9336(18)
loop_
_geom_bond_atom_site_label_1
_geom_bond_atom_site_label_2
_geom_bond_site_symmetry_1
_geom_bond_site_symmetry_2
Pt1 P1 1_555 1_555
P1 C25 1_555 1_555
P2 Pt1 1_555 1_555
C1 C2 1_555 1_555
C2 C18 1_555 1_555
C3 C4 1_555 1_555
C4 C11 1_555 1_555
C5 C1 1_555 1_555
H1 C5 1_555 1_555
N1 Pt1 1_555 1_555
C6 N1 1_555 1_555
H2 C6 1_555 1_555
C7 C6 1_555 1_555
H3 C7 1_555 1_555
C8 C7 1_555 1_555
C9 C3 1_555 1_555
C10 C1 1_555 1_555
H4 C10 1_555 1_555
C11 C10 1_555 1_555
H5 C11 1_555 1_555
C12 C4 1_555 1_555
H6 C12 1_555 1_555
C13 C8 1_555 1_555
H7 C13 1_555 1_555
C14 N1 1_555 1_555
H8 C14 1_555 1_555
C15 P2 1_555 1_555
H9 C15 1_555 1_555
H10 C15 1_555 1_555
C16 P2 1_555 1_555
H12 C16 1_555 1_555
H13 C16 1_555 1_555
C17 H14 1_555 1_555
H15 C17 1_555 1_555
H16 C17 1_555 1_555
C18 H17 1_555 1_555
H18 C18 1_555 1_555
H19 C18 1_555 1_555
C19 H20 1_555 1_555
C20 C19 1_555 1_555
C21 C20 1_555 1_555
C22 C21 1_555 1_555
H21 C22 1_555 1_555
C23 H22 1_555 1_555
C24 Pt1 1_555 1_555
C25 H23 1_555 1_555
H25 C25 1_555 1_555
C26 P1 1_555 1_555
H26 C26 1_555 1_555
H27 C26 1_555 1_555
C27 C21 1_555 1_555
H28 C27 1_555 1_555
C28 C23 1_555 1_555
H29 C28 1_555 1_555
C29 P2 1_555 1_555
H30 C29 1_555 1_555
H31 C29 1_555 1_555
C30 C16 1_555 1_555
H32 C30 1_555 1_555
H33 C30 1_555 1_555
H34 C30 1_555 1_555
C31 C29 1_555 1_555
H35 C31 1_555 1_555
H36 C31 1_555 1_555
H37 C31 1_555 1_555
C32 P1 1_555 1_555
H38 C32 1_555 1_555
H39 C32 1_555 1_555
C33 C32 1_555 1_555
H40 C33 1_555 1_555
H41 C33 1_555 1_555
H42 C33 1_555 1_555
P3 F1 1_555 1_555
F2 P3 1_555 1_555
F5 P3 1_555 1_555
C34 C25 1_555 1_555
C35 C15 1_555 1_555
C1B C2 1_555 1_555
C5B C1B 1_555 1_555
H1B C5B 1_555 1_555
C12B C5B 1_555 1_555
C4B C12B 1_555 1_555
C3B C4B 1_555 1_555
C9B C3B 1_555 1_555
C8B C9B 1_555 1_555
C7B C8B 1_555 1_555
C6B C7B 1_555 1_555
N1B C6B 1_555 1_555
Pt1B N1B 1_555 1_555
P1B Pt1B 1_555 1_555
C25B P1B 1_555 1_555
H23B C25B 1_555 1_555
H25B C25B 1_555 1_555
C34B C25B 1_555 1_555
C26B P1B 1_555 1_555
C17B C26B 1_555 1_555
H14B C17B 1_555 1_555
H15B C17B 1_555 1_555
H16B C17B 1_555 1_555
H26B C26B 1_555 1_555
H27B C26B 1_555 1_555
C32B P1B 1_555 1_555
H38B C32B 1_555 1_555
H39B C32B 1_555 1_555
C33B C32B 1_555 1_555
H40B C33B 1_555 1_555
H41B C33B 1_555 1_555
H42B C33B 1_555 1_555
P2B Pt1B 1_555 1_555
C15B P2B 1_555 1_555
H9B C15B 1_555 1_555
H10B C15B 1_555 1_555
C35B C15B 1_555 1_555
C16B P2B 1_555 1_555
H12B C16B 1_555 1_555
H13B C16B 1_555 1_555
C30B C16B 1_555 1_555
H32B C30B 1_555 1_555
H33B C30B 1_555 1_555
H34B C30B 1_555 1_555
C29B P2B 1_555 1_555
H30B C29B 1_555 1_555
H31B C29B 1_555 1_555
C31B C29B 1_555 1_555
H35B C31B 1_555 1_555
H36B C31B 1_555 1_555
H37B C31B 1_555 1_555
C24B Pt1B 1_555 1_555
C20B C24B 1_555 1_555
C19B C20B 1_555 1_555
H20B C19B 1_555 1_555
C20FA C19B 1_555 1_555
C21FA C20FA 1_555 1_555
C22FA C21FA 1_555 1_555
C21B C20B 1_555 1_555
C27B C21B 1_555 1_555
H28B C27B 1_555 1_555
C28B C27B 1_555 1_555
C23B C24B 1_555 1_555
H22B C23B 1_555 1_555
H29B C28B 1_555 1_555
H21FA C22FA 1_555 1_555
C27FA C21FA 1_555 1_555
H28FA C27FA 1_555 1_555
C28FA C27FA 1_555 1_555
C23FA C28FA 1_555 1_555
H22FA C23FA 1_555 1_555
C24FA C20FA 1_555 1_555
Pt1FA C24FA 1_555 1_555
P1FA Pt1FA 1_555 1_555
C25FA P1FA 1_555 1_555
H23FA C25FA 1_555 1_555
H25FA C25FA 1_555 1_555
C34FA C25FA 1_555 1_555
C26FA P1FA 1_555 1_555
C17FA C26FA 1_555 1_555
H14FA C17FA 1_555 1_555
H15FA C17FA 1_555 1_555
H16FA C17FA 1_555 1_555
H26FA C26FA 1_555 1_555
H27FA C26FA 1_555 1_555
C32FA P1FA 1_555 1_555
H38FA C32FA 1_555 1_555
H39FA C32FA 1_555 1_555
C33FA C32FA 1_555 1_555
H40FA C33FA 1_555 1_555
H41FA C33FA 1_555 1_555
H42FA C33FA 1_555 1_555
P2FA Pt1FA 1_555 1_555
C15FA P2FA 1_555 1_555
H9FA C15FA 1_555 1_555
H10FA C15FA 1_555 1_555
C35FA C15FA 1_555 1_555
C16FA P2FA 1_555 1_555
H12FA C16FA 1_555 1_555
H13FA C16FA 1_555 1_555
C30FA C16FA 1_555 1_555
H32FA C30FA 1_555 1_555
H33FA C30FA 1_555 1_555
H34FA C30FA 1_555 1_555
C29FA P2FA 1_555 1_555
H30FA C29FA 1_555 1_555
H31FA C29FA 1_555 1_555
C31FA C29FA 1_555 1_555
H35FA C31FA 1_555 1_555
H36FA C31FA 1_555 1_555
H37FA C31FA 1_555 1_555
N1FA Pt1FA 1_555 1_555
C6FA N1FA 1_555 1_555
H2FA C6FA 1_555 1_555
C7FA C6FA 1_555 1_555
H3FA C7FA 1_555 1_555
C8FA C7FA 1_555 1_555
C9FA C8FA 1_555 1_555
C3FA C9FA 1_555 1_555
C4FA C3FA 1_555 1_555
C11FA C4FA 1_555 1_555
C10FA C11FA 1_555 1_555
C1FA C10FA 1_555 1_555
C2FA C1FA 1_555 1_555
C1I C2FA 1_555 1_555
C5I C1I 1_555 1_555
H1I C5I 1_555 1_555
C12I C5I 1_555 1_555
C4I C12I 1_555 1_555
C3I C4I 1_555 1_555
C9I C3I 1_555 1_555
C8I C9I 1_555 1_555
C7I C8I 1_555 1_555
C6I C7I 1_555 1_555
N1I C6I 1_555 1_555
Pt1I N1I 1_555 1_555
P1I Pt1I 1_555 1_555
C25I P1I 1_555 1_555
H23I C25I 1_555 1_555
H25I C25I 1_555 1_555
C34I C25I 1_555 1_555
C26I P1I 1_555 1_555
C17I C26I 1_555 1_555
H14I C17I 1_555 1_555
H15I C17I 1_555 1_555
H16I C17I 1_555 1_555
H26I C26I 1_555 1_555
H27I C26I 1_555 1_555
C32I P1I 1_555 1_555
H38I C32I 1_555 1_555
H39I C32I 1_555 1_555
C33I C32I 1_555 1_555
H40I C33I 1_555 1_555
H41I C33I 1_555 1_555
H42I C33I 1_555 1_555
P2I Pt1I 1_555 1_555
C15I P2I 1_555 1_555
H9I C15I 1_555 1_555
H10I C15I 1_555 1_555
C35I C15I 1_555 1_555
C16I P2I 1_555 1_555
H12I C16I 1_555 1_555
H13I C16I 1_555 1_555
C30I C16I 1_555 1_555
H32I C30I 1_555 1_555
H33I C30I 1_555 1_555
H34I C30I 1_555 1_555
C29I P2I 1_555 1_555
H30I C29I 1_555 1_555
H31I C29I 1_555 1_555
C31I C29I 1_555 1_555
H35I C31I 1_555 1_555
H36I C31I 1_555 1_555
H37I C31I 1_555 1_555
C24I Pt1I 1_555 1_555
C20I C19 1_555 1_555
C21I C22 1_555 1_555
C27I C21I 1_555 1_555
H28I C27I 1_555 1_555
C28I C27I 1_555 1_555
C23I C24I 1_555 1_555
H22I C23I 1_555 1_555
H29I C28I 1_555 1_555
C14I N1I 1_555 1_555
C13I C8I 1_555 1_555
H7I C13I 1_555 1_555
H8I C14I 1_555 1_555
H2I C6I 1_555 1_555
H3I C7I 1_555 1_555
C11I C4I 1_555 1_555
C10I C1I 1_555 1_555
H4I C10I 1_555 1_555
H5I C11I 1_555 1_555
H6I C12I 1_555 1_555
C1GA C2FA 1_555 1_555
C5GA C1GA 1_555 1_555
H1GA C5GA 1_555 1_555
C12GA C5GA 1_555 1_555
C4GA C12GA 1_555 1_555
C3GA C4GA 1_555 1_555
C9GA C3GA 1_555 1_555
C8GA C9GA 1_555 1_555
C7GA C8GA 1_555 1_555
C6GA C7GA 1_555 1_555
N1GA C6GA 1_555 1_555
Pt1GA N1GA 1_555 1_555
P1GA Pt1GA 1_555 1_555
C25GA P1GA 1_555 1_555
H23GA C25GA 1_555 1_555
H25GA C25GA 1_555 1_555
C34GA C25GA 1_555 1_555
C26GA P1GA 1_555 1_555
C17GA C26GA 1_555 1_555
H14GA C17GA 1_555 1_555
H15GA C17GA 1_555 1_555
H16GA C17GA 1_555 1_555
H26GA C26GA 1_555 1_555
H27GA C26GA 1_555 1_555
C32GA P1GA 1_555 1_555
H38GA C32GA 1_555 1_555
H39GA C32GA 1_555 1_555
C33GA C32GA 1_555 1_555
H40GA C33GA 1_555 1_555
H41GA C33GA 1_555 1_555
H42GA C33GA 1_555 1_555
P2GA Pt1GA 1_555 1_555
C15GA P2GA 1_555 1_555
H9GA C15GA 1_555 1_555
H10GA C15GA 1_555 1_555
C35GA C15GA 1_555 1_555
C16GA P2GA 1_555 1_555
H12GA C16GA 1_555 1_555
H13GA C16GA 1_555 1_555
C30GA C16GA 1_555 1_555
H32GA C30GA 1_555 1_555
H33GA C30GA 1_555 1_555
H34GA C30GA 1_555 1_555
C29GA P2GA 1_555 1_555
H30GA C29GA 1_555 1_555
H31GA C29GA 1_555 1_555
C31GA C29GA 1_555 1_555
H35GA C31GA 1_555 1_555
H36GA C31GA 1_555 1_555
H37GA C31GA 1_555 1_555
C24GA Pt1GA 1_555 1_555
C20GA C24GA 1_555 1_555
C19GA C20GA 1_555 1_555
H20GA C19GA 1_555 1_555
C20A C19GA 1_555 1_555
C21A C20A 1_555 1_555
C22A C21A 1_555 1_555
C21GA C20GA 1_555 1_555
C27GA C21GA 1_555 1_555
H28GA C27GA 1_555 1_555
C28GA C27GA 1_555 1_555
C23GA C24GA 1_555 1_555
H22GA C23GA 1_555 1_555
H29GA C28GA 1_555 1_555
H21A C22A 1_555 1_555
C27A C21A 1_555 1_555
H28A C27A 1_555 1_555
C28A C27A 1_555 1_555
C23A C28A 1_555 1_555
H22A C23A 1_555 1_555
C24A C20A 1_555 1_555
Pt1A C24A 1_555 1_555
P1A Pt1A 1_555 1_555
C25A P1A 1_555 1_555
H23A C25A 1_555 1_555
H25A C25A 1_555 1_555
C34A C25A 1_555 1_555
C26A P1A 1_555 1_555
C17A C26A 1_555 1_555
H14A C17A 1_555 1_555
H15A C17A 1_555 1_555
H16A C17A 1_555 1_555
H26A C26A 1_555 1_555
H27A C26A 1_555 1_555
C32A P1A 1_555 1_555
H38A C32A 1_555 1_555
H39A C32A 1_555 1_555
C33A C32A 1_555 1_555
H40A C33A 1_555 1_555
H41A C33A 1_555 1_555
H42A C33A 1_555 1_555
P2A Pt1A 1_555 1_555
C15A P2A 1_555 1_555
H9A C15A 1_555 1_555
H10A C15A 1_555 1_555
C35A C15A 1_555 1_555
C16A P2A 1_555 1_555
H12A C16A 1_555 1_555
H13A C16A 1_555 1_555
C30A C16A 1_555 1_555
H32A C30A 1_555 1_555
H33A C30A 1_555 1_555
H34A C30A 1_555 1_555
C29A P2A 1_555 1_555
H30A C29A 1_555 1_555
H31A C29A 1_555 1_555
C31A C29A 1_555 1_555
H35A C31A 1_555 1_555
H36A C31A 1_555 1_555
H37A C31A 1_555 1_555
N1A Pt1A 1_555 1_555
C6A N1A 1_555 1_555
H2A C6A 1_555 1_555
C7A C6A 1_555 1_555
H3A C7A 1_555 1_555
C8A C7A 1_555 1_555
C9A C8A 1_555 1_555
C3A C9A 1_555 1_555
C4A C3A 1_555 1_555
C11A C4A 1_555 1_555
C10A C11A 1_555 1_555
C1A C2 1_555 1_555
C5A C1A 1_555 1_555
H1A C5A 1_555 1_555
C12A C4A 1_555 1_555
H6A C12A 1_555 1_555
H4A C10A 1_555 1_555
H5A C11A 1_555 1_555
C13A C8A 1_555 1_555
H7A C13A 1_555 1_555
C14A N1A 1_555 1_555
H8A C14A 1_555 1_555
H29A C28A 1_555 1_555
C14GA N1GA 1_555 1_555
C13GA C8GA 1_555 1_555
H7GA C13GA 1_555 1_555
H8GA C14GA 1_555 1_555
H2GA C6GA 1_555 1_555
H3GA C7GA 1_555 1_555
C11GA C4GA 1_555 1_555
C10GA C1GA 1_555 1_555
H4GA C10GA 1_555 1_555
H5GA C11GA 1_555 1_555
H6GA C12GA 1_555 1_555
C18FA C2FA 1_555 1_555
H17FA C18FA 1_555 1_555
H17GA C18FA 1_555 1_555
H17I C18FA 1_555 1_555
C5FA C1FA 1_555 1_555
H1FA C5FA 1_555 1_555
C12FA C4FA 1_555 1_555
H6FA C12FA 1_555 1_555
H4FA C10FA 1_555 1_555
H5FA C11FA 1_555 1_555
C13FA C8FA 1_555 1_555
H7FA C13FA 1_555 1_555
C14FA N1FA 1_555 1_555
H8FA C14FA 1_555 1_555
H29FA C28FA 1_555 1_555
C14B N1B 1_555 1_555
C13B C8B 1_555 1_555
H7B C13B 1_555 1_555
H8B C14B 1_555 1_555
H2B C6B 1_555 1_555
H3B C7B 1_555 1_555
C11B C4B 1_555 1_555
C10B C1B 1_555 1_555
H4B C10B 1_555 1_555
H5B C11B 1_555 1_555
H6B C12B 1_555 1_555
F1HA P3 1_555 1_555
F2HA P3 1_555 1_555
F5HA P3 1_555 1_555
C5 C12 1_555 1_555
C8 C9 1_555 1_555
C13 C14 1_555 1_555
C17 C26 1_555 1_555
C20 C24 1_555 1_555
C23 C24 1_555 1_555
C27 C28 1_555 1_555
C22FA C21B 1_555 1_555
C28B C23B 1_555 1_555
C23FA C24FA 1_555 1_555
C24I C20I 1_555 1_555
C20I C21I 1_555 1_555
C28I C23I 1_555 1_555
C14I C13I 1_555 1_555
C11I C10I 1_555 1_555
C22A C21GA 1_555 1_555
C28GA C23GA 1_555 1_555
C23A C24A 1_555 1_555
C10A C1A 1_555 1_555
C5A C12A 1_555 1_555
C13A C14A 1_555 1_555
C14GA C13GA 1_555 1_555
C11GA C10GA 1_555 1_555
C5FA C12FA 1_555 1_555
C13FA C14FA 1_555 1_555
C14B C13B 1_555 1_555
C11B C10B 1_555 1_555

#END
