
#######################################################################
#
#                 Cambridge Crystallographic Data Centre
#                                CCDC 
#
#######################################################################
#
# If this CIF has been generated from an entry in the Cambridge 
# Structural Database, then it will include bibliographic, chemical, 
# crystal, experimental, refinement or atomic coordinate data resulting 
# from the CCDC's data processing and validation procedures.
#
#######################################################################

data_EFUTAA
_chemical_formula_moiety         
'C146 H230 N6 O2 P12 Pt6 6+,5(F6 P1 1-),N1 O3 1-'
_chemical_name_systematic        
"bis(\m~3~-tris(Pyrid-4-yl)methanol-N,N',N'')-tris(\m~2~-anthracene-1,8-diyl)-dodecakis(triethylphosphine)-hexa-platinum nitrate clathrate pentakis(hexafluorophosphate)"
_symmetry_cell_setting           triclinic
_symmetry_space_group_name_H-M   'P -1'
_symmetry_Int_Tables_number      2
_space_group_name_Hall           '-P 1'
loop_
_symmetry_equiv_pos_site_id
_symmetry_equiv_pos_as_xyz
1 x,y,z
2 -x,-y,-z
_cell_length_a                   20.6055(5)
_cell_length_b                   20.8610(5)
_cell_length_c                   29.2406(5)
_cell_angle_alpha                79.884(12)
_cell_angle_beta                 69.549(12)
_cell_angle_gamma                61.385(11)
_cell_volume                     10337.9
_exptl_crystal_colour            'light yellow'
_exptl_crystal_description       prism
_cell_formula_units_Z            2
_exptl_crystal_recrystallization_method 'diethyl ether/acetonitrile'
loop_
_atom_site_label
_atom_site_type_symbol
_atom_site_fract_x
_atom_site_fract_y
_atom_site_fract_z
C1 C 0.5856(6) 0.2586(6) 0.1703(4)
H1 H 0.5594 0.2495 0.2018
C2 C 0.5600(6) 0.3297(6) 0.1529(4)
H2 H 0.5162 0.3670 0.1722
C3 C 0.5991(6) 0.3458(6) 0.1069(4)
C4 C 0.6640(7) 0.2866(7) 0.0804(4)
H3 H 0.6939 0.2944 0.0498
C5 C 0.6839(7) 0.2177(6) 0.0989(4)
H4 H 0.7257 0.1789 0.0798
C6 C 0.6945(7) 0.5278(6) 0.0669(4)
H5 H 0.7120 0.5567 0.0430
C7 C 0.6528(6) 0.4975(6) 0.0570(4)
H6 H 0.6408 0.5080 0.0278
C8 C 0.6296(6) 0.4512(5) 0.0920(4)
C9 C 0.6492(6) 0.4387(6) 0.1352(4)
H7 H 0.6356 0.4077 0.1592
C10 C 0.6886(6) 0.4723(6) 0.1421(4)
H8 H 0.7006 0.4634 0.1712
C11 C 0.3695(7) 0.5594(7) 0.0942(4)
H9 H 0.3382 0.5783 0.0739
C12 C 0.4455(6) 0.5075(6) 0.0756(4)
H10 H 0.4637 0.4922 0.0436
C13 C 0.4956(6) 0.4777(5) 0.1043(4)
C14 C 0.4638(6) 0.5056(6) 0.1516(4)
H11 H 0.4950 0.4902 0.1718
C15 C 0.3875(6) 0.5551(6) 0.1682(4)
H12 H 0.3679 0.5700 0.2005
C16 C 0.5795(6) 0.4217(5) 0.0839(3)
C17 C 0.5589(7) 0.2630(6) 0.3507(4)
H13 H 0.5921 0.2447 0.3199
C18 C 0.5420(7) 0.3311(6) 0.3622(4)
H14 H 0.5680 0.3559 0.3407
C19 C 0.4859(6) 0.3643(6) 0.4061(4)
C20 C 0.4506(7) 0.3219(7) 0.4359(4)
H15 H 0.4108 0.3412 0.4647
C21 C 0.4741(8) 0.2527(7) 0.4228(4)
H16 H 0.4499 0.2260 0.4438
C22 C 0.2533(7) 0.5917(7) 0.4327(4)
H17 H 0.2135 0.6277 0.4548
C23 C 0.3223(6) 0.5446(6) 0.4435(4)
H18 H 0.3283 0.5498 0.4726
C24 C 0.3817(6) 0.4903(6) 0.4111(4)
C25 C 0.3701(6) 0.4855(6) 0.3690(4)
H19 H 0.4089 0.4499 0.3463
C26 C 0.3016(7) 0.5329(7) 0.3598(4)
H20 H 0.2950 0.5281 0.3309
C27 C 0.6014(7) 0.5168(6) 0.4011(4)
H21 H 0.6233 0.5274 0.4199
C28 C 0.5502(6) 0.4869(6) 0.4236(4)
H22 H 0.5397 0.4763 0.4569
C29 C 0.5154(6) 0.4728(5) 0.3971(4)
C30 C 0.5317(7) 0.4915(6) 0.3476(4)
H23 H 0.5063 0.4866 0.3287
C31 C 0.5859(7) 0.5174(6) 0.3273(4)
H24 H 0.5993 0.5258 0.2938
C32 C 0.4577(6) 0.4406(6) 0.4219(3)
C33 C 0.7589(7) -0.0622(7) 0.1452(5)
H25 H 0.7695 -0.0422 0.1140
C34 C 0.7858(7) -0.1397(7) 0.1497(5)
H26 H 0.8118 -0.1685 0.1219
C35 C 0.7730(7) -0.1710(7) 0.1947(5)
H27 H 0.7884 -0.2209 0.1975
C36 C 0.7360(6) -0.1276(5) 0.2383(4)
C37 C 0.7288(7) -0.1586(6) 0.2830(4)
H28 H 0.7487 -0.2091 0.2852
C38 C 0.6940(7) -0.1206(6) 0.3256(5)
C39 C 0.6870(7) -0.1572(7) 0.3732(4)
H29 H 0.7122 -0.2078 0.3757
C40 C 0.6433(8) -0.1158(7) 0.4130(5)
H30 H 0.6365 -0.1387 0.4434
C41 C 0.6071(8) -0.0388(7) 0.4108(5)
H31 H 0.5749 -0.0129 0.4395
C42 C 0.6177(7) -0.0002(6) 0.3673(5)
C43 C 0.6595(7) -0.0408(6) 0.3235(5)
C44 C 0.6701(6) -0.0090(6) 0.2757(4)
H32 H 0.6510 0.0414 0.2730
C45 C 0.7067(6) -0.0485(6) 0.2332(4)
C46 C 0.7186(7) -0.0160(6) 0.1842(4)
C47 C 0.8393(6) 0.6134(6) 0.1199(4)
C48 C 0.8758(7) 0.6357(7) 0.0763(4)
H33 H 0.8655 0.6322 0.0485
C49 C 0.9282(7) 0.6641(7) 0.0711(4)
H34 H 0.9515 0.6784 0.0404
C50 C 0.9444(6) 0.6702(6) 0.1097(4)
H35 H 0.9803 0.6874 0.1055
C51 C 0.9079(6) 0.6511(6) 0.1579(4)
C52 C 0.9222(6) 0.6604(6) 0.1985(4)
H36 H 0.9600 0.6750 0.1943
C53 C 0.8819(6) 0.6484(6) 0.2445(4)
C54 C 0.8957(6) 0.6628(6) 0.2870(4)
H37 H 0.9347 0.6760 0.2824
C55 C 0.8516(6) 0.6567(6) 0.3326(4)
H38 H 0.8583 0.6682 0.3594
C56 C 0.7949(6) 0.6327(6) 0.3394(4)
H39 H 0.7662 0.6285 0.3713
C57 C 0.7792(6) 0.6154(6) 0.3033(4)
C58 C 0.8235(6) 0.6235(6) 0.2527(4)
C59 C 0.8118(6) 0.6116(6) 0.2113(4)
H40 H 0.7754 0.5951 0.2156
C60 C 0.8521(6) 0.6234(6) 0.1635(4)
C61 C 0.1018(6) 0.7245(6) 0.1835(4)
C62 C 0.0751(7) 0.7511(6) 0.1453(4)
H41 H 0.1097 0.7353 0.1143
C63 C -0.0028(7) 0.8018(6) 0.1491(4)
H42 H -0.0185 0.8178 0.1212
C64 C -0.0552(7) 0.8273(6) 0.1939(4)
H43 H -0.1060 0.8623 0.1965
C65 C -0.0319(6) 0.8004(6) 0.2361(4)
C66 C -0.0860(7) 0.8223(6) 0.2809(4)
H44 H -0.1372 0.8548 0.2826
C67 C -0.0666(6) 0.7970(6) 0.3240(4)
C68 C -0.1253(7) 0.8167(7) 0.3716(5)
H45 H -0.1773 0.8436 0.3730
C69 C -0.1076(7) 0.7978(7) 0.4136(5)
H46 H -0.1461 0.8130 0.4434
C70 C -0.0301(7) 0.7546(7) 0.4113(4)
H47 H -0.0180 0.7439 0.4404
C71 C 0.0326(6) 0.7255(6) 0.3671(4)
C72 C 0.0135(6) 0.7475(6) 0.3224(4)
C73 C 0.0673(6) 0.7250(6) 0.2768(4)
H48 H 0.1187 0.6932 0.2750
C74 C 0.0472(6) 0.7489(5) 0.2319(4)
C75 C 0.6241(9) 0.0397(8) 0.0896(5)
H49 H 0.6577 -0.0113 0.0942
H50 H 0.5817 0.0421 0.0808
C76 C 0.6679(10) 0.0687(10) 0.0491(6)
H51 H 0.6360 0.1198 0.0449
H52 H 0.6836 0.0433 0.0198
H53 H 0.7131 0.0623 0.0558
C77 C 0.5358(8) 0.0376(7) 0.1927(6)
H54 H 0.5753 -0.0103 0.1981
H55 H 0.5100 0.0635 0.2234
C78 C 0.4746(10) 0.0272(8) 0.1786(7)
H56 H 0.4337 0.0742 0.1746
H57 H 0.4532 0.0004 0.2040
H58 H 0.4994 0.0008 0.1486
C79 C 0.5070(7) 0.1730(7) 0.1342(5)
H59 H 0.5311 0.2031 0.1149
H60 H 0.4850 0.1621 0.1139
C80 C 0.4420(8) 0.2170(8) 0.1762(5)
H61 H 0.4115 0.1916 0.1926
H62 H 0.4098 0.2635 0.1645
H63 H 0.4626 0.2242 0.1985
C81 C 0.8807(10) 0.0160(11) 0.1290(7)
H64 H 0.9268 0.0182 0.1288
H65 H 0.8874 -0.0332 0.1385
C82 C 0.8737(13) 0.0316(11) 0.0775(8)
H66 H 0.8213 0.0459 0.0790
H67 H 0.9083 -0.0115 0.0581
H68 H 0.8871 0.0704 0.0630
C83 C 0.8161(8) 0.0399(8) 0.2315(5)
H69 H 0.7762 0.0724 0.2579
H70 H 0.8121 -0.0055 0.2370
C84 C 0.8948(9) 0.0240(11) 0.2341(7)
H71 H 0.9187 0.0469 0.2068
H72 H 0.9274 -0.0278 0.2331
H73 H 0.8882 0.0429 0.2639
C85 C 0.8123(10) 0.1600(9) 0.1638(7)
H74 H 0.8655 0.1452 0.1620
H75 H 0.8056 0.1815 0.1325
C86 C 0.7559(12) 0.2187(10) 0.2045(7)
H76 H 0.7035 0.2275 0.2102
H77 H 0.7599 0.2633 0.1941
H78 H 0.7697 0.2014 0.2340
C87 C 0.9621(13) 0.4423(11) 0.1353(12)
H79 H 0.9394 0.4873 0.1527
H80 H 0.9584 0.4057 0.1603
C88 C 1.0304(19) 0.426(3) 0.1193(15)
H81 H 1.0598 0.3742 0.1245
H82 H 1.0424 0.4526 0.1357
H83 H 1.0436 0.4364 0.0850
C89 C 0.9372(17) 0.4560(16) 0.0342(16)
H84 H 0.9551 0.4931 0.0264
H85 H 0.9828 0.4091 0.0263
C90 C 0.8918(11) 0.4674(17) 0.0035(9)
H86 H 0.8583 0.4447 0.0181
H87 H 0.9257 0.4463 -0.0278
H88 H 0.8611 0.5188 -0.0003
C91 C 0.8744(12) 0.3768(8) 0.1188(12)
H89 H 0.8193 0.3936 0.1353
H90 H 0.8851 0.3560 0.0883
C92 C 0.903(4) 0.332(3) 0.140(2)
H91 H 0.9216 0.2873 0.1242
H92 H 0.8672 0.3333 0.1717
H93 H 0.9460 0.3359 0.1430
C93 C 0.6775(9) 0.7525(8) 0.1480(6)
H94 H 0.6888 0.7394 0.1788
H95 H 0.7226 0.7548 0.1236
C94 C 0.6101(9) 0.8281(8) 0.1529(7)
H96 H 0.6094 0.8492 0.1210
H97 H 0.6157 0.8580 0.1712
H98 H 0.5624 0.8251 0.1695
C95 C 0.5800(11) 0.6783(12) 0.1851(8)
H99 H 0.5999 0.6539 0.2122
H100 H 0.5443 0.7286 0.1947
C96 C 0.5365(11) 0.6468(12) 0.1806(9)
H101 H 0.4824 0.6773 0.1960
H102 H 0.5518 0.5995 0.1960
H103 H 0.5453 0.6419 0.1467
C97 C 0.6195(13) 0.7121(10) 0.0866(9)
H104 H 0.5754 0.7598 0.0951
H105 H 0.6015 0.6788 0.0825
C98 C 0.6903(17) 0.7174(13) 0.0329(8)
H106 H 0.7162 0.7408 0.0398
H107 H 0.6657 0.7453 0.0086
H108 H 0.7275 0.6691 0.0210
C99 C 0.2178(8) 0.8050(8) 0.0945(5)
H109 H 0.1630 0.8231 0.0992
H110 H 0.2284 0.8468 0.0891
C100 C 0.2639(9) 0.7578(8) 0.0506(5)
H111 H 0.3182 0.7381 0.0465
H112 H 0.2527 0.7863 0.0223
H113 H 0.2504 0.7186 0.0547
C101 C 0.3400(8) 0.7381(8) 0.1371(6)
H114 H 0.3521 0.7228 0.1677
H115 H 0.3733 0.6972 0.1151
C102 C 0.3613(9) 0.8006(8) 0.1156(6)
H116 H 0.3536 0.8142 0.0841
H117 H 0.4148 0.7849 0.1124
H118 H 0.3289 0.8419 0.1369
C103 C 0.1827(9) 0.8272(8) 0.1961(6)
H119 H 0.1687 0.8035 0.2270
H120 H 0.2162 0.8460 0.1987
C104 C 0.1132(11) 0.8882(10) 0.1902(7)
H121 H 0.1258 0.9250 0.1704
H122 H 0.0780 0.9080 0.2216
H123 H 0.0893 0.8724 0.1746
C105 C 0.1446(8) 0.5651(8) 0.1277(5)
H124 H 0.1331 0.5242 0.1314
H125 H 0.0961 0.6097 0.1326
C106 C 0.1988(9) 0.5655(10) 0.0754(5)
H126 H 0.2084 0.6072 0.0712
H127 H 0.1745 0.5677 0.0521
H128 H 0.2471 0.5217 0.0706
C107 C 0.1166(7) 0.5546(7) 0.2319(5)
H129 H 0.1385 0.5463 0.2581
H130 H 0.0714 0.6021 0.2371
C108 C 0.0892(8) 0.4967(8) 0.2360(6)
H131 H 0.0674 0.5040 0.2103
H132 H 0.0506 0.5009 0.2670
H133 H 0.1326 0.4490 0.2333
C109 C 0.2689(8) 0.4660(7) 0.1664(5)
H134 H 0.2507 0.4325 0.1631
H135 H 0.3093 0.4646 0.1364
C110 C 0.3040(8) 0.4395(8) 0.2079(6)
H136 H 0.3086 0.4783 0.2177
H137 H 0.3545 0.3988 0.1972
H138 H 0.2711 0.4247 0.2350
C111 C 0.6562(12) 0.0543(10) 0.4650(6)
H139 H 0.6589 0.0062 0.4669
H140 H 0.6968 0.0501 0.4766
C112 C 0.5731(12) 0.1086(11) 0.5003(7)
H141 H 0.5663 0.1578 0.4946
H142 H 0.5711 0.0951 0.5337
H143 H 0.5325 0.1051 0.4936
C113 C 0.7671(9) 0.0093(8) 0.3684(7)
H144 H 0.7595 -0.0336 0.3704
H145 H 0.7826 0.0224 0.3342
C114 C 0.8347(11) -0.0099(9) 0.3904(10)
H146 H 0.8618 0.0184 0.3738
H147 H 0.8703 -0.0609 0.3861
H148 H 0.8130 0.0012 0.4245
C115 C 0.6963(9) 0.1614(8) 0.3999(6)
H149 H 0.6476 0.2044 0.4122
H150 H 0.7260 0.1496 0.4223
C116 C 0.7407(9) 0.1800(8) 0.3506(6)
H151 H 0.7953 0.1487 0.3446
H152 H 0.7306 0.2300 0.3503
H153 H 0.7243 0.1730 0.3257
C117 C 0.4736(9) 0.0390(8) 0.3337(6)
H154 H 0.5151 0.0232 0.3031
H155 H 0.4887 0.0010 0.3578
C118 C 0.4022(9) 0.0447(9) 0.3272(6)
H156 H 0.3611 0.0577 0.3576
H157 H 0.4129 -0.0014 0.3167
H158 H 0.3868 0.0816 0.3031
C119 C 0.3794(9) 0.1581(9) 0.4029(5)
H159 H 0.3703 0.2047 0.4123
H160 H 0.3361 0.1664 0.3925
C120 C 0.3827(10) 0.1053(9) 0.4481(6)
H161 H 0.3736 0.0665 0.4428
H162 H 0.3435 0.1318 0.4767
H163 H 0.4329 0.0851 0.4524
C121 C 0.4465(9) 0.1839(8) 0.3018(6)
H164 H 0.4946 0.1700 0.2750
H165 H 0.4109 0.1765 0.2913
C122 C 0.4124(13) 0.2645(9) 0.3111(7)
H166 H 0.3628 0.2802 0.3359
H167 H 0.4061 0.2916 0.2815
H168 H 0.4467 0.2730 0.3218
C123 C 0.0209(8) 0.5778(8) 0.3709(5)
H169 H -0.0230 0.6262 0.3766
H170 H 0.0465 0.5727 0.3360
C124 C -0.0097(8) 0.5218(8) 0.3881(5)
H171 H 0.0276 0.4766 0.3714
H172 H -0.0577 0.5392 0.3810
H173 H -0.0185 0.5140 0.4226
C125 C 0.0344(8) 0.5809(8) 0.4664(4)
H174 H -0.0158 0.6233 0.4709
H175 H 0.0256 0.5383 0.4772
C126 C 0.0754(10) 0.5887(9) 0.4981(5)
H176 H 0.1224 0.5444 0.4969
H177 H 0.0419 0.5979 0.5312
H178 H 0.0878 0.6287 0.4861
C127 C 0.1617(8) 0.4770(7) 0.3948(5)
H179 H 0.2001 0.4699 0.4097
H180 H 0.1366 0.4470 0.4126
C128 C 0.2022(9) 0.4519(8) 0.3433(6)
H181 H 0.1666 0.4497 0.3302
H182 H 0.2452 0.4044 0.3422
H183 H 0.2208 0.4856 0.3242
C129 C 0.1045(9) 0.8373(7) 0.3350(6)
H184 H 0.1013 0.8267 0.3051
H185 H 0.0534 0.8526 0.3589
C130 C 0.1234(11) 0.8997(9) 0.3253(7)
H186 H 0.1297 0.9094 0.3540
H187 H 0.0819 0.9422 0.3168
H188 H 0.1707 0.8880 0.2988
C131 C 0.2691(16) 0.7240(16) 0.3195(17)
H189 H 0.2745 0.7685 0.3094
H190 H 0.3013 0.6980 0.3407
C132 C 0.300(2) 0.687(2) 0.2828(9)
H191 H 0.2814 0.6517 0.2872
H192 H 0.3555 0.6624 0.2768
H193 H 0.2886 0.7182 0.2554
C133 C 0.191(2) 0.7751(14) 0.4053(15)
H194 H 0.2344 0.7335 0.4132
H195 H 0.2047 0.8148 0.3946
C134 C 0.126(3) 0.796(3) 0.4468(12)
H196 H 0.0824 0.7999 0.4391
H197 H 0.1137 0.8425 0.4576
H198 H 0.1367 0.7602 0.4722
C135 C 0.5924(10) 0.7379(10) 0.3867(5)
H199 H 0.6392 0.7433 0.3796
H200 H 0.5488 0.7863 0.3907
C136 C 0.5818(10) 0.6951(10) 0.4339(6)
H201 H 0.5359 0.6891 0.4409
H202 H 0.5767 0.7212 0.4600
H203 H 0.6261 0.6480 0.4307
C137 C 0.6123(9) 0.7600(8) 0.2859(6)
H204 H 0.6648 0.7536 0.2780
H205 H 0.6079 0.7477 0.2570
C138 C 0.5554(9) 0.8429(8) 0.2965(6)
H206 H 0.5441 0.8525 0.3300
H207 H 0.5082 0.8550 0.2901
H208 H 0.5793 0.8719 0.2758
C139 C 0.5023(10) 0.7020(10) 0.3457(10)
H209 H 0.5101 0.6527 0.3559
H210 H 0.4737 0.7299 0.3755
C140 C 0.456(3) 0.720(5) 0.328(3)
H211 H 0.4435 0.6809 0.3292
H212 H 0.4734 0.7343 0.2950
H213 H 0.4101 0.7611 0.3458
C141 C 0.8916(10) 0.4434(11) 0.2763(9)
H214 H 0.8811 0.4578 0.2452
H215 H 0.9095 0.4758 0.2820
C142 C 0.9583(12) 0.3670(11) 0.2707(10)
H216 H 0.9381 0.3321 0.2815
H217 H 0.9899 0.3619 0.2899
H218 H 0.9892 0.3587 0.2370
C143 C 0.7849(14) 0.3846(11) 0.3227(13)
H219 H 0.8311 0.3411 0.3258
H220 H 0.7440 0.3884 0.3530
C144 C 0.7657(14) 0.3708(14) 0.2890(10)
H221 H 0.7967 0.3787 0.2575
H222 H 0.7118 0.4026 0.2928
H223 H 0.7745 0.3209 0.2920
C145 C 0.830(2) 0.440(2) 0.3718(14)
H224 H 0.8495 0.3878 0.3746
H225 H 0.8750 0.4488 0.3620
C146 C 0.7937(11) 0.4630(12) 0.4201(7)
H226 H 0.7614 0.5149 0.4212
H227 H 0.8325 0.4511 0.4354
H228 H 0.7624 0.4387 0.4372
N1 N 0.6454(6) 0.2034(5) 0.1440(3)
N2 N 0.7102(5) 0.5170(5) 0.1092(3)
N3 N 0.3380(5) 0.5843(5) 0.1406(3)
N4 N 0.5293(6) 0.2211(5) 0.3822(4)
N5 N 0.2434(5) 0.5860(5) 0.3907(3)
N6 N 0.6201(5) 0.5310(5) 0.3525(3)
O4 O 0.5993(4) 0.4174(4) 0.0319(2)
O5 O 0.4413(4) 0.4400(4) 0.4741(2)
P1 P 0.5835(2) 0.08677(18) 0.14802(12)
P2 P 0.7958(2) 0.0802(2) 0.17486(15)
P3 P 0.8874(2) 0.4578(2) 0.10212(17)
P4 P 0.6661(2) 0.6798(2) 0.13156(17)
P5 P 0.24000(19) 0.75699(19) 0.14867(12)
P6 P 0.18832(18) 0.55825(18) 0.17415(12)
P7 P 0.6751(3) 0.0845(2) 0.40013(15)
P8 P 0.4667(2) 0.12304(18) 0.35288(12)
P9 P 0.08982(18) 0.57181(18) 0.40072(12)
P10 P 0.1726(2) 0.7517(2) 0.35740(17)
P11 P 0.59991(19) 0.6933(2) 0.33413(13)
P12 P 0.8038(2) 0.45981(19) 0.32139(13)
Pt1 Pt 0.68180(3) 0.09190(2) 0.167552(17)
Pt2 Pt 0.77401(3) 0.56652(3) 0.118802(16)
Pt3 Pt 0.21848(2) 0.65436(2) 0.166388(15)
Pt4 Pt 0.57390(3) 0.10816(3) 0.371686(18)
Pt5 Pt 0.13690(3) 0.65797(3) 0.375670(16)
Pt6 Pt 0.70089(3) 0.57490(3) 0.323357(15)
F1 F 0.6585(14) 0.0371(13) 0.7527(11)
F2 F 0.5694(11) 0.1492(16) 0.7513(8)
F3 F 0.5973(11) 0.1114(12) 0.8146(6)
F4 F 0.6862(10) 0.1249(11) 0.7076(5)
F5 F 0.7183(8) 0.0855(10) 0.7764(6)
F6 F 0.6351(13) 0.1883(10) 0.7712(7)
P13 P 0.6478(4) 0.1113(4) 0.7604(2)
F7 F 0.8419(9) 0.2840(10) 0.0520(6)
F8 F 0.8554(9) 0.1942(10) 0.0213(8)
F9 F 0.8860(18) 0.2722(11) -0.0264(7)
F10 F 0.9437(11) 0.1729(12) 0.0524(6)
F11 F 0.9566(11) 0.2669(10) 0.0101(7)
F12 F 0.9761(13) 0.1701(10) -0.0248(6)
P14 P 0.9113(4) 0.2259(4) 0.0145(2)
F13 F 0.6331(8) 0.3158(6) 0.4446(4)
F14 F 0.6291(8) 0.2442(6) 0.5092(4)
F15 F 0.5702(6) 0.3645(6) 0.5163(4)
F16 F 0.7378(7) 0.2451(7) 0.4664(5)
F17 F 0.6773(7) 0.3699(6) 0.4749(4)
F18 F 0.6719(9) 0.2987(6) 0.5410(5)
P15 P 0.6565(2) 0.3053(2) 0.49235(14)
F19 F 0.4627(7) 0.3177(6) -0.0253(3)
F20 F 0.5113(6) 0.3732(5) 0.0007(3)
F21 F 0.5417(6) 0.2551(5) 0.0188(4)
F22 F 0.3893(5) 0.3999(6) 0.0337(4)
F23 F 0.4200(7) 0.2816(6) 0.0533(4)
F24 F 0.4686(7) 0.3379(5) 0.0770(3)
P16 P 0.4648(2) 0.32699(19) 0.02585(13)
F25 F 0.7260(5) 0.6657(6) 0.5559(3)
F26 F 0.6803(5) 0.7301(6) 0.4969(3)
F27 F 0.7455(7) 0.6097(7) 0.4927(6)
F28 F 0.8465(5) 0.6108(6) 0.5035(3)
F29 F 0.7801(8) 0.7312(7) 0.5088(5)
F30 F 0.8016(8) 0.6770(7) 0.4439(3)
P17 P 0.7652(2) 0.6689(2) 0.49937(12)
O1 O 0.4730(19) 0.3898(19) 0.2636(7)
O2 O 0.6061(14) 0.361(2) 0.2459(9)
O3 O 0.516(2) 0.4841(12) 0.2469(8)
N7 N 0.5308(18) 0.4119(16) 0.2529(4)
loop_
_geom_bond_atom_site_label_1
_geom_bond_atom_site_label_2
_geom_bond_site_symmetry_1
_geom_bond_site_symmetry_2
C1 H1 1_555 1_555
C2 C1 1_555 1_555
H2 C2 1_555 1_555
C3 C2 1_555 1_555
C4 C3 1_555 1_555
H3 C4 1_555 1_555
C5 C4 1_555 1_555
H4 C5 1_555 1_555
C6 H5 1_555 1_555
C7 C6 1_555 1_555
H6 C7 1_555 1_555
C8 C7 1_555 1_555
C9 C8 1_555 1_555
H7 C9 1_555 1_555
C10 C9 1_555 1_555
H8 C10 1_555 1_555
C11 H9 1_555 1_555
C12 C11 1_555 1_555
H10 C12 1_555 1_555
C13 C12 1_555 1_555
C14 C13 1_555 1_555
H11 C14 1_555 1_555
C15 C14 1_555 1_555
H12 C15 1_555 1_555
C16 C3 1_555 1_555
C17 H13 1_555 1_555
C18 C17 1_555 1_555
H14 C18 1_555 1_555
C19 C18 1_555 1_555
C20 C19 1_555 1_555
H15 C20 1_555 1_555
C21 C20 1_555 1_555
H16 C21 1_555 1_555
C22 H17 1_555 1_555
C23 C22 1_555 1_555
H18 C23 1_555 1_555
C24 C23 1_555 1_555
C25 C24 1_555 1_555
H19 C25 1_555 1_555
C26 C25 1_555 1_555
H20 C26 1_555 1_555
C27 H21 1_555 1_555
C28 C27 1_555 1_555
H22 C28 1_555 1_555
C29 C28 1_555 1_555
C30 C29 1_555 1_555
H23 C30 1_555 1_555
C31 C30 1_555 1_555
H24 C31 1_555 1_555
C32 C19 1_555 1_555
C33 H25 1_555 1_555
C34 C33 1_555 1_555
H26 C34 1_555 1_555
C35 C34 1_555 1_555
H27 C35 1_555 1_555
C36 C35 1_555 1_555
C37 C36 1_555 1_555
H28 C37 1_555 1_555
C38 C37 1_555 1_555
C39 C38 1_555 1_555
H29 C39 1_555 1_555
C40 C39 1_555 1_555
H30 C40 1_555 1_555
C41 C40 1_555 1_555
H31 C41 1_555 1_555
C42 C41 1_555 1_555
C43 C38 1_555 1_555
C44 C43 1_555 1_555
H32 C44 1_555 1_555
C45 C36 1_555 1_555
C46 C33 1_555 1_555
C47 C48 1_555 1_555
C48 H33 1_555 1_555
C49 C48 1_555 1_555
H34 C49 1_555 1_555
C50 C49 1_555 1_555
H35 C50 1_555 1_555
C51 C50 1_555 1_555
C52 C51 1_555 1_555
H36 C52 1_555 1_555
C53 C52 1_555 1_555
C54 C53 1_555 1_555
H37 C54 1_555 1_555
C55 C54 1_555 1_555
H38 C55 1_555 1_555
C56 C55 1_555 1_555
H39 C56 1_555 1_555
C57 C56 1_555 1_555
C58 C53 1_555 1_555
C59 C58 1_555 1_555
H40 C59 1_555 1_555
C60 C47 1_555 1_555
C61 C62 1_555 1_555
C62 H41 1_555 1_555
C63 C62 1_555 1_555
H42 C63 1_555 1_555
C64 C63 1_555 1_555
H43 C64 1_555 1_555
C65 C64 1_555 1_555
C66 C65 1_555 1_555
H44 C66 1_555 1_555
C67 C66 1_555 1_555
C68 C67 1_555 1_555
H45 C68 1_555 1_555
C69 C68 1_555 1_555
H46 C69 1_555 1_555
C70 C69 1_555 1_555
H47 C70 1_555 1_555
C71 C70 1_555 1_555
C72 C67 1_555 1_555
C73 C72 1_555 1_555
H48 C73 1_555 1_555
C74 C61 1_555 1_555
C75 H49 1_555 1_555
H50 C75 1_555 1_555
C76 C75 1_555 1_555
H51 C76 1_555 1_555
H52 C76 1_555 1_555
H53 C76 1_555 1_555
C77 H54 1_555 1_555
H55 C77 1_555 1_555
C78 C77 1_555 1_555
H56 C78 1_555 1_555
H57 C78 1_555 1_555
H58 C78 1_555 1_555
C79 H59 1_555 1_555
H60 C79 1_555 1_555
C80 C79 1_555 1_555
H61 C80 1_555 1_555
H62 C80 1_555 1_555
H63 C80 1_555 1_555
C81 H64 1_555 1_555
H65 C81 1_555 1_555
C82 C81 1_555 1_555
H66 C82 1_555 1_555
H67 C82 1_555 1_555
H68 C82 1_555 1_555
C83 H69 1_555 1_555
H70 C83 1_555 1_555
C84 C83 1_555 1_555
H71 C84 1_555 1_555
H72 C84 1_555 1_555
H73 C84 1_555 1_555
C85 H74 1_555 1_555
H75 C85 1_555 1_555
C86 C85 1_555 1_555
H76 C86 1_555 1_555
H77 C86 1_555 1_555
H78 C86 1_555 1_555
C87 H79 1_555 1_555
H80 C87 1_555 1_555
C88 C87 1_555 1_555
H81 C88 1_555 1_555
H82 C88 1_555 1_555
H83 C88 1_555 1_555
C89 H84 1_555 1_555
H85 C89 1_555 1_555
C90 C89 1_555 1_555
H86 C90 1_555 1_555
H87 C90 1_555 1_555
H88 C90 1_555 1_555
C91 H89 1_555 1_555
H90 C91 1_555 1_555
C92 C91 1_555 1_555
H91 C92 1_555 1_555
H92 C92 1_555 1_555
H93 C92 1_555 1_555
C93 H94 1_555 1_555
H95 C93 1_555 1_555
C94 C93 1_555 1_555
H96 C94 1_555 1_555
H97 C94 1_555 1_555
H98 C94 1_555 1_555
C95 H99 1_555 1_555
H100 C95 1_555 1_555
C96 C95 1_555 1_555
H101 C96 1_555 1_555
H102 C96 1_555 1_555
H103 C96 1_555 1_555
C97 H104 1_555 1_555
H105 C97 1_555 1_555
C98 C97 1_555 1_555
H106 C98 1_555 1_555
H107 C98 1_555 1_555
H108 C98 1_555 1_555
C99 H109 1_555 1_555
H110 C99 1_555 1_555
C100 C99 1_555 1_555
H111 C100 1_555 1_555
H112 C100 1_555 1_555
H113 C100 1_555 1_555
C101 H114 1_555 1_555
H115 C101 1_555 1_555
C102 C101 1_555 1_555
H116 C102 1_555 1_555
H117 C102 1_555 1_555
H118 C102 1_555 1_555
C103 H119 1_555 1_555
H120 C103 1_555 1_555
C104 C103 1_555 1_555
H121 C104 1_555 1_555
H122 C104 1_555 1_555
H123 C104 1_555 1_555
C105 H124 1_555 1_555
H125 C105 1_555 1_555
C106 C105 1_555 1_555
H126 C106 1_555 1_555
H127 C106 1_555 1_555
H128 C106 1_555 1_555
C107 H129 1_555 1_555
H130 C107 1_555 1_555
C108 C107 1_555 1_555
H131 C108 1_555 1_555
H132 C108 1_555 1_555
H133 C108 1_555 1_555
C109 H134 1_555 1_555
H135 C109 1_555 1_555
C110 C109 1_555 1_555
H136 C110 1_555 1_555
H137 C110 1_555 1_555
H138 C110 1_555 1_555
C111 H139 1_555 1_555
H140 C111 1_555 1_555
C112 C111 1_555 1_555
H141 C112 1_555 1_555
H142 C112 1_555 1_555
H143 C112 1_555 1_555
C113 H144 1_555 1_555
H145 C113 1_555 1_555
C114 C113 1_555 1_555
H146 C114 1_555 1_555
H147 C114 1_555 1_555
H148 C114 1_555 1_555
C115 H149 1_555 1_555
H150 C115 1_555 1_555
C116 C115 1_555 1_555
H151 C116 1_555 1_555
H152 C116 1_555 1_555
H153 C116 1_555 1_555
C117 H154 1_555 1_555
H155 C117 1_555 1_555
C118 C117 1_555 1_555
H156 C118 1_555 1_555
H157 C118 1_555 1_555
H158 C118 1_555 1_555
C119 H159 1_555 1_555
H160 C119 1_555 1_555
C120 C119 1_555 1_555
H161 C120 1_555 1_555
H162 C120 1_555 1_555
H163 C120 1_555 1_555
C121 H164 1_555 1_555
H165 C121 1_555 1_555
C122 C121 1_555 1_555
H166 C122 1_555 1_555
H167 C122 1_555 1_555
H168 C122 1_555 1_555
C123 H169 1_555 1_555
H170 C123 1_555 1_555
C124 C123 1_555 1_555
H171 C124 1_555 1_555
H172 C124 1_555 1_555
H173 C124 1_555 1_555
C125 H174 1_555 1_555
H175 C125 1_555 1_555
C126 C125 1_555 1_555
H176 C126 1_555 1_555
H177 C126 1_555 1_555
H178 C126 1_555 1_555
C127 H179 1_555 1_555
H180 C127 1_555 1_555
C128 C127 1_555 1_555
H181 C128 1_555 1_555
H182 C128 1_555 1_555
H183 C128 1_555 1_555
C129 H184 1_555 1_555
H185 C129 1_555 1_555
C130 C129 1_555 1_555
H186 C130 1_555 1_555
H187 C130 1_555 1_555
H188 C130 1_555 1_555
C131 H189 1_555 1_555
H190 C131 1_555 1_555
C132 C131 1_555 1_555
H191 C132 1_555 1_555
H192 C132 1_555 1_555
H193 C132 1_555 1_555
C133 H194 1_555 1_555
H195 C133 1_555 1_555
C134 C133 1_555 1_555
H196 C134 1_555 1_555
H197 C134 1_555 1_555
H198 C134 1_555 1_555
C135 H199 1_555 1_555
H200 C135 1_555 1_555
C136 C135 1_555 1_555
H201 C136 1_555 1_555
H202 C136 1_555 1_555
H203 C136 1_555 1_555
C137 H204 1_555 1_555
H205 C137 1_555 1_555
C138 C137 1_555 1_555
H206 C138 1_555 1_555
H207 C138 1_555 1_555
H208 C138 1_555 1_555
C139 H209 1_555 1_555
H210 C139 1_555 1_555
C140 C139 1_555 1_555
H211 C140 1_555 1_555
H212 C140 1_555 1_555
H213 C140 1_555 1_555
C141 H214 1_555 1_555
H215 C141 1_555 1_555
C142 C141 1_555 1_555
H216 C142 1_555 1_555
H217 C142 1_555 1_555
H218 C142 1_555 1_555
C143 H219 1_555 1_555
H220 C143 1_555 1_555
C144 C143 1_555 1_555
H221 C144 1_555 1_555
H222 C144 1_555 1_555
H223 C144 1_555 1_555
C145 H224 1_555 1_555
H225 C145 1_555 1_555
C146 C145 1_555 1_555
H226 C146 1_555 1_555
H227 C146 1_555 1_555
H228 C146 1_555 1_555
F1 P13 1_555 1_555
F2 P13 1_555 1_555
F3 P13 1_555 1_555
F4 P13 1_555 1_555
F5 P13 1_555 1_555
F6 P13 1_555 1_555
F7 P14 1_555 1_555
F8 P14 1_555 1_555
F9 P14 1_555 1_555
F10 P14 1_555 1_555
F11 P14 1_555 1_555
F12 P14 1_555 1_555
F13 P15 1_555 1_555
F14 P15 1_555 1_555
F15 P15 1_555 1_555
F16 P15 1_555 1_555
F17 P15 1_555 1_555
F18 P15 1_555 1_555
F19 P16 1_555 1_555
F20 P16 1_555 1_555
F21 P16 1_555 1_555
F22 P16 1_555 1_555
F23 P16 1_555 1_555
F24 P16 1_555 1_555
F25 P17 1_555 1_555
F26 P17 1_555 1_555
F27 P17 1_555 1_555
F28 P17 1_555 1_555
F29 P17 1_555 1_555
F30 P17 1_555 1_555
O1 N7 1_555 1_555
O2 N7 1_555 1_555
O3 N7 1_555 1_555
N1 C1 1_555 1_555
N2 C6 1_555 1_555
N3 C11 1_555 1_555
N4 C17 1_555 1_555
N5 C22 1_555 1_555
N6 C27 1_555 1_555
O4 C16 1_555 1_555
O5 C32 1_555 1_555
P1 C75 1_555 1_555
P2 C81 1_555 1_555
P3 C87 1_555 1_555
P4 C93 1_555 1_555
P5 C99 1_555 1_555
P6 C105 1_555 1_555
P7 C111 1_555 1_555
P8 C117 1_555 1_555
P9 C123 1_555 1_555
P10 C129 1_555 1_555
P11 C135 1_555 1_555
P12 C141 1_555 1_555
Pt1 C46 1_555 1_555
Pt2 C47 1_555 1_555
Pt3 C61 1_555 1_555
Pt4 C42 1_555 1_555
Pt5 C71 1_555 1_555
Pt6 C57 1_555 1_555
C5 N1 1_555 1_555
C8 C16 1_555 1_555
C10 N2 1_555 1_555
C13 C16 1_555 1_555
C15 N3 1_555 1_555
C21 N4 1_555 1_555
C24 C32 1_555 1_555
C26 N5 1_555 1_555
C29 C32 1_555 1_555
C31 N6 1_555 1_555
C42 C43 1_555 1_555
C44 C45 1_555 1_555
C45 C46 1_555 1_555
C51 C60 1_555 1_555
C57 C58 1_555 1_555
C59 C60 1_555 1_555
C65 C74 1_555 1_555
C71 C72 1_555 1_555
C73 C74 1_555 1_555
C77 P1 1_555 1_555
C79 P1 1_555 1_555
C83 P2 1_555 1_555
C85 P2 1_555 1_555
C89 P3 1_555 1_555
C91 P3 1_555 1_555
C95 P4 1_555 1_555
C97 P4 1_555 1_555
C101 P5 1_555 1_555
C103 P5 1_555 1_555
C107 P6 1_555 1_555
C109 P6 1_555 1_555
C113 P7 1_555 1_555
C115 P7 1_555 1_555
C119 P8 1_555 1_555
C121 P8 1_555 1_555
C125 P9 1_555 1_555
C127 P9 1_555 1_555
C131 P10 1_555 1_555
C133 P10 1_555 1_555
C137 P11 1_555 1_555
C139 P11 1_555 1_555
C143 P12 1_555 1_555
C145 P12 1_555 1_555
N1 Pt1 1_555 1_555
N2 Pt2 1_555 1_555
N3 Pt3 1_555 1_555
N4 Pt4 1_555 1_555
N5 Pt5 1_555 1_555
N6 Pt6 1_555 1_555
P1 Pt1 1_555 1_555
P2 Pt1 1_555 1_555
P3 Pt2 1_555 1_555
P4 Pt2 1_555 1_555
P5 Pt3 1_555 1_555
P6 Pt3 1_555 1_555
P7 Pt4 1_555 1_555
P8 Pt4 1_555 1_555
P9 Pt5 1_555 1_555
P10 Pt5 1_555 1_555
P11 Pt6 1_555 1_555
P12 Pt6 1_555 1_555

#END
