# generated using pymatgen
data_P15H236Pt6C344(NF5)6
_symmetry_space_group_name_H-M   'P 1'
_cell_length_a   30.69880000
_cell_length_b   30.69880000
_cell_length_c   52.36240000
_cell_angle_alpha   90.00000000
_cell_angle_beta   90.00000000
_cell_angle_gamma   120.00000000
_symmetry_Int_Tables_number   1
_chemical_formula_structural   P15H236Pt6C344(NF5)6
_chemical_formula_sum   'P90 H1416 Pt36 C2064 N36 F180'
_cell_volume   42735.91182267
_cell_formula_units_Z   6
loop_
 _symmetry_equiv_pos_site_id
 _symmetry_equiv_pos_as_xyz
  1  'x, y, z'
loop_
 _atom_site_type_symbol
 _atom_site_label
 _atom_site_symmetry_multiplicity
 _atom_site_fract_x
 _atom_site_fract_y
 _atom_site_fract_z
 _atom_site_occupancy
  P  P1  1  0.942200  0.608867  0.083300  1
  P  P2  1  0.666667  0.057800  0.083300  1
  P  P3  1  0.391133  0.333333  0.083300  1
  P  P4  1  0.333333  0.391133  0.416700  1
  P  P5  1  0.275533  0.275533  0.749967  1
  P  P6  1  0.000000  0.724467  0.749967  1
  P  P7  1  0.724467  0.000000  0.749967  1
  P  P8  1  0.608867  0.942200  0.416633  1
  P  P9  1  0.391133  0.057800  0.583300  1
  P  P10  1  0.942200  0.333333  0.583300  1
  P  P11  1  0.666667  0.608867  0.583367  1
  P  P12  1  0.724467  0.724467  0.249967  1
  P  P13  1  0.275533  0.000000  0.249967  1
  P  P14  1  0.057800  0.391133  0.916633  1
  P  P15  1  0.608867  0.666667  0.916633  1
  P  P16  1  0.333333  0.942200  0.916700  1
  P  P17  1  0.000000  0.275533  0.250033  1
  P  P18  1  0.057800  0.666667  0.416700  1
  P  P19  1  0.937600  0.728100  0.983330  1.0
  P  P20  1  0.790500  0.062400  0.983330  1.0
  P  P21  1  0.271900  0.209500  0.983330  1.0
  P  P22  1  0.209500  0.271900  0.516670  1.0
  P  P23  1  0.270933  0.394767  0.649997  1.0
  P  P24  1  0.123833  0.729067  0.649997  1.0
  P  P25  1  0.605233  0.876167  0.649997  1.0
  P  P26  1  0.542833  0.938567  0.183337  1.0
  P  P27  1  0.604267  0.061433  0.316663  1.0
  P  P28  1  0.876167  0.605233  0.850003  1.0
  P  P29  1  0.271900  0.062400  0.483330  1.0
  P  P30  1  0.937600  0.209500  0.483330  1.0
  P  P31  1  0.542833  0.604267  0.683337  1.0
  P  P32  1  0.061433  0.457167  0.683337  1.0
  P  P33  1  0.605233  0.729067  0.149997  1.0
  P  P34  1  0.270933  0.876167  0.149997  1.0
  P  P35  1  0.938567  0.395733  0.816663  1.0
  P  P36  1  0.604267  0.542833  0.816663  1.0
  P  P37  1  0.062400  0.271900  0.016670  1.0
  P  P38  1  0.209500  0.937600  0.016670  1.0
  P  P39  1  0.728100  0.790500  0.016670  1.0
  P  P40  1  0.790500  0.728100  0.483330  1.0
  P  P41  1  0.729067  0.605233  0.350003  1.0
  P  P42  1  0.876167  0.270933  0.350003  1.0
  P  P43  1  0.394767  0.123833  0.350003  1.0
  P  P44  1  0.457167  0.061433  0.816663  1.0
  P  P45  1  0.395733  0.938567  0.683337  1.0
  P  P46  1  0.123833  0.394767  0.149997  1.0
  P  P47  1  0.728100  0.937600  0.516670  1.0
  P  P48  1  0.062400  0.790500  0.516670  1.0
  P  P49  1  0.457167  0.395733  0.316663  1.0
  P  P50  1  0.938567  0.542833  0.316663  1.0
  P  P51  1  0.394767  0.270933  0.850003  1.0
  P  P52  1  0.729067  0.123833  0.850003  1.0
  P  P53  1  0.061433  0.604267  0.183337  1.0
  P  P54  1  0.395733  0.457167  0.183337  1.0
  P  P55  1  0.852500  0.560900  0.959510  1.0
  P  P56  1  0.708400  0.147500  0.959510  1.0
  P  P57  1  0.439100  0.291600  0.959510  1.0
  P  P58  1  0.291600  0.439100  0.540490  1.0
  P  P59  1  0.185833  0.227567  0.626177  1.0
  P  P60  1  0.041733  0.814167  0.626177  1.0
  P  P61  1  0.772433  0.958267  0.626177  1.0
  P  P62  1  0.624933  0.105767  0.207157  1.0
  P  P63  1  0.519167  0.894233  0.292843  1.0
  P  P64  1  0.958267  0.772433  0.873823  1.0
  P  P65  1  0.439100  0.147500  0.459510  1.0
  P  P66  1  0.852500  0.291600  0.459510  1.0
  P  P67  1  0.624933  0.519167  0.707157  1.0
  P  P68  1  0.894233  0.375067  0.707157  1.0
  P  P69  1  0.772433  0.814167  0.126177  1.0
  P  P70  1  0.185833  0.958267  0.126177  1.0
  P  P71  1  0.105767  0.480833  0.792843  1.0
  P  P72  1  0.519167  0.624933  0.792843  1.0
  P  P73  1  0.147500  0.439100  0.040490  1.0
  P  P74  1  0.291600  0.852500  0.040490  1.0
  P  P75  1  0.560900  0.708400  0.040490  1.0
  P  P76  1  0.708400  0.560900  0.459510  1.0
  P  P77  1  0.814167  0.772433  0.373823  1.0
  P  P78  1  0.958267  0.185833  0.373823  1.0
  P  P79  1  0.227567  0.041733  0.373823  1.0
  P  P80  1  0.375067  0.894233  0.792843  1.0
  P  P81  1  0.480833  0.105767  0.707157  1.0
  P  P82  1  0.041733  0.227567  0.126177  1.0
  P  P83  1  0.560900  0.852500  0.540490  1.0
  P  P84  1  0.147500  0.708400  0.540490  1.0
  P  P85  1  0.375067  0.480833  0.292843  1.0
  P  P86  1  0.105767  0.624933  0.292843  1.0
  P  P87  1  0.227567  0.185833  0.873823  1.0
  P  P88  1  0.814167  0.041733  0.873823  1.0
  P  P89  1  0.894233  0.519167  0.207157  1.0
  P  P90  1  0.480833  0.375067  0.207157  1.0
  H  H91  1  0.874600  0.502200  0.946300  1
  H  H92  1  0.627600  0.125400  0.946300  1
  H  H93  1  0.497800  0.372400  0.946300  1
  H  H94  1  0.372400  0.497800  0.553700  1
  H  H95  1  0.207933  0.168867  0.612967  1
  H  H96  1  0.960933  0.792067  0.612967  1
  H  H97  1  0.831133  0.039067  0.612967  1
  H  H98  1  0.705733  0.164467  0.220367  1
  H  H99  1  0.541267  0.835533  0.279633  1
  H  H100  1  0.039067  0.831133  0.887033  1
  H  H101  1  0.497800  0.125400  0.446300  1
  H  H102  1  0.874600  0.372400  0.446300  1
  H  H103  1  0.705733  0.541267  0.720367  1
  H  H104  1  0.835533  0.294267  0.720367  1
  H  H105  1  0.831133  0.792067  0.112967  1
  H  H106  1  0.207933  0.039067  0.112967  1
  H  H107  1  0.164467  0.458733  0.779633  1
  H  H108  1  0.541267  0.705733  0.779633  1
  H  H109  1  0.125400  0.497800  0.053700  1
  H  H110  1  0.372400  0.874600  0.053700  1
  H  H111  1  0.502200  0.627600  0.053700  1
  H  H112  1  0.627600  0.502200  0.446300  1
  H  H113  1  0.792067  0.831133  0.387033  1
  H  H114  1  0.039067  0.207933  0.387033  1
  H  H115  1  0.168867  0.960933  0.387033  1
  H  H116  1  0.294267  0.835533  0.779633  1
  H  H117  1  0.458733  0.164467  0.720367  1
  H  H118  1  0.960933  0.168867  0.112967  1
  H  H119  1  0.502200  0.874600  0.553700  1
  H  H120  1  0.125400  0.627600  0.553700  1
  H  H121  1  0.294267  0.458733  0.279633  1
  H  H122  1  0.164467  0.705733  0.279633  1
  H  H123  1  0.168867  0.207933  0.887033  1
  H  H124  1  0.792067  0.960933  0.887033  1
  H  H125  1  0.835533  0.541267  0.220367  1
  H  H126  1  0.458733  0.294267  0.220367  1
  H  H127  1  0.031300  0.756200  0.993400  1
  H  H128  1  0.724900  0.968700  0.993400  1
  H  H129  1  0.243800  0.275100  0.993400  1
  H  H130  1  0.275100  0.243800  0.506600  1
  H  H131  1  0.364633  0.422867  0.660067  1
  H  H132  1  0.058233  0.635367  0.660067  1
  H  H133  1  0.577133  0.941767  0.660067  1
  H  H134  1  0.608433  0.910467  0.173267  1
  H  H135  1  0.697967  0.089533  0.326733  1
  H  H136  1  0.941767  0.577133  0.839933  1
  H  H137  1  0.243800  0.968700  0.493400  1
  H  H138  1  0.031300  0.275100  0.493400  1
  H  H139  1  0.608433  0.697967  0.673267  1
  H  H140  1  0.089533  0.391567  0.673267  1
  H  H141  1  0.577133  0.635367  0.160067  1
  H  H142  1  0.364633  0.941767  0.160067  1
  H  H143  1  0.910467  0.302033  0.826733  1
  H  H144  1  0.697967  0.608433  0.826733  1
  H  H145  1  0.968700  0.243800  0.006600  1
  H  H146  1  0.275100  0.031300  0.006600  1
  H  H147  1  0.756200  0.724900  0.006600  1
  H  H148  1  0.724900  0.756200  0.493400  1
  H  H149  1  0.635367  0.577133  0.339933  1
  H  H150  1  0.941767  0.364633  0.339933  1
  H  H151  1  0.422867  0.058233  0.339933  1
  H  H152  1  0.391567  0.089533  0.826733  1
  H  H153  1  0.302033  0.910467  0.673267  1
  H  H154  1  0.058233  0.422867  0.160067  1
  H  H155  1  0.756200  0.031300  0.506600  1
  H  H156  1  0.968700  0.724900  0.506600  1
  H  H157  1  0.391567  0.302033  0.326733  1
  H  H158  1  0.910467  0.608433  0.326733  1
  H  H159  1  0.422867  0.364633  0.839933  1
  H  H160  1  0.635367  0.058233  0.839933  1
  H  H161  1  0.089533  0.697967  0.173267  1
  H  H162  1  0.302033  0.391567  0.173267  1
  H  H163  1  0.873800  0.666700  0.916700  1.0
  H  H164  1  0.792900  0.126200  0.916700  1.0
  H  H165  1  0.333300  0.207100  0.916700  1.0
  H  H166  1  0.207100  0.333300  0.583300  1.0
  H  H167  1  0.126233  0.792867  0.583367  1.0
  H  H168  1  0.666633  0.873767  0.583367  1.0
  H  H169  1  0.540433  0.999967  0.249967  1.0
  H  H170  1  0.333300  0.126200  0.416700  1.0
  H  H171  1  0.873800  0.207100  0.416700  1.0
  H  H172  1  0.540433  0.540467  0.749967  1.0
  H  H173  1  0.000033  0.459567  0.749967  1.0
  H  H174  1  0.666633  0.792867  0.083367  1.0
  H  H175  1  0.207133  0.873767  0.083367  1.0
  H  H176  1  0.126200  0.333300  0.083300  1.0
  H  H177  1  0.792900  0.666700  0.416700  1.0
  H  H178  1  0.459567  0.000033  0.750033  1.0
  H  H179  1  0.459567  0.459533  0.250033  1.0
  H  H180  1  0.999967  0.540433  0.250033  1.0
  H  H181  1  0.722900  0.666600  0.916700  1.0
  H  H182  1  0.943700  0.277100  0.916700  1.0
  H  H183  1  0.333400  0.056300  0.916700  1.0
  H  H184  1  0.056300  0.333400  0.583300  1.0
  H  H185  1  0.277033  0.943767  0.583367  1.0
  H  H186  1  0.666733  0.722967  0.583367  1.0
  H  H187  1  0.389633  0.000067  0.249967  1.0
  H  H188  1  0.333400  0.277100  0.416700  1.0
  H  H189  1  0.722900  0.056300  0.416700  1.0
  H  H190  1  0.389633  0.389567  0.749967  1.0
  H  H191  1  0.999933  0.610367  0.749967  1.0
  H  H192  1  0.666733  0.943767  0.083367  1.0
  H  H193  1  0.056233  0.722967  0.083367  1.0
  H  H194  1  0.000067  0.610433  0.750033  1.0
  H  H195  1  0.389567  0.389633  0.750033  1.0
  H  H196  1  0.277100  0.333400  0.083300  1.0
  H  H197  1  0.056300  0.722900  0.083300  1.0
  H  H198  1  0.666600  0.943700  0.083300  1.0
  H  H199  1  0.943700  0.666600  0.416700  1.0
  H  H200  1  0.722967  0.056233  0.416633  1.0
  H  H201  1  0.333267  0.277033  0.416633  1.0
  H  H202  1  0.610367  0.999933  0.750033  1.0
  H  H203  1  0.666600  0.722900  0.583300  1.0
  H  H204  1  0.277100  0.943700  0.583300  1.0
  H  H205  1  0.610367  0.610433  0.250033  1.0
  H  H206  1  0.000067  0.389633  0.250033  1.0
  H  H207  1  0.333267  0.056233  0.916633  1.0
  H  H208  1  0.943767  0.277033  0.916633  1.0
  H  H209  1  0.999933  0.389567  0.249967  1.0
  H  H210  1  0.610433  0.610367  0.249967  1.0
  H  H211  1  0.244200  0.620200  0.044600  1.0
  H  H212  1  0.376000  0.755800  0.044600  1.0
  H  H213  1  0.379800  0.624000  0.044600  1.0
  H  H214  1  0.624000  0.379800  0.455400  1.0
  H  H215  1  0.577533  0.286867  0.711267  1.0
  H  H216  1  0.709333  0.422467  0.711267  1.0
  H  H217  1  0.713133  0.290667  0.711267  1.0
  H  H218  1  0.957333  0.046467  0.122067  1.0
  H  H219  1  0.910867  0.953533  0.377933  1.0
  H  H220  1  0.290667  0.713133  0.788733  1.0
  H  H221  1  0.379800  0.755800  0.544600  1.0
  H  H222  1  0.244200  0.624000  0.544600  1.0
  H  H223  1  0.957333  0.910867  0.622067  1.0
  H  H224  1  0.953533  0.042667  0.622067  1.0
  H  H225  1  0.713133  0.422467  0.211267  1.0
  H  H226  1  0.577533  0.290667  0.211267  1.0
  H  H227  1  0.046467  0.089133  0.877933  1.0
  H  H228  1  0.910867  0.957333  0.877933  1.0
  H  H229  1  0.755800  0.379800  0.955400  1.0
  H  H230  1  0.624000  0.244200  0.955400  1.0
  H  H231  1  0.620200  0.376000  0.955400  1.0
  H  H232  1  0.376000  0.620200  0.544600  1.0
  H  H233  1  0.422467  0.713133  0.288733  1.0
  H  H234  1  0.290667  0.577533  0.288733  1.0
  H  H235  1  0.286867  0.709333  0.288733  1.0
  H  H236  1  0.042667  0.953533  0.877933  1.0
  H  H237  1  0.089133  0.046467  0.622067  1.0
  H  H238  1  0.709333  0.286867  0.211267  1.0
  H  H239  1  0.620200  0.244200  0.455400  1.0
  H  H240  1  0.755800  0.376000  0.455400  1.0
  H  H241  1  0.042667  0.089133  0.377933  1.0
  H  H242  1  0.046467  0.957333  0.377933  1.0
  H  H243  1  0.286867  0.577533  0.788733  1.0
  H  H244  1  0.422467  0.709333  0.788733  1.0
  H  H245  1  0.953533  0.910867  0.122067  1.0
  H  H246  1  0.089133  0.042667  0.122067  1.0
  H  H247  1  0.951600  0.621500  0.007600  1.0
  H  H248  1  0.669900  0.048400  0.007600  1.0
  H  H249  1  0.378500  0.330100  0.007600  1.0
  H  H250  1  0.330100  0.378500  0.492400  1.0
  H  H251  1  0.284933  0.288167  0.674267  1.0
  H  H252  1  0.003233  0.715067  0.674267  1.0
  H  H253  1  0.711833  0.996767  0.674267  1.0
  H  H254  1  0.663433  0.045167  0.159067  1.0
  H  H255  1  0.618267  0.954833  0.340933  1.0
  H  H256  1  0.996767  0.711833  0.825733  1.0
  H  H257  1  0.378500  0.048400  0.507600  1.0
  H  H258  1  0.951600  0.330100  0.507600  1.0
  H  H259  1  0.663433  0.618267  0.659067  1.0
  H  H260  1  0.954833  0.336567  0.659067  1.0
  H  H261  1  0.711833  0.715067  0.174267  1.0
  H  H262  1  0.284933  0.996767  0.174267  1.0
  H  H263  1  0.045167  0.381733  0.840933  1.0
  H  H264  1  0.618267  0.663433  0.840933  1.0
  H  H265  1  0.048400  0.378500  0.992400  1.0
  H  H266  1  0.330100  0.951600  0.992400  1.0
  H  H267  1  0.621500  0.669900  0.992400  1.0
  H  H268  1  0.669900  0.621500  0.507600  1.0
  H  H269  1  0.715067  0.711833  0.325733  1.0
  H  H270  1  0.996767  0.284933  0.325733  1.0
  H  H271  1  0.288167  0.003233  0.325733  1.0
  H  H272  1  0.336567  0.954833  0.840933  1.0
  H  H273  1  0.381733  0.045167  0.659067  1.0
  H  H274  1  0.003233  0.288167  0.174267  1.0
  H  H275  1  0.621500  0.951600  0.492400  1.0
  H  H276  1  0.048400  0.669900  0.492400  1.0
  H  H277  1  0.336567  0.381733  0.340933  1.0
  H  H278  1  0.045167  0.663433  0.340933  1.0
  H  H279  1  0.288167  0.284933  0.825733  1.0
  H  H280  1  0.715067  0.003233  0.825733  1.0
  H  H281  1  0.954833  0.618267  0.159067  1.0
  H  H282  1  0.381733  0.336567  0.159067  1.0
  H  H283  1  0.018700  0.608000  0.016000  1.0
  H  H284  1  0.589300  0.981300  0.016000  1.0
  H  H285  1  0.392000  0.410700  0.016000  1.0
  H  H286  1  0.410700  0.392000  0.484000  1.0
  H  H287  1  0.352033  0.274667  0.682667  1.0
  H  H288  1  0.922633  0.647967  0.682667  1.0
  H  H289  1  0.725333  0.077367  0.682667  1.0
  H  H290  1  0.744033  0.058667  0.150667  1.0
  H  H291  1  0.685367  0.941333  0.349333  1.0
  H  H292  1  0.077367  0.725333  0.817333  1.0
  H  H293  1  0.392000  0.981300  0.516000  1.0
  H  H294  1  0.018700  0.410700  0.516000  1.0
  H  H295  1  0.744033  0.685367  0.650667  1.0
  H  H296  1  0.941333  0.255967  0.650667  1.0
  H  H297  1  0.725333  0.647967  0.182667  1.0
  H  H298  1  0.352033  0.077367  0.182667  1.0
  H  H299  1  0.058667  0.314633  0.849333  1.0
  H  H300  1  0.685367  0.744033  0.849333  1.0
  H  H301  1  0.981300  0.392000  0.984000  1.0
  H  H302  1  0.410700  0.018700  0.984000  1.0
  H  H303  1  0.608000  0.589300  0.984000  1.0
  H  H304  1  0.589300  0.608000  0.516000  1.0
  H  H305  1  0.647967  0.725333  0.317333  1.0
  H  H306  1  0.077367  0.352033  0.317333  1.0
  H  H307  1  0.274667  0.922633  0.317333  1.0
  H  H308  1  0.255967  0.941333  0.849333  1.0
  H  H309  1  0.314633  0.058667  0.650667  1.0
  H  H310  1  0.922633  0.274667  0.182667  1.0
  H  H311  1  0.608000  0.018700  0.484000  1.0
  H  H312  1  0.981300  0.589300  0.484000  1.0
  H  H313  1  0.255967  0.314633  0.349333  1.0
  H  H314  1  0.058667  0.744033  0.349333  1.0
  H  H315  1  0.274667  0.352033  0.817333  1.0
  H  H316  1  0.647967  0.922633  0.817333  1.0
  H  H317  1  0.941333  0.685367  0.150667  1.0
  H  H318  1  0.314633  0.255967  0.150667  1.0
  H  H319  1  0.308300  0.706100  0.984600  1.0
  H  H320  1  0.397800  0.691700  0.984600  1.0
  H  H321  1  0.293900  0.602200  0.984600  1.0
  H  H322  1  0.602200  0.293900  0.515400  1.0
  H  H323  1  0.641633  0.372767  0.651267  1.0
  H  H324  1  0.731133  0.358367  0.651267  1.0
  H  H325  1  0.627233  0.268867  0.651267  1.0
  H  H326  1  0.935533  0.960567  0.182067  1.0
  H  H327  1  0.974967  0.039433  0.317933  1.0
  H  H328  1  0.268867  0.627233  0.848733  1.0
  H  H329  1  0.293900  0.691700  0.484600  1.0
  H  H330  1  0.308300  0.602200  0.484600  1.0
  H  H331  1  0.935533  0.974967  0.682067  1.0
  H  H332  1  0.039433  0.064467  0.682067  1.0
  H  H333  1  0.627233  0.358367  0.151267  1.0
  H  H334  1  0.641633  0.268867  0.151267  1.0
  H  H335  1  0.960567  0.025033  0.817933  1.0
  H  H336  1  0.974967  0.935533  0.817933  1.0
  H  H337  1  0.691700  0.293900  0.015400  1.0
  H  H338  1  0.602200  0.308300  0.015400  1.0
  H  H339  1  0.706100  0.397800  0.015400  1.0
  H  H340  1  0.397800  0.706100  0.484600  1.0
  H  H341  1  0.358367  0.627233  0.348733  1.0
  H  H342  1  0.268867  0.641633  0.348733  1.0
  H  H343  1  0.372767  0.731133  0.348733  1.0
  H  H344  1  0.064467  0.039433  0.817933  1.0
  H  H345  1  0.025033  0.960567  0.682067  1.0
  H  H346  1  0.731133  0.372767  0.151267  1.0
  H  H347  1  0.706100  0.308300  0.515400  1.0
  H  H348  1  0.691700  0.397800  0.515400  1.0
  H  H349  1  0.064467  0.025033  0.317933  1.0
  H  H350  1  0.960567  0.935533  0.317933  1.0
  H  H351  1  0.372767  0.641633  0.848733  1.0
  H  H352  1  0.358367  0.731133  0.848733  1.0
  H  H353  1  0.039433  0.974967  0.182067  1.0
  H  H354  1  0.025033  0.064467  0.182067  1.0
  H  H355  1  0.234500  0.698100  0.971300  1.0
  H  H356  1  0.463600  0.765500  0.971300  1.0
  H  H357  1  0.301900  0.536400  0.971300  1.0
  H  H358  1  0.536400  0.301900  0.528700  1.0
  H  H359  1  0.567833  0.364767  0.637967  1.0
  H  H360  1  0.796933  0.432167  0.637967  1.0
  H  H361  1  0.635233  0.203067  0.637967  1.0
  H  H362  1  0.869733  0.968567  0.195367  1.0
  H  H363  1  0.901167  0.031433  0.304633  1.0
  H  H364  1  0.203067  0.635233  0.862033  1.0
  H  H365  1  0.301900  0.765500  0.471300  1.0
  H  H366  1  0.234500  0.536400  0.471300  1.0
  H  H367  1  0.869733  0.901167  0.695367  1.0
  H  H368  1  0.031433  0.130267  0.695367  1.0
  H  H369  1  0.635233  0.432167  0.137967  1.0
  H  H370  1  0.567833  0.203067  0.137967  1.0
  H  H371  1  0.968567  0.098833  0.804633  1.0
  H  H372  1  0.901167  0.869733  0.804633  1.0
  H  H373  1  0.765500  0.301900  0.028700  1.0
  H  H374  1  0.536400  0.234500  0.028700  1.0
  H  H375  1  0.698100  0.463600  0.028700  1.0
  H  H376  1  0.463600  0.698100  0.471300  1.0
  H  H377  1  0.432167  0.635233  0.362033  1.0
  H  H378  1  0.203067  0.567833  0.362033  1.0
  H  H379  1  0.364767  0.796933  0.362033  1.0
  H  H380  1  0.130267  0.031433  0.804633  1.0
  H  H381  1  0.098833  0.968567  0.695367  1.0
  H  H382  1  0.796933  0.364767  0.137967  1.0
  H  H383  1  0.698100  0.234500  0.528700  1.0
  H  H384  1  0.765500  0.463600  0.528700  1.0
  H  H385  1  0.130267  0.098833  0.304633  1.0
  H  H386  1  0.968567  0.869733  0.304633  1.0
  H  H387  1  0.364767  0.567833  0.862033  1.0
  H  H388  1  0.432167  0.796933  0.862033  1.0
  H  H389  1  0.031433  0.901167  0.195367  1.0
  H  H390  1  0.098833  0.130267  0.195367  1.0
  H  H391  1  0.164200  0.604800  0.029200  1.0
  H  H392  1  0.440600  0.835800  0.029200  1.0
  H  H393  1  0.395200  0.559400  0.029200  1.0
  H  H394  1  0.559400  0.395200  0.470800  1.0
  H  H395  1  0.497533  0.271467  0.695867  1.0
  H  H396  1  0.773933  0.502467  0.695867  1.0
  H  H397  1  0.728533  0.226067  0.695867  1.0
  H  H398  1  0.892733  0.061867  0.137467  1.0
  H  H399  1  0.830867  0.938133  0.362533  1.0
  H  H400  1  0.226067  0.728533  0.804133  1.0
  H  H401  1  0.395200  0.835800  0.529200  1.0
  H  H402  1  0.164200  0.559400  0.529200  1.0
  H  H403  1  0.892733  0.830867  0.637467  1.0
  H  H404  1  0.938133  0.107267  0.637467  1.0
  H  H405  1  0.728533  0.502467  0.195867  1.0
  H  H406  1  0.497533  0.226067  0.195867  1.0
  H  H407  1  0.061867  0.169133  0.862533  1.0
  H  H408  1  0.830867  0.892733  0.862533  1.0
  H  H409  1  0.835800  0.395200  0.970800  1.0
  H  H410  1  0.559400  0.164200  0.970800  1.0
  H  H411  1  0.604800  0.440600  0.970800  1.0
  H  H412  1  0.440600  0.604800  0.529200  1.0
  H  H413  1  0.502467  0.728533  0.304133  1.0
  H  H414  1  0.226067  0.497533  0.304133  1.0
  H  H415  1  0.271467  0.773933  0.304133  1.0
  H  H416  1  0.107267  0.938133  0.862533  1.0
  H  H417  1  0.169133  0.061867  0.637467  1.0
  H  H418  1  0.773933  0.271467  0.195867  1.0
  H  H419  1  0.604800  0.164200  0.470800  1.0
  H  H420  1  0.835800  0.440600  0.470800  1.0
  H  H421  1  0.107267  0.169133  0.362533  1.0
  H  H422  1  0.061867  0.892733  0.362533  1.0
  H  H423  1  0.271467  0.497533  0.804133  1.0
  H  H424  1  0.502467  0.773933  0.804133  1.0
  H  H425  1  0.938133  0.830867  0.137467  1.0
  H  H426  1  0.169133  0.107267  0.137467  1.0
  H  H427  1  0.067100  0.662800  0.946400  1.0
  H  H428  1  0.595700  0.932900  0.946400  1.0
  H  H429  1  0.337200  0.404300  0.946400  1.0
  H  H430  1  0.404300  0.337200  0.553600  1.0
  H  H431  1  0.400433  0.329467  0.613067  1.0
  H  H432  1  0.929033  0.599567  0.613067  1.0
  H  H433  1  0.670533  0.070967  0.613067  1.0
  H  H434  1  0.737633  0.003867  0.220267  1.0
  H  H435  1  0.733767  0.996133  0.279733  1.0
  H  H436  1  0.070967  0.670533  0.886933  1.0
  H  H437  1  0.337200  0.932900  0.446400  1.0
  H  H438  1  0.067100  0.404300  0.446400  1.0
  H  H439  1  0.737633  0.733767  0.720267  1.0
  H  H440  1  0.996133  0.262367  0.720267  1.0
  H  H441  1  0.670533  0.599567  0.113067  1.0
  H  H442  1  0.400433  0.070967  0.113067  1.0
  H  H443  1  0.003867  0.266233  0.779733  1.0
  H  H444  1  0.733767  0.737633  0.779733  1.0
  H  H445  1  0.932900  0.337200  0.053600  1.0
  H  H446  1  0.404300  0.067100  0.053600  1.0
  H  H447  1  0.662800  0.595700  0.053600  1.0
  H  H448  1  0.595700  0.662800  0.446400  1.0
  H  H449  1  0.599567  0.670533  0.386933  1.0
  H  H450  1  0.070967  0.400433  0.386933  1.0
  H  H451  1  0.329467  0.929033  0.386933  1.0
  H  H452  1  0.262367  0.996133  0.779733  1.0
  H  H453  1  0.266233  0.003867  0.720267  1.0
  H  H454  1  0.929033  0.329467  0.113067  1.0
  H  H455  1  0.662800  0.067100  0.553600  1.0
  H  H456  1  0.932900  0.595700  0.553600  1.0
  H  H457  1  0.262367  0.266233  0.279733  1.0
  H  H458  1  0.003867  0.737633  0.279733  1.0
  H  H459  1  0.329467  0.400433  0.886933  1.0
  H  H460  1  0.599567  0.929033  0.886933  1.0
  H  H461  1  0.996133  0.733767  0.220267  1.0
  H  H462  1  0.266233  0.262367  0.220267  1.0
  H  H463  1  0.990900  0.660100  0.941300  1.0
  H  H464  1  0.669200  0.009100  0.941300  1.0
  H  H465  1  0.339900  0.330800  0.941300  1.0
  H  H466  1  0.330800  0.339900  0.558700  1.0
  H  H467  1  0.324233  0.326767  0.607967  1.0
  H  H468  1  0.002533  0.675767  0.607967  1.0
  H  H469  1  0.673233  0.997467  0.607967  1.0
  H  H470  1  0.664133  0.006567  0.225367  1.0
  H  H471  1  0.657567  0.993433  0.274633  1.0
  H  H472  1  0.997467  0.673233  0.892033  1.0
  H  H473  1  0.339900  0.009100  0.441300  1.0
  H  H474  1  0.990900  0.330800  0.441300  1.0
  H  H475  1  0.664133  0.657567  0.725367  1.0
  H  H476  1  0.993433  0.335867  0.725367  1.0
  H  H477  1  0.673233  0.675767  0.107967  1.0
  H  H478  1  0.324233  0.997467  0.107967  1.0
  H  H479  1  0.006567  0.342433  0.774633  1.0
  H  H480  1  0.657567  0.664133  0.774633  1.0
  H  H481  1  0.009100  0.339900  0.058700  1.0
  H  H482  1  0.330800  0.990900  0.058700  1.0
  H  H483  1  0.660100  0.669200  0.058700  1.0
  H  H484  1  0.669200  0.660100  0.441300  1.0
  H  H485  1  0.675767  0.673233  0.392033  1.0
  H  H486  1  0.997467  0.324233  0.392033  1.0
  H  H487  1  0.326767  0.002533  0.392033  1.0
  H  H488  1  0.335867  0.993433  0.774633  1.0
  H  H489  1  0.342433  0.006567  0.725367  1.0
  H  H490  1  0.002533  0.326767  0.107967  1.0
  H  H491  1  0.660100  0.990900  0.558700  1.0
  H  H492  1  0.009100  0.669200  0.558700  1.0
  H  H493  1  0.335867  0.342433  0.274633  1.0
  H  H494  1  0.006567  0.664133  0.274633  1.0
  H  H495  1  0.326767  0.324233  0.892033  1.0
  H  H496  1  0.675767  0.002533  0.892033  1.0
  H  H497  1  0.993433  0.657567  0.225367  1.0
  H  H498  1  0.342433  0.335867  0.225367  1.0
  H  H499  1  0.922300  0.556000  0.946400  1.0
  H  H500  1  0.633700  0.077700  0.946400  1.0
  H  H501  1  0.444000  0.366300  0.946400  1.0
  H  H502  1  0.366300  0.444000  0.553600  1.0
  H  H503  1  0.255633  0.222667  0.613067  1.0
  H  H504  1  0.967033  0.744367  0.613067  1.0
  H  H505  1  0.777333  0.032967  0.613067  1.0
  H  H506  1  0.699633  0.110667  0.220267  1.0
  H  H507  1  0.588967  0.889333  0.279733  1.0
  H  H508  1  0.032967  0.777333  0.886933  1.0
  H  H509  1  0.444000  0.077700  0.446400  1.0
  H  H510  1  0.922300  0.366300  0.446400  1.0
  H  H511  1  0.699633  0.588967  0.720267  1.0
  H  H512  1  0.889333  0.300367  0.720267  1.0
  H  H513  1  0.777333  0.744367  0.113067  1.0
  H  H514  1  0.255633  0.032967  0.113067  1.0
  H  H515  1  0.110667  0.411033  0.779733  1.0
  H  H516  1  0.588967  0.699633  0.779733  1.0
  H  H517  1  0.077700  0.444000  0.053600  1.0
  H  H518  1  0.366300  0.922300  0.053600  1.0
  H  H519  1  0.556000  0.633700  0.053600  1.0
  H  H520  1  0.633700  0.556000  0.446400  1.0
  H  H521  1  0.744367  0.777333  0.386933  1.0
  H  H522  1  0.032967  0.255633  0.386933  1.0
  H  H523  1  0.222667  0.967033  0.386933  1.0
  H  H524  1  0.300367  0.889333  0.779733  1.0
  H  H525  1  0.411033  0.110667  0.720267  1.0
  H  H526  1  0.967033  0.222667  0.113067  1.0
  H  H527  1  0.556000  0.922300  0.553600  1.0
  H  H528  1  0.077700  0.633700  0.553600  1.0
  H  H529  1  0.300367  0.411033  0.279733  1.0
  H  H530  1  0.110667  0.699633  0.279733  1.0
  H  H531  1  0.222667  0.255633  0.886933  1.0
  H  H532  1  0.744367  0.967033  0.886933  1.0
  H  H533  1  0.889333  0.588967  0.220267  1.0
  H  H534  1  0.411033  0.300367  0.220267  1.0
  H  H535  1  0.883500  0.539800  0.924000  1.0
  H  H536  1  0.656300  0.116500  0.924000  1.0
  H  H537  1  0.460200  0.343700  0.924000  1.0
  H  H538  1  0.343700  0.460200  0.576000  1.0
  H  H539  1  0.216833  0.206467  0.590667  1.0
  H  H540  1  0.989633  0.783167  0.590667  1.0
  H  H541  1  0.793533  0.010367  0.590667  1.0
  H  H542  1  0.677033  0.126867  0.242667  1.0
  H  H543  1  0.550167  0.873133  0.257333  1.0
  H  H544  1  0.010367  0.793533  0.909333  1.0
  H  H545  1  0.460200  0.116500  0.424000  1.0
  H  H546  1  0.883500  0.343700  0.424000  1.0
  H  H547  1  0.677033  0.550167  0.742667  1.0
  H  H548  1  0.873133  0.322967  0.742667  1.0
  H  H549  1  0.793533  0.783167  0.090667  1.0
  H  H550  1  0.216833  0.010367  0.090667  1.0
  H  H551  1  0.126867  0.449833  0.757333  1.0
  H  H552  1  0.550167  0.677033  0.757333  1.0
  H  H553  1  0.116500  0.460200  0.076000  1.0
  H  H554  1  0.343700  0.883500  0.076000  1.0
  H  H555  1  0.539800  0.656300  0.076000  1.0
  H  H556  1  0.656300  0.539800  0.424000  1.0
  H  H557  1  0.783167  0.793533  0.409333  1.0
  H  H558  1  0.010367  0.216833  0.409333  1.0
  H  H559  1  0.206467  0.989633  0.409333  1.0
  H  H560  1  0.322967  0.873133  0.757333  1.0
  H  H561  1  0.449833  0.126867  0.742667  1.0
  H  H562  1  0.989633  0.206467  0.090667  1.0
  H  H563  1  0.539800  0.883500  0.576000  1.0
  H  H564  1  0.116500  0.656300  0.576000  1.0
  H  H565  1  0.322967  0.449833  0.257333  1.0
  H  H566  1  0.126867  0.677033  0.257333  1.0
  H  H567  1  0.206467  0.216833  0.909333  1.0
  H  H568  1  0.783167  0.989633  0.909333  1.0
  H  H569  1  0.873133  0.550167  0.242667  1.0
  H  H570  1  0.449833  0.322967  0.242667  1.0
  H  H571  1  0.788300  0.536400  0.000300  1.0
  H  H572  1  0.748100  0.211700  0.000300  1.0
  H  H573  1  0.463600  0.251900  0.000300  1.0
  H  H574  1  0.251900  0.463600  0.499700  1.0
  H  H575  1  0.121633  0.203067  0.666967  1.0
  H  H576  1  0.081433  0.878367  0.666967  1.0
  H  H577  1  0.796933  0.918567  0.666967  1.0
  H  H578  1  0.585233  0.130267  0.166367  1.0
  H  H579  1  0.454967  0.869733  0.333633  1.0
  H  H580  1  0.918567  0.796933  0.833033  1.0
  H  H581  1  0.463600  0.211700  0.500300  1.0
  H  H582  1  0.788300  0.251900  0.500300  1.0
  H  H583  1  0.585233  0.454967  0.666367  1.0
  H  H584  1  0.869733  0.414767  0.666367  1.0
  H  H585  1  0.796933  0.878367  0.166967  1.0
  H  H586  1  0.121633  0.918567  0.166967  1.0
  H  H587  1  0.130267  0.545033  0.833633  1.0
  H  H588  1  0.454967  0.585233  0.833633  1.0
  H  H589  1  0.211700  0.463600  0.999700  1.0
  H  H590  1  0.251900  0.788300  0.999700  1.0
  H  H591  1  0.536400  0.748100  0.999700  1.0
  H  H592  1  0.748100  0.536400  0.500300  1.0
  H  H593  1  0.878367  0.796933  0.333033  1.0
  H  H594  1  0.918567  0.121633  0.333033  1.0
  H  H595  1  0.203067  0.081433  0.333033  1.0
  H  H596  1  0.414767  0.869733  0.833633  1.0
  H  H597  1  0.545033  0.130267  0.666367  1.0
  H  H598  1  0.081433  0.203067  0.166967  1.0
  H  H599  1  0.536400  0.788300  0.499700  1.0
  H  H600  1  0.211700  0.748100  0.499700  1.0
  H  H601  1  0.414767  0.545033  0.333633  1.0
  H  H602  1  0.130267  0.585233  0.333633  1.0
  H  H603  1  0.203067  0.121633  0.833033  1.0
  H  H604  1  0.878367  0.081433  0.833033  1.0
  H  H605  1  0.869733  0.454967  0.166367  1.0
  H  H606  1  0.545033  0.414767  0.166367  1.0
  H  H607  1  0.789400  0.487300  0.992800  1.0
  H  H608  1  0.697900  0.210600  0.992800  1.0
  H  H609  1  0.512700  0.302100  0.992800  1.0
  H  H610  1  0.302100  0.512700  0.507200  1.0
  H  H611  1  0.122733  0.153967  0.659467  1.0
  H  H612  1  0.031233  0.877267  0.659467  1.0
  H  H613  1  0.846033  0.968767  0.659467  1.0
  H  H614  1  0.635433  0.179367  0.173867  1.0
  H  H615  1  0.456067  0.820633  0.326133  1.0
  H  H616  1  0.968767  0.846033  0.840533  1.0
  H  H617  1  0.512700  0.210600  0.492800  1.0
  H  H618  1  0.789400  0.302100  0.492800  1.0
  H  H619  1  0.635433  0.456067  0.673867  1.0
  H  H620  1  0.820633  0.364567  0.673867  1.0
  H  H621  1  0.846033  0.877267  0.159467  1.0
  H  H622  1  0.122733  0.968767  0.159467  1.0
  H  H623  1  0.179367  0.543933  0.826133  1.0
  H  H624  1  0.456067  0.635433  0.826133  1.0
  H  H625  1  0.210600  0.512700  0.007200  1.0
  H  H626  1  0.302100  0.789400  0.007200  1.0
  H  H627  1  0.487300  0.697900  0.007200  1.0
  H  H628  1  0.697900  0.487300  0.492800  1.0
  H  H629  1  0.877267  0.846033  0.340533  1.0
  H  H630  1  0.968767  0.122733  0.340533  1.0
  H  H631  1  0.153967  0.031233  0.340533  1.0
  H  H632  1  0.364567  0.820633  0.826133  1.0
  H  H633  1  0.543933  0.179367  0.673867  1.0
  H  H634  1  0.031233  0.153967  0.159467  1.0
  H  H635  1  0.487300  0.789400  0.507200  1.0
  H  H636  1  0.210600  0.697900  0.507200  1.0
  H  H637  1  0.364567  0.543933  0.326133  1.0
  H  H638  1  0.179367  0.635433  0.326133  1.0
  H  H639  1  0.153967  0.122733  0.840533  1.0
  H  H640  1  0.877267  0.031233  0.840533  1.0
  H  H641  1  0.820633  0.456067  0.173867  1.0
  H  H642  1  0.543933  0.364567  0.173867  1.0
  H  H643  1  0.884200  0.786100  0.999500  1.0
  H  H644  1  0.901900  0.115800  0.999500  1.0
  H  H645  1  0.213900  0.098100  0.999500  1.0
  H  H646  1  0.098100  0.213900  0.500500  1.0
  H  H647  1  0.217533  0.452767  0.666167  1.0
  H  H648  1  0.235233  0.782467  0.666167  1.0
  H  H649  1  0.547233  0.764767  0.666167  1.0
  H  H650  1  0.431433  0.880567  0.167167  1.0
  H  H651  1  0.550867  0.119433  0.332833  1.0
  H  H652  1  0.764767  0.547233  0.833833  1.0
  H  H653  1  0.213900  0.115800  0.499500  1.0
  H  H654  1  0.884200  0.098100  0.499500  1.0
  H  H655  1  0.431433  0.550867  0.667167  1.0
  H  H656  1  0.119433  0.568567  0.667167  1.0
  H  H657  1  0.547233  0.782467  0.166167  1.0
  H  H658  1  0.217533  0.764767  0.166167  1.0
  H  H659  1  0.880567  0.449133  0.832833  1.0
  H  H660  1  0.550867  0.431433  0.832833  1.0
  H  H661  1  0.115800  0.213900  0.000500  1.0
  H  H662  1  0.098100  0.884200  0.000500  1.0
  H  H663  1  0.786100  0.901900  0.000500  1.0
  H  H664  1  0.901900  0.786100  0.499500  1.0
  H  H665  1  0.782467  0.547233  0.333833  1.0
  H  H666  1  0.764767  0.217533  0.333833  1.0
  H  H667  1  0.452767  0.235233  0.333833  1.0
  H  H668  1  0.568567  0.119433  0.832833  1.0
  H  H669  1  0.449133  0.880567  0.667167  1.0
  H  H670  1  0.235233  0.452767  0.166167  1.0
  H  H671  1  0.786100  0.884200  0.500500  1.0
  H  H672  1  0.115800  0.901900  0.500500  1.0
  H  H673  1  0.568567  0.449133  0.332833  1.0
  H  H674  1  0.880567  0.431433  0.332833  1.0
  H  H675  1  0.452767  0.217533  0.833833  1.0
  H  H676  1  0.782467  0.235233  0.833833  1.0
  H  H677  1  0.119433  0.550867  0.167167  1.0
  H  H678  1  0.449133  0.568567  0.167167  1.0
  H  H679  1  0.849400  0.730700  0.990200  1.0
  H  H680  1  0.881300  0.150600  0.990200  1.0
  H  H681  1  0.269300  0.118700  0.990200  1.0
  H  H682  1  0.118700  0.269300  0.509800  1.0
  H  H683  1  0.182733  0.397367  0.656867  1.0
  H  H684  1  0.214633  0.817267  0.656867  1.0
  H  H685  1  0.602633  0.785367  0.656867  1.0
  H  H686  1  0.452033  0.935967  0.176467  1.0
  H  H687  1  0.516067  0.064033  0.323533  1.0
  H  H688  1  0.785367  0.602633  0.843133  1.0
  H  H689  1  0.269300  0.150600  0.490200  1.0
  H  H690  1  0.849400  0.118700  0.490200  1.0
  H  H691  1  0.452033  0.516067  0.676467  1.0
  H  H692  1  0.064033  0.547967  0.676467  1.0
  H  H693  1  0.602633  0.817267  0.156867  1.0
  H  H694  1  0.182733  0.785367  0.156867  1.0
  H  H695  1  0.935967  0.483933  0.823533  1.0
  H  H696  1  0.516067  0.452033  0.823533  1.0
  H  H697  1  0.150600  0.269300  0.009800  1.0
  H  H698  1  0.118700  0.849400  0.009800  1.0
  H  H699  1  0.730700  0.881300  0.009800  1.0
  H  H700  1  0.881300  0.730700  0.490200  1.0
  H  H701  1  0.817267  0.602633  0.343133  1.0
  H  H702  1  0.785367  0.182733  0.343133  1.0
  H  H703  1  0.397367  0.214633  0.343133  1.0
  H  H704  1  0.547967  0.064033  0.823533  1.0
  H  H705  1  0.483933  0.935967  0.676467  1.0
  H  H706  1  0.214633  0.397367  0.156867  1.0
  H  H707  1  0.730700  0.849400  0.509800  1.0
  H  H708  1  0.150600  0.881300  0.509800  1.0
  H  H709  1  0.547967  0.483933  0.323533  1.0
  H  H710  1  0.935967  0.452033  0.323533  1.0
  H  H711  1  0.397367  0.182733  0.843133  1.0
  H  H712  1  0.817267  0.214633  0.843133  1.0
  H  H713  1  0.064033  0.516067  0.176467  1.0
  H  H714  1  0.483933  0.547967  0.176467  1.0
  H  H715  1  0.850300  0.775400  0.975300  1.0
  H  H716  1  0.925100  0.149700  0.975300  1.0
  H  H717  1  0.224600  0.074900  0.975300  1.0
  H  H718  1  0.074900  0.224600  0.524700  1.0
  H  H719  1  0.183633  0.442067  0.641967  1.0
  H  H720  1  0.258433  0.816367  0.641967  1.0
  H  H721  1  0.557933  0.741567  0.641967  1.0
  H  H722  1  0.408233  0.891267  0.191367  1.0
  H  H723  1  0.516967  0.108733  0.308633  1.0
  H  H724  1  0.741567  0.557933  0.858033  1.0
  H  H725  1  0.224600  0.149700  0.475300  1.0
  H  H726  1  0.850300  0.074900  0.475300  1.0
  H  H727  1  0.408233  0.516967  0.691367  1.0
  H  H728  1  0.108733  0.591767  0.691367  1.0
  H  H729  1  0.557933  0.816367  0.141967  1.0
  H  H730  1  0.183633  0.741567  0.141967  1.0
  H  H731  1  0.891267  0.483033  0.808633  1.0
  H  H732  1  0.516967  0.408233  0.808633  1.0
  H  H733  1  0.149700  0.224600  0.024700  1.0
  H  H734  1  0.074900  0.850300  0.024700  1.0
  H  H735  1  0.775400  0.925100  0.024700  1.0
  H  H736  1  0.925100  0.775400  0.475300  1.0
  H  H737  1  0.816367  0.557933  0.358033  1.0
  H  H738  1  0.741567  0.183633  0.358033  1.0
  H  H739  1  0.442067  0.258433  0.358033  1.0
  H  H740  1  0.591767  0.108733  0.808633  1.0
  H  H741  1  0.483033  0.891267  0.691367  1.0
  H  H742  1  0.258433  0.442067  0.141967  1.0
  H  H743  1  0.775400  0.850300  0.524700  1.0
  H  H744  1  0.149700  0.925100  0.524700  1.0
  H  H745  1  0.591767  0.483033  0.308633  1.0
  H  H746  1  0.891267  0.408233  0.308633  1.0
  H  H747  1  0.442067  0.183633  0.858033  1.0
  H  H748  1  0.816367  0.258433  0.858033  1.0
  H  H749  1  0.108733  0.516967  0.191367  1.0
  H  H750  1  0.483033  0.591767  0.191367  1.0
  H  H751  1  0.325200  0.634000  0.061000  1.0
  H  H752  1  0.308800  0.674800  0.061000  1.0
  H  H753  1  0.366000  0.691200  0.061000  1.0
  H  H754  1  0.691200  0.366000  0.439000  1.0
  H  H755  1  0.658533  0.300667  0.727667  1.0
  H  H756  1  0.642133  0.341467  0.727667  1.0
  H  H757  1  0.699333  0.357867  0.727667  1.0
  H  H758  1  0.024533  0.032667  0.105667  1.0
  H  H759  1  0.991867  0.967333  0.394333  1.0
  H  H760  1  0.357867  0.699333  0.772333  1.0
  H  H761  1  0.366000  0.674800  0.561000  1.0
  H  H762  1  0.325200  0.691200  0.561000  1.0
  H  H763  1  0.024533  0.991867  0.605667  1.0
  H  H764  1  0.967333  0.975467  0.605667  1.0
  H  H765  1  0.699333  0.341467  0.227667  1.0
  H  H766  1  0.658533  0.357867  0.227667  1.0
  H  H767  1  0.032667  0.008133  0.894333  1.0
  H  H768  1  0.991867  0.024533  0.894333  1.0
  H  H769  1  0.674800  0.366000  0.939000  1.0
  H  H770  1  0.691200  0.325200  0.939000  1.0
  H  H771  1  0.634000  0.308800  0.939000  1.0
  H  H772  1  0.308800  0.634000  0.561000  1.0
  H  H773  1  0.341467  0.699333  0.272333  1.0
  H  H774  1  0.357867  0.658533  0.272333  1.0
  H  H775  1  0.300667  0.642133  0.272333  1.0
  H  H776  1  0.975467  0.967333  0.894333  1.0
  H  H777  1  0.008133  0.032667  0.605667  1.0
  H  H778  1  0.642133  0.300667  0.227667  1.0
  H  H779  1  0.634000  0.325200  0.439000  1.0
  H  H780  1  0.674800  0.308800  0.439000  1.0
  H  H781  1  0.975467  0.008133  0.394333  1.0
  H  H782  1  0.032667  0.024533  0.394333  1.0
  H  H783  1  0.300667  0.658533  0.772333  1.0
  H  H784  1  0.341467  0.642133  0.772333  1.0
  H  H785  1  0.967333  0.991867  0.105667  1.0
  H  H786  1  0.008133  0.975467  0.105667  1.0
  H  H787  1  0.817100  0.636000  0.999700  1.0
  H  H788  1  0.818900  0.182900  0.999700  1.0
  H  H789  1  0.364000  0.181100  0.999700  1.0
  H  H790  1  0.181100  0.364000  0.500300  1.0
  H  H791  1  0.150433  0.302667  0.666367  1.0
  H  H792  1  0.152233  0.849567  0.666367  1.0
  H  H793  1  0.697333  0.847767  0.666367  1.0
  H  H794  1  0.514433  0.030667  0.166967  1.0
  H  H795  1  0.483767  0.969333  0.333033  1.0
  H  H796  1  0.847767  0.697333  0.833633  1.0
  H  H797  1  0.364000  0.182900  0.499700  1.0
  H  H798  1  0.817100  0.181100  0.499700  1.0
  H  H799  1  0.514433  0.483767  0.666967  1.0
  H  H800  1  0.969333  0.485567  0.666967  1.0
  H  H801  1  0.697333  0.849567  0.166367  1.0
  H  H802  1  0.150433  0.847767  0.166367  1.0
  H  H803  1  0.030667  0.516233  0.833033  1.0
  H  H804  1  0.483767  0.514433  0.833033  1.0
  H  H805  1  0.182900  0.364000  0.000300  1.0
  H  H806  1  0.181100  0.817100  0.000300  1.0
  H  H807  1  0.636000  0.818900  0.000300  1.0
  H  H808  1  0.818900  0.636000  0.499700  1.0
  H  H809  1  0.849567  0.697333  0.333633  1.0
  H  H810  1  0.847767  0.150433  0.333633  1.0
  H  H811  1  0.302667  0.152233  0.333633  1.0
  H  H812  1  0.485567  0.969333  0.833033  1.0
  H  H813  1  0.516233  0.030667  0.666967  1.0
  H  H814  1  0.152233  0.302667  0.166367  1.0
  H  H815  1  0.636000  0.817100  0.500300  1.0
  H  H816  1  0.182900  0.818900  0.500300  1.0
  H  H817  1  0.485567  0.516233  0.333033  1.0
  H  H818  1  0.030667  0.514433  0.333033  1.0
  H  H819  1  0.302667  0.150433  0.833633  1.0
  H  H820  1  0.849567  0.152233  0.833633  1.0
  H  H821  1  0.969333  0.483767  0.166967  1.0
  H  H822  1  0.516233  0.485567  0.166967  1.0
  H  H823  1  0.026200  0.757200  0.963700  1.0
  H  H824  1  0.731000  0.973800  0.963700  1.0
  H  H825  1  0.242800  0.269000  0.963700  1.0
  H  H826  1  0.269000  0.242800  0.536300  1.0
  H  H827  1  0.359533  0.423867  0.630367  1.0
  H  H828  1  0.064333  0.640467  0.630367  1.0
  H  H829  1  0.576133  0.935667  0.630367  1.0
  H  H830  1  0.602333  0.909467  0.202967  1.0
  H  H831  1  0.692867  0.090533  0.297033  1.0
  H  H832  1  0.935667  0.576133  0.869633  1.0
  H  H833  1  0.242800  0.973800  0.463700  1.0
  H  H834  1  0.026200  0.269000  0.463700  1.0
  H  H835  1  0.602333  0.692867  0.702967  1.0
  H  H836  1  0.090533  0.397667  0.702967  1.0
  H  H837  1  0.576133  0.640467  0.130367  1.0
  H  H838  1  0.359533  0.935667  0.130367  1.0
  H  H839  1  0.909467  0.307133  0.797033  1.0
  H  H840  1  0.692867  0.602333  0.797033  1.0
  H  H841  1  0.973800  0.242800  0.036300  1.0
  H  H842  1  0.269000  0.026200  0.036300  1.0
  H  H843  1  0.757200  0.731000  0.036300  1.0
  H  H844  1  0.731000  0.757200  0.463700  1.0
  H  H845  1  0.640467  0.576133  0.369633  1.0
  H  H846  1  0.935667  0.359533  0.369633  1.0
  H  H847  1  0.423867  0.064333  0.369633  1.0
  H  H848  1  0.397667  0.090533  0.797033  1.0
  H  H849  1  0.307133  0.909467  0.702967  1.0
  H  H850  1  0.064333  0.423867  0.130367  1.0
  H  H851  1  0.757200  0.026200  0.536300  1.0
  H  H852  1  0.973800  0.731000  0.536300  1.0
  H  H853  1  0.397667  0.307133  0.297033  1.0
  H  H854  1  0.909467  0.602333  0.297033  1.0
  H  H855  1  0.423867  0.359533  0.869633  1.0
  H  H856  1  0.640467  0.064333  0.869633  1.0
  H  H857  1  0.090533  0.692867  0.202967  1.0
  H  H858  1  0.307133  0.397667  0.202967  1.0
  H  H859  1  0.030600  0.801800  0.980300  1.0
  H  H860  1  0.771200  0.969400  0.980300  1.0
  H  H861  1  0.198200  0.228800  0.980300  1.0
  H  H862  1  0.228800  0.198200  0.519700  1.0
  H  H863  1  0.363933  0.468467  0.646967  1.0
  H  H864  1  0.104533  0.636067  0.646967  1.0
  H  H865  1  0.531533  0.895467  0.646967  1.0
  H  H866  1  0.562133  0.864867  0.186367  1.0
  H  H867  1  0.697267  0.135133  0.313633  1.0
  H  H868  1  0.895467  0.531533  0.853033  1.0
  H  H869  1  0.198200  0.969400  0.480300  1.0
  H  H870  1  0.030600  0.228800  0.480300  1.0
  H  H871  1  0.562133  0.697267  0.686367  1.0
  H  H872  1  0.135133  0.437867  0.686367  1.0
  H  H873  1  0.531533  0.636067  0.146967  1.0
  H  H874  1  0.363933  0.895467  0.146967  1.0
  H  H875  1  0.864867  0.302733  0.813633  1.0
  H  H876  1  0.697267  0.562133  0.813633  1.0
  H  H877  1  0.969400  0.198200  0.019700  1.0
  H  H878  1  0.228800  0.030600  0.019700  1.0
  H  H879  1  0.801800  0.771200  0.019700  1.0
  H  H880  1  0.771200  0.801800  0.480300  1.0
  H  H881  1  0.636067  0.531533  0.353033  1.0
  H  H882  1  0.895467  0.363933  0.353033  1.0
  H  H883  1  0.468467  0.104533  0.353033  1.0
  H  H884  1  0.437867  0.135133  0.813633  1.0
  H  H885  1  0.302733  0.864867  0.686367  1.0
  H  H886  1  0.104533  0.468467  0.146967  1.0
  H  H887  1  0.801800  0.030600  0.519700  1.0
  H  H888  1  0.969400  0.771200  0.519700  1.0
  H  H889  1  0.437867  0.302733  0.313633  1.0
  H  H890  1  0.864867  0.562133  0.313633  1.0
  H  H891  1  0.468467  0.363933  0.853033  1.0
  H  H892  1  0.636067  0.104533  0.853033  1.0
  H  H893  1  0.135133  0.697267  0.186367  1.0
  H  H894  1  0.302733  0.437867  0.186367  1.0
  H  H895  1  0.906500  0.757100  0.948600  1.0
  H  H896  1  0.850600  0.093500  0.948600  1.0
  H  H897  1  0.242900  0.149400  0.948600  1.0
  H  H898  1  0.149400  0.242900  0.551400  1.0
  H  H899  1  0.239833  0.423767  0.615267  1.0
  H  H900  1  0.183933  0.760167  0.615267  1.0
  H  H901  1  0.576233  0.816067  0.615267  1.0
  H  H902  1  0.482733  0.909567  0.218067  1.0
  H  H903  1  0.573167  0.090433  0.281933  1.0
  H  H904  1  0.816067  0.576233  0.884733  1.0
  H  H905  1  0.242900  0.093500  0.448600  1.0
  H  H906  1  0.906500  0.149400  0.448600  1.0
  H  H907  1  0.482733  0.573167  0.718067  1.0
  H  H908  1  0.090433  0.517267  0.718067  1.0
  H  H909  1  0.576233  0.760167  0.115267  1.0
  H  H910  1  0.239833  0.816067  0.115267  1.0
  H  H911  1  0.909567  0.426833  0.781933  1.0
  H  H912  1  0.573167  0.482733  0.781933  1.0
  H  H913  1  0.093500  0.242900  0.051400  1.0
  H  H914  1  0.149400  0.906500  0.051400  1.0
  H  H915  1  0.757100  0.850600  0.051400  1.0
  H  H916  1  0.850600  0.757100  0.448600  1.0
  H  H917  1  0.760167  0.576233  0.384733  1.0
  H  H918  1  0.816067  0.239833  0.384733  1.0
  H  H919  1  0.423767  0.183933  0.384733  1.0
  H  H920  1  0.517267  0.090433  0.781933  1.0
  H  H921  1  0.426833  0.909567  0.718067  1.0
  H  H922  1  0.183933  0.423767  0.115267  1.0
  H  H923  1  0.757100  0.906500  0.551400  1.0
  H  H924  1  0.093500  0.850600  0.551400  1.0
  H  H925  1  0.517267  0.426833  0.281933  1.0
  H  H926  1  0.909567  0.482733  0.281933  1.0
  H  H927  1  0.423767  0.239833  0.884733  1.0
  H  H928  1  0.760167  0.183933  0.884733  1.0
  H  H929  1  0.090433  0.573167  0.218067  1.0
  H  H930  1  0.426833  0.517267  0.218067  1.0
  H  H931  1  0.945800  0.804000  0.964600  1.0
  H  H932  1  0.858200  0.054200  0.964600  1.0
  H  H933  1  0.196000  0.141800  0.964600  1.0
  H  H934  1  0.141800  0.196000  0.535400  1.0
  H  H935  1  0.279133  0.470667  0.631267  1.0
  H  H936  1  0.191533  0.720867  0.631267  1.0
  H  H937  1  0.529333  0.808467  0.631267  1.0
  H  H938  1  0.475133  0.862667  0.202067  1.0
  H  H939  1  0.612467  0.137333  0.297933  1.0
  H  H940  1  0.808467  0.529333  0.868733  1.0
  H  H941  1  0.196000  0.054200  0.464600  1.0
  H  H942  1  0.945800  0.141800  0.464600  1.0
  H  H943  1  0.475133  0.612467  0.702067  1.0
  H  H944  1  0.137333  0.524867  0.702067  1.0
  H  H945  1  0.529333  0.720867  0.131267  1.0
  H  H946  1  0.279133  0.808467  0.131267  1.0
  H  H947  1  0.862667  0.387533  0.797933  1.0
  H  H948  1  0.612467  0.475133  0.797933  1.0
  H  H949  1  0.054200  0.196000  0.035400  1.0
  H  H950  1  0.141800  0.945800  0.035400  1.0
  H  H951  1  0.804000  0.858200  0.035400  1.0
  H  H952  1  0.858200  0.804000  0.464600  1.0
  H  H953  1  0.720867  0.529333  0.368733  1.0
  H  H954  1  0.808467  0.279133  0.368733  1.0
  H  H955  1  0.470667  0.191533  0.368733  1.0
  H  H956  1  0.524867  0.137333  0.797933  1.0
  H  H957  1  0.387533  0.862667  0.702067  1.0
  H  H958  1  0.191533  0.470667  0.131267  1.0
  H  H959  1  0.804000  0.945800  0.535400  1.0
  H  H960  1  0.054200  0.858200  0.535400  1.0
  H  H961  1  0.524867  0.387533  0.297933  1.0
  H  H962  1  0.862667  0.475133  0.297933  1.0
  H  H963  1  0.470667  0.279133  0.868733  1.0
  H  H964  1  0.720867  0.191533  0.868733  1.0
  H  H965  1  0.137333  0.612467  0.202067  1.0
  H  H966  1  0.387533  0.524867  0.202067  1.0
  H  H967  1  0.719300  0.659000  0.959900  1.0
  H  H968  1  0.939700  0.280700  0.959900  1.0
  H  H969  1  0.341000  0.060300  0.959900  1.0
  H  H970  1  0.060300  0.341000  0.540100  1.0
  H  H971  1  0.052633  0.325667  0.626567  1.0
  H  H972  1  0.273033  0.947367  0.626567  1.0
  H  H973  1  0.674333  0.726967  0.626567  1.0
  H  H974  1  0.393633  0.007667  0.206767  1.0
  H  H975  1  0.385967  0.992333  0.293233  1.0
  H  H976  1  0.726967  0.674333  0.873433  1.0
  H  H977  1  0.341000  0.280700  0.459900  1.0
  H  H978  1  0.719300  0.060300  0.459900  1.0
  H  H979  1  0.393633  0.385967  0.706767  1.0
  H  H980  1  0.992333  0.606367  0.706767  1.0
  H  H981  1  0.674333  0.947367  0.126567  1.0
  H  H982  1  0.052633  0.726967  0.126567  1.0
  H  H983  1  0.007667  0.614033  0.793233  1.0
  H  H984  1  0.385967  0.393633  0.793233  1.0
  H  H985  1  0.280700  0.341000  0.040100  1.0
  H  H986  1  0.060300  0.719300  0.040100  1.0
  H  H987  1  0.659000  0.939700  0.040100  1.0
  H  H988  1  0.939700  0.659000  0.459900  1.0
  H  H989  1  0.947367  0.674333  0.373433  1.0
  H  H990  1  0.726967  0.052633  0.373433  1.0
  H  H991  1  0.325667  0.273033  0.373433  1.0
  H  H992  1  0.606367  0.992333  0.793233  1.0
  H  H993  1  0.614033  0.007667  0.706767  1.0
  H  H994  1  0.273033  0.325667  0.126567  1.0
  H  H995  1  0.659000  0.719300  0.540100  1.0
  H  H996  1  0.280700  0.939700  0.540100  1.0
  H  H997  1  0.606367  0.614033  0.293233  1.0
  H  H998  1  0.007667  0.393633  0.293233  1.0
  H  H999  1  0.325667  0.052633  0.873433  1.0
  H  H1000  1  0.947367  0.273033  0.873433  1.0
  H  H1001  1  0.992333  0.385967  0.206767  1.0
  H  H1002  1  0.614033  0.606367  0.206767  1.0
  H  H1003  1  0.741500  0.637300  0.000500  1.0
  H  H1004  1  0.895800  0.258500  0.000500  1.0
  H  H1005  1  0.362700  0.104200  0.000500  1.0
  H  H1006  1  0.104200  0.362700  0.499500  1.0
  H  H1007  1  0.074833  0.303967  0.667167  1.0
  H  H1008  1  0.229133  0.925167  0.667167  1.0
  H  H1009  1  0.696033  0.770867  0.667167  1.0
  H  H1010  1  0.437533  0.029367  0.166167  1.0
  H  H1011  1  0.408167  0.970633  0.333833  1.0
  H  H1012  1  0.770867  0.696033  0.832833  1.0
  H  H1013  1  0.362700  0.258500  0.500500  1.0
  H  H1014  1  0.741500  0.104200  0.500500  1.0
  H  H1015  1  0.437533  0.408167  0.666167  1.0
  H  H1016  1  0.970633  0.562467  0.666167  1.0
  H  H1017  1  0.696033  0.925167  0.167167  1.0
  H  H1018  1  0.074833  0.770867  0.167167  1.0
  H  H1019  1  0.029367  0.591833  0.833833  1.0
  H  H1020  1  0.408167  0.437533  0.833833  1.0
  H  H1021  1  0.258500  0.362700  0.999500  1.0
  H  H1022  1  0.104200  0.741500  0.999500  1.0
  H  H1023  1  0.637300  0.895800  0.999500  1.0
  H  H1024  1  0.895800  0.637300  0.500500  1.0
  H  H1025  1  0.925167  0.696033  0.332833  1.0
  H  H1026  1  0.770867  0.074833  0.332833  1.0
  H  H1027  1  0.303967  0.229133  0.332833  1.0
  H  H1028  1  0.562467  0.970633  0.833833  1.0
  H  H1029  1  0.591833  0.029367  0.666167  1.0
  H  H1030  1  0.229133  0.303967  0.167167  1.0
  H  H1031  1  0.637300  0.741500  0.499500  1.0
  H  H1032  1  0.258500  0.895800  0.499500  1.0
  H  H1033  1  0.562467  0.591833  0.333833  1.0
  H  H1034  1  0.029367  0.437533  0.333833  1.0
  H  H1035  1  0.303967  0.074833  0.832833  1.0
  H  H1036  1  0.925167  0.229133  0.832833  1.0
  H  H1037  1  0.970633  0.408167  0.166167  1.0
  H  H1038  1  0.591833  0.562467  0.166167  1.0
  H  H1039  1  0.807800  0.559100  0.922000  1.0
  H  H1040  1  0.751300  0.192200  0.922000  1.0
  H  H1041  1  0.440900  0.248700  0.922000  1.0
  H  H1042  1  0.248700  0.440900  0.578000  1.0
  H  H1043  1  0.141133  0.225767  0.588667  1.0
  H  H1044  1  0.084633  0.858867  0.588667  1.0
  H  H1045  1  0.774233  0.915367  0.588667  1.0
  H  H1046  1  0.582033  0.107567  0.244667  1.0
  H  H1047  1  0.474467  0.892433  0.255333  1.0
  H  H1048  1  0.915367  0.774233  0.911333  1.0
  H  H1049  1  0.440900  0.192200  0.422000  1.0
  H  H1050  1  0.807800  0.248700  0.422000  1.0
  H  H1051  1  0.582033  0.474467  0.744667  1.0
  H  H1052  1  0.892433  0.417967  0.744667  1.0
  H  H1053  1  0.774233  0.858867  0.088667  1.0
  H  H1054  1  0.141133  0.915367  0.088667  1.0
  H  H1055  1  0.107567  0.525533  0.755333  1.0
  H  H1056  1  0.474467  0.582033  0.755333  1.0
  H  H1057  1  0.192200  0.440900  0.078000  1.0
  H  H1058  1  0.248700  0.807800  0.078000  1.0
  H  H1059  1  0.559100  0.751300  0.078000  1.0
  H  H1060  1  0.751300  0.559100  0.422000  1.0
  H  H1061  1  0.858867  0.774233  0.411333  1.0
  H  H1062  1  0.915367  0.141133  0.411333  1.0
  H  H1063  1  0.225767  0.084633  0.411333  1.0
  H  H1064  1  0.417967  0.892433  0.755333  1.0
  H  H1065  1  0.525533  0.107567  0.744667  1.0
  H  H1066  1  0.084633  0.225767  0.088667  1.0
  H  H1067  1  0.559100  0.807800  0.578000  1.0
  H  H1068  1  0.192200  0.751300  0.578000  1.0
  H  H1069  1  0.417967  0.525533  0.255333  1.0
  H  H1070  1  0.107567  0.582033  0.255333  1.0
  H  H1071  1  0.225767  0.141133  0.911333  1.0
  H  H1072  1  0.858867  0.084633  0.911333  1.0
  H  H1073  1  0.892433  0.474467  0.244667  1.0
  H  H1074  1  0.525533  0.417967  0.244667  1.0
  H  H1075  1  0.777100  0.558400  0.946400  1.0
  H  H1076  1  0.781300  0.222900  0.946400  1.0
  H  H1077  1  0.441600  0.218700  0.946400  1.0
  H  H1078  1  0.218700  0.441600  0.553600  1.0
  H  H1079  1  0.110433  0.225067  0.613067  1.0
  H  H1080  1  0.114633  0.889567  0.613067  1.0
  H  H1081  1  0.774933  0.885367  0.613067  1.0
  H  H1082  1  0.552033  0.108267  0.220267  1.0
  H  H1083  1  0.443767  0.891733  0.279733  1.0
  H  H1084  1  0.885367  0.774933  0.886933  1.0
  H  H1085  1  0.441600  0.222900  0.446400  1.0
  H  H1086  1  0.777100  0.218700  0.446400  1.0
  H  H1087  1  0.552033  0.443767  0.720267  1.0
  H  H1088  1  0.891733  0.447967  0.720267  1.0
  H  H1089  1  0.774933  0.889567  0.113067  1.0
  H  H1090  1  0.110433  0.885367  0.113067  1.0
  H  H1091  1  0.108267  0.556233  0.779733  1.0
  H  H1092  1  0.443767  0.552033  0.779733  1.0
  H  H1093  1  0.222900  0.441600  0.053600  1.0
  H  H1094  1  0.218700  0.777100  0.053600  1.0
  H  H1095  1  0.558400  0.781300  0.053600  1.0
  H  H1096  1  0.781300  0.558400  0.446400  1.0
  H  H1097  1  0.889567  0.774933  0.386933  1.0
  H  H1098  1  0.885367  0.110433  0.386933  1.0
  H  H1099  1  0.225067  0.114633  0.386933  1.0
  H  H1100  1  0.447967  0.891733  0.779733  1.0
  H  H1101  1  0.556233  0.108267  0.720267  1.0
  H  H1102  1  0.114633  0.225067  0.113067  1.0
  H  H1103  1  0.558400  0.777100  0.553600  1.0
  H  H1104  1  0.222900  0.781300  0.553600  1.0
  H  H1105  1  0.447967  0.556233  0.279733  1.0
  H  H1106  1  0.108267  0.552033  0.279733  1.0
  H  H1107  1  0.225067  0.110433  0.886933  1.0
  H  H1108  1  0.889567  0.114633  0.886933  1.0
  H  H1109  1  0.891733  0.443767  0.220267  1.0
  H  H1110  1  0.556233  0.447967  0.220267  1.0
  H  H1111  1  0.867700  0.539500  0.001800  1.0
  H  H1112  1  0.671800  0.132300  0.001800  1.0
  H  H1113  1  0.460500  0.328200  0.001800  1.0
  H  H1114  1  0.328200  0.460500  0.498200  1.0
  H  H1115  1  0.201033  0.206167  0.668467  1.0
  H  H1116  1  0.005133  0.798967  0.668467  1.0
  H  H1117  1  0.793833  0.994867  0.668467  1.0
  H  H1118  1  0.661533  0.127167  0.164867  1.0
  H  H1119  1  0.534367  0.872833  0.335133  1.0
  H  H1120  1  0.994867  0.793833  0.831533  1.0
  H  H1121  1  0.460500  0.132300  0.501800  1.0
  H  H1122  1  0.867700  0.328200  0.501800  1.0
  H  H1123  1  0.661533  0.534367  0.664867  1.0
  H  H1124  1  0.872833  0.338467  0.664867  1.0
  H  H1125  1  0.793833  0.798967  0.168467  1.0
  H  H1126  1  0.201033  0.994867  0.168467  1.0
  H  H1127  1  0.127167  0.465633  0.835133  1.0
  H  H1128  1  0.534367  0.661533  0.835133  1.0
  H  H1129  1  0.132300  0.460500  0.998200  1.0
  H  H1130  1  0.328200  0.867700  0.998200  1.0
  H  H1131  1  0.539500  0.671800  0.998200  1.0
  H  H1132  1  0.671800  0.539500  0.501800  1.0
  H  H1133  1  0.798967  0.793833  0.331533  1.0
  H  H1134  1  0.994867  0.201033  0.331533  1.0
  H  H1135  1  0.206167  0.005133  0.331533  1.0
  H  H1136  1  0.338467  0.872833  0.835133  1.0
  H  H1137  1  0.465633  0.127167  0.664867  1.0
  H  H1138  1  0.005133  0.206167  0.168467  1.0
  H  H1139  1  0.539500  0.867700  0.498200  1.0
  H  H1140  1  0.132300  0.671800  0.498200  1.0
  H  H1141  1  0.338467  0.465633  0.335133  1.0
  H  H1142  1  0.127167  0.661533  0.335133  1.0
  H  H1143  1  0.206167  0.201033  0.831533  1.0
  H  H1144  1  0.798967  0.005133  0.831533  1.0
  H  H1145  1  0.872833  0.534367  0.164867  1.0
  H  H1146  1  0.465633  0.338467  0.164867  1.0
  H  H1147  1  0.824800  0.501100  0.019800  1.0
  H  H1148  1  0.676300  0.175200  0.019800  1.0
  H  H1149  1  0.498900  0.323700  0.019800  1.0
  H  H1150  1  0.323700  0.498900  0.480200  1.0
  H  H1151  1  0.158133  0.167767  0.686467  1.0
  H  H1152  1  0.009633  0.841867  0.686467  1.0
  H  H1153  1  0.832233  0.990367  0.686467  1.0
  H  H1154  1  0.657033  0.165567  0.146867  1.0
  H  H1155  1  0.491467  0.834433  0.353133  1.0
  H  H1156  1  0.990367  0.832233  0.813533  1.0
  H  H1157  1  0.498900  0.175200  0.519800  1.0
  H  H1158  1  0.824800  0.323700  0.519800  1.0
  H  H1159  1  0.657033  0.491467  0.646867  1.0
  H  H1160  1  0.834433  0.342967  0.646867  1.0
  H  H1161  1  0.832233  0.841867  0.186467  1.0
  H  H1162  1  0.158133  0.990367  0.186467  1.0
  H  H1163  1  0.165567  0.508533  0.853133  1.0
  H  H1164  1  0.491467  0.657033  0.853133  1.0
  H  H1165  1  0.175200  0.498900  0.980200  1.0
  H  H1166  1  0.323700  0.824800  0.980200  1.0
  H  H1167  1  0.501100  0.676300  0.980200  1.0
  H  H1168  1  0.676300  0.501100  0.519800  1.0
  H  H1169  1  0.841867  0.832233  0.313533  1.0
  H  H1170  1  0.990367  0.158133  0.313533  1.0
  H  H1171  1  0.167767  0.009633  0.313533  1.0
  H  H1172  1  0.342967  0.834433  0.853133  1.0
  H  H1173  1  0.508533  0.165567  0.646867  1.0
  H  H1174  1  0.009633  0.167767  0.186467  1.0
  H  H1175  1  0.501100  0.824800  0.480200  1.0
  H  H1176  1  0.175200  0.676300  0.480200  1.0
  H  H1177  1  0.342967  0.508533  0.353133  1.0
  H  H1178  1  0.165567  0.657033  0.353133  1.0
  H  H1179  1  0.167767  0.158133  0.813533  1.0
  H  H1180  1  0.841867  0.009633  0.813533  1.0
  H  H1181  1  0.834433  0.491467  0.146867  1.0
  H  H1182  1  0.508533  0.342967  0.146867  1.0
  H  H1183  1  0.839400  0.557900  0.019800  1.0
  H  H1184  1  0.718500  0.160600  0.019800  1.0
  H  H1185  1  0.442100  0.281500  0.019800  1.0
  H  H1186  1  0.281500  0.442100  0.480200  1.0
  H  H1187  1  0.172733  0.224567  0.686467  1.0
  H  H1188  1  0.051833  0.827267  0.686467  1.0
  H  H1189  1  0.775433  0.948167  0.686467  1.0
  H  H1190  1  0.614833  0.108767  0.146867  1.0
  H  H1191  1  0.506067  0.891233  0.353133  1.0
  H  H1192  1  0.948167  0.775433  0.813533  1.0
  H  H1193  1  0.442100  0.160600  0.519800  1.0
  H  H1194  1  0.839400  0.281500  0.519800  1.0
  H  H1195  1  0.614833  0.506067  0.646867  1.0
  H  H1196  1  0.891233  0.385167  0.646867  1.0
  H  H1197  1  0.775433  0.827267  0.186467  1.0
  H  H1198  1  0.172733  0.948167  0.186467  1.0
  H  H1199  1  0.108767  0.493933  0.853133  1.0
  H  H1200  1  0.506067  0.614833  0.853133  1.0
  H  H1201  1  0.160600  0.442100  0.980200  1.0
  H  H1202  1  0.281500  0.839400  0.980200  1.0
  H  H1203  1  0.557900  0.718500  0.980200  1.0
  H  H1204  1  0.718500  0.557900  0.519800  1.0
  H  H1205  1  0.827267  0.775433  0.313533  1.0
  H  H1206  1  0.948167  0.172733  0.313533  1.0
  H  H1207  1  0.224567  0.051833  0.313533  1.0
  H  H1208  1  0.385167  0.891233  0.853133  1.0
  H  H1209  1  0.493933  0.108767  0.646867  1.0
  H  H1210  1  0.051833  0.224567  0.186467  1.0
  H  H1211  1  0.557900  0.839400  0.480200  1.0
  H  H1212  1  0.160600  0.718500  0.480200  1.0
  H  H1213  1  0.385167  0.493933  0.353133  1.0
  H  H1214  1  0.108767  0.614833  0.353133  1.0
  H  H1215  1  0.224567  0.172733  0.813533  1.0
  H  H1216  1  0.827267  0.051833  0.813533  1.0
  H  H1217  1  0.891233  0.506067  0.146867  1.0
  H  H1218  1  0.493933  0.385167  0.146867  1.0
  H  H1219  1  0.755500  0.472400  0.921300  1.0
  H  H1220  1  0.716900  0.244500  0.921300  1.0
  H  H1221  1  0.527600  0.283100  0.921300  1.0
  H  H1222  1  0.283100  0.527600  0.578700  1.0
  H  H1223  1  0.088833  0.139067  0.587967  1.0
  H  H1224  1  0.050233  0.911167  0.587967  1.0
  H  H1225  1  0.860933  0.949767  0.587967  1.0
  H  H1226  1  0.616433  0.194267  0.245367  1.0
  H  H1227  1  0.422167  0.805733  0.254633  1.0
  H  H1228  1  0.949767  0.860933  0.912033  1.0
  H  H1229  1  0.527600  0.244500  0.421300  1.0
  H  H1230  1  0.755500  0.283100  0.421300  1.0
  H  H1231  1  0.616433  0.422167  0.745367  1.0
  H  H1232  1  0.805733  0.383567  0.745367  1.0
  H  H1233  1  0.860933  0.911167  0.087967  1.0
  H  H1234  1  0.088833  0.949767  0.087967  1.0
  H  H1235  1  0.194267  0.577833  0.754633  1.0
  H  H1236  1  0.422167  0.616433  0.754633  1.0
  H  H1237  1  0.244500  0.527600  0.078700  1.0
  H  H1238  1  0.283100  0.755500  0.078700  1.0
  H  H1239  1  0.472400  0.716900  0.078700  1.0
  H  H1240  1  0.716900  0.472400  0.421300  1.0
  H  H1241  1  0.911167  0.860933  0.412033  1.0
  H  H1242  1  0.949767  0.088833  0.412033  1.0
  H  H1243  1  0.139067  0.050233  0.412033  1.0
  H  H1244  1  0.383567  0.805733  0.754633  1.0
  H  H1245  1  0.577833  0.194267  0.745367  1.0
  H  H1246  1  0.050233  0.139067  0.087967  1.0
  H  H1247  1  0.472400  0.755500  0.578700  1.0
  H  H1248  1  0.244500  0.716900  0.578700  1.0
  H  H1249  1  0.383567  0.577833  0.254633  1.0
  H  H1250  1  0.194267  0.616433  0.254633  1.0
  H  H1251  1  0.139067  0.088833  0.912033  1.0
  H  H1252  1  0.911167  0.050233  0.912033  1.0
  H  H1253  1  0.805733  0.422167  0.245367  1.0
  H  H1254  1  0.577833  0.383567  0.245367  1.0
  H  H1255  1  0.737300  0.471500  0.949400  1.0
  H  H1256  1  0.734200  0.262700  0.949400  1.0
  H  H1257  1  0.528500  0.265800  0.949400  1.0
  H  H1258  1  0.265800  0.528500  0.550600  1.0
  H  H1259  1  0.070633  0.138167  0.616067  1.0
  H  H1260  1  0.067533  0.929367  0.616067  1.0
  H  H1261  1  0.861833  0.932467  0.616067  1.0
  H  H1262  1  0.599133  0.195167  0.217267  1.0
  H  H1263  1  0.403967  0.804833  0.282733  1.0
  H  H1264  1  0.932467  0.861833  0.883933  1.0
  H  H1265  1  0.528500  0.262700  0.449400  1.0
  H  H1266  1  0.737300  0.265800  0.449400  1.0
  H  H1267  1  0.599133  0.403967  0.717267  1.0
  H  H1268  1  0.804833  0.400867  0.717267  1.0
  H  H1269  1  0.861833  0.929367  0.116067  1.0
  H  H1270  1  0.070633  0.932467  0.116067  1.0
  H  H1271  1  0.195167  0.596033  0.782733  1.0
  H  H1272  1  0.403967  0.599133  0.782733  1.0
  H  H1273  1  0.262700  0.528500  0.050600  1.0
  H  H1274  1  0.265800  0.737300  0.050600  1.0
  H  H1275  1  0.471500  0.734200  0.050600  1.0
  H  H1276  1  0.734200  0.471500  0.449400  1.0
  H  H1277  1  0.929367  0.861833  0.383933  1.0
  H  H1278  1  0.932467  0.070633  0.383933  1.0
  H  H1279  1  0.138167  0.067533  0.383933  1.0
  H  H1280  1  0.400867  0.804833  0.782733  1.0
  H  H1281  1  0.596033  0.195167  0.717267  1.0
  H  H1282  1  0.067533  0.138167  0.116067  1.0
  H  H1283  1  0.471500  0.737300  0.550600  1.0
  H  H1284  1  0.262700  0.734200  0.550600  1.0
  H  H1285  1  0.400867  0.596033  0.282733  1.0
  H  H1286  1  0.195167  0.599133  0.282733  1.0
  H  H1287  1  0.138167  0.070633  0.883933  1.0
  H  H1288  1  0.929367  0.067533  0.883933  1.0
  H  H1289  1  0.804833  0.403967  0.217267  1.0
  H  H1290  1  0.596033  0.400867  0.217267  1.0
  H  H1291  1  0.787500  0.471300  0.944400  1.0
  H  H1292  1  0.683800  0.212500  0.944400  1.0
  H  H1293  1  0.528700  0.316200  0.944400  1.0
  H  H1294  1  0.316200  0.528700  0.555600  1.0
  H  H1295  1  0.120833  0.137967  0.611067  1.0
  H  H1296  1  0.017133  0.879167  0.611067  1.0
  H  H1297  1  0.862033  0.982867  0.611067  1.0
  H  H1298  1  0.649533  0.195367  0.222267  1.0
  H  H1299  1  0.454167  0.804633  0.277733  1.0
  H  H1300  1  0.982867  0.862033  0.888933  1.0
  H  H1301  1  0.528700  0.212500  0.444400  1.0
  H  H1302  1  0.787500  0.316200  0.444400  1.0
  H  H1303  1  0.649533  0.454167  0.722267  1.0
  H  H1304  1  0.804633  0.350467  0.722267  1.0
  H  H1305  1  0.862033  0.879167  0.111067  1.0
  H  H1306  1  0.120833  0.982867  0.111067  1.0
  H  H1307  1  0.195367  0.545833  0.777733  1.0
  H  H1308  1  0.454167  0.649533  0.777733  1.0
  H  H1309  1  0.212500  0.528700  0.055600  1.0
  H  H1310  1  0.316200  0.787500  0.055600  1.0
  H  H1311  1  0.471300  0.683800  0.055600  1.0
  H  H1312  1  0.683800  0.471300  0.444400  1.0
  H  H1313  1  0.879167  0.862033  0.388933  1.0
  H  H1314  1  0.982867  0.120833  0.388933  1.0
  H  H1315  1  0.137967  0.017133  0.388933  1.0
  H  H1316  1  0.350467  0.804633  0.777733  1.0
  H  H1317  1  0.545833  0.195367  0.722267  1.0
  H  H1318  1  0.017133  0.137967  0.111067  1.0
  H  H1319  1  0.471300  0.787500  0.555600  1.0
  H  H1320  1  0.212500  0.683800  0.555600  1.0
  H  H1321  1  0.350467  0.545833  0.277733  1.0
  H  H1322  1  0.195367  0.649533  0.277733  1.0
  H  H1323  1  0.137967  0.120833  0.888933  1.0
  H  H1324  1  0.879167  0.017133  0.888933  1.0
  H  H1325  1  0.804633  0.454167  0.222267  1.0
  H  H1326  1  0.545833  0.350467  0.222267  1.0
  H  H1327  1  0.941900  0.760200  0.020200  1.0
  H  H1328  1  0.818300  0.058100  0.020200  1.0
  H  H1329  1  0.239800  0.181700  0.020200  1.0
  H  H1330  1  0.181700  0.239800  0.479800  1.0
  H  H1331  1  0.275233  0.426867  0.686867  1.0
  H  H1332  1  0.151633  0.724767  0.686867  1.0
  H  H1333  1  0.573133  0.848367  0.686867  1.0
  H  H1334  1  0.515033  0.906467  0.146467  1.0
  H  H1335  1  0.608567  0.093533  0.353533  1.0
  H  H1336  1  0.848367  0.573133  0.813133  1.0
  H  H1337  1  0.239800  0.058100  0.520200  1.0
  H  H1338  1  0.941900  0.181700  0.520200  1.0
  H  H1339  1  0.515033  0.608567  0.646467  1.0
  H  H1340  1  0.093533  0.484967  0.646467  1.0
  H  H1341  1  0.573133  0.724767  0.186867  1.0
  H  H1342  1  0.275233  0.848367  0.186867  1.0
  H  H1343  1  0.906467  0.391433  0.853533  1.0
  H  H1344  1  0.608567  0.515033  0.853533  1.0
  H  H1345  1  0.058100  0.239800  0.979800  1.0
  H  H1346  1  0.181700  0.941900  0.979800  1.0
  H  H1347  1  0.760200  0.818300  0.979800  1.0
  H  H1348  1  0.818300  0.760200  0.520200  1.0
  H  H1349  1  0.724767  0.573133  0.313133  1.0
  H  H1350  1  0.848367  0.275233  0.313133  1.0
  H  H1351  1  0.426867  0.151633  0.313133  1.0
  H  H1352  1  0.484967  0.093533  0.853533  1.0
  H  H1353  1  0.391433  0.906467  0.646467  1.0
  H  H1354  1  0.151633  0.426867  0.186867  1.0
  H  H1355  1  0.760200  0.941900  0.479800  1.0
  H  H1356  1  0.058100  0.818300  0.479800  1.0
  H  H1357  1  0.484967  0.391433  0.353533  1.0
  H  H1358  1  0.906467  0.515033  0.353533  1.0
  H  H1359  1  0.426867  0.275233  0.813133  1.0
  H  H1360  1  0.724767  0.151633  0.813133  1.0
  H  H1361  1  0.093533  0.608567  0.146467  1.0
  H  H1362  1  0.391433  0.484967  0.146467  1.0
  H  H1363  1  0.888900  0.715200  0.015200  1.0
  H  H1364  1  0.826300  0.111100  0.015200  1.0
  H  H1365  1  0.284800  0.173700  0.015200  1.0
  H  H1366  1  0.173700  0.284800  0.484800  1.0
  H  H1367  1  0.222233  0.381867  0.681867  1.0
  H  H1368  1  0.159633  0.777767  0.681867  1.0
  H  H1369  1  0.618133  0.840367  0.681867  1.0
  H  H1370  1  0.507033  0.951467  0.151467  1.0
  H  H1371  1  0.555567  0.048533  0.348533  1.0
  H  H1372  1  0.840367  0.618133  0.818133  1.0
  H  H1373  1  0.284800  0.111100  0.515200  1.0
  H  H1374  1  0.888900  0.173700  0.515200  1.0
  H  H1375  1  0.507033  0.555567  0.651467  1.0
  H  H1376  1  0.048533  0.492967  0.651467  1.0
  H  H1377  1  0.618133  0.777767  0.181867  1.0
  H  H1378  1  0.222233  0.840367  0.181867  1.0
  H  H1379  1  0.951467  0.444433  0.848533  1.0
  H  H1380  1  0.555567  0.507033  0.848533  1.0
  H  H1381  1  0.111100  0.284800  0.984800  1.0
  H  H1382  1  0.173700  0.888900  0.984800  1.0
  H  H1383  1  0.715200  0.826300  0.984800  1.0
  H  H1384  1  0.826300  0.715200  0.515200  1.0
  H  H1385  1  0.777767  0.618133  0.318133  1.0
  H  H1386  1  0.840367  0.222233  0.318133  1.0
  H  H1387  1  0.381867  0.159633  0.318133  1.0
  H  H1388  1  0.492967  0.048533  0.848533  1.0
  H  H1389  1  0.444433  0.951467  0.651467  1.0
  H  H1390  1  0.159633  0.381867  0.181867  1.0
  H  H1391  1  0.715200  0.888900  0.484800  1.0
  H  H1392  1  0.111100  0.826300  0.484800  1.0
  H  H1393  1  0.492967  0.444433  0.348533  1.0
  H  H1394  1  0.951467  0.507033  0.348533  1.0
  H  H1395  1  0.381867  0.222233  0.818133  1.0
  H  H1396  1  0.777767  0.159633  0.818133  1.0
  H  H1397  1  0.048533  0.555567  0.151467  1.0
  H  H1398  1  0.444433  0.492967  0.151467  1.0
  H  H1399  1  0.918800  0.666500  0.032100  1.0
  H  H1400  1  0.747700  0.081200  0.032100  1.0
  H  H1401  1  0.333500  0.252300  0.032100  1.0
  H  H1402  1  0.252300  0.333500  0.467900  1.0
  H  H1403  1  0.252133  0.333167  0.698767  1.0
  H  H1404  1  0.081033  0.747867  0.698767  1.0
  H  H1405  1  0.666833  0.918967  0.698767  1.0
  H  H1406  1  0.585633  0.000167  0.134567  1.0
  H  H1407  1  0.585467  0.999833  0.365433  1.0
  H  H1408  1  0.918967  0.666833  0.801233  1.0
  H  H1409  1  0.333500  0.081200  0.532100  1.0
  H  H1410  1  0.918800  0.252300  0.532100  1.0
  H  H1411  1  0.585633  0.585467  0.634567  1.0
  H  H1412  1  0.999833  0.414367  0.634567  1.0
  H  H1413  1  0.666833  0.747867  0.198767  1.0
  H  H1414  1  0.252133  0.918967  0.198767  1.0
  H  H1415  1  0.000167  0.414533  0.865433  1.0
  H  H1416  1  0.585467  0.585633  0.865433  1.0
  H  H1417  1  0.081200  0.333500  0.967900  1.0
  H  H1418  1  0.252300  0.918800  0.967900  1.0
  H  H1419  1  0.666500  0.747700  0.967900  1.0
  H  H1420  1  0.747700  0.666500  0.532100  1.0
  H  H1421  1  0.747867  0.666833  0.301233  1.0
  H  H1422  1  0.918967  0.252133  0.301233  1.0
  H  H1423  1  0.333167  0.081033  0.301233  1.0
  H  H1424  1  0.414367  0.999833  0.865433  1.0
  H  H1425  1  0.414533  0.000167  0.634567  1.0
  H  H1426  1  0.081033  0.333167  0.198767  1.0
  H  H1427  1  0.666500  0.918800  0.467900  1.0
  H  H1428  1  0.081200  0.747700  0.467900  1.0
  H  H1429  1  0.414367  0.414533  0.365433  1.0
  H  H1430  1  0.000167  0.585633  0.365433  1.0
  H  H1431  1  0.333167  0.252133  0.801233  1.0
  H  H1432  1  0.747867  0.081033  0.801233  1.0
  H  H1433  1  0.999833  0.585467  0.134567  1.0
  H  H1434  1  0.414533  0.414367  0.134567  1.0
  H  H1435  1  0.907700  0.701000  0.049900  1.0
  H  H1436  1  0.793300  0.092300  0.049900  1.0
  H  H1437  1  0.299000  0.206700  0.049900  1.0
  H  H1438  1  0.206700  0.299000  0.450100  1.0
  H  H1439  1  0.241033  0.367667  0.716567  1.0
  H  H1440  1  0.126633  0.758967  0.716567  1.0
  H  H1441  1  0.632333  0.873367  0.716567  1.0
  H  H1442  1  0.540033  0.965667  0.116767  1.0
  H  H1443  1  0.574367  0.034333  0.383233  1.0
  H  H1444  1  0.873367  0.632333  0.783433  1.0
  H  H1445  1  0.299000  0.092300  0.549900  1.0
  H  H1446  1  0.907700  0.206700  0.549900  1.0
  H  H1447  1  0.540033  0.574367  0.616767  1.0
  H  H1448  1  0.034333  0.459967  0.616767  1.0
  H  H1449  1  0.632333  0.758967  0.216567  1.0
  H  H1450  1  0.241033  0.873367  0.216567  1.0
  H  H1451  1  0.965667  0.425633  0.883233  1.0
  H  H1452  1  0.574367  0.540033  0.883233  1.0
  H  H1453  1  0.092300  0.299000  0.950100  1.0
  H  H1454  1  0.206700  0.907700  0.950100  1.0
  H  H1455  1  0.701000  0.793300  0.950100  1.0
  H  H1456  1  0.793300  0.701000  0.549900  1.0
  H  H1457  1  0.758967  0.632333  0.283433  1.0
  H  H1458  1  0.873367  0.241033  0.283433  1.0
  H  H1459  1  0.367667  0.126633  0.283433  1.0
  H  H1460  1  0.459967  0.034333  0.883233  1.0
  H  H1461  1  0.425633  0.965667  0.616767  1.0
  H  H1462  1  0.126633  0.367667  0.216567  1.0
  H  H1463  1  0.701000  0.907700  0.450100  1.0
  H  H1464  1  0.092300  0.793300  0.450100  1.0
  H  H1465  1  0.459967  0.425633  0.383233  1.0
  H  H1466  1  0.965667  0.540033  0.383233  1.0
  H  H1467  1  0.367667  0.241033  0.783433  1.0
  H  H1468  1  0.758967  0.126633  0.783433  1.0
  H  H1469  1  0.034333  0.574367  0.116767  1.0
  H  H1470  1  0.425633  0.459967  0.116767  1.0
  H  H1471  1  0.963200  0.717700  0.042100  1.0
  H  H1472  1  0.754500  0.036800  0.042100  1.0
  H  H1473  1  0.282300  0.245500  0.042100  1.0
  H  H1474  1  0.245500  0.282300  0.457900  1.0
  H  H1475  1  0.296533  0.384367  0.708767  1.0
  H  H1476  1  0.087833  0.703467  0.708767  1.0
  H  H1477  1  0.615633  0.912167  0.708767  1.0
  H  H1478  1  0.578833  0.948967  0.124567  1.0
  H  H1479  1  0.629867  0.051033  0.375433  1.0
  H  H1480  1  0.912167  0.615633  0.791233  1.0
  H  H1481  1  0.282300  0.036800  0.542100  1.0
  H  H1482  1  0.963200  0.245500  0.542100  1.0
  H  H1483  1  0.578833  0.629867  0.624567  1.0
  H  H1484  1  0.051033  0.421167  0.624567  1.0
  H  H1485  1  0.615633  0.703467  0.208767  1.0
  H  H1486  1  0.296533  0.912167  0.208767  1.0
  H  H1487  1  0.948967  0.370133  0.875433  1.0
  H  H1488  1  0.629867  0.578833  0.875433  1.0
  H  H1489  1  0.036800  0.282300  0.957900  1.0
  H  H1490  1  0.245500  0.963200  0.957900  1.0
  H  H1491  1  0.717700  0.754500  0.957900  1.0
  H  H1492  1  0.754500  0.717700  0.542100  1.0
  H  H1493  1  0.703467  0.615633  0.291233  1.0
  H  H1494  1  0.912167  0.296533  0.291233  1.0
  H  H1495  1  0.384367  0.087833  0.291233  1.0
  H  H1496  1  0.421167  0.051033  0.875433  1.0
  H  H1497  1  0.370133  0.948967  0.624567  1.0
  H  H1498  1  0.087833  0.384367  0.208767  1.0
  H  H1499  1  0.717700  0.963200  0.457900  1.0
  H  H1500  1  0.036800  0.754500  0.457900  1.0
  H  H1501  1  0.421167  0.370133  0.375433  1.0
  H  H1502  1  0.948967  0.578833  0.375433  1.0
  H  H1503  1  0.384367  0.296533  0.791233  1.0
  H  H1504  1  0.703467  0.087833  0.791233  1.0
  H  H1505  1  0.051033  0.629867  0.124567  1.0
  H  H1506  1  0.370133  0.421167  0.124567  1.0
  Pt  Pt1507  1  0.899500  0.645340  0.968537  1.0
  Pt  Pt1508  1  0.745840  0.100500  0.968537  1.0
  Pt  Pt1509  1  0.354660  0.254160  0.968537  1.0
  Pt  Pt1510  1  0.254160  0.354660  0.531463  1.0
  Pt  Pt1511  1  0.232833  0.312007  0.635204  1.0
  Pt  Pt1512  1  0.079173  0.767167  0.635204  1.0
  Pt  Pt1513  1  0.687993  0.920827  0.635204  1.0
  Pt  Pt1514  1  0.587493  0.021327  0.198130  1.0
  Pt  Pt1515  1  0.566167  0.978673  0.301870  1.0
  Pt  Pt1516  1  0.920827  0.687993  0.864796  1.0
  Pt  Pt1517  1  0.354660  0.100500  0.468537  1.0
  Pt  Pt1518  1  0.899500  0.254160  0.468537  1.0
  Pt  Pt1519  1  0.587493  0.566167  0.698130  1.0
  Pt  Pt1520  1  0.978673  0.412507  0.698130  1.0
  Pt  Pt1521  1  0.687993  0.767167  0.135204  1.0
  Pt  Pt1522  1  0.232833  0.920827  0.135204  1.0
  Pt  Pt1523  1  0.021327  0.433833  0.801870  1.0
  Pt  Pt1524  1  0.566167  0.587493  0.801870  1.0
  Pt  Pt1525  1  0.100500  0.354660  0.031463  1.0
  Pt  Pt1526  1  0.254160  0.899500  0.031463  1.0
  Pt  Pt1527  1  0.645340  0.745840  0.031463  1.0
  Pt  Pt1528  1  0.745840  0.645340  0.468537  1.0
  Pt  Pt1529  1  0.767167  0.687993  0.364796  1.0
  Pt  Pt1530  1  0.920827  0.232833  0.364796  1.0
  Pt  Pt1531  1  0.312007  0.079173  0.364796  1.0
  Pt  Pt1532  1  0.412507  0.978673  0.801870  1.0
  Pt  Pt1533  1  0.433833  0.021327  0.698130  1.0
  Pt  Pt1534  1  0.079173  0.312007  0.135204  1.0
  Pt  Pt1535  1  0.645340  0.899500  0.531463  1.0
  Pt  Pt1536  1  0.100500  0.745840  0.531463  1.0
  Pt  Pt1537  1  0.412507  0.433833  0.301870  1.0
  Pt  Pt1538  1  0.021327  0.587493  0.301870  1.0
  Pt  Pt1539  1  0.312007  0.232833  0.864796  1.0
  Pt  Pt1540  1  0.767167  0.079173  0.864796  1.0
  Pt  Pt1541  1  0.978673  0.566167  0.198130  1.0
  Pt  Pt1542  1  0.433833  0.412507  0.198130  1.0
  C  C1543  1  0.433000  0.351000  0.853600  1
  C  C1544  1  0.918000  0.567000  0.853600  1
  C  C1545  1  0.649000  0.082000  0.853600  1
  C  C1546  1  0.082000  0.649000  0.646400  1
  C  C1547  1  0.766333  0.017667  0.520267  1
  C  C1548  1  0.251333  0.233667  0.520267  1
  C  C1549  1  0.982333  0.748667  0.520267  1
  C  C1550  1  0.415333  0.315667  0.313067  1
  C  C1551  1  0.099667  0.684333  0.186933  1
  C  C1552  1  0.748667  0.982333  0.979733  1
  C  C1553  1  0.649000  0.567000  0.353600  1
  C  C1554  1  0.433000  0.082000  0.353600  1
  C  C1555  1  0.415333  0.099667  0.813067  1
  C  C1556  1  0.684333  0.584667  0.813067  1
  C  C1557  1  0.982333  0.233667  0.020267  1
  C  C1558  1  0.766333  0.748667  0.020267  1
  C  C1559  1  0.315667  0.900333  0.686933  1
  C  C1560  1  0.099667  0.415333  0.686933  1
  C  C1561  1  0.567000  0.649000  0.146400  1
  C  C1562  1  0.082000  0.433000  0.146400  1
  C  C1563  1  0.351000  0.918000  0.146400  1
  C  C1564  1  0.918000  0.351000  0.353600  1
  C  C1565  1  0.233667  0.982333  0.479733  1
  C  C1566  1  0.748667  0.766333  0.479733  1
  C  C1567  1  0.017667  0.251333  0.479733  1
  C  C1568  1  0.584667  0.684333  0.686933  1
  C  C1569  1  0.900333  0.315667  0.813067  1
  C  C1570  1  0.251333  0.017667  0.020267  1
  C  C1571  1  0.351000  0.433000  0.646400  1
  C  C1572  1  0.567000  0.918000  0.646400  1
  C  C1573  1  0.584667  0.900333  0.186933  1
  C  C1574  1  0.315667  0.415333  0.186933  1
  C  C1575  1  0.017667  0.766333  0.979733  1
  C  C1576  1  0.233667  0.251333  0.979733  1
  C  C1577  1  0.684333  0.099667  0.313067  1
  C  C1578  1  0.900333  0.584667  0.313067  1
  C  C1579  1  0.432000  0.204000  0.848500  1
  C  C1580  1  0.772000  0.568000  0.848500  1
  C  C1581  1  0.796000  0.228000  0.848500  1
  C  C1582  1  0.228000  0.796000  0.651500  1
  C  C1583  1  0.765333  0.870667  0.515167  1
  C  C1584  1  0.105333  0.234667  0.515167  1
  C  C1585  1  0.129333  0.894667  0.515167  1
  C  C1586  1  0.561333  0.462667  0.318167  1
  C  C1587  1  0.098667  0.537333  0.181833  1
  C  C1588  1  0.894667  0.129333  0.984833  1
  C  C1589  1  0.796000  0.568000  0.348500  1
  C  C1590  1  0.432000  0.228000  0.348500  1
  C  C1591  1  0.561333  0.098667  0.818167  1
  C  C1592  1  0.537333  0.438667  0.818167  1
  C  C1593  1  0.129333  0.234667  0.015167  1
  C  C1594  1  0.765333  0.894667  0.015167  1
  C  C1595  1  0.462667  0.901333  0.681833  1
  C  C1596  1  0.098667  0.561333  0.681833  1
  C  C1597  1  0.568000  0.796000  0.151500  1
  C  C1598  1  0.228000  0.432000  0.151500  1
  C  C1599  1  0.204000  0.772000  0.151500  1
  C  C1600  1  0.772000  0.204000  0.348500  1
  C  C1601  1  0.234667  0.129333  0.484833  1
  C  C1602  1  0.894667  0.765333  0.484833  1
  C  C1603  1  0.870667  0.105333  0.484833  1
  C  C1604  1  0.438667  0.537333  0.681833  1
  C  C1605  1  0.901333  0.462667  0.818167  1
  C  C1606  1  0.105333  0.870667  0.015167  1
  C  C1607  1  0.204000  0.432000  0.651500  1
  C  C1608  1  0.568000  0.772000  0.651500  1
  C  C1609  1  0.438667  0.901333  0.181833  1
  C  C1610  1  0.462667  0.561333  0.181833  1
  C  C1611  1  0.870667  0.765333  0.984833  1
  C  C1612  1  0.234667  0.105333  0.984833  1
  C  C1613  1  0.537333  0.098667  0.318167  1
  C  C1614  1  0.901333  0.438667  0.318167  1
  C  C1615  1  0.392000  0.258000  0.818200  1
  C  C1616  1  0.866000  0.608000  0.818200  1
  C  C1617  1  0.742000  0.134000  0.818200  1
  C  C1618  1  0.134000  0.742000  0.681800  1
  C  C1619  1  0.725333  0.924667  0.484867  1
  C  C1620  1  0.199333  0.274667  0.484867  1
  C  C1621  1  0.075333  0.800667  0.484867  1
  C  C1622  1  0.467333  0.408667  0.348467  1
  C  C1623  1  0.058667  0.591333  0.151533  1
  C  C1624  1  0.800667  0.075333  0.015133  1
  C  C1625  1  0.742000  0.608000  0.318200  1
  C  C1626  1  0.392000  0.134000  0.318200  1
  C  C1627  1  0.467333  0.058667  0.848467  1
  C  C1628  1  0.591333  0.532667  0.848467  1
  C  C1629  1  0.075333  0.274667  0.984867  1
  C  C1630  1  0.725333  0.800667  0.984867  1
  C  C1631  1  0.408667  0.941333  0.651533  1
  C  C1632  1  0.058667  0.467333  0.651533  1
  C  C1633  1  0.608000  0.742000  0.181800  1
  C  C1634  1  0.134000  0.392000  0.181800  1
  C  C1635  1  0.258000  0.866000  0.181800  1
  C  C1636  1  0.866000  0.258000  0.318200  1
  C  C1637  1  0.274667  0.075333  0.515133  1
  C  C1638  1  0.800667  0.725333  0.515133  1
  C  C1639  1  0.924667  0.199333  0.515133  1
  C  C1640  1  0.532667  0.591333  0.651533  1
  C  C1641  1  0.941333  0.408667  0.848467  1
  C  C1642  1  0.199333  0.924667  0.984867  1
  C  C1643  1  0.258000  0.392000  0.681800  1
  C  C1644  1  0.608000  0.866000  0.681800  1
  C  C1645  1  0.532667  0.941333  0.151533  1
  C  C1646  1  0.408667  0.467333  0.151533  1
  C  C1647  1  0.924667  0.725333  0.015133  1
  C  C1648  1  0.274667  0.199333  0.015133  1
  C  C1649  1  0.591333  0.058667  0.348467  1
  C  C1650  1  0.941333  0.532667  0.348467  1
  C  C1651  1  0.368000  0.263000  0.796900  1
  C  C1652  1  0.895000  0.632000  0.796900  1
  C  C1653  1  0.737000  0.105000  0.796900  1
  C  C1654  1  0.105000  0.737000  0.703100  1
  C  C1655  1  0.701333  0.929667  0.463567  1
  C  C1656  1  0.228333  0.298667  0.463567  1
  C  C1657  1  0.070333  0.771667  0.463567  1
  C  C1658  1  0.438333  0.403667  0.369767  1
  C  C1659  1  0.034667  0.596333  0.130233  1
  C  C1660  1  0.771667  0.070333  0.036433  1
  C  C1661  1  0.737000  0.632000  0.296900  1
  C  C1662  1  0.368000  0.105000  0.296900  1
  C  C1663  1  0.438333  0.034667  0.869767  1
  C  C1664  1  0.596333  0.561667  0.869767  1
  C  C1665  1  0.070333  0.298667  0.963567  1
  C  C1666  1  0.701333  0.771667  0.963567  1
  C  C1667  1  0.403667  0.965333  0.630233  1
  C  C1668  1  0.034667  0.438333  0.630233  1
  C  C1669  1  0.632000  0.737000  0.203100  1
  C  C1670  1  0.105000  0.368000  0.203100  1
  C  C1671  1  0.263000  0.895000  0.203100  1
  C  C1672  1  0.895000  0.263000  0.296900  1
  C  C1673  1  0.298667  0.070333  0.536433  1
  C  C1674  1  0.771667  0.701333  0.536433  1
  C  C1675  1  0.929667  0.228333  0.536433  1
  C  C1676  1  0.561667  0.596333  0.630233  1
  C  C1677  1  0.965333  0.403667  0.869767  1
  C  C1678  1  0.228333  0.929667  0.963567  1
  C  C1679  1  0.263000  0.368000  0.703100  1
  C  C1680  1  0.632000  0.895000  0.703100  1
  C  C1681  1  0.561667  0.965333  0.130233  1
  C  C1682  1  0.403667  0.438333  0.130233  1
  C  C1683  1  0.929667  0.701333  0.036433  1
  C  C1684  1  0.298667  0.228333  0.036433  1
  C  C1685  1  0.596333  0.034667  0.369767  1
  C  C1686  1  0.965333  0.561667  0.369767  1
  C  C1687  1  0.204000  0.221000  0.891300  1
  C  C1688  1  0.017000  0.796000  0.891300  1
  C  C1689  1  0.779000  0.983000  0.891300  1
  C  C1690  1  0.983000  0.779000  0.608700  1
  C  C1691  1  0.537333  0.887667  0.557967  1
  C  C1692  1  0.350333  0.462667  0.557967  1
  C  C1693  1  0.112333  0.649667  0.557967  1
  C  C1694  1  0.316333  0.445667  0.275367  1
  C  C1695  1  0.870667  0.554333  0.224633  1
  C  C1696  1  0.649667  0.112333  0.942033  1
  C  C1697  1  0.779000  0.796000  0.391300  1
  C  C1698  1  0.204000  0.983000  0.391300  1
  C  C1699  1  0.316333  0.870667  0.775367  1
  C  C1700  1  0.554333  0.683667  0.775367  1
  C  C1701  1  0.112333  0.462667  0.057967  1
  C  C1702  1  0.537333  0.649667  0.057967  1
  C  C1703  1  0.445667  0.129333  0.724633  1
  C  C1704  1  0.870667  0.316333  0.724633  1
  C  C1705  1  0.796000  0.779000  0.108700  1
  C  C1706  1  0.983000  0.204000  0.108700  1
  C  C1707  1  0.221000  0.017000  0.108700  1
  C  C1708  1  0.017000  0.221000  0.391300  1
  C  C1709  1  0.462667  0.112333  0.442033  1
  C  C1710  1  0.649667  0.537333  0.442033  1
  C  C1711  1  0.887667  0.350333  0.442033  1
  C  C1712  1  0.683667  0.554333  0.724633  1
  C  C1713  1  0.129333  0.445667  0.775367  1
  C  C1714  1  0.350333  0.887667  0.057967  1
  C  C1715  1  0.221000  0.204000  0.608700  1
  C  C1716  1  0.796000  0.017000  0.608700  1
  C  C1717  1  0.683667  0.129333  0.224633  1
  C  C1718  1  0.445667  0.316333  0.224633  1
  C  C1719  1  0.887667  0.537333  0.942033  1
  C  C1720  1  0.462667  0.350333  0.942033  1
  C  C1721  1  0.554333  0.870667  0.275367  1
  C  C1722  1  0.129333  0.683667  0.275367  1
  C  C1723  1  0.190000  0.144000  0.837800  1
  C  C1724  1  0.954000  0.810000  0.837800  1
  C  C1725  1  0.856000  0.046000  0.837800  1
  C  C1726  1  0.046000  0.856000  0.662200  1
  C  C1727  1  0.523333  0.810667  0.504467  1
  C  C1728  1  0.287333  0.476667  0.504467  1
  C  C1729  1  0.189333  0.712667  0.504467  1
  C  C1730  1  0.379333  0.522667  0.328867  1
  C  C1731  1  0.856667  0.477333  0.171133  1
  C  C1732  1  0.712667  0.189333  0.995533  1
  C  C1733  1  0.856000  0.810000  0.337800  1
  C  C1734  1  0.190000  0.046000  0.337800  1
  C  C1735  1  0.379333  0.856667  0.828867  1
  C  C1736  1  0.477333  0.620667  0.828867  1
  C  C1737  1  0.189333  0.476667  0.004467  1
  C  C1738  1  0.523333  0.712667  0.004467  1
  C  C1739  1  0.522667  0.143333  0.671133  1
  C  C1740  1  0.856667  0.379333  0.671133  1
  C  C1741  1  0.810000  0.856000  0.162200  1
  C  C1742  1  0.046000  0.190000  0.162200  1
  C  C1743  1  0.144000  0.954000  0.162200  1
  C  C1744  1  0.954000  0.144000  0.337800  1
  C  C1745  1  0.476667  0.189333  0.495533  1
  C  C1746  1  0.712667  0.523333  0.495533  1
  C  C1747  1  0.810667  0.287333  0.495533  1
  C  C1748  1  0.620667  0.477333  0.671133  1
  C  C1749  1  0.143333  0.522667  0.828867  1
  C  C1750  1  0.287333  0.810667  0.004467  1
  C  C1751  1  0.144000  0.190000  0.662200  1
  C  C1752  1  0.810000  0.954000  0.662200  1
  C  C1753  1  0.620667  0.143333  0.171133  1
  C  C1754  1  0.522667  0.379333  0.171133  1
  C  C1755  1  0.810667  0.523333  0.995533  1
  C  C1756  1  0.476667  0.287333  0.995533  1
  C  C1757  1  0.477333  0.856667  0.328867  1
  C  C1758  1  0.143333  0.620667  0.328867  1
  C  C1759  1  0.198000  0.170000  0.823900  1
  C  C1760  1  0.972000  0.802000  0.823900  1
  C  C1761  1  0.830000  0.028000  0.823900  1
  C  C1762  1  0.028000  0.830000  0.676100  1
  C  C1763  1  0.531333  0.836667  0.490567  1
  C  C1764  1  0.305333  0.468667  0.490567  1
  C  C1765  1  0.163333  0.694667  0.490567  1
  C  C1766  1  0.361333  0.496667  0.342767  1
  C  C1767  1  0.864667  0.503333  0.157233  1
  C  C1768  1  0.694667  0.163333  0.009433  1
  C  C1769  1  0.830000  0.802000  0.323900  1
  C  C1770  1  0.198000  0.028000  0.323900  1
  C  C1771  1  0.361333  0.864667  0.842767  1
  C  C1772  1  0.503333  0.638667  0.842767  1
  C  C1773  1  0.163333  0.468667  0.990567  1
  C  C1774  1  0.531333  0.694667  0.990567  1
  C  C1775  1  0.496667  0.135333  0.657233  1
  C  C1776  1  0.864667  0.361333  0.657233  1
  C  C1777  1  0.802000  0.830000  0.176100  1
  C  C1778  1  0.028000  0.198000  0.176100  1
  C  C1779  1  0.170000  0.972000  0.176100  1
  C  C1780  1  0.972000  0.170000  0.323900  1
  C  C1781  1  0.468667  0.163333  0.509433  1
  C  C1782  1  0.694667  0.531333  0.509433  1
  C  C1783  1  0.836667  0.305333  0.509433  1
  C  C1784  1  0.638667  0.503333  0.657233  1
  C  C1785  1  0.135333  0.496667  0.842767  1
  C  C1786  1  0.305333  0.836667  0.990567  1
  C  C1787  1  0.170000  0.198000  0.676100  1
  C  C1788  1  0.802000  0.972000  0.676100  1
  C  C1789  1  0.638667  0.135333  0.157233  1
  C  C1790  1  0.496667  0.361333  0.157233  1
  C  C1791  1  0.836667  0.531333  0.009433  1
  C  C1792  1  0.468667  0.305333  0.009433  1
  C  C1793  1  0.503333  0.864667  0.342767  1
  C  C1794  1  0.135333  0.638667  0.342767  1
  C  C1795  1  0.151000  0.100000  0.894800  1
  C  C1796  1  0.949000  0.849000  0.894800  1
  C  C1797  1  0.900000  0.051000  0.894800  1
  C  C1798  1  0.051000  0.900000  0.605200  1
  C  C1799  1  0.484333  0.766667  0.561467  1
  C  C1800  1  0.282333  0.515667  0.561467  1
  C  C1801  1  0.233333  0.717667  0.561467  1
  C  C1802  1  0.384333  0.566667  0.271867  1
  C  C1803  1  0.817667  0.433333  0.228133  1
  C  C1804  1  0.717667  0.233333  0.938533  1
  C  C1805  1  0.900000  0.849000  0.394800  1
  C  C1806  1  0.151000  0.051000  0.394800  1
  C  C1807  1  0.384333  0.817667  0.771867  1
  C  C1808  1  0.433333  0.615667  0.771867  1
  C  C1809  1  0.233333  0.515667  0.061467  1
  C  C1810  1  0.484333  0.717667  0.061467  1
  C  C1811  1  0.566667  0.182333  0.728133  1
  C  C1812  1  0.817667  0.384333  0.728133  1
  C  C1813  1  0.849000  0.900000  0.105200  1
  C  C1814  1  0.051000  0.151000  0.105200  1
  C  C1815  1  0.100000  0.949000  0.105200  1
  C  C1816  1  0.949000  0.100000  0.394800  1
  C  C1817  1  0.515667  0.233333  0.438533  1
  C  C1818  1  0.717667  0.484333  0.438533  1
  C  C1819  1  0.766667  0.282333  0.438533  1
  C  C1820  1  0.615667  0.433333  0.728133  1
  C  C1821  1  0.182333  0.566667  0.771867  1
  C  C1822  1  0.282333  0.766667  0.061467  1
  C  C1823  1  0.100000  0.151000  0.605200  1
  C  C1824  1  0.849000  0.949000  0.605200  1
  C  C1825  1  0.615667  0.182333  0.228133  1
  C  C1826  1  0.566667  0.384333  0.228133  1
  C  C1827  1  0.766667  0.484333  0.938533  1
  C  C1828  1  0.515667  0.282333  0.938533  1
  C  C1829  1  0.433333  0.817667  0.271867  1
  C  C1830  1  0.182333  0.615667  0.271867  1
  C  C1831  1  0.918000  0.568000  0.853600  1
  C  C1832  1  0.650000  0.082000  0.853600  1
  C  C1833  1  0.432000  0.350000  0.853600  1
  C  C1834  1  0.350000  0.432000  0.646400  1
  C  C1835  1  0.251333  0.234667  0.520267  1
  C  C1836  1  0.983333  0.748667  0.520267  1
  C  C1837  1  0.765333  0.016667  0.520267  1
  C  C1838  1  0.683333  0.098667  0.313067  1
  C  C1839  1  0.584667  0.901333  0.186933  1
  C  C1840  1  0.016667  0.765333  0.979733  1
  C  C1841  1  0.432000  0.082000  0.353600  1
  C  C1842  1  0.918000  0.350000  0.353600  1
  C  C1843  1  0.683333  0.584667  0.813067  1
  C  C1844  1  0.901333  0.316667  0.813067  1
  C  C1845  1  0.765333  0.748667  0.020267  1
  C  C1846  1  0.251333  0.016667  0.020267  1
  C  C1847  1  0.098667  0.415333  0.686933  1
  C  C1848  1  0.584667  0.683333  0.686933  1
  C  C1849  1  0.082000  0.432000  0.146400  1
  C  C1850  1  0.350000  0.918000  0.146400  1
  C  C1851  1  0.568000  0.650000  0.146400  1
  C  C1852  1  0.650000  0.568000  0.353600  1
  C  C1853  1  0.748667  0.765333  0.479733  1
  C  C1854  1  0.016667  0.251333  0.479733  1
  C  C1855  1  0.234667  0.983333  0.479733  1
  C  C1856  1  0.316667  0.901333  0.686933  1
  C  C1857  1  0.415333  0.098667  0.813067  1
  C  C1858  1  0.983333  0.234667  0.020267  1
  C  C1859  1  0.568000  0.918000  0.646400  1
  C  C1860  1  0.082000  0.650000  0.646400  1
  C  C1861  1  0.316667  0.415333  0.186933  1
  C  C1862  1  0.098667  0.683333  0.186933  1
  C  C1863  1  0.234667  0.251333  0.979733  1
  C  C1864  1  0.748667  0.983333  0.979733  1
  C  C1865  1  0.901333  0.584667  0.313067  1
  C  C1866  1  0.415333  0.316667  0.313067  1
  C  C1867  1  0.772000  0.569000  0.848500  1
  C  C1868  1  0.797000  0.228000  0.848500  1
  C  C1869  1  0.431000  0.203000  0.848500  1
  C  C1870  1  0.203000  0.431000  0.651500  1
  C  C1871  1  0.105333  0.235667  0.515167  1
  C  C1872  1  0.130333  0.894667  0.515167  1
  C  C1873  1  0.764333  0.869667  0.515167  1
  C  C1874  1  0.536333  0.097667  0.318167  1
  C  C1875  1  0.438667  0.902333  0.181833  1
  C  C1876  1  0.869667  0.764333  0.984833  1
  C  C1877  1  0.431000  0.228000  0.348500  1
  C  C1878  1  0.772000  0.203000  0.348500  1
  C  C1879  1  0.536333  0.438667  0.818167  1
  C  C1880  1  0.902333  0.463667  0.818167  1
  C  C1881  1  0.764333  0.894667  0.015167  1
  C  C1882  1  0.105333  0.869667  0.015167  1
  C  C1883  1  0.097667  0.561333  0.681833  1
  C  C1884  1  0.438667  0.536333  0.681833  1
  C  C1885  1  0.228000  0.431000  0.151500  1
  C  C1886  1  0.203000  0.772000  0.151500  1
  C  C1887  1  0.569000  0.797000  0.151500  1
  C  C1888  1  0.797000  0.569000  0.348500  1
  C  C1889  1  0.894667  0.764333  0.484833  1
  C  C1890  1  0.869667  0.105333  0.484833  1
  C  C1891  1  0.235667  0.130333  0.484833  1
  C  C1892  1  0.463667  0.902333  0.681833  1
  C  C1893  1  0.561333  0.097667  0.818167  1
  C  C1894  1  0.130333  0.235667  0.015167  1
  C  C1895  1  0.569000  0.772000  0.651500  1
  C  C1896  1  0.228000  0.797000  0.651500  1
  C  C1897  1  0.463667  0.561333  0.181833  1
  C  C1898  1  0.097667  0.536333  0.181833  1
  C  C1899  1  0.235667  0.105333  0.984833  1
  C  C1900  1  0.894667  0.130333  0.984833  1
  C  C1901  1  0.902333  0.438667  0.318167  1
  C  C1902  1  0.561333  0.463667  0.318167  1
  C  C1903  1  0.866000  0.609000  0.818200  1
  C  C1904  1  0.743000  0.134000  0.818200  1
  C  C1905  1  0.391000  0.257000  0.818200  1
  C  C1906  1  0.257000  0.391000  0.681800  1
  C  C1907  1  0.199333  0.275667  0.484867  1
  C  C1908  1  0.076333  0.800667  0.484867  1
  C  C1909  1  0.724333  0.923667  0.484867  1
  C  C1910  1  0.590333  0.057667  0.348467  1
  C  C1911  1  0.532667  0.942333  0.151533  1
  C  C1912  1  0.923667  0.724333  0.015133  1
  C  C1913  1  0.391000  0.134000  0.318200  1
  C  C1914  1  0.866000  0.257000  0.318200  1
  C  C1915  1  0.590333  0.532667  0.848467  1
  C  C1916  1  0.942333  0.409667  0.848467  1
  C  C1917  1  0.724333  0.800667  0.984867  1
  C  C1918  1  0.199333  0.923667  0.984867  1
  C  C1919  1  0.057667  0.467333  0.651533  1
  C  C1920  1  0.532667  0.590333  0.651533  1
  C  C1921  1  0.134000  0.391000  0.181800  1
  C  C1922  1  0.257000  0.866000  0.181800  1
  C  C1923  1  0.609000  0.743000  0.181800  1
  C  C1924  1  0.743000  0.609000  0.318200  1
  C  C1925  1  0.800667  0.724333  0.515133  1
  C  C1926  1  0.923667  0.199333  0.515133  1
  C  C1927  1  0.275667  0.076333  0.515133  1
  C  C1928  1  0.409667  0.942333  0.651533  1
  C  C1929  1  0.467333  0.057667  0.848467  1
  C  C1930  1  0.076333  0.275667  0.984867  1
  C  C1931  1  0.609000  0.866000  0.681800  1
  C  C1932  1  0.134000  0.743000  0.681800  1
  C  C1933  1  0.409667  0.467333  0.151533  1
  C  C1934  1  0.057667  0.590333  0.151533  1
  C  C1935  1  0.275667  0.199333  0.015133  1
  C  C1936  1  0.800667  0.076333  0.015133  1
  C  C1937  1  0.942333  0.532667  0.348467  1
  C  C1938  1  0.467333  0.409667  0.348467  1
  C  C1939  1  0.895000  0.633000  0.796900  1
  C  C1940  1  0.738000  0.105000  0.796900  1
  C  C1941  1  0.367000  0.262000  0.796900  1
  C  C1942  1  0.262000  0.367000  0.703100  1
  C  C1943  1  0.228333  0.299667  0.463567  1
  C  C1944  1  0.071333  0.771667  0.463567  1
  C  C1945  1  0.700333  0.928667  0.463567  1
  C  C1946  1  0.595333  0.033667  0.369767  1
  C  C1947  1  0.561667  0.966333  0.130233  1
  C  C1948  1  0.928667  0.700333  0.036433  1
  C  C1949  1  0.367000  0.105000  0.296900  1
  C  C1950  1  0.895000  0.262000  0.296900  1
  C  C1951  1  0.595333  0.561667  0.869767  1
  C  C1952  1  0.966333  0.404667  0.869767  1
  C  C1953  1  0.700333  0.771667  0.963567  1
  C  C1954  1  0.228333  0.928667  0.963567  1
  C  C1955  1  0.033667  0.438333  0.630233  1
  C  C1956  1  0.561667  0.595333  0.630233  1
  C  C1957  1  0.105000  0.367000  0.203100  1
  C  C1958  1  0.262000  0.895000  0.203100  1
  C  C1959  1  0.633000  0.738000  0.203100  1
  C  C1960  1  0.738000  0.633000  0.296900  1
  C  C1961  1  0.771667  0.700333  0.536433  1
  C  C1962  1  0.928667  0.228333  0.536433  1
  C  C1963  1  0.299667  0.071333  0.536433  1
  C  C1964  1  0.404667  0.966333  0.630233  1
  C  C1965  1  0.438333  0.033667  0.869767  1
  C  C1966  1  0.071333  0.299667  0.963567  1
  C  C1967  1  0.633000  0.895000  0.703100  1
  C  C1968  1  0.105000  0.738000  0.703100  1
  C  C1969  1  0.404667  0.438333  0.130233  1
  C  C1970  1  0.033667  0.595333  0.130233  1
  C  C1971  1  0.299667  0.228333  0.036433  1
  C  C1972  1  0.771667  0.071333  0.036433  1
  C  C1973  1  0.966333  0.561667  0.369767  1
  C  C1974  1  0.438333  0.404667  0.369767  1
  C  C1975  1  0.017000  0.797000  0.891300  1
  C  C1976  1  0.780000  0.983000  0.891300  1
  C  C1977  1  0.203000  0.220000  0.891300  1
  C  C1978  1  0.220000  0.203000  0.608700  1
  C  C1979  1  0.350333  0.463667  0.557967  1
  C  C1980  1  0.113333  0.649667  0.557967  1
  C  C1981  1  0.536333  0.886667  0.557967  1
  C  C1982  1  0.553333  0.869667  0.275367  1
  C  C1983  1  0.683667  0.130333  0.224633  1
  C  C1984  1  0.886667  0.536333  0.942033  1
  C  C1985  1  0.203000  0.983000  0.391300  1
  C  C1986  1  0.017000  0.220000  0.391300  1
  C  C1987  1  0.553333  0.683667  0.775367  1
  C  C1988  1  0.130333  0.446667  0.775367  1
  C  C1989  1  0.536333  0.649667  0.057967  1
  C  C1990  1  0.350333  0.886667  0.057967  1
  C  C1991  1  0.869667  0.316333  0.724633  1
  C  C1992  1  0.683667  0.553333  0.724633  1
  C  C1993  1  0.983000  0.203000  0.108700  1
  C  C1994  1  0.220000  0.017000  0.108700  1
  C  C1995  1  0.797000  0.780000  0.108700  1
  C  C1996  1  0.780000  0.797000  0.391300  1
  C  C1997  1  0.649667  0.536333  0.442033  1
  C  C1998  1  0.886667  0.350333  0.442033  1
  C  C1999  1  0.463667  0.113333  0.442033  1
  C  C2000  1  0.446667  0.130333  0.724633  1
  C  C2001  1  0.316333  0.869667  0.775367  1
  C  C2002  1  0.113333  0.463667  0.057967  1
  C  C2003  1  0.797000  0.017000  0.608700  1
  C  C2004  1  0.983000  0.780000  0.608700  1
  C  C2005  1  0.446667  0.316333  0.224633  1
  C  C2006  1  0.869667  0.553333  0.224633  1
  C  C2007  1  0.463667  0.350333  0.942033  1
  C  C2008  1  0.649667  0.113333  0.942033  1
  C  C2009  1  0.130333  0.683667  0.275367  1
  C  C2010  1  0.316333  0.446667  0.275367  1
  C  C2011  1  0.954000  0.811000  0.837800  1
  C  C2012  1  0.857000  0.046000  0.837800  1
  C  C2013  1  0.189000  0.143000  0.837800  1
  C  C2014  1  0.143000  0.189000  0.662200  1
  C  C2015  1  0.287333  0.477667  0.504467  1
  C  C2016  1  0.190333  0.712667  0.504467  1
  C  C2017  1  0.522333  0.809667  0.504467  1
  C  C2018  1  0.476333  0.855667  0.328867  1
  C  C2019  1  0.620667  0.144333  0.171133  1
  C  C2020  1  0.809667  0.522333  0.995533  1
  C  C2021  1  0.189000  0.046000  0.337800  1
  C  C2022  1  0.954000  0.143000  0.337800  1
  C  C2023  1  0.476333  0.620667  0.828867  1
  C  C2024  1  0.144333  0.523667  0.828867  1
  C  C2025  1  0.522333  0.712667  0.004467  1
  C  C2026  1  0.287333  0.809667  0.004467  1
  C  C2027  1  0.855667  0.379333  0.671133  1
  C  C2028  1  0.620667  0.476333  0.671133  1
  C  C2029  1  0.046000  0.189000  0.162200  1
  C  C2030  1  0.143000  0.954000  0.162200  1
  C  C2031  1  0.811000  0.857000  0.162200  1
  C  C2032  1  0.857000  0.811000  0.337800  1
  C  C2033  1  0.712667  0.522333  0.495533  1
  C  C2034  1  0.809667  0.287333  0.495533  1
  C  C2035  1  0.477667  0.190333  0.495533  1
  C  C2036  1  0.523667  0.144333  0.671133  1
  C  C2037  1  0.379333  0.855667  0.828867  1
  C  C2038  1  0.190333  0.477667  0.004467  1
  C  C2039  1  0.811000  0.954000  0.662200  1
  C  C2040  1  0.046000  0.857000  0.662200  1
  C  C2041  1  0.523667  0.379333  0.171133  1
  C  C2042  1  0.855667  0.476333  0.171133  1
  C  C2043  1  0.477667  0.287333  0.995533  1
  C  C2044  1  0.712667  0.190333  0.995533  1
  C  C2045  1  0.144333  0.620667  0.328867  1
  C  C2046  1  0.379333  0.523667  0.328867  1
  C  C2047  1  0.972000  0.803000  0.823900  1
  C  C2048  1  0.831000  0.028000  0.823900  1
  C  C2049  1  0.197000  0.169000  0.823900  1
  C  C2050  1  0.169000  0.197000  0.676100  1
  C  C2051  1  0.305333  0.469667  0.490567  1
  C  C2052  1  0.164333  0.694667  0.490567  1
  C  C2053  1  0.530333  0.835667  0.490567  1
  C  C2054  1  0.502333  0.863667  0.342767  1
  C  C2055  1  0.638667  0.136333  0.157233  1
  C  C2056  1  0.835667  0.530333  0.009433  1
  C  C2057  1  0.197000  0.028000  0.323900  1
  C  C2058  1  0.972000  0.169000  0.323900  1
  C  C2059  1  0.502333  0.638667  0.842767  1
  C  C2060  1  0.136333  0.497667  0.842767  1
  C  C2061  1  0.530333  0.694667  0.990567  1
  C  C2062  1  0.305333  0.835667  0.990567  1
  C  C2063  1  0.863667  0.361333  0.657233  1
  C  C2064  1  0.638667  0.502333  0.657233  1
  C  C2065  1  0.028000  0.197000  0.176100  1
  C  C2066  1  0.169000  0.972000  0.176100  1
  C  C2067  1  0.803000  0.831000  0.176100  1
  C  C2068  1  0.831000  0.803000  0.323900  1
  C  C2069  1  0.694667  0.530333  0.509433  1
  C  C2070  1  0.835667  0.305333  0.509433  1
  C  C2071  1  0.469667  0.164333  0.509433  1
  C  C2072  1  0.497667  0.136333  0.657233  1
  C  C2073  1  0.361333  0.863667  0.842767  1
  C  C2074  1  0.164333  0.469667  0.990567  1
  C  C2075  1  0.803000  0.972000  0.676100  1
  C  C2076  1  0.028000  0.831000  0.676100  1
  C  C2077  1  0.497667  0.361333  0.157233  1
  C  C2078  1  0.863667  0.502333  0.157233  1
  C  C2079  1  0.469667  0.305333  0.009433  1
  C  C2080  1  0.694667  0.164333  0.009433  1
  C  C2081  1  0.136333  0.638667  0.342767  1
  C  C2082  1  0.361333  0.497667  0.342767  1
  C  C2083  1  0.949000  0.850000  0.894800  1
  C  C2084  1  0.901000  0.051000  0.894800  1
  C  C2085  1  0.150000  0.099000  0.894800  1
  C  C2086  1  0.099000  0.150000  0.605200  1
  C  C2087  1  0.282333  0.516667  0.561467  1
  C  C2088  1  0.234333  0.717667  0.561467  1
  C  C2089  1  0.483333  0.765667  0.561467  1
  C  C2090  1  0.432333  0.816667  0.271867  1
  C  C2091  1  0.615667  0.183333  0.228133  1
  C  C2092  1  0.765667  0.483333  0.938533  1
  C  C2093  1  0.150000  0.051000  0.394800  1
  C  C2094  1  0.949000  0.099000  0.394800  1
  C  C2095  1  0.432333  0.615667  0.771867  1
  C  C2096  1  0.183333  0.567667  0.771867  1
  C  C2097  1  0.483333  0.717667  0.061467  1
  C  C2098  1  0.282333  0.765667  0.061467  1
  C  C2099  1  0.816667  0.384333  0.728133  1
  C  C2100  1  0.615667  0.432333  0.728133  1
  C  C2101  1  0.051000  0.150000  0.105200  1
  C  C2102  1  0.099000  0.949000  0.105200  1
  C  C2103  1  0.850000  0.901000  0.105200  1
  C  C2104  1  0.901000  0.850000  0.394800  1
  C  C2105  1  0.717667  0.483333  0.438533  1
  C  C2106  1  0.765667  0.282333  0.438533  1
  C  C2107  1  0.516667  0.234333  0.438533  1
  C  C2108  1  0.567667  0.183333  0.728133  1
  C  C2109  1  0.384333  0.816667  0.771867  1
  C  C2110  1  0.234333  0.516667  0.061467  1
  C  C2111  1  0.850000  0.949000  0.605200  1
  C  C2112  1  0.051000  0.901000  0.605200  1
  C  C2113  1  0.567667  0.384333  0.228133  1
  C  C2114  1  0.816667  0.432333  0.228133  1
  C  C2115  1  0.516667  0.282333  0.938533  1
  C  C2116  1  0.717667  0.234333  0.938533  1
  C  C2117  1  0.183333  0.615667  0.271867  1
  C  C2118  1  0.384333  0.567667  0.271867  1
  C  C2119  1  0.650000  0.083000  0.853600  1
  C  C2120  1  0.433000  0.350000  0.853600  1
  C  C2121  1  0.917000  0.567000  0.853600  1
  C  C2122  1  0.567000  0.917000  0.646400  1
  C  C2123  1  0.983333  0.749667  0.520267  1
  C  C2124  1  0.766333  0.016667  0.520267  1
  C  C2125  1  0.250333  0.233667  0.520267  1
  C  C2126  1  0.900333  0.583667  0.313067  1
  C  C2127  1  0.316667  0.416333  0.186933  1
  C  C2128  1  0.233667  0.250333  0.979733  1
  C  C2129  1  0.917000  0.350000  0.353600  1
  C  C2130  1  0.650000  0.567000  0.353600  1
  C  C2131  1  0.900333  0.316667  0.813067  1
  C  C2132  1  0.416333  0.099667  0.813067  1
  C  C2133  1  0.250333  0.016667  0.020267  1
  C  C2134  1  0.983333  0.233667  0.020267  1
  C  C2135  1  0.583667  0.683333  0.686933  1
  C  C2136  1  0.316667  0.900333  0.686933  1
  C  C2137  1  0.350000  0.917000  0.146400  1
  C  C2138  1  0.567000  0.650000  0.146400  1
  C  C2139  1  0.083000  0.433000  0.146400  1
  C  C2140  1  0.433000  0.083000  0.353600  1
  C  C2141  1  0.016667  0.250333  0.479733  1
  C  C2142  1  0.233667  0.983333  0.479733  1
  C  C2143  1  0.749667  0.766333  0.479733  1
  C  C2144  1  0.099667  0.416333  0.686933  1
  C  C2145  1  0.683333  0.583667  0.813067  1
  C  C2146  1  0.766333  0.749667  0.020267  1
  C  C2147  1  0.083000  0.650000  0.646400  1
  C  C2148  1  0.350000  0.433000  0.646400  1
  C  C2149  1  0.099667  0.683333  0.186933  1
  C  C2150  1  0.583667  0.900333  0.186933  1
  C  C2151  1  0.749667  0.983333  0.979733  1
  C  C2152  1  0.016667  0.766333  0.979733  1
  C  C2153  1  0.416333  0.316667  0.313067  1
  C  C2154  1  0.683333  0.099667  0.313067  1
  C  C2155  1  0.797000  0.229000  0.848500  1
  C  C2156  1  0.432000  0.203000  0.848500  1
  C  C2157  1  0.771000  0.568000  0.848500  1
  C  C2158  1  0.568000  0.771000  0.651500  1
  C  C2159  1  0.130333  0.895667  0.515167  1
  C  C2160  1  0.765333  0.869667  0.515167  1
  C  C2161  1  0.104333  0.234667  0.515167  1
  C  C2162  1  0.901333  0.437667  0.318167  1
  C  C2163  1  0.463667  0.562333  0.181833  1
  C  C2164  1  0.234667  0.104333  0.984833  1
  C  C2165  1  0.771000  0.203000  0.348500  1
  C  C2166  1  0.797000  0.568000  0.348500  1
  C  C2167  1  0.901333  0.463667  0.818167  1
  C  C2168  1  0.562333  0.098667  0.818167  1
  C  C2169  1  0.104333  0.869667  0.015167  1
  C  C2170  1  0.130333  0.234667  0.015167  1
  C  C2171  1  0.437667  0.536333  0.681833  1
  C  C2172  1  0.463667  0.901333  0.681833  1
  C  C2173  1  0.203000  0.771000  0.151500  1
  C  C2174  1  0.568000  0.797000  0.151500  1
  C  C2175  1  0.229000  0.432000  0.151500  1
  C  C2176  1  0.432000  0.229000  0.348500  1
  C  C2177  1  0.869667  0.104333  0.484833  1
  C  C2178  1  0.234667  0.130333  0.484833  1
  C  C2179  1  0.895667  0.765333  0.484833  1
  C  C2180  1  0.098667  0.562333  0.681833  1
  C  C2181  1  0.536333  0.437667  0.818167  1
  C  C2182  1  0.765333  0.895667  0.015167  1
  C  C2183  1  0.229000  0.797000  0.651500  1
  C  C2184  1  0.203000  0.432000  0.651500  1
  C  C2185  1  0.098667  0.536333  0.181833  1
  C  C2186  1  0.437667  0.901333  0.181833  1
  C  C2187  1  0.895667  0.130333  0.984833  1
  C  C2188  1  0.869667  0.765333  0.984833  1
  C  C2189  1  0.562333  0.463667  0.318167  1
  C  C2190  1  0.536333  0.098667  0.318167  1
  C  C2191  1  0.743000  0.135000  0.818200  1
  C  C2192  1  0.392000  0.257000  0.818200  1
  C  C2193  1  0.865000  0.608000  0.818200  1
  C  C2194  1  0.608000  0.865000  0.681800  1
  C  C2195  1  0.076333  0.801667  0.484867  1
  C  C2196  1  0.725333  0.923667  0.484867  1
  C  C2197  1  0.198333  0.274667  0.484867  1
  C  C2198  1  0.941333  0.531667  0.348467  1
  C  C2199  1  0.409667  0.468333  0.151533  1
  C  C2200  1  0.274667  0.198333  0.015133  1
  C  C2201  1  0.865000  0.257000  0.318200  1
  C  C2202  1  0.743000  0.608000  0.318200  1
  C  C2203  1  0.941333  0.409667  0.848467  1
  C  C2204  1  0.468333  0.058667  0.848467  1
  C  C2205  1  0.198333  0.923667  0.984867  1
  C  C2206  1  0.076333  0.274667  0.984867  1
  C  C2207  1  0.531667  0.590333  0.651533  1
  C  C2208  1  0.409667  0.941333  0.651533  1
  C  C2209  1  0.257000  0.865000  0.181800  1
  C  C2210  1  0.608000  0.743000  0.181800  1
  C  C2211  1  0.135000  0.392000  0.181800  1
  C  C2212  1  0.392000  0.135000  0.318200  1
  C  C2213  1  0.923667  0.198333  0.515133  1
  C  C2214  1  0.274667  0.076333  0.515133  1
  C  C2215  1  0.801667  0.725333  0.515133  1
  C  C2216  1  0.058667  0.468333  0.651533  1
  C  C2217  1  0.590333  0.531667  0.848467  1
  C  C2218  1  0.725333  0.801667  0.984867  1
  C  C2219  1  0.135000  0.743000  0.681800  1
  C  C2220  1  0.257000  0.392000  0.681800  1
  C  C2221  1  0.058667  0.590333  0.151533  1
  C  C2222  1  0.531667  0.941333  0.151533  1
  C  C2223  1  0.801667  0.076333  0.015133  1
  C  C2224  1  0.923667  0.725333  0.015133  1
  C  C2225  1  0.468333  0.409667  0.348467  1
  C  C2226  1  0.590333  0.058667  0.348467  1
  C  C2227  1  0.738000  0.106000  0.796900  1
  C  C2228  1  0.368000  0.262000  0.796900  1
  C  C2229  1  0.894000  0.632000  0.796900  1
  C  C2230  1  0.632000  0.894000  0.703100  1
  C  C2231  1  0.071333  0.772667  0.463567  1
  C  C2232  1  0.701333  0.928667  0.463567  1
  C  C2233  1  0.227333  0.298667  0.463567  1
  C  C2234  1  0.965333  0.560667  0.369767  1
  C  C2235  1  0.404667  0.439333  0.130233  1
  C  C2236  1  0.298667  0.227333  0.036433  1
  C  C2237  1  0.894000  0.262000  0.296900  1
  C  C2238  1  0.738000  0.632000  0.296900  1
  C  C2239  1  0.965333  0.404667  0.869767  1
  C  C2240  1  0.439333  0.034667  0.869767  1
  C  C2241  1  0.227333  0.928667  0.963567  1
  C  C2242  1  0.071333  0.298667  0.963567  1
  C  C2243  1  0.560667  0.595333  0.630233  1
  C  C2244  1  0.404667  0.965333  0.630233  1
  C  C2245  1  0.262000  0.894000  0.203100  1
  C  C2246  1  0.632000  0.738000  0.203100  1
  C  C2247  1  0.106000  0.368000  0.203100  1
  C  C2248  1  0.368000  0.106000  0.296900  1
  C  C2249  1  0.928667  0.227333  0.536433  1
  C  C2250  1  0.298667  0.071333  0.536433  1
  C  C2251  1  0.772667  0.701333  0.536433  1
  C  C2252  1  0.034667  0.439333  0.630233  1
  C  C2253  1  0.595333  0.560667  0.869767  1
  C  C2254  1  0.701333  0.772667  0.963567  1
  C  C2255  1  0.106000  0.738000  0.703100  1
  C  C2256  1  0.262000  0.368000  0.703100  1
  C  C2257  1  0.034667  0.595333  0.130233  1
  C  C2258  1  0.560667  0.965333  0.130233  1
  C  C2259  1  0.772667  0.071333  0.036433  1
  C  C2260  1  0.928667  0.701333  0.036433  1
  C  C2261  1  0.439333  0.404667  0.369767  1
  C  C2262  1  0.595333  0.034667  0.369767  1
  C  C2263  1  0.780000  0.984000  0.891300  1
  C  C2264  1  0.204000  0.220000  0.891300  1
  C  C2265  1  0.016000  0.796000  0.891300  1
  C  C2266  1  0.796000  0.016000  0.608700  1
  C  C2267  1  0.113333  0.650667  0.557967  1
  C  C2268  1  0.537333  0.886667  0.557967  1
  C  C2269  1  0.349333  0.462667  0.557967  1
  C  C2270  1  0.129333  0.682667  0.275367  1
  C  C2271  1  0.446667  0.317333  0.224633  1
  C  C2272  1  0.462667  0.349333  0.942033  1
  C  C2273  1  0.016000  0.220000  0.391300  1
  C  C2274  1  0.780000  0.796000  0.391300  1
  C  C2275  1  0.129333  0.446667  0.775367  1
  C  C2276  1  0.317333  0.870667  0.775367  1
  C  C2277  1  0.349333  0.886667  0.057967  1
  C  C2278  1  0.113333  0.462667  0.057967  1
  C  C2279  1  0.682667  0.553333  0.724633  1
  C  C2280  1  0.446667  0.129333  0.724633  1
  C  C2281  1  0.220000  0.016000  0.108700  1
  C  C2282  1  0.796000  0.780000  0.108700  1
  C  C2283  1  0.984000  0.204000  0.108700  1
  C  C2284  1  0.204000  0.984000  0.391300  1
  C  C2285  1  0.886667  0.349333  0.442033  1
  C  C2286  1  0.462667  0.113333  0.442033  1
  C  C2287  1  0.650667  0.537333  0.442033  1
  C  C2288  1  0.870667  0.317333  0.724633  1
  C  C2289  1  0.553333  0.682667  0.775367  1
  C  C2290  1  0.537333  0.650667  0.057967  1
  C  C2291  1  0.984000  0.780000  0.608700  1
  C  C2292  1  0.220000  0.204000  0.608700  1
  C  C2293  1  0.870667  0.553333  0.224633  1
  C  C2294  1  0.682667  0.129333  0.224633  1
  C  C2295  1  0.650667  0.113333  0.942033  1
  C  C2296  1  0.886667  0.537333  0.942033  1
  C  C2297  1  0.317333  0.446667  0.275367  1
  C  C2298  1  0.553333  0.870667  0.275367  1
  C  C2299  1  0.857000  0.047000  0.837800  1
  C  C2300  1  0.190000  0.143000  0.837800  1
  C  C2301  1  0.953000  0.810000  0.837800  1
  C  C2302  1  0.810000  0.953000  0.662200  1
  C  C2303  1  0.190333  0.713667  0.504467  1
  C  C2304  1  0.523333  0.809667  0.504467  1
  C  C2305  1  0.286333  0.476667  0.504467  1
  C  C2306  1  0.143333  0.619667  0.328867  1
  C  C2307  1  0.523667  0.380333  0.171133  1
  C  C2308  1  0.476667  0.286333  0.995533  1
  C  C2309  1  0.953000  0.143000  0.337800  1
  C  C2310  1  0.857000  0.810000  0.337800  1
  C  C2311  1  0.143333  0.523667  0.828867  1
  C  C2312  1  0.380333  0.856667  0.828867  1
  C  C2313  1  0.286333  0.809667  0.004467  1
  C  C2314  1  0.190333  0.476667  0.004467  1
  C  C2315  1  0.619667  0.476333  0.671133  1
  C  C2316  1  0.523667  0.143333  0.671133  1
  C  C2317  1  0.143000  0.953000  0.162200  1
  C  C2318  1  0.810000  0.857000  0.162200  1
  C  C2319  1  0.047000  0.190000  0.162200  1
  C  C2320  1  0.190000  0.047000  0.337800  1
  C  C2321  1  0.809667  0.286333  0.495533  1
  C  C2322  1  0.476667  0.190333  0.495533  1
  C  C2323  1  0.713667  0.523333  0.495533  1
  C  C2324  1  0.856667  0.380333  0.671133  1
  C  C2325  1  0.476333  0.619667  0.828867  1
  C  C2326  1  0.523333  0.713667  0.004467  1
  C  C2327  1  0.047000  0.857000  0.662200  1
  C  C2328  1  0.143000  0.190000  0.662200  1
  C  C2329  1  0.856667  0.476333  0.171133  1
  C  C2330  1  0.619667  0.143333  0.171133  1
  C  C2331  1  0.713667  0.190333  0.995533  1
  C  C2332  1  0.809667  0.523333  0.995533  1
  C  C2333  1  0.380333  0.523667  0.328867  1
  C  C2334  1  0.476333  0.856667  0.328867  1
  C  C2335  1  0.831000  0.029000  0.823900  1
  C  C2336  1  0.198000  0.169000  0.823900  1
  C  C2337  1  0.971000  0.802000  0.823900  1
  C  C2338  1  0.802000  0.971000  0.676100  1
  C  C2339  1  0.164333  0.695667  0.490567  1
  C  C2340  1  0.531333  0.835667  0.490567  1
  C  C2341  1  0.304333  0.468667  0.490567  1
  C  C2342  1  0.135333  0.637667  0.342767  1
  C  C2343  1  0.497667  0.362333  0.157233  1
  C  C2344  1  0.468667  0.304333  0.009433  1
  C  C2345  1  0.971000  0.169000  0.323900  1
  C  C2346  1  0.831000  0.802000  0.323900  1
  C  C2347  1  0.135333  0.497667  0.842767  1
  C  C2348  1  0.362333  0.864667  0.842767  1
  C  C2349  1  0.304333  0.835667  0.990567  1
  C  C2350  1  0.164333  0.468667  0.990567  1
  C  C2351  1  0.637667  0.502333  0.657233  1
  C  C2352  1  0.497667  0.135333  0.657233  1
  C  C2353  1  0.169000  0.971000  0.176100  1
  C  C2354  1  0.802000  0.831000  0.176100  1
  C  C2355  1  0.029000  0.198000  0.176100  1
  C  C2356  1  0.198000  0.029000  0.323900  1
  C  C2357  1  0.835667  0.304333  0.509433  1
  C  C2358  1  0.468667  0.164333  0.509433  1
  C  C2359  1  0.695667  0.531333  0.509433  1
  C  C2360  1  0.864667  0.362333  0.657233  1
  C  C2361  1  0.502333  0.637667  0.842767  1
  C  C2362  1  0.531333  0.695667  0.990567  1
  C  C2363  1  0.029000  0.831000  0.676100  1
  C  C2364  1  0.169000  0.198000  0.676100  1
  C  C2365  1  0.864667  0.502333  0.157233  1
  C  C2366  1  0.637667  0.135333  0.157233  1
  C  C2367  1  0.695667  0.164333  0.009433  1
  C  C2368  1  0.835667  0.531333  0.009433  1
  C  C2369  1  0.362333  0.497667  0.342767  1
  C  C2370  1  0.502333  0.864667  0.342767  1
  C  C2371  1  0.901000  0.052000  0.894800  1
  C  C2372  1  0.151000  0.099000  0.894800  1
  C  C2373  1  0.948000  0.849000  0.894800  1
  C  C2374  1  0.849000  0.948000  0.605200  1
  C  C2375  1  0.234333  0.718667  0.561467  1
  C  C2376  1  0.484333  0.765667  0.561467  1
  C  C2377  1  0.281333  0.515667  0.561467  1
  C  C2378  1  0.182333  0.614667  0.271867  1
  C  C2379  1  0.567667  0.385333  0.228133  1
  C  C2380  1  0.515667  0.281333  0.938533  1
  C  C2381  1  0.948000  0.099000  0.394800  1
  C  C2382  1  0.901000  0.849000  0.394800  1
  C  C2383  1  0.182333  0.567667  0.771867  1
  C  C2384  1  0.385333  0.817667  0.771867  1
  C  C2385  1  0.281333  0.765667  0.061467  1
  C  C2386  1  0.234333  0.515667  0.061467  1
  C  C2387  1  0.614667  0.432333  0.728133  1
  C  C2388  1  0.567667  0.182333  0.728133  1
  C  C2389  1  0.099000  0.948000  0.105200  1
  C  C2390  1  0.849000  0.901000  0.105200  1
  C  C2391  1  0.052000  0.151000  0.105200  1
  C  C2392  1  0.151000  0.052000  0.394800  1
  C  C2393  1  0.765667  0.281333  0.438533  1
  C  C2394  1  0.515667  0.234333  0.438533  1
  C  C2395  1  0.718667  0.484333  0.438533  1
  C  C2396  1  0.817667  0.385333  0.728133  1
  C  C2397  1  0.432333  0.614667  0.771867  1
  C  C2398  1  0.484333  0.718667  0.061467  1
  C  C2399  1  0.052000  0.901000  0.605200  1
  C  C2400  1  0.099000  0.151000  0.605200  1
  C  C2401  1  0.817667  0.432333  0.228133  1
  C  C2402  1  0.614667  0.182333  0.228133  1
  C  C2403  1  0.718667  0.234333  0.938533  1
  C  C2404  1  0.765667  0.484333  0.938533  1
  C  C2405  1  0.385333  0.567667  0.271867  1
  C  C2406  1  0.432333  0.817667  0.271867  1
  C  C2407  1  0.333300  0.666633  0.025700  1.0
  C  C2408  1  0.666667  0.333367  0.474300  1.0
  C  C2409  1  0.666633  0.333300  0.692367  1.0
  C  C2410  1  0.000000  0.000033  0.140967  1.0
  C  C2411  1  0.999967  0.999967  0.359033  1.0
  C  C2412  1  0.333333  0.666700  0.807633  1.0
  C  C2413  1  0.333367  0.666700  0.525700  1.0
  C  C2414  1  0.000000  0.999967  0.640967  1.0
  C  C2415  1  0.666700  0.333367  0.192367  1.0
  C  C2416  1  0.000033  0.000033  0.859033  1.0
  C  C2417  1  0.666700  0.333367  0.974300  1.0
  C  C2418  1  0.333367  0.666700  0.307633  1.0
  C  C2419  1  0.333300  0.666633  0.054900  1.0
  C  C2420  1  0.666667  0.333367  0.445100  1.0
  C  C2421  1  0.666633  0.333300  0.721567  1.0
  C  C2422  1  0.000000  0.000033  0.111767  1.0
  C  C2423  1  0.999967  0.999967  0.388233  1.0
  C  C2424  1  0.333333  0.666700  0.778433  1.0
  C  C2425  1  0.333367  0.666700  0.554900  1.0
  C  C2426  1  0.000000  0.999967  0.611767  1.0
  C  C2427  1  0.666700  0.333367  0.221567  1.0
  C  C2428  1  0.000033  0.000033  0.888233  1.0
  C  C2429  1  0.666700  0.333367  0.945100  1.0
  C  C2430  1  0.333367  0.666700  0.278433  1.0
  C  C2431  1  0.887000  0.537000  0.942000  1.0
  C  C2432  1  0.650000  0.113000  0.942000  1.0
  C  C2433  1  0.463000  0.350000  0.942000  1.0
  C  C2434  1  0.350000  0.463000  0.558000  1.0
  C  C2435  1  0.220333  0.203667  0.608667  1.0
  C  C2436  1  0.983333  0.779667  0.608667  1.0
  C  C2437  1  0.796333  0.016667  0.608667  1.0
  C  C2438  1  0.683333  0.129667  0.224667  1.0
  C  C2439  1  0.553667  0.870333  0.275333  1.0
  C  C2440  1  0.016667  0.796333  0.891333  1.0
  C  C2441  1  0.463000  0.113000  0.442000  1.0
  C  C2442  1  0.887000  0.350000  0.442000  1.0
  C  C2443  1  0.683333  0.553667  0.724667  1.0
  C  C2444  1  0.870333  0.316667  0.724667  1.0
  C  C2445  1  0.796333  0.779667  0.108667  1.0
  C  C2446  1  0.220333  0.016667  0.108667  1.0
  C  C2447  1  0.129667  0.446333  0.775333  1.0
  C  C2448  1  0.553667  0.683333  0.775333  1.0
  C  C2449  1  0.113000  0.463000  0.058000  1.0
  C  C2450  1  0.350000  0.887000  0.058000  1.0
  C  C2451  1  0.537000  0.650000  0.058000  1.0
  C  C2452  1  0.650000  0.537000  0.442000  1.0
  C  C2453  1  0.779667  0.796333  0.391333  1.0
  C  C2454  1  0.016667  0.220333  0.391333  1.0
  C  C2455  1  0.203667  0.983333  0.391333  1.0
  C  C2456  1  0.316667  0.870333  0.775333  1.0
  C  C2457  1  0.446333  0.129667  0.724667  1.0
  C  C2458  1  0.983333  0.203667  0.108667  1.0
  C  C2459  1  0.537000  0.887000  0.558000  1.0
  C  C2460  1  0.113000  0.650000  0.558000  1.0
  C  C2461  1  0.316667  0.446333  0.275333  1.0
  C  C2462  1  0.129667  0.683333  0.275333  1.0
  C  C2463  1  0.203667  0.220333  0.891333  1.0
  C  C2464  1  0.779667  0.983333  0.891333  1.0
  C  C2465  1  0.870333  0.553667  0.224667  1.0
  C  C2466  1  0.446333  0.316667  0.224667  1.0
  C  C2467  1  0.810000  0.523000  0.995500  1.0
  C  C2468  1  0.713000  0.190000  0.995500  1.0
  C  C2469  1  0.477000  0.287000  0.995500  1.0
  C  C2470  1  0.287000  0.477000  0.504500  1.0
  C  C2471  1  0.143333  0.189667  0.662167  1.0
  C  C2472  1  0.046333  0.856667  0.662167  1.0
  C  C2473  1  0.810333  0.953667  0.662167  1.0
  C  C2474  1  0.620333  0.143667  0.171167  1.0
  C  C2475  1  0.476667  0.856333  0.328833  1.0
  C  C2476  1  0.953667  0.810333  0.837833  1.0
  C  C2477  1  0.477000  0.190000  0.495500  1.0
  C  C2478  1  0.810000  0.287000  0.495500  1.0
  C  C2479  1  0.620333  0.476667  0.671167  1.0
  C  C2480  1  0.856333  0.379667  0.671167  1.0
  C  C2481  1  0.810333  0.856667  0.162167  1.0
  C  C2482  1  0.143333  0.953667  0.162167  1.0
  C  C2483  1  0.143667  0.523333  0.828833  1.0
  C  C2484  1  0.476667  0.620333  0.828833  1.0
  C  C2485  1  0.190000  0.477000  0.004500  1.0
  C  C2486  1  0.287000  0.810000  0.004500  1.0
  C  C2487  1  0.523000  0.713000  0.004500  1.0
  C  C2488  1  0.713000  0.523000  0.495500  1.0
  C  C2489  1  0.856667  0.810333  0.337833  1.0
  C  C2490  1  0.953667  0.143333  0.337833  1.0
  C  C2491  1  0.189667  0.046333  0.337833  1.0
  C  C2492  1  0.379667  0.856333  0.828833  1.0
  C  C2493  1  0.523333  0.143667  0.671167  1.0
  C  C2494  1  0.046333  0.189667  0.162167  1.0
  C  C2495  1  0.523000  0.810000  0.504500  1.0
  C  C2496  1  0.190000  0.713000  0.504500  1.0
  C  C2497  1  0.379667  0.523333  0.328833  1.0
  C  C2498  1  0.143667  0.620333  0.328833  1.0
  C  C2499  1  0.189667  0.143333  0.837833  1.0
  C  C2500  1  0.856667  0.046333  0.837833  1.0
  C  C2501  1  0.856333  0.476667  0.171167  1.0
  C  C2502  1  0.523333  0.379667  0.171167  1.0
  C  C2503  1  0.870000  0.765000  0.984800  1.0
  C  C2504  1  0.895000  0.130000  0.984800  1.0
  C  C2505  1  0.235000  0.105000  0.984800  1.0
  C  C2506  1  0.105000  0.235000  0.515200  1.0
  C  C2507  1  0.203333  0.431667  0.651467  1.0
  C  C2508  1  0.228333  0.796667  0.651467  1.0
  C  C2509  1  0.568333  0.771667  0.651467  1.0
  C  C2510  1  0.438333  0.901667  0.181867  1.0
  C  C2511  1  0.536667  0.098333  0.318133  1.0
  C  C2512  1  0.771667  0.568333  0.848533  1.0
  C  C2513  1  0.235000  0.130000  0.484800  1.0
  C  C2514  1  0.870000  0.105000  0.484800  1.0
  C  C2515  1  0.438333  0.536667  0.681867  1.0
  C  C2516  1  0.098333  0.561667  0.681867  1.0
  C  C2517  1  0.568333  0.796667  0.151467  1.0
  C  C2518  1  0.203333  0.771667  0.151467  1.0
  C  C2519  1  0.901667  0.463333  0.818133  1.0
  C  C2520  1  0.536667  0.438333  0.818133  1.0
  C  C2521  1  0.130000  0.235000  0.015200  1.0
  C  C2522  1  0.105000  0.870000  0.015200  1.0
  C  C2523  1  0.765000  0.895000  0.015200  1.0
  C  C2524  1  0.895000  0.765000  0.484800  1.0
  C  C2525  1  0.796667  0.568333  0.348533  1.0
  C  C2526  1  0.771667  0.203333  0.348533  1.0
  C  C2527  1  0.431667  0.228333  0.348533  1.0
  C  C2528  1  0.561667  0.098333  0.818133  1.0
  C  C2529  1  0.463333  0.901667  0.681867  1.0
  C  C2530  1  0.228333  0.431667  0.151467  1.0
  C  C2531  1  0.765000  0.870000  0.515200  1.0
  C  C2532  1  0.130000  0.895000  0.515200  1.0
  C  C2533  1  0.561667  0.463333  0.318133  1.0
  C  C2534  1  0.901667  0.438333  0.318133  1.0
  C  C2535  1  0.431667  0.203333  0.848533  1.0
  C  C2536  1  0.796667  0.228333  0.848533  1.0
  C  C2537  1  0.098333  0.536667  0.181867  1.0
  C  C2538  1  0.463333  0.561667  0.181867  1.0
  C  C2539  1  0.843500  0.666600  0.916700  1.0
  C  C2540  1  0.823100  0.156500  0.916700  1.0
  C  C2541  1  0.333400  0.176900  0.916700  1.0
  C  C2542  1  0.176900  0.333400  0.583300  1.0
  C  C2543  1  0.156433  0.823167  0.583367  1.0
  C  C2544  1  0.666733  0.843567  0.583367  1.0
  C  C2545  1  0.510233  0.000067  0.249967  1.0
  C  C2546  1  0.333400  0.156500  0.416700  1.0
  C  C2547  1  0.843500  0.176900  0.416700  1.0
  C  C2548  1  0.510233  0.510167  0.749967  1.0
  C  C2549  1  0.999933  0.489767  0.749967  1.0
  C  C2550  1  0.666733  0.823167  0.083367  1.0
  C  C2551  1  0.176833  0.843567  0.083367  1.0
  C  C2552  1  0.000067  0.489833  0.750033  1.0
  C  C2553  1  0.510167  0.510233  0.750033  1.0
  C  C2554  1  0.156500  0.333400  0.083300  1.0
  C  C2555  1  0.176900  0.843500  0.083300  1.0
  C  C2556  1  0.666600  0.823100  0.083300  1.0
  C  C2557  1  0.823100  0.666600  0.416700  1.0
  C  C2558  1  0.843567  0.176833  0.416633  1.0
  C  C2559  1  0.333267  0.156433  0.416633  1.0
  C  C2560  1  0.489767  0.999933  0.750033  1.0
  C  C2561  1  0.666600  0.843500  0.583300  1.0
  C  C2562  1  0.156500  0.823100  0.583300  1.0
  C  C2563  1  0.489767  0.489833  0.250033  1.0
  C  C2564  1  0.000067  0.510233  0.250033  1.0
  C  C2565  1  0.333267  0.176833  0.916633  1.0
  C  C2566  1  0.823167  0.156433  0.916633  1.0
  C  C2567  1  0.999933  0.510167  0.249967  1.0
  C  C2568  1  0.489833  0.489767  0.249967  1.0
  C  C2569  1  0.753200  0.666600  0.916700  1.0
  C  C2570  1  0.913400  0.246800  0.916700  1.0
  C  C2571  1  0.333400  0.086600  0.916700  1.0
  C  C2572  1  0.086600  0.333400  0.583300  1.0
  C  C2573  1  0.246733  0.913467  0.583367  1.0
  C  C2574  1  0.666733  0.753267  0.583367  1.0
  C  C2575  1  0.419933  0.000067  0.249967  1.0
  C  C2576  1  0.333400  0.246800  0.416700  1.0
  C  C2577  1  0.753200  0.086600  0.416700  1.0
  C  C2578  1  0.419933  0.419867  0.749967  1.0
  C  C2579  1  0.999933  0.580067  0.749967  1.0
  C  C2580  1  0.666733  0.913467  0.083367  1.0
  C  C2581  1  0.086533  0.753267  0.083367  1.0
  C  C2582  1  0.000067  0.580133  0.750033  1.0
  C  C2583  1  0.419867  0.419933  0.750033  1.0
  C  C2584  1  0.246800  0.333400  0.083300  1.0
  C  C2585  1  0.086600  0.753200  0.083300  1.0
  C  C2586  1  0.666600  0.913400  0.083300  1.0
  C  C2587  1  0.913400  0.666600  0.416700  1.0
  C  C2588  1  0.753267  0.086533  0.416633  1.0
  C  C2589  1  0.333267  0.246733  0.416633  1.0
  C  C2590  1  0.580067  0.999933  0.750033  1.0
  C  C2591  1  0.666600  0.753200  0.583300  1.0
  C  C2592  1  0.246800  0.913400  0.583300  1.0
  C  C2593  1  0.580067  0.580133  0.250033  1.0
  C  C2594  1  0.000067  0.419933  0.250033  1.0
  C  C2595  1  0.333267  0.086533  0.916633  1.0
  C  C2596  1  0.913467  0.246733  0.916633  1.0
  C  C2597  1  0.999933  0.419867  0.249967  1.0
  C  C2598  1  0.580133  0.580067  0.249967  1.0
  C  C2599  1  0.017000  0.766000  0.979700  1.0
  C  C2600  1  0.749000  0.983000  0.979700  1.0
  C  C2601  1  0.234000  0.251000  0.979700  1.0
  C  C2602  1  0.251000  0.234000  0.520300  1.0
  C  C2603  1  0.350333  0.432667  0.646367  1.0
  C  C2604  1  0.082333  0.649667  0.646367  1.0
  C  C2605  1  0.567333  0.917667  0.646367  1.0
  C  C2606  1  0.584333  0.900667  0.186967  1.0
  C  C2607  1  0.683667  0.099333  0.313033  1.0
  C  C2608  1  0.917667  0.567333  0.853633  1.0
  C  C2609  1  0.234000  0.983000  0.479700  1.0
  C  C2610  1  0.017000  0.251000  0.479700  1.0
  C  C2611  1  0.584333  0.683667  0.686967  1.0
  C  C2612  1  0.099333  0.415667  0.686967  1.0
  C  C2613  1  0.567333  0.649667  0.146367  1.0
  C  C2614  1  0.350333  0.917667  0.146367  1.0
  C  C2615  1  0.900667  0.316333  0.813033  1.0
  C  C2616  1  0.683667  0.584333  0.813033  1.0
  C  C2617  1  0.983000  0.234000  0.020300  1.0
  C  C2618  1  0.251000  0.017000  0.020300  1.0
  C  C2619  1  0.766000  0.749000  0.020300  1.0
  C  C2620  1  0.749000  0.766000  0.479700  1.0
  C  C2621  1  0.649667  0.567333  0.353633  1.0
  C  C2622  1  0.917667  0.350333  0.353633  1.0
  C  C2623  1  0.432667  0.082333  0.353633  1.0
  C  C2624  1  0.415667  0.099333  0.813033  1.0
  C  C2625  1  0.316333  0.900667  0.686967  1.0
  C  C2626  1  0.082333  0.432667  0.146367  1.0
  C  C2627  1  0.766000  0.017000  0.520300  1.0
  C  C2628  1  0.983000  0.749000  0.520300  1.0
  C  C2629  1  0.415667  0.316333  0.313033  1.0
  C  C2630  1  0.900667  0.584333  0.313033  1.0
  C  C2631  1  0.432667  0.350333  0.853633  1.0
  C  C2632  1  0.649667  0.082333  0.853633  1.0
  C  C2633  1  0.099333  0.683667  0.186967  1.0
  C  C2634  1  0.316333  0.415667  0.186967  1.0
  C  C2635  1  0.836000  0.531000  0.009400  1.0
  C  C2636  1  0.695000  0.164000  0.009400  1.0
  C  C2637  1  0.469000  0.305000  0.009400  1.0
  C  C2638  1  0.305000  0.469000  0.490600  1.0
  C  C2639  1  0.169333  0.197667  0.676067  1.0
  C  C2640  1  0.028333  0.830667  0.676067  1.0
  C  C2641  1  0.802333  0.971667  0.676067  1.0
  C  C2642  1  0.638333  0.135667  0.157267  1.0
  C  C2643  1  0.502667  0.864333  0.342733  1.0
  C  C2644  1  0.971667  0.802333  0.823933  1.0
  C  C2645  1  0.469000  0.164000  0.509400  1.0
  C  C2646  1  0.836000  0.305000  0.509400  1.0
  C  C2647  1  0.638333  0.502667  0.657267  1.0
  C  C2648  1  0.864333  0.361667  0.657267  1.0
  C  C2649  1  0.802333  0.830667  0.176067  1.0
  C  C2650  1  0.169333  0.971667  0.176067  1.0
  C  C2651  1  0.135667  0.497333  0.842733  1.0
  C  C2652  1  0.502667  0.638333  0.842733  1.0
  C  C2653  1  0.164000  0.469000  0.990600  1.0
  C  C2654  1  0.305000  0.836000  0.990600  1.0
  C  C2655  1  0.531000  0.695000  0.990600  1.0
  C  C2656  1  0.695000  0.531000  0.509400  1.0
  C  C2657  1  0.830667  0.802333  0.323933  1.0
  C  C2658  1  0.971667  0.169333  0.323933  1.0
  C  C2659  1  0.197667  0.028333  0.323933  1.0
  C  C2660  1  0.361667  0.864333  0.842733  1.0
  C  C2661  1  0.497333  0.135667  0.657267  1.0
  C  C2662  1  0.028333  0.197667  0.176067  1.0
  C  C2663  1  0.531000  0.836000  0.490600  1.0
  C  C2664  1  0.164000  0.695000  0.490600  1.0
  C  C2665  1  0.361667  0.497333  0.342733  1.0
  C  C2666  1  0.135667  0.638333  0.342733  1.0
  C  C2667  1  0.197667  0.169333  0.823933  1.0
  C  C2668  1  0.830667  0.028333  0.823933  1.0
  C  C2669  1  0.864333  0.502667  0.157267  1.0
  C  C2670  1  0.497333  0.361667  0.157267  1.0
  C  C2671  1  0.766000  0.484000  0.938500  1.0
  C  C2672  1  0.718000  0.234000  0.938500  1.0
  C  C2673  1  0.516000  0.282000  0.938500  1.0
  C  C2674  1  0.282000  0.516000  0.561500  1.0
  C  C2675  1  0.099333  0.150667  0.605167  1.0
  C  C2676  1  0.051333  0.900667  0.605167  1.0
  C  C2677  1  0.849333  0.948667  0.605167  1.0
  C  C2678  1  0.615333  0.182667  0.228167  1.0
  C  C2679  1  0.432667  0.817333  0.271833  1.0
  C  C2680  1  0.948667  0.849333  0.894833  1.0
  C  C2681  1  0.516000  0.234000  0.438500  1.0
  C  C2682  1  0.766000  0.282000  0.438500  1.0
  C  C2683  1  0.615333  0.432667  0.728167  1.0
  C  C2684  1  0.817333  0.384667  0.728167  1.0
  C  C2685  1  0.849333  0.900667  0.105167  1.0
  C  C2686  1  0.099333  0.948667  0.105167  1.0
  C  C2687  1  0.182667  0.567333  0.771833  1.0
  C  C2688  1  0.432667  0.615333  0.771833  1.0
  C  C2689  1  0.234000  0.516000  0.061500  1.0
  C  C2690  1  0.282000  0.766000  0.061500  1.0
  C  C2691  1  0.484000  0.718000  0.061500  1.0
  C  C2692  1  0.718000  0.484000  0.438500  1.0
  C  C2693  1  0.900667  0.849333  0.394833  1.0
  C  C2694  1  0.948667  0.099333  0.394833  1.0
  C  C2695  1  0.150667  0.051333  0.394833  1.0
  C  C2696  1  0.384667  0.817333  0.771833  1.0
  C  C2697  1  0.567333  0.182667  0.728167  1.0
  C  C2698  1  0.051333  0.150667  0.105167  1.0
  C  C2699  1  0.484000  0.766000  0.561500  1.0
  C  C2700  1  0.234000  0.718000  0.561500  1.0
  C  C2701  1  0.384667  0.567333  0.271833  1.0
  C  C2702  1  0.182667  0.615333  0.271833  1.0
  C  C2703  1  0.150667  0.099333  0.894833  1.0
  C  C2704  1  0.900667  0.051333  0.894833  1.0
  C  C2705  1  0.817333  0.432667  0.228167  1.0
  C  C2706  1  0.567333  0.384667  0.228167  1.0
  C  C2707  1  0.924000  0.725000  0.015100  1.0
  C  C2708  1  0.801000  0.076000  0.015100  1.0
  C  C2709  1  0.275000  0.199000  0.015100  1.0
  C  C2710  1  0.199000  0.275000  0.484900  1.0
  C  C2711  1  0.257333  0.391667  0.681767  1.0
  C  C2712  1  0.134333  0.742667  0.681767  1.0
  C  C2713  1  0.608333  0.865667  0.681767  1.0
  C  C2714  1  0.532333  0.941667  0.151567  1.0
  C  C2715  1  0.590667  0.058333  0.348433  1.0
  C  C2716  1  0.865667  0.608333  0.818233  1.0
  C  C2717  1  0.275000  0.076000  0.515100  1.0
  C  C2718  1  0.924000  0.199000  0.515100  1.0
  C  C2719  1  0.532333  0.590667  0.651567  1.0
  C  C2720  1  0.058333  0.467667  0.651567  1.0
  C  C2721  1  0.608333  0.742667  0.181767  1.0
  C  C2722  1  0.257333  0.865667  0.181767  1.0
  C  C2723  1  0.941667  0.409333  0.848433  1.0
  C  C2724  1  0.590667  0.532333  0.848433  1.0
  C  C2725  1  0.076000  0.275000  0.984900  1.0
  C  C2726  1  0.199000  0.924000  0.984900  1.0
  C  C2727  1  0.725000  0.801000  0.984900  1.0
  C  C2728  1  0.801000  0.725000  0.515100  1.0
  C  C2729  1  0.742667  0.608333  0.318233  1.0
  C  C2730  1  0.865667  0.257333  0.318233  1.0
  C  C2731  1  0.391667  0.134333  0.318233  1.0
  C  C2732  1  0.467667  0.058333  0.848433  1.0
  C  C2733  1  0.409333  0.941667  0.651567  1.0
  C  C2734  1  0.134333  0.391667  0.181767  1.0
  C  C2735  1  0.725000  0.924000  0.484900  1.0
  C  C2736  1  0.076000  0.801000  0.484900  1.0
  C  C2737  1  0.467667  0.409333  0.348433  1.0
  C  C2738  1  0.941667  0.532333  0.348433  1.0
  C  C2739  1  0.391667  0.257333  0.818233  1.0
  C  C2740  1  0.742667  0.134333  0.818233  1.0
  C  C2741  1  0.058333  0.590667  0.151567  1.0
  C  C2742  1  0.409333  0.467667  0.151567  1.0
  C  C2743  1  0.929000  0.701000  0.036400  1.0
  C  C2744  1  0.772000  0.071000  0.036400  1.0
  C  C2745  1  0.299000  0.228000  0.036400  1.0
  C  C2746  1  0.228000  0.299000  0.463600  1.0
  C  C2747  1  0.262333  0.367667  0.703067  1.0
  C  C2748  1  0.105333  0.737667  0.703067  1.0
  C  C2749  1  0.632333  0.894667  0.703067  1.0
  C  C2750  1  0.561333  0.965667  0.130267  1.0
  C  C2751  1  0.595667  0.034333  0.369733  1.0
  C  C2752  1  0.894667  0.632333  0.796933  1.0
  C  C2753  1  0.299000  0.071000  0.536400  1.0
  C  C2754  1  0.929000  0.228000  0.536400  1.0
  C  C2755  1  0.561333  0.595667  0.630267  1.0
  C  C2756  1  0.034333  0.438667  0.630267  1.0
  C  C2757  1  0.632333  0.737667  0.203067  1.0
  C  C2758  1  0.262333  0.894667  0.203067  1.0
  C  C2759  1  0.965667  0.404333  0.869733  1.0
  C  C2760  1  0.595667  0.561333  0.869733  1.0
  C  C2761  1  0.071000  0.299000  0.963600  1.0
  C  C2762  1  0.228000  0.929000  0.963600  1.0
  C  C2763  1  0.701000  0.772000  0.963600  1.0
  C  C2764  1  0.772000  0.701000  0.536400  1.0
  C  C2765  1  0.737667  0.632333  0.296933  1.0
  C  C2766  1  0.894667  0.262333  0.296933  1.0
  C  C2767  1  0.367667  0.105333  0.296933  1.0
  C  C2768  1  0.438667  0.034333  0.869733  1.0
  C  C2769  1  0.404333  0.965667  0.630267  1.0
  C  C2770  1  0.105333  0.367667  0.203067  1.0
  C  C2771  1  0.701000  0.929000  0.463600  1.0
  C  C2772  1  0.071000  0.772000  0.463600  1.0
  C  C2773  1  0.438667  0.404333  0.369733  1.0
  C  C2774  1  0.965667  0.561333  0.369733  1.0
  C  C2775  1  0.367667  0.262333  0.796933  1.0
  C  C2776  1  0.737667  0.105333  0.796933  1.0
  C  C2777  1  0.034333  0.595667  0.130267  1.0
  C  C2778  1  0.404333  0.438667  0.130267  1.0
  C  C2779  1  0.282600  0.661600  0.015500  1.0
  C  C2780  1  0.379000  0.717400  0.015500  1.0
  C  C2781  1  0.338400  0.621000  0.015500  1.0
  C  C2782  1  0.621000  0.338400  0.484500  1.0
  C  C2783  1  0.615933  0.328267  0.682167  1.0
  C  C2784  1  0.712333  0.384067  0.682167  1.0
  C  C2785  1  0.671733  0.287667  0.682167  1.0
  C  C2786  1  0.954333  0.005067  0.151167  1.0
  C  C2787  1  0.949267  0.994933  0.348833  1.0
  C  C2788  1  0.287667  0.671733  0.817833  1.0
  C  C2789  1  0.338400  0.717400  0.515500  1.0
  C  C2790  1  0.282600  0.621000  0.515500  1.0
  C  C2791  1  0.954333  0.949267  0.651167  1.0
  C  C2792  1  0.994933  0.045667  0.651167  1.0
  C  C2793  1  0.671733  0.384067  0.182167  1.0
  C  C2794  1  0.615933  0.287667  0.182167  1.0
  C  C2795  1  0.005067  0.050733  0.848833  1.0
  C  C2796  1  0.949267  0.954333  0.848833  1.0
  C  C2797  1  0.717400  0.338400  0.984500  1.0
  C  C2798  1  0.621000  0.282600  0.984500  1.0
  C  C2799  1  0.661600  0.379000  0.984500  1.0
  C  C2800  1  0.379000  0.661600  0.515500  1.0
  C  C2801  1  0.384067  0.671733  0.317833  1.0
  C  C2802  1  0.287667  0.615933  0.317833  1.0
  C  C2803  1  0.328267  0.712333  0.317833  1.0
  C  C2804  1  0.045667  0.994933  0.848833  1.0
  C  C2805  1  0.050733  0.005067  0.651167  1.0
  C  C2806  1  0.712333  0.328267  0.182167  1.0
  C  C2807  1  0.661600  0.282600  0.484500  1.0
  C  C2808  1  0.717400  0.379000  0.484500  1.0
  C  C2809  1  0.045667  0.050733  0.348833  1.0
  C  C2810  1  0.005067  0.954333  0.348833  1.0
  C  C2811  1  0.328267  0.615933  0.817833  1.0
  C  C2812  1  0.384067  0.712333  0.817833  1.0
  C  C2813  1  0.994933  0.949267  0.151167  1.0
  C  C2814  1  0.050733  0.045667  0.151167  1.0
  C  C2815  1  0.143500  0.646700  0.992600  1.0
  C  C2816  1  0.503200  0.856500  0.992600  1.0
  C  C2817  1  0.353300  0.496800  0.992600  1.0
  C  C2818  1  0.496800  0.353300  0.507400  1.0
  C  C2819  1  0.476833  0.313367  0.659267  1.0
  C  C2820  1  0.836533  0.523167  0.659267  1.0
  C  C2821  1  0.686633  0.163467  0.659267  1.0
  C  C2822  1  0.830133  0.019967  0.174067  1.0
  C  C2823  1  0.810167  0.980033  0.325933  1.0
  C  C2824  1  0.163467  0.686633  0.840733  1.0
  C  C2825  1  0.353300  0.856500  0.492600  1.0
  C  C2826  1  0.143500  0.496800  0.492600  1.0
  C  C2827  1  0.830133  0.810167  0.674067  1.0
  C  C2828  1  0.980033  0.169867  0.674067  1.0
  C  C2829  1  0.686633  0.523167  0.159267  1.0
  C  C2830  1  0.476833  0.163467  0.159267  1.0
  C  C2831  1  0.019967  0.189833  0.825933  1.0
  C  C2832  1  0.810167  0.830133  0.825933  1.0
  C  C2833  1  0.856500  0.353300  0.007400  1.0
  C  C2834  1  0.496800  0.143500  0.007400  1.0
  C  C2835  1  0.646700  0.503200  0.007400  1.0
  C  C2836  1  0.503200  0.646700  0.492600  1.0
  C  C2837  1  0.523167  0.686633  0.340733  1.0
  C  C2838  1  0.163467  0.476833  0.340733  1.0
  C  C2839  1  0.313367  0.836533  0.340733  1.0
  C  C2840  1  0.169867  0.980033  0.825933  1.0
  C  C2841  1  0.189833  0.019967  0.674067  1.0
  C  C2842  1  0.836533  0.313367  0.159267  1.0
  C  C2843  1  0.646700  0.143500  0.507400  1.0
  C  C2844  1  0.856500  0.503200  0.507400  1.0
  C  C2845  1  0.169867  0.189833  0.325933  1.0
  C  C2846  1  0.019967  0.830133  0.325933  1.0
  C  C2847  1  0.313367  0.476833  0.840733  1.0
  C  C2848  1  0.523167  0.836533  0.840733  1.0
  C  C2849  1  0.980033  0.810167  0.174067  1.0
  C  C2850  1  0.189833  0.169867  0.174067  1.0
  C  C2851  1  0.190100  0.650400  0.999700  1.0
  C  C2852  1  0.460300  0.809900  0.999700  1.0
  C  C2853  1  0.349600  0.539700  0.999700  1.0
  C  C2854  1  0.539700  0.349600  0.500300  1.0
  C  C2855  1  0.523433  0.317067  0.666367  1.0
  C  C2856  1  0.793633  0.476567  0.666367  1.0
  C  C2857  1  0.682933  0.206367  0.666367  1.0
  C  C2858  1  0.873033  0.016267  0.166967  1.0
  C  C2859  1  0.856767  0.983733  0.333033  1.0
  C  C2860  1  0.206367  0.682933  0.833633  1.0
  C  C2861  1  0.349600  0.809900  0.499700  1.0
  C  C2862  1  0.190100  0.539700  0.499700  1.0
  C  C2863  1  0.873033  0.856767  0.666967  1.0
  C  C2864  1  0.983733  0.126967  0.666967  1.0
  C  C2865  1  0.682933  0.476567  0.166367  1.0
  C  C2866  1  0.523433  0.206367  0.166367  1.0
  C  C2867  1  0.016267  0.143233  0.833033  1.0
  C  C2868  1  0.856767  0.873033  0.833033  1.0
  C  C2869  1  0.809900  0.349600  0.000300  1.0
  C  C2870  1  0.539700  0.190100  0.000300  1.0
  C  C2871  1  0.650400  0.460300  0.000300  1.0
  C  C2872  1  0.460300  0.650400  0.499700  1.0
  C  C2873  1  0.476567  0.682933  0.333633  1.0
  C  C2874  1  0.206367  0.523433  0.333633  1.0
  C  C2875  1  0.317067  0.793633  0.333633  1.0
  C  C2876  1  0.126967  0.983733  0.833033  1.0
  C  C2877  1  0.143233  0.016267  0.666967  1.0
  C  C2878  1  0.793633  0.317067  0.166367  1.0
  C  C2879  1  0.650400  0.190100  0.500300  1.0
  C  C2880  1  0.809900  0.460300  0.500300  1.0
  C  C2881  1  0.126967  0.143233  0.333033  1.0
  C  C2882  1  0.016267  0.873033  0.333033  1.0
  C  C2883  1  0.317067  0.523433  0.833633  1.0
  C  C2884  1  0.476567  0.793633  0.833633  1.0
  C  C2885  1  0.983733  0.856767  0.166967  1.0
  C  C2886  1  0.143233  0.126967  0.166967  1.0
  C  C2887  1  0.242100  0.634500  0.029300  1.0
  C  C2888  1  0.392400  0.757900  0.029300  1.0
  C  C2889  1  0.365500  0.607600  0.029300  1.0
  C  C2890  1  0.607600  0.365500  0.470700  1.0
  C  C2891  1  0.575433  0.301167  0.695967  1.0
  C  C2892  1  0.725733  0.424567  0.695967  1.0
  C  C2893  1  0.698833  0.274267  0.695967  1.0
  C  C2894  1  0.940933  0.032167  0.137367  1.0
  C  C2895  1  0.908767  0.967833  0.362633  1.0
  C  C2896  1  0.274267  0.698833  0.804033  1.0
  C  C2897  1  0.365500  0.757900  0.529300  1.0
  C  C2898  1  0.242100  0.607600  0.529300  1.0
  C  C2899  1  0.940933  0.908767  0.637367  1.0
  C  C2900  1  0.967833  0.059067  0.637367  1.0
  C  C2901  1  0.698833  0.424567  0.195967  1.0
  C  C2902  1  0.575433  0.274267  0.195967  1.0
  C  C2903  1  0.032167  0.091233  0.862633  1.0
  C  C2904  1  0.908767  0.940933  0.862633  1.0
  C  C2905  1  0.757900  0.365500  0.970700  1.0
  C  C2906  1  0.607600  0.242100  0.970700  1.0
  C  C2907  1  0.634500  0.392400  0.970700  1.0
  C  C2908  1  0.392400  0.634500  0.529300  1.0
  C  C2909  1  0.424567  0.698833  0.304033  1.0
  C  C2910  1  0.274267  0.575433  0.304033  1.0
  C  C2911  1  0.301167  0.725733  0.304033  1.0
  C  C2912  1  0.059067  0.967833  0.862633  1.0
  C  C2913  1  0.091233  0.032167  0.637367  1.0
  C  C2914  1  0.725733  0.301167  0.195967  1.0
  C  C2915  1  0.634500  0.242100  0.470700  1.0
  C  C2916  1  0.757900  0.392400  0.470700  1.0
  C  C2917  1  0.059067  0.091233  0.362633  1.0
  C  C2918  1  0.032167  0.940933  0.362633  1.0
  C  C2919  1  0.301167  0.575433  0.804033  1.0
  C  C2920  1  0.424567  0.725733  0.804033  1.0
  C  C2921  1  0.967833  0.908767  0.137367  1.0
  C  C2922  1  0.091233  0.059067  0.137367  1.0
  C  C2923  1  0.974600  0.628300  0.994500  1.0
  C  C2924  1  0.653700  0.025400  0.994500  1.0
  C  C2925  1  0.371700  0.346300  0.994500  1.0
  C  C2926  1  0.346300  0.371700  0.505500  1.0
  C  C2927  1  0.307933  0.294967  0.661167  1.0
  C  C2928  1  0.987033  0.692067  0.661167  1.0
  C  C2929  1  0.705033  0.012967  0.661167  1.0
  C  C2930  1  0.679633  0.038367  0.172167  1.0
  C  C2931  1  0.641267  0.961633  0.327833  1.0
  C  C2932  1  0.012967  0.705033  0.838833  1.0
  C  C2933  1  0.371700  0.025400  0.494500  1.0
  C  C2934  1  0.974600  0.346300  0.494500  1.0
  C  C2935  1  0.679633  0.641267  0.672167  1.0
  C  C2936  1  0.961633  0.320367  0.672167  1.0
  C  C2937  1  0.705033  0.692067  0.161167  1.0
  C  C2938  1  0.307933  0.012967  0.161167  1.0
  C  C2939  1  0.038367  0.358733  0.827833  1.0
  C  C2940  1  0.641267  0.679633  0.827833  1.0
  C  C2941  1  0.025400  0.371700  0.005500  1.0
  C  C2942  1  0.346300  0.974600  0.005500  1.0
  C  C2943  1  0.628300  0.653700  0.005500  1.0
  C  C2944  1  0.653700  0.628300  0.494500  1.0
  C  C2945  1  0.692067  0.705033  0.338833  1.0
  C  C2946  1  0.012967  0.307933  0.338833  1.0
  C  C2947  1  0.294967  0.987033  0.338833  1.0
  C  C2948  1  0.320367  0.961633  0.827833  1.0
  C  C2949  1  0.358733  0.038367  0.672167  1.0
  C  C2950  1  0.987033  0.294967  0.161167  1.0
  C  C2951  1  0.628300  0.974600  0.505500  1.0
  C  C2952  1  0.025400  0.653700  0.505500  1.0
  C  C2953  1  0.320367  0.358733  0.327833  1.0
  C  C2954  1  0.038367  0.679633  0.327833  1.0
  C  C2955  1  0.294967  0.307933  0.838833  1.0
  C  C2956  1  0.692067  0.987033  0.838833  1.0
  C  C2957  1  0.961633  0.641267  0.172167  1.0
  C  C2958  1  0.358733  0.320367  0.172167  1.0
  C  C2959  1  0.017000  0.622300  0.000700  1.0
  C  C2960  1  0.605300  0.983000  0.000700  1.0
  C  C2961  1  0.377700  0.394700  0.000700  1.0
  C  C2962  1  0.394700  0.377700  0.499300  1.0
  C  C2963  1  0.350333  0.288967  0.667367  1.0
  C  C2964  1  0.938633  0.649667  0.667367  1.0
  C  C2965  1  0.711033  0.061367  0.667367  1.0
  C  C2966  1  0.728033  0.044367  0.165967  1.0
  C  C2967  1  0.683667  0.955633  0.334033  1.0
  C  C2968  1  0.061367  0.711033  0.832633  1.0
  C  C2969  1  0.377700  0.983000  0.500700  1.0
  C  C2970  1  0.017000  0.394700  0.500700  1.0
  C  C2971  1  0.728033  0.683667  0.665967  1.0
  C  C2972  1  0.955633  0.271967  0.665967  1.0
  C  C2973  1  0.711033  0.649667  0.167367  1.0
  C  C2974  1  0.350333  0.061367  0.167367  1.0
  C  C2975  1  0.044367  0.316333  0.834033  1.0
  C  C2976  1  0.683667  0.728033  0.834033  1.0
  C  C2977  1  0.983000  0.377700  0.999300  1.0
  C  C2978  1  0.394700  0.017000  0.999300  1.0
  C  C2979  1  0.622300  0.605300  0.999300  1.0
  C  C2980  1  0.605300  0.622300  0.500700  1.0
  C  C2981  1  0.649667  0.711033  0.332633  1.0
  C  C2982  1  0.061367  0.350333  0.332633  1.0
  C  C2983  1  0.288967  0.938633  0.332633  1.0
  C  C2984  1  0.271967  0.955633  0.834033  1.0
  C  C2985  1  0.316333  0.044367  0.665967  1.0
  C  C2986  1  0.938633  0.288967  0.167367  1.0
  C  C2987  1  0.622300  0.017000  0.499300  1.0
  C  C2988  1  0.983000  0.605300  0.499300  1.0
  C  C2989  1  0.271967  0.316333  0.334033  1.0
  C  C2990  1  0.044367  0.728033  0.334033  1.0
  C  C2991  1  0.288967  0.350333  0.832633  1.0
  C  C2992  1  0.649667  0.938633  0.832633  1.0
  C  C2993  1  0.955633  0.683667  0.165967  1.0
  C  C2994  1  0.316333  0.271967  0.165967  1.0
  C  C2995  1  0.054900  0.639000  0.983000  1.0
  C  C2996  1  0.584100  0.945100  0.983000  1.0
  C  C2997  1  0.361000  0.415900  0.983000  1.0
  C  C2998  1  0.415900  0.361000  0.517000  1.0
  C  C2999  1  0.388233  0.305667  0.649667  1.0
  C  C3000  1  0.917433  0.611767  0.649667  1.0
  C  C3001  1  0.694333  0.082567  0.649667  1.0
  C  C3002  1  0.749233  0.027667  0.183667  1.0
  C  C3003  1  0.721567  0.972333  0.316333  1.0
  C  C3004  1  0.082567  0.694333  0.850333  1.0
  C  C3005  1  0.361000  0.945100  0.483000  1.0
  C  C3006  1  0.054900  0.415900  0.483000  1.0
  C  C3007  1  0.749233  0.721567  0.683667  1.0
  C  C3008  1  0.972333  0.250767  0.683667  1.0
  C  C3009  1  0.694333  0.611767  0.149667  1.0
  C  C3010  1  0.388233  0.082567  0.149667  1.0
  C  C3011  1  0.027667  0.278433  0.816333  1.0
  C  C3012  1  0.721567  0.749233  0.816333  1.0
  C  C3013  1  0.945100  0.361000  0.017000  1.0
  C  C3014  1  0.415900  0.054900  0.017000  1.0
  C  C3015  1  0.639000  0.584100  0.017000  1.0
  C  C3016  1  0.584100  0.639000  0.483000  1.0
  C  C3017  1  0.611767  0.694333  0.350333  1.0
  C  C3018  1  0.082567  0.388233  0.350333  1.0
  C  C3019  1  0.305667  0.917433  0.350333  1.0
  C  C3020  1  0.250767  0.972333  0.816333  1.0
  C  C3021  1  0.278433  0.027667  0.683667  1.0
  C  C3022  1  0.917433  0.305667  0.149667  1.0
  C  C3023  1  0.639000  0.054900  0.517000  1.0
  C  C3024  1  0.945100  0.584100  0.517000  1.0
  C  C3025  1  0.250767  0.278433  0.316333  1.0
  C  C3026  1  0.027667  0.749233  0.316333  1.0
  C  C3027  1  0.305667  0.388233  0.850333  1.0
  C  C3028  1  0.611767  0.917433  0.850333  1.0
  C  C3029  1  0.972333  0.721567  0.183667  1.0
  C  C3030  1  0.278433  0.250767  0.183667  1.0
  C  C3031  1  0.102200  0.642200  0.988200  1.0
  C  C3032  1  0.540000  0.897800  0.988200  1.0
  C  C3033  1  0.357800  0.460000  0.988200  1.0
  C  C3034  1  0.460000  0.357800  0.511800  1.0
  C  C3035  1  0.435533  0.308867  0.654867  1.0
  C  C3036  1  0.873333  0.564467  0.654867  1.0
  C  C3037  1  0.691133  0.126667  0.654867  1.0
  C  C3038  1  0.793333  0.024467  0.178467  1.0
  C  C3039  1  0.768867  0.975533  0.321533  1.0
  C  C3040  1  0.126667  0.691133  0.845133  1.0
  C  C3041  1  0.357800  0.897800  0.488200  1.0
  C  C3042  1  0.102200  0.460000  0.488200  1.0
  C  C3043  1  0.793333  0.768867  0.678467  1.0
  C  C3044  1  0.975533  0.206667  0.678467  1.0
  C  C3045  1  0.691133  0.564467  0.154867  1.0
  C  C3046  1  0.435533  0.126667  0.154867  1.0
  C  C3047  1  0.024467  0.231133  0.821533  1.0
  C  C3048  1  0.768867  0.793333  0.821533  1.0
  C  C3049  1  0.897800  0.357800  0.011800  1.0
  C  C3050  1  0.460000  0.102200  0.011800  1.0
  C  C3051  1  0.642200  0.540000  0.011800  1.0
  C  C3052  1  0.540000  0.642200  0.488200  1.0
  C  C3053  1  0.564467  0.691133  0.345133  1.0
  C  C3054  1  0.126667  0.435533  0.345133  1.0
  C  C3055  1  0.308867  0.873333  0.345133  1.0
  C  C3056  1  0.206667  0.975533  0.821533  1.0
  C  C3057  1  0.231133  0.024467  0.678467  1.0
  C  C3058  1  0.873333  0.308867  0.154867  1.0
  C  C3059  1  0.642200  0.102200  0.511800  1.0
  C  C3060  1  0.897800  0.540000  0.511800  1.0
  C  C3061  1  0.206667  0.231133  0.321533  1.0
  C  C3062  1  0.024467  0.793333  0.321533  1.0
  C  C3063  1  0.308867  0.435533  0.845133  1.0
  C  C3064  1  0.564467  0.873333  0.845133  1.0
  C  C3065  1  0.975533  0.768867  0.178467  1.0
  C  C3066  1  0.231133  0.206667  0.178467  1.0
  C  C3067  1  0.279300  0.686000  0.993900  1.0
  C  C3068  1  0.406700  0.720700  0.993900  1.0
  C  C3069  1  0.314000  0.593300  0.993900  1.0
  C  C3070  1  0.593300  0.314000  0.506100  1.0
  C  C3071  1  0.612633  0.352667  0.660567  1.0
  C  C3072  1  0.740033  0.387367  0.660567  1.0
  C  C3073  1  0.647333  0.259967  0.660567  1.0
  C  C3074  1  0.926633  0.980667  0.172767  1.0
  C  C3075  1  0.945967  0.019333  0.327233  1.0
  C  C3076  1  0.259967  0.647333  0.839433  1.0
  C  C3077  1  0.314000  0.720700  0.493900  1.0
  C  C3078  1  0.279300  0.593300  0.493900  1.0
  C  C3079  1  0.926633  0.945967  0.672767  1.0
  C  C3080  1  0.019333  0.073367  0.672767  1.0
  C  C3081  1  0.647333  0.387367  0.160567  1.0
  C  C3082  1  0.612633  0.259967  0.160567  1.0
  C  C3083  1  0.980667  0.054033  0.827233  1.0
  C  C3084  1  0.945967  0.926633  0.827233  1.0
  C  C3085  1  0.720700  0.314000  0.006100  1.0
  C  C3086  1  0.593300  0.279300  0.006100  1.0
  C  C3087  1  0.686000  0.406700  0.006100  1.0
  C  C3088  1  0.406700  0.686000  0.493900  1.0
  C  C3089  1  0.387367  0.647333  0.339433  1.0
  C  C3090  1  0.259967  0.612633  0.339433  1.0
  C  C3091  1  0.352667  0.740033  0.339433  1.0
  C  C3092  1  0.073367  0.019333  0.827233  1.0
  C  C3093  1  0.054033  0.980667  0.672767  1.0
  C  C3094  1  0.740033  0.352667  0.160567  1.0
  C  C3095  1  0.686000  0.279300  0.506100  1.0
  C  C3096  1  0.720700  0.406700  0.506100  1.0
  C  C3097  1  0.073367  0.054033  0.327233  1.0
  C  C3098  1  0.980667  0.926633  0.327233  1.0
  C  C3099  1  0.352667  0.612633  0.839433  1.0
  C  C3100  1  0.387367  0.740033  0.839433  1.0
  C  C3101  1  0.019333  0.945967  0.172767  1.0
  C  C3102  1  0.054033  0.073367  0.172767  1.0
  C  C3103  1  0.235300  0.681200  0.985900  1.0
  C  C3104  1  0.445900  0.764700  0.985900  1.0
  C  C3105  1  0.318800  0.554100  0.985900  1.0
  C  C3106  1  0.554100  0.318800  0.514100  1.0
  C  C3107  1  0.568633  0.347867  0.652567  1.0
  C  C3108  1  0.779233  0.431367  0.652567  1.0
  C  C3109  1  0.652133  0.220767  0.652567  1.0
  C  C3110  1  0.887433  0.985467  0.180767  1.0
  C  C3111  1  0.901967  0.014533  0.319233  1.0
  C  C3112  1  0.220767  0.652133  0.847433  1.0
  C  C3113  1  0.318800  0.764700  0.485900  1.0
  C  C3114  1  0.235300  0.554100  0.485900  1.0
  C  C3115  1  0.887433  0.901967  0.680767  1.0
  C  C3116  1  0.014533  0.112567  0.680767  1.0
  C  C3117  1  0.652133  0.431367  0.152567  1.0
  C  C3118  1  0.568633  0.220767  0.152567  1.0
  C  C3119  1  0.985467  0.098033  0.819233  1.0
  C  C3120  1  0.901967  0.887433  0.819233  1.0
  C  C3121  1  0.764700  0.318800  0.014100  1.0
  C  C3122  1  0.554100  0.235300  0.014100  1.0
  C  C3123  1  0.681200  0.445900  0.014100  1.0
  C  C3124  1  0.445900  0.681200  0.485900  1.0
  C  C3125  1  0.431367  0.652133  0.347433  1.0
  C  C3126  1  0.220767  0.568633  0.347433  1.0
  C  C3127  1  0.347867  0.779233  0.347433  1.0
  C  C3128  1  0.112567  0.014533  0.819233  1.0
  C  C3129  1  0.098033  0.985467  0.680767  1.0
  C  C3130  1  0.779233  0.347867  0.152567  1.0
  C  C3131  1  0.681200  0.235300  0.514100  1.0
  C  C3132  1  0.764700  0.445900  0.514100  1.0
  C  C3133  1  0.112567  0.098033  0.319233  1.0
  C  C3134  1  0.985467  0.887433  0.319233  1.0
  C  C3135  1  0.347867  0.568633  0.847433  1.0
  C  C3136  1  0.431367  0.779233  0.847433  1.0
  C  C3137  1  0.014533  0.901967  0.180767  1.0
  C  C3138  1  0.098033  0.112567  0.180767  1.0
  C  C3139  1  0.193300  0.626700  0.020400  1.0
  C  C3140  1  0.433400  0.806700  0.020400  1.0
  C  C3141  1  0.373300  0.566600  0.020400  1.0
  C  C3142  1  0.566600  0.373300  0.479600  1.0
  C  C3143  1  0.526633  0.293367  0.687067  1.0
  C  C3144  1  0.766733  0.473367  0.687067  1.0
  C  C3145  1  0.706633  0.233267  0.687067  1.0
  C  C3146  1  0.899933  0.039967  0.146267  1.0
  C  C3147  1  0.859967  0.960033  0.353733  1.0
  C  C3148  1  0.233267  0.706633  0.812933  1.0
  C  C3149  1  0.373300  0.806700  0.520400  1.0
  C  C3150  1  0.193300  0.566600  0.520400  1.0
  C  C3151  1  0.899933  0.859967  0.646267  1.0
  C  C3152  1  0.960033  0.100067  0.646267  1.0
  C  C3153  1  0.706633  0.473367  0.187067  1.0
  C  C3154  1  0.526633  0.233267  0.187067  1.0
  C  C3155  1  0.039967  0.140033  0.853733  1.0
  C  C3156  1  0.859967  0.899933  0.853733  1.0
  C  C3157  1  0.806700  0.373300  0.979600  1.0
  C  C3158  1  0.566600  0.193300  0.979600  1.0
  C  C3159  1  0.626700  0.433400  0.979600  1.0
  C  C3160  1  0.433400  0.626700  0.520400  1.0
  C  C3161  1  0.473367  0.706633  0.312933  1.0
  C  C3162  1  0.233267  0.526633  0.312933  1.0
  C  C3163  1  0.293367  0.766733  0.312933  1.0
  C  C3164  1  0.100067  0.960033  0.853733  1.0
  C  C3165  1  0.140033  0.039967  0.646267  1.0
  C  C3166  1  0.766733  0.293367  0.187067  1.0
  C  C3167  1  0.626700  0.193300  0.479600  1.0
  C  C3168  1  0.806700  0.433400  0.479600  1.0
  C  C3169  1  0.100067  0.140033  0.353733  1.0
  C  C3170  1  0.039967  0.899933  0.353733  1.0
  C  C3171  1  0.293367  0.526633  0.812933  1.0
  C  C3172  1  0.473367  0.766733  0.812933  1.0
  C  C3173  1  0.960033  0.859967  0.146267  1.0
  C  C3174  1  0.140033  0.100067  0.146267  1.0
  C  C3175  1  0.044400  0.652900  0.959900  1.0
  C  C3176  1  0.608500  0.955600  0.959900  1.0
  C  C3177  1  0.347100  0.391500  0.959900  1.0
  C  C3178  1  0.391500  0.347100  0.540100  1.0
  C  C3179  1  0.377733  0.319567  0.626567  1.0
  C  C3180  1  0.941833  0.622267  0.626567  1.0
  C  C3181  1  0.680433  0.058167  0.626567  1.0
  C  C3182  1  0.724833  0.013767  0.206767  1.0
  C  C3183  1  0.711067  0.986233  0.293233  1.0
  C  C3184  1  0.058167  0.680433  0.873433  1.0
  C  C3185  1  0.347100  0.955600  0.459900  1.0
  C  C3186  1  0.044400  0.391500  0.459900  1.0
  C  C3187  1  0.724833  0.711067  0.706767  1.0
  C  C3188  1  0.986233  0.275167  0.706767  1.0
  C  C3189  1  0.680433  0.622267  0.126567  1.0
  C  C3190  1  0.377733  0.058167  0.126567  1.0
  C  C3191  1  0.013767  0.288933  0.793233  1.0
  C  C3192  1  0.711067  0.724833  0.793233  1.0
  C  C3193  1  0.955600  0.347100  0.040100  1.0
  C  C3194  1  0.391500  0.044400  0.040100  1.0
  C  C3195  1  0.652900  0.608500  0.040100  1.0
  C  C3196  1  0.608500  0.652900  0.459900  1.0
  C  C3197  1  0.622267  0.680433  0.373433  1.0
  C  C3198  1  0.058167  0.377733  0.373433  1.0
  C  C3199  1  0.319567  0.941833  0.373433  1.0
  C  C3200  1  0.275167  0.986233  0.793233  1.0
  C  C3201  1  0.288933  0.013767  0.706767  1.0
  C  C3202  1  0.941833  0.319567  0.126567  1.0
  C  C3203  1  0.652900  0.044400  0.540100  1.0
  C  C3204  1  0.955600  0.608500  0.540100  1.0
  C  C3205  1  0.275167  0.288933  0.293233  1.0
  C  C3206  1  0.013767  0.724833  0.293233  1.0
  C  C3207  1  0.319567  0.377733  0.873433  1.0
  C  C3208  1  0.622267  0.941833  0.873433  1.0
  C  C3209  1  0.986233  0.711067  0.206767  1.0
  C  C3210  1  0.288933  0.275167  0.206767  1.0
  C  C3211  1  0.998400  0.651900  0.957200  1.0
  C  C3212  1  0.653500  0.001600  0.957200  1.0
  C  C3213  1  0.348100  0.346500  0.957200  1.0
  C  C3214  1  0.346500  0.348100  0.542800  1.0
  C  C3215  1  0.331733  0.318567  0.623867  1.0
  C  C3216  1  0.986833  0.668267  0.623867  1.0
  C  C3217  1  0.681433  0.013167  0.623867  1.0
  C  C3218  1  0.679833  0.014767  0.209467  1.0
  C  C3219  1  0.665067  0.985233  0.290533  1.0
  C  C3220  1  0.013167  0.681433  0.876133  1.0
  C  C3221  1  0.348100  0.001600  0.457200  1.0
  C  C3222  1  0.998400  0.346500  0.457200  1.0
  C  C3223  1  0.679833  0.665067  0.709467  1.0
  C  C3224  1  0.985233  0.320167  0.709467  1.0
  C  C3225  1  0.681433  0.668267  0.123867  1.0
  C  C3226  1  0.331733  0.013167  0.123867  1.0
  C  C3227  1  0.014767  0.334933  0.790533  1.0
  C  C3228  1  0.665067  0.679833  0.790533  1.0
  C  C3229  1  0.001600  0.348100  0.042800  1.0
  C  C3230  1  0.346500  0.998400  0.042800  1.0
  C  C3231  1  0.651900  0.653500  0.042800  1.0
  C  C3232  1  0.653500  0.651900  0.457200  1.0
  C  C3233  1  0.668267  0.681433  0.376133  1.0
  C  C3234  1  0.013167  0.331733  0.376133  1.0
  C  C3235  1  0.318567  0.986833  0.376133  1.0
  C  C3236  1  0.320167  0.985233  0.790533  1.0
  C  C3237  1  0.334933  0.014767  0.709467  1.0
  C  C3238  1  0.986833  0.318567  0.123867  1.0
  C  C3239  1  0.651900  0.998400  0.542800  1.0
  C  C3240  1  0.001600  0.653500  0.542800  1.0
  C  C3241  1  0.320167  0.334933  0.290533  1.0
  C  C3242  1  0.014767  0.679833  0.290533  1.0
  C  C3243  1  0.318567  0.331733  0.876133  1.0
  C  C3244  1  0.668267  0.986833  0.876133  1.0
  C  C3245  1  0.985233  0.665067  0.209467  1.0
  C  C3246  1  0.334933  0.320167  0.209467  1.0
  C  C3247  1  0.819500  0.660000  0.939800  1.0
  C  C3248  1  0.840500  0.180500  0.939800  1.0
  C  C3249  1  0.340000  0.159500  0.939800  1.0
  C  C3250  1  0.159500  0.340000  0.560200  1.0
  C  C3251  1  0.152833  0.326667  0.606467  1.0
  C  C3252  1  0.173833  0.847167  0.606467  1.0
  C  C3253  1  0.673333  0.826167  0.606467  1.0
  C  C3254  1  0.492833  0.006667  0.226867  1.0
  C  C3255  1  0.486167  0.993333  0.273133  1.0
  C  C3256  1  0.826167  0.673333  0.893533  1.0
  C  C3257  1  0.340000  0.180500  0.439800  1.0
  C  C3258  1  0.819500  0.159500  0.439800  1.0
  C  C3259  1  0.492833  0.486167  0.726867  1.0
  C  C3260  1  0.993333  0.507167  0.726867  1.0
  C  C3261  1  0.673333  0.847167  0.106467  1.0
  C  C3262  1  0.152833  0.826167  0.106467  1.0
  C  C3263  1  0.006667  0.513833  0.773133  1.0
  C  C3264  1  0.486167  0.492833  0.773133  1.0
  C  C3265  1  0.180500  0.340000  0.060200  1.0
  C  C3266  1  0.159500  0.819500  0.060200  1.0
  C  C3267  1  0.660000  0.840500  0.060200  1.0
  C  C3268  1  0.840500  0.660000  0.439800  1.0
  C  C3269  1  0.847167  0.673333  0.393533  1.0
  C  C3270  1  0.826167  0.152833  0.393533  1.0
  C  C3271  1  0.326667  0.173833  0.393533  1.0
  C  C3272  1  0.507167  0.993333  0.773133  1.0
  C  C3273  1  0.513833  0.006667  0.726867  1.0
  C  C3274  1  0.173833  0.326667  0.106467  1.0
  C  C3275  1  0.660000  0.819500  0.560200  1.0
  C  C3276  1  0.180500  0.840500  0.560200  1.0
  C  C3277  1  0.507167  0.513833  0.273133  1.0
  C  C3278  1  0.006667  0.492833  0.273133  1.0
  C  C3279  1  0.326667  0.152833  0.893533  1.0
  C  C3280  1  0.847167  0.173833  0.893533  1.0
  C  C3281  1  0.993333  0.486167  0.226867  1.0
  C  C3282  1  0.513833  0.507167  0.226867  1.0
  C  C3283  1  0.771900  0.658000  0.939000  1.0
  C  C3284  1  0.886100  0.228100  0.939000  1.0
  C  C3285  1  0.342000  0.113900  0.939000  1.0
  C  C3286  1  0.113900  0.342000  0.561000  1.0
  C  C3287  1  0.105233  0.324667  0.605667  1.0
  C  C3288  1  0.219433  0.894767  0.605667  1.0
  C  C3289  1  0.675333  0.780567  0.605667  1.0
  C  C3290  1  0.447233  0.008667  0.227667  1.0
  C  C3291  1  0.438567  0.991333  0.272333  1.0
  C  C3292  1  0.780567  0.675333  0.894333  1.0
  C  C3293  1  0.342000  0.228100  0.439000  1.0
  C  C3294  1  0.771900  0.113900  0.439000  1.0
  C  C3295  1  0.447233  0.438567  0.727667  1.0
  C  C3296  1  0.991333  0.552767  0.727667  1.0
  C  C3297  1  0.675333  0.894767  0.105667  1.0
  C  C3298  1  0.105233  0.780567  0.105667  1.0
  C  C3299  1  0.008667  0.561433  0.772333  1.0
  C  C3300  1  0.438567  0.447233  0.772333  1.0
  C  C3301  1  0.228100  0.342000  0.061000  1.0
  C  C3302  1  0.113900  0.771900  0.061000  1.0
  C  C3303  1  0.658000  0.886100  0.061000  1.0
  C  C3304  1  0.886100  0.658000  0.439000  1.0
  C  C3305  1  0.894767  0.675333  0.394333  1.0
  C  C3306  1  0.780567  0.105233  0.394333  1.0
  C  C3307  1  0.324667  0.219433  0.394333  1.0
  C  C3308  1  0.552767  0.991333  0.772333  1.0
  C  C3309  1  0.561433  0.008667  0.727667  1.0
  C  C3310  1  0.219433  0.324667  0.105667  1.0
  C  C3311  1  0.658000  0.771900  0.561000  1.0
  C  C3312  1  0.228100  0.886100  0.561000  1.0
  C  C3313  1  0.552767  0.561433  0.272333  1.0
  C  C3314  1  0.008667  0.447233  0.272333  1.0
  C  C3315  1  0.324667  0.105233  0.894333  1.0
  C  C3316  1  0.894767  0.219433  0.894333  1.0
  C  C3317  1  0.991333  0.438567  0.227667  1.0
  C  C3318  1  0.561433  0.552767  0.227667  1.0
  C  C3319  1  0.806000  0.642700  0.984500  1.0
  C  C3320  1  0.836700  0.194000  0.984500  1.0
  C  C3321  1  0.357300  0.163300  0.984500  1.0
  C  C3322  1  0.163300  0.357300  0.515500  1.0
  C  C3323  1  0.139333  0.309367  0.651167  1.0
  C  C3324  1  0.170033  0.860667  0.651167  1.0
  C  C3325  1  0.690633  0.829967  0.651167  1.0
  C  C3326  1  0.496633  0.023967  0.182167  1.0
  C  C3327  1  0.472667  0.976033  0.317833  1.0
  C  C3328  1  0.829967  0.690633  0.848833  1.0
  C  C3329  1  0.357300  0.194000  0.484500  1.0
  C  C3330  1  0.806000  0.163300  0.484500  1.0
  C  C3331  1  0.496633  0.472667  0.682167  1.0
  C  C3332  1  0.976033  0.503367  0.682167  1.0
  C  C3333  1  0.690633  0.860667  0.151167  1.0
  C  C3334  1  0.139333  0.829967  0.151167  1.0
  C  C3335  1  0.023967  0.527333  0.817833  1.0
  C  C3336  1  0.472667  0.496633  0.817833  1.0
  C  C3337  1  0.194000  0.357300  0.015500  1.0
  C  C3338  1  0.163300  0.806000  0.015500  1.0
  C  C3339  1  0.642700  0.836700  0.015500  1.0
  C  C3340  1  0.836700  0.642700  0.484500  1.0
  C  C3341  1  0.860667  0.690633  0.348833  1.0
  C  C3342  1  0.829967  0.139333  0.348833  1.0
  C  C3343  1  0.309367  0.170033  0.348833  1.0
  C  C3344  1  0.503367  0.976033  0.817833  1.0
  C  C3345  1  0.527333  0.023967  0.682167  1.0
  C  C3346  1  0.170033  0.309367  0.151167  1.0
  C  C3347  1  0.642700  0.806000  0.515500  1.0
  C  C3348  1  0.194000  0.836700  0.515500  1.0
  C  C3349  1  0.503367  0.527333  0.317833  1.0
  C  C3350  1  0.023967  0.496633  0.317833  1.0
  C  C3351  1  0.309367  0.139333  0.848833  1.0
  C  C3352  1  0.860667  0.170033  0.848833  1.0
  C  C3353  1  0.976033  0.472667  0.182167  1.0
  C  C3354  1  0.527333  0.503367  0.182167  1.0
  C  C3355  1  0.836900  0.651200  0.963000  1.0
  C  C3356  1  0.814300  0.163100  0.963000  1.0
  C  C3357  1  0.348800  0.185700  0.963000  1.0
  C  C3358  1  0.185700  0.348800  0.537000  1.0
  C  C3359  1  0.170233  0.317867  0.629667  1.0
  C  C3360  1  0.147633  0.829767  0.629667  1.0
  C  C3361  1  0.682133  0.852367  0.629667  1.0
  C  C3362  1  0.519033  0.015467  0.203667  1.0
  C  C3363  1  0.503567  0.984533  0.296333  1.0
  C  C3364  1  0.852367  0.682133  0.870333  1.0
  C  C3365  1  0.348800  0.163100  0.463000  1.0
  C  C3366  1  0.836900  0.185700  0.463000  1.0
  C  C3367  1  0.519033  0.503567  0.703667  1.0
  C  C3368  1  0.984533  0.480967  0.703667  1.0
  C  C3369  1  0.682133  0.829767  0.129667  1.0
  C  C3370  1  0.170233  0.852367  0.129667  1.0
  C  C3371  1  0.015467  0.496433  0.796333  1.0
  C  C3372  1  0.503567  0.519033  0.796333  1.0
  C  C3373  1  0.163100  0.348800  0.037000  1.0
  C  C3374  1  0.185700  0.836900  0.037000  1.0
  C  C3375  1  0.651200  0.814300  0.037000  1.0
  C  C3376  1  0.814300  0.651200  0.463000  1.0
  C  C3377  1  0.829767  0.682133  0.370333  1.0
  C  C3378  1  0.852367  0.170233  0.370333  1.0
  C  C3379  1  0.317867  0.147633  0.370333  1.0
  C  C3380  1  0.480967  0.984533  0.796333  1.0
  C  C3381  1  0.496433  0.015467  0.703667  1.0
  C  C3382  1  0.147633  0.317867  0.129667  1.0
  C  C3383  1  0.651200  0.836900  0.537000  1.0
  C  C3384  1  0.163100  0.814300  0.537000  1.0
  C  C3385  1  0.480967  0.496433  0.296333  1.0
  C  C3386  1  0.015467  0.519033  0.296333  1.0
  C  C3387  1  0.317867  0.170233  0.870333  1.0
  C  C3388  1  0.829767  0.147633  0.870333  1.0
  C  C3389  1  0.984533  0.503567  0.203667  1.0
  C  C3390  1  0.496433  0.480967  0.203667  1.0
  C  C3391  1  0.918300  0.769600  0.965700  1.0
  C  C3392  1  0.851300  0.081700  0.965700  1.0
  C  C3393  1  0.230400  0.148700  0.965700  1.0
  C  C3394  1  0.148700  0.230400  0.534300  1.0
  C  C3395  1  0.251633  0.436267  0.632367  1.0
  C  C3396  1  0.184633  0.748367  0.632367  1.0
  C  C3397  1  0.563733  0.815367  0.632367  1.0
  C  C3398  1  0.482033  0.897067  0.200967  1.0
  C  C3399  1  0.584967  0.102933  0.299033  1.0
  C  C3400  1  0.815367  0.563733  0.867633  1.0
  C  C3401  1  0.230400  0.081700  0.465700  1.0
  C  C3402  1  0.918300  0.148700  0.465700  1.0
  C  C3403  1  0.482033  0.584967  0.700967  1.0
  C  C3404  1  0.102933  0.517967  0.700967  1.0
  C  C3405  1  0.563733  0.748367  0.132367  1.0
  C  C3406  1  0.251633  0.815367  0.132367  1.0
  C  C3407  1  0.897067  0.415033  0.799033  1.0
  C  C3408  1  0.584967  0.482033  0.799033  1.0
  C  C3409  1  0.081700  0.230400  0.034300  1.0
  C  C3410  1  0.148700  0.918300  0.034300  1.0
  C  C3411  1  0.769600  0.851300  0.034300  1.0
  C  C3412  1  0.851300  0.769600  0.465700  1.0
  C  C3413  1  0.748367  0.563733  0.367633  1.0
  C  C3414  1  0.815367  0.251633  0.367633  1.0
  C  C3415  1  0.436267  0.184633  0.367633  1.0
  C  C3416  1  0.517967  0.102933  0.799033  1.0
  C  C3417  1  0.415033  0.897067  0.700967  1.0
  C  C3418  1  0.184633  0.436267  0.132367  1.0
  C  C3419  1  0.769600  0.918300  0.534300  1.0
  C  C3420  1  0.081700  0.851300  0.534300  1.0
  C  C3421  1  0.517967  0.415033  0.299033  1.0
  C  C3422  1  0.897067  0.482033  0.299033  1.0
  C  C3423  1  0.436267  0.251633  0.867633  1.0
  C  C3424  1  0.748367  0.184633  0.867633  1.0
  C  C3425  1  0.102933  0.584967  0.200967  1.0
  C  C3426  1  0.415033  0.517967  0.200967  1.0
  C  C3427  1  0.746900  0.654200  0.960800  1.0
  C  C3428  1  0.907300  0.253100  0.960800  1.0
  C  C3429  1  0.345800  0.092700  0.960800  1.0
  C  C3430  1  0.092700  0.345800  0.539200  1.0
  C  C3431  1  0.080233  0.320867  0.627467  1.0
  C  C3432  1  0.240633  0.919767  0.627467  1.0
  C  C3433  1  0.679133  0.759367  0.627467  1.0
  C  C3434  1  0.426033  0.012467  0.205867  1.0
  C  C3435  1  0.413567  0.987533  0.294133  1.0
  C  C3436  1  0.759367  0.679133  0.872533  1.0
  C  C3437  1  0.345800  0.253100  0.460800  1.0
  C  C3438  1  0.746900  0.092700  0.460800  1.0
  C  C3439  1  0.426033  0.413567  0.705867  1.0
  C  C3440  1  0.987533  0.573967  0.705867  1.0
  C  C3441  1  0.679133  0.919767  0.127467  1.0
  C  C3442  1  0.080233  0.759367  0.127467  1.0
  C  C3443  1  0.012467  0.586433  0.794133  1.0
  C  C3444  1  0.413567  0.426033  0.794133  1.0
  C  C3445  1  0.253100  0.345800  0.039200  1.0
  C  C3446  1  0.092700  0.746900  0.039200  1.0
  C  C3447  1  0.654200  0.907300  0.039200  1.0
  C  C3448  1  0.907300  0.654200  0.460800  1.0
  C  C3449  1  0.919767  0.679133  0.372533  1.0
  C  C3450  1  0.759367  0.080233  0.372533  1.0
  C  C3451  1  0.320867  0.240633  0.372533  1.0
  C  C3452  1  0.573967  0.987533  0.794133  1.0
  C  C3453  1  0.586433  0.012467  0.705867  1.0
  C  C3454  1  0.240633  0.320867  0.127467  1.0
  C  C3455  1  0.654200  0.746900  0.539200  1.0
  C  C3456  1  0.253100  0.907300  0.539200  1.0
  C  C3457  1  0.573967  0.586433  0.294133  1.0
  C  C3458  1  0.012467  0.426033  0.294133  1.0
  C  C3459  1  0.320867  0.080233  0.872533  1.0
  C  C3460  1  0.919767  0.240633  0.872533  1.0
  C  C3461  1  0.987533  0.413567  0.205867  1.0
  C  C3462  1  0.586433  0.573967  0.205867  1.0
  C  C3463  1  0.760500  0.643200  0.985700  1.0
  C  C3464  1  0.882700  0.239500  0.985700  1.0
  C  C3465  1  0.356800  0.117300  0.985700  1.0
  C  C3466  1  0.117300  0.356800  0.514300  1.0
  C  C3467  1  0.093833  0.309867  0.652367  1.0
  C  C3468  1  0.216033  0.906167  0.652367  1.0
  C  C3469  1  0.690133  0.783967  0.652367  1.0
  C  C3470  1  0.450633  0.023467  0.180967  1.0
  C  C3471  1  0.427167  0.976533  0.319033  1.0
  C  C3472  1  0.783967  0.690133  0.847633  1.0
  C  C3473  1  0.356800  0.239500  0.485700  1.0
  C  C3474  1  0.760500  0.117300  0.485700  1.0
  C  C3475  1  0.450633  0.427167  0.680967  1.0
  C  C3476  1  0.976533  0.549367  0.680967  1.0
  C  C3477  1  0.690133  0.906167  0.152367  1.0
  C  C3478  1  0.093833  0.783967  0.152367  1.0
  C  C3479  1  0.023467  0.572833  0.819033  1.0
  C  C3480  1  0.427167  0.450633  0.819033  1.0
  C  C3481  1  0.239500  0.356800  0.014300  1.0
  C  C3482  1  0.117300  0.760500  0.014300  1.0
  C  C3483  1  0.643200  0.882700  0.014300  1.0
  C  C3484  1  0.882700  0.643200  0.485700  1.0
  C  C3485  1  0.906167  0.690133  0.347633  1.0
  C  C3486  1  0.783967  0.093833  0.347633  1.0
  C  C3487  1  0.309867  0.216033  0.347633  1.0
  C  C3488  1  0.549367  0.976533  0.819033  1.0
  C  C3489  1  0.572833  0.023467  0.680967  1.0
  C  C3490  1  0.216033  0.309867  0.152367  1.0
  C  C3491  1  0.643200  0.760500  0.514300  1.0
  C  C3492  1  0.239500  0.882700  0.514300  1.0
  C  C3493  1  0.549367  0.572833  0.319033  1.0
  C  C3494  1  0.023467  0.450633  0.319033  1.0
  C  C3495  1  0.309867  0.093833  0.847633  1.0
  C  C3496  1  0.906167  0.216033  0.847633  1.0
  C  C3497  1  0.976533  0.427167  0.180967  1.0
  C  C3498  1  0.572833  0.549367  0.180967  1.0
  C  C3499  1  0.797400  0.545400  0.939100  1.0
  C  C3500  1  0.748000  0.202600  0.939100  1.0
  C  C3501  1  0.454600  0.252000  0.939100  1.0
  C  C3502  1  0.252000  0.454600  0.560900  1.0
  C  C3503  1  0.130733  0.212067  0.605767  1.0
  C  C3504  1  0.081333  0.869267  0.605767  1.0
  C  C3505  1  0.787933  0.918667  0.605767  1.0
  C  C3506  1  0.585333  0.121267  0.227567  1.0
  C  C3507  1  0.464067  0.878733  0.272433  1.0
  C  C3508  1  0.918667  0.787933  0.894233  1.0
  C  C3509  1  0.454600  0.202600  0.439100  1.0
  C  C3510  1  0.797400  0.252000  0.439100  1.0
  C  C3511  1  0.585333  0.464067  0.727567  1.0
  C  C3512  1  0.878733  0.414667  0.727567  1.0
  C  C3513  1  0.787933  0.869267  0.105767  1.0
  C  C3514  1  0.130733  0.918667  0.105767  1.0
  C  C3515  1  0.121267  0.535933  0.772433  1.0
  C  C3516  1  0.464067  0.585333  0.772433  1.0
  C  C3517  1  0.202600  0.454600  0.060900  1.0
  C  C3518  1  0.252000  0.797400  0.060900  1.0
  C  C3519  1  0.545400  0.748000  0.060900  1.0
  C  C3520  1  0.748000  0.545400  0.439100  1.0
  C  C3521  1  0.869267  0.787933  0.394233  1.0
  C  C3522  1  0.918667  0.130733  0.394233  1.0
  C  C3523  1  0.212067  0.081333  0.394233  1.0
  C  C3524  1  0.414667  0.878733  0.772433  1.0
  C  C3525  1  0.535933  0.121267  0.727567  1.0
  C  C3526  1  0.081333  0.212067  0.105767  1.0
  C  C3527  1  0.545400  0.797400  0.560900  1.0
  C  C3528  1  0.202600  0.748000  0.560900  1.0
  C  C3529  1  0.414667  0.535933  0.272433  1.0
  C  C3530  1  0.121267  0.585333  0.272433  1.0
  C  C3531  1  0.212067  0.130733  0.894233  1.0
  C  C3532  1  0.869267  0.081333  0.894233  1.0
  C  C3533  1  0.878733  0.464067  0.227567  1.0
  C  C3534  1  0.535933  0.414667  0.227567  1.0
  C  C3535  1  0.039000  0.749000  0.003000  1.0
  C  C3536  1  0.710000  0.961000  0.003000  1.0
  C  C3537  1  0.251000  0.290000  0.003000  1.0
  C  C3538  1  0.290000  0.251000  0.497000  1.0
  C  C3539  1  0.372333  0.415667  0.669667  1.0
  C  C3540  1  0.043333  0.627667  0.669667  1.0
  C  C3541  1  0.584333  0.956667  0.669667  1.0
  C  C3542  1  0.623333  0.917667  0.163667  1.0
  C  C3543  1  0.705667  0.082333  0.336333  1.0
  C  C3544  1  0.956667  0.584333  0.830333  1.0
  C  C3545  1  0.251000  0.961000  0.503000  1.0
  C  C3546  1  0.039000  0.290000  0.503000  1.0
  C  C3547  1  0.623333  0.705667  0.663667  1.0
  C  C3548  1  0.082333  0.376667  0.663667  1.0
  C  C3549  1  0.584333  0.627667  0.169667  1.0
  C  C3550  1  0.372333  0.956667  0.169667  1.0
  C  C3551  1  0.917667  0.294333  0.836333  1.0
  C  C3552  1  0.705667  0.623333  0.836333  1.0
  C  C3553  1  0.961000  0.251000  0.997000  1.0
  C  C3554  1  0.290000  0.039000  0.997000  1.0
  C  C3555  1  0.749000  0.710000  0.997000  1.0
  C  C3556  1  0.710000  0.749000  0.503000  1.0
  C  C3557  1  0.627667  0.584333  0.330333  1.0
  C  C3558  1  0.956667  0.372333  0.330333  1.0
  C  C3559  1  0.415667  0.043333  0.330333  1.0
  C  C3560  1  0.376667  0.082333  0.836333  1.0
  C  C3561  1  0.294333  0.917667  0.663667  1.0
  C  C3562  1  0.043333  0.415667  0.169667  1.0
  C  C3563  1  0.749000  0.039000  0.497000  1.0
  C  C3564  1  0.961000  0.710000  0.497000  1.0
  C  C3565  1  0.376667  0.294333  0.336333  1.0
  C  C3566  1  0.917667  0.623333  0.336333  1.0
  C  C3567  1  0.415667  0.372333  0.830333  1.0
  C  C3568  1  0.627667  0.043333  0.830333  1.0
  C  C3569  1  0.082333  0.705667  0.163667  1.0
  C  C3570  1  0.294333  0.376667  0.163667  1.0
  C  C3571  1  0.865000  0.479000  0.949000  1.0
  C  C3572  1  0.614000  0.135000  0.949000  1.0
  C  C3573  1  0.521000  0.386000  0.949000  1.0
  C  C3574  1  0.386000  0.521000  0.551000  1.0
  C  C3575  1  0.198333  0.145667  0.615667  1.0
  C  C3576  1  0.947333  0.801667  0.615667  1.0
  C  C3577  1  0.854333  0.052667  0.615667  1.0
  C  C3578  1  0.719333  0.187667  0.217667  1.0
  C  C3579  1  0.531667  0.812333  0.282333  1.0
  C  C3580  1  0.052667  0.854333  0.884333  1.0
  C  C3581  1  0.521000  0.135000  0.449000  1.0
  C  C3582  1  0.865000  0.386000  0.449000  1.0
  C  C3583  1  0.719333  0.531667  0.717667  1.0
  C  C3584  1  0.812333  0.280667  0.717667  1.0
  C  C3585  1  0.854333  0.801667  0.115667  1.0
  C  C3586  1  0.198333  0.052667  0.115667  1.0
  C  C3587  1  0.187667  0.468333  0.782333  1.0
  C  C3588  1  0.531667  0.719333  0.782333  1.0
  C  C3589  1  0.135000  0.521000  0.051000  1.0
  C  C3590  1  0.386000  0.865000  0.051000  1.0
  C  C3591  1  0.479000  0.614000  0.051000  1.0
  C  C3592  1  0.614000  0.479000  0.449000  1.0
  C  C3593  1  0.801667  0.854333  0.384333  1.0
  C  C3594  1  0.052667  0.198333  0.384333  1.0
  C  C3595  1  0.145667  0.947333  0.384333  1.0
  C  C3596  1  0.280667  0.812333  0.782333  1.0
  C  C3597  1  0.468333  0.187667  0.717667  1.0
  C  C3598  1  0.947333  0.145667  0.115667  1.0
  C  C3599  1  0.479000  0.865000  0.551000  1.0
  C  C3600  1  0.135000  0.614000  0.551000  1.0
  C  C3601  1  0.280667  0.468333  0.282333  1.0
  C  C3602  1  0.187667  0.719333  0.282333  1.0
  C  C3603  1  0.145667  0.198333  0.884333  1.0
  C  C3604  1  0.801667  0.947333  0.884333  1.0
  C  C3605  1  0.812333  0.531667  0.217667  1.0
  C  C3606  1  0.468333  0.280667  0.217667  1.0
  N  N3607  1  0.965700  0.640300  0.975400  1.0
  N  N3608  1  0.674600  0.034300  0.975400  1.0
  N  N3609  1  0.359700  0.325400  0.975400  1.0
  N  N3610  1  0.325400  0.359700  0.524600  1.0
  N  N3611  1  0.299033  0.306967  0.642067  1.0
  N  N3612  1  0.007933  0.700967  0.642067  1.0
  N  N3613  1  0.693033  0.992067  0.642067  1.0
  N  N3614  1  0.658733  0.026367  0.191267  1.0
  N  N3615  1  0.632367  0.973633  0.308733  1.0
  N  N3616  1  0.992067  0.693033  0.857933  1.0
  N  N3617  1  0.359700  0.034300  0.475400  1.0
  N  N3618  1  0.965700  0.325400  0.475400  1.0
  N  N3619  1  0.658733  0.632367  0.691267  1.0
  N  N3620  1  0.973633  0.341267  0.691267  1.0
  N  N3621  1  0.693033  0.700967  0.142067  1.0
  N  N3622  1  0.299033  0.992067  0.142067  1.0
  N  N3623  1  0.026367  0.367633  0.808733  1.0
  N  N3624  1  0.632367  0.658733  0.808733  1.0
  N  N3625  1  0.034300  0.359700  0.024600  1.0
  N  N3626  1  0.325400  0.965700  0.024600  1.0
  N  N3627  1  0.640300  0.674600  0.024600  1.0
  N  N3628  1  0.674600  0.640300  0.475400  1.0
  N  N3629  1  0.700967  0.693033  0.357933  1.0
  N  N3630  1  0.992067  0.299033  0.357933  1.0
  N  N3631  1  0.306967  0.007933  0.357933  1.0
  N  N3632  1  0.341267  0.973633  0.808733  1.0
  N  N3633  1  0.367633  0.026367  0.691267  1.0
  N  N3634  1  0.007933  0.306967  0.142067  1.0
  N  N3635  1  0.640300  0.965700  0.524600  1.0
  N  N3636  1  0.034300  0.674600  0.524600  1.0
  N  N3637  1  0.341267  0.367633  0.308733  1.0
  N  N3638  1  0.026367  0.658733  0.308733  1.0
  N  N3639  1  0.306967  0.299033  0.857933  1.0
  N  N3640  1  0.700967  0.007933  0.857933  1.0
  N  N3641  1  0.973633  0.632367  0.191267  1.0
  N  N3642  1  0.367633  0.341267  0.191267  1.0
  F  F3643  1  0.890000  0.608000  0.075800  1
  F  F3644  1  0.718000  0.110000  0.075800  1
  F  F3645  1  0.392000  0.282000  0.075800  1
  F  F3646  1  0.282000  0.392000  0.424200  1
  F  F3647  1  0.223333  0.274667  0.742467  1
  F  F3648  1  0.051333  0.776667  0.742467  1
  F  F3649  1  0.725333  0.948667  0.742467  1
  F  F3650  1  0.615333  0.058667  0.090867  1
  F  F3651  1  0.556667  0.941333  0.409133  1
  F  F3652  1  0.948667  0.725333  0.757533  1
  F  F3653  1  0.392000  0.110000  0.575800  1
  F  F3654  1  0.890000  0.282000  0.575800  1
  F  F3655  1  0.615333  0.556667  0.590867  1
  F  F3656  1  0.941333  0.384667  0.590867  1
  F  F3657  1  0.725333  0.776667  0.242467  1
  F  F3658  1  0.223333  0.948667  0.242467  1
  F  F3659  1  0.058667  0.443333  0.909133  1
  F  F3660  1  0.556667  0.615333  0.909133  1
  F  F3661  1  0.110000  0.392000  0.924200  1
  F  F3662  1  0.282000  0.890000  0.924200  1
  F  F3663  1  0.608000  0.718000  0.924200  1
  F  F3664  1  0.718000  0.608000  0.575800  1
  F  F3665  1  0.776667  0.725333  0.257533  1
  F  F3666  1  0.948667  0.223333  0.257533  1
  F  F3667  1  0.274667  0.051333  0.257533  1
  F  F3668  1  0.384667  0.941333  0.909133  1
  F  F3669  1  0.443333  0.058667  0.590867  1
  F  F3670  1  0.051333  0.274667  0.242467  1
  F  F3671  1  0.608000  0.890000  0.424200  1
  F  F3672  1  0.110000  0.718000  0.424200  1
  F  F3673  1  0.384667  0.443333  0.409133  1
  F  F3674  1  0.058667  0.615333  0.409133  1
  F  F3675  1  0.274667  0.223333  0.757533  1
  F  F3676  1  0.776667  0.051333  0.757533  1
  F  F3677  1  0.941333  0.556667  0.090867  1
  F  F3678  1  0.443333  0.384667  0.090867  1
  F  F3679  1  0.911000  0.660000  0.066400  1
  F  F3680  1  0.749000  0.089000  0.066400  1
  F  F3681  1  0.340000  0.251000  0.066400  1
  F  F3682  1  0.251000  0.340000  0.433600  1
  F  F3683  1  0.244333  0.326667  0.733067  1
  F  F3684  1  0.082333  0.755667  0.733067  1
  F  F3685  1  0.673333  0.917667  0.733067  1
  F  F3686  1  0.584333  0.006667  0.100267  1
  F  F3687  1  0.577667  0.993333  0.399733  1
  F  F3688  1  0.917667  0.673333  0.766933  1
  F  F3689  1  0.340000  0.089000  0.566400  1
  F  F3690  1  0.911000  0.251000  0.566400  1
  F  F3691  1  0.584333  0.577667  0.600267  1
  F  F3692  1  0.993333  0.415667  0.600267  1
  F  F3693  1  0.673333  0.755667  0.233067  1
  F  F3694  1  0.244333  0.917667  0.233067  1
  F  F3695  1  0.006667  0.422333  0.899733  1
  F  F3696  1  0.577667  0.584333  0.899733  1
  F  F3697  1  0.089000  0.340000  0.933600  1
  F  F3698  1  0.251000  0.911000  0.933600  1
  F  F3699  1  0.660000  0.749000  0.933600  1
  F  F3700  1  0.749000  0.660000  0.566400  1
  F  F3701  1  0.755667  0.673333  0.266933  1
  F  F3702  1  0.917667  0.244333  0.266933  1
  F  F3703  1  0.326667  0.082333  0.266933  1
  F  F3704  1  0.415667  0.993333  0.899733  1
  F  F3705  1  0.422333  0.006667  0.600267  1
  F  F3706  1  0.082333  0.326667  0.233067  1
  F  F3707  1  0.660000  0.911000  0.433600  1
  F  F3708  1  0.089000  0.749000  0.433600  1
  F  F3709  1  0.415667  0.422333  0.399733  1
  F  F3710  1  0.006667  0.584333  0.399733  1
  F  F3711  1  0.326667  0.244333  0.766933  1
  F  F3712  1  0.755667  0.082333  0.766933  1
  F  F3713  1  0.993333  0.577667  0.100267  1
  F  F3714  1  0.422333  0.415667  0.100267  1
  F  F3715  1  0.974200  0.651300  0.062400  1.0
  F  F3716  1  0.677100  0.025800  0.062400  1.0
  F  F3717  1  0.348700  0.322900  0.062400  1.0
  F  F3718  1  0.322900  0.348700  0.437600  1.0
  F  F3719  1  0.307533  0.317967  0.729067  1.0
  F  F3720  1  0.010433  0.692467  0.729067  1.0
  F  F3721  1  0.682033  0.989567  0.729067  1.0
  F  F3722  1  0.656233  0.015367  0.104267  1.0
  F  F3723  1  0.640867  0.984633  0.395733  1.0
  F  F3724  1  0.989567  0.682033  0.770933  1.0
  F  F3725  1  0.348700  0.025800  0.562400  1.0
  F  F3726  1  0.974200  0.322900  0.562400  1.0
  F  F3727  1  0.656233  0.640867  0.604267  1.0
  F  F3728  1  0.984633  0.343767  0.604267  1.0
  F  F3729  1  0.682033  0.692467  0.229067  1.0
  F  F3730  1  0.307533  0.989567  0.229067  1.0
  F  F3731  1  0.015367  0.359133  0.895733  1.0
  F  F3732  1  0.640867  0.656233  0.895733  1.0
  F  F3733  1  0.025800  0.348700  0.937600  1.0
  F  F3734  1  0.322900  0.974200  0.937600  1.0
  F  F3735  1  0.651300  0.677100  0.937600  1.0
  F  F3736  1  0.677100  0.651300  0.562400  1.0
  F  F3737  1  0.692467  0.682033  0.270933  1.0
  F  F3738  1  0.989567  0.307533  0.270933  1.0
  F  F3739  1  0.317967  0.010433  0.270933  1.0
  F  F3740  1  0.343767  0.984633  0.895733  1.0
  F  F3741  1  0.359133  0.015367  0.604267  1.0
  F  F3742  1  0.010433  0.317967  0.229067  1.0
  F  F3743  1  0.651300  0.974200  0.437600  1.0
  F  F3744  1  0.025800  0.677100  0.437600  1.0
  F  F3745  1  0.343767  0.359133  0.395733  1.0
  F  F3746  1  0.015367  0.656233  0.395733  1.0
  F  F3747  1  0.317967  0.307533  0.770933  1.0
  F  F3748  1  0.692467  0.010433  0.770933  1.0
  F  F3749  1  0.984633  0.640867  0.104267  1.0
  F  F3750  1  0.359133  0.343767  0.104267  1.0
  F  F3751  1  0.907700  0.574000  0.060500  1.0
  F  F3752  1  0.666300  0.092300  0.060500  1.0
  F  F3753  1  0.426000  0.333700  0.060500  1.0
  F  F3754  1  0.333700  0.426000  0.439500  1.0
  F  F3755  1  0.241033  0.240667  0.727167  1.0
  F  F3756  1  0.999633  0.758967  0.727167  1.0
  F  F3757  1  0.759333  0.000367  0.727167  1.0
  F  F3758  1  0.667033  0.092667  0.106167  1.0
  F  F3759  1  0.574367  0.907333  0.393833  1.0
  F  F3760  1  0.000367  0.759333  0.772833  1.0
  F  F3761  1  0.426000  0.092300  0.560500  1.0
  F  F3762  1  0.907700  0.333700  0.560500  1.0
  F  F3763  1  0.667033  0.574367  0.606167  1.0
  F  F3764  1  0.907333  0.332967  0.606167  1.0
  F  F3765  1  0.759333  0.758967  0.227167  1.0
  F  F3766  1  0.241033  0.000367  0.227167  1.0
  F  F3767  1  0.092667  0.425633  0.893833  1.0
  F  F3768  1  0.574367  0.667033  0.893833  1.0
  F  F3769  1  0.092300  0.426000  0.939500  1.0
  F  F3770  1  0.333700  0.907700  0.939500  1.0
  F  F3771  1  0.574000  0.666300  0.939500  1.0
  F  F3772  1  0.666300  0.574000  0.560500  1.0
  F  F3773  1  0.758967  0.759333  0.272833  1.0
  F  F3774  1  0.000367  0.241033  0.272833  1.0
  F  F3775  1  0.240667  0.999633  0.272833  1.0
  F  F3776  1  0.332967  0.907333  0.893833  1.0
  F  F3777  1  0.425633  0.092667  0.606167  1.0
  F  F3778  1  0.999633  0.240667  0.227167  1.0
  F  F3779  1  0.574000  0.907700  0.439500  1.0
  F  F3780  1  0.092300  0.666300  0.439500  1.0
  F  F3781  1  0.332967  0.425633  0.393833  1.0
  F  F3782  1  0.092667  0.667033  0.393833  1.0
  F  F3783  1  0.240667  0.241033  0.772833  1.0
  F  F3784  1  0.758967  0.999633  0.772833  1.0
  F  F3785  1  0.907333  0.574367  0.106167  1.0
  F  F3786  1  0.425633  0.332967  0.106167  1.0
  F  F3787  1  0.928200  0.642800  0.095300  1.0
  F  F3788  1  0.714600  0.071800  0.095300  1.0
  F  F3789  1  0.357200  0.285400  0.095300  1.0
  F  F3790  1  0.285400  0.357200  0.404700  1.0
  F  F3791  1  0.261533  0.309467  0.761967  1.0
  F  F3792  1  0.047933  0.738467  0.761967  1.0
  F  F3793  1  0.690533  0.952067  0.761967  1.0
  F  F3794  1  0.618733  0.023867  0.071367  1.0
  F  F3795  1  0.594867  0.976133  0.428633  1.0
  F  F3796  1  0.952067  0.690533  0.738033  1.0
  F  F3797  1  0.357200  0.071800  0.595300  1.0
  F  F3798  1  0.928200  0.285400  0.595300  1.0
  F  F3799  1  0.618733  0.594867  0.571367  1.0
  F  F3800  1  0.976133  0.381267  0.571367  1.0
  F  F3801  1  0.690533  0.738467  0.261967  1.0
  F  F3802  1  0.261533  0.952067  0.261967  1.0
  F  F3803  1  0.023867  0.405133  0.928633  1.0
  F  F3804  1  0.594867  0.618733  0.928633  1.0
  F  F3805  1  0.071800  0.357200  0.904700  1.0
  F  F3806  1  0.285400  0.928200  0.904700  1.0
  F  F3807  1  0.642800  0.714600  0.904700  1.0
  F  F3808  1  0.714600  0.642800  0.595300  1.0
  F  F3809  1  0.738467  0.690533  0.238033  1.0
  F  F3810  1  0.952067  0.261533  0.238033  1.0
  F  F3811  1  0.309467  0.047933  0.238033  1.0
  F  F3812  1  0.381267  0.976133  0.928633  1.0
  F  F3813  1  0.405133  0.023867  0.571367  1.0
  F  F3814  1  0.047933  0.309467  0.261967  1.0
  F  F3815  1  0.642800  0.928200  0.404700  1.0
  F  F3816  1  0.071800  0.714600  0.404700  1.0
  F  F3817  1  0.381267  0.405133  0.428633  1.0
  F  F3818  1  0.023867  0.618733  0.428633  1.0
  F  F3819  1  0.309467  0.261533  0.738033  1.0
  F  F3820  1  0.738467  0.047933  0.738033  1.0
  F  F3821  1  0.976133  0.594867  0.071367  1.0
  F  F3822  1  0.405133  0.381267  0.071367  1.0
