# generated using pymatgen
data_Fe12H306C495S36N93O233
_symmetry_space_group_name_H-M   'P 1'
_cell_length_a   34.83640000
_cell_length_b   34.83640000
_cell_length_c   39.23784401
_cell_angle_alpha   63.64616838
_cell_angle_beta   63.64616838
_cell_angle_gamma   60.00000000
_symmetry_Int_Tables_number   1
_chemical_formula_structural   Fe12H306C495S36N93O233
_chemical_formula_sum   'Fe24 H612 C990 S72 N186 O466'
_cell_volume   35408.78872686
_cell_formula_units_Z   2
loop_
 _symmetry_equiv_pos_site_id
 _symmetry_equiv_pos_as_xyz
  1  'x, y, z'
loop_
 _atom_site_type_symbol
 _atom_site_label
 _atom_site_symmetry_multiplicity
 _atom_site_fract_x
 _atom_site_fract_y
 _atom_site_fract_z
 _atom_site_occupancy
  C  C1  1  0.178200  0.618600  0.255000  1
  C  C2  1  0.948200  0.178200  0.255000  1
  C  C3  1  0.618600  0.948200  0.255000  1
  C  C4  1  0.821800  0.381400  0.745000  1
  C  C5  1  0.051800  0.821800  0.745000  1
  C  C6  1  0.381400  0.051800  0.745000  1
  C  C7  1  0.227750  0.587150  0.242250  1
  C  C8  1  0.942850  0.227750  0.242250  1
  C  C9  1  0.587150  0.942850  0.242250  1
  C  C10  1  0.772250  0.412850  0.757750  1
  C  C11  1  0.057150  0.772250  0.757750  1
  C  C12  1  0.412850  0.057150  0.757750  1
  C  C13  1  0.256100  0.566700  0.270300  1
  C  C14  1  0.906900  0.256100  0.270300  1
  C  C15  1  0.566700  0.906900  0.270300  1
  C  C16  1  0.743900  0.433300  0.729700  1
  C  C17  1  0.093100  0.743900  0.729700  1
  C  C18  1  0.433300  0.093100  0.729700  1
  C  C19  1  0.939530  0.756030  0.168810  1
  C  C20  1  0.135630  0.939530  0.168810  1
  C  C21  1  0.756030  0.135630  0.168810  1
  C  C22  1  0.060470  0.243970  0.831190  1
  C  C23  1  0.864370  0.060470  0.831190  1
  C  C24  1  0.243970  0.864370  0.831190  1
  C  C25  1  0.923800  0.651100  0.232800  1
  C  C26  1  0.192300  0.923800  0.232800  1
  C  C27  1  0.651100  0.192300  0.232800  1
  C  C28  1  0.076200  0.348900  0.767200  1
  C  C29  1  0.807700  0.076200  0.767200  1
  C  C30  1  0.348900  0.807700  0.767200  1
  C  C31  1  0.891610  0.737210  0.275670  1
  C  C32  1  0.095510  0.891610  0.275670  1
  C  C33  1  0.737210  0.095510  0.275670  1
  C  C34  1  0.108390  0.262790  0.724330  1
  C  C35  1  0.904490  0.108390  0.724330  1
  C  C36  1  0.262790  0.904490  0.724330  1
  C  C37  1  0.334930  0.254330  0.260010  1
  C  C38  1  0.150730  0.334930  0.260010  1
  C  C39  1  0.254330  0.150730  0.260010  1
  C  C40  1  0.665070  0.745670  0.739990  1
  C  C41  1  0.849270  0.665070  0.739990  1
  C  C42  1  0.745670  0.849270  0.739990  1
  C  C43  1  0.446350  0.258150  0.230250  1
  C  C44  1  0.065250  0.446350  0.230250  1
  C  C45  1  0.258150  0.065250  0.230250  1
  C  C46  1  0.553650  0.741850  0.769750  1
  C  C47  1  0.934750  0.553650  0.769750  1
  C  C48  1  0.741850  0.934750  0.769750  1
  C  C49  1  0.234380  0.550880  0.534660  1
  C  C50  1  0.680080  0.234380  0.534660  1
  C  C51  1  0.550880  0.680080  0.534660  1
  C  C52  1  0.765620  0.449120  0.465340  1
  C  C53  1  0.319920  0.765620  0.465340  1
  C  C54  1  0.449120  0.319920  0.465340  1
  C  C55  1  0.934070  0.774470  0.131790  1
  C  C56  1  0.159670  0.934070  0.131790  1
  C  C57  1  0.774470  0.159670  0.131790  1
  C  C58  1  0.065930  0.225530  0.868210  1
  C  C59  1  0.840330  0.065930  0.868210  1
  C  C60  1  0.225530  0.840330  0.868210  1
  C  C61  1  0.896530  0.625730  0.251010  1
  C  C62  1  0.226730  0.896530  0.251010  1
  C  C63  1  0.625730  0.226730  0.251010  1
  C  C64  1  0.103470  0.374270  0.748990  1
  C  C65  1  0.773270  0.103470  0.748990  1
  C  C66  1  0.374270  0.773270  0.748990  1
  C  C67  1  0.855590  0.777190  0.290430  1
  C  C68  1  0.076790  0.855590  0.290430  1
  C  C69  1  0.777190  0.076790  0.290430  1
  C  C70  1  0.144410  0.222810  0.709570  1
  C  C71  1  0.923210  0.144410  0.709570  1
  C  C72  1  0.222810  0.923210  0.709570  1
  C  C73  1  0.328240  0.237740  0.237480  1
  C  C74  1  0.196540  0.328240  0.237480  1
  C  C75  1  0.237740  0.196540  0.237480  1
  C  C76  1  0.671760  0.762260  0.762520  1
  C  C77  1  0.803460  0.671760  0.762520  1
  C  C78  1  0.762260  0.803460  0.762520  1
  C  C79  1  0.493680  0.239880  0.216660  1
  C  C80  1  0.049780  0.493680  0.216660  1
  C  C81  1  0.239880  0.049780  0.216660  1
  C  C82  1  0.506320  0.760120  0.783340  1
  C  C83  1  0.950220  0.506320  0.783340  1
  C  C84  1  0.760120  0.950220  0.783340  1
  C  C85  1  0.269210  0.519110  0.554670  1
  C  C86  1  0.657010  0.269210  0.554670  1
  C  C87  1  0.519110  0.657010  0.554670  1
  C  C88  1  0.730790  0.480890  0.445330  1
  C  C89  1  0.342990  0.730790  0.445330  1
  C  C90  1  0.480890  0.342990  0.445330  1
  C  C91  1  0.964480  0.751180  0.105360  1
  C  C92  1  0.178980  0.964480  0.105360  1
  C  C93  1  0.751180  0.178980  0.105360  1
  C  C94  1  0.035520  0.248820  0.894640  1
  C  C95  1  0.821020  0.035520  0.894640  1
  C  C96  1  0.248820  0.821020  0.894640  1
  C  C97  1  0.895830  0.596530  0.288810  1
  C  C98  1  0.218830  0.895830  0.288810  1
  C  C99  1  0.596530  0.218830  0.288810  1
  C  C100  1  0.104170  0.403470  0.711190  1
  C  C101  1  0.781170  0.104170  0.711190  1
  C  C102  1  0.403470  0.781170  0.711190  1
  C  C103  1  0.866400  0.809600  0.285900  1
  C  C104  1  0.038100  0.866400  0.285900  1
  C  C105  1  0.809600  0.038100  0.285900  1
  C  C106  1  0.133600  0.190400  0.714100  1
  C  C107  1  0.961900  0.133600  0.714100  1
  C  C108  1  0.190400  0.961900  0.714100  1
  C  C109  1  0.329790  0.261490  0.198330  1
  C  C110  1  0.210390  0.329790  0.198330  1
  C  C111  1  0.261490  0.210390  0.198330  1
  C  C112  1  0.670210  0.738510  0.801670  1
  C  C113  1  0.789610  0.670210  0.801670  1
  C  C114  1  0.738510  0.789610  0.801670  1
  C  C115  1  0.519100  0.252500  0.225600  1
  C  C116  1  0.002800  0.519100  0.225600  1
  C  C117  1  0.252500  0.002800  0.225600  1
  C  C118  1  0.480900  0.747500  0.774400  1
  C  C119  1  0.997200  0.480900  0.774400  1
  C  C120  1  0.747500  0.997200  0.774400  1
  C  C121  1  0.311360  0.508460  0.536820  1
  C  C122  1  0.643360  0.311360  0.536820  1
  C  C123  1  0.508460  0.643360  0.536820  1
  C  C124  1  0.688640  0.491540  0.463180  1
  C  C125  1  0.356640  0.688640  0.463180  1
  C  C126  1  0.491540  0.356640  0.463180  1
  C  C127  1  0.000420  0.711420  0.113640  1
  C  C128  1  0.174520  0.000420  0.113640  1
  C  C129  1  0.711420  0.174520  0.113640  1
  C  C130  1  0.999580  0.288580  0.886360  1
  C  C131  1  0.825480  0.999580  0.886360  1
  C  C132  1  0.288580  0.825480  0.886360  1
  C  C133  1  0.921300  0.593900  0.309900  1
  C  C134  1  0.174900  0.921300  0.309900  1
  C  C135  1  0.593900  0.174900  0.309900  1
  C  C136  1  0.078700  0.406100  0.690100  1
  C  C137  1  0.825100  0.078700  0.690100  1
  C  C138  1  0.406100  0.825100  0.690100  1
  C  C139  1  0.912900  0.808600  0.265500  1
  C  C140  1  0.013000  0.912900  0.265500  1
  C  C141  1  0.808600  0.013000  0.265500  1
  C  C142  1  0.087100  0.191400  0.734500  1
  C  C143  1  0.987000  0.087100  0.734500  1
  C  C144  1  0.191400  0.987000  0.734500  1
  C  C145  1  0.338030  0.301230  0.182910  1
  C  C146  1  0.177830  0.338030  0.182910  1
  C  C147  1  0.301230  0.177830  0.182910  1
  C  C148  1  0.661970  0.698770  0.817090  1
  C  C149  1  0.822170  0.661970  0.817090  1
  C  C150  1  0.698770  0.822170  0.817090  1
  C  C151  1  0.496920  0.281820  0.248340  1
  C  C152  1  0.972920  0.496920  0.248340  1
  C  C153  1  0.281820  0.972920  0.248340  1
  C  C154  1  0.503080  0.718180  0.751660  1
  C  C155  1  0.027080  0.503080  0.751660  1
  C  C156  1  0.718180  0.027080  0.751660  1
  C  C157  1  0.328770  0.525170  0.492090  1
  C  C158  1  0.653970  0.328770  0.492090  1
  C  C159  1  0.525170  0.653970  0.492090  1
  C  C160  1  0.671230  0.474830  0.507910  1
  C  C161  1  0.346030  0.671230  0.507910  1
  C  C162  1  0.474830  0.346030  0.507910  1
  C  C163  1  0.004900  0.694700  0.152400  1
  C  C164  1  0.148000  0.004900  0.152400  1
  C  C165  1  0.694700  0.148000  0.152400  1
  C  C166  1  0.995100  0.305300  0.847600  1
  C  C167  1  0.852000  0.995100  0.847600  1
  C  C168  1  0.305300  0.852000  0.847600  1
  C  C169  1  0.948550  0.620850  0.289050  1
  C  C170  1  0.141550  0.948550  0.289050  1
  C  C171  1  0.620850  0.141550  0.289050  1
  C  C172  1  0.051450  0.379150  0.710950  1
  C  C173  1  0.858450  0.051450  0.710950  1
  C  C174  1  0.379150  0.858450  0.710950  1
  C  C175  1  0.942390  0.770990  0.249630  1
  C  C176  1  0.036990  0.942390  0.249630  1
  C  C177  1  0.770990  0.036990  0.249630  1
  C  C178  1  0.057610  0.229010  0.750370  1
  C  C179  1  0.963010  0.057610  0.750370  1
  C  C180  1  0.229010  0.963010  0.750370  1
  C  C181  1  0.343730  0.315830  0.207810  1
  C  C182  1  0.132630  0.343730  0.207810  1
  C  C183  1  0.315830  0.132630  0.207810  1
  C  C184  1  0.656270  0.684170  0.792190  1
  C  C185  1  0.867370  0.656270  0.792190  1
  C  C186  1  0.684170  0.867370  0.792190  1
  C  C187  1  0.448850  0.298850  0.261450  1
  C  C188  1  0.990850  0.448850  0.261450  1
  C  C189  1  0.298850  0.990850  0.261450  1
  C  C190  1  0.551150  0.701150  0.738550  1
  C  C191  1  0.009150  0.551150  0.738550  1
  C  C192  1  0.701150  0.009150  0.738550  1
  C  C193  1  0.292810  0.557310  0.474270  1
  C  C194  1  0.675610  0.292810  0.474270  1
  C  C195  1  0.557310  0.675610  0.474270  1
  C  C196  1  0.707190  0.442690  0.525730  1
  C  C197  1  0.324390  0.707190  0.525730  1
  C  C198  1  0.442690  0.324390  0.525730  1
  C  C199  1  0.040010  0.653110  0.167070  1
  C  C200  1  0.139810  0.040010  0.167070  1
  C  C201  1  0.653110  0.139810  0.167070  1
  C  C202  1  0.959990  0.346890  0.832930  1
  C  C203  1  0.860190  0.959990  0.832930  1
  C  C204  1  0.346890  0.860190  0.832930  1
  C  C205  1  0.976750  0.621750  0.305550  1
  C  C206  1  0.095950  0.976750  0.305550  1
  C  C207  1  0.621750  0.095950  0.305550  1
  C  C208  1  0.023250  0.378250  0.694450  1
  C  C209  1  0.904050  0.023250  0.694450  1
  C  C210  1  0.378250  0.904050  0.694450  1
  C  C211  1  0.989210  0.768810  0.226170  1
  C  C212  1  0.015810  0.989210  0.226170  1
  C  C213  1  0.768810  0.015810  0.226170  1
  C  C214  1  0.010790  0.231190  0.773830  1
  C  C215  1  0.984190  0.010790  0.773830  1
  C  C216  1  0.231190  0.984190  0.773830  1
  C  C217  1  0.351380  0.359380  0.193860  1
  C  C218  1  0.095380  0.351380  0.193860  1
  C  C219  1  0.359380  0.095380  0.193860  1
  C  C220  1  0.648620  0.640620  0.806140  1
  C  C221  1  0.904620  0.648620  0.806140  1
  C  C222  1  0.640620  0.904620  0.806140  1
  C  C223  1  0.421000  0.331300  0.284700  1
  C  C224  1  0.963000  0.421000  0.284700  1
  C  C225  1  0.331300  0.963000  0.284700  1
  C  C226  1  0.579000  0.668700  0.715300  1
  C  C227  1  0.037000  0.579000  0.715300  1
  C  C228  1  0.668700  0.037000  0.715300  1
  C  C229  1  0.300950  0.580950  0.430950  1
  C  C230  1  0.687150  0.300950  0.430950  1
  C  C231  1  0.580950  0.687150  0.430950  1
  C  C232  1  0.699050  0.419050  0.569050  1
  C  C233  1  0.312850  0.699050  0.569050  1
  C  C234  1  0.419050  0.312850  0.569050  1
  C  C235  1  0.076390  0.601990  0.216630  1
  C  C236  1  0.104990  0.076390  0.216630  1
  C  C237  1  0.601990  0.104990  0.216630  1
  C  C238  1  0.923610  0.398010  0.783370  1
  C  C239  1  0.895010  0.923610  0.783370  1
  C  C240  1  0.398010  0.895010  0.783370  1
  C  C241  1  0.026420  0.649020  0.303240  1
  C  C242  1  0.021320  0.026420  0.303240  1
  C  C243  1  0.649020  0.021320  0.303240  1
  C  C244  1  0.973580  0.350980  0.696760  1
  C  C245  1  0.978680  0.973580  0.696760  1
  C  C246  1  0.350980  0.978680  0.696760  1
  C  C247  1  0.064480  0.725980  0.195660  1
  C  C248  1  0.013880  0.064480  0.195660  1
  C  C249  1  0.725980  0.013880  0.195660  1
  C  C250  1  0.935520  0.274020  0.804340  1
  C  C251  1  0.986120  0.935520  0.804340  1
  C  C252  1  0.274020  0.986120  0.804340  1
  C  C253  1  0.362980  0.410480  0.206760  1
  C  C254  1  0.019780  0.362980  0.206760  1
  C  C255  1  0.410480  0.019780  0.206760  1
  C  C256  1  0.637020  0.589520  0.793240  1
  C  C257  1  0.980220  0.637020  0.793240  1
  C  C258  1  0.589520  0.980220  0.793240  1
  C  C259  1  0.349960  0.379660  0.315120  1
  C  C260  1  0.955260  0.349960  0.315120  1
  C  C261  1  0.379660  0.955260  0.315120  1
  C  C262  1  0.650040  0.620340  0.684880  1
  C  C263  1  0.044740  0.650040  0.684880  1
  C  C264  1  0.620340  0.044740  0.684880  1
  C  C265  1  0.275920  0.626820  0.375840  1
  C  C266  1  0.721420  0.275920  0.375840  1
  C  C267  1  0.626820  0.721420  0.375840  1
  C  C268  1  0.724080  0.373180  0.624160  1
  C  C269  1  0.278580  0.724080  0.624160  1
  C  C270  1  0.373180  0.278580  0.624160  1
  C  C271  1  0.066600  0.564700  0.246600  1
  C  C272  1  0.122100  0.066600  0.246600  1
  C  C273  1  0.564700  0.122100  0.246600  1
  C  C274  1  0.933400  0.435300  0.753400  1
  C  C275  1  0.877900  0.933400  0.753400  1
  C  C276  1  0.435300  0.877900  0.753400  1
  C  C277  1  0.017270  0.690570  0.308190  1
  C  C278  1  0.983970  0.017270  0.308190  1
  C  C279  1  0.690570  0.983970  0.308190  1
  C  C280  1  0.982730  0.309430  0.691810  1
  C  C281  1  0.016030  0.982730  0.691810  1
  C  C282  1  0.309430  0.016030  0.691810  1
  C  C283  1  0.084450  0.721450  0.158850  1
  C  C284  1  0.035250  0.084450  0.158850  1
  C  C285  1  0.721450  0.035250  0.158850  1
  C  C286  1  0.915550  0.278550  0.841150  1
  C  C287  1  0.964750  0.915550  0.841150  1
  C  C288  1  0.278550  0.964750  0.841150  1
  C  C289  1  0.406090  0.407990  0.201930  1
  C  C290  1  0.983990  0.406090  0.201930  1
  C  C291  1  0.407990  0.983990  0.201930  1
  C  C292  1  0.593910  0.592010  0.798070  1
  C  C293  1  0.016010  0.593910  0.798070  1
  C  C294  1  0.592010  0.016010  0.798070  1
  C  C295  1  0.318330  0.371130  0.349710  1
  C  C296  1  0.960830  0.318330  0.349710  1
  C  C297  1  0.371130  0.960830  0.349710  1
  C  C298  1  0.681670  0.628870  0.650290  1
  C  C299  1  0.039170  0.681670  0.650290  1
  C  C300  1  0.628870  0.039170  0.650290  1
  C  C301  1  0.260590  0.673490  0.360630  1
  C  C302  1  0.705290  0.260590  0.360630  1
  C  C303  1  0.673490  0.705290  0.360630  1
  C  C304  1  0.739410  0.326510  0.639370  1
  C  C305  1  0.294710  0.739410  0.639370  1
  C  C306  1  0.326510  0.294710  0.639370  1
  C  C307  1  0.101190  0.524990  0.258930  1
  C  C308  1  0.114890  0.101190  0.258930  1
  C  C309  1  0.524990  0.114890  0.258930  1
  C  C310  1  0.898810  0.475010  0.741070  1
  C  C311  1  0.885110  0.898810  0.741070  1
  C  C312  1  0.475010  0.885110  0.741070  1
  C  C313  1  0.039360  0.692560  0.327420  1
  C  C314  1  0.940660  0.039360  0.327420  1
  C  C315  1  0.692560  0.940660  0.327420  1
  C  C316  1  0.960640  0.307440  0.672580  1
  C  C317  1  0.059340  0.960640  0.672580  1
  C  C318  1  0.307440  0.059340  0.672580  1
  C  C319  1  0.129450  0.717250  0.137550  1
  C  C320  1  0.015750  0.129450  0.137550  1
  C  C321  1  0.717250  0.015750  0.137550  1
  C  C322  1  0.870550  0.282750  0.862450  1
  C  C323  1  0.984250  0.870550  0.862450  1
  C  C324  1  0.282750  0.984250  0.862450  1
  C  C325  1  0.414400  0.448200  0.188400  1
  C  C326  1  0.949000  0.414400  0.188400  1
  C  C327  1  0.448200  0.949000  0.188400  1
  C  C328  1  0.585600  0.551800  0.811600  1
  C  C329  1  0.051000  0.585600  0.811600  1
  C  C330  1  0.551800  0.051000  0.811600  1
  C  C331  1  0.290570  0.403570  0.372990  1
  C  C332  1  0.932870  0.290570  0.372990  1
  C  C333  1  0.403570  0.932870  0.372990  1
  C  C334  1  0.709430  0.596430  0.627010  1
  C  C335  1  0.067130  0.709430  0.627010  1
  C  C336  1  0.596430  0.067130  0.627010  1
  C  C337  1  0.268250  0.694850  0.319350  1
  C  C338  1  0.717550  0.268250  0.319350  1
  C  C339  1  0.694850  0.717550  0.319350  1
  C  C340  1  0.731750  0.305150  0.680650  1
  C  C341  1  0.282450  0.731750  0.680650  1
  C  C342  1  0.305150  0.282450  0.680650  1
  C  C343  1  0.148210  0.520810  0.240570  1
  C  C344  1  0.090410  0.148210  0.240570  1
  C  C345  1  0.520810  0.090410  0.240570  1
  C  C346  1  0.851790  0.479190  0.759430  1
  C  C347  1  0.909590  0.851790  0.759430  1
  C  C348  1  0.479190  0.909590  0.759430  1
  C  C349  1  0.072030  0.651730  0.344310  1
  C  C350  1  0.931930  0.072030  0.344310  1
  C  C351  1  0.651730  0.931930  0.344310  1
  C  C352  1  0.927970  0.348270  0.655690  1
  C  C353  1  0.068070  0.927970  0.655690  1
  C  C354  1  0.348270  0.068070  0.655690  1
  C  C355  1  0.154600  0.723500  0.152400  1
  C  C356  1  0.969500  0.154600  0.152400  1
  C  C357  1  0.723500  0.969500  0.152400  1
  C  C358  1  0.845400  0.276500  0.847600  1
  C  C359  1  0.030500  0.845400  0.847600  1
  C  C360  1  0.276500  0.030500  0.847600  1
  C  C361  1  0.380370  0.491170  0.179190  1
  C  C362  1  0.949270  0.380370  0.179190  1
  C  C363  1  0.491170  0.949270  0.179190  1
  C  C364  1  0.619630  0.508830  0.820810  1
  C  C365  1  0.050730  0.619630  0.820810  1
  C  C366  1  0.508830  0.050730  0.820810  1
  C  C367  1  0.297630  0.443930  0.359010  1
  C  C368  1  0.899430  0.297630  0.359010  1
  C  C369  1  0.443930  0.899430  0.359010  1
  C  C370  1  0.702370  0.556070  0.640990  1
  C  C371  1  0.100570  0.702370  0.640990  1
  C  C372  1  0.556070  0.100570  0.640990  1
  C  C373  1  0.294590  0.667590  0.292830  1
  C  C374  1  0.744990  0.294590  0.292830  1
  C  C375  1  0.667590  0.744990  0.292830  1
  C  C376  1  0.705410  0.332410  0.707170  1
  C  C377  1  0.255010  0.705410  0.707170  1
  C  C378  1  0.332410  0.255010  0.707170  1
  C  C379  1  0.157010  0.558610  0.212070  1
  C  C380  1  0.072310  0.157010  0.212070  1
  C  C381  1  0.558610  0.072310  0.212070  1
  C  C382  1  0.842990  0.441390  0.787930  1
  C  C383  1  0.927690  0.842990  0.787930  1
  C  C384  1  0.441390  0.927690  0.787930  1
  C  C385  1  0.082450  0.610350  0.338850  1
  C  C386  1  0.968350  0.082450  0.338850  1
  C  C387  1  0.610350  0.968350  0.338850  1
  C  C388  1  0.917550  0.389650  0.661150  1
  C  C389  1  0.031650  0.917550  0.661150  1
  C  C390  1  0.389650  0.031650  0.661150  1
  C  C391  1  0.134300  0.728400  0.190200  1
  C  C392  1  0.947100  0.134300  0.190200  1
  C  C393  1  0.728400  0.947100  0.190200  1
  C  C394  1  0.865700  0.271600  0.809800  1
  C  C395  1  0.052900  0.865700  0.809800  1
  C  C396  1  0.271600  0.052900  0.809800  1
  C  C397  1  0.337580  0.492280  0.185760  1
  C  C398  1  0.984380  0.337580  0.185760  1
  C  C399  1  0.492280  0.984380  0.185760  1
  C  C400  1  0.662420  0.507720  0.814240  1
  C  C401  1  0.015620  0.662420  0.814240  1
  C  C402  1  0.507720  0.015620  0.814240  1
  C  C403  1  0.329200  0.452700  0.323100  1
  C  C404  1  0.895000  0.329200  0.323100  1
  C  C405  1  0.452700  0.895000  0.323100  1
  C  C406  1  0.670800  0.547300  0.676900  1
  C  C407  1  0.105000  0.670800  0.676900  1
  C  C408  1  0.547300  0.105000  0.676900  1
  C  C409  1  0.309710  0.619510  0.310170  1
  C  C410  1  0.760610  0.309710  0.310170  1
  C  C411  1  0.619510  0.760610  0.310170  1
  C  C412  1  0.690290  0.380490  0.689830  1
  C  C413  1  0.239390  0.690290  0.689830  1
  C  C414  1  0.380490  0.239390  0.689830  1
  C  C415  1  0.122160  0.599460  0.198720  1
  C  C416  1  0.079660  0.122160  0.198720  1
  C  C417  1  0.599460  0.079660  0.198720  1
  C  C418  1  0.877840  0.400540  0.801280  1
  C  C419  1  0.920340  0.877840  0.801280  1
  C  C420  1  0.400540  0.920340  0.801280  1
  C  C421  1  0.058930  0.610830  0.317310  1
  C  C422  1  0.012930  0.058930  0.317310  1
  C  C423  1  0.610830  0.012930  0.317310  1
  C  C424  1  0.941070  0.389170  0.682690  1
  C  C425  1  0.987070  0.941070  0.682690  1
  C  C426  1  0.389170  0.987070  0.682690  1
  C  C427  1  0.091760  0.728660  0.211620  1
  C  C428  1  0.967960  0.091760  0.211620  1
  C  C429  1  0.728660  0.967960  0.211620  1
  C  C430  1  0.908240  0.271340  0.788380  1
  C  C431  1  0.032040  0.908240  0.788380  1
  C  C432  1  0.271340  0.032040  0.788380  1
  C  C433  1  0.327620  0.452920  0.199740  1
  C  C434  1  0.019720  0.327620  0.199740  1
  C  C435  1  0.452920  0.019720  0.199740  1
  C  C436  1  0.672380  0.547080  0.800260  1
  C  C437  1  0.980280  0.672380  0.800260  1
  C  C438  1  0.547080  0.980280  0.800260  1
  C  C439  1  0.354900  0.422600  0.299700  1
  C  C440  1  0.922800  0.354900  0.299700  1
  C  C441  1  0.422600  0.922800  0.299700  1
  C  C442  1  0.645100  0.577400  0.700300  1
  C  C443  1  0.077200  0.645100  0.700300  1
  C  C444  1  0.577400  0.077200  0.700300  1
  C  C445  1  0.298960  0.598160  0.351120  1
  C  C446  1  0.751760  0.298960  0.351120  1
  C  C447  1  0.598160  0.751760  0.351120  1
  C  C448  1  0.701040  0.401840  0.648880  1
  C  C449  1  0.248240  0.701040  0.648880  1
  C  C450  1  0.401840  0.248240  0.648880  1
  C  C451  1  0.187380  0.477380  0.253260  1
  C  C452  1  0.081980  0.187380  0.253260  1
  C  C453  1  0.477380  0.081980  0.253260  1
  C  C454  1  0.812620  0.522620  0.746740  1
  C  C455  1  0.918020  0.812620  0.746740  1
  C  C456  1  0.522620  0.918020  0.746740  1
  C  C457  1  0.099020  0.650220  0.367440  1
  C  C458  1  0.883320  0.099020  0.367440  1
  C  C459  1  0.650220  0.883320  0.367440  1
  C  C460  1  0.900980  0.349780  0.632560  1
  C  C461  1  0.116680  0.900980  0.632560  1
  C  C462  1  0.349780  0.116680  0.632560  1
  C  C463  1  0.204900  0.719600  0.131700  1
  C  C464  1  0.943800  0.204900  0.131700  1
  C  C465  1  0.719600  0.943800  0.131700  1
  C  C466  1  0.795100  0.280400  0.868300  1
  C  C467  1  0.056200  0.795100  0.868300  1
  C  C468  1  0.280400  0.056200  0.868300  1
  C  C469  1  0.386530  0.535130  0.163710  1
  C  C470  1  0.914630  0.386530  0.163710  1
  C  C471  1  0.535130  0.914630  0.163710  1
  C  C472  1  0.613470  0.464870  0.836290  1
  C  C473  1  0.085370  0.613470  0.836290  1
  C  C474  1  0.464870  0.085370  0.836290  1
  C  C475  1  0.271910  0.477110  0.383670  1
  C  C476  1  0.867310  0.271910  0.383670  1
  C  C477  1  0.477110  0.867310  0.383670  1
  C  C478  1  0.728090  0.522890  0.616330  1
  C  C479  1  0.132690  0.728090  0.616330  1
  C  C480  1  0.522890  0.132690  0.616330  1
  C  C481  1  0.307120  0.686720  0.249540  1
  C  C482  1  0.756620  0.307120  0.249540  1
  C  C483  1  0.686720  0.756620  0.249540  1
  C  C484  1  0.692880  0.313280  0.750460  1
  C  C485  1  0.243380  0.692880  0.750460  1
  C  C486  1  0.313280  0.243380  0.750460  1
  C  C487  1  0.213850  0.443550  0.232350  1
  C  C488  1  0.110250  0.213850  0.232350  1
  C  C489  1  0.443550  0.110250  0.232350  1
  C  C490  1  0.786150  0.556450  0.767650  1
  C  C491  1  0.889750  0.786150  0.767650  1
  C  C492  1  0.556450  0.889750  0.767650  1
  C  C493  1  0.083790  0.642490  0.407130  1
  C  C494  1  0.866590  0.083790  0.407130  1
  C  C495  1  0.642490  0.866590  0.407130  1
  C  C496  1  0.916210  0.357510  0.592870  1
  C  C497  1  0.133410  0.916210  0.592870  1
  C  C498  1  0.357510  0.133410  0.592870  1
  C  C499  1  0.217090  0.756790  0.108030  1
  C  C500  1  0.918090  0.217090  0.108030  1
  C  C501  1  0.756790  0.918090  0.108030  1
  C  C502  1  0.782910  0.243210  0.891970  1
  C  C503  1  0.081910  0.782910  0.891970  1
  C  C504  1  0.243210  0.081910  0.891970  1
  C  C505  1  0.397590  0.556690  0.123630  1
  C  C506  1  0.922090  0.397590  0.123630  1
  C  C507  1  0.556690  0.922090  0.123630  1
  C  C508  1  0.602410  0.443310  0.876370  1
  C  C509  1  0.077910  0.602410  0.876370  1
  C  C510  1  0.443310  0.077910  0.876370  1
  C  C511  1  0.293870  0.479470  0.405690  1
  C  C512  1  0.820970  0.293870  0.405690  1
  C  C513  1  0.479470  0.820970  0.405690  1
  C  C514  1  0.706130  0.520530  0.594310  1
  C  C515  1  0.179030  0.706130  0.594310  1
  C  C516  1  0.520530  0.179030  0.594310  1
  C  C517  1  0.349930  0.691130  0.227610  1
  C  C518  1  0.731330  0.349930  0.227610  1
  C  C519  1  0.691130  0.731330  0.227610  1
  C  C520  1  0.650070  0.308870  0.772390  1
  C  C521  1  0.268670  0.650070  0.772390  1
  C  C522  1  0.308870  0.268670  0.772390  1
  C  C523  1  0.245770  0.403070  0.246690  1
  C  C524  1  0.104470  0.245770  0.246690  1
  C  C525  1  0.403070  0.104470  0.246690  1
  C  C526  1  0.754230  0.596930  0.753310  1
  C  C527  1  0.895530  0.754230  0.753310  1
  C  C528  1  0.596930  0.895530  0.753310  1
  C  C529  1  0.106410  0.646210  0.426570  1
  C  C530  1  0.820810  0.106410  0.426570  1
  C  C531  1  0.646210  0.820810  0.426570  1
  C  C532  1  0.893590  0.353790  0.573430  1
  C  C533  1  0.179190  0.893590  0.573430  1
  C  C534  1  0.353790  0.179190  0.573430  1
  C  C535  1  0.262780  0.751380  0.089460  1
  C  C536  1  0.896380  0.262780  0.089460  1
  C  C537  1  0.751380  0.896380  0.089460  1
  C  C538  1  0.737220  0.248620  0.910540  1
  C  C539  1  0.103620  0.737220  0.910540  1
  C  C540  1  0.248620  0.103620  0.910540  1
  C  C541  1  0.407150  0.598050  0.109050  1
  C  C542  1  0.885750  0.407150  0.109050  1
  C  C543  1  0.598050  0.885750  0.109050  1
  C  C544  1  0.592850  0.401950  0.890950  1
  C  C545  1  0.114250  0.592850  0.890950  1
  C  C546  1  0.401950  0.114250  0.890950  1
  C  C547  1  0.268460  0.508960  0.429720  1
  C  C548  1  0.792860  0.268460  0.429720  1
  C  C549  1  0.508960  0.792860  0.429720  1
  C  C550  1  0.731540  0.491040  0.570280  1
  C  C551  1  0.207140  0.731540  0.570280  1
  C  C552  1  0.491040  0.207140  0.570280  1
  C  C553  1  0.358960  0.709560  0.186420  1
  C  C554  1  0.745060  0.358960  0.186420  1
  C  C555  1  0.709560  0.745060  0.186420  1
  C  C556  1  0.641040  0.290440  0.813580  1
  C  C557  1  0.254940  0.641040  0.813580  1
  C  C558  1  0.290440  0.254940  0.813580  1
  C  C559  1  0.254640  0.394040  0.281280  1
  C  C560  1  0.070040  0.254640  0.281280  1
  C  C561  1  0.394040  0.070040  0.281280  1
  C  C562  1  0.745360  0.605960  0.718720  1
  C  C563  1  0.929960  0.745360  0.718720  1
  C  C564  1  0.605960  0.929960  0.718720  1
  C  C565  1  0.145160  0.658660  0.404520  1
  C  C566  1  0.791660  0.145160  0.404520  1
  C  C567  1  0.658660  0.791660  0.404520  1
  C  C568  1  0.854840  0.341340  0.595480  1
  C  C569  1  0.208340  0.854840  0.595480  1
  C  C570  1  0.341340  0.208340  0.595480  1
  C  C571  1  0.297680  0.707580  0.093960  1
  C  C572  1  0.900780  0.297680  0.093960  1
  C  C573  1  0.707580  0.900780  0.093960  1
  C  C574  1  0.702320  0.292420  0.906040  1
  C  C575  1  0.099220  0.702320  0.906040  1
  C  C576  1  0.292420  0.099220  0.906040  1
  C  C577  1  0.403420  0.617320  0.133440  1
  C  C578  1  0.845820  0.403420  0.133440  1
  C  C579  1  0.617320  0.845820  0.133440  1
  C  C580  1  0.596580  0.382680  0.866560  1
  C  C581  1  0.154180  0.596580  0.866560  1
  C  C582  1  0.382680  0.154180  0.866560  1
  C  C583  1  0.222300  0.536200  0.432000  1
  C  C584  1  0.809500  0.222300  0.432000  1
  C  C585  1  0.536200  0.809500  0.432000  1
  C  C586  1  0.777700  0.463800  0.568000  1
  C  C587  1  0.190500  0.777700  0.568000  1
  C  C588  1  0.463800  0.190500  0.568000  1
  C  C589  1  0.327680  0.724680  0.166560  1
  C  C590  1  0.781080  0.327680  0.166560  1
  C  C591  1  0.724680  0.781080  0.166560  1
  C  C592  1  0.672320  0.275320  0.833440  1
  C  C593  1  0.218920  0.672320  0.833440  1
  C  C594  1  0.275320  0.218920  0.833440  1
  C  C595  1  0.230280  0.427280  0.301560  1
  C  C596  1  0.040880  0.230280  0.301560  1
  C  C597  1  0.427280  0.040880  0.301560  1
  C  C598  1  0.769720  0.572720  0.698440  1
  C  C599  1  0.959120  0.769720  0.698440  1
  C  C600  1  0.572720  0.959120  0.698440  1
  C  C601  1  0.161640  0.664640  0.365280  1
  C  C602  1  0.808440  0.161640  0.365280  1
  C  C603  1  0.664640  0.808440  0.365280  1
  C  C604  1  0.838360  0.335360  0.634720  1
  C  C605  1  0.191560  0.838360  0.634720  1
  C  C606  1  0.335360  0.191560  0.634720  1
  C  C607  1  0.284500  0.670000  0.118800  1
  C  C608  1  0.926700  0.284500  0.118800  1
  C  C609  1  0.670000  0.926700  0.118800  1
  C  C610  1  0.715500  0.330000  0.881200  1
  C  C611  1  0.073300  0.715500  0.881200  1
  C  C612  1  0.330000  0.073300  0.881200  1
  C  C613  1  0.389660  0.597260  0.173520  1
  C  C614  1  0.839560  0.389660  0.173520  1
  C  C615  1  0.597260  0.839560  0.173520  1
  C  C616  1  0.610340  0.402740  0.826480  1
  C  C617  1  0.160440  0.610340  0.826480  1
  C  C618  1  0.402740  0.160440  0.826480  1
  C  C619  1  0.202180  0.535080  0.409260  1
  C  C620  1  0.853480  0.202180  0.409260  1
  C  C621  1  0.535080  0.853480  0.409260  1
  C  C622  1  0.797820  0.464920  0.590740  1
  C  C623  1  0.146520  0.797820  0.590740  1
  C  C624  1  0.464920  0.146520  0.590740  1
  C  C625  1  0.285380  0.719380  0.188460  1
  C  C626  1  0.806780  0.285380  0.188460  1
  C  C627  1  0.719380  0.806780  0.188460  1
  C  C628  1  0.714620  0.280620  0.811540  1
  C  C629  1  0.193220  0.714620  0.811540  1
  C  C630  1  0.280620  0.193220  0.811540  1
  C  C631  1  0.196870  0.467670  0.287190  1
  C  C632  1  0.048270  0.196870  0.287190  1
  C  C633  1  0.467670  0.048270  0.287190  1
  C  C634  1  0.803130  0.532330  0.712810  1
  C  C635  1  0.951730  0.803130  0.712810  1
  C  C636  1  0.532330  0.951730  0.712810  1
  C  C637  1  0.137170  0.659770  0.347190  1
  C  C638  1  0.855870  0.137170  0.347190  1
  C  C639  1  0.659770  0.855870  0.347190  1
  C  C640  1  0.862830  0.340230  0.652810  1
  C  C641  1  0.144130  0.862830  0.652810  1
  C  C642  1  0.340230  0.144130  0.652810  1
  C  C643  1  0.239640  0.675740  0.136680  1
  C  C644  1  0.947940  0.239640  0.136680  1
  C  C645  1  0.675740  0.947940  0.136680  1
  C  C646  1  0.760360  0.324260  0.863320  1
  C  C647  1  0.052060  0.760360  0.863320  1
  C  C648  1  0.324260  0.052060  0.863320  1
  C  C649  1  0.382880  0.556380  0.188460  1
  C  C650  1  0.872280  0.382880  0.188460  1
  C  C651  1  0.556380  0.872280  0.188460  1
  C  C652  1  0.617120  0.443620  0.811540  1
  C  C653  1  0.127720  0.617120  0.811540  1
  C  C654  1  0.443620  0.127720  0.811540  1
  C  C655  1  0.226170  0.505670  0.386190  1
  C  C656  1  0.881970  0.226170  0.386190  1
  C  C657  1  0.505670  0.881970  0.386190  1
  C  C658  1  0.773830  0.494330  0.613810  1
  C  C659  1  0.118030  0.773830  0.613810  1
  C  C660  1  0.494330  0.118030  0.613810  1
  C  C661  1  0.276050  0.701350  0.229350  1
  C  C662  1  0.793250  0.276050  0.229350  1
  C  C663  1  0.701350  0.793250  0.229350  1
  C  C664  1  0.723950  0.298650  0.770650  1
  C  C665  1  0.206750  0.723950  0.770650  1
  C  C666  1  0.298650  0.206750  0.770650  1
  C  C667  1  0.270910  0.325210  0.330570  1
  C  C668  1  0.073310  0.270910  0.330570  1
  C  C669  1  0.325210  0.073310  0.330570  1
  C  C670  1  0.729090  0.674790  0.669430  1
  C  C671  1  0.926690  0.729090  0.669430  1
  C  C672  1  0.674790  0.926690  0.669430  1
  C  C673  1  0.157870  0.704670  0.422790  1
  C  C674  1  0.714670  0.157870  0.422790  1
  C  C675  1  0.704670  0.714670  0.422790  1
  C  C676  1  0.842130  0.295330  0.577210  1
  C  C677  1  0.285330  0.842130  0.577210  1
  C  C678  1  0.295330  0.285330  0.577210  1
  C  C679  1  0.362940  0.687440  0.042780  1
  C  C680  1  0.906840  0.362940  0.042780  1
  C  C681  1  0.687440  0.906840  0.042780  1
  C  C682  1  0.637060  0.312560  0.957220  1
  C  C683  1  0.093160  0.637060  0.957220  1
  C  C684  1  0.312560  0.093160  0.957220  1
  C  C685  1  0.447980  0.653380  0.126360  1
  C  C686  1  0.772280  0.447980  0.126360  1
  C  C687  1  0.653380  0.772280  0.126360  1
  C  C688  1  0.552020  0.346620  0.873640  1
  C  C689  1  0.227720  0.552020  0.873640  1
  C  C690  1  0.346620  0.227720  0.873640  1
  C  C691  1  0.160000  0.555800  0.485400  1
  C  C692  1  0.798800  0.160000  0.485400  1
  C  C693  1  0.555800  0.798800  0.485400  1
  C  C694  1  0.840000  0.444200  0.514600  1
  C  C695  1  0.201200  0.840000  0.514600  1
  C  C696  1  0.444200  0.201200  0.514600  1
  C  C697  1  0.314610  0.788910  0.112170  1
  C  C698  1  0.784310  0.314610  0.112170  1
  C  C699  1  0.788910  0.784310  0.112170  1
  C  C700  1  0.685390  0.211090  0.887830  1
  C  C701  1  0.215690  0.685390  0.887830  1
  C  C702  1  0.211090  0.215690  0.887830  1
  C  C703  1  0.304580  0.280780  0.347760  1
  C  C704  1  0.066880  0.304580  0.347760  1
  C  C705  1  0.280780  0.066880  0.347760  1
  C  C706  1  0.695420  0.719220  0.652240  1
  C  C707  1  0.933120  0.695420  0.652240  1
  C  C708  1  0.719220  0.933120  0.652240  1
  C  C709  1  0.181350  0.709850  0.442350  1
  C  C710  1  0.666450  0.181350  0.442350  1
  C  C711  1  0.709850  0.666450  0.442350  1
  C  C712  1  0.818650  0.290150  0.557650  1
  C  C713  1  0.333550  0.818650  0.557650  1
  C  C714  1  0.290150  0.333550  0.557650  1
  C  C715  1  0.408970  0.683170  0.019590  1
  C  C716  1  0.888270  0.408970  0.019590  1
  C  C717  1  0.683170  0.888270  0.019590  1
  C  C718  1  0.591030  0.316830  0.980410  1
  C  C719  1  0.111730  0.591030  0.980410  1
  C  C720  1  0.316830  0.111730  0.980410  1
  C  C721  1  0.460160  0.694760  0.108420  1
  C  C722  1  0.736660  0.460160  0.108420  1
  C  C723  1  0.694760  0.736660  0.108420  1
  C  C724  1  0.539840  0.305240  0.891580  1
  C  C725  1  0.263340  0.539840  0.891580  1
  C  C726  1  0.305240  0.263340  0.891580  1
  C  C727  1  0.133840  0.583240  0.513480  1
  C  C728  1  0.769440  0.133840  0.513480  1
  C  C729  1  0.583240  0.769440  0.513480  1
  C  C730  1  0.866160  0.416760  0.486520  1
  C  C731  1  0.230560  0.866160  0.486520  1
  C  C732  1  0.416760  0.230560  0.486520  1
  C  C733  1  0.324760  0.811360  0.070920  1
  C  C734  1  0.792960  0.324760  0.070920  1
  C  C735  1  0.811360  0.792960  0.070920  1
  C  C736  1  0.675240  0.188640  0.929080  1
  C  C737  1  0.207040  0.675240  0.929080  1
  C  C738  1  0.188640  0.207040  0.929080  1
  C  C739  1  0.292630  0.251930  0.384810  1
  C  C740  1  0.070630  0.292630  0.384810  1
  C  C741  1  0.251930  0.070630  0.384810  1
  C  C742  1  0.707370  0.748070  0.615190  1
  C  C743  1  0.929370  0.707370  0.615190  1
  C  C744  1  0.748070  0.929370  0.615190  1
  C  C745  1  0.175590  0.752890  0.441030  1
  C  C746  1  0.630490  0.175590  0.441030  1
  C  C747  1  0.752890  0.630490  0.441030  1
  C  C748  1  0.824410  0.247110  0.558970  1
  C  C749  1  0.369510  0.824410  0.558970  1
  C  C750  1  0.247110  0.369510  0.558970  1
  C  C751  1  0.433820  0.666920  0.986140  1
  C  C752  1  0.913120  0.433820  0.986140  1
  C  C753  1  0.666920  0.913120  0.986140  1
  C  C754  1  0.566180  0.333080  0.013860  1
  C  C755  1  0.086880  0.566180  0.013860  1
  C  C756  1  0.333080  0.086880  0.013860  1
  C  C757  1  0.493850  0.695350  0.116550  1
  C  C758  1  0.694250  0.493850  0.116550  1
  C  C759  1  0.695350  0.694250  0.116550  1
  C  C760  1  0.506150  0.304650  0.883450  1
  C  C761  1  0.305750  0.506150  0.883450  1
  C  C762  1  0.304650  0.305750  0.883450  1
  C  C763  1  0.095830  0.576830  0.544110  1
  C  C764  1  0.783230  0.095830  0.544110  1
  C  C765  1  0.576830  0.783230  0.544110  1
  C  C766  1  0.904170  0.423170  0.455890  1
  C  C767  1  0.216770  0.904170  0.455890  1
  C  C768  1  0.423170  0.216770  0.455890  1
  C  C769  1  0.302170  0.857070  0.054090  1
  C  C770  1  0.786670  0.302170  0.054090  1
  C  C771  1  0.857070  0.786670  0.054090  1
  C  C772  1  0.697830  0.142930  0.945910  1
  C  C773  1  0.213330  0.697830  0.945910  1
  C  C774  1  0.142930  0.213330  0.945910  1
  C  C775  1  0.327970  0.211970  0.397290  1
  C  C776  1  0.062770  0.327970  0.397290  1
  C  C777  1  0.211970  0.062770  0.397290  1
  C  C778  1  0.672030  0.788030  0.602710  1
  C  C779  1  0.937230  0.672030  0.602710  1
  C  C780  1  0.788030  0.937230  0.602710  1
  C  C781  1  0.203180  0.752180  0.461460  1
  C  C782  1  0.583180  0.203180  0.461460  1
  C  C783  1  0.752180  0.583180  0.461460  1
  C  C784  1  0.796820  0.247820  0.538540  1
  C  C785  1  0.416820  0.796820  0.538540  1
  C  C786  1  0.247820  0.416820  0.538540  1
  C  C787  1  0.479970  0.658970  0.967690  1
  C  C788  1  0.893370  0.479970  0.967690  1
  C  C789  1  0.658970  0.893370  0.967690  1
  C  C790  1  0.520030  0.341030  0.032310  1
  C  C791  1  0.106630  0.520030  0.032310  1
  C  C792  1  0.341030  0.106630  0.032310  1
  C  C793  1  0.503200  0.736600  0.096900  1
  C  C794  1  0.663300  0.503200  0.096900  1
  C  C795  1  0.736600  0.663300  0.096900  1
  C  C796  1  0.496800  0.263400  0.903100  1
  C  C797  1  0.336700  0.496800  0.903100  1
  C  C798  1  0.263400  0.336700  0.903100  1
  C  C799  1  0.072960  0.607460  0.567720  1
  C  C800  1  0.751860  0.072960  0.567720  1
  C  C801  1  0.607460  0.751860  0.567720  1
  C  C802  1  0.927040  0.392540  0.432280  1
  C  C803  1  0.248140  0.927040  0.432280  1
  C  C804  1  0.392540  0.248140  0.432280  1
  C  C805  1  0.309840  0.875540  0.013380  1
  C  C806  1  0.801240  0.309840  0.013380  1
  C  C807  1  0.875540  0.801240  0.013380  1
  C  C808  1  0.690160  0.124460  0.986620  1
  C  C809  1  0.198760  0.690160  0.986620  1
  C  C810  1  0.124460  0.198760  0.986620  1
  C  C811  1  0.372740  0.202740  0.373080  1
  C  C812  1  0.051440  0.372740  0.373080  1
  C  C813  1  0.202740  0.051440  0.373080  1
  C  C814  1  0.627260  0.797260  0.626920  1
  C  C815  1  0.948560  0.627260  0.626920  1
  C  C816  1  0.797260  0.948560  0.626920  1
  C  C817  1  0.230740  0.710540  0.480480  1
  C  C818  1  0.578240  0.230740  0.480480  1
  C  C819  1  0.710540  0.578240  0.480480  1
  C  C820  1  0.769260  0.289460  0.519520  1
  C  C821  1  0.421760  0.769260  0.519520  1
  C  C822  1  0.289460  0.421760  0.519520  1
  C  C823  1  0.498860  0.671460  0.982720  1
  C  C824  1  0.846960  0.498860  0.982720  1
  C  C825  1  0.671460  0.846960  0.982720  1
  C  C826  1  0.501140  0.328540  0.017280  1
  C  C827  1  0.153040  0.501140  0.017280  1
  C  C828  1  0.328540  0.153040  0.017280  1
  C  C829  1  0.474300  0.772600  0.074100  1
  C  C830  1  0.679000  0.474300  0.074100  1
  C  C831  1  0.772600  0.679000  0.074100  1
  C  C832  1  0.525700  0.227400  0.925900  1
  C  C833  1  0.321000  0.525700  0.925900  1
  C  C834  1  0.227400  0.321000  0.925900  1
  C  C835  1  0.086490  0.639790  0.561630  1
  C  C836  1  0.712090  0.086490  0.561630  1
  C  C837  1  0.639790  0.712090  0.561630  1
  C  C838  1  0.913510  0.360210  0.438370  1
  C  C839  1  0.287910  0.913510  0.438370  1
  C  C840  1  0.360210  0.287910  0.438370  1
  C  C841  1  0.349080  0.843680  0.989260  1
  C  C842  1  0.817980  0.349080  0.989260  1
  C  C843  1  0.843680  0.817980  0.989260  1
  C  C844  1  0.650920  0.156320  0.010740  1
  C  C845  1  0.182020  0.650920  0.010740  1
  C  C846  1  0.156320  0.182020  0.010740  1
  C  C847  1  0.382480  0.233680  0.335460  1
  C  C848  1  0.048380  0.382480  0.335460  1
  C  C849  1  0.233680  0.048380  0.335460  1
  C  C850  1  0.617520  0.766320  0.664540  1
  C  C851  1  0.951620  0.617520  0.664540  1
  C  C852  1  0.766320  0.951620  0.664540  1
  C  C853  1  0.229640  0.670140  0.481380  1
  C  C854  1  0.618840  0.229640  0.481380  1
  C  C855  1  0.670140  0.618840  0.481380  1
  C  C856  1  0.770360  0.329860  0.518620  1
  C  C857  1  0.381160  0.770360  0.518620  1
  C  C858  1  0.329860  0.381160  0.518620  1
  C  C859  1  0.472400  0.690400  0.016500  1
  C  C860  1  0.820700  0.472400  0.016500  1
  C  C861  1  0.690400  0.820700  0.016500  1
  C  C862  1  0.527600  0.309600  0.983500  1
  C  C863  1  0.179300  0.527600  0.983500  1
  C  C864  1  0.309600  0.179300  0.983500  1
  C  C865  1  0.439190  0.769590  0.069030  1
  C  C866  1  0.722190  0.439190  0.069030  1
  C  C867  1  0.769590  0.722190  0.069030  1
  C  C868  1  0.560810  0.230410  0.930970  1
  C  C869  1  0.277810  0.560810  0.930970  1
  C  C870  1  0.230410  0.277810  0.930970  1
  C  C871  1  0.126490  0.642190  0.530130  1
  C  C872  1  0.701190  0.126490  0.530130  1
  C  C873  1  0.642190  0.701190  0.530130  1
  C  C874  1  0.873510  0.357810  0.469870  1
  C  C875  1  0.298810  0.873510  0.469870  1
  C  C876  1  0.357810  0.298810  0.469870  1
  C  C877  1  0.373260  0.797860  0.009420  1
  C  C878  1  0.819460  0.373260  0.009420  1
  C  C879  1  0.797860  0.819460  0.009420  1
  C  C880  1  0.626740  0.202140  0.990580  1
  C  C881  1  0.180540  0.626740  0.990580  1
  C  C882  1  0.202140  0.180540  0.990580  1
  C  C883  1  0.161800  0.364000  0.350100  1
  C  C884  1  0.124100  0.161800  0.350100  1
  C  C885  1  0.364000  0.124100  0.350100  1
  C  C886  1  0.838200  0.636000  0.649900  1
  C  C887  1  0.875900  0.838200  0.649900  1
  C  C888  1  0.636000  0.875900  0.649900  1
  C  C889  1  0.341700  0.451300  0.063600  1
  C  C890  1  0.143400  0.341700  0.063600  1
  C  C891  1  0.451300  0.143400  0.063600  1
  C  C892  1  0.658300  0.548700  0.936400  1
  C  C893  1  0.856600  0.658300  0.936400  1
  C  C894  1  0.548700  0.856600  0.936400  1
  C  C895  1  0.423700  0.782800  0.180300  1
  C  C896  1  0.613200  0.423700  0.180300  1
  C  C897  1  0.782800  0.613200  0.180300  1
  C  C898  1  0.576300  0.217200  0.819700  1
  C  C899  1  0.386800  0.576300  0.819700  1
  C  C900  1  0.217200  0.386800  0.819700  1
  C  C901  1  0.519100  0.414800  0.072300  1
  C  C902  1  0.993800  0.519100  0.072300  1
  C  C903  1  0.414800  0.993800  0.072300  1
  C  C904  1  0.480900  0.585200  0.927700  1
  C  C905  1  0.006200  0.480900  0.927700  1
  C  C906  1  0.585200  0.006200  0.927700  1
  C  C907  1  0.517700  0.651400  0.213300  1
  C  C908  1  0.617600  0.517700  0.213300  1
  C  C909  1  0.651400  0.617600  0.213300  1
  C  C910  1  0.482300  0.348600  0.786700  1
  C  C911  1  0.382400  0.482300  0.786700  1
  C  C912  1  0.348600  0.382400  0.786700  1
  C  C913  1  0.265400  0.507100  0.651300  1
  C  C914  1  0.576200  0.265400  0.651300  1
  C  C915  1  0.507100  0.576200  0.651300  1
  C  C916  1  0.734600  0.492900  0.348700  1
  C  C917  1  0.423800  0.734600  0.348700  1
  C  C918  1  0.492900  0.423800  0.348700  1
  C  C919  1  0.977000  0.839400  0.149100  1
  C  C920  1  0.034500  0.977000  0.149100  1
  C  C921  1  0.839400  0.034500  0.149100  1
  C  C922  1  0.023000  0.160600  0.850900  1
  C  C923  1  0.965500  0.023000  0.850900  1
  C  C924  1  0.160600  0.965500  0.850900  1
  C  C925  1  0.989500  0.812400  0.406500  1
  C  C926  1  0.791600  0.989500  0.406500  1
  C  C927  1  0.812400  0.791600  0.406500  1
  C  C928  1  0.010500  0.187600  0.593500  1
  C  C929  1  0.208400  0.010500  0.593500  1
  C  C930  1  0.187600  0.208400  0.593500  1
  C  C931  1  0.407800  0.584900  0.347100  1
  C  C932  1  0.660200  0.407800  0.347100  1
  C  C933  1  0.584900  0.660200  0.347100  1
  C  C934  1  0.592200  0.415100  0.652900  1
  C  C935  1  0.339800  0.592200  0.652900  1
  C  C936  1  0.415100  0.339800  0.652900  1
  C  C937  1  0.064800  0.883800  0.168600  1
  C  C938  1  0.882800  0.064800  0.168600  1
  C  C939  1  0.883800  0.882800  0.168600  1
  C  C940  1  0.935200  0.116200  0.831400  1
  C  C941  1  0.117200  0.935200  0.831400  1
  C  C942  1  0.116200  0.117200  0.831400  1
  C  C943  1  0.145400  0.915500  0.986200  1
  C  C944  1  0.952900  0.145400  0.986200  1
  C  C945  1  0.915500  0.952900  0.986200  1
  C  C946  1  0.854600  0.084500  0.013800  1
  C  C947  1  0.047100  0.854600  0.013800  1
  C  C948  1  0.084500  0.047100  0.013800  1
  C  C949  1  0.546300  0.502900  0.147000  1
  C  C950  1  0.803800  0.546300  0.147000  1
  C  C951  1  0.502900  0.803800  0.147000  1
  C  C952  1  0.453700  0.497100  0.853000  1
  C  C953  1  0.196200  0.453700  0.853000  1
  C  C954  1  0.497100  0.196200  0.853000  1
  C  C955  1  0.277100  0.434900  0.011700  1
  C  C956  1  0.276300  0.277100  0.011700  1
  C  C957  1  0.434900  0.276300  0.011700  1
  C  C958  1  0.722900  0.565100  0.988300  1
  C  C959  1  0.723700  0.722900  0.988300  1
  C  C960  1  0.565100  0.723700  0.988300  1
  C  C961  1  0.220000  0.392200  0.084000  1
  C  C962  1  0.303800  0.220000  0.084000  1
  C  C963  1  0.392200  0.303800  0.084000  1
  C  C964  1  0.780000  0.607800  0.916000  1
  C  C965  1  0.696200  0.780000  0.916000  1
  C  C966  1  0.607800  0.696200  0.916000  1
  C  C967  1  0.628100  0.751300  0.046800  1
  C  C968  1  0.573800  0.628100  0.046800  1
  C  C969  1  0.751300  0.573800  0.046800  1
  C  C970  1  0.371900  0.248700  0.953200  1
  C  C971  1  0.426200  0.371900  0.953200  1
  C  C972  1  0.248700  0.426200  0.953200  1
  C  C973  1  0.067100  0.775900  0.487500  1
  C  C974  1  0.669500  0.067100  0.487500  1
  C  C975  1  0.775900  0.669500  0.487500  1
  C  C976  1  0.932900  0.224100  0.512500  1
  C  C977  1  0.330500  0.932900  0.512500  1
  C  C978  1  0.224100  0.330500  0.512500  1
  C  C979  1  0.374800  0.378200  0.072300  1
  C  C980  1  0.174700  0.374800  0.072300  1
  C  C981  1  0.378200  0.174700  0.072300  1
  C  C982  1  0.625200  0.621800  0.927700  1
  C  C983  1  0.825300  0.625200  0.927700  1
  C  C984  1  0.621800  0.825300  0.927700  1
  C  C985  1  0.155100  0.934500  0.036900  1
  C  C986  1  0.873500  0.155100  0.036900  1
  C  C987  1  0.934500  0.873500  0.036900  1
  C  C988  1  0.844900  0.065500  0.963100  1
  C  C989  1  0.126500  0.844900  0.963100  1
  C  C990  1  0.065500  0.126500  0.963100  1
  Fe  Fe991  1  0.986708  0.686888  0.231996  1
  Fe  Fe992  1  0.094408  0.986708  0.231996  1
  Fe  Fe993  1  0.686888  0.094408  0.231996  1
  Fe  Fe994  1  0.013292  0.313112  0.768004  1
  Fe  Fe995  1  0.905592  0.013292  0.768004  1
  Fe  Fe996  1  0.313112  0.905592  0.768004  1
  Fe  Fe997  1  0.354977  0.320717  0.271839  1
  Fe  Fe998  1  0.052467  0.354977  0.271839  1
  Fe  Fe999  1  0.320717  0.052467  0.271839  1
  Fe  Fe1000  1  0.645023  0.679283  0.728161  1
  Fe  Fe1001  1  0.947533  0.645023  0.728161  1
  Fe  Fe1002  1  0.679283  0.947533  0.728161  1
  Fe  Fe1003  1  0.386057  0.718097  0.081609  1
  Fe  Fe1004  1  0.814237  0.386057  0.081609  1
  Fe  Fe1005  1  0.718097  0.814237  0.081609  1
  Fe  Fe1006  1  0.613943  0.281903  0.918391  1
  Fe  Fe1007  1  0.185763  0.613943  0.918391  1
  Fe  Fe1008  1  0.281903  0.185763  0.918391  1
  Fe  Fe1009  1  0.206512  0.614462  0.459864  1
  Fe  Fe1010  1  0.719162  0.206512  0.459864  1
  Fe  Fe1011  1  0.614462  0.719162  0.459864  1
  Fe  Fe1012  1  0.793488  0.385538  0.540136  1
  Fe  Fe1013  1  0.280838  0.793488  0.540136  1
  Fe  Fe1014  1  0.385538  0.280838  0.540136  1
  H  H1015  1  0.162600  0.627600  0.235500  1
  H  H1016  1  0.974300  0.162600  0.235500  1
  H  H1017  1  0.627600  0.974300  0.235500  1
  H  H1018  1  0.837400  0.372400  0.764500  1
  H  H1019  1  0.025700  0.837400  0.764500  1
  H  H1020  1  0.372400  0.025700  0.764500  1
  H  H1021  1  0.177100  0.646300  0.256800  1
  H  H1022  1  0.919800  0.177100  0.256800  1
  H  H1023  1  0.646300  0.919800  0.256800  1
  H  H1024  1  0.822900  0.353700  0.743200  1
  H  H1025  1  0.080200  0.822900  0.743200  1
  H  H1026  1  0.353700  0.080200  0.743200  1
  H  H1027  1  0.162500  0.602300  0.281100  1
  H  H1028  1  0.954100  0.162500  0.281100  1
  H  H1029  1  0.602300  0.954100  0.281100  1
  H  H1030  1  0.837500  0.397700  0.718900  1
  H  H1031  1  0.045900  0.837500  0.718900  1
  H  H1032  1  0.397700  0.045900  0.718900  1
  H  H1033  1  0.287300  0.546600  0.259200  1
  H  H1034  1  0.906900  0.287300  0.259200  1
  H  H1035  1  0.546600  0.906900  0.259200  1
  H  H1036  1  0.712700  0.453400  0.740800  1
  H  H1037  1  0.093100  0.712700  0.740800  1
  H  H1038  1  0.453400  0.093100  0.740800  1
  H  H1039  1  0.241600  0.548800  0.295800  1
  H  H1040  1  0.913800  0.241600  0.295800  1
  H  H1041  1  0.548800  0.913800  0.295800  1
  H  H1042  1  0.758400  0.451200  0.704200  1
  H  H1043  1  0.086200  0.758400  0.704200  1
  H  H1044  1  0.451200  0.086200  0.704200  1
  H  H1045  1  0.257700  0.591800  0.274200  1
  H  H1046  1  0.876300  0.257700  0.274200  1
  H  H1047  1  0.591800  0.876300  0.274200  1
  H  H1048  1  0.742300  0.408200  0.725800  1
  H  H1049  1  0.123700  0.742300  0.725800  1
  H  H1050  1  0.408200  0.123700  0.725800  1
  H  H1051  1  0.916900  0.771900  0.188100  1
  H  H1052  1  0.123100  0.916900  0.188100  1
  H  H1053  1  0.771900  0.123100  0.188100  1
  H  H1054  1  0.083100  0.228100  0.811900  1
  H  H1055  1  0.876900  0.083100  0.811900  1
  H  H1056  1  0.228100  0.876900  0.811900  1
  H  H1057  1  0.925100  0.669700  0.206100  1
  H  H1058  1  0.199100  0.925100  0.206100  1
  H  H1059  1  0.669700  0.199100  0.206100  1
  H  H1060  1  0.074900  0.330300  0.793900  1
  H  H1061  1  0.800900  0.074900  0.793900  1
  H  H1062  1  0.330300  0.800900  0.793900  1
  H  H1063  1  0.883900  0.712100  0.281100  1
  H  H1064  1  0.122900  0.883900  0.281100  1
  H  H1065  1  0.712100  0.122900  0.281100  1
  H  H1066  1  0.116100  0.287900  0.718900  1
  H  H1067  1  0.877100  0.116100  0.718900  1
  H  H1068  1  0.287900  0.877100  0.718900  1
  H  H1069  1  0.334000  0.237100  0.286800  1
  H  H1070  1  0.142100  0.334000  0.286800  1
  H  H1071  1  0.237100  0.142100  0.286800  1
  H  H1072  1  0.666000  0.762900  0.713200  1
  H  H1073  1  0.857900  0.666000  0.713200  1
  H  H1074  1  0.762900  0.857900  0.713200  1
  H  H1075  1  0.429200  0.249700  0.223500  1
  H  H1076  1  0.097600  0.429200  0.223500  1
  H  H1077  1  0.249700  0.097600  0.223500  1
  H  H1078  1  0.570800  0.750300  0.776500  1
  H  H1079  1  0.902400  0.570800  0.776500  1
  H  H1080  1  0.750300  0.902400  0.776500  1
  H  H1081  1  0.202500  0.559100  0.549000  1
  H  H1082  1  0.689400  0.202500  0.549000  1
  H  H1083  1  0.559100  0.689400  0.549000  1
  H  H1084  1  0.797500  0.440900  0.451000  1
  H  H1085  1  0.310600  0.797500  0.451000  1
  H  H1086  1  0.440900  0.310600  0.451000  1
  H  H1087  1  0.909500  0.803000  0.125100  1
  H  H1088  1  0.162400  0.909500  0.125100  1
  H  H1089  1  0.803000  0.162400  0.125100  1
  H  H1090  1  0.090500  0.197000  0.874900  1
  H  H1091  1  0.837600  0.090500  0.874900  1
  H  H1092  1  0.197000  0.837600  0.874900  1
  H  H1093  1  0.878000  0.628300  0.237600  1
  H  H1094  1  0.256100  0.878000  0.237600  1
  H  H1095  1  0.628300  0.256100  0.237600  1
  H  H1096  1  0.122000  0.371700  0.762400  1
  H  H1097  1  0.743900  0.122000  0.762400  1
  H  H1098  1  0.371700  0.743900  0.762400  1
  H  H1099  1  0.824600  0.778800  0.303300  1
  H  H1100  1  0.093300  0.824600  0.303300  1
  H  H1101  1  0.778800  0.093300  0.303300  1
  H  H1102  1  0.175400  0.221200  0.696700  1
  H  H1103  1  0.906700  0.175400  0.696700  1
  H  H1104  1  0.221200  0.906700  0.696700  1
  H  H1105  1  0.322700  0.209800  0.249300  1
  H  H1106  1  0.218200  0.322700  0.249300  1
  H  H1107  1  0.209800  0.218200  0.249300  1
  H  H1108  1  0.677300  0.790200  0.750700  1
  H  H1109  1  0.781800  0.677300  0.750700  1
  H  H1110  1  0.790200  0.781800  0.750700  1
  H  H1111  1  0.508700  0.218900  0.201300  1
  H  H1112  1  0.071100  0.508700  0.201300  1
  H  H1113  1  0.218900  0.071100  0.201300  1
  H  H1114  1  0.491300  0.781100  0.798700  1
  H  H1115  1  0.928900  0.491300  0.798700  1
  H  H1116  1  0.781100  0.928900  0.798700  1
  H  H1117  1  0.260000  0.505500  0.582600  1
  H  H1118  1  0.651900  0.260000  0.582600  1
  H  H1119  1  0.505500  0.651900  0.582600  1
  H  H1120  1  0.740000  0.494500  0.417400  1
  H  H1121  1  0.348100  0.740000  0.417400  1
  H  H1122  1  0.494500  0.348100  0.417400  1
  H  H1123  1  0.960800  0.762900  0.079500  1
  H  H1124  1  0.196800  0.960800  0.079500  1
  H  H1125  1  0.762900  0.196800  0.079500  1
  H  H1126  1  0.039200  0.237100  0.920500  1
  H  H1127  1  0.803200  0.039200  0.920500  1
  H  H1128  1  0.237100  0.803200  0.920500  1
  H  H1129  1  0.877800  0.578100  0.300900  1
  H  H1130  1  0.243200  0.877800  0.300900  1
  H  H1131  1  0.578100  0.243200  0.300900  1
  H  H1132  1  0.122200  0.421900  0.699100  1
  H  H1133  1  0.756800  0.122200  0.699100  1
  H  H1134  1  0.421900  0.756800  0.699100  1
  H  H1135  1  0.843400  0.834900  0.296100  1
  H  H1136  1  0.025600  0.843400  0.296100  1
  H  H1137  1  0.834900  0.025600  0.296100  1
  H  H1138  1  0.156600  0.165100  0.703900  1
  H  H1139  1  0.974400  0.156600  0.703900  1
  H  H1140  1  0.165100  0.974400  0.703900  1
  H  H1141  1  0.325300  0.250500  0.182700  1
  H  H1142  1  0.241500  0.325300  0.182700  1
  H  H1143  1  0.250500  0.241500  0.182700  1
  H  H1144  1  0.674700  0.749500  0.817300  1
  H  H1145  1  0.758500  0.674700  0.817300  1
  H  H1146  1  0.749500  0.758500  0.817300  1
  H  H1147  1  0.551900  0.240600  0.216000  1
  H  H1148  1  0.991500  0.551900  0.216000  1
  H  H1149  1  0.240600  0.991500  0.216000  1
  H  H1150  1  0.448100  0.759400  0.784000  1
  H  H1151  1  0.008500  0.448100  0.784000  1
  H  H1152  1  0.759400  0.008500  0.784000  1
  H  H1153  1  0.333100  0.489300  0.551700  1
  H  H1154  1  0.625900  0.333100  0.551700  1
  H  H1155  1  0.489300  0.625900  0.551700  1
  H  H1156  1  0.666900  0.510700  0.448300  1
  H  H1157  1  0.374100  0.666900  0.448300  1
  H  H1158  1  0.510700  0.374100  0.448300  1
  H  H1159  1  0.021700  0.695200  0.094500  1
  H  H1160  1  0.188600  0.021700  0.094500  1
  H  H1161  1  0.695200  0.188600  0.094500  1
  H  H1162  1  0.978300  0.304800  0.905500  1
  H  H1163  1  0.811400  0.978300  0.905500  1
  H  H1164  1  0.304800  0.811400  0.905500  1
  H  H1165  1  0.920100  0.575100  0.336600  1
  H  H1166  1  0.168200  0.920100  0.336600  1
  H  H1167  1  0.575100  0.168200  0.336600  1
  H  H1168  1  0.079900  0.424900  0.663400  1
  H  H1169  1  0.831800  0.079900  0.663400  1
  H  H1170  1  0.424900  0.831800  0.663400  1
  H  H1171  1  0.922500  0.831100  0.263100  1
  H  H1172  1  0.983300  0.922500  0.263100  1
  H  H1173  1  0.831100  0.983300  0.263100  1
  H  H1174  1  0.077500  0.168900  0.736900  1
  H  H1175  1  0.016700  0.077500  0.736900  1
  H  H1176  1  0.168900  0.016700  0.736900  1
  H  H1177  1  0.339900  0.318600  0.156000  1
  H  H1178  1  0.185500  0.339900  0.156000  1
  H  H1179  1  0.318600  0.185500  0.156000  1
  H  H1180  1  0.660100  0.681400  0.844000  1
  H  H1181  1  0.814500  0.660100  0.844000  1
  H  H1182  1  0.681400  0.814500  0.844000  1
  H  H1183  1  0.513900  0.290600  0.255000  1
  H  H1184  1  0.940500  0.513900  0.255000  1
  H  H1185  1  0.290600  0.940500  0.255000  1
  H  H1186  1  0.486100  0.709400  0.745000  1
  H  H1187  1  0.059500  0.486100  0.745000  1
  H  H1188  1  0.709400  0.059500  0.745000  1
  H  H1189  1  0.360500  0.515100  0.477600  1
  H  H1190  1  0.646800  0.360500  0.477600  1
  H  H1191  1  0.515100  0.646800  0.477600  1
  H  H1192  1  0.639500  0.484900  0.522400  1
  H  H1193  1  0.353200  0.639500  0.522400  1
  H  H1194  1  0.484900  0.353200  0.522400  1
  H  H1195  1  0.063100  0.633400  0.150900  1
  H  H1196  1  0.152600  0.063100  0.150900  1
  H  H1197  1  0.633400  0.152600  0.150900  1
  H  H1198  1  0.936900  0.366600  0.849100  1
  H  H1199  1  0.847400  0.936900  0.849100  1
  H  H1200  1  0.366600  0.847400  0.849100  1
  H  H1201  1  0.979100  0.602800  0.331500  1
  H  H1202  1  0.086600  0.979100  0.331500  1
  H  H1203  1  0.602800  0.086600  0.331500  1
  H  H1204  1  0.020900  0.397200  0.668500  1
  H  H1205  1  0.913400  0.020900  0.668500  1
  H  H1206  1  0.397200  0.913400  0.668500  1
  H  H1207  1  0.998400  0.793700  0.218400  1
  H  H1208  1  0.989500  0.998400  0.218400  1
  H  H1209  1  0.793700  0.989500  0.218400  1
  H  H1210  1  0.001600  0.206300  0.781600  1
  H  H1211  1  0.010500  0.001600  0.781600  1
  H  H1212  1  0.206300  0.010500  0.781600  1
  H  H1213  1  0.352400  0.379400  0.167700  1
  H  H1214  1  0.100500  0.352400  0.167700  1
  H  H1215  1  0.379400  0.100500  0.167700  1
  H  H1216  1  0.647600  0.620600  0.832300  1
  H  H1217  1  0.899500  0.647600  0.832300  1
  H  H1218  1  0.620600  0.899500  0.832300  1
  H  H1219  1  0.435000  0.341100  0.293700  1
  H  H1220  1  0.930200  0.435000  0.293700  1
  H  H1221  1  0.341100  0.930200  0.293700  1
  H  H1222  1  0.565000  0.658900  0.706300  1
  H  H1223  1  0.069800  0.565000  0.706300  1
  H  H1224  1  0.658900  0.069800  0.706300  1
  H  H1225  1  0.331200  0.576800  0.413400  1
  H  H1226  1  0.678600  0.331200  0.413400  1
  H  H1227  1  0.576800  0.678600  0.413400  1
  H  H1228  1  0.668800  0.423200  0.586600  1
  H  H1229  1  0.321400  0.668800  0.586600  1
  H  H1230  1  0.423200  0.321400  0.586600  1
  H  H1231  1  0.035400  0.567000  0.258600  1
  H  H1232  1  0.139000  0.035400  0.258600  1
  H  H1233  1  0.567000  0.139000  0.258600  1
  H  H1234  1  0.964600  0.433000  0.741400  1
  H  H1235  1  0.861000  0.964600  0.741400  1
  H  H1236  1  0.433000  0.861000  0.741400  1
  H  H1237  1  0.994600  0.718100  0.297600  1
  H  H1238  1  0.989700  0.994600  0.297600  1
  H  H1239  1  0.718100  0.989700  0.297600  1
  H  H1240  1  0.005400  0.281900  0.702400  1
  H  H1241  1  0.010300  0.005400  0.702400  1
  H  H1242  1  0.281900  0.010300  0.702400  1
  H  H1243  1  0.066400  0.721100  0.146700  1
  H  H1244  1  0.065800  0.066400  0.146700  1
  H  H1245  1  0.721100  0.065800  0.146700  1
  H  H1246  1  0.933600  0.278900  0.853300  1
  H  H1247  1  0.934200  0.933600  0.853300  1
  H  H1248  1  0.278900  0.934200  0.853300  1
  H  H1249  1  0.430000  0.378600  0.207900  1
  H  H1250  1  0.983500  0.430000  0.207900  1
  H  H1251  1  0.378600  0.983500  0.207900  1
  H  H1252  1  0.570000  0.621400  0.792100  1
  H  H1253  1  0.016500  0.570000  0.792100  1
  H  H1254  1  0.621400  0.016500  0.792100  1
  H  H1255  1  0.313900  0.342900  0.359400  1
  H  H1256  1  0.983800  0.313900  0.359400  1
  H  H1257  1  0.342900  0.983800  0.359400  1
  H  H1258  1  0.686100  0.657100  0.640600  1
  H  H1259  1  0.016200  0.686100  0.640600  1
  H  H1260  1  0.657100  0.016200  0.640600  1
  H  H1261  1  0.244400  0.692300  0.378000  1
  H  H1262  1  0.685300  0.244400  0.378000  1
  H  H1263  1  0.692300  0.685300  0.378000  1
  H  H1264  1  0.755600  0.307700  0.622000  1
  H  H1265  1  0.314700  0.755600  0.622000  1
  H  H1266  1  0.307700  0.314700  0.622000  1
  H  H1267  1  0.188000  0.557000  0.201000  1
  H  H1268  1  0.054000  0.188000  0.201000  1
  H  H1269  1  0.557000  0.054000  0.201000  1
  H  H1270  1  0.812000  0.443000  0.799000  1
  H  H1271  1  0.946000  0.812000  0.799000  1
  H  H1272  1  0.443000  0.946000  0.799000  1
  H  H1273  1  0.105000  0.582400  0.349500  1
  H  H1274  1  0.963100  0.105000  0.349500  1
  H  H1275  1  0.582400  0.963100  0.349500  1
  H  H1276  1  0.895000  0.417600  0.650500  1
  H  H1277  1  0.036900  0.895000  0.650500  1
  H  H1278  1  0.417600  0.036900  0.650500  1
  H  H1279  1  0.151100  0.731800  0.201600  1
  H  H1280  1  0.915500  0.151100  0.201600  1
  H  H1281  1  0.731800  0.915500  0.201600  1
  H  H1282  1  0.848900  0.268200  0.798400  1
  H  H1283  1  0.084500  0.848900  0.798400  1
  H  H1284  1  0.268200  0.084500  0.798400  1
  H  H1285  1  0.313500  0.521600  0.180300  1
  H  H1286  1  0.984600  0.313500  0.180300  1
  H  H1287  1  0.521600  0.984600  0.180300  1
  H  H1288  1  0.686500  0.478400  0.819700  1
  H  H1289  1  0.015400  0.686500  0.819700  1
  H  H1290  1  0.478400  0.015400  0.819700  1
  H  H1291  1  0.333800  0.480900  0.313500  1
  H  H1292  1  0.871800  0.333800  0.313500  1
  H  H1293  1  0.480900  0.871800  0.313500  1
  H  H1294  1  0.666200  0.519100  0.686500  1
  H  H1295  1  0.128200  0.666200  0.686500  1
  H  H1296  1  0.519100  0.128200  0.686500  1
  H  H1297  1  0.328400  0.600100  0.293100  1
  H  H1298  1  0.778400  0.328400  0.293100  1
  H  H1299  1  0.600100  0.778400  0.293100  1
  H  H1300  1  0.671600  0.399900  0.706900  1
  H  H1301  1  0.221600  0.671600  0.706900  1
  H  H1302  1  0.399900  0.221600  0.706900  1
  H  H1303  1  0.129200  0.624800  0.178200  1
  H  H1304  1  0.067800  0.129200  0.178200  1
  H  H1305  1  0.624800  0.067800  0.178200  1
  H  H1306  1  0.870800  0.375200  0.821800  1
  H  H1307  1  0.932200  0.870800  0.821800  1
  H  H1308  1  0.375200  0.932200  0.821800  1
  H  H1309  1  0.066500  0.583000  0.312600  1
  H  H1310  1  0.037900  0.066500  0.312600  1
  H  H1311  1  0.583000  0.037900  0.312600  1
  H  H1312  1  0.933500  0.417000  0.687400  1
  H  H1313  1  0.962100  0.933500  0.687400  1
  H  H1314  1  0.417000  0.962100  0.687400  1
  H  H1315  1  0.079900  0.730600  0.237900  1
  H  H1316  1  0.951600  0.079900  0.237900  1
  H  H1317  1  0.730600  0.951600  0.237900  1
  H  H1318  1  0.920100  0.269400  0.762100  1
  H  H1319  1  0.048400  0.920100  0.762100  1
  H  H1320  1  0.269400  0.048400  0.762100  1
  H  H1321  1  0.297500  0.455300  0.204300  1
  H  H1322  1  0.042900  0.297500  0.204300  1
  H  H1323  1  0.455300  0.042900  0.204300  1
  H  H1324  1  0.702500  0.544700  0.795700  1
  H  H1325  1  0.957100  0.702500  0.795700  1
  H  H1326  1  0.544700  0.957100  0.795700  1
  H  H1327  1  0.375200  0.430500  0.274200  1
  H  H1328  1  0.920100  0.375200  0.274200  1
  H  H1329  1  0.430500  0.920100  0.274200  1
  H  H1330  1  0.624800  0.569500  0.725800  1
  H  H1331  1  0.079900  0.624800  0.725800  1
  H  H1332  1  0.569500  0.079900  0.725800  1
  H  H1333  1  0.307000  0.565700  0.361500  1
  H  H1334  1  0.765800  0.307000  0.361500  1
  H  H1335  1  0.565700  0.765800  0.361500  1
  H  H1336  1  0.693000  0.434300  0.638500  1
  H  H1337  1  0.234200  0.693000  0.638500  1
  H  H1338  1  0.434300  0.234200  0.638500  1
  H  H1339  1  0.262500  0.380300  0.232800  1
  H  H1340  1  0.124400  0.262500  0.232800  1
  H  H1341  1  0.380300  0.124400  0.232800  1
  H  H1342  1  0.737500  0.619700  0.767200  1
  H  H1343  1  0.875600  0.737500  0.767200  1
  H  H1344  1  0.619700  0.875600  0.767200  1
  H  H1345  1  0.095700  0.640500  0.454500  1
  H  H1346  1  0.809300  0.095700  0.454500  1
  H  H1347  1  0.640500  0.809300  0.454500  1
  H  H1348  1  0.904300  0.359500  0.545500  1
  H  H1349  1  0.190700  0.904300  0.545500  1
  H  H1350  1  0.359500  0.190700  0.545500  1
  H  H1351  1  0.270600  0.777700  0.073500  1
  H  H1352  1  0.878200  0.270600  0.073500  1
  H  H1353  1  0.777700  0.878200  0.073500  1
  H  H1354  1  0.729400  0.222300  0.926500  1
  H  H1355  1  0.121800  0.729400  0.926500  1
  H  H1356  1  0.222300  0.121800  0.926500  1
  H  H1357  1  0.416400  0.611700  0.081300  1
  H  H1358  1  0.890600  0.416400  0.081300  1
  H  H1359  1  0.611700  0.890600  0.081300  1
  H  H1360  1  0.583600  0.388300  0.918700  1
  H  H1361  1  0.109400  0.583600  0.918700  1
  H  H1362  1  0.388300  0.109400  0.918700  1
  H  H1363  1  0.282800  0.510400  0.444600  1
  H  H1364  1  0.762200  0.282800  0.444600  1
  H  H1365  1  0.510400  0.762200  0.444600  1
  H  H1366  1  0.717200  0.489600  0.555400  1
  H  H1367  1  0.237800  0.717200  0.555400  1
  H  H1368  1  0.489600  0.237800  0.555400  1
  H  H1369  1  0.388300  0.711700  0.171300  1
  H  H1370  1  0.728700  0.388300  0.171300  1
  H  H1371  1  0.711700  0.728700  0.171300  1
  H  H1372  1  0.611700  0.288300  0.828700  1
  H  H1373  1  0.271300  0.611700  0.828700  1
  H  H1374  1  0.288300  0.271300  0.828700  1
  H  H1375  1  0.236500  0.422100  0.324900  1
  H  H1376  1  0.016500  0.236500  0.324900  1
  H  H1377  1  0.422100  0.016500  0.324900  1
  H  H1378  1  0.763500  0.577900  0.675100  1
  H  H1379  1  0.983500  0.763500  0.675100  1
  H  H1380  1  0.577900  0.983500  0.675100  1
  H  H1381  1  0.188600  0.671700  0.350100  1
  H  H1382  1  0.789600  0.188600  0.350100  1
  H  H1383  1  0.671700  0.789600  0.350100  1
  H  H1384  1  0.811400  0.328300  0.649900  1
  H  H1385  1  0.210400  0.811400  0.649900  1
  H  H1386  1  0.328300  0.210400  0.649900  1
  H  H1387  1  0.307600  0.639600  0.123300  1
  H  H1388  1  0.929500  0.307600  0.123300  1
  H  H1389  1  0.639600  0.929500  0.123300  1
  H  H1390  1  0.692400  0.360400  0.876700  1
  H  H1391  1  0.070500  0.692400  0.876700  1
  H  H1392  1  0.360400  0.070500  0.876700  1
  H  H1393  1  0.384600  0.612000  0.191400  1
  H  H1394  1  0.812000  0.384600  0.191400  1
  H  H1395  1  0.612000  0.812000  0.191400  1
  H  H1396  1  0.615400  0.388000  0.808600  1
  H  H1397  1  0.188000  0.615400  0.808600  1
  H  H1398  1  0.388000  0.188000  0.808600  1
  H  H1399  1  0.171000  0.555100  0.409800  1
  H  H1400  1  0.864100  0.171000  0.409800  1
  H  H1401  1  0.555100  0.864100  0.409800  1
  H  H1402  1  0.829000  0.444900  0.590200  1
  H  H1403  1  0.135900  0.829000  0.590200  1
  H  H1404  1  0.444900  0.135900  0.590200  1
  H  H1405  1  0.263600  0.727900  0.175500  1
  H  H1406  1  0.833000  0.263600  0.175500  1
  H  H1407  1  0.727900  0.833000  0.175500  1
  H  H1408  1  0.736400  0.272100  0.824500  1
  H  H1409  1  0.167000  0.736400  0.824500  1
  H  H1410  1  0.272100  0.167000  0.824500  1
  H  H1411  1  0.179600  0.490000  0.301500  1
  H  H1412  1  0.028900  0.179600  0.301500  1
  H  H1413  1  0.490000  0.028900  0.301500  1
  H  H1414  1  0.820400  0.510000  0.698500  1
  H  H1415  1  0.971100  0.820400  0.698500  1
  H  H1416  1  0.510000  0.971100  0.698500  1
  H  H1417  1  0.148600  0.663500  0.319500  1
  H  H1418  1  0.868400  0.148600  0.319500  1
  H  H1419  1  0.663500  0.868400  0.319500  1
  H  H1420  1  0.851400  0.336500  0.680500  1
  H  H1421  1  0.131600  0.851400  0.680500  1
  H  H1422  1  0.336500  0.131600  0.680500  1
  H  H1423  1  0.231500  0.649500  0.153000  1
  H  H1424  1  0.966000  0.231500  0.153000  1
  H  H1425  1  0.649500  0.966000  0.153000  1
  H  H1426  1  0.768500  0.350500  0.847000  1
  H  H1427  1  0.034000  0.768500  0.847000  1
  H  H1428  1  0.350500  0.034000  0.847000  1
  H  H1429  1  0.375600  0.542400  0.216300  1
  H  H1430  1  0.865700  0.375600  0.216300  1
  H  H1431  1  0.542400  0.865700  0.216300  1
  H  H1432  1  0.624400  0.457600  0.783700  1
  H  H1433  1  0.134300  0.624400  0.783700  1
  H  H1434  1  0.457600  0.134300  0.783700  1
  H  H1435  1  0.211000  0.504900  0.371700  1
  H  H1436  1  0.912400  0.211000  0.371700  1
  H  H1437  1  0.504900  0.912400  0.371700  1
  H  H1438  1  0.789000  0.495100  0.628300  1
  H  H1439  1  0.087600  0.789000  0.628300  1
  H  H1440  1  0.495100  0.087600  0.628300  1
  H  H1441  1  0.246800  0.699000  0.244200  1
  H  H1442  1  0.810000  0.246800  0.244200  1
  H  H1443  1  0.699000  0.810000  0.244200  1
  H  H1444  1  0.753200  0.301000  0.755800  1
  H  H1445  1  0.190000  0.753200  0.755800  1
  H  H1446  1  0.301000  0.190000  0.755800  1
  H  H1447  1  0.238800  0.335100  0.344100  1
  H  H1448  1  0.082000  0.238800  0.344100  1
  H  H1449  1  0.335100  0.082000  0.344100  1
  H  H1450  1  0.761200  0.664900  0.655900  1
  H  H1451  1  0.918000  0.761200  0.655900  1
  H  H1452  1  0.664900  0.918000  0.655900  1
  H  H1453  1  0.136900  0.730600  0.408900  1
  H  H1454  1  0.723600  0.136900  0.408900  1
  H  H1455  1  0.730600  0.723600  0.408900  1
  H  H1456  1  0.863100  0.269400  0.591100  1
  H  H1457  1  0.276400  0.863100  0.591100  1
  H  H1458  1  0.269400  0.276400  0.591100  1
  H  H1459  1  0.346000  0.679300  0.035400  1
  H  H1460  1  0.939300  0.346000  0.035400  1
  H  H1461  1  0.679300  0.939300  0.035400  1
  H  H1462  1  0.654000  0.320700  0.964600  1
  H  H1463  1  0.060700  0.654000  0.964600  1
  H  H1464  1  0.320700  0.060700  0.964600  1
  H  H1465  1  0.463500  0.625800  0.143700  1
  H  H1466  1  0.767000  0.463500  0.143700  1
  H  H1467  1  0.625800  0.767000  0.143700  1
  H  H1468  1  0.536500  0.374200  0.856300  1
  H  H1469  1  0.233000  0.536500  0.856300  1
  H  H1470  1  0.374200  0.233000  0.856300  1
  H  H1471  1  0.150800  0.533800  0.486300  1
  H  H1472  1  0.829100  0.150800  0.486300  1
  H  H1473  1  0.533800  0.829100  0.486300  1
  H  H1474  1  0.849200  0.466200  0.513700  1
  H  H1475  1  0.170900  0.849200  0.513700  1
  H  H1476  1  0.466200  0.170900  0.513700  1
  H  H1477  1  0.290500  0.805800  0.130200  1
  H  H1478  1  0.773500  0.290500  0.130200  1
  H  H1479  1  0.805800  0.773500  0.130200  1
  H  H1480  1  0.709500  0.194200  0.869800  1
  H  H1481  1  0.226500  0.709500  0.869800  1
  H  H1482  1  0.194200  0.226500  0.869800  1
  H  H1483  1  0.261500  0.259000  0.401100  1
  H  H1484  1  0.078400  0.261500  0.401100  1
  H  H1485  1  0.259000  0.078400  0.401100  1
  H  H1486  1  0.738500  0.741000  0.598900  1
  H  H1487  1  0.921600  0.738500  0.598900  1
  H  H1488  1  0.741000  0.921600  0.598900  1
  H  H1489  1  0.155400  0.781000  0.427800  1
  H  H1490  1  0.635800  0.155400  0.427800  1
  H  H1491  1  0.781000  0.635800  0.427800  1
  H  H1492  1  0.844600  0.219000  0.572200  1
  H  H1493  1  0.364200  0.844600  0.572200  1
  H  H1494  1  0.219000  0.364200  0.572200  1
  H  H1495  1  0.418100  0.660900  0.975700  1
  H  H1496  1  0.945300  0.418100  0.975700  1
  H  H1497  1  0.660900  0.945300  0.975700  1
  H  H1498  1  0.581900  0.339100  0.024300  1
  H  H1499  1  0.054700  0.581900  0.024300  1
  H  H1500  1  0.339100  0.054700  0.024300  1
  H  H1501  1  0.510300  0.669600  0.134400  1
  H  H1502  1  0.685700  0.510300  0.134400  1
  H  H1503  1  0.669600  0.685700  0.134400  1
  H  H1504  1  0.489700  0.330400  0.865600  1
  H  H1505  1  0.314300  0.489700  0.865600  1
  H  H1506  1  0.330400  0.314300  0.865600  1
  H  H1507  1  0.085700  0.553600  0.549000  1
  H  H1508  1  0.811700  0.085700  0.549000  1
  H  H1509  1  0.553600  0.811700  0.549000  1
  H  H1510  1  0.914300  0.446400  0.451000  1
  H  H1511  1  0.188300  0.914300  0.451000  1
  H  H1512  1  0.446400  0.188300  0.451000  1
  H  H1513  1  0.280600  0.876600  0.070800  1
  H  H1514  1  0.772000  0.280600  0.070800  1
  H  H1515  1  0.876600  0.772000  0.070800  1
  H  H1516  1  0.719400  0.123400  0.929200  1
  H  H1517  1  0.228000  0.719400  0.929200  1
  H  H1518  1  0.123400  0.228000  0.929200  1
  H  H1519  1  0.321300  0.190900  0.422700  1
  H  H1520  1  0.065100  0.321300  0.422700  1
  H  H1521  1  0.190900  0.065100  0.422700  1
  H  H1522  1  0.678700  0.809100  0.577300  1
  H  H1523  1  0.934900  0.678700  0.577300  1
  H  H1524  1  0.809100  0.934900  0.577300  1
  H  H1525  1  0.201600  0.780300  0.461400  1
  H  H1526  1  0.556700  0.201600  0.461400  1
  H  H1527  1  0.780300  0.556700  0.461400  1
  H  H1528  1  0.798400  0.219700  0.538600  1
  H  H1529  1  0.443300  0.798400  0.538600  1
  H  H1530  1  0.219700  0.443300  0.538600  1
  H  H1531  1  0.497100  0.646000  0.946000  1
  H  H1532  1  0.910900  0.497100  0.946000  1
  H  H1533  1  0.646000  0.910900  0.946000  1
  H  H1534  1  0.502900  0.354000  0.054000  1
  H  H1535  1  0.089100  0.502900  0.054000  1
  H  H1536  1  0.354000  0.089100  0.054000  1
  H  H1537  1  0.527500  0.739300  0.099600  1
  H  H1538  1  0.633600  0.527500  0.099600  1
  H  H1539  1  0.739300  0.633600  0.099600  1
  H  H1540  1  0.472500  0.260700  0.900400  1
  H  H1541  1  0.366400  0.472500  0.900400  1
  H  H1542  1  0.260700  0.366400  0.900400  1
  H  H1543  1  0.046400  0.604500  0.589200  1
  H  H1544  1  0.759900  0.046400  0.589200  1
  H  H1545  1  0.604500  0.759900  0.589200  1
  H  H1546  1  0.953600  0.395500  0.410800  1
  H  H1547  1  0.240100  0.953600  0.410800  1
  H  H1548  1  0.395500  0.240100  0.410800  1
  H  H1549  1  0.291700  0.906200  0.001500  1
  H  H1550  1  0.800600  0.291700  0.001500  1
  H  H1551  1  0.906200  0.800600  0.001500  1
  H  H1552  1  0.708300  0.093800  0.998500  1
  H  H1553  1  0.199400  0.708300  0.998500  1
  H  H1554  1  0.093800  0.199400  0.998500  1
  H  H1555  1  0.397000  0.175400  0.381900  1
  H  H1556  1  0.045700  0.397000  0.381900  1
  H  H1557  1  0.175400  0.045700  0.381900  1
  H  H1558  1  0.603000  0.824600  0.618100  1
  H  H1559  1  0.954300  0.603000  0.618100  1
  H  H1560  1  0.824600  0.954300  0.618100  1
  H  H1561  1  0.250100  0.708800  0.492600  1
  H  H1562  1  0.548500  0.250100  0.492600  1
  H  H1563  1  0.708800  0.548500  0.492600  1
  H  H1564  1  0.749900  0.291200  0.507400  1
  H  H1565  1  0.451500  0.749900  0.507400  1
  H  H1566  1  0.291200  0.451500  0.507400  1
  H  H1567  1  0.530500  0.667600  0.970900  1
  H  H1568  1  0.831000  0.530500  0.970900  1
  H  H1569  1  0.667600  0.831000  0.970900  1
  H  H1570  1  0.469500  0.332400  0.029100  1
  H  H1571  1  0.169000  0.469500  0.029100  1
  H  H1572  1  0.332400  0.169000  0.029100  1
  H  H1573  1  0.479100  0.801000  0.060900  1
  H  H1574  1  0.659000  0.479100  0.060900  1
  H  H1575  1  0.801000  0.659000  0.060900  1
  H  H1576  1  0.520900  0.199000  0.939100  1
  H  H1577  1  0.341000  0.520900  0.939100  1
  H  H1578  1  0.199000  0.341000  0.939100  1
  H  H1579  1  0.070200  0.660300  0.577500  1
  H  H1580  1  0.692000  0.070200  0.577500  1
  H  H1581  1  0.660300  0.692000  0.577500  1
  H  H1582  1  0.929800  0.339700  0.422500  1
  H  H1583  1  0.308000  0.929800  0.422500  1
  H  H1584  1  0.339700  0.308000  0.422500  1
  H  H1585  1  0.357500  0.854000  0.961000  1
  H  H1586  1  0.827500  0.357500  0.961000  1
  H  H1587  1  0.854000  0.827500  0.961000  1
  H  H1588  1  0.642500  0.146000  0.039000  1
  H  H1589  1  0.172500  0.642500  0.039000  1
  H  H1590  1  0.146000  0.172500  0.039000  1
  H  H1591  1  0.413300  0.227200  0.318600  1
  H  H1592  1  0.040900  0.413300  0.318600  1
  H  H1593  1  0.227200  0.040900  0.318600  1
  H  H1594  1  0.586700  0.772800  0.681400  1
  H  H1595  1  0.959100  0.586700  0.681400  1
  H  H1596  1  0.772800  0.959100  0.681400  1
  H  H1597  1  0.246700  0.641300  0.496500  1
  H  H1598  1  0.615500  0.246700  0.496500  1
  H  H1599  1  0.641300  0.615500  0.496500  1
  H  H1600  1  0.753300  0.358700  0.503500  1
  H  H1601  1  0.384500  0.753300  0.503500  1
  H  H1602  1  0.358700  0.384500  0.503500  1
  H  H1603  1  0.487100  0.699700  0.025200  1
  H  H1604  1  0.788000  0.487100  0.025200  1
  H  H1605  1  0.699700  0.788000  0.025200  1
  H  H1606  1  0.512900  0.300300  0.974800  1
  H  H1607  1  0.212000  0.512900  0.974800  1
  H  H1608  1  0.300300  0.212000  0.974800  1
  H  H1609  1  0.420200  0.795500  0.053400  1
  H  H1610  1  0.730900  0.420200  0.053400  1
  H  H1611  1  0.795500  0.730900  0.053400  1
  H  H1612  1  0.579800  0.204500  0.946600  1
  H  H1613  1  0.269100  0.579800  0.946600  1
  H  H1614  1  0.204500  0.269100  0.946600  1
  H  H1615  1  0.137700  0.664100  0.526200  1
  H  H1616  1  0.672000  0.137700  0.526200  1
  H  H1617  1  0.664100  0.672000  0.526200  1
  H  H1618  1  0.862300  0.335900  0.473800  1
  H  H1619  1  0.328000  0.862300  0.473800  1
  H  H1620  1  0.335900  0.328000  0.473800  1
  H  H1621  1  0.399300  0.778300  0.994300  1
  H  H1622  1  0.828100  0.399300  0.994300  1
  H  H1623  1  0.778300  0.828100  0.994300  1
  H  H1624  1  0.600700  0.221700  0.005700  1
  H  H1625  1  0.171900  0.600700  0.005700  1
  H  H1626  1  0.221700  0.171900  0.005700  1
  N  N1627  1  0.147190  0.469190  0.123330  1
  N  N1628  1  0.260290  0.147190  0.123330  1
  N  N1629  1  0.469190  0.260290  0.123330  1
  N  N1630  1  0.852810  0.530810  0.876670  1
  N  N1631  1  0.739710  0.852810  0.876670  1
  N  N1632  1  0.530810  0.739710  0.876670  1
  N  N1633  1  0.166330  0.451430  0.490410  1
  N  N1634  1  0.891830  0.166330  0.490410  1
  N  N1635  1  0.451430  0.891830  0.490410  1
  N  N1636  1  0.833670  0.548570  0.509590  1
  N  N1637  1  0.108170  0.833670  0.509590  1
  N  N1638  1  0.548570  0.108170  0.509590  1
  N  N1639  1  0.527400  0.346200  0.138300  1
  N  N1640  1  0.988100  0.527400  0.138300  1
  N  N1641  1  0.346200  0.988100  0.138300  1
  N  N1642  1  0.472600  0.653800  0.861700  1
  N  N1643  1  0.011900  0.472600  0.861700  1
  N  N1644  1  0.653800  0.011900  0.861700  1
  N  N1645  1  0.968610  0.595310  0.407970  1
  N  N1646  1  0.028110  0.968610  0.407970  1
  N  N1647  1  0.595310  0.028110  0.407970  1
  N  N1648  1  0.031390  0.404690  0.592030  1
  N  N1649  1  0.971890  0.031390  0.592030  1
  N  N1650  1  0.404690  0.971890  0.592030  1
  N  N1651  1  0.281000  0.768300  0.366300  1
  N  N1652  1  0.584400  0.281000  0.366300  1
  N  N1653  1  0.768300  0.584400  0.366300  1
  N  N1654  1  0.719000  0.231700  0.633700  1
  N  N1655  1  0.415600  0.719000  0.633700  1
  N  N1656  1  0.231700  0.415600  0.633700  1
  N  N1657  1  0.433230  0.343130  0.364110  1
  N  N1658  1  0.859530  0.433230  0.364110  1
  N  N1659  1  0.343130  0.859530  0.364110  1
  N  N1660  1  0.566770  0.656870  0.635890  1
  N  N1661  1  0.140470  0.566770  0.635890  1
  N  N1662  1  0.656870  0.140470  0.635890  1
  N  N1663  1  0.432600  0.482100  0.402600  1
  N  N1664  1  0.682700  0.432600  0.402600  1
  N  N1665  1  0.482100  0.682700  0.402600  1
  N  N1666  1  0.567400  0.517900  0.597400  1
  N  N1667  1  0.317300  0.567400  0.597400  1
  N  N1668  1  0.517900  0.317300  0.597400  1
  N  N1669  1  0.973160  0.718360  0.180120  1
  N  N1670  1  0.128360  0.973160  0.180120  1
  N  N1671  1  0.718360  0.128360  0.180120  1
  N  N1672  1  0.026840  0.281640  0.819880  1
  N  N1673  1  0.871640  0.026840  0.819880  1
  N  N1674  1  0.281640  0.871640  0.819880  1
  N  N1675  1  0.948770  0.651070  0.250590  1
  N  N1676  1  0.149570  0.948770  0.250590  1
  N  N1677  1  0.651070  0.149570  0.250590  1
  N  N1678  1  0.051230  0.348930  0.749410  1
  N  N1679  1  0.850430  0.051230  0.749410  1
  N  N1680  1  0.348930  0.850430  0.749410  1
  N  N1681  1  0.932920  0.735420  0.255840  1
  N  N1682  1  0.075820  0.932920  0.255840  1
  N  N1683  1  0.735420  0.075820  0.255840  1
  N  N1684  1  0.067080  0.264580  0.744160  1
  N  N1685  1  0.924180  0.067080  0.744160  1
  N  N1686  1  0.264580  0.924180  0.744160  1
  N  N1687  1  0.342490  0.293190  0.245730  1
  N  N1688  1  0.118590  0.342490  0.245730  1
  N  N1689  1  0.293190  0.118590  0.245730  1
  N  N1690  1  0.657510  0.706810  0.754270  1
  N  N1691  1  0.881410  0.657510  0.754270  1
  N  N1692  1  0.706810  0.881410  0.754270  1
  N  N1693  1  0.422810  0.287510  0.252570  1
  N  N1694  1  0.037110  0.422810  0.252570  1
  N  N1695  1  0.287510  0.037110  0.252570  1
  N  N1696  1  0.577190  0.712490  0.747430  1
  N  N1697  1  0.962890  0.577190  0.747430  1
  N  N1698  1  0.712490  0.962890  0.747430  1
  N  N1699  1  0.247900  0.569400  0.494100  1
  N  N1700  1  0.688600  0.247900  0.494100  1
  N  N1701  1  0.569400  0.688600  0.494100  1
  N  N1702  1  0.752100  0.430600  0.505900  1
  N  N1703  1  0.311400  0.752100  0.505900  1
  N  N1704  1  0.430600  0.311400  0.505900  1
  N  N1705  1  0.039120  0.643620  0.202440  1
  N  N1706  1  0.114820  0.039120  0.202440  1
  N  N1707  1  0.643620  0.114820  0.202440  1
  N  N1708  1  0.960880  0.356380  0.797560  1
  N  N1709  1  0.885180  0.960880  0.797560  1
  N  N1710  1  0.356380  0.885180  0.797560  1
  N  N1711  1  0.999030  0.649030  0.284610  1
  N  N1712  1  0.067330  0.999030  0.284610  1
  N  N1713  1  0.649030  0.067330  0.284610  1
  N  N1714  1  0.000970  0.350970  0.715390  1
  N  N1715  1  0.932670  0.000970  0.715390  1
  N  N1716  1  0.350970  0.932670  0.715390  1
  N  N1717  1  0.017890  0.730290  0.216630  1
  N  N1718  1  0.035190  0.017890  0.216630  1
  N  N1719  1  0.730290  0.035190  0.216630  1
  N  N1720  1  0.982110  0.269710  0.783370  1
  N  N1721  1  0.964810  0.982110  0.783370  1
  N  N1722  1  0.269710  0.964810  0.783370  1
  N  N1723  1  0.356410  0.367910  0.219570  1
  N  N1724  1  0.056110  0.356410  0.219570  1
  N  N1725  1  0.367910  0.056110  0.219570  1
  N  N1726  1  0.643590  0.632090  0.780430  1
  N  N1727  1  0.943890  0.643590  0.780430  1
  N  N1728  1  0.632090  0.943890  0.780430  1
  N  N1729  1  0.376860  0.346560  0.292920  1
  N  N1730  1  0.983660  0.376860  0.292920  1
  N  N1731  1  0.346560  0.983660  0.292920  1
  N  N1732  1  0.623140  0.653440  0.707080  1
  N  N1733  1  0.016340  0.623140  0.707080  1
  N  N1734  1  0.653440  0.016340  0.707080  1
  N  N1735  1  0.264850  0.607250  0.418650  1
  N  N1736  1  0.709250  0.264850  0.418650  1
  N  N1737  1  0.607250  0.709250  0.418650  1
  N  N1738  1  0.735150  0.392750  0.581350  1
  N  N1739  1  0.290750  0.735150  0.581350  1
  N  N1740  1  0.392750  0.290750  0.581350  1
  N  N1741  1  0.287390  0.349790  0.296430  1
  N  N1742  1  0.066390  0.287390  0.296430  1
  N  N1743  1  0.349790  0.066390  0.296430  1
  N  N1744  1  0.712610  0.650210  0.703570  1
  N  N1745  1  0.933610  0.712610  0.703570  1
  N  N1746  1  0.650210  0.933610  0.703570  1
  N  N1747  1  0.167270  0.663470  0.425190  1
  N  N1748  1  0.744070  0.167270  0.425190  1
  N  N1749  1  0.663470  0.744070  0.425190  1
  N  N1750  1  0.832730  0.336530  0.574810  1
  N  N1751  1  0.255930  0.832730  0.574810  1
  N  N1752  1  0.336530  0.255930  0.574810  1
  N  N1753  1  0.344400  0.701700  0.072900  1
  N  N1754  1  0.881000  0.344400  0.072900  1
  N  N1755  1  0.701700  0.881000  0.072900  1
  N  N1756  1  0.655600  0.298300  0.927100  1
  N  N1757  1  0.119000  0.655600  0.927100  1
  N  N1758  1  0.298300  0.119000  0.927100  1
  N  N1759  1  0.414730  0.657630  0.116910  1
  N  N1760  1  0.810730  0.414730  0.116910  1
  N  N1761  1  0.657630  0.810730  0.116910  1
  N  N1762  1  0.585270  0.342370  0.883090  1
  N  N1763  1  0.189270  0.585270  0.883090  1
  N  N1764  1  0.342370  0.189270  0.883090  1
  N  N1765  1  0.196670  0.563770  0.459090  1
  N  N1766  1  0.780470  0.196670  0.459090  1
  N  N1767  1  0.563770  0.780470  0.459090  1
  N  N1768  1  0.803330  0.436230  0.540910  1
  N  N1769  1  0.219530  0.803330  0.540910  1
  N  N1770  1  0.436230  0.219530  0.540910  1
  N  N1771  1  0.337770  0.746670  0.124590  1
  N  N1772  1  0.790970  0.337770  0.124590  1
  N  N1773  1  0.746670  0.790970  0.124590  1
  N  N1774  1  0.662230  0.253330  0.875410  1
  N  N1775  1  0.209030  0.662230  0.875410  1
  N  N1776  1  0.253330  0.209030  0.875410  1
  N  N1777  1  0.348210  0.272610  0.323070  1
  N  N1778  1  0.056110  0.348210  0.323070  1
  N  N1779  1  0.272610  0.056110  0.323070  1
  N  N1780  1  0.651790  0.727390  0.676930  1
  N  N1781  1  0.943890  0.651790  0.676930  1
  N  N1782  1  0.727390  0.943890  0.676930  1
  N  N1783  1  0.206640  0.669840  0.462780  1
  N  N1784  1  0.660740  0.206640  0.462780  1
  N  N1785  1  0.669840  0.660740  0.462780  1
  N  N1786  1  0.793360  0.330160  0.537220  1
  N  N1787  1  0.339260  0.793360  0.537220  1
  N  N1788  1  0.330160  0.339260  0.537220  1
  N  N1789  1  0.428410  0.695210  0.035670  1
  N  N1790  1  0.840710  0.428410  0.035670  1
  N  N1791  1  0.695210  0.840710  0.035670  1
  N  N1792  1  0.571590  0.304790  0.964330  1
  N  N1793  1  0.159290  0.571590  0.964330  1
  N  N1794  1  0.304790  0.159290  0.964330  1
  N  N1795  1  0.432300  0.732000  0.085500  1
  N  N1796  1  0.750200  0.432300  0.085500  1
  N  N1797  1  0.732000  0.750200  0.085500  1
  N  N1798  1  0.567700  0.268000  0.914500  1
  N  N1799  1  0.249800  0.567700  0.914500  1
  N  N1800  1  0.268000  0.249800  0.914500  1
  N  N1801  1  0.150590  0.615890  0.504630  1
  N  N1802  1  0.728890  0.150590  0.504630  1
  N  N1803  1  0.615890  0.728890  0.504630  1
  N  N1804  1  0.849410  0.384110  0.495370  1
  N  N1805  1  0.271110  0.849410  0.495370  1
  N  N1806  1  0.384110  0.271110  0.495370  1
  N  N1807  1  0.360550  0.781450  0.049050  1
  N  N1808  1  0.808950  0.360550  0.049050  1
  N  N1809  1  0.781450  0.808950  0.049050  1
  N  N1810  1  0.639450  0.218550  0.950950  1
  N  N1811  1  0.191050  0.639450  0.950950  1
  N  N1812  1  0.218550  0.191050  0.950950  1
  O  O1813  1  0.244390  0.578390  0.210330  1
  O  O1814  1  0.966890  0.244390  0.210330  1
  O  O1815  1  0.578390  0.966890  0.210330  1
  O  O1816  1  0.755610  0.421610  0.789670  1
  O  O1817  1  0.033110  0.755610  0.789670  1
  O  O1818  1  0.421610  0.033110  0.789670  1
  O  O1819  1  0.078600  0.752100  0.013200  1
  O  O1820  1  0.156100  0.078600  0.013200  1
  O  O1821  1  0.752100  0.156100  0.013200  1
  O  O1822  1  0.921400  0.247900  0.986800  1
  O  O1823  1  0.843900  0.921400  0.986800  1
  O  O1824  1  0.247900  0.843900  0.986800  1
  O  O1825  1  0.404100  0.421300  0.094500  1
  O  O1826  1  0.080100  0.404100  0.094500  1
  O  O1827  1  0.421300  0.080100  0.094500  1
  O  O1828  1  0.595900  0.578700  0.905500  1
  O  O1829  1  0.919900  0.595900  0.905500  1
  O  O1830  1  0.578700  0.919900  0.905500  1
  O  O1831  1  0.242100  0.828400  0.409500  1
  O  O1832  1  0.520000  0.242100  0.409500  1
  O  O1833  1  0.828400  0.520000  0.409500  1
  O  O1834  1  0.757900  0.171600  0.590500  1
  O  O1835  1  0.480000  0.757900  0.590500  1
  O  O1836  1  0.171600  0.480000  0.590500  1
  O  O1837  1  0.130850  0.831850  0.358650  1
  O  O1838  1  0.678650  0.130850  0.358650  1
  O  O1839  1  0.831850  0.678650  0.358650  1
  O  O1840  1  0.869150  0.168150  0.641350  1
  O  O1841  1  0.321350  0.869150  0.641350  1
  O  O1842  1  0.168150  0.321350  0.641350  1
  O  O1843  1  0.066370  0.782170  0.382890  1
  O  O1844  1  0.768570  0.066370  0.382890  1
  O  O1845  1  0.782170  0.768570  0.382890  1
  O  O1846  1  0.933630  0.217830  0.617110  1
  O  O1847  1  0.231430  0.933630  0.617110  1
  O  O1848  1  0.217830  0.231430  0.617110  1
  O  O1849  1  0.283980  0.388080  0.105660  1
  O  O1850  1  0.222280  0.283980  0.105660  1
  O  O1851  1  0.388080  0.222280  0.105660  1
  O  O1852  1  0.716020  0.611920  0.894340  1
  O  O1853  1  0.777720  0.716020  0.894340  1
  O  O1854  1  0.611920  0.777720  0.894340  1
  O  O1855  1  0.395310  0.518110  0.284070  1
  O  O1856  1  0.802510  0.395310  0.284070  1
  O  O1857  1  0.518110  0.802510  0.284070  1
  O  O1858  1  0.604690  0.481890  0.715930  1
  O  O1859  1  0.197490  0.604690  0.715930  1
  O  O1860  1  0.481890  0.197490  0.715930  1
  O  O1861  1  0.168430  0.351430  0.328110  1
  O  O1862  1  0.152030  0.168430  0.328110  1
  O  O1863  1  0.351430  0.152030  0.328110  1
  O  O1864  1  0.831570  0.648570  0.671890  1
  O  O1865  1  0.847970  0.831570  0.671890  1
  O  O1866  1  0.648570  0.847970  0.671890  1
  O  O1867  1  0.160540  0.826040  0.199980  1
  O  O1868  1  0.813440  0.160540  0.199980  1
  O  O1869  1  0.826040  0.813440  0.199980  1
  O  O1870  1  0.839460  0.173960  0.800020  1
  O  O1871  1  0.186560  0.839460  0.800020  1
  O  O1872  1  0.173960  0.186560  0.800020  1
  O  O1873  1  0.156430  0.744530  0.261510  1
  O  O1874  1  0.837530  0.156430  0.261510  1
  O  O1875  1  0.744530  0.837530  0.261510  1
  O  O1876  1  0.843570  0.255470  0.738490  1
  O  O1877  1  0.162470  0.843570  0.738490  1
  O  O1878  1  0.255470  0.162470  0.738490  1
  O  O1879  1  0.238790  0.833590  0.197130  1
  O  O1880  1  0.730490  0.238790  0.197130  1
  O  O1881  1  0.833590  0.730490  0.197130  1
  O  O1882  1  0.761210  0.166410  0.802870  1
  O  O1883  1  0.269510  0.761210  0.802870  1
  O  O1884  1  0.166410  0.269510  0.802870  1
  O  O1885  1  0.987240  0.504540  0.444480  1
  O  O1886  1  0.063740  0.987240  0.444480  1
  O  O1887  1  0.504540  0.063740  0.444480  1
  O  O1888  1  0.012760  0.495460  0.555520  1
  O  O1889  1  0.936260  0.012760  0.555520  1
  O  O1890  1  0.495460  0.936260  0.555520  1
  O  O1891  1  0.962700  0.481000  0.366000  1
  O  O1892  1  0.190300  0.962700  0.366000  1
  O  O1893  1  0.481000  0.190300  0.366000  1
  O  O1894  1  0.037300  0.519000  0.634000  1
  O  O1895  1  0.809700  0.037300  0.634000  1
  O  O1896  1  0.519000  0.809700  0.634000  1
  O  O1897  1  0.453680  0.337580  0.137460  1
  O  O1898  1  0.071280  0.453680  0.137460  1
  O  O1899  1  0.337580  0.071280  0.137460  1
  O  O1900  1  0.546320  0.662420  0.862540  1
  O  O1901  1  0.928720  0.546320  0.862540  1
  O  O1902  1  0.662420  0.928720  0.862540  1
  O  O1903  1  0.312800  0.484900  0.105000  1
  O  O1904  1  0.097300  0.312800  0.105000  1
  O  O1905  1  0.484900  0.097300  0.105000  1
  O  O1906  1  0.687200  0.515100  0.895000  1
  O  O1907  1  0.902700  0.687200  0.895000  1
  O  O1908  1  0.515100  0.902700  0.895000  1
  O  O1909  1  0.280100  0.631700  0.049800  1
  O  O1910  1  0.038400  0.280100  0.049800  1
  O  O1911  1  0.631700  0.038400  0.049800  1
  O  O1912  1  0.719900  0.368300  0.950200  1
  O  O1913  1  0.961600  0.719900  0.950200  1
  O  O1914  1  0.368300  0.961600  0.950200  1
  O  O1915  1  0.980420  0.609520  0.148140  1
  O  O1916  1  0.261920  0.980420  0.148140  1
  O  O1917  1  0.609520  0.261920  0.148140  1
  O  O1918  1  0.019580  0.390480  0.851860  1
  O  O1919  1  0.738080  0.019580  0.851860  1
  O  O1920  1  0.390480  0.738080  0.851860  1
  O  O1921  1  0.177020  0.575620  0.109140  1
  O  O1922  1  0.138220  0.177020  0.109140  1
  O  O1923  1  0.575620  0.138220  0.109140  1
  O  O1924  1  0.822980  0.424380  0.890860  1
  O  O1925  1  0.861780  0.822980  0.890860  1
  O  O1926  1  0.424380  0.861780  0.890860  1
  O  O1927  1  0.277800  0.890800  0.140400  1
  O  O1928  1  0.691000  0.277800  0.140400  1
  O  O1929  1  0.890800  0.691000  0.140400  1
  O  O1930  1  0.722200  0.109200  0.859600  1
  O  O1931  1  0.309000  0.722200  0.859600  1
  O  O1932  1  0.109200  0.309000  0.859600  1
  O  O1933  1  0.989910  0.795310  0.006270  1
  O  O1934  1  0.208510  0.989910  0.006270  1
  O  O1935  1  0.795310  0.208510  0.006270  1
  O  O1936  1  0.010090  0.204690  0.993730  1
  O  O1937  1  0.791490  0.010090  0.993730  1
  O  O1938  1  0.204690  0.791490  0.993730  1
  O  O1939  1  0.014800  0.418200  0.452100  1
  O  O1940  1  0.114900  0.014800  0.452100  1
  O  O1941  1  0.418200  0.114900  0.452100  1
  O  O1942  1  0.985200  0.581800  0.547900  1
  O  O1943  1  0.885100  0.985200  0.547900  1
  O  O1944  1  0.581800  0.885100  0.547900  1
  O  O1945  1  0.407800  0.881600  0.012000  1
  O  O1946  1  0.698600  0.407800  0.012000  1
  O  O1947  1  0.881600  0.698600  0.012000  1
  O  O1948  1  0.592200  0.118400  0.988000  1
  O  O1949  1  0.301400  0.592200  0.988000  1
  O  O1950  1  0.118400  0.301400  0.988000  1
  O  O1951  1  0.071200  0.673600  0.026700  1
  O  O1952  1  0.228500  0.071200  0.026700  1
  O  O1953  1  0.673600  0.228500  0.026700  1
  O  O1954  1  0.928800  0.326400  0.973300  1
  O  O1955  1  0.771500  0.928800  0.973300  1
  O  O1956  1  0.326400  0.771500  0.973300  1
  O  O1957  1  0.231300  0.191300  0.482700  1
  O  O1958  1  0.094700  0.231300  0.482700  1
  O  O1959  1  0.191300  0.094700  0.482700  1
  O  O1960  1  0.768700  0.808700  0.517300  1
  O  O1961  1  0.905300  0.768700  0.517300  1
  O  O1962  1  0.808700  0.905300  0.517300  1
  O  O1963  1  0.488500  0.267900  0.351300  1
  O  O1964  1  0.892300  0.488500  0.351300  1
  O  O1965  1  0.267900  0.892300  0.351300  1
  O  O1966  1  0.511500  0.732100  0.648700  1
  O  O1967  1  0.107700  0.511500  0.648700  1
  O  O1968  1  0.732100  0.107700  0.648700  1
  O  O1969  1  0.085100  0.600900  0.093300  1
  O  O1970  1  0.220700  0.085100  0.093300  1
  O  O1971  1  0.600900  0.220700  0.093300  1
  O  O1972  1  0.914900  0.399100  0.906700  1
  O  O1973  1  0.779300  0.914900  0.906700  1
  O  O1974  1  0.399100  0.779300  0.906700  1
  O  O1975  1  0.061000  0.741500  0.478800  1
  O  O1976  1  0.718700  0.061000  0.478800  1
  O  O1977  1  0.741500  0.718700  0.478800  1
  O  O1978  1  0.939000  0.258500  0.521200  1
  O  O1979  1  0.281300  0.939000  0.521200  1
  O  O1980  1  0.258500  0.281300  0.521200  1
  O  O1981  1  0.996000  0.855000  0.225000  1
  O  O1982  1  0.924000  0.996000  0.225000  1
  O  O1983  1  0.855000  0.924000  0.225000  1
  O  O1984  1  0.004000  0.145000  0.775000  1
  O  O1985  1  0.076000  0.004000  0.775000  1
  O  O1986  1  0.145000  0.076000  0.775000  1
  O  O1987  1  0.199600  0.275100  0.342300  1
  O  O1988  1  0.183000  0.199600  0.342300  1
  O  O1989  1  0.275100  0.183000  0.342300  1
  O  O1990  1  0.800400  0.724900  0.657700  1
  O  O1991  1  0.817000  0.800400  0.657700  1
  O  O1992  1  0.724900  0.817000  0.657700  1
  O  O1993  1  0.146900  0.867400  0.424500  1
  O  O1994  1  0.561200  0.146900  0.424500  1
  O  O1995  1  0.867400  0.561200  0.424500  1
  O  O1996  1  0.853100  0.132600  0.575500  1
  O  O1997  1  0.438800  0.853100  0.575500  1
  O  O1998  1  0.132600  0.438800  0.575500  1
  O  O1999  1  0.451000  0.780600  0.923200  1
  O  O2000  1  0.845200  0.451000  0.923200  1
  O  O2001  1  0.780600  0.845200  0.923200  1
  O  O2002  1  0.549000  0.219400  0.076800  1
  O  O2003  1  0.154800  0.549000  0.076800  1
  O  O2004  1  0.219400  0.154800  0.076800  1
  O  O2005  1  0.145200  0.405300  0.384600  1
  O  O2006  1  0.064900  0.145200  0.384600  1
  O  O2007  1  0.405300  0.064900  0.384600  1
  O  O2008  1  0.854800  0.594700  0.615400  1
  O  O2009  1  0.935100  0.854800  0.615400  1
  O  O2010  1  0.594700  0.935100  0.615400  1
  O  O2011  1  0.092100  0.878500  0.405900  1
  O  O2012  1  0.623500  0.092100  0.405900  1
  O  O2013  1  0.878500  0.623500  0.405900  1
  O  O2014  1  0.907900  0.121500  0.594100  1
  O  O2015  1  0.376500  0.907900  0.594100  1
  O  O2016  1  0.121500  0.376500  0.594100  1
  O  O2017  1  0.137300  0.490500  0.375600  1
  O  O2018  1  0.996600  0.137300  0.375600  1
  O  O2019  1  0.490500  0.996600  0.375600  1
  O  O2020  1  0.862700  0.509500  0.624400  1
  O  O2021  1  0.003400  0.862700  0.624400  1
  O  O2022  1  0.509500  0.003400  0.624400  1
  O  O2023  1  0.991300  0.726000  0.482400  1
  O  O2024  1  0.800300  0.991300  0.482400  1
  O  O2025  1  0.726000  0.800300  0.482400  1
  O  O2026  1  0.008700  0.274000  0.517600  1
  O  O2027  1  0.199700  0.008700  0.517600  1
  O  O2028  1  0.274000  0.199700  0.517600  1
  O  O2029  1  0.295413  0.295413  0.113760  1
  O  O2030  1  0.704587  0.704587  0.886240  1
  O  O2031  1  0.032900  0.514400  0.399600  1
  O  O2032  1  0.053100  0.032900  0.399600  1
  O  O2033  1  0.514400  0.053100  0.399600  1
  O  O2034  1  0.967100  0.485600  0.600400  1
  O  O2035  1  0.946900  0.967100  0.600400  1
  O  O2036  1  0.485600  0.946900  0.600400  1
  O  O2037  1  0.987800  0.710500  0.009300  1
  O  O2038  1  0.292400  0.987800  0.009300  1
  O  O2039  1  0.710500  0.292400  0.009300  1
  O  O2040  1  0.012200  0.289500  0.990700  1
  O  O2041  1  0.707600  0.012200  0.990700  1
  O  O2042  1  0.289500  0.707600  0.990700  1
  O  O2043  1  0.581100  0.763400  0.110700  1
  O  O2044  1  0.544800  0.581100  0.110700  1
  O  O2045  1  0.763400  0.544800  0.110700  1
  O  O2046  1  0.418900  0.236600  0.889300  1
  O  O2047  1  0.455200  0.418900  0.889300  1
  O  O2048  1  0.236600  0.455200  0.889300  1
  O  O2049  1  0.955600  0.886600  0.395700  1
  O  O2050  1  0.762100  0.955600  0.395700  1
  O  O2051  1  0.886600  0.762100  0.395700  1
  O  O2052  1  0.044400  0.113400  0.604300  1
  O  O2053  1  0.237900  0.044400  0.604300  1
  O  O2054  1  0.113400  0.237900  0.604300  1
  O  O2055  1  0.916600  0.916600  0.250200  1
  O  O2056  1  0.083400  0.083400  0.749800  1
  O  O2057  1  0.114790  0.437090  0.290730  1
  O  O2058  1  0.157390  0.114790  0.290730  1
  O  O2059  1  0.437090  0.157390  0.290730  1
  O  O2060  1  0.885210  0.562910  0.709270  1
  O  O2061  1  0.842610  0.885210  0.709270  1
  O  O2062  1  0.562910  0.842610  0.709270  1
  O  O2063  1  0.069500  0.758000  0.300300  1
  O  O2064  1  0.872200  0.069500  0.300300  1
  O  O2065  1  0.758000  0.872200  0.300300  1
  O  O2066  1  0.930500  0.242000  0.699700  1
  O  O2067  1  0.127800  0.930500  0.699700  1
  O  O2068  1  0.242000  0.127800  0.699700  1
  O  O2069  1  0.091410  0.483310  0.333870  1
  O  O2070  1  0.091410  0.091410  0.333870  1
  O  O2071  1  0.483310  0.091410  0.333870  1
  O  O2072  1  0.908590  0.516690  0.666130  1
  O  O2073  1  0.908590  0.908590  0.666130  1
  O  O2074  1  0.516690  0.908590  0.666130  1
  O  O2075  1  0.036580  0.494580  0.306060  1
  O  O2076  1  0.162780  0.036580  0.306060  1
  O  O2077  1  0.494580  0.162780  0.306060  1
  O  O2078  1  0.963420  0.505420  0.693940  1
  O  O2079  1  0.837220  0.963420  0.693940  1
  O  O2080  1  0.505420  0.837220  0.693940  1
  O  O2081  1  0.180660  0.729260  0.064320  1
  O  O2082  1  0.025760  0.180660  0.064320  1
  O  O2083  1  0.729260  0.025760  0.064320  1
  O  O2084  1  0.819340  0.270740  0.935680  1
  O  O2085  1  0.974240  0.819340  0.935680  1
  O  O2086  1  0.270740  0.974240  0.935680  1
  O  O2087  1  0.024110  0.744310  0.365670  1
  O  O2088  1  0.865910  0.024110  0.365670  1
  O  O2089  1  0.744310  0.865910  0.365670  1
  O  O2090  1  0.975890  0.255690  0.634330  1
  O  O2091  1  0.134090  0.975890  0.634330  1
  O  O2092  1  0.255690  0.134090  0.634330  1
  O  O2093  1  0.989250  0.778350  0.315150  1
  O  O2094  1  0.917250  0.989250  0.315150  1
  O  O2095  1  0.778350  0.917250  0.315150  1
  O  O2096  1  0.010750  0.221650  0.684850  1
  O  O2097  1  0.082750  0.010750  0.684850  1
  O  O2098  1  0.221650  0.082750  0.684850  1
  O  O2099  1  0.495990  0.394590  0.195030  1
  O  O2100  1  0.914390  0.495990  0.195030  1
  O  O2101  1  0.394590  0.914390  0.195030  1
  O  O2102  1  0.504010  0.605410  0.804970  1
  O  O2103  1  0.085610  0.504010  0.804970  1
  O  O2104  1  0.605410  0.085610  0.804970  1
  O  O2105  1  0.183100  0.655800  0.100200  1
  O  O2106  1  0.060900  0.183100  0.100200  1
  O  O2107  1  0.655800  0.060900  0.100200  1
  O  O2108  1  0.816900  0.344200  0.899800  1
  O  O2109  1  0.939100  0.816900  0.899800  1
  O  O2110  1  0.344200  0.939100  0.899800  1
  O  O2111  1  0.115620  0.709020  0.082440  1
  O  O2112  1  0.092920  0.115620  0.082440  1
  O  O2113  1  0.709020  0.092920  0.082440  1
  O  O2114  1  0.884380  0.290980  0.917560  1
  O  O2115  1  0.907080  0.884380  0.917560  1
  O  O2116  1  0.290980  0.907080  0.917560  1
  O  O2117  1  0.256520  0.341020  0.422940  1
  O  O2118  1  0.979520  0.256520  0.422940  1
  O  O2119  1  0.341020  0.979520  0.422940  1
  O  O2120  1  0.743480  0.658980  0.577060  1
  O  O2121  1  0.020480  0.743480  0.577060  1
  O  O2122  1  0.658980  0.020480  0.577060  1
  O  O2123  1  0.456710  0.453310  0.226770  1
  O  O2124  1  0.863210  0.456710  0.226770  1
  O  O2125  1  0.453310  0.863210  0.226770  1
  O  O2126  1  0.543290  0.546690  0.773230  1
  O  O2127  1  0.136790  0.543290  0.773230  1
  O  O2128  1  0.546690  0.136790  0.773230  1
  O  O2129  1  0.224610  0.772710  0.335670  1
  O  O2130  1  0.667010  0.224610  0.335670  1
  O  O2131  1  0.772710  0.667010  0.335670  1
  O  O2132  1  0.775390  0.227290  0.664330  1
  O  O2133  1  0.332990  0.775390  0.664330  1
  O  O2134  1  0.227290  0.332990  0.664330  1
  O  O2135  1  0.250790  0.395490  0.448530  1
  O  O2136  1  0.905190  0.250790  0.448530  1
  O  O2137  1  0.395490  0.905190  0.448530  1
  O  O2138  1  0.749210  0.604510  0.551470  1
  O  O2139  1  0.094810  0.749210  0.551470  1
  O  O2140  1  0.604510  0.094810  0.551470  1
  O  O2141  1  0.484200  0.474100  0.155700  1
  O  O2142  1  0.886000  0.484200  0.155700  1
  O  O2143  1  0.474100  0.886000  0.155700  1
  O  O2144  1  0.515800  0.525900  0.844300  1
  O  O2145  1  0.114000  0.515800  0.844300  1
  O  O2146  1  0.525900  0.114000  0.844300  1
  O  O2147  1  0.204560  0.419360  0.406020  1
  O  O2148  1  0.970060  0.204560  0.406020  1
  O  O2149  1  0.419360  0.970060  0.406020  1
  O  O2150  1  0.795440  0.580640  0.593980  1
  O  O2151  1  0.029940  0.795440  0.593980  1
  O  O2152  1  0.580640  0.029940  0.593980  1
  O  O2153  1  0.271310  0.773010  0.269070  1
  O  O2154  1  0.686610  0.271310  0.269070  1
  O  O2155  1  0.773010  0.686610  0.269070  1
  O  O2156  1  0.728690  0.226990  0.730930  1
  O  O2157  1  0.313390  0.728690  0.730930  1
  O  O2158  1  0.226990  0.313390  0.730930  1
  O  O2159  1  0.198550  0.762750  0.293250  1
  O  O2160  1  0.745450  0.198550  0.293250  1
  O  O2161  1  0.762750  0.745450  0.293250  1
  O  O2162  1  0.801450  0.237250  0.706750  1
  O  O2163  1  0.254550  0.801450  0.706750  1
  O  O2164  1  0.237250  0.254550  0.706750  1
  O  O2165  1  0.163080  0.462880  0.189360  1
  O  O2166  1  0.184680  0.163080  0.189360  1
  O  O2167  1  0.462880  0.184680  0.189360  1
  O  O2168  1  0.836920  0.537120  0.810640  1
  O  O2169  1  0.815320  0.836920  0.810640  1
  O  O2170  1  0.537120  0.815320  0.810640  1
  O  O2171  1  0.019270  0.638170  0.474990  1
  O  O2172  1  0.867570  0.019270  0.474990  1
  O  O2173  1  0.638170  0.867570  0.474990  1
  O  O2174  1  0.980730  0.361830  0.525010  1
  O  O2175  1  0.132430  0.980730  0.525010  1
  O  O2176  1  0.361830  0.132430  0.525010  1
  O  O2177  1  0.243620  0.411620  0.173040  1
  O  O2178  1  0.171720  0.243620  0.173040  1
  O  O2179  1  0.411620  0.171720  0.173040  1
  O  O2180  1  0.756380  0.588380  0.826960  1
  O  O2181  1  0.828280  0.756380  0.826960  1
  O  O2182  1  0.588380  0.828280  0.826960  1
  O  O2183  1  0.054700  0.582000  0.443400  1
  O  O2184  1  0.919900  0.054700  0.443400  1
  O  O2185  1  0.582000  0.919900  0.443400  1
  O  O2186  1  0.945300  0.418000  0.556600  1
  O  O2187  1  0.080100  0.945300  0.556600  1
  O  O2188  1  0.418000  0.080100  0.556600  1
  O  O2189  1  0.140300  0.818000  0.091200  1
  O  O2190  1  0.950500  0.140300  0.091200  1
  O  O2191  1  0.818000  0.950500  0.091200  1
  O  O2192  1  0.859700  0.182000  0.908800  1
  O  O2193  1  0.049500  0.859700  0.908800  1
  O  O2194  1  0.182000  0.049500  0.908800  1
  O  O2195  1  0.223920  0.492320  0.159240  1
  O  O2196  1  0.124520  0.223920  0.159240  1
  O  O2197  1  0.492320  0.124520  0.159240  1
  O  O2198  1  0.776080  0.507680  0.840760  1
  O  O2199  1  0.875480  0.776080  0.840760  1
  O  O2200  1  0.507680  0.875480  0.840760  1
  O  O2201  1  0.002570  0.644370  0.418590  1
  O  O2202  1  0.934470  0.002570  0.418590  1
  O  O2203  1  0.644370  0.934470  0.418590  1
  O  O2204  1  0.997430  0.355630  0.581410  1
  O  O2205  1  0.065530  0.997430  0.581410  1
  O  O2206  1  0.355630  0.065530  0.581410  1
  O  O2207  1  0.161310  0.823110  0.134970  1
  O  O2208  1  0.880610  0.161310  0.134970  1
  O  O2209  1  0.823110  0.880610  0.134970  1
  O  O2210  1  0.838690  0.176890  0.865030  1
  O  O2211  1  0.119390  0.838690  0.865030  1
  O  O2212  1  0.176890  0.119390  0.865030  1
  O  O2213  1  0.340330  0.553330  0.097710  1
  O  O2214  1  0.008630  0.340330  0.097710  1
  O  O2215  1  0.553330  0.008630  0.097710  1
  O  O2216  1  0.659670  0.446670  0.902290  1
  O  O2217  1  0.991370  0.659670  0.902290  1
  O  O2218  1  0.446670  0.991370  0.902290  1
  O  O2219  1  0.359300  0.455600  0.434100  1
  O  O2220  1  0.751000  0.359300  0.434100  1
  O  O2221  1  0.455600  0.751000  0.434100  1
  O  O2222  1  0.640700  0.544400  0.565900  1
  O  O2223  1  0.249000  0.640700  0.565900  1
  O  O2224  1  0.544400  0.249000  0.565900  1
  O  O2225  1  0.200800  0.843900  0.070200  1
  O  O2226  1  0.885100  0.200800  0.070200  1
  O  O2227  1  0.843900  0.885100  0.070200  1
  O  O2228  1  0.799200  0.156100  0.929800  1
  O  O2229  1  0.114900  0.799200  0.929800  1
  O  O2230  1  0.156100  0.114900  0.929800  1
  O  O2231  1  0.411980  0.567080  0.051060  1
  O  O2232  1  0.969880  0.411980  0.051060  1
  O  O2233  1  0.567080  0.969880  0.051060  1
  O  O2234  1  0.588020  0.432920  0.948940  1
  O  O2235  1  0.030120  0.588020  0.948940  1
  O  O2236  1  0.432920  0.030120  0.948940  1
  O  O2237  1  0.421530  0.491330  0.095310  1
  O  O2238  1  0.991830  0.421530  0.095310  1
  O  O2239  1  0.491330  0.991830  0.095310  1
  O  O2240  1  0.578470  0.508670  0.904690  1
  O  O2241  1  0.008170  0.578470  0.904690  1
  O  O2242  1  0.508670  0.008170  0.904690  1
  O  O2243  1  0.370280  0.694080  0.282060  1
  O  O2244  1  0.653580  0.370280  0.282060  1
  O  O2245  1  0.694080  0.653580  0.282060  1
  O  O2246  1  0.629720  0.305920  0.717940  1
  O  O2247  1  0.346420  0.629720  0.717940  1
  O  O2248  1  0.305920  0.346420  0.717940  1
  O  O2249  1  0.361870  0.398170  0.412890  1
  O  O2250  1  0.827070  0.361870  0.412890  1
  O  O2251  1  0.398170  0.827070  0.412890  1
  O  O2252  1  0.638130  0.601830  0.587110  1
  O  O2253  1  0.172930  0.638130  0.587110  1
  O  O2254  1  0.601830  0.172930  0.587110  1
  O  O2255  1  0.378620  0.466320  0.364440  1
  O  O2256  1  0.790620  0.378620  0.364440  1
  O  O2257  1  0.466320  0.790620  0.364440  1
  O  O2258  1  0.621380  0.533680  0.635560  1
  O  O2259  1  0.209380  0.621380  0.635560  1
  O  O2260  1  0.533680  0.209380  0.635560  1
  O  O2261  1  0.430820  0.683720  0.215040  1
  O  O2262  1  0.670420  0.430820  0.215040  1
  O  O2263  1  0.683720  0.670420  0.215040  1
  O  O2264  1  0.569180  0.316280  0.784960  1
  O  O2265  1  0.329580  0.569180  0.784960  1
  O  O2266  1  0.316280  0.329580  0.784960  1
  O  O2267  1  0.408420  0.621120  0.260640  1
  O  O2268  1  0.709820  0.408420  0.260640  1
  O  O2269  1  0.621120  0.709820  0.260640  1
  O  O2270  1  0.591580  0.378880  0.739360  1
  O  O2271  1  0.290180  0.591580  0.739360  1
  O  O2272  1  0.378880  0.290180  0.739360  1
  O  O2273  1  0.216400  0.421300  0.079800  1
  O  O2274  1  0.282500  0.216400  0.079800  1
  O  O2275  1  0.421300  0.282500  0.079800  1
  O  O2276  1  0.783600  0.578700  0.920200  1
  O  O2277  1  0.717500  0.783600  0.920200  1
  O  O2278  1  0.578700  0.717500  0.920200  1
  S  S2279  1  0.084960  0.481080  0.300600  1
  S  S2280  1  0.133360  0.084960  0.300600  1
  S  S2281  1  0.481080  0.133360  0.300600  1
  S  S2282  1  0.915040  0.518920  0.699400  1
  S  S2283  1  0.866640  0.915040  0.699400  1
  S  S2284  1  0.518920  0.866640  0.699400  1
  S  S2285  1  0.029410  0.747730  0.327870  1
  S  S2286  1  0.894990  0.029410  0.327870  1
  S  S2287  1  0.747730  0.894990  0.327870  1
  S  S2288  1  0.970590  0.252270  0.672130  1
  S  S2289  1  0.105010  0.970590  0.672130  1
  S  S2290  1  0.252270  0.105010  0.672130  1
  S  S2291  1  0.152060  0.704930  0.091110  1
  S  S2292  1  0.051900  0.152060  0.091110  1
  S  S2293  1  0.704930  0.051900  0.091110  1
  S  S2294  1  0.847940  0.295070  0.908890  1
  S  S2295  1  0.948100  0.847940  0.908890  1
  S  S2296  1  0.295070  0.948100  0.908890  1
  S  S2297  1  0.467750  0.441980  0.190470  1
  S  S2298  1  0.899800  0.467750  0.190470  1
  S  S2299  1  0.441980  0.899800  0.190470  1
  S  S2300  1  0.532250  0.558020  0.809530  1
  S  S2301  1  0.100200  0.532250  0.809530  1
  S  S2302  1  0.558020  0.100200  0.809530  1
  S  S2303  1  0.247240  0.388390  0.416310  1
  S  S2304  1  0.948060  0.247240  0.416310  1
  S  S2305  1  0.388390  0.948060  0.416310  1
  S  S2306  1  0.752760  0.611610  0.583690  1
  S  S2307  1  0.051940  0.752760  0.583690  1
  S  S2308  1  0.611610  0.051940  0.583690  1
  S  S2309  1  0.238650  0.755810  0.302850  1
  S  S2310  1  0.702690  0.238650  0.302850  1
  S  S2311  1  0.755810  0.702690  0.302850  1
  S  S2312  1  0.761350  0.244190  0.697150  1
  S  S2313  1  0.297310  0.761350  0.697150  1
  S  S2314  1  0.244190  0.297310  0.697150  1
  S  S2315  1  0.209770  0.453550  0.184890  1
  S  S2316  1  0.151790  0.209770  0.184890  1
  S  S2317  1  0.453550  0.151790  0.184890  1
  S  S2318  1  0.790230  0.546450  0.815110  1
  S  S2319  1  0.848210  0.790230  0.815110  1
  S  S2320  1  0.546450  0.848210  0.815110  1
  S  S2321  1  0.033800  0.626770  0.439530  1
  S  S2322  1  0.899900  0.033800  0.439530  1
  S  S2323  1  0.626770  0.899900  0.439530  1
  S  S2324  1  0.966200  0.373230  0.560470  1
  S  S2325  1  0.100100  0.966200  0.560470  1
  S  S2326  1  0.373230  0.100100  0.560470  1
  S  S2327  1  0.176070  0.816070  0.099360  1
  S  S2328  1  0.908500  0.176070  0.099360  1
  S  S2329  1  0.816070  0.908500  0.099360  1
  S  S2330  1  0.823930  0.183930  0.900640  1
  S  S2331  1  0.091500  0.823930  0.900640  1
  S  S2332  1  0.183930  0.091500  0.900640  1
  S  S2333  1  0.394870  0.539560  0.088590  1
  S  S2334  1  0.976980  0.394870  0.088590  1
  S  S2335  1  0.539560  0.976980  0.088590  1
  S  S2336  1  0.605130  0.460440  0.911410  1
  S  S2337  1  0.023020  0.605130  0.911410  1
  S  S2338  1  0.460440  0.023020  0.911410  1
  S  S2339  1  0.353740  0.446410  0.404040  1
  S  S2340  1  0.795810  0.353740  0.404040  1
  S  S2341  1  0.446410  0.795810  0.404040  1
  S  S2342  1  0.646260  0.553590  0.595960  1
  S  S2343  1  0.204190  0.646260  0.595960  1
  S  S2344  1  0.553590  0.204190  0.595960  1
  S  S2345  1  0.393940  0.671840  0.248280  1
  S  S2346  1  0.685940  0.393940  0.248280  1
  S  S2347  1  0.671840  0.685940  0.248280  1
  S  S2348  1  0.606060  0.328160  0.751720  1
  S  S2349  1  0.314060  0.606060  0.751720  1
  S  S2350  1  0.328160  0.314060  0.751720  1
