
#######################################################################
#
#                 Cambridge Crystallographic Data Centre
#                                CCDC 
#
#######################################################################
#
# If this CIF has been generated from an entry in the Cambridge 
# Structural Database, then it will include bibliographic, chemical, 
# crystal, experimental, refinement or atomic coordinate data resulting 
# from the CCDC's data processing and validation procedures.
#
#######################################################################

data_EGEFOM
_chemical_formula_moiety         
'C144 H96 Fe4 N24 O36 S12 4-,4(C4 H12 N1 1+),x(C3 H6 O1),x(H2 O1)'
_chemical_name_systematic        
"tetrakis(Tetramethylammonium) hexakis(\m~2~-N,N'-bis(2-pyridylformyl)-4,4'-diaminobiphenyl-2,2'-disulfonate-N,N',N'',N''')-tetra-iron(ii) acetone clathrate hydrate"
_symmetry_cell_setting           rhombohedral
_symmetry_space_group_name_H-M   'R -3'
_symmetry_Int_Tables_number      148
_space_group_name_Hall           '-R 3'
loop_
_symmetry_equiv_pos_site_id
_symmetry_equiv_pos_as_xyz
1 x,y,z
2 -y,x-y,z
3 -x+y,-x,z
4 1/3+x,2/3+y,2/3+z
5 1/3-y,2/3+x-y,2/3+z
6 1/3-x+y,2/3-x,2/3+z
7 2/3+x,1/3+y,1/3+z
8 2/3-y,1/3+x-y,1/3+z
9 2/3-x+y,1/3-x,1/3+z
10 -x,-y,-z
11 y,-x+y,-z
12 x-y,x,-z
13 2/3-x,1/3-y,1/3-z
14 2/3+y,1/3-x+y,1/3-z
15 2/3+x-y,1/3+x,1/3-z
16 1/3-x,2/3-y,2/3-z
17 1/3+y,2/3-x+y,2/3-z
18 1/3+x-y,2/3+x,2/3-z
_cell_length_a                   34.8364(3)
_cell_length_b                   34.8364(3)
_cell_length_c                   101.0730(12)
_cell_angle_alpha                90
_cell_angle_beta                 90
_cell_angle_gamma                120.0
_cell_volume                     106226
_exptl_crystal_colour            violet
_exptl_crystal_description       prism
_cell_formula_units_Z            18
loop_
_atom_site_label
_atom_site_type_symbol
_atom_site_fract_x
_atom_site_fract_y
_atom_site_fract_z
N25 N 0.8117(5) 0.3014(4) 0.04111(10)
N26 N 0.6702(5) 0.0553(5) 0.16347(16)
N27 N 0.4265(5) 0.0342(5) 0.0461(2)
N28 N 0.8954(6) 0.1641(6) 0.13599(18)
N29 N 0.5969(6) -0.2935(6) 0.1221(2)
N30 N 0.4454(6) -0.0191(6) 0.12137(16)
N31 N 0.4332(10) -0.1831(8) 0.1342(5)
O37 O 0.6855(5) 0.0370(6) 0.07011(16)
C145 C 0.7368(5) 0.0332(9) 0.0850(2)
H97 H 0.7589 0.0528 0.0785
H98 H 0.7373 0.0054 0.0856
H99 H 0.7438 0.0478 0.0937
C146 C 0.6915(4) 0.0236(5) 0.08075(14)
C147 C 0.6538(6) -0.0030(12) 0.0901(2)
H100 H 0.6263 -0.0067 0.0864
H101 H 0.6598 0.0124 0.0986
H102 H 0.6509 -0.0323 0.0914
O38 O 0.9170(7) 0.1605(7) 0.0044(2)
O39 O 0.5644(8) 0.1116(6) 0.0315(2)
O40 O 0.6214(7) -0.3435(6) 0.1365(2)
O41 O 0.7496(6) -0.2018(7) 0.11955(16)
O42 O 0.8060(7) -0.1038(6) 0.12763(18)
O43 O 0.6808(9) 0.2575(11) 0.03522(16)
O44 O 0.5100(6) -0.1028(6) 0.09469(17)
O45 O 0.7222(4) 0.2614(4) 0.10937(17)
O46 O 0.7728(7) -0.1199(6) 0.06666(14)
O47 O 0.7564(4) -0.0753(4) 0.08717(12)
O48 O 0.6955(6) -0.2038(5) 0.06571(15)
O49 O 0.8646(5) 0.2119(6) 0.14816(18)
O50 O 0.9153(6) 0.3123(7) 0.1220(2)
O51 O 0.5005(5) 0.1171(5) 0.04582(12)
O52 O 0.6522(6) 0.1323(5) 0.03500(18)
O53 O 0.7033(7) 0.0550(9) 0.0166(2)
O54 O 0.9702(7) 0.3113(5) 0.04938(19)
O55 O 0.7866(7) 0.1746(5) 0.03638(15)
O56 O 0.6754(7) -0.2622(8) 0.0468(3)
O57 O 1.0080(8) 0.2106(12) 0.00209(19)
O58 O 0.8345(10) 0.2656(8) 0.1507(2)
O59 O 0.5882(8) -0.2974(7) 0.0040(2)
O60 O 0.9199(8) 0.2374(8) 0.0089(2)
O61 O 0.6078(9) 0.2556(10) 0.1609(2)
O62 O 0.3944(11) 0.0094(13) 0.1171(3)
O63 O 0.8838(11) 0.2518(9) 0.0311(2)
O64 O 0.7794(9) -0.1217(11) 0.1596(4)
O65 O 0.9290(9) -0.0010(7) 0.0750(5)
O66 O 0.6863(11) 0.2971(10) 0.1141(4)
O67 O 0.7116(11) -0.2973(15) 0.1415(3)
O69 O 0.5746(15) -0.1804(19) -0.0256(4)
O70 O 0.7266(10) 0.1931(9) 0.1282(3)
O71 O 0.7726(11) -0.2412(10) 0.1353(3)
O72 O 0.7375(9) 0.1218(11) 0.1252(4)
O73 O 0.8479(10) -0.0389(13) 0.1608(4)
O74 O 0.6667 0.3333 0.03792(16)
O75 O 0.8339(18) 0.1863(16) 0.1332(4)
O76 O 1.0091(9) 0.2955(15) 0.0031(5)
O77 O 0.3820(9) -0.4183(12) 0.0369(5)
O78 O 0.9125(18) -0.106(2) 0.1319(6)
O79 O 1.00000 0.00000 0.0834(5)
Fe1 Fe 0.93596(5) 0.17174(5) 0.077332(16)
Fe2 Fe 0.55441(4) 0.14308(4) 0.090613(13)
Fe3 Fe 0.58674(6) -0.15856(6) 0.027203(16)
Fe4 Fe 0.64020(6) -0.12755(5) 0.153288(15)
S1 S 0.81484(8) 0.23356(8) 0.10020(3)
S2 S 0.86130(15) 0.00428(15) 0.10929(6)
S3 S 0.81757(13) 0.08227(11) 0.03037(4)
S4 S 0.46876(11) -0.03671(11) 0.06349(5)
S5 S 0.61399(9) 0.08683(10) 0.13877(3)
S6 S 0.66040(16) -0.19636(13) 0.10095(4)
S7 S 0.72860(8) 0.21342(9) 0.06163(3)
S8 S 0.81969(19) 0.04641(16) 0.14651(5)
S9 S 0.79081(13) -0.05838(14) 0.03312(5)
S10 S 0.5756(2) 0.00651(16) 0.02953(4)
S11 S 0.51158(11) -0.06951(11) 0.13468(3)
S12 S 0.5233(2) -0.2313(2) 0.08276(5)
O1 O 0.7883(2) 0.2543(2) 0.09691(7)
O2 O 0.8304(5) -0.0277(5) 0.1001(2)
O3 O 0.7973(3) 0.2027(2) 0.11129(7)
O4 O 0.8614(2) 0.2648(2) 0.10202(7)
O5 O 0.7979(4) 0.0472(3) 0.02144(9)
O6 O 0.8540(5) -0.0122(5) 0.12189(17)
O7 O 0.9057(4) 0.0223(4) 0.10505(16)
O8 O 0.4390(3) -0.0206(3) 0.06501(16)
O9 O 0.7835(5) 0.0943(4) 0.03340(12)
O10 O 0.8569(5) 0.1204(4) 0.02748(13)
O11 O 0.6025(3) 0.1205(3) 0.14098(8)
O12 O 0.4677(5) -0.0612(4) 0.07559(14)
O13 O 0.6635(4) -0.2211(3) 0.11189(9)
O14 O 0.5997(3) 0.0547(3) 0.14951(7)
O15 O 0.4639(3) -0.0621(3) 0.05190(12)
O16 O 0.6601(2) 0.1054(3) 0.13534(9)
O17 O 0.6390(4) -0.2237(4) 0.08969(11)
O18 O 0.7037(4) -0.1568(3) 0.09775(12)
O19 O 0.7738(2) 0.2478(2) 0.06312(7)
O20 O 0.8224(7) 0.0259(5) 0.15833(13)
O21 O 0.6987(2) 0.2294(2) 0.05768(7)
O22 O 0.7975(6) 0.0677(7) 0.1478(2)
O23 O 0.8293(4) -0.0191(4) 0.0304(2)
O24 O 0.7230(3) 0.1776(2) 0.05308(7)
O25 O 0.8579(5) 0.0740(5) 0.13953(13)
O26 O 0.7937(6) -0.0744(6) 0.04499(17)
O27 O 0.6271(5) 0.0412(4) 0.03257(14)
O28 O 0.4960(3) -0.1043(3) 0.14470(9)
O29 O 0.7758(5) -0.0915(7) 0.0234(2)
O30 O 0.5710(6) -0.0131(4) 0.01702(11)
O31 O 0.5467(5) 0.0236(4) 0.03177(11)
O32 O 0.5357(6) -0.2524(5) 0.09402(13)
O33 O 0.5005(3) -0.0353(3) 0.13763(9)
O34 O 0.4999(3) -0.0879(3) 0.12148(8)
O35 O 0.4975(5) -0.2579(7) 0.07168(14)
O36 O 0.5047(5) -0.2033(8) 0.08688(19)
N1 N 0.9668(3) 0.1884(3) 0.06004(9)
N2 N 0.9677(3) 0.2331(3) 0.08353(9)
N3 N 0.9818(3) 0.1611(4) 0.08528(11)
N4 N 0.5756(2) 0.2005(2) 0.08191(7)
N5 N 0.4930(2) 0.1213(2) 0.08419(8)
N6 N 0.5874(4) -0.1467(3) 0.16470(9)
N7 N 0.8934(2) 0.1823(2) 0.06748(8)
N8 N 0.9061(3) 0.1622(3) 0.09487(8)
N9 N 0.9099(3) 0.1074(3) 0.07221(9)
N10 N 0.5704(2) 0.1293(2) 0.07319(7)
N11 N 0.5255(3) 0.0813(2) 0.09764(7)
N12 N 0.5956(3) -0.1512(3) 0.13955(9)
N13 N 0.6138(2) 0.1652(2) 0.09881(7)
N14 N 0.6910(3) -0.1142(3) 0.14173(9)
N15 N 0.6313(3) -0.0947(3) 0.02430(8)
N16 N 0.5463(3) -0.1503(3) 0.03897(9)
N17 N 0.6503(3) -0.0665(3) 0.15303(8)
N18 N 0.6207(3) -0.1675(3) 0.04153(9)
N19 N 0.5441(2) 0.1638(2) 0.10769(7)
N20 N 0.6391(4) -0.1850(3) 0.15426(9)
N21 N 0.5597(4) -0.1474(4) 0.01189(10)
N22 N 0.5392(4) -0.2213(3) 0.02850(11)
N23 N 0.6812(3) -0.1029(3) 0.16821(8)
N24 N 0.6231(4) -0.1747(3) 0.01635(9)
C1 C 1.0042(4) 0.1919(5) 0.05627(13)
H1 H 1.0204 0.1858 0.0627
C2 C 0.9986(3) 0.2699(4) 0.07760(13)
H2 H 1.0062 0.2678 0.0687
C3 C 1.0165(4) 0.1874(5) 0.09189(14)
H3 H 1.0224 0.2166 0.0937
C4 C 0.5784(3) 0.2374(3) 0.08667(11)
H4 H 0.5704 0.2377 0.0956
C5 C 0.4769(3) 0.1420(3) 0.07675(9)
H5 H 0.4963 0.1721 0.0745
C6 C 0.5874(6) -0.1417(5) 0.17822(12)
H6 H 0.6145 -0.1276 0.183
C7 C 1.0220(4) 0.2036(5) 0.04393(14)
H7 H 1.0488 0.2041 0.0417
C8 C 1.0198(4) 0.3104(5) 0.08367(13)
H8 H 1.0428 0.3353 0.0792
C9 C 1.0476(5) 0.1736(8) 0.09681(19)
H9 H 1.0743 0.1944 0.1011
C10 C 0.5926(3) 0.2757(3) 0.07916(12)
H10 H 0.5942 0.3013 0.0831
C11 C 0.4341(3) 0.1220(3) 0.07222(10)
H11 H 0.4242 0.1382 0.0671
C12 C 0.5459(6) -0.1581(6) 0.18489(17)
H12 H 0.5458 -0.1539 0.1942
C13 C 1.0004(4) 0.2141(5) 0.03512(15)
H13 H 1.0127 0.2233 0.0265
C14 C 1.0079(4) 0.3151(4) 0.09627(15)
H14 H 1.0219 0.3435 0.1003
C15 C 1.0383(8) 0.1334(8) 0.0953(2)
H15 H 1.0579 0.1243 0.0987
C16 C 0.6041(3) 0.2765(4) 0.06611(12)
H16 H 0.6138 0.3024 0.0609
C17 C 0.4057(3) 0.0780(3) 0.07520(11)
H17 H 0.3761 0.0635 0.072
C18 C 0.5097(9) -0.1777(8) 0.17894(19)
H18 H 0.483 -0.1902 0.1839
C19 C 0.9617(4) 0.2124(4) 0.03788(12)
H19 H 0.9468 0.2201 0.0315
C20 C 0.9754(4) 0.2782(4) 0.10330(13)
H20 H 0.9677 0.2804 0.1122
C21 C 0.9986(6) 0.1015(6) 0.0885(2)
H21 H 0.9898 0.071 0.0877
C22 C 0.6010(3) 0.2388(3) 0.06097(11)
H22 H 0.6081 0.2375 0.052
C23 C 0.4203(3) 0.0557(3) 0.08278(11)
H23 H 0.4011 0.0255 0.085
C24 C 0.5072(7) -0.1820(6) 0.16403(19)
H24 H 0.4803 -0.194 0.1592
C25 C 0.9443(3) 0.1988(4) 0.05080(12)
C26 C 0.9551(4) 0.2379(4) 0.09635(12)
C27 C 0.9744(5) 0.1202(6) 0.08321(17)
C28 C 0.5870(3) 0.2019(3) 0.06927(10)
C29 C 0.4640(3) 0.0780(3) 0.08715(10)
C30 C 0.5491(5) -0.1663(5) 0.15809(13)
C31 C 0.9043(3) 0.1955(3) 0.05569(10)
H25 H 0.8866 0.2029 0.0503
C32 C 0.9214(3) 0.1978(3) 0.10185(11)
H26 H 0.9104 0.1971 0.1105
C33 C 0.9354(4) 0.0912(5) 0.07539(15)
H27 H 0.9288 0.0623 0.0728
C34 C 0.5840(3) 0.1600(3) 0.06462(10)
H28 H 0.5917 0.1564 0.0559
C35 C 0.4841(3) 0.0579(3) 0.09490(10)
H29 H 0.4671 0.0281 0.0979
C36 C 0.5554(6) -0.1692(4) 0.14365(14)
H30 H 0.531 -0.1836 0.1378
C37 C 0.8514(3) 0.1772(3) 0.07221(10)
C38 C 0.8725(3) 0.1224(3) 0.10108(10)
C39 C 0.8703(4) 0.0791(4) 0.06522(12)
C40 C 0.5681(3) 0.0887(3) 0.06892(9)
C41 C 0.5450(3) 0.0603(3) 0.10504(10)
C42 C 0.5988(5) -0.1533(4) 0.12528(11)
C43 C 0.8512(3) 0.2043(3) 0.08220(9)
H31 H 0.8784 0.2252 0.0862
C44 C 0.8800(4) 0.0867(4) 0.10273(11)
H32 H 0.9062 0.0889 0.0992
C45 C 0.8626(4) 0.0882(4) 0.05295(11)
H33 H 0.8847 0.1147 0.0489
C46 C 0.5266(3) 0.0513(3) 0.06731(9)
H34 H 0.5007 0.0528 0.0693
C47 C 0.5651(3) 0.0774(3) 0.11657(10)
H35 H 0.5663 0.1036 0.1198
C48 C 0.6192(5) -0.1745(4) 0.12021(11)
H36 H 0.6296 -0.1887 0.126
C49 C 0.8125(3) 0.2012(3) 0.08631(10)
C50 C 0.8515(4) 0.0498(4) 0.10914(12)
C51 C 0.8247(4) 0.0616(4) 0.04585(11)
C52 C 0.5228(3) 0.0118(3) 0.06280(10)
C53 C 0.5851(3) 0.0572(4) 0.12433(10)
C54 C 0.6253(5) -0.1760(4) 0.10645(12)
C55 C 0.7716(3) 0.1706(3) 0.08019(10)
C56 C 0.8132(4) 0.0467(4) 0.11477(11)
C57 C 0.7946(4) 0.0203(4) 0.05080(11)
C58 C 0.5599(3) 0.0090(3) 0.05973(10)
C59 C 0.5827(4) 0.0191(3) 0.11967(10)
C60 C 0.6078(5) -0.1574(4) 0.09761(11)
C61 C 0.7723(3) 0.1430(3) 0.07069(11)
H37 H 0.745 0.121 0.067
C62 C 0.8046(4) 0.0813(4) 0.11295(14)
H38 H 0.7785 0.0796 0.1165
C63 C 0.8023(4) 0.0105(4) 0.06340(12)
H39 H 0.7817 -0.0173 0.0672
C64 C 0.6005(4) 0.0463(4) 0.06192(12)
H40 H 0.6264 0.0447 0.0601
C65 C 0.5631(4) 0.0027(4) 0.10770(11)
H41 H 0.5617 -0.0237 0.1045
C66 C 0.5869(6) -0.1360(5) 0.10339(12)
H42 H 0.5739 -0.1239 0.0977
C67 C 0.8116(3) 0.1459(3) 0.06624(10)
H43 H 0.8114 0.1272 0.0594
C68 C 0.8353(4) 0.1187(4) 0.10577(12)
H44 H 0.8293 0.1421 0.1042
C69 C 0.8377(5) 0.0385(5) 0.07054(14)
H45 H 0.8408 0.0309 0.0793
C70 C 0.6058(3) 0.0863(4) 0.06658(12)
H46 H 0.6344 0.111 0.0681
C71 C 0.5452(4) 0.0227(4) 0.09990(11)
H47 H 0.5334 0.0115 0.0914
C72 C 0.5840(5) -0.1312(4) 0.11704(11)
H48 H 0.5725 -0.1137 0.1205
C73 C 0.7282(3) 0.1664(3) 0.08442(10)
C74 C 0.7785(4) 0.0058(4) 0.12248(11)
C75 C 0.7512(4) -0.0123(4) 0.04390(11)
C76 C 0.5589(3) -0.0308(3) 0.05457(10)
C77 C 0.6002(4) -0.0048(4) 0.12789(10)
C78 C 0.6097(5) -0.1602(4) 0.08318(11)
C79 C 0.7087(3) 0.1877(3) 0.07745(9)
C80 C 0.7805(4) 0.0023(4) 0.13571(12)
C81 C 0.7469(4) -0.0459(4) 0.03601(12)
C82 C 0.5612(4) -0.0367(4) 0.04121(13)
C83 C 0.5709(4) -0.0438(4) 0.13523(10)
C84 C 0.5742(5) -0.1928(4) 0.07587(12)
C85 C 0.6720(3) 0.1867(3) 0.08223(9)
H49 H 0.6599 0.202 0.0776
C86 C 0.7514(4) -0.0370(4) 0.14219(12)
H50 H 0.7528 -0.0392 0.1515
C87 C 0.7074(4) -0.0738(4) 0.02982(11)
H51 H 0.7049 -0.0973 0.0245
C88 C 0.5565(4) -0.0779(4) 0.03635(11)
H52 H 0.5565 -0.0823 0.0271
C89 C 0.5883(4) -0.0639(4) 0.14324(9)
H53 H 0.569 -0.0896 0.1482
C90 C 0.5789(5) -0.1928(4) 0.06214(12)
H54 H 0.5546 -0.2142 0.0571
C91 C 0.6516(3) 0.1638(3) 0.09376(9)
C92 C 0.7200(4) -0.0735(4) 0.13484(10)
C93 C 0.6710(4) -0.0679(3) 0.03132(10)
C94 C 0.5521(4) -0.1097(3) 0.04448(11)
C95 C 0.6337(4) -0.0465(3) 0.14400(9)
C96 C 0.6168(4) -0.1634(4) 0.05552(10)
C97 C 0.6692(3) 0.1414(3) 0.10052(10)
H55 H 0.6552 0.1248 0.1083
C98 C 0.7166(5) -0.0698(4) 0.12176(12)
H56 H 0.6947 -0.0937 0.1167
C99 C 0.6759(4) -0.0337(4) 0.03960(12)
H57 H 0.6513 -0.0294 0.0411
C100 C 0.5525(5) -0.1026(4) 0.05784(12)
H58 H 0.5516 -0.1242 0.0638
C101 C 0.6614(4) -0.0101(4) 0.13642(11)
H59 H 0.6924 0.0007 0.1366
C102 C 0.6518(5) -0.1304(4) 0.06282(10)
H60 H 0.6779 -0.1085 0.0585
C103 C 0.7074(3) 0.1440(3) 0.09573(11)
H61 H 0.7199 0.1294 0.1005
C104 C 0.7471(5) -0.0284(4) 0.11573(12)
H62 H 0.7449 -0.0251 0.1065
C105 C 0.7148(4) -0.0065(4) 0.04556(12)
H63 H 0.7175 0.017 0.051
C106 C 0.5543(4) -0.0649(4) 0.06282(11)
H64 H 0.5523 -0.0622 0.0721
C107 C 0.6451(4) 0.0107(4) 0.12873(12)
H65 H 0.6651 0.0363 0.1239
C108 C 0.6475(5) -0.1303(4) 0.07645(12)
H66 H 0.6718 -0.1086 0.0814
C109 C 0.6189(3) 0.1835(3) 0.11019(10)
H67 H 0.6465 0.1967 0.1147
C110 C 0.7012(5) -0.1444(4) 0.14093(13)
H68 H 0.7268 -0.1401 0.1363
C111 C 0.6228(4) -0.0789(4) 0.01426(10)
H69 H 0.6422 -0.0489 0.0118
C112 C 0.5099(4) -0.1856(4) 0.04212(13)
H70 H 0.4886 -0.1851 0.0479
C113 C 0.6782(4) -0.0394(4) 0.16180(10)
H71 H 0.6871 -0.0088 0.1621
C114 C 0.6480(5) -0.1783(4) 0.03739(12)
H72 H 0.6661 -0.1831 0.0434
C115 C 0.5795(3) 0.1828(3) 0.11592(9)
C116 C 0.6712(5) -0.1861(4) 0.14745(13)
C117 C 0.5845(5) -0.1052(5) 0.00653(12)
C118 C 0.5037(5) -0.2272(4) 0.03614(17)
C119 C 0.6950(4) -0.0594(4) 0.17116(11)
C120 C 0.6516(5) -0.1834(4) 0.02364(12)
C121 C 0.5791(4) 0.1989(3) 0.12827(11)
H73 H 0.6048 0.2121 0.1337
C122 C 0.6774(7) -0.2225(5) 0.14701(19)
H74 H 0.702 -0.2216 0.1426
C123 C 0.5708(5) -0.0915(5) -0.00462(13)
H75 H 0.59 -0.0628 -0.0081
C124 C 0.4673(6) -0.2669(4) 0.03885(18)
H76 H 0.4449 -0.2695 0.0448
C125 C 0.7228(5) -0.0354(4) 0.18137(11)
H77 H 0.7313 -0.0053 0.183
C126 C 0.6798(5) -0.1953(5) 0.01803(14)
H78 H 0.6958 -0.2044 0.0236
C127 C 0.5396(4) 0.1952(4) 0.13243(11)
H79 H 0.5378 0.206 0.1409
C128 C 0.6430(9) -0.2630(6) 0.15382(19)
H80 H 0.6446 -0.2895 0.1538
C129 C 0.5308(7) -0.1174(7) -0.01077(16)
H81 H 0.5209 -0.1071 -0.018
C130 C 0.4645(7) -0.3044(5) 0.0323(2)
H82 H 0.4393 -0.3332 0.0332
C131 C 0.7378(5) -0.0589(5) 0.18924(13)
H83 H 0.7572 -0.0437 0.1964
C132 C 0.6857(6) -0.1943(6) 0.00446(15)
H84 H 0.7078 -0.1989 0.0005
C133 C 0.5029(3) 0.1758(4) 0.12436(10)
H85 H 0.4757 0.173 0.1273
C134 C 0.6091(7) -0.2616(5) 0.16016(15)
H86 H 0.5857 -0.2873 0.1642
C135 C 0.5069(7) -0.1588(7) -0.00576(16)
H87 H 0.4792 -0.1787 -0.0097
C136 C 0.5010(8) -0.2963(6) 0.0247(2)
H88 H 0.5006 -0.3207 0.0203
C137 C 0.7263(6) -0.1007(5) 0.18721(14)
H89 H 0.7373 -0.1155 0.1925
C138 C 0.6545(7) -0.1856(6) -0.00358(15)
H90 H 0.6555 -0.1855 -0.013
C139 C 0.5057(3) 0.1602(3) 0.11182(10)
H91 H 0.4805 0.1471 0.1062
C140 C 0.6099(6) -0.2207(4) 0.16046(12)
H92 H 0.5878 -0.219 0.1655
C141 C 0.5221(5) -0.1738(5) 0.00550(15)
H93 H 0.5045 -0.2036 0.0084
C142 C 0.5378(6) -0.2548(4) 0.02301(16)
H94 H 0.562 -0.2513 0.0178
C143 C 0.6968(6) -0.1221(5) 0.17671(14)
H95 H 0.6869 -0.1526 0.1754
C144 C 0.6236(5) -0.1774(5) 0.00314(12)
H96 H 0.6026 -0.1738 -0.0019
O68? O 0.7570(11) 0.3091(16) 0.0266(4)
C148? C 0.7215(7) 0.2408(8) 0.1167(3)
C149? C 0.6371(8) 0.1646(8) 0.0212(2)
C150? C 0.5162(17) -0.3267(13) 0.0601(4)
C151? C 0.4568(15) 0.0179(15) 0.0241(3)
C152? C 0.4112(8) -0.3113(14) 0.0711(5)
C153? C 0.5175(13) -0.2067(12) 0.2171(4)
C154? C 0.9733(11) 0.0842(12) 0.0497(3)
C155? C 0.875(2) -0.0729(10) 0.1355(4)
C156? C 0.4765(12) -0.2241(17) 0.1157(3)
C157? C 0.8790(12) -0.0610(14) 0.0562(5)
C158? C 0.8592(16) -0.0517(13) -0.0046(5)
C159? C 0.4047(17) -0.1472(10) 0.0490(6)
C160? C 0.7190(14) 0.2802(19) 0.0039(5)
C161? C 0.7520(17) 0.3318(16) 0.0280(3)
C162? C 0.3563(17) -0.4106(18) 0.0156(4)
C163? C 0.7704(14) -0.168(3) 0.1625(4)
C164? C 0.6011(15) 0.1988(19) 0.0241(4)
C165? C 0.8326(16) -0.1142(14) 0.0123(4)
loop_
_geom_bond_atom_site_label_1
_geom_bond_atom_site_label_2
_geom_bond_site_symmetry_1
_geom_bond_site_symmetry_2
Fe1 N1 1_555 1_555
Fe2 N4 1_555 1_555
Fe3 N15 1_555 1_555
Fe4 N6 1_555 1_555
S1 O1 1_555 1_555
S2 O2 1_555 1_555
S3 O5 1_555 1_555
S4 O8 1_555 1_555
S5 O11 1_555 1_555
S6 O13 1_555 1_555
S7 O19 1_555 1_555
S8 O20 1_555 1_555
S9 O23 1_555 1_555
S10 O27 1_555 1_555
S11 O28 1_555 1_555
S12 O32 1_555 1_555
O3 S1 1_555 1_555
O4 S1 1_555 1_555
O6 S2 1_555 1_555
O7 S2 1_555 1_555
O9 S3 1_555 1_555
O10 S3 1_555 1_555
O12 S4 1_555 1_555
O14 S5 1_555 1_555
O15 S4 1_555 1_555
O16 S5 1_555 1_555
O17 S6 1_555 1_555
O18 S6 1_555 1_555
O21 S7 1_555 1_555
O22 S8 1_555 1_555
O24 S7 1_555 1_555
O25 S8 1_555 1_555
O26 S9 1_555 1_555
O29 S9 1_555 1_555
O30 S10 1_555 1_555
O31 S10 1_555 1_555
O33 S11 1_555 1_555
O34 S11 1_555 1_555
O35 S12 1_555 1_555
O36 S12 1_555 1_555
N1 C1 1_555 1_555
N2 Fe1 1_555 1_555
N3 Fe1 1_555 1_555
N4 C4 1_555 1_555
N5 Fe2 1_555 1_555
N6 C6 1_555 1_555
N7 Fe1 1_555 1_555
N8 Fe1 1_555 1_555
N9 Fe1 1_555 1_555
N10 Fe2 1_555 1_555
N11 Fe2 1_555 1_555
N12 Fe4 1_555 1_555
N13 Fe2 1_555 1_555
N14 Fe4 1_555 1_555
N15 C93 1_555 1_555
N16 Fe3 1_555 1_555
N17 Fe4 1_555 1_555
N18 Fe3 1_555 1_555
N19 Fe2 1_555 1_555
N20 Fe4 1_555 1_555
N21 Fe3 1_555 1_555
N22 Fe3 1_555 1_555
N23 Fe4 1_555 1_555
N24 Fe3 1_555 1_555
C1 H1 1_555 1_555
C2 N2 1_555 1_555
H2 C2 1_555 1_555
C3 N3 1_555 1_555
H3 C3 1_555 1_555
C4 H4 1_555 1_555
C5 N5 1_555 1_555
H5 C5 1_555 1_555
C6 H6 1_555 1_555
C7 C1 1_555 1_555
H7 C7 1_555 1_555
C8 C2 1_555 1_555
H8 C8 1_555 1_555
C9 C3 1_555 1_555
H9 C9 1_555 1_555
C10 C4 1_555 1_555
H10 C10 1_555 1_555
C11 C5 1_555 1_555
H11 C11 1_555 1_555
C12 C6 1_555 1_555
H12 C12 1_555 1_555
C13 C7 1_555 1_555
H13 C13 1_555 1_555
C14 C8 1_555 1_555
H14 C14 1_555 1_555
C15 C9 1_555 1_555
H15 C15 1_555 1_555
C16 C10 1_555 1_555
H16 C16 1_555 1_555
C17 C11 1_555 1_555
H17 C17 1_555 1_555
C18 C12 1_555 1_555
H18 C18 1_555 1_555
C19 C13 1_555 1_555
H19 C19 1_555 1_555
C20 C14 1_555 1_555
H20 C20 1_555 1_555
C21 C15 1_555 1_555
H21 C21 1_555 1_555
C22 C16 1_555 1_555
H22 C22 1_555 1_555
C23 C17 1_555 1_555
H23 C23 1_555 1_555
C24 C18 1_555 1_555
H24 C24 1_555 1_555
C25 N1 1_555 1_555
C26 N2 1_555 1_555
C27 N3 1_555 1_555
C28 N4 1_555 1_555
C29 N5 1_555 1_555
C30 N6 1_555 1_555
C31 N7 1_555 1_555
H25 C31 1_555 1_555
C32 N8 1_555 1_555
H26 C32 1_555 1_555
C33 N9 1_555 1_555
H27 C33 1_555 1_555
C34 N10 1_555 1_555
H28 C34 1_555 1_555
C35 N11 1_555 1_555
H29 C35 1_555 1_555
C36 N12 1_555 1_555
H30 C36 1_555 1_555
C37 N7 1_555 1_555
C38 N8 1_555 1_555
C39 N9 1_555 1_555
C40 N10 1_555 1_555
C41 N11 1_555 1_555
C42 N12 1_555 1_555
C43 C37 1_555 1_555
H31 C43 1_555 1_555
C44 C38 1_555 1_555
H32 C44 1_555 1_555
C45 C39 1_555 1_555
H33 C45 1_555 1_555
C46 C40 1_555 1_555
H34 C46 1_555 1_555
C47 C41 1_555 1_555
H35 C47 1_555 1_555
C48 C42 1_555 1_555
H36 C48 1_555 1_555
C49 S1 1_555 1_555
C50 S2 1_555 1_555
C51 S3 1_555 1_555
C52 S4 1_555 1_555
C53 S5 1_555 1_555
C54 S6 1_555 1_555
C55 C49 1_555 1_555
C56 C50 1_555 1_555
C57 C51 1_555 1_555
C58 C52 1_555 1_555
C59 C53 1_555 1_555
C60 C54 1_555 1_555
C61 C55 1_555 1_555
H37 C61 1_555 1_555
C62 C56 1_555 1_555
H38 C62 1_555 1_555
C63 C57 1_555 1_555
H39 C63 1_555 1_555
C64 C58 1_555 1_555
H40 C64 1_555 1_555
C65 C59 1_555 1_555
H41 C65 1_555 1_555
C66 C60 1_555 1_555
H42 C66 1_555 1_555
C67 C37 1_555 1_555
H43 C67 1_555 1_555
C68 C38 1_555 1_555
H44 C68 1_555 1_555
C69 C39 1_555 1_555
H45 C69 1_555 1_555
C70 C40 1_555 1_555
H46 C70 1_555 1_555
C71 C41 1_555 1_555
H47 C71 1_555 1_555
C72 C42 1_555 1_555
H48 C72 1_555 1_555
C73 C55 1_555 1_555
C74 C56 1_555 1_555
C75 C57 1_555 1_555
C76 C58 1_555 1_555
C77 C59 1_555 1_555
C78 C60 1_555 1_555
C79 S7 1_555 1_555
C80 S8 1_555 1_555
C81 S9 1_555 1_555
C82 S10 1_555 1_555
C83 S11 1_555 1_555
C84 S12 1_555 1_555
C85 C79 1_555 1_555
H49 C85 1_555 1_555
C86 C80 1_555 1_555
H50 C86 1_555 1_555
C87 C81 1_555 1_555
H51 C87 1_555 1_555
C88 C82 1_555 1_555
H52 C88 1_555 1_555
C89 C83 1_555 1_555
H53 C89 1_555 1_555
C90 C84 1_555 1_555
H54 C90 1_555 1_555
C91 N13 1_555 1_555
C92 N14 1_555 1_555
C93 C87 1_555 1_555
C94 N16 1_555 1_555
C95 N17 1_555 1_555
C96 N18 1_555 1_555
C97 C91 1_555 1_555
H55 C97 1_555 1_555
C98 C92 1_555 1_555
H56 C98 1_555 1_555
C99 C93 1_555 1_555
H57 C99 1_555 1_555
C100 C94 1_555 1_555
H58 C100 1_555 1_555
C101 C95 1_555 1_555
H59 C101 1_555 1_555
C102 C96 1_555 1_555
H60 C102 1_555 1_555
C103 C73 1_555 1_555
H61 C103 1_555 1_555
C104 C74 1_555 1_555
H62 C104 1_555 1_555
C105 C75 1_555 1_555
H63 C105 1_555 1_555
C106 C76 1_555 1_555
H64 C106 1_555 1_555
C107 C77 1_555 1_555
H65 C107 1_555 1_555
C108 C78 1_555 1_555
H66 C108 1_555 1_555
C109 N13 1_555 1_555
H67 C109 1_555 1_555
C110 N14 1_555 1_555
H68 C110 1_555 1_555
C111 N15 1_555 1_555
H69 C111 1_555 1_555
C112 N16 1_555 1_555
H70 C112 1_555 1_555
C113 N17 1_555 1_555
H71 C113 1_555 1_555
C114 N18 1_555 1_555
H72 C114 1_555 1_555
C115 N19 1_555 1_555
C116 N20 1_555 1_555
C117 N21 1_555 1_555
C118 N22 1_555 1_555
C119 N23 1_555 1_555
C120 N24 1_555 1_555
C121 C115 1_555 1_555
H73 C121 1_555 1_555
C122 C116 1_555 1_555
H74 C122 1_555 1_555
C123 C117 1_555 1_555
H75 C123 1_555 1_555
C124 C118 1_555 1_555
H76 C124 1_555 1_555
C125 C119 1_555 1_555
H77 C125 1_555 1_555
C126 C120 1_555 1_555
H78 C126 1_555 1_555
C127 C121 1_555 1_555
H79 C127 1_555 1_555
C128 C122 1_555 1_555
H80 C128 1_555 1_555
C129 C123 1_555 1_555
H81 C129 1_555 1_555
C130 C124 1_555 1_555
H82 C130 1_555 1_555
C131 C125 1_555 1_555
H83 C131 1_555 1_555
C132 C126 1_555 1_555
H84 C132 1_555 1_555
C133 C127 1_555 1_555
H85 C133 1_555 1_555
C134 C128 1_555 1_555
H86 C134 1_555 1_555
C135 C129 1_555 1_555
H87 C135 1_555 1_555
C136 C130 1_555 1_555
H88 C136 1_555 1_555
C137 C131 1_555 1_555
H89 C137 1_555 1_555
C138 C132 1_555 1_555
H90 C138 1_555 1_555
C139 N19 1_555 1_555
H91 C139 1_555 1_555
C140 N20 1_555 1_555
H92 C140 1_555 1_555
C141 N21 1_555 1_555
H93 C141 1_555 1_555
C142 N22 1_555 1_555
H94 C142 1_555 1_555
C143 N23 1_555 1_555
H95 C143 1_555 1_555
C144 N24 1_555 1_555
H96 C144 1_555 1_555
O37 C146 1_555 1_555
C145 H97 1_555 1_555
H98 C145 1_555 1_555
H99 C145 1_555 1_555
C146 C145 1_555 1_555
C147 C146 1_555 1_555
H100 C147 1_555 1_555
H101 C147 1_555 1_555
H102 C147 1_555 1_555
C19 C25 1_555 1_555
C20 C26 1_555 1_555
C21 C27 1_555 1_555
C22 C28 1_555 1_555
C23 C29 1_555 1_555
C24 C30 1_555 1_555
C25 C31 1_555 1_555
C26 C32 1_555 1_555
C27 C33 1_555 1_555
C28 C34 1_555 1_555
C29 C35 1_555 1_555
C30 C36 1_555 1_555
C43 C49 1_555 1_555
C44 C50 1_555 1_555
C45 C51 1_555 1_555
C46 C52 1_555 1_555
C47 C53 1_555 1_555
C48 C54 1_555 1_555
C61 C67 1_555 1_555
C62 C68 1_555 1_555
C63 C69 1_555 1_555
C64 C70 1_555 1_555
C65 C71 1_555 1_555
C66 C72 1_555 1_555
C73 C79 1_555 1_555
C74 C80 1_555 1_555
C75 C81 1_555 1_555
C76 C82 1_555 1_555
C77 C83 1_555 1_555
C78 C84 1_555 1_555
C85 C91 1_555 1_555
C86 C92 1_555 1_555
C88 C94 1_555 1_555
C89 C95 1_555 1_555
C90 C96 1_555 1_555
C97 C103 1_555 1_555
C98 C104 1_555 1_555
C99 C105 1_555 1_555
C100 C106 1_555 1_555
C101 C107 1_555 1_555
C102 C108 1_555 1_555
C109 C115 1_555 1_555
C110 C116 1_555 1_555
C111 C117 1_555 1_555
C112 C118 1_555 1_555
C113 C119 1_555 1_555
C114 C120 1_555 1_555
C133 C139 1_555 1_555
C134 C140 1_555 1_555
C135 C141 1_555 1_555
C136 C142 1_555 1_555
C137 C143 1_555 1_555
C138 C144 1_555 1_555

#END
