
#######################################################################
#
#                 Cambridge Crystallographic Data Centre
#                                CCDC 
#
#######################################################################
#
# If this CIF has been generated from an entry in the Cambridge 
# Structural Database, then it will include bibliographic, chemical, 
# crystal, experimental, refinement or atomic coordinate data resulting 
# from the CCDC's data processing and validation procedures.
#
#######################################################################

data_EGIGIK
_chemical_formula_moiety         'C63 H84 Cu6 N6 O54 S6,3(C1 H4 O1)'
_chemical_name_systematic        
'hexakis(\m~2~-5-Nitroisophthalato)-nonaaqua-hexakis(dimethyl sulfoxide)-tris(methanol)-hexa-copper(ii) methanol solvate'
_symmetry_cell_setting           rhombohedral
_symmetry_space_group_name_H-M   'R 3'
_symmetry_Int_Tables_number      146
_space_group_name_Hall           'R 3'
loop_
_symmetry_equiv_pos_site_id
_symmetry_equiv_pos_as_xyz
1 x,y,z
2 -y,x-y,z
3 -x+y,-x,z
4 2/3+x,1/3+y,1/3+z
5 2/3-y,1/3+x-y,1/3+z
6 2/3-x+y,1/3-x,1/3+z
7 1/3+x,2/3+y,2/3+z
8 1/3-y,2/3+x-y,2/3+z
9 1/3-x+y,2/3-x,2/3+z
_cell_length_a                   35.023(4)
_cell_length_b                   35.023(4)
_cell_length_c                   9.9711(13)
_cell_angle_alpha                90
_cell_angle_beta                 90
_cell_angle_gamma                120.00
_cell_volume                     10592.1
_exptl_crystal_colour            blue
_exptl_crystal_description       needle
_cell_formula_units_Z            4
loop_
_atom_site_label
_atom_site_type_symbol
_atom_site_fract_x
_atom_site_fract_y
_atom_site_fract_z
Cu1 Cu 0.86884(8) 0.13803(9) -0.07982(16)
O1 O 0.8587(3) 0.1395(3) 0.1134(9)
O2 O 0.8126(4) 0.0823(4) -0.0928(18)
O3 O 0.7790(6) 0.1234(4) -0.1137(16)
O4 O 0.6231(5) 0.0477(5) -0.1528(19)
O5 O 0.5849(4) -0.0225(5) -0.1229(13)
O6 O 0.7277(4) -0.0776(4) -0.1276(16)
O7 O 0.6544(4) -0.1106(3) -0.1295(13)
N1 N 0.6187(4) 0.0120(5) -0.1325(11)
C1 C 0.7794(4) 0.0878(4) -0.1061(16)
C2 C 0.7363(4) 0.0447(4) -0.1191(17)
C3 C 0.7359(4) 0.0055(4) -0.1245(15)
H1 H 0.7626 0.0047 -0.1298
C4 C 0.6946(4) -0.0338(3) -0.1221(14)
C5 C 0.6556(5) -0.0333(5) -0.1244(15)
H2 H 0.6278 -0.0596 -0.1201
C6 C 0.6593(4) 0.0078(4) -0.1331(16)
C7 C 0.6985(5) 0.0459(5) -0.1268(15)
H3 H 0.6994 0.0735 -0.1278
C8 C 0.6928(5) -0.0782(4) -0.1242(18)
O8 O 0.9056(7) 0.1010(8) -0.073(2)
C9 C 0.9566(5) 0.1336(7) -0.029(3)
H4 H 0.9724 0.1171 -0.0292
H5 H 0.9575 0.1451 0.0613
H6 H 0.9705 0.1582 -0.0925
Cu2 Cu 0.73161(10) -0.13073(8) -0.11523(16)
O9 O 0.7209(4) -0.1417(4) -0.3087(9)
O10 O 0.7307(4) -0.1863(3) -0.1035(13)
O11 O 0.6581(4) -0.2220(5) -0.0836(15)
O12 O 0.5748(5) -0.3801(4) -0.0492(19)
O13 O 0.6079(4) -0.4169(4) -0.0742(17)
O14 O 0.9217(4) 0.1938(3) -0.0657(12)
O15 O 0.8876(4) 0.2313(6) -0.0796(17)
N2 N 0.6088(5) -0.3822(4) -0.0587(19)
C10 C 0.6943(5) -0.2200(6) -0.080(2)
C11 C 0.6916(4) -0.2633(4) -0.0759(12)
C12 C 0.7289(4) -0.2660(5) -0.0816(16)
H7 H 0.7562 -0.2397 -0.0949
C13 C 0.7291(4) -0.3067(5) -0.0685(16)
C14 C 0.6888(4) -0.3445(3) -0.0668(14)
H8 H 0.6868 -0.3726 -0.0623
C15 C 0.6508(4) -0.3414(3) -0.0718(15)
C16 C 0.6523(4) -0.3020(4) -0.0670(17)
H9 H 0.6257 -0.3013 -0.0573
C17 C 0.9214(4) 0.2283(4) -0.0748(18)
O16 O 0.8063(8) -0.0938(8) -0.153(2)
O17 O 0.7435(16) -0.1184(8) 0.058(3)
S1 S 0.7410(9) -0.1453(11) 0.155(3)
C18 C 0.6811(17) -0.1794(14) 0.217(7)
H10 H 0.6634 -0.2016 0.1490
H11 H 0.6690 -0.1599 0.2314
H12 H 0.6803 -0.1942 0.3010
C19 C 0.758(2) -0.1094(16) 0.311(2)
H13 H 0.7901 -0.0915 0.3150
H14 H 0.7469 -0.1282 0.3909
H15 H 0.7452 -0.0900 0.3076
O18 O 0.8723(6) 0.1434(5) -0.2752(9)
S2 S 0.8466(4) 0.1181(3) -0.3687(7)
C20 C 0.8653(16) 0.1326(11) -0.5469(17)
H16 H 0.8639 0.1588 -0.5732
H17 H 0.8460 0.1079 -0.6055
H18 H 0.8957 0.1385 -0.5553
C21 C 0.8531(9) 0.0660(8) -0.370(2)
H19 H 0.8506 0.0551 -0.2777
H20 H 0.8821 0.0737 -0.4062
H21 H 0.8300 0.0431 -0.4253
C17A C 0.7717(4) -0.3069(6) -0.0748(18)
O14A O 0.8062(3) -0.2721(5) -0.0657(12)
Cu1A Cu 0.86197(9) -0.26919(12) -0.07982(16)
O1A O 0.8605(3) -0.2808(4) 0.1134(9)
O2A O 0.9177(4) -0.2697(6) -0.0928(18)
C1A C 0.9122(4) -0.3084(6) -0.1061(16)
O3A O 0.8766(4) -0.3444(7) -0.1137(16)
C2A C 0.9553(4) -0.3084(6) -0.1191(17)
C3A C 0.9945(4) -0.2696(6) -0.1245(15)
H1A H 0.9953 -0.2421 -0.1298
C4A C 1.0338(3) -0.2716(5) -0.1221(14)
C5A C 1.0333(5) -0.3111(7) -0.1244(15)
H2A H 1.0596 -0.3126 -0.1201
C6A C 0.9922(4) -0.3485(6) -0.1331(16)
N1A N 0.9880(5) -0.3933(6) -0.1325(11)
O4A O 0.9523(5) -0.4246(7) -0.1528(19)
O5A O 1.0225(5) -0.3926(6) -0.1229(13)
C7A C 0.9541(5) -0.3474(7) -0.1268(15)
H3A H 0.9265 -0.3741 -0.1278
C8A C 1.0782(4) -0.2290(6) -0.1242(18)
O6A O 1.0776(4) -0.1947(6) -0.1276(16)
Cu2A Cu 1.13073(8) -0.13766(13) -0.11523(16)
O9A O 1.1417(4) -0.1374(6) -0.3087(9)
O10A O 1.1863(3) -0.0830(5) -0.1035(13)
C10A C 1.2200(6) -0.0857(8) -0.080(2)
O11A O 1.2220(5) -0.1199(6) -0.0836(15)
C11A C 1.2633(4) -0.0451(6) -0.0759(12)
C12A C 1.2660(5) -0.0051(6) -0.0816(16)
H7A H 1.2397 -0.0041 -0.0949
C13A C 1.3067(5) 0.0358(6) -0.0685(16)
C14A C 1.3445(3) 0.0333(5) -0.0668(14)
H8A H 1.3726 0.0594 -0.0623
C15A C 1.3414(3) -0.0078(5) -0.0718(15)
N2A N 1.3822(4) -0.0090(6) -0.0587(19)
O12A O 1.3801(4) -0.0451(6) -0.0492(19)
O13A O 1.4169(4) 0.0248(6) -0.0742(17)
C16A C 1.3020(4) -0.0457(6) -0.0670(17)
H9A H 1.3013 -0.0730 -0.0573
C17B C 1.3069(6) 0.0786(4) -0.0748(18)
O14B O 1.2721(5) 0.0783(4) -0.0657(12)
Cu1B Cu 1.26919(12) 0.13116(8) -0.07982(16)
O1B O 1.2808(4) 0.1413(3) 0.1134(9)
O2B O 1.2697(6) 0.1874(4) -0.0928(18)
C1B C 1.3084(6) 0.2206(4) -0.1061(16)
O3B O 1.3444(7) 0.2210(6) -0.1137(16)
C2B C 1.3084(6) 0.2637(4) -0.1191(17)
C3B C 1.2696(6) 0.2641(4) -0.1245(15)
H1B H 1.2421 0.2374 -0.1298
C4B C 1.2716(5) 0.3054(4) -0.1221(14)
C5B C 1.3111(7) 0.3444(5) -0.1244(15)
H2B H 1.3126 0.3722 -0.1201
C6B C 1.3485(6) 0.3407(4) -0.1331(16)
N1B N 1.3933(6) 0.3813(4) -0.1325(11)
O4B O 1.4246(7) 0.3769(5) -0.1528(19)
O5B O 1.3926(6) 0.4151(4) -0.1229(13)
C7B C 1.3474(7) 0.3015(5) -0.1268(15)
H3B H 1.3741 0.3006 -0.1278
C8B C 1.2290(6) 0.3072(5) -0.1242(18)
O6B O 1.1947(6) 0.2723(4) -0.1276(16)
Cu2B Cu 1.13766(13) 0.26839(10) -0.11523(16)
O9B O 1.1374(6) 0.2791(4) -0.3087(9)
O10B O 1.0830(5) 0.2693(4) -0.1035(13)
C10B C 1.0857(8) 0.3057(5) -0.080(2)
O11B O 1.1199(6) 0.3419(4) -0.0836(15)
C11B C 1.0451(6) 0.3084(4) -0.0759(12)
C12B C 1.0051(6) 0.2711(4) -0.0816(16)
H7B H 1.0041 0.2438 -0.0949
C13B C 0.9642(6) 0.2709(4) -0.0685(16)
C14B C 0.9667(5) 0.3112(4) -0.0668(14)
H8B H 0.9406 0.3132 -0.0623
C15B C 1.0078(5) 0.3492(4) -0.0718(15)
N2B N 1.0090(6) 0.3912(5) -0.0587(19)
O12B O 1.0451(6) 0.4252(5) -0.0492(19)
O13B O 0.9752(6) 0.3921(4) -0.0742(17)
C16B C 1.0457(6) 0.3477(4) -0.0670(17)
H9B H 1.0730 0.3743 -0.0573
O16B O 1.0999(11) 0.1937(8) -0.153(2)
O17B O 1.1381(18) 0.2565(16) 0.058(3)
S1B S 1.1137(14) 0.2590(9) 0.155(3)
C18B C 1.1395(22) 0.3189(17) 0.217(7)
H10B H 1.1350 0.3366 0.1490
H11B H 1.1711 0.3310 0.2314
H12B H 1.1255 0.3197 0.3010
C19B C 1.1326(26) 0.242(2) 0.311(2)
H13B H 1.1184 0.2099 0.3150
H14B H 1.1249 0.2531 0.3909
H15B H 1.1648 0.2548 0.3076
O7B O 1.2350(5) 0.3456(4) -0.1295(13)
O8B O 1.1954(11) 0.0944(7) -0.073(2)
C9B C 1.1770(9) 0.0434(5) -0.029(3)
H4B H 1.1447 0.0276 -0.0292
H5B H 1.1876 0.0425 0.0613
H6B H 1.1877 0.0295 -0.0925
O18B O 1.2711(8) 0.1277(6) -0.2752(9)
S2B S 1.2715(5) 0.1534(4) -0.3687(7)
C20B C 1.2673(19) 0.1347(16) -0.5469(17)
H16B H 1.2949 0.1361 -0.5732
H17B H 1.2619 0.1540 -0.6055
H18B H 1.2428 0.1043 -0.5553
C21B C 1.2129(12) 0.1469(9) -0.370(2)
H19B H 1.2045 0.1494 -0.2777
H20B H 1.1916 0.1179 -0.4062
H21B H 1.2131 0.1700 -0.4253
O15B O 1.3437(7) 0.1124(4) -0.0796(17)
O16A O 1.0938(8) -0.0999(11) -0.153(2)
O17A O 1.1184(8) -0.1381(18) 0.058(3)
S1A S 1.1453(11) -0.1137(14) 0.155(3)
C18A C 1.1794(14) -0.1395(22) 0.217(7)
H10A H 1.2016 -0.1350 0.1490
H11A H 1.1599 -0.1711 0.2314
H12A H 1.1942 -0.1255 0.3010
C19A C 1.1094(16) -0.1326(26) 0.311(2)
H13A H 1.0915 -0.1184 0.3150
H14A H 1.1282 -0.1249 0.3909
H15A H 1.0900 -0.1648 0.3076
O7A O 1.1106(3) -0.2350(5) -0.1295(13)
O8A O 0.8990(8) -0.1954(11) -0.073(2)
C9A C 0.8664(7) -0.1770(9) -0.029(3)
H4A H 0.8829 -0.1447 -0.0292
H5A H 0.8549 -0.1876 0.0613
H6A H 0.8418 -0.1877 -0.0925
O18A O 0.8566(5) -0.2711(8) -0.2752(9)
S2A S 0.8819(3) -0.2715(5) -0.3687(7)
C20A C 0.8674(11) -0.2673(19) -0.5469(17)
H16A H 0.8412 -0.2949 -0.5732
H17A H 0.8921 -0.2619 -0.6055
H18A H 0.8615 -0.2428 -0.5553
C21A C 0.9340(8) -0.2129(12) -0.370(2)
H19A H 0.9449 -0.2045 -0.2777
H20A H 0.9263 -0.1916 -0.4062
H21A H 0.9569 -0.2131 -0.4253
O15A O 0.7687(6) -0.3437(7) -0.0796(17)
O19 O 1.1982(5) -0.0030(5) -0.3511(18)
C22 C 1.1620(6) -0.0018(5) -0.421(3)
O20 O 1.1999(13) 0.1868(13) 0.232(5)
C23 C 1.1680(10) 0.140(2) 0.263(9)
loop_
_geom_bond_atom_site_label_1
_geom_bond_atom_site_label_2
_geom_bond_site_symmetry_1
_geom_bond_site_symmetry_2
Cu1 O1 1_555 1_555
O2 Cu1 1_555 1_555
O3 C1 1_555 1_555
O4 N1 1_555 1_555
O5 N1 1_555 1_555
O6 C8 1_555 1_555
O7 C8 1_555 1_555
N1 C6 1_555 1_555
C1 O2 1_555 1_555
C2 C1 1_555 1_555
C3 C2 1_555 1_555
H1 C3 1_555 1_555
C4 C3 1_555 1_555
C5 C4 1_555 1_555
H2 C5 1_555 1_555
C6 C5 1_555 1_555
C7 C2 1_555 1_555
H3 C7 1_555 1_555
C8 C4 1_555 1_555
O8 Cu1 1_555 1_555
C9 O8 1_555 1_555
H4 C9 1_555 1_555
H5 C9 1_555 1_555
H6 C9 1_555 1_555
Cu2 O6 1_555 1_555
O9 Cu2 1_555 1_555
O10 Cu2 1_555 1_555
O11 C10 1_555 1_555
O12 N2 1_555 1_555
O13 N2 1_555 1_555
O14 Cu1 1_555 1_555
O15 C17 1_555 1_555
N2 C15 1_555 1_555
C10 O10 1_555 1_555
C11 C10 1_555 1_555
C12 C11 1_555 1_555
H7 C12 1_555 1_555
C13 C12 1_555 1_555
C14 C13 1_555 1_555
H8 C14 1_555 1_555
C15 C14 1_555 1_555
C16 C11 1_555 1_555
H9 C16 1_555 1_555
C17 O14 1_555 1_555
O16 Cu2 1_555 1_555
O17 Cu2 1_555 1_555
S1 O17 1_555 1_555
C18 S1 1_555 1_555
H10 C18 1_555 1_555
H11 C18 1_555 1_555
H12 C18 1_555 1_555
C19 S1 1_555 1_555
H13 C19 1_555 1_555
H14 C19 1_555 1_555
H15 C19 1_555 1_555
O18 Cu1 1_555 1_555
S2 O18 1_555 1_555
C20 S2 1_555 1_555
H16 C20 1_555 1_555
H17 C20 1_555 1_555
H18 C20 1_555 1_555
C21 S2 1_555 1_555
H19 C21 1_555 1_555
H20 C21 1_555 1_555
H21 C21 1_555 1_555
O19 C22 1_555 1_555
O20 C23 1_555 1_555
C17A C13 1_555 1_555
O14A C17A 1_555 1_555
Cu1A O14A 1_555 1_555
O1A Cu1A 1_555 1_555
O2A Cu1A 1_555 1_555
C1A O2A 1_555 1_555
O3A C1A 1_555 1_555
C2A C1A 1_555 1_555
C3A C2A 1_555 1_555
H1A C3A 1_555 1_555
C4A C3A 1_555 1_555
C5A C4A 1_555 1_555
H2A C5A 1_555 1_555
C6A C5A 1_555 1_555
N1A C6A 1_555 1_555
O4A N1A 1_555 1_555
O5A N1A 1_555 1_555
C7A C2A 1_555 1_555
H3A C7A 1_555 1_555
C8A C4A 1_555 1_555
O6A C8A 1_555 1_555
Cu2A O6A 1_555 1_555
O9A Cu2A 1_555 1_555
O10A Cu2A 1_555 1_555
C10A O10A 1_555 1_555
O11A C10A 1_555 1_555
C11A C10A 1_555 1_555
C12A C11A 1_555 1_555
H7A C12A 1_555 1_555
C13A C12A 1_555 1_555
C14A C13A 1_555 1_555
H8A C14A 1_555 1_555
C15A C14A 1_555 1_555
N2A C15A 1_555 1_555
O12A N2A 1_555 1_555
O13A N2A 1_555 1_555
C16A C11A 1_555 1_555
H9A C16A 1_555 1_555
C17B C13A 1_555 1_555
O14B C17B 1_555 1_555
Cu1B O14B 1_555 1_555
O1B Cu1B 1_555 1_555
O2B Cu1B 1_555 1_555
C1B O2B 1_555 1_555
O3B C1B 1_555 1_555
C2B C1B 1_555 1_555
C3B C2B 1_555 1_555
H1B C3B 1_555 1_555
C4B C3B 1_555 1_555
C5B C4B 1_555 1_555
H2B C5B 1_555 1_555
C6B C5B 1_555 1_555
N1B C6B 1_555 1_555
O4B N1B 1_555 1_555
O5B N1B 1_555 1_555
C7B C2B 1_555 1_555
H3B C7B 1_555 1_555
C8B C4B 1_555 1_555
O6B C8B 1_555 1_555
Cu2B O6B 1_555 1_555
O9B Cu2B 1_555 1_555
O10B Cu2B 1_555 1_555
C10B O10B 1_555 1_555
O11B C10B 1_555 1_555
C11B C10B 1_555 1_555
C12B C11B 1_555 1_555
H7B C12B 1_555 1_555
C13B C17 1_555 1_555
C14B C13B 1_555 1_555
H8B C14B 1_555 1_555
C15B C14B 1_555 1_555
N2B C15B 1_555 1_555
O12B N2B 1_555 1_555
O13B N2B 1_555 1_555
C16B C11B 1_555 1_555
H9B C16B 1_555 1_555
O16B Cu2B 1_555 1_555
O17B Cu2B 1_555 1_555
S1B O17B 1_555 1_555
C18B S1B 1_555 1_555
H10B C18B 1_555 1_555
H11B C18B 1_555 1_555
H12B C18B 1_555 1_555
C19B S1B 1_555 1_555
H13B C19B 1_555 1_555
H14B C19B 1_555 1_555
H15B C19B 1_555 1_555
O7B C8B 1_555 1_555
O8B Cu1B 1_555 1_555
C9B O8B 1_555 1_555
H4B C9B 1_555 1_555
H5B C9B 1_555 1_555
H6B C9B 1_555 1_555
O18B Cu1B 1_555 1_555
S2B O18B 1_555 1_555
C20B S2B 1_555 1_555
H16B C20B 1_555 1_555
H17B C20B 1_555 1_555
H18B C20B 1_555 1_555
C21B S2B 1_555 1_555
H19B C21B 1_555 1_555
H20B C21B 1_555 1_555
H21B C21B 1_555 1_555
O15B C17B 1_555 1_555
O16A Cu2A 1_555 1_555
O17A Cu2A 1_555 1_555
S1A O17A 1_555 1_555
C18A S1A 1_555 1_555
H10A C18A 1_555 1_555
H11A C18A 1_555 1_555
H12A C18A 1_555 1_555
C19A S1A 1_555 1_555
H13A C19A 1_555 1_555
H14A C19A 1_555 1_555
H15A C19A 1_555 1_555
O7A C8A 1_555 1_555
O8A Cu1A 1_555 1_555
C9A O8A 1_555 1_555
H4A C9A 1_555 1_555
H5A C9A 1_555 1_555
H6A C9A 1_555 1_555
O18A Cu1A 1_555 1_555
S2A O18A 1_555 1_555
C20A S2A 1_555 1_555
H16A C20A 1_555 1_555
H17A C20A 1_555 1_555
H18A C20A 1_555 1_555
C21A S2A 1_555 1_555
H19A C21A 1_555 1_555
H20A C21A 1_555 1_555
H21A C21A 1_555 1_555
O15A C17A 1_555 1_555
C6 C7 1_555 1_555
C15 C16 1_555 1_555
C6A C7A 1_555 1_555
C15A C16A 1_555 1_555
C6B C7B 1_555 1_555
C12B C13B 1_555 1_555
C15B C16B 1_555 1_555

#END
