# generated using pymatgen
data_Fe4Co6BH269C225N50O29F4
_symmetry_space_group_name_H-M   'P 1'
_cell_length_a   25.43200000
_cell_length_b   27.70700000
_cell_length_c   34.20000000
_cell_angle_alpha   90.00000000
_cell_angle_beta   90.00000000
_cell_angle_gamma   90.00000000
_symmetry_Int_Tables_number   1
_chemical_formula_structural   Fe4Co6BH269C225N50O29F4
_chemical_formula_sum   'Fe16 Co24 B4 H1076 C900 N200 O116 F16'
_cell_volume   24098.83930080
_cell_formula_units_Z   4
loop_
 _symmetry_equiv_pos_site_id
 _symmetry_equiv_pos_as_xyz
  1  'x, y, z'
loop_
 _atom_site_type_symbol
 _atom_site_label
 _atom_site_symmetry_multiplicity
 _atom_site_fract_x
 _atom_site_fract_y
 _atom_site_fract_z
 _atom_site_occupancy
  Fe  Fe1  1  0.618930  0.532630  0.123020  1
  Fe  Fe2  1  0.881070  0.467370  0.623020  1
  Fe  Fe3  1  0.118930  0.967370  0.876980  1
  Fe  Fe4  1  0.381070  0.032630  0.376980  1
  Fe  Fe5  1  0.363970  0.639620  0.973070  1
  Fe  Fe6  1  0.136030  0.360380  0.473070  1
  Fe  Fe7  1  0.863970  0.860380  0.026930  1
  Fe  Fe8  1  0.636030  0.139620  0.526930  1
  Fe  Fe9  1  0.384440  0.349230  0.032430  1
  Fe  Fe10  1  0.115560  0.650770  0.532430  1
  Fe  Fe11  1  0.884440  0.150770  0.967570  1
  Fe  Fe12  1  0.615560  0.849230  0.467570  1
  Fe  Fe13  1  0.614910  0.480910  0.874720  1
  Fe  Fe14  1  0.885090  0.519090  0.374720  1
  Fe  Fe15  1  0.114910  0.019090  0.125280  1
  Fe  Fe16  1  0.385090  0.980910  0.625280  1
  Co  Co17  1  0.721790  0.514960  0.997370  1
  Co  Co18  1  0.778210  0.485040  0.497370  1
  Co  Co19  1  0.221790  0.985040  0.002630  1
  Co  Co20  1  0.278210  0.014960  0.502630  1
  Co  Co21  1  0.491980  0.664330  0.085210  1
  Co  Co22  1  0.008020  0.335670  0.585210  1
  Co  Co23  1  0.991980  0.835670  0.914790  1
  Co  Co24  1  0.508020  0.164330  0.414790  1
  Co  Co25  1  0.275290  0.489100  0.002880  1
  Co  Co26  1  0.224710  0.510900  0.502880  1
  Co  Co27  1  0.775290  0.010900  0.997120  1
  Co  Co28  1  0.724710  0.989100  0.497120  1
  Co  Co29  1  0.510090  0.338010  0.917360  1
  Co  Co30  1  0.989910  0.661990  0.417360  1
  Co  Co31  1  0.010090  0.161990  0.082640  1
  Co  Co32  1  0.489910  0.838010  0.582640  1
  Co  Co33  1  0.483590  0.606180  0.865400  1
  Co  Co34  1  0.016410  0.393820  0.365400  1
  Co  Co35  1  0.983590  0.893820  0.134600  1
  Co  Co36  1  0.516410  0.106180  0.634600  1
  Co  Co37  1  0.502540  0.395490  0.136860  1
  Co  Co38  1  0.997460  0.604510  0.636860  1
  Co  Co39  1  0.002540  0.104510  0.863140  1
  Co  Co40  1  0.497460  0.895490  0.363140  1
  B  B41  1  0.251800  0.536700  0.253000  1
  B  B42  1  0.248200  0.463300  0.753000  1
  B  B43  1  0.751800  0.963300  0.747000  1
  B  B44  1  0.748200  0.036700  0.247000  1
  H  H45  1  0.865400  0.592500  0.962400  1
  H  H46  1  0.634600  0.407500  0.462400  1
  H  H47  1  0.365400  0.907500  0.037600  1
  H  H48  1  0.134600  0.092500  0.537600  1
  H  H49  1  0.954100  0.605000  0.969100  1
  H  H50  1  0.545900  0.395000  0.469100  1
  H  H51  1  0.454100  0.895000  0.030900  1
  H  H52  1  0.045900  0.105000  0.530900  1
  H  H53  1  0.013800  0.555400  0.937200  1
  H  H54  1  0.486200  0.444600  0.437200  1
  H  H55  1  0.513800  0.944600  0.062800  1
  H  H56  1  0.986200  0.055400  0.562800  1
  H  H57  1  0.983800  0.490300  0.901600  1
  H  H58  1  0.516200  0.509700  0.401600  1
  H  H59  1  0.483800  0.009700  0.098400  1
  H  H60  1  0.016200  0.990300  0.598400  1
  H  H61  1  0.892100  0.474000  0.896700  1
  H  H62  1  0.607900  0.526000  0.396700  1
  H  H63  1  0.392100  0.026000  0.103300  1
  H  H64  1  0.107900  0.974000  0.603300  1
  H  H65  1  0.794000  0.558000  0.928000  1
  H  H66  1  0.706000  0.442000  0.428000  1
  H  H67  1  0.294000  0.942000  0.072000  1
  H  H68  1  0.206000  0.058000  0.572000  1
  H  H69  1  0.808400  0.470800  0.884800  1
  H  H70  1  0.691600  0.529200  0.384800  1
  H  H71  1  0.308400  0.029200  0.115200  1
  H  H72  1  0.191600  0.970800  0.615200  1
  H  H73  1  0.803800  0.523500  0.865900  1
  H  H74  1  0.696200  0.476500  0.365900  1
  H  H75  1  0.303800  0.976500  0.134100  1
  H  H76  1  0.196200  0.023500  0.634100  1
  H  H77  1  0.754200  0.500000  0.887500  1
  H  H78  1  0.745800  0.500000  0.387500  1
  H  H79  1  0.254200  0.000000  0.112500  1
  H  H80  1  0.245800  0.000000  0.612500  1
  H  H81  1  0.831000  0.440000  0.947300  1
  H  H82  1  0.669000  0.560000  0.447300  1
  H  H83  1  0.331000  0.060000  0.052700  1
  H  H84  1  0.169000  0.940000  0.552700  1
  H  H85  1  0.828100  0.363600  0.987600  1
  H  H86  1  0.671900  0.636400  0.487600  1
  H  H87  1  0.328100  0.136400  0.012400  1
  H  H88  1  0.171900  0.863600  0.512400  1
  H  H89  1  0.789200  0.318700  0.037800  1
  H  H90  1  0.710800  0.681300  0.537800  1
  H  H91  1  0.289200  0.181300  0.962200  1
  H  H92  1  0.210800  0.818700  0.462200  1
  H  H93  1  0.721500  0.354100  0.073800  1
  H  H94  1  0.778500  0.645900  0.573800  1
  H  H95  1  0.221500  0.145900  0.926200  1
  H  H96  1  0.278500  0.854100  0.426200  1
  H  H97  1  0.693700  0.431400  0.058400  1
  H  H98  1  0.806300  0.568600  0.558400  1
  H  H99  1  0.193700  0.068600  0.941600  1
  H  H100  1  0.306300  0.931400  0.441600  1
  H  H101  1  0.813400  0.441700  0.105900  1
  H  H102  1  0.686600  0.558300  0.605900  1
  H  H103  1  0.313400  0.058300  0.894100  1
  H  H104  1  0.186600  0.941700  0.394100  1
  H  H105  1  0.882000  0.388000  0.092000  1
  H  H106  1  0.618000  0.612000  0.592000  1
  H  H107  1  0.382000  0.112000  0.908000  1
  H  H108  1  0.118000  0.888000  0.408000  1
  H  H109  1  0.944700  0.406300  0.045400  1
  H  H110  1  0.555300  0.593700  0.545400  1
  H  H111  1  0.444700  0.093700  0.954600  1
  H  H112  1  0.055300  0.906300  0.454600  1
  H  H113  1  0.939800  0.479400  0.011800  1
  H  H114  1  0.560200  0.520600  0.511800  1
  H  H115  1  0.439800  0.020600  0.988200  1
  H  H116  1  0.060200  0.979400  0.488200  1
  H  H117  1  0.871800  0.533300  0.024500  1
  H  H118  1  0.628200  0.466700  0.524500  1
  H  H119  1  0.371800  0.966700  0.975500  1
  H  H120  1  0.128200  0.033300  0.475500  1
  H  H121  1  0.762200  0.507500  0.086800  1
  H  H122  1  0.737800  0.492500  0.586800  1
  H  H123  1  0.262200  0.992500  0.913200  1
  H  H124  1  0.237800  0.007500  0.413200  1
  H  H125  1  0.841900  0.577600  0.102200  1
  H  H126  1  0.658100  0.422400  0.602200  1
  H  H127  1  0.341900  0.922400  0.897800  1
  H  H128  1  0.158100  0.077600  0.397800  1
  H  H129  1  0.813300  0.543900  0.133700  1
  H  H130  1  0.686700  0.456100  0.633700  1
  H  H131  1  0.313300  0.956100  0.866300  1
  H  H132  1  0.186700  0.043900  0.366300  1
  H  H133  1  0.781400  0.586500  0.112900  1
  H  H134  1  0.718600  0.413500  0.612900  1
  H  H135  1  0.281400  0.913500  0.887100  1
  H  H136  1  0.218600  0.086500  0.387100  1
  H  H137  1  0.791700  0.615700  0.055400  1
  H  H138  1  0.708300  0.384300  0.555400  1
  H  H139  1  0.291700  0.884300  0.944600  1
  H  H140  1  0.208300  0.115700  0.444600  1
  H  H141  1  0.786200  0.684300  0.006800  1
  H  H142  1  0.713800  0.315700  0.506800  1
  H  H143  1  0.286200  0.815700  0.993200  1
  H  H144  1  0.213800  0.184300  0.493200  1
  H  H145  1  0.750700  0.715800  0.948800  1
  H  H146  1  0.749300  0.284200  0.448800  1
  H  H147  1  0.250700  0.784200  0.051200  1
  H  H148  1  0.249300  0.215800  0.551200  1
  H  H149  1  0.699200  0.665000  0.909000  1
  H  H150  1  0.800800  0.335000  0.409000  1
  H  H151  1  0.199200  0.835000  0.091000  1
  H  H152  1  0.300800  0.165000  0.591000  1
  H  H153  1  0.682100  0.587200  0.929800  1
  H  H154  1  0.817900  0.412800  0.429800  1
  H  H155  1  0.182100  0.912800  0.070200  1
  H  H156  1  0.317900  0.087200  0.570200  1
  H  H157  1  0.363100  0.720700  0.143600  1
  H  H158  1  0.136900  0.279300  0.643600  1
  H  H159  1  0.863100  0.779300  0.856400  1
  H  H160  1  0.636900  0.220700  0.356400  1
  H  H161  1  0.357500  0.752900  0.206800  1
  H  H162  1  0.142500  0.247100  0.706800  1
  H  H163  1  0.857500  0.747100  0.793200  1
  H  H164  1  0.642500  0.252900  0.293200  1
  H  H165  1  0.392700  0.826500  0.220300  1
  H  H166  1  0.107300  0.173500  0.720300  1
  H  H167  1  0.892700  0.673500  0.779700  1
  H  H168  1  0.607300  0.326500  0.279700  1
  H  H169  1  0.434000  0.870900  0.171000  1
  H  H170  1  0.066000  0.129100  0.671000  1
  H  H171  1  0.934000  0.629100  0.829000  1
  H  H172  1  0.566000  0.370900  0.329000  1
  H  H173  1  0.439700  0.839500  0.108000  1
  H  H174  1  0.060300  0.160500  0.608000  1
  H  H175  1  0.939700  0.660500  0.892000  1
  H  H176  1  0.560300  0.339500  0.392000  1
  H  H177  1  0.385000  0.725200  0.078700  1
  H  H178  1  0.115000  0.274800  0.578700  1
  H  H179  1  0.885000  0.774800  0.921300  1
  H  H180  1  0.615000  0.225200  0.421300  1
  H  H181  1  0.405700  0.818900  0.048400  1
  H  H182  1  0.094300  0.181100  0.548400  1
  H  H183  1  0.905700  0.681100  0.951600  1
  H  H184  1  0.594300  0.318900  0.451600  1
  H  H185  1  0.349200  0.793600  0.051400  1
  H  H186  1  0.150800  0.206400  0.551400  1
  H  H187  1  0.849200  0.706400  0.948600  1
  H  H188  1  0.650800  0.293600  0.448600  1
  H  H189  1  0.392400  0.773100  0.021700  1
  H  H190  1  0.107600  0.226900  0.521700  1
  H  H191  1  0.892400  0.726900  0.978300  1
  H  H192  1  0.607600  0.273100  0.478300  1
  H  H193  1  0.484700  0.793300  0.042700  1
  H  H194  1  0.015300  0.206700  0.542700  1
  H  H195  1  0.984700  0.706700  0.957300  1
  H  H196  1  0.515300  0.293300  0.457300  1
  H  H197  1  0.579500  0.805000  0.021000  1
  H  H198  1  0.920500  0.195000  0.521000  1
  H  H199  1  0.079500  0.695000  0.979000  1
  H  H200  1  0.420500  0.305000  0.479000  1
  H  H201  1  0.661400  0.770100  0.006700  1
  H  H202  1  0.838600  0.229900  0.506700  1
  H  H203  1  0.161400  0.729900  0.993300  1
  H  H204  1  0.338600  0.270100  0.493300  1
  H  H205  1  0.675300  0.690300  0.024500  1
  H  H206  1  0.824700  0.309700  0.524500  1
  H  H207  1  0.175300  0.809700  0.975500  1
  H  H208  1  0.324700  0.190300  0.475500  1
  H  H209  1  0.607800  0.645000  0.054500  1
  H  H210  1  0.892200  0.355000  0.554500  1
  H  H211  1  0.107800  0.855000  0.945500  1
  H  H212  1  0.392200  0.145000  0.445500  1
  H  H213  1  0.666800  0.731800  0.126900  1
  H  H214  1  0.833200  0.268200  0.626900  1
  H  H215  1  0.166800  0.768200  0.873100  1
  H  H216  1  0.333200  0.231800  0.373100  1
  H  H217  1  0.685700  0.811800  0.107800  1
  H  H218  1  0.814300  0.188200  0.607800  1
  H  H219  1  0.185700  0.688200  0.892200  1
  H  H220  1  0.314300  0.311800  0.392200  1
  H  H221  1  0.620800  0.870400  0.109100  1
  H  H222  1  0.879200  0.129600  0.609100  1
  H  H223  1  0.120800  0.629600  0.890900  1
  H  H224  1  0.379200  0.370400  0.390900  1
  H  H225  1  0.534800  0.849900  0.129100  1
  H  H226  1  0.965200  0.150100  0.629100  1
  H  H227  1  0.034800  0.650100  0.870900  1
  H  H228  1  0.465200  0.349900  0.370900  1
  H  H229  1  0.515500  0.771700  0.147300  1
  H  H230  1  0.984500  0.228300  0.647300  1
  H  H231  1  0.015500  0.728300  0.852700  1
  H  H232  1  0.484500  0.271700  0.352700  1
  H  H233  1  0.599800  0.671200  0.134500  1
  H  H234  1  0.900200  0.328800  0.634500  1
  H  H235  1  0.099800  0.828800  0.865500  1
  H  H236  1  0.400200  0.171200  0.365500  1
  H  H237  1  0.580100  0.708300  0.211600  1
  H  H238  1  0.919900  0.291700  0.711600  1
  H  H239  1  0.080100  0.791700  0.788400  1
  H  H240  1  0.419900  0.208300  0.288400  1
  H  H241  1  0.634500  0.686800  0.195900  1
  H  H242  1  0.865500  0.313200  0.695900  1
  H  H243  1  0.134500  0.813200  0.804100  1
  H  H244  1  0.365500  0.186800  0.304100  1
  H  H245  1  0.585500  0.651700  0.203100  1
  H  H246  1  0.914500  0.348300  0.703100  1
  H  H247  1  0.085500  0.848300  0.796900  1
  H  H248  1  0.414500  0.151700  0.296900  1
  H  H249  1  0.506500  0.663500  0.196900  1
  H  H250  1  0.993500  0.336500  0.696900  1
  H  H251  1  0.006500  0.836500  0.803100  1
  H  H252  1  0.493500  0.163500  0.303100  1
  H  H253  1  0.411100  0.641700  0.216400  1
  H  H254  1  0.088900  0.358300  0.716400  1
  H  H255  1  0.911100  0.858300  0.783600  1
  H  H256  1  0.588900  0.141700  0.283600  1
  H  H257  1  0.324000  0.619800  0.196800  1
  H  H258  1  0.176000  0.380200  0.696800  1
  H  H259  1  0.824000  0.880200  0.803200  1
  H  H260  1  0.676000  0.119800  0.303200  1
  H  H261  1  0.307300  0.609700  0.131900  1
  H  H262  1  0.192700  0.390300  0.631900  1
  H  H263  1  0.807300  0.890300  0.868100  1
  H  H264  1  0.692700  0.109700  0.368100  1
  H  H265  1  0.372300  0.627200  0.085400  1
  H  H266  1  0.127700  0.372800  0.585400  1
  H  H267  1  0.872300  0.872800  0.914600  1
  H  H268  1  0.627700  0.127200  0.414600  1
  H  H269  1  0.178400  0.446000  0.099200  1
  H  H270  1  0.321600  0.554000  0.599200  1
  H  H271  1  0.678400  0.054000  0.900800  1
  H  H272  1  0.821600  0.946000  0.400800  1
  H  H273  1  0.096100  0.473900  0.120100  1
  H  H274  1  0.403900  0.526100  0.620100  1
  H  H275  1  0.596100  0.026100  0.879900  1
  H  H276  1  0.903900  0.973900  0.379900  1
  H  H277  1  0.024500  0.464400  0.078800  1
  H  H278  1  0.475500  0.535600  0.578800  1
  H  H279  1  0.524500  0.035600  0.921200  1
  H  H280  1  0.975500  0.964400  0.421200  1
  H  H281  1  0.032400  0.425600  0.021000  1
  H  H282  1  0.467600  0.574400  0.521000  1
  H  H283  1  0.532400  0.074400  0.979000  1
  H  H284  1  0.967600  0.925600  0.479000  1
  H  H285  1  0.114500  0.399400  0.998900  1
  H  H286  1  0.385500  0.600600  0.498900  1
  H  H287  1  0.614500  0.100600  0.001100  1
  H  H288  1  0.885500  0.899400  0.501100  1
  H  H289  1  0.233600  0.408200  0.055100  1
  H  H290  1  0.266400  0.591800  0.555100  1
  H  H291  1  0.733600  0.091800  0.944900  1
  H  H292  1  0.766400  0.908200  0.444900  1
  H  H293  1  0.183900  0.343200  0.001300  1
  H  H294  1  0.316100  0.656800  0.501300  1
  H  H295  1  0.683900  0.156800  0.998700  1
  H  H296  1  0.816100  0.843200  0.498700  1
  H  H297  1  0.200500  0.330100  0.045100  1
  H  H298  1  0.299500  0.669900  0.545100  1
  H  H299  1  0.700500  0.169900  0.954900  1
  H  H300  1  0.799500  0.830100  0.454900  1
  H  H301  1  0.244700  0.340600  0.012900  1
  H  H302  1  0.255300  0.659400  0.512900  1
  H  H303  1  0.744700  0.159400  0.987100  1
  H  H304  1  0.755300  0.840600  0.487100  1
  H  H305  1  0.196700  0.392900  0.959700  1
  H  H306  1  0.303300  0.607100  0.459700  1
  H  H307  1  0.696700  0.107100  0.040300  1
  H  H308  1  0.803300  0.892900  0.540300  1
  H  H309  1  0.215300  0.410500  0.886100  1
  H  H310  1  0.284700  0.589500  0.386100  1
  H  H311  1  0.715300  0.089500  0.113900  1
  H  H312  1  0.784700  0.910500  0.613900  1
  H  H313  1  0.263500  0.456800  0.840300  1
  H  H314  1  0.236500  0.543200  0.340300  1
  H  H315  1  0.763500  0.043200  0.159700  1
  H  H316  1  0.736500  0.956800  0.659700  1
  H  H317  1  0.315300  0.521000  0.862200  1
  H  H318  1  0.184700  0.479000  0.362200  1
  H  H319  1  0.815300  0.979000  0.137800  1
  H  H320  1  0.684700  0.021000  0.637800  1
  H  H321  1  0.323400  0.535700  0.929400  1
  H  H322  1  0.176600  0.464300  0.429400  1
  H  H323  1  0.823400  0.964300  0.070600  1
  H  H324  1  0.676600  0.035700  0.570600  1
  H  H325  1  0.197400  0.565900  0.893500  1
  H  H326  1  0.302600  0.434100  0.393500  1
  H  H327  1  0.697400  0.934100  0.106500  1
  H  H328  1  0.802600  0.065900  0.606500  1
  H  H329  1  0.144000  0.521900  0.850300  1
  H  H330  1  0.356000  0.478100  0.350300  1
  H  H331  1  0.644000  0.978100  0.149700  1
  H  H332  1  0.856000  0.021900  0.649700  1
  H  H333  1  0.083500  0.466200  0.875500  1
  H  H334  1  0.416500  0.533800  0.375500  1
  H  H335  1  0.583500  0.033800  0.124500  1
  H  H336  1  0.916500  0.966200  0.624500  1
  H  H337  1  0.075200  0.456600  0.942600  1
  H  H338  1  0.424800  0.543400  0.442600  1
  H  H339  1  0.575200  0.043400  0.057400  1
  H  H340  1  0.924800  0.956600  0.557400  1
  H  H341  1  0.126800  0.501100  0.984800  1
  H  H342  1  0.373200  0.498900  0.484800  1
  H  H343  1  0.626800  0.998900  0.015200  1
  H  H344  1  0.873200  0.001100  0.515200  1
  H  H345  1  0.234000  0.575300  0.954600  1
  H  H346  1  0.266000  0.424700  0.454600  1
  H  H347  1  0.734000  0.924700  0.045400  1
  H  H348  1  0.766000  0.075300  0.545400  1
  H  H349  1  0.143300  0.608100  0.995500  1
  H  H350  1  0.356700  0.391900  0.495500  1
  H  H351  1  0.643300  0.891900  0.004500  1
  H  H352  1  0.856700  0.108100  0.504500  1
  H  H353  1  0.167700  0.632700  0.957200  1
  H  H354  1  0.332300  0.367300  0.457200  1
  H  H355  1  0.667700  0.867300  0.042800  1
  H  H356  1  0.832300  0.132700  0.542800  1
  H  H357  1  0.199800  0.633400  0.997500  1
  H  H358  1  0.300200  0.366600  0.497500  1
  H  H359  1  0.699800  0.866600  0.002500  1
  H  H360  1  0.800200  0.133400  0.502500  1
  H  H361  1  0.183500  0.576300  0.043600  1
  H  H362  1  0.316500  0.423700  0.543600  1
  H  H363  1  0.683500  0.923700  0.956400  1
  H  H364  1  0.816500  0.076300  0.456400  1
  H  H365  1  0.202200  0.563000  0.117500  1
  H  H366  1  0.297800  0.437000  0.617500  1
  H  H367  1  0.702200  0.937000  0.882500  1
  H  H368  1  0.797800  0.063000  0.382500  1
  H  H369  1  0.250300  0.519500  0.165100  1
  H  H370  1  0.249700  0.480500  0.665100  1
  H  H371  1  0.750300  0.980500  0.834900  1
  H  H372  1  0.749700  0.019500  0.334900  1
  H  H373  1  0.312500  0.462700  0.144200  1
  H  H374  1  0.187500  0.537300  0.644200  1
  H  H375  1  0.812500  0.037300  0.855800  1
  H  H376  1  0.687500  0.962700  0.355800  1
  H  H377  1  0.325500  0.448700  0.078800  1
  H  H378  1  0.174500  0.551300  0.578800  1
  H  H379  1  0.825500  0.051300  0.921200  1
  H  H380  1  0.674500  0.948700  0.421200  1
  H  H381  1  0.688400  0.299900  0.871400  1
  H  H382  1  0.811600  0.700100  0.371400  1
  H  H383  1  0.188400  0.200100  0.128600  1
  H  H384  1  0.311600  0.799900  0.628600  1
  H  H385  1  0.727600  0.226700  0.885800  1
  H  H386  1  0.772400  0.773300  0.385800  1
  H  H387  1  0.227600  0.273300  0.114200  1
  H  H388  1  0.272400  0.726700  0.614200  1
  H  H389  1  0.677700  0.155500  0.884200  1
  H  H390  1  0.822300  0.844500  0.384200  1
  H  H391  1  0.177700  0.344500  0.115800  1
  H  H392  1  0.322300  0.655500  0.615800  1
  H  H393  1  0.589900  0.158900  0.867400  1
  H  H394  1  0.910100  0.841100  0.367400  1
  H  H395  1  0.089900  0.341100  0.132600  1
  H  H396  1  0.410100  0.658900  0.632600  1
  H  H397  1  0.551100  0.232500  0.850100  1
  H  H398  1  0.948900  0.767500  0.350100  1
  H  H399  1  0.051100  0.267500  0.149900  1
  H  H400  1  0.448900  0.732500  0.649900  1
  H  H401  1  0.612100  0.347500  0.861900  1
  H  H402  1  0.887900  0.652500  0.361900  1
  H  H403  1  0.112100  0.152500  0.138100  1
  H  H404  1  0.387900  0.847500  0.638100  1
  H  H405  1  0.591700  0.306900  0.787000  1
  H  H406  1  0.908300  0.693100  0.287000  1
  H  H407  1  0.091700  0.193100  0.213000  1
  H  H408  1  0.408300  0.806900  0.713000  1
  H  H409  1  0.644300  0.334200  0.800000  1
  H  H410  1  0.855700  0.665800  0.300000  1
  H  H411  1  0.144300  0.165800  0.200000  1
  H  H412  1  0.355700  0.834200  0.700000  1
  H  H413  1  0.590500  0.363700  0.795800  1
  H  H414  1  0.909500  0.636300  0.295800  1
  H  H415  1  0.090500  0.136300  0.204200  1
  H  H416  1  0.409500  0.863700  0.704200  1
  H  H417  1  0.512700  0.339100  0.805000  1
  H  H418  1  0.987300  0.660900  0.305000  1
  H  H419  1  0.012700  0.160900  0.195000  1
  H  H420  1  0.487300  0.839100  0.695000  1
  H  H421  1  0.414700  0.346400  0.789900  1
  H  H422  1  0.085300  0.653600  0.289900  1
  H  H423  1  0.914700  0.153600  0.210100  1
  H  H424  1  0.585300  0.846400  0.710100  1
  H  H425  1  0.328000  0.357800  0.813400  1
  H  H426  1  0.172000  0.642200  0.313400  1
  H  H427  1  0.828000  0.142200  0.186600  1
  H  H428  1  0.672000  0.857800  0.686600  1
  H  H429  1  0.314200  0.360200  0.881000  1
  H  H430  1  0.185800  0.639800  0.381000  1
  H  H431  1  0.814200  0.139800  0.119000  1
  H  H432  1  0.685800  0.860200  0.619000  1
  H  H433  1  0.383800  0.352600  0.923500  1
  H  H434  1  0.116200  0.647400  0.423500  1
  H  H435  1  0.883800  0.147400  0.076500  1
  H  H436  1  0.616200  0.852600  0.576500  1
  H  H437  1  0.400300  0.246500  0.859100  1
  H  H438  1  0.099700  0.753500  0.359100  1
  H  H439  1  0.900300  0.253500  0.140900  1
  H  H440  1  0.599700  0.746500  0.640900  1
  H  H441  1  0.403000  0.192000  0.802200  1
  H  H442  1  0.097000  0.808000  0.302200  1
  H  H443  1  0.903000  0.308000  0.197800  1
  H  H444  1  0.597000  0.692000  0.697800  1
  H  H445  1  0.449700  0.121400  0.809100  1
  H  H446  1  0.050300  0.878600  0.309100  1
  H  H447  1  0.949700  0.378600  0.190900  1
  H  H448  1  0.550300  0.621400  0.690900  1
  H  H449  1  0.501400  0.101600  0.862300  1
  H  H450  1  0.998600  0.898400  0.362300  1
  H  H451  1  0.001400  0.398400  0.137700  1
  H  H452  1  0.498600  0.601600  0.637700  1
  H  H453  1  0.500200  0.154900  0.914400  1
  H  H454  1  0.999800  0.845100  0.414400  1
  H  H455  1  0.000200  0.345100  0.085600  1
  H  H456  1  0.499800  0.654900  0.585600  1
  H  H457  1  0.419200  0.261800  0.924900  1
  H  H458  1  0.080800  0.738200  0.424900  1
  H  H459  1  0.919200  0.238200  0.075100  1
  H  H460  1  0.580800  0.761800  0.575100  1
  H  H461  1  0.454900  0.179200  0.966200  1
  H  H462  1  0.045100  0.820800  0.466200  1
  H  H463  1  0.954900  0.320800  0.033800  1
  H  H464  1  0.545100  0.679200  0.533800  1
  H  H465  1  0.395500  0.197700  0.962500  1
  H  H466  1  0.104500  0.802300  0.462500  1
  H  H467  1  0.895500  0.302300  0.037500  1
  H  H468  1  0.604500  0.697700  0.537500  1
  H  H469  1  0.436900  0.227600  0.988000  1
  H  H470  1  0.063100  0.772400  0.488000  1
  H  H471  1  0.936900  0.272400  0.012000  1
  H  H472  1  0.563100  0.727600  0.512000  1
  H  H473  1  0.532100  0.213600  0.963500  1
  H  H474  1  0.967900  0.786400  0.463500  1
  H  H475  1  0.032100  0.286400  0.036500  1
  H  H476  1  0.467900  0.713600  0.536500  1
  H  H477  1  0.627300  0.219900  0.984200  1
  H  H478  1  0.872700  0.780100  0.484200  1
  H  H479  1  0.127300  0.280100  0.015800  1
  H  H480  1  0.372700  0.719900  0.515800  1
  H  H481  1  0.703200  0.266600  0.989800  1
  H  H482  1  0.796800  0.733400  0.489800  1
  H  H483  1  0.203200  0.233400  0.010200  1
  H  H484  1  0.296800  0.766600  0.510200  1
  H  H485  1  0.702800  0.347100  0.966900  1
  H  H486  1  0.797200  0.652900  0.466900  1
  H  H487  1  0.202800  0.152900  0.033100  1
  H  H488  1  0.297200  0.847100  0.533100  1
  H  H489  1  0.625100  0.376300  0.938300  1
  H  H490  1  0.874900  0.623700  0.438300  1
  H  H491  1  0.125100  0.123700  0.061700  1
  H  H492  1  0.374900  0.876300  0.561700  1
  H  H493  1  0.487600  0.765300  0.887200  1
  H  H494  1  0.012400  0.234700  0.387200  1
  H  H495  1  0.987600  0.734700  0.112800  1
  H  H496  1  0.512400  0.265300  0.612800  1
  H  H497  1  0.542400  0.824700  0.860500  1
  H  H498  1  0.957600  0.175300  0.360500  1
  H  H499  1  0.042400  0.675300  0.139500  1
  H  H500  1  0.457600  0.324700  0.639500  1
  H  H501  1  0.557400  0.819400  0.798000  1
  H  H502  1  0.942600  0.180600  0.298000  1
  H  H503  1  0.057400  0.680600  0.202000  1
  H  H504  1  0.442600  0.319400  0.702000  1
  H  H505  1  0.510400  0.775100  0.751700  1
  H  H506  1  0.989600  0.224900  0.251700  1
  H  H507  1  0.010400  0.724900  0.248300  1
  H  H508  1  0.489600  0.275100  0.748300  1
  H  H509  1  0.441300  0.716500  0.781000  1
  H  H510  1  0.058700  0.283500  0.281000  1
  H  H511  1  0.941300  0.783500  0.219000  1
  H  H512  1  0.558700  0.216500  0.719000  1
  H  H513  1  0.432400  0.703100  0.885400  1
  H  H514  1  0.067600  0.296900  0.385400  1
  H  H515  1  0.932400  0.796900  0.114600  1
  H  H516  1  0.567600  0.203100  0.614600  1
  H  H517  1  0.355500  0.715900  0.826300  1
  H  H518  1  0.144500  0.284100  0.326300  1
  H  H519  1  0.855500  0.784100  0.173700  1
  H  H520  1  0.644500  0.215900  0.673700  1
  H  H521  1  0.366200  0.753900  0.860600  1
  H  H522  1  0.133800  0.246100  0.360600  1
  H  H523  1  0.866200  0.746100  0.139400  1
  H  H524  1  0.633800  0.253900  0.639400  1
  H  H525  1  0.344600  0.701200  0.870800  1
  H  H526  1  0.155400  0.298800  0.370800  1
  H  H527  1  0.844600  0.798800  0.129200  1
  H  H528  1  0.655400  0.201200  0.629200  1
  H  H529  1  0.366400  0.646300  0.814100  1
  H  H530  1  0.133600  0.353700  0.314100  1
  H  H531  1  0.866400  0.853700  0.185900  1
  H  H532  1  0.633600  0.146300  0.685900  1
  H  H533  1  0.338100  0.563800  0.783600  1
  H  H534  1  0.161900  0.436200  0.283600  1
  H  H535  1  0.838100  0.936200  0.216400  1
  H  H536  1  0.661900  0.063800  0.716400  1
  H  H537  1  0.354000  0.480500  0.779700  1
  H  H538  1  0.146000  0.519500  0.279700  1
  H  H539  1  0.854000  0.019500  0.220300  1
  H  H540  1  0.646000  0.980500  0.720300  1
  H  H541  1  0.424800  0.447000  0.814400  1
  H  H542  1  0.075200  0.553000  0.314400  1
  H  H543  1  0.924800  0.053000  0.185600  1
  H  H544  1  0.575200  0.947000  0.685600  1
  H  H545  1  0.479000  0.497000  0.851700  1
  H  H546  1  0.021000  0.503000  0.351700  1
  H  H547  1  0.979000  0.003000  0.148300  1
  H  H548  1  0.521000  0.997000  0.648300  1
  H  H549  1  0.493600  0.511400  0.747100  1
  H  H550  1  0.006400  0.488600  0.247100  1
  H  H551  1  0.993600  0.988600  0.252900  1
  H  H552  1  0.506400  0.011400  0.752900  1
  H  H553  1  0.427100  0.513300  0.699600  1
  H  H554  1  0.072900  0.486700  0.199600  1
  H  H555  1  0.927100  0.986700  0.300400  1
  H  H556  1  0.572900  0.013300  0.800400  1
  H  H557  1  0.387400  0.587300  0.684400  1
  H  H558  1  0.112600  0.412700  0.184400  1
  H  H559  1  0.887400  0.912700  0.315600  1
  H  H560  1  0.612600  0.087300  0.815600  1
  H  H561  1  0.416000  0.658000  0.714700  1
  H  H562  1  0.084000  0.342000  0.214700  1
  H  H563  1  0.916000  0.842000  0.285300  1
  H  H564  1  0.584000  0.158000  0.785300  1
  H  H565  1  0.481700  0.654800  0.762100  1
  H  H566  1  0.018300  0.345200  0.262100  1
  H  H567  1  0.981700  0.845200  0.237900  1
  H  H568  1  0.518300  0.154800  0.737900  1
  H  H569  1  0.536700  0.546600  0.799500  1
  H  H570  1  0.963300  0.453400  0.299500  1
  H  H571  1  0.036700  0.953400  0.200500  1
  H  H572  1  0.463300  0.046600  0.700500  1
  H  H573  1  0.592800  0.614500  0.754400  1
  H  H574  1  0.907200  0.385500  0.254400  1
  H  H575  1  0.092800  0.885500  0.245600  1
  H  H576  1  0.407200  0.114500  0.745600  1
  H  H577  1  0.593400  0.557100  0.748700  1
  H  H578  1  0.906600  0.442900  0.248700  1
  H  H579  1  0.093400  0.942900  0.251300  1
  H  H580  1  0.406600  0.057100  0.751300  1
  H  H581  1  0.618600  0.580700  0.787100  1
  H  H582  1  0.881400  0.419300  0.287100  1
  H  H583  1  0.118600  0.919300  0.212900  1
  H  H584  1  0.381400  0.080700  0.712900  1
  H  H585  1  0.593800  0.653200  0.808600  1
  H  H586  1  0.906200  0.346800  0.308600  1
  H  H587  1  0.093800  0.846800  0.191400  1
  H  H588  1  0.406200  0.153200  0.691400  1
  H  H589  1  0.630100  0.714000  0.860500  1
  H  H590  1  0.869900  0.286000  0.360500  1
  H  H591  1  0.130100  0.786000  0.139500  1
  H  H592  1  0.369900  0.214000  0.639500  1
  H  H593  1  0.623900  0.746700  0.922800  1
  H  H594  1  0.876100  0.253300  0.422800  1
  H  H595  1  0.123900  0.753300  0.077200  1
  H  H596  1  0.376100  0.246700  0.577200  1
  H  H597  1  0.555400  0.721700  0.963500  1
  H  H598  1  0.944600  0.278300  0.463500  1
  H  H599  1  0.055400  0.778300  0.036500  1
  H  H600  1  0.444600  0.221700  0.536500  1
  H  H601  1  0.495100  0.664700  0.941000  1
  H  H602  1  0.004900  0.335300  0.441000  1
  H  H603  1  0.995100  0.835300  0.059000  1
  H  H604  1  0.504900  0.164700  0.559000  1
  H  H605  1  0.512600  0.493600  0.254900  1
  H  H606  1  0.987400  0.506400  0.754900  1
  H  H607  1  0.012600  0.006400  0.745100  1
  H  H608  1  0.487400  0.993600  0.245100  1
  H  H609  1  0.447800  0.486600  0.303400  1
  H  H610  1  0.052200  0.513400  0.803400  1
  H  H611  1  0.947800  0.013400  0.696600  1
  H  H612  1  0.552200  0.986600  0.196600  1
  H  H613  1  0.415200  0.410500  0.319600  1
  H  H614  1  0.084800  0.589500  0.819600  1
  H  H615  1  0.915200  0.089500  0.680400  1
  H  H616  1  0.584800  0.910500  0.180400  1
  H  H617  1  0.446100  0.341600  0.288500  1
  H  H618  1  0.053900  0.658400  0.788500  1
  H  H619  1  0.946100  0.158400  0.711500  1
  H  H620  1  0.553900  0.841600  0.211500  1
  H  H621  1  0.511400  0.349200  0.240500  1
  H  H622  1  0.988600  0.650800  0.740500  1
  H  H623  1  0.011400  0.150800  0.759500  1
  H  H624  1  0.488600  0.849200  0.259500  1
  H  H625  1  0.553900  0.460200  0.199300  1
  H  H626  1  0.946100  0.539800  0.699300  1
  H  H627  1  0.053900  0.039800  0.800700  1
  H  H628  1  0.446100  0.960200  0.300700  1
  H  H629  1  0.619800  0.396400  0.242100  1
  H  H630  1  0.880200  0.603600  0.742100  1
  H  H631  1  0.119800  0.103600  0.757900  1
  H  H632  1  0.380200  0.896400  0.257900  1
  H  H633  1  0.614100  0.453000  0.250400  1
  H  H634  1  0.885900  0.547000  0.750400  1
  H  H635  1  0.114100  0.047000  0.749600  1
  H  H636  1  0.385900  0.953000  0.249600  1
  H  H637  1  0.639700  0.434600  0.210300  1
  H  H638  1  0.860300  0.565400  0.710300  1
  H  H639  1  0.139700  0.065400  0.789700  1
  H  H640  1  0.360300  0.934600  0.289700  1
  H  H641  1  0.619700  0.358800  0.189100  1
  H  H642  1  0.880300  0.641200  0.689100  1
  H  H643  1  0.119700  0.141200  0.810900  1
  H  H644  1  0.380300  0.858800  0.310900  1
  H  H645  1  0.659700  0.300700  0.136900  1
  H  H646  1  0.840300  0.699300  0.636900  1
  H  H647  1  0.159700  0.199300  0.863100  1
  H  H648  1  0.340300  0.800700  0.363100  1
  H  H649  1  0.652900  0.267700  0.074400  1
  H  H650  1  0.847100  0.732300  0.574400  1
  H  H651  1  0.152900  0.232300  0.925600  1
  H  H652  1  0.347100  0.767700  0.425600  1
  H  H653  1  0.579100  0.286300  0.036400  1
  H  H654  1  0.920900  0.713700  0.536400  1
  H  H655  1  0.079100  0.213700  0.963600  1
  H  H656  1  0.420900  0.786300  0.463600  1
  H  H657  1  0.514700  0.337100  0.060900  1
  H  H658  1  0.985300  0.662900  0.560900  1
  H  H659  1  0.014700  0.162900  0.939100  1
  H  H660  1  0.485300  0.837100  0.439100  1
  H  H661  1  0.529700  0.239100  0.124300  1
  H  H662  1  0.970300  0.760900  0.624300  1
  H  H663  1  0.029700  0.260900  0.875700  1
  H  H664  1  0.470300  0.739100  0.375700  1
  H  H665  1  0.592400  0.193200  0.157500  1
  H  H666  1  0.907600  0.806800  0.657500  1
  H  H667  1  0.092400  0.306800  0.842500  1
  H  H668  1  0.407600  0.693200  0.342500  1
  H  H669  1  0.595500  0.196700  0.226300  1
  H  H670  1  0.904500  0.803300  0.726300  1
  H  H671  1  0.095500  0.303300  0.773700  1
  H  H672  1  0.404500  0.696700  0.273700  1
  H  H673  1  0.527600  0.240300  0.261400  1
  H  H674  1  0.972400  0.759700  0.761400  1
  H  H675  1  0.027600  0.259700  0.738600  1
  H  H676  1  0.472400  0.740300  0.238600  1
  H  H677  1  0.464100  0.281800  0.225300  1
  H  H678  1  0.035900  0.718200  0.725300  1
  H  H679  1  0.964100  0.218200  0.774700  1
  H  H680  1  0.535900  0.781800  0.274700  1
  H  H681  1  0.461200  0.292500  0.121000  1
  H  H682  1  0.038800  0.707500  0.621000  1
  H  H683  1  0.961200  0.207500  0.879000  1
  H  H684  1  0.538800  0.792500  0.379000  1
  H  H685  1  0.386000  0.275300  0.181000  1
  H  H686  1  0.114000  0.724700  0.681000  1
  H  H687  1  0.886000  0.224700  0.819000  1
  H  H688  1  0.614000  0.775300  0.319000  1
  H  H689  1  0.397800  0.239600  0.145300  1
  H  H690  1  0.102200  0.760400  0.645300  1
  H  H691  1  0.897800  0.260400  0.854700  1
  H  H692  1  0.602200  0.739600  0.354700  1
  H  H693  1  0.372200  0.291400  0.137200  1
  H  H694  1  0.127800  0.708600  0.637200  1
  H  H695  1  0.872200  0.208600  0.862800  1
  H  H696  1  0.627800  0.791400  0.362800  1
  H  H697  1  0.391500  0.346600  0.191600  1
  H  H698  1  0.108500  0.653400  0.691600  1
  H  H699  1  0.891500  0.153400  0.808400  1
  H  H700  1  0.608500  0.846600  0.308400  1
  H  H701  1  0.355900  0.427800  0.221500  1
  H  H702  1  0.144100  0.572200  0.721500  1
  H  H703  1  0.855900  0.072200  0.778500  1
  H  H704  1  0.644100  0.927800  0.278500  1
  H  H705  1  0.363000  0.512000  0.223200  1
  H  H706  1  0.137000  0.488000  0.723200  1
  H  H707  1  0.863000  0.988000  0.776800  1
  H  H708  1  0.637000  0.012000  0.276800  1
  H  H709  1  0.430100  0.549700  0.187800  1
  H  H710  1  0.069900  0.450300  0.687800  1
  H  H711  1  0.930100  0.950300  0.812200  1
  H  H712  1  0.569900  0.049700  0.312200  1
  H  H713  1  0.487300  0.504400  0.150700  1
  H  H714  1  0.012700  0.495600  0.650700  1
  H  H715  1  0.987300  0.995600  0.849300  1
  H  H716  1  0.512700  0.004400  0.349300  1
  H  H717  1  0.551900  0.506700  0.955700  1
  H  H718  1  0.948100  0.493300  0.455700  1
  H  H719  1  0.051900  0.993300  0.044300  1
  H  H720  1  0.448100  0.006700  0.544300  1
  H  H721  1  0.504400  0.544100  0.952100  1
  H  H722  1  0.995600  0.455900  0.452100  1
  H  H723  1  0.004400  0.955900  0.047900  1
  H  H724  1  0.495600  0.044100  0.547900  1
  H  H725  1  0.542900  0.594600  0.998100  1
  H  H726  1  0.957100  0.405400  0.498100  1
  H  H727  1  0.042900  0.905400  0.001900  1
  H  H728  1  0.457100  0.094600  0.501900  1
  H  H729  1  0.585500  0.582900  0.965000  1
  H  H730  1  0.914500  0.417100  0.465000  1
  H  H731  1  0.085500  0.917100  0.035000  1
  H  H732  1  0.414500  0.082900  0.535000  1
  H  H733  1  0.588300  0.555900  0.006300  1
  H  H734  1  0.911700  0.444100  0.506300  1
  H  H735  1  0.088300  0.944100  0.993700  1
  H  H736  1  0.411700  0.055900  0.493700  1
  H  H737  1  0.486100  0.560600  0.035600  1
  H  H738  1  0.013900  0.439400  0.535600  1
  H  H739  1  0.986100  0.939400  0.964400  1
  H  H740  1  0.513900  0.060600  0.464400  1
  H  H741  1  0.440600  0.552400  0.004100  1
  H  H742  1  0.059400  0.447600  0.504100  1
  H  H743  1  0.940600  0.947600  0.995900  1
  H  H744  1  0.559400  0.052400  0.495900  1
  H  H745  1  0.410300  0.485600  0.043000  1
  H  H746  1  0.089700  0.514400  0.543000  1
  H  H747  1  0.910300  0.014400  0.957000  1
  H  H748  1  0.589700  0.985600  0.457000  1
  H  H749  1  0.404700  0.536800  0.064200  1
  H  H750  1  0.095300  0.463200  0.564200  1
  H  H751  1  0.904700  0.963200  0.935800  1
  H  H752  1  0.595300  0.036800  0.435800  1
  H  H753  1  0.451900  0.501300  0.075700  1
  H  H754  1  0.048100  0.498700  0.575700  1
  H  H755  1  0.951900  0.998700  0.924300  1
  H  H756  1  0.548100  0.001300  0.424300  1
  H  H757  1  0.492600  0.440400  0.966900  1
  H  H758  1  0.007400  0.559600  0.466900  1
  H  H759  1  0.992600  0.059600  0.033100  1
  H  H760  1  0.507400  0.940400  0.533100  1
  H  H761  1  0.448400  0.443500  0.999900  1
  H  H762  1  0.051600  0.556500  0.499900  1
  H  H763  1  0.948400  0.056500  0.000100  1
  H  H764  1  0.551600  0.943500  0.500100  1
  H  H765  1  0.406300  0.505400  0.961700  1
  H  H766  1  0.093700  0.494600  0.461700  1
  H  H767  1  0.906300  0.994600  0.038300  1
  H  H768  1  0.593700  0.005400  0.538300  1
  H  H769  1  0.406700  0.453500  0.941200  1
  H  H770  1  0.093300  0.546500  0.441200  1
  H  H771  1  0.906700  0.046500  0.058800  1
  H  H772  1  0.593300  0.953500  0.558800  1
  H  H773  1  0.447600  0.494100  0.927600  1
  H  H774  1  0.052400  0.505900  0.427600  1
  H  H775  1  0.947600  0.005900  0.072400  1
  H  H776  1  0.552400  0.994100  0.572400  1
  H  H777  1  0.512600  0.458500  0.048600  1
  H  H778  1  0.987400  0.541500  0.548600  1
  H  H779  1  0.012600  0.041500  0.951400  1
  H  H780  1  0.487400  0.958500  0.451400  1
  H  H781  1  0.554200  0.501200  0.044200  1
  H  H782  1  0.945800  0.498800  0.544200  1
  H  H783  1  0.054200  0.998800  0.955800  1
  H  H784  1  0.445800  0.001200  0.455800  1
  H  H785  1  0.556100  0.415600  0.998600  1
  H  H786  1  0.943900  0.584400  0.498600  1
  H  H787  1  0.056100  0.084400  0.001400  1
  H  H788  1  0.443900  0.915600  0.501400  1
  H  H789  1  0.594400  0.426400  0.034700  1
  H  H790  1  0.905600  0.573600  0.534700  1
  H  H791  1  0.094400  0.073600  0.965300  1
  H  H792  1  0.405600  0.926400  0.465300  1
  H  H793  1  0.598500  0.458000  0.995600  1
  H  H794  1  0.901500  0.542000  0.495600  1
  H  H795  1  0.098500  0.042000  0.004400  1
  H  H796  1  0.401500  0.958000  0.504400  1
  H  H797  1  0.761700  0.422100  0.800500  1
  H  H798  1  0.738300  0.577900  0.300500  1
  H  H799  1  0.261700  0.077900  0.199500  1
  H  H800  1  0.238300  0.922100  0.699500  1
  H  H801  1  0.760400  0.479100  0.807700  1
  H  H802  1  0.739600  0.520900  0.307700  1
  H  H803  1  0.260400  0.020900  0.192300  1
  H  H804  1  0.239600  0.979100  0.692300  1
  H  H805  1  0.849600  0.442900  0.815300  1
  H  H806  1  0.650400  0.557100  0.315300  1
  H  H807  1  0.349600  0.057100  0.184700  1
  H  H808  1  0.150400  0.942900  0.684700  1
  H  H809  1  0.848600  0.488000  0.786000  1
  H  H810  1  0.651400  0.512000  0.286000  1
  H  H811  1  0.348600  0.012000  0.214000  1
  H  H812  1  0.151400  0.988000  0.714000  1
  H  H813  1  0.849900  0.434200  0.769000  1
  H  H814  1  0.650100  0.565800  0.269000  1
  H  H815  1  0.349900  0.065800  0.231000  1
  H  H816  1  0.150100  0.934200  0.731000  1
  H  H817  1  0.750600  0.511500  0.708000  1
  H  H818  1  0.749400  0.488500  0.208000  1
  H  H819  1  0.250600  0.988500  0.292000  1
  H  H820  1  0.249400  0.011500  0.792000  1
  H  H821  1  0.805600  0.507300  0.730500  1
  H  H822  1  0.694400  0.492700  0.230500  1
  H  H823  1  0.305600  0.992700  0.269500  1
  H  H824  1  0.194400  0.007300  0.769500  1
  H  H825  1  0.714600  0.551500  0.763800  1
  H  H826  1  0.785400  0.448500  0.263800  1
  H  H827  1  0.214600  0.948500  0.236200  1
  H  H828  1  0.285400  0.051500  0.736200  1
  H  H829  1  0.762600  0.581000  0.745400  1
  H  H830  1  0.737400  0.419000  0.245400  1
  H  H831  1  0.262600  0.919000  0.254600  1
  H  H832  1  0.237400  0.081000  0.754600  1
  H  H833  1  0.771200  0.549500  0.784100  1
  H  H834  1  0.728800  0.450500  0.284100  1
  H  H835  1  0.271200  0.950500  0.215900  1
  H  H836  1  0.228800  0.049500  0.715900  1
  H  H837  1  0.682300  0.486000  0.777800  1
  H  H838  1  0.817700  0.514000  0.277800  1
  H  H839  1  0.182300  0.014000  0.222200  1
  H  H840  1  0.317700  0.986000  0.722200  1
  H  H841  1  0.680700  0.429100  0.770200  1
  H  H842  1  0.819300  0.570900  0.270200  1
  H  H843  1  0.180700  0.070900  0.229800  1
  H  H844  1  0.319300  0.929100  0.729800  1
  H  H845  1  0.621000  0.472600  0.730700  1
  H  H846  1  0.879000  0.527400  0.230700  1
  H  H847  1  0.121000  0.027400  0.269300  1
  H  H848  1  0.379000  0.972600  0.769300  1
  H  H849  1  0.660900  0.440500  0.705500  1
  H  H850  1  0.839100  0.559500  0.205500  1
  H  H851  1  0.160900  0.059500  0.294500  1
  H  H852  1  0.339100  0.940500  0.794500  1
  H  H853  1  0.669900  0.497500  0.709300  1
  H  H854  1  0.830100  0.502500  0.209300  1
  H  H855  1  0.169900  0.002500  0.290700  1
  H  H856  1  0.330100  0.997500  0.790700  1
  H  H857  1  0.804800  0.428900  0.715700  1
  H  H858  1  0.695200  0.571100  0.215700  1
  H  H859  1  0.304800  0.071100  0.284300  1
  H  H860  1  0.195200  0.928900  0.784300  1
  H  H861  1  0.747500  0.430900  0.696500  1
  H  H862  1  0.752500  0.569100  0.196500  1
  H  H863  1  0.247500  0.069100  0.303500  1
  H  H864  1  0.252500  0.930900  0.803500  1
  H  H865  1  0.764200  0.368600  0.761000  1
  H  H866  1  0.735800  0.631400  0.261000  1
  H  H867  1  0.264200  0.131400  0.239000  1
  H  H868  1  0.235800  0.868600  0.739000  1
  H  H869  1  0.781200  0.351200  0.718200  1
  H  H870  1  0.718800  0.648800  0.218200  1
  H  H871  1  0.281200  0.148800  0.281800  1
  H  H872  1  0.218800  0.851200  0.781800  1
  H  H873  1  0.720900  0.363400  0.727200  1
  H  H874  1  0.779100  0.636600  0.227200  1
  H  H875  1  0.220900  0.136600  0.272800  1
  H  H876  1  0.279100  0.863400  0.772800  1
  H  H877  1  0.819300  0.375100  0.150200  1
  H  H878  1  0.680700  0.624900  0.650200  1
  H  H879  1  0.319300  0.124900  0.849800  1
  H  H880  1  0.180700  0.875100  0.349800  1
  H  H881  1  0.810100  0.351900  0.192500  1
  H  H882  1  0.689900  0.648100  0.692500  1
  H  H883  1  0.310100  0.148100  0.807500  1
  H  H884  1  0.189900  0.851900  0.307500  1
  H  H885  1  0.806100  0.409100  0.186700  1
  H  H886  1  0.693900  0.590900  0.686700  1
  H  H887  1  0.306100  0.090900  0.813300  1
  H  H888  1  0.193900  0.909100  0.313300  1
  H  H889  1  0.733200  0.399300  0.157500  1
  H  H890  1  0.766800  0.600700  0.657500  1
  H  H891  1  0.233200  0.100700  0.842500  1
  H  H892  1  0.266800  0.899300  0.342500  1
  H  H893  1  0.236400  0.570500  0.822700  1
  H  H894  1  0.263600  0.429500  0.322700  1
  H  H895  1  0.736400  0.929500  0.177300  1
  H  H896  1  0.763600  0.070500  0.677300  1
  H  H897  1  0.223600  0.603600  0.785500  1
  H  H898  1  0.276400  0.396400  0.285500  1
  H  H899  1  0.723600  0.896400  0.214500  1
  H  H900  1  0.776400  0.103600  0.714500  1
  H  H901  1  0.193300  0.612400  0.825900  1
  H  H902  1  0.306700  0.387600  0.325900  1
  H  H903  1  0.693300  0.887600  0.174100  1
  H  H904  1  0.806700  0.112400  0.674100  1
  H  H905  1  0.269300  0.636100  0.850400  1
  H  H906  1  0.230700  0.363900  0.350400  1
  H  H907  1  0.769300  0.863900  0.149600  1
  H  H908  1  0.730700  0.136100  0.649600  1
  H  H909  1  0.280300  0.727300  0.923400  1
  H  H910  1  0.219700  0.272700  0.423400  1
  H  H911  1  0.780300  0.772700  0.076600  1
  H  H912  1  0.719700  0.227300  0.576600  1
  H  H913  1  0.250400  0.767700  0.898500  1
  H  H914  1  0.249600  0.232300  0.398500  1
  H  H915  1  0.750400  0.732300  0.101500  1
  H  H916  1  0.749600  0.267700  0.601500  1
  H  H917  1  0.241600  0.764500  0.944700  1
  H  H918  1  0.258400  0.235500  0.444700  1
  H  H919  1  0.741600  0.735500  0.055300  1
  H  H920  1  0.758400  0.264500  0.555300  1
  H  H921  1  0.333500  0.776700  0.939800  1
  H  H922  1  0.166500  0.223300  0.439800  1
  H  H923  1  0.833500  0.723300  0.060200  1
  H  H924  1  0.666500  0.276700  0.560200  1
  H  H925  1  0.386200  0.839500  0.932900  1
  H  H926  1  0.113800  0.160500  0.432900  1
  H  H927  1  0.886200  0.660500  0.067100  1
  H  H928  1  0.613800  0.339500  0.567100  1
  H  H929  1  0.433600  0.862900  0.908600  1
  H  H930  1  0.066400  0.137100  0.408600  1
  H  H931  1  0.933600  0.637100  0.091400  1
  H  H932  1  0.566400  0.362900  0.591400  1
  H  H933  1  0.415400  0.886600  0.949100  1
  H  H934  1  0.084600  0.113400  0.449100  1
  H  H935  1  0.915400  0.613400  0.050900  1
  H  H936  1  0.584600  0.386600  0.550900  1
  H  H937  1  0.475000  0.811300  0.939200  1
  H  H938  1  0.025000  0.188700  0.439200  1
  H  H939  1  0.975000  0.688700  0.060800  1
  H  H940  1  0.525000  0.311300  0.560800  1
  H  H941  1  0.270000  0.711600  0.114200  1
  H  H942  1  0.230000  0.288400  0.614200  1
  H  H943  1  0.770000  0.788400  0.885800  1
  H  H944  1  0.730000  0.211600  0.385800  1
  H  H945  1  0.221100  0.688500  0.136900  1
  H  H946  1  0.278900  0.311500  0.636900  1
  H  H947  1  0.721100  0.811500  0.863100  1
  H  H948  1  0.778900  0.188500  0.363100  1
  H  H949  1  0.222000  0.745100  0.127800  1
  H  H950  1  0.278000  0.254900  0.627800  1
  H  H951  1  0.722000  0.754900  0.872200  1
  H  H952  1  0.778000  0.245100  0.372200  1
  H  H953  1  0.229600  0.702200  0.065200  1
  H  H954  1  0.270400  0.297800  0.565200  1
  H  H955  1  0.729600  0.797800  0.934800  1
  H  H956  1  0.770400  0.202200  0.434800  1
  H  H957  1  0.280700  0.190700  0.073800  1
  H  H958  1  0.219300  0.809300  0.573800  1
  H  H959  1  0.780700  0.309300  0.926200  1
  H  H960  1  0.719300  0.690700  0.426200  1
  H  H961  1  0.302900  0.228300  0.042400  1
  H  H962  1  0.197100  0.771700  0.542400  1
  H  H963  1  0.802900  0.271700  0.957600  1
  H  H964  1  0.697100  0.728300  0.457600  1
  H  H965  1  0.312600  0.237200  0.088100  1
  H  H966  1  0.187400  0.762800  0.588100  1
  H  H967  1  0.812600  0.262800  0.911900  1
  H  H968  1  0.687400  0.737200  0.411900  1
  H  H969  1  0.500700  0.111000  0.052600  1
  H  H970  1  0.999300  0.889000  0.552600  1
  H  H971  1  0.000700  0.389000  0.947400  1
  H  H972  1  0.499300  0.611000  0.447400  1
  H  H973  1  0.448100  0.141900  0.047000  1
  H  H974  1  0.051900  0.858100  0.547000  1
  H  H975  1  0.948100  0.358100  0.953000  1
  H  H976  1  0.551900  0.641900  0.453000  1
  H  H977  1  0.476500  0.140200  0.088700  1
  H  H978  1  0.023500  0.859800  0.588700  1
  H  H979  1  0.976500  0.359800  0.911300  1
  H  H980  1  0.523500  0.640200  0.411300  1
  H  H981  1  0.515500  0.199200  0.069600  1
  H  H982  1  0.984500  0.800800  0.569600  1
  H  H983  1  0.015500  0.300800  0.930400  1
  H  H984  1  0.484500  0.699200  0.430400  1
  H  H985  1  0.242800  0.404500  0.213000  1
  H  H986  1  0.257200  0.595500  0.713000  1
  H  H987  1  0.742800  0.095500  0.787000  1
  H  H988  1  0.757200  0.904500  0.287000  1
  H  H989  1  0.208600  0.365500  0.189600  1
  H  H990  1  0.291400  0.634500  0.689600  1
  H  H991  1  0.708600  0.134500  0.810400  1
  H  H992  1  0.791400  0.865500  0.310400  1
  H  H993  1  0.231600  0.411600  0.167300  1
  H  H994  1  0.268400  0.588400  0.667300  1
  H  H995  1  0.731600  0.088400  0.832700  1
  H  H996  1  0.768400  0.911600  0.332700  1
  H  H997  1  0.293900  0.341100  0.196700  1
  H  H998  1  0.206100  0.658900  0.696700  1
  H  H999  1  0.793900  0.158900  0.803300  1
  H  H1000  1  0.706100  0.841100  0.303300  1
  H  H1001  1  0.309200  0.214700  0.901700  1
  H  H1002  1  0.190800  0.785300  0.401700  1
  H  H1003  1  0.809200  0.285300  0.098300  1
  H  H1004  1  0.690800  0.714700  0.598300  1
  H  H1005  1  0.299200  0.260300  0.874000  1
  H  H1006  1  0.200800  0.739700  0.374000  1
  H  H1007  1  0.799200  0.239700  0.126000  1
  H  H1008  1  0.700800  0.760300  0.626000  1
  H  H1009  1  0.260100  0.215100  0.872400  1
  H  H1010  1  0.239900  0.784900  0.372400  1
  H  H1011  1  0.760100  0.284900  0.127600  1
  H  H1012  1  0.739900  0.715100  0.627600  1
  H  H1013  1  0.269500  0.262600  0.938400  1
  H  H1014  1  0.230500  0.737400  0.438400  1
  H  H1015  1  0.769500  0.237400  0.061600  1
  H  H1016  1  0.730500  0.762600  0.561600  1
  H  H1017  1  0.784300  0.651400  0.809300  1
  H  H1018  1  0.715700  0.348600  0.309300  1
  H  H1019  1  0.284300  0.848600  0.190700  1
  H  H1020  1  0.215700  0.151400  0.690700  1
  H  H1021  1  0.778200  0.624100  0.850200  1
  H  H1022  1  0.721800  0.375900  0.350200  1
  H  H1023  1  0.278200  0.875900  0.149800  1
  H  H1024  1  0.221800  0.124100  0.649800  1
  H  H1025  1  0.781100  0.681700  0.849000  1
  H  H1026  1  0.718900  0.318300  0.349000  1
  H  H1027  1  0.281100  0.818300  0.151000  1
  H  H1028  1  0.218900  0.181700  0.651000  1
  H  H1029  1  0.700600  0.627500  0.835700  1
  H  H1030  1  0.799400  0.372500  0.335700  1
  H  H1031  1  0.200600  0.872500  0.164300  1
  H  H1032  1  0.299400  0.127500  0.664300  1
  H  H1033  1  0.788100  0.284700  0.842600  1
  H  H1034  1  0.711900  0.715300  0.342600  1
  H  H1035  1  0.288100  0.215300  0.157400  1
  H  H1036  1  0.211900  0.784700  0.657400  1
  H  H1037  1  0.810500  0.303500  0.801700  1
  H  H1038  1  0.689500  0.696500  0.301700  1
  H  H1039  1  0.310500  0.196500  0.198300  1
  H  H1040  1  0.189500  0.803500  0.698300  1
  H  H1041  1  0.748600  0.304600  0.810000  1
  H  H1042  1  0.751400  0.695400  0.310000  1
  H  H1043  1  0.248600  0.195400  0.190000  1
  H  H1044  1  0.251400  0.804600  0.690000  1
  H  H1045  1  0.189800  0.742200  0.241800  1
  H  H1046  1  0.310200  0.257800  0.741800  1
  H  H1047  1  0.689800  0.757800  0.758200  1
  H  H1048  1  0.810200  0.242200  0.258200  1
  H  H1049  1  0.148200  0.739000  0.206800  1
  H  H1050  1  0.351800  0.261000  0.706800  1
  H  H1051  1  0.648200  0.761000  0.793200  1
  H  H1052  1  0.851800  0.239000  0.293200  1
  H  H1053  1  0.128300  0.739500  0.251200  1
  H  H1054  1  0.371700  0.260500  0.751200  1
  H  H1055  1  0.628300  0.760500  0.748800  1
  H  H1056  1  0.871700  0.239500  0.248800  1
  H  H1057  1  0.182500  0.811200  0.230600  1
  H  H1058  1  0.317500  0.188800  0.730600  1
  H  H1059  1  0.682500  0.688800  0.769400  1
  H  H1060  1  0.817500  0.311200  0.269400  1
  H  H1061  1  0.071600  0.562700  0.043300  1
  H  H1062  1  0.428400  0.437300  0.543300  1
  H  H1063  1  0.571600  0.937300  0.956700  1
  H  H1064  1  0.928400  0.062700  0.456700  1
  H  H1065  1  0.020500  0.566500  0.016300  1
  H  H1066  1  0.479500  0.433500  0.516300  1
  H  H1067  1  0.520500  0.933500  0.983700  1
  H  H1068  1  0.979500  0.066500  0.483700  1
  H  H1069  1  0.015900  0.575400  0.062400  1
  H  H1070  1  0.484100  0.424600  0.562400  1
  H  H1071  1  0.515900  0.924600  0.937600  1
  H  H1072  1  0.984100  0.075400  0.437600  1
  H  H1073  1  0.023300  0.640300  0.020900  1
  H  H1074  1  0.476700  0.359700  0.520900  1
  H  H1075  1  0.523300  0.859700  0.979100  1
  H  H1076  1  0.976700  0.140300  0.479100  1
  H  H1077  1  0.651200  0.229000  0.780800  1
  H  H1078  1  0.848800  0.771000  0.280800  1
  H  H1079  1  0.151200  0.271000  0.219200  1
  H  H1080  1  0.348800  0.729000  0.719200  1
  H  H1081  1  0.688600  0.255100  0.749700  1
  H  H1082  1  0.811400  0.744900  0.249700  1
  H  H1083  1  0.188600  0.244900  0.250300  1
  H  H1084  1  0.311400  0.755100  0.750300  1
  H  H1085  1  0.713500  0.222200  0.783400  1
  H  H1086  1  0.786500  0.777800  0.283400  1
  H  H1087  1  0.213500  0.277800  0.216600  1
  H  H1088  1  0.286500  0.722200  0.716600  1
  H  H1089  1  0.697000  0.162400  0.751000  1
  H  H1090  1  0.803000  0.837600  0.251000  1
  H  H1091  1  0.197000  0.337600  0.249000  1
  H  H1092  1  0.303000  0.662400  0.749000  1
  H  H1093  1  0.804600  0.232900  0.740400  1
  H  H1094  1  0.695400  0.767100  0.240400  1
  H  H1095  1  0.304600  0.267100  0.259600  1
  H  H1096  1  0.195400  0.732900  0.759600  1
  H  H1097  1  0.816100  0.192300  0.708200  1
  H  H1098  1  0.683900  0.807700  0.208200  1
  H  H1099  1  0.316100  0.307700  0.291800  1
  H  H1100  1  0.183900  0.692300  0.791800  1
  H  H1101  1  0.863400  0.224200  0.725200  1
  H  H1102  1  0.636600  0.775800  0.225200  1
  H  H1103  1  0.363400  0.275800  0.274800  1
  H  H1104  1  0.136600  0.724200  0.774800  1
  H  H1105  1  0.493400  0.438000  0.673600  1
  H  H1106  1  0.006600  0.562000  0.173600  1
  H  H1107  1  0.993400  0.062000  0.326400  1
  H  H1108  1  0.506600  0.938000  0.826400  1
  H  H1109  1  0.553000  0.420800  0.679400  1
  H  H1110  1  0.947000  0.579200  0.179400  1
  H  H1111  1  0.053000  0.079200  0.320600  1
  H  H1112  1  0.447000  0.920800  0.820600  1
  H  H1113  1  0.523000  0.410000  0.639200  1
  H  H1114  1  0.977000  0.590000  0.139200  1
  H  H1115  1  0.023000  0.090000  0.360800  1
  H  H1116  1  0.477000  0.910000  0.860800  1
  H  H1117  1  0.541500  0.501300  0.661500  1
  H  H1118  1  0.958500  0.498700  0.161500  1
  H  H1119  1  0.041500  0.998700  0.338500  1
  H  H1120  1  0.458500  0.001300  0.838500  1
  C  C1121  1  0.889200  0.570800  0.950200  1
  C  C1122  1  0.610800  0.429200  0.450200  1
  C  C1123  1  0.389200  0.929200  0.049800  1
  C  C1124  1  0.110800  0.070800  0.549800  1
  C  C1125  1  0.941800  0.578700  0.953700  1
  C  C1126  1  0.558200  0.421300  0.453700  1
  C  C1127  1  0.441800  0.921300  0.046300  1
  C  C1128  1  0.058200  0.078700  0.546300  1
  C  C1129  1  0.977100  0.549200  0.935300  1
  C  C1130  1  0.522900  0.450800  0.435300  1
  C  C1131  1  0.477100  0.950800  0.064700  1
  C  C1132  1  0.022900  0.049200  0.564700  1
  C  C1133  1  0.959300  0.510900  0.914300  1
  C  C1134  1  0.540700  0.489100  0.414300  1
  C  C1135  1  0.459300  0.989100  0.085700  1
  C  C1136  1  0.040700  0.010900  0.585700  1
  C  C1137  1  0.904400  0.501000  0.911100  1
  C  C1138  1  0.595600  0.499000  0.411100  1
  C  C1139  1  0.404400  0.999000  0.088900  1
  C  C1140  1  0.095600  0.001000  0.588900  1
  C  C1141  1  0.869500  0.532000  0.929500  1
  C  C1142  1  0.630500  0.468000  0.429500  1
  C  C1143  1  0.369500  0.968000  0.070500  1
  C  C1144  1  0.130500  0.032000  0.570500  1
  C  C1145  1  0.810300  0.525200  0.926300  1
  C  C1146  1  0.689700  0.474800  0.426300  1
  C  C1147  1  0.310300  0.974800  0.073700  1
  C  C1148  1  0.189700  0.025200  0.573700  1
  C  C1149  1  0.792600  0.502900  0.887600  1
  C  C1150  1  0.707400  0.497100  0.387600  1
  C  C1151  1  0.292600  0.997100  0.112400  1
  C  C1152  1  0.207400  0.002900  0.612400  1
  C  C1153  1  0.804600  0.452700  0.964100  1
  C  C1154  1  0.695400  0.547300  0.464100  1
  C  C1155  1  0.304600  0.047300  0.035900  1
  C  C1156  1  0.195400  0.952700  0.535900  1
  C  C1157  1  0.782900  0.422900  0.994700  1
  C  C1158  1  0.717100  0.577100  0.494700  1
  C  C1159  1  0.282900  0.077100  0.005300  1
  C  C1160  1  0.217100  0.922900  0.505300  1
  C  C1161  1  0.800300  0.377100  0.002600  1
  C  C1162  1  0.699700  0.622900  0.502600  1
  C  C1163  1  0.300300  0.122900  0.997400  1
  C  C1164  1  0.199700  0.877100  0.497400  1
  C  C1165  1  0.777600  0.350500  0.032100  1
  C  C1166  1  0.722400  0.649500  0.532100  1
  C  C1167  1  0.277600  0.149500  0.967900  1
  C  C1168  1  0.222400  0.850500  0.467900  1
  C  C1169  1  0.737800  0.371200  0.053000  1
  C  C1170  1  0.762200  0.628800  0.553000  1
  C  C1171  1  0.237800  0.128800  0.947000  1
  C  C1172  1  0.262200  0.871200  0.447000  1
  C  C1173  1  0.721400  0.417500  0.043600  1
  C  C1174  1  0.778600  0.582500  0.543600  1
  C  C1175  1  0.221400  0.082500  0.956400  1
  C  C1176  1  0.278600  0.917500  0.456400  1
  C  C1177  1  0.838700  0.449600  0.086500  1
  C  C1178  1  0.661300  0.550400  0.586500  1
  C  C1179  1  0.338700  0.050400  0.913500  1
  C  C1180  1  0.161300  0.949600  0.413500  1
  C  C1181  1  0.879900  0.417700  0.078200  1
  C  C1182  1  0.620100  0.582300  0.578200  1
  C  C1183  1  0.379900  0.082300  0.921800  1
  C  C1184  1  0.120100  0.917700  0.421800  1
  C  C1185  1  0.917000  0.428400  0.050800  1
  C  C1186  1  0.583000  0.571600  0.550800  1
  C  C1187  1  0.417000  0.071600  0.949200  1
  C  C1188  1  0.083000  0.928400  0.449200  1
  C  C1189  1  0.914000  0.471600  0.030800  1
  C  C1190  1  0.586000  0.528400  0.530800  1
  C  C1191  1  0.414000  0.028400  0.969200  1
  C  C1192  1  0.086000  0.971600  0.469200  1
  C  C1193  1  0.873600  0.503600  0.038300  1
  C  C1194  1  0.626400  0.496400  0.538300  1
  C  C1195  1  0.373600  0.996400  0.961700  1
  C  C1196  1  0.126400  0.003600  0.461700  1
  C  C1197  1  0.835100  0.492200  0.066400  1
  C  C1198  1  0.664900  0.507800  0.566400  1
  C  C1199  1  0.335100  0.007800  0.933600  1
  C  C1200  1  0.164900  0.992200  0.433600  1
  C  C1201  1  0.792100  0.527000  0.076400  1
  C  C1202  1  0.707900  0.473000  0.576400  1
  C  C1203  1  0.292100  0.973000  0.923600  1
  C  C1204  1  0.207900  0.027000  0.423600  1
  C  C1205  1  0.808700  0.561900  0.109300  1
  C  C1206  1  0.691300  0.438100  0.609300  1
  C  C1207  1  0.308700  0.938100  0.890700  1
  C  C1208  1  0.191300  0.061900  0.390700  1
  C  C1209  1  0.775700  0.596000  0.036000  1
  C  C1210  1  0.724300  0.404000  0.536000  1
  C  C1211  1  0.275700  0.904000  0.964000  1
  C  C1212  1  0.224300  0.096000  0.464000  1
  C  C1213  1  0.754000  0.618300  0.000100  1
  C  C1214  1  0.746000  0.381700  0.500100  1
  C  C1215  1  0.254000  0.881700  0.999900  1
  C  C1216  1  0.246000  0.118300  0.499900  1
  C  C1217  1  0.764800  0.664800  0.990400  1
  C  C1218  1  0.735200  0.335200  0.490400  1
  C  C1219  1  0.264800  0.835200  0.009600  1
  C  C1220  1  0.235200  0.164800  0.509600  1
  C  C1221  1  0.744100  0.683300  0.956200  1
  C  C1222  1  0.755900  0.316700  0.456200  1
  C  C1223  1  0.244100  0.816700  0.043800  1
  C  C1224  1  0.255900  0.183300  0.543800  1
  C  C1225  1  0.713400  0.653600  0.933000  1
  C  C1226  1  0.786600  0.346400  0.433000  1
  C  C1227  1  0.213400  0.846400  0.067000  1
  C  C1228  1  0.286600  0.153600  0.567000  1
  C  C1229  1  0.704000  0.607100  0.945500  1
  C  C1230  1  0.796000  0.392900  0.445500  1
  C  C1231  1  0.204000  0.892900  0.054500  1
  C  C1232  1  0.296000  0.107100  0.554500  1
  C  C1233  1  0.378100  0.751400  0.149000  1
  C  C1234  1  0.121900  0.248600  0.649000  1
  C  C1235  1  0.878100  0.748600  0.851000  1
  C  C1236  1  0.621900  0.251400  0.351000  1
  C  C1237  1  0.374500  0.770600  0.186700  1
  C  C1238  1  0.125500  0.229400  0.686700  1
  C  C1239  1  0.874500  0.729400  0.813300  1
  C  C1240  1  0.625500  0.270600  0.313300  1
  C  C1241  1  0.395000  0.813700  0.194500  1
  C  C1242  1  0.105000  0.186300  0.694500  1
  C  C1243  1  0.895000  0.686300  0.805500  1
  C  C1244  1  0.605000  0.313700  0.305500  1
  C  C1245  1  0.419600  0.840000  0.165300  1
  C  C1246  1  0.080400  0.160000  0.665300  1
  C  C1247  1  0.919600  0.660000  0.834700  1
  C  C1248  1  0.580400  0.340000  0.334700  1
  C  C1249  1  0.423100  0.821300  0.128100  1
  C  C1250  1  0.076900  0.178700  0.628100  1
  C  C1251  1  0.923100  0.678700  0.871900  1
  C  C1252  1  0.576900  0.321300  0.371900  1
  C  C1253  1  0.402900  0.776400  0.119700  1
  C  C1254  1  0.097100  0.223600  0.619700  1
  C  C1255  1  0.902900  0.723600  0.880300  1
  C  C1256  1  0.597100  0.276400  0.380300  1
  C  C1257  1  0.407600  0.754700  0.079000  1
  C  C1258  1  0.092400  0.245300  0.579000  1
  C  C1259  1  0.907600  0.745300  0.921000  1
  C  C1260  1  0.592400  0.254700  0.421000  1
  C  C1261  1  0.386900  0.788000  0.047300  1
  C  C1262  1  0.113100  0.212000  0.547300  1
  C  C1263  1  0.886900  0.712000  0.952700  1
  C  C1264  1  0.613100  0.288000  0.452700  1
  C  C1265  1  0.495100  0.762800  0.052900  1
  C  C1266  1  0.004900  0.237200  0.552900  1
  C  C1267  1  0.995100  0.737200  0.947100  1
  C  C1268  1  0.504900  0.262800  0.447100  1
  C  C1269  1  0.547700  0.744400  0.045400  1
  C  C1270  1  0.952300  0.255600  0.545400  1
  C  C1271  1  0.047700  0.755600  0.954600  1
  C  C1272  1  0.452300  0.244400  0.454600  1
  C  C1273  1  0.586400  0.772300  0.027400  1
  C  C1274  1  0.913600  0.227700  0.527400  1
  C  C1275  1  0.086400  0.727700  0.972600  1
  C  C1276  1  0.413600  0.272300  0.472600  1
  C  C1277  1  0.634500  0.752000  0.019200  1
  C  C1278  1  0.865500  0.248000  0.519200  1
  C  C1279  1  0.134500  0.748000  0.980800  1
  C  C1280  1  0.365500  0.252000  0.480800  1
  C  C1281  1  0.642300  0.705000  0.029600  1
  C  C1282  1  0.857700  0.295000  0.529600  1
  C  C1283  1  0.142300  0.795000  0.970400  1
  C  C1284  1  0.357700  0.205000  0.470400  1
  C  C1285  1  0.601900  0.677900  0.047700  1
  C  C1286  1  0.898100  0.322100  0.547700  1
  C  C1287  1  0.101900  0.822100  0.952300  1
  C  C1288  1  0.398100  0.177900  0.452300  1
  C  C1289  1  0.640000  0.755600  0.127300  1
  C  C1290  1  0.860000  0.244400  0.627300  1
  C  C1291  1  0.140000  0.744400  0.872700  1
  C  C1292  1  0.360000  0.255600  0.372700  1
  C  C1293  1  0.651200  0.803500  0.116000  1
  C  C1294  1  0.848800  0.196500  0.616000  1
  C  C1295  1  0.151200  0.696500  0.884000  1
  C  C1296  1  0.348800  0.303500  0.384000  1
  C  C1297  1  0.612900  0.838300  0.116600  1
  C  C1298  1  0.887100  0.161700  0.616600  1
  C  C1299  1  0.112900  0.661700  0.883400  1
  C  C1300  1  0.387100  0.338300  0.383400  1
  C  C1301  1  0.561500  0.826000  0.128600  1
  C  C1302  1  0.938500  0.174000  0.628600  1
  C  C1303  1  0.061500  0.674000  0.871400  1
  C  C1304  1  0.438500  0.326000  0.371400  1
  C  C1305  1  0.550300  0.779600  0.139400  1
  C  C1306  1  0.949700  0.220400  0.639400  1
  C  C1307  1  0.050300  0.720400  0.860600  1
  C  C1308  1  0.449700  0.279600  0.360600  1
  C  C1309  1  0.588800  0.743500  0.139200  1
  C  C1310  1  0.911200  0.256500  0.639200  1
  C  C1311  1  0.088800  0.756500  0.860800  1
  C  C1312  1  0.411200  0.243500  0.360800  1
  C  C1313  1  0.577600  0.692500  0.151400  1
  C  C1314  1  0.922400  0.307500  0.651400  1
  C  C1315  1  0.077600  0.807500  0.848600  1
  C  C1316  1  0.422400  0.192500  0.348600  1
  C  C1317  1  0.596200  0.684000  0.194600  1
  C  C1318  1  0.903800  0.316000  0.694600  1
  C  C1319  1  0.096200  0.816000  0.805400  1
  C  C1320  1  0.403800  0.184000  0.305400  1
  C  C1321  1  0.493800  0.664700  0.170800  1
  C  C1322  1  0.006200  0.335300  0.670800  1
  C  C1323  1  0.993800  0.835300  0.829200  1
  C  C1324  1  0.506200  0.164700  0.329200  1
  C  C1325  1  0.438900  0.648900  0.161400  1
  C  C1326  1  0.061100  0.351100  0.661400  1
  C  C1327  1  0.938900  0.851100  0.838600  1
  C  C1328  1  0.561100  0.148900  0.338600  1
  C  C1329  1  0.402300  0.639200  0.189500  1
  C  C1330  1  0.097700  0.360800  0.689500  1
  C  C1331  1  0.902300  0.860800  0.810500  1
  C  C1332  1  0.597700  0.139200  0.310500  1
  C  C1333  1  0.350700  0.625300  0.177900  1
  C  C1334  1  0.149300  0.374700  0.677900  1
  C  C1335  1  0.850700  0.874700  0.822100  1
  C  C1336  1  0.649300  0.125300  0.322100  1
  C  C1337  1  0.341000  0.620300  0.140300  1
  C  C1338  1  0.159000  0.379700  0.640300  1
  C  C1339  1  0.841000  0.879700  0.859700  1
  C  C1340  1  0.659000  0.120300  0.359700  1
  C  C1341  1  0.380400  0.630500  0.112400  1
  C  C1342  1  0.119600  0.369500  0.612400  1
  C  C1343  1  0.880400  0.869500  0.887600  1
  C  C1344  1  0.619600  0.130500  0.387600  1
  C  C1345  1  0.148700  0.442300  0.082700  1
  C  C1346  1  0.351300  0.557700  0.582700  1
  C  C1347  1  0.648700  0.057700  0.917300  1
  C  C1348  1  0.851300  0.942300  0.417300  1
  C  C1349  1  0.100000  0.458800  0.095400  1
  C  C1350  1  0.400000  0.541200  0.595400  1
  C  C1351  1  0.600000  0.041200  0.904600  1
  C  C1352  1  0.900000  0.958800  0.404600  1
  C  C1353  1  0.057900  0.452600  0.071000  1
  C  C1354  1  0.442100  0.547400  0.571000  1
  C  C1355  1  0.557900  0.047400  0.929000  1
  C  C1356  1  0.942100  0.952600  0.429000  1
  C  C1357  1  0.062700  0.430500  0.036800  1
  C  C1358  1  0.437300  0.569500  0.536800  1
  C  C1359  1  0.562700  0.069500  0.963200  1
  C  C1360  1  0.937300  0.930500  0.463200  1
  C  C1361  1  0.111400  0.414500  0.023700  1
  C  C1362  1  0.388600  0.585500  0.523700  1
  C  C1363  1  0.611400  0.085500  0.976300  1
  C  C1364  1  0.888600  0.914500  0.476300  1
  C  C1365  1  0.154700  0.420700  0.046600  1
  C  C1366  1  0.345300  0.579300  0.546600  1
  C  C1367  1  0.654700  0.079300  0.953400  1
  C  C1368  1  0.845300  0.920700  0.453400  1
  C  C1369  1  0.208500  0.403400  0.032900  1
  C  C1370  1  0.291500  0.596600  0.532900  1
  C  C1371  1  0.708500  0.096600  0.967100  1
  C  C1372  1  0.791500  0.903400  0.467100  1
  C  C1373  1  0.209500  0.349400  0.022100  1
  C  C1374  1  0.290500  0.650600  0.522100  1
  C  C1375  1  0.709500  0.150600  0.977900  1
  C  C1376  1  0.790500  0.849400  0.477900  1
  C  C1377  1  0.218600  0.419900  0.965000  1
  C  C1378  1  0.281400  0.580100  0.465000  1
  C  C1379  1  0.718600  0.080100  0.035000  1
  C  C1380  1  0.781400  0.919900  0.535000  1
  C  C1381  1  0.244000  0.447500  0.933300  1
  C  C1382  1  0.256000  0.552500  0.433300  1
  C  C1383  1  0.744000  0.052500  0.066700  1
  C  C1384  1  0.756000  0.947500  0.566700  1
  C  C1385  1  0.237700  0.436000  0.894200  1
  C  C1386  1  0.262300  0.564000  0.394200  1
  C  C1387  1  0.737700  0.064000  0.105800  1
  C  C1388  1  0.762300  0.936000  0.605800  1
  C  C1389  1  0.265800  0.463700  0.867400  1
  C  C1390  1  0.234200  0.536300  0.367400  1
  C  C1391  1  0.765800  0.036300  0.132600  1
  C  C1392  1  0.734200  0.963700  0.632600  1
  C  C1393  1  0.296900  0.501300  0.880400  1
  C  C1394  1  0.203100  0.498700  0.380400  1
  C  C1395  1  0.796900  0.998700  0.119600  1
  C  C1396  1  0.703100  0.001300  0.619600  1
  C  C1397  1  0.301300  0.510300  0.920500  1
  C  C1398  1  0.198700  0.489700  0.420500  1
  C  C1399  1  0.801300  0.989700  0.079500  1
  C  C1400  1  0.698700  0.010300  0.579500  1
  C  C1401  1  0.172500  0.543600  0.903400  1
  C  C1402  1  0.327500  0.456400  0.403400  1
  C  C1403  1  0.672500  0.956400  0.096600  1
  C  C1404  1  0.827500  0.043600  0.596600  1
  C  C1405  1  0.140900  0.517400  0.877800  1
  C  C1406  1  0.359100  0.482600  0.377800  1
  C  C1407  1  0.640900  0.982600  0.122200  1
  C  C1408  1  0.859100  0.017400  0.622200  1
  C  C1409  1  0.104900  0.484700  0.892700  1
  C  C1410  1  0.395100  0.515300  0.392700  1
  C  C1411  1  0.604900  0.015300  0.107300  1
  C  C1412  1  0.895100  0.984700  0.607300  1
  C  C1413  1  0.100000  0.478900  0.932400  1
  C  C1414  1  0.400000  0.521100  0.432400  1
  C  C1415  1  0.600000  0.021100  0.067600  1
  C  C1416  1  0.900000  0.978900  0.567600  1
  C  C1417  1  0.130900  0.505200  0.957400  1
  C  C1418  1  0.369100  0.494800  0.457400  1
  C  C1419  1  0.630900  0.994800  0.042600  1
  C  C1420  1  0.869100  0.005200  0.542600  1
  C  C1421  1  0.167400  0.537000  0.943700  1
  C  C1422  1  0.332600  0.463000  0.443700  1
  C  C1423  1  0.667400  0.963000  0.056300  1
  C  C1424  1  0.832600  0.037000  0.556300  1
  C  C1425  1  0.202000  0.566900  0.970100  1
  C  C1426  1  0.298000  0.433100  0.470100  1
  C  C1427  1  0.702000  0.933100  0.029900  1
  C  C1428  1  0.798000  0.066900  0.529900  1
  C  C1429  1  0.175900  0.614500  0.981100  1
  C  C1430  1  0.324100  0.385500  0.481100  1
  C  C1431  1  0.675900  0.885500  0.018900  1
  C  C1432  1  0.824100  0.114500  0.518900  1
  C  C1433  1  0.209100  0.551900  0.038900  1
  C  C1434  1  0.290900  0.448100  0.538900  1
  C  C1435  1  0.709100  0.948100  0.961100  1
  C  C1436  1  0.790900  0.051900  0.461100  1
  C  C1437  1  0.236100  0.528200  0.070900  1
  C  C1438  1  0.263900  0.471800  0.570900  1
  C  C1439  1  0.736100  0.971800  0.929100  1
  C  C1440  1  0.763900  0.028200  0.429100  1
  C  C1441  1  0.227100  0.539100  0.110100  1
  C  C1442  1  0.272900  0.460900  0.610100  1
  C  C1443  1  0.727100  0.960900  0.889900  1
  C  C1444  1  0.772900  0.039100  0.389900  1
  C  C1445  1  0.255700  0.513800  0.138000  1
  C  C1446  1  0.244300  0.486200  0.638000  1
  C  C1447  1  0.755700  0.986200  0.862000  1
  C  C1448  1  0.744300  0.013800  0.362000  1
  C  C1449  1  0.292400  0.480000  0.125500  1
  C  C1450  1  0.207600  0.520000  0.625500  1
  C  C1451  1  0.792400  0.020000  0.874500  1
  C  C1452  1  0.707600  0.980000  0.374500  1
  C  C1453  1  0.299700  0.471600  0.086700  1
  C  C1454  1  0.200300  0.528400  0.586700  1
  C  C1455  1  0.799700  0.028400  0.913300  1
  C  C1456  1  0.700300  0.971600  0.413300  1
  C  C1457  1  0.668200  0.271200  0.870100  1
  C  C1458  1  0.831800  0.728800  0.370100  1
  C  C1459  1  0.168200  0.228800  0.129900  1
  C  C1460  1  0.331800  0.771200  0.629900  1
  C  C1461  1  0.691400  0.227900  0.878900  1
  C  C1462  1  0.808600  0.772100  0.378900  1
  C  C1463  1  0.191400  0.272100  0.121100  1
  C  C1464  1  0.308600  0.727900  0.621100  1
  C  C1465  1  0.661900  0.185500  0.877900  1
  C  C1466  1  0.838100  0.814500  0.377900  1
  C  C1467  1  0.161900  0.314500  0.122100  1
  C  C1468  1  0.338100  0.685500  0.622100  1
  C  C1469  1  0.610300  0.187600  0.867700  1
  C  C1470  1  0.889700  0.812400  0.367700  1
  C  C1471  1  0.110300  0.312400  0.132300  1
  C  C1472  1  0.389700  0.687600  0.632300  1
  C  C1473  1  0.586900  0.231800  0.857800  1
  C  C1474  1  0.913100  0.768200  0.357800  1
  C  C1475  1  0.086900  0.268200  0.142200  1
  C  C1476  1  0.413100  0.731800  0.642200  1
  C  C1477  1  0.615300  0.273800  0.859100  1
  C  C1478  1  0.884700  0.726200  0.359100  1
  C  C1479  1  0.115300  0.226200  0.140900  1
  C  C1480  1  0.384700  0.773800  0.640900  1
  C  C1481  1  0.593300  0.322400  0.846200  1
  C  C1482  1  0.906700  0.677600  0.346200  1
  C  C1483  1  0.093300  0.177600  0.153800  1
  C  C1484  1  0.406700  0.822400  0.653800  1
  C  C1485  1  0.606100  0.332700  0.803400  1
  C  C1486  1  0.893900  0.667300  0.303400  1
  C  C1487  1  0.106100  0.167300  0.196600  1
  C  C1488  1  0.393900  0.832700  0.696600  1
  C  C1489  1  0.502900  0.336000  0.831700  1
  C  C1490  1  0.997100  0.664000  0.331700  1
  C  C1491  1  0.002900  0.164000  0.168300  1
  C  C1492  1  0.497100  0.836000  0.668300  1
  C  C1493  1  0.447600  0.343200  0.844100  1
  C  C1494  1  0.052400  0.656800  0.344100  1
  C  C1495  1  0.947600  0.156800  0.155900  1
  C  C1496  1  0.552400  0.843200  0.655900  1
  C  C1497  1  0.407700  0.347800  0.817100  1
  C  C1498  1  0.092300  0.652200  0.317100  1
  C  C1499  1  0.907700  0.152200  0.182900  1
  C  C1500  1  0.592300  0.847800  0.682900  1
  C  C1501  1  0.356700  0.354400  0.831000  1
  C  C1502  1  0.143300  0.645600  0.331000  1
  C  C1503  1  0.856700  0.145600  0.169000  1
  C  C1504  1  0.643300  0.854400  0.669000  1
  C  C1505  1  0.348800  0.356000  0.871000  1
  C  C1506  1  0.151200  0.644000  0.371000  1
  C  C1507  1  0.848800  0.144000  0.129000  1
  C  C1508  1  0.651200  0.856000  0.629000  1
  C  C1509  1  0.390000  0.351500  0.896200  1
  C  C1510  1  0.110000  0.648500  0.396200  1
  C  C1511  1  0.890000  0.148500  0.103800  1
  C  C1512  1  0.610000  0.851500  0.603800  1
  C  C1513  1  0.420400  0.217600  0.859600  1
  C  C1514  1  0.079600  0.782400  0.359600  1
  C  C1515  1  0.920400  0.282400  0.140400  1
  C  C1516  1  0.579600  0.717600  0.640400  1
  C  C1517  1  0.421400  0.185000  0.825700  1
  C  C1518  1  0.078600  0.815000  0.325700  1
  C  C1519  1  0.921400  0.315000  0.174300  1
  C  C1520  1  0.578600  0.685000  0.674300  1
  C  C1521  1  0.450600  0.143500  0.830200  1
  C  C1522  1  0.049400  0.856500  0.330200  1
  C  C1523  1  0.950600  0.356500  0.169800  1
  C  C1524  1  0.549400  0.643500  0.669800  1
  C  C1525  1  0.481100  0.130400  0.861800  1
  C  C1526  1  0.018900  0.869600  0.361800  1
  C  C1527  1  0.981100  0.369600  0.138200  1
  C  C1528  1  0.518900  0.630400  0.638200  1
  C  C1529  1  0.479800  0.162000  0.891900  1
  C  C1530  1  0.020200  0.838000  0.391900  1
  C  C1531  1  0.979800  0.338000  0.108100  1
  C  C1532  1  0.520200  0.662000  0.608100  1
  C  C1533  1  0.449400  0.205300  0.891900  1
  C  C1534  1  0.050600  0.794700  0.391900  1
  C  C1535  1  0.949400  0.294700  0.108100  1
  C  C1536  1  0.550600  0.705300  0.608100  1
  C  C1537  1  0.447100  0.236800  0.928900  1
  C  C1538  1  0.052900  0.763200  0.428900  1
  C  C1539  1  0.947100  0.263200  0.071100  1
  C  C1540  1  0.552900  0.736800  0.571100  1
  C  C1541  1  0.432300  0.207800  0.964500  1
  C  C1542  1  0.067700  0.792200  0.464500  1
  C  C1543  1  0.932300  0.292200  0.035500  1
  C  C1544  1  0.567700  0.707800  0.535500  1
  C  C1545  1  0.535800  0.244600  0.951900  1
  C  C1546  1  0.964200  0.755400  0.451900  1
  C  C1547  1  0.035800  0.255400  0.048100  1
  C  C1548  1  0.464200  0.744600  0.548100  1
  C  C1549  1  0.585200  0.271400  0.956600  1
  C  C1550  1  0.914800  0.728600  0.456600  1
  C  C1551  1  0.085200  0.228600  0.043400  1
  C  C1552  1  0.414800  0.771400  0.543400  1
  C  C1553  1  0.628100  0.252000  0.974500  1
  C  C1554  1  0.871900  0.748000  0.474500  1
  C  C1555  1  0.128100  0.248000  0.025500  1
  C  C1556  1  0.371900  0.752000  0.525500  1
  C  C1557  1  0.672500  0.279800  0.978100  1
  C  C1558  1  0.827500  0.720200  0.478100  1
  C  C1559  1  0.172500  0.220200  0.021900  1
  C  C1560  1  0.327500  0.779800  0.521900  1
  C  C1561  1  0.672600  0.327100  0.964700  1
  C  C1562  1  0.827400  0.672900  0.464700  1
  C  C1563  1  0.172600  0.172900  0.035300  1
  C  C1564  1  0.327400  0.827100  0.535300  1
  C  C1565  1  0.625800  0.344000  0.947700  1
  C  C1566  1  0.874200  0.656000  0.447700  1
  C  C1567  1  0.125800  0.156000  0.052300  1
  C  C1568  1  0.374200  0.844000  0.552300  1
  C  C1569  1  0.491400  0.767300  0.859600  1
  C  C1570  1  0.008600  0.232700  0.359600  1
  C  C1571  1  0.991400  0.732700  0.140400  1
  C  C1572  1  0.508600  0.267300  0.640400  1
  C  C1573  1  0.524900  0.801500  0.844800  1
  C  C1574  1  0.975100  0.198500  0.344800  1
  C  C1575  1  0.024900  0.698500  0.155200  1
  C  C1576  1  0.475100  0.301500  0.655200  1
  C  C1577  1  0.530500  0.799100  0.808000  1
  C  C1578  1  0.969500  0.200900  0.308000  1
  C  C1579  1  0.030500  0.700900  0.192000  1
  C  C1580  1  0.469500  0.299100  0.692000  1
  C  C1581  1  0.504100  0.771900  0.778900  1
  C  C1582  1  0.995900  0.228100  0.278900  1
  C  C1583  1  0.004100  0.728100  0.221100  1
  C  C1584  1  0.495900  0.271900  0.721100  1
  C  C1585  1  0.463400  0.736000  0.796800  1
  C  C1586  1  0.036600  0.264000  0.296800  1
  C  C1587  1  0.963400  0.764000  0.203200  1
  C  C1588  1  0.536600  0.236000  0.703200  1
  C  C1589  1  0.461800  0.734500  0.835900  1
  C  C1590  1  0.038200  0.265500  0.335900  1
  C  C1591  1  0.961800  0.765500  0.164100  1
  C  C1592  1  0.538200  0.234500  0.664100  1
  C  C1593  1  0.423300  0.701600  0.857000  1
  C  C1594  1  0.076700  0.298400  0.357000  1
  C  C1595  1  0.923300  0.798400  0.143000  1
  C  C1596  1  0.576700  0.201600  0.643000  1
  C  C1597  1  0.367500  0.719700  0.853300  1
  C  C1598  1  0.132500  0.280300  0.353300  1
  C  C1599  1  0.867500  0.780300  0.146700  1
  C  C1600  1  0.632500  0.219700  0.646700  1
  C  C1601  1  0.395100  0.628900  0.824900  1
  C  C1602  1  0.104900  0.371100  0.324900  1
  C  C1603  1  0.895100  0.871100  0.175100  1
  C  C1604  1  0.604900  0.128900  0.675100  1
  C  C1605  1  0.399900  0.577200  0.819100  1
  C  C1606  1  0.100100  0.422800  0.319100  1
  C  C1607  1  0.899900  0.922800  0.180900  1
  C  C1608  1  0.600100  0.077200  0.680900  1
  C  C1609  1  0.366900  0.549700  0.797200  1
  C  C1610  1  0.133100  0.450300  0.297200  1
  C  C1611  1  0.866900  0.950300  0.202800  1
  C  C1612  1  0.633100  0.049700  0.702800  1
  C  C1613  1  0.376200  0.500600  0.795000  1
  C  C1614  1  0.123800  0.499400  0.295000  1
  C  C1615  1  0.876200  0.999400  0.205000  1
  C  C1616  1  0.623800  0.000600  0.705000  1
  C  C1617  1  0.418300  0.480800  0.815500  1
  C  C1618  1  0.081700  0.519200  0.315500  1
  C  C1619  1  0.918300  0.019200  0.184500  1
  C  C1620  1  0.581700  0.980800  0.684500  1
  C  C1621  1  0.450600  0.510600  0.837400  1
  C  C1622  1  0.049400  0.489400  0.337400  1
  C  C1623  1  0.950600  0.989400  0.162600  1
  C  C1624  1  0.549400  0.010600  0.662600  1
  C  C1625  1  0.477500  0.541300  0.740700  1
  C  C1626  1  0.022500  0.458700  0.240700  1
  C  C1627  1  0.977500  0.958700  0.259300  1
  C  C1628  1  0.522500  0.041300  0.759300  1
  C  C1629  1  0.437900  0.542100  0.712300  1
  C  C1630  1  0.062100  0.457900  0.212300  1
  C  C1631  1  0.937900  0.957900  0.287700  1
  C  C1632  1  0.562100  0.042100  0.787700  1
  C  C1633  1  0.414800  0.586000  0.703200  1
  C  C1634  1  0.085200  0.414000  0.203200  1
  C  C1635  1  0.914800  0.914000  0.296800  1
  C  C1636  1  0.585200  0.086000  0.796800  1
  C  C1637  1  0.431400  0.627900  0.721500  1
  C  C1638  1  0.068600  0.372100  0.221500  1
  C  C1639  1  0.931400  0.872100  0.278500  1
  C  C1640  1  0.568600  0.127900  0.778500  1
  C  C1641  1  0.470700  0.625800  0.749600  1
  C  C1642  1  0.029300  0.374200  0.249600  1
  C  C1643  1  0.970700  0.874200  0.250400  1
  C  C1644  1  0.529300  0.125800  0.750400  1
  C  C1645  1  0.494200  0.583100  0.760000  1
  C  C1646  1  0.005800  0.416900  0.260000  1
  C  C1647  1  0.994200  0.916900  0.240000  1
  C  C1648  1  0.505800  0.083100  0.740000  1
  C  C1649  1  0.538400  0.579800  0.788100  1
  C  C1650  1  0.961600  0.420200  0.288100  1
  C  C1651  1  0.038400  0.920200  0.211900  1
  C  C1652  1  0.461600  0.079800  0.711900  1
  C  C1653  1  0.590200  0.583300  0.767800  1
  C  C1654  1  0.909800  0.416700  0.267800  1
  C  C1655  1  0.090200  0.916700  0.232200  1
  C  C1656  1  0.409800  0.083300  0.732200  1
  C  C1657  1  0.567700  0.646000  0.827600  1
  C  C1658  1  0.932300  0.354000  0.327600  1
  C  C1659  1  0.067700  0.854000  0.172400  1
  C  C1660  1  0.432300  0.146000  0.672400  1
  C  C1661  1  0.565900  0.670600  0.865100  1
  C  C1662  1  0.934100  0.329400  0.365100  1
  C  C1663  1  0.065900  0.829400  0.134900  1
  C  C1664  1  0.434100  0.170600  0.634900  1
  C  C1665  1  0.602500  0.704300  0.877500  1
  C  C1666  1  0.897500  0.295700  0.377500  1
  C  C1667  1  0.102500  0.795700  0.122500  1
  C  C1668  1  0.397500  0.204300  0.622500  1
  C  C1669  1  0.599000  0.723600  0.914000  1
  C  C1670  1  0.901000  0.276400  0.414000  1
  C  C1671  1  0.099000  0.776400  0.086000  1
  C  C1672  1  0.401000  0.223600  0.586000  1
  C  C1673  1  0.558700  0.708800  0.937800  1
  C  C1674  1  0.941300  0.291200  0.437800  1
  C  C1675  1  0.058700  0.791200  0.062200  1
  C  C1676  1  0.441300  0.208800  0.562200  1
  C  C1677  1  0.522800  0.674900  0.924300  1
  C  C1678  1  0.977200  0.325100  0.424300  1
  C  C1679  1  0.022800  0.825100  0.075700  1
  C  C1680  1  0.477200  0.174900  0.575700  1
  C  C1681  1  0.498600  0.462900  0.261500  1
  C  C1682  1  0.001400  0.537100  0.761500  1
  C  C1683  1  0.998600  0.037100  0.738500  1
  C  C1684  1  0.501400  0.962900  0.238500  1
  C  C1685  1  0.460600  0.458700  0.290400  1
  C  C1686  1  0.039400  0.541300  0.790400  1
  C  C1687  1  0.960600  0.041300  0.709600  1
  C  C1688  1  0.539400  0.958700  0.209600  1
  C  C1689  1  0.441400  0.413300  0.300000  1
  C  C1690  1  0.058600  0.586700  0.800000  1
  C  C1691  1  0.941400  0.086700  0.700000  1
  C  C1692  1  0.558600  0.913300  0.200000  1
  C  C1693  1  0.459500  0.372400  0.281700  1
  C  C1694  1  0.040500  0.627600  0.781700  1
  C  C1695  1  0.959500  0.127600  0.718300  1
  C  C1696  1  0.540500  0.872400  0.218300  1
  C  C1697  1  0.497800  0.377100  0.253000  1
  C  C1698  1  0.002200  0.622900  0.753000  1
  C  C1699  1  0.997800  0.122900  0.747000  1
  C  C1700  1  0.502200  0.877100  0.247000  1
  C  C1701  1  0.516100  0.421900  0.242500  1
  C  C1702  1  0.983900  0.578100  0.742500  1
  C  C1703  1  0.016100  0.078100  0.757500  1
  C  C1704  1  0.483900  0.921900  0.257500  1
  C  C1705  1  0.559000  0.427600  0.211300  1
  C  C1706  1  0.941000  0.572400  0.711300  1
  C  C1707  1  0.059000  0.072400  0.788700  1
  C  C1708  1  0.441000  0.927600  0.288700  1
  C  C1709  1  0.612900  0.427900  0.230200  1
  C  C1710  1  0.887100  0.572100  0.730200  1
  C  C1711  1  0.112900  0.072100  0.769800  1
  C  C1712  1  0.387100  0.927900  0.269800  1
  C  C1713  1  0.591500  0.363400  0.171200  1
  C  C1714  1  0.908500  0.636600  0.671200  1
  C  C1715  1  0.091500  0.136600  0.828800  1
  C  C1716  1  0.408500  0.863400  0.328800  1
  C  C1717  1  0.590800  0.337500  0.134600  1
  C  C1718  1  0.909200  0.662500  0.634600  1
  C  C1719  1  0.090800  0.162500  0.865400  1
  C  C1720  1  0.409200  0.837500  0.365400  1
  C  C1721  1  0.630100  0.307700  0.120900  1
  C  C1722  1  0.869900  0.692300  0.620900  1
  C  C1723  1  0.130100  0.192300  0.879100  1
  C  C1724  1  0.369900  0.807700  0.379100  1
  C  C1725  1  0.626200  0.288400  0.084300  1
  C  C1726  1  0.873800  0.711600  0.584300  1
  C  C1727  1  0.126200  0.211600  0.915700  1
  C  C1728  1  0.373800  0.788400  0.415700  1
  C  C1729  1  0.582700  0.299500  0.061900  1
  C  C1730  1  0.917300  0.700500  0.561900  1
  C  C1731  1  0.082700  0.200500  0.938100  1
  C  C1732  1  0.417300  0.799500  0.438100  1
  C  C1733  1  0.544500  0.329700  0.076600  1
  C  C1734  1  0.955500  0.670300  0.576600  1
  C  C1735  1  0.044500  0.170300  0.923400  1
  C  C1736  1  0.455500  0.829700  0.423400  1
  C  C1737  1  0.530000  0.239200  0.152100  1
  C  C1738  1  0.970000  0.760800  0.652100  1
  C  C1739  1  0.030000  0.260800  0.847900  1
  C  C1740  1  0.470000  0.739200  0.347900  1
  C  C1741  1  0.567700  0.212100  0.171700  1
  C  C1742  1  0.932300  0.787900  0.671700  1
  C  C1743  1  0.067700  0.287900  0.828300  1
  C  C1744  1  0.432300  0.712100  0.328300  1
  C  C1745  1  0.568700  0.213300  0.212400  1
  C  C1746  1  0.931300  0.786700  0.712400  1
  C  C1747  1  0.068700  0.286700  0.787600  1
  C  C1748  1  0.431300  0.713300  0.287600  1
  C  C1749  1  0.528400  0.240100  0.233600  1
  C  C1750  1  0.971600  0.759900  0.733600  1
  C  C1751  1  0.028400  0.259900  0.766400  1
  C  C1752  1  0.471600  0.740100  0.266400  1
  C  C1753  1  0.491300  0.265100  0.211900  1
  C  C1754  1  0.008700  0.734900  0.711900  1
  C  C1755  1  0.991300  0.234900  0.788100  1
  C  C1756  1  0.508700  0.765100  0.288100  1
  C  C1757  1  0.492300  0.266700  0.172100  1
  C  C1758  1  0.007700  0.733300  0.672100  1
  C  C1759  1  0.992300  0.233300  0.827900  1
  C  C1760  1  0.507700  0.766700  0.327900  1
  C  C1761  1  0.451500  0.295100  0.149300  1
  C  C1762  1  0.048500  0.704900  0.649300  1
  C  C1763  1  0.951500  0.204900  0.850700  1
  C  C1764  1  0.548500  0.795100  0.350700  1
  C  C1765  1  0.397100  0.273400  0.153600  1
  C  C1766  1  0.102900  0.726600  0.653600  1
  C  C1767  1  0.897100  0.226600  0.846400  1
  C  C1768  1  0.602900  0.773400  0.346400  1
  C  C1769  1  0.418100  0.365900  0.179900  1
  C  C1770  1  0.081900  0.634100  0.679900  1
  C  C1771  1  0.918100  0.134100  0.820100  1
  C  C1772  1  0.581900  0.865900  0.320100  1
  C  C1773  1  0.418800  0.418200  0.184600  1
  C  C1774  1  0.081200  0.581800  0.684600  1
  C  C1775  1  0.918800  0.081800  0.815400  1
  C  C1776  1  0.581200  0.918200  0.315400  1
  C  C1777  1  0.382700  0.444000  0.207200  1
  C  C1778  1  0.117300  0.556000  0.707200  1
  C  C1779  1  0.882700  0.056000  0.792800  1
  C  C1780  1  0.617300  0.944000  0.292800  1
  C  C1781  1  0.387000  0.493300  0.208200  1
  C  C1782  1  0.113000  0.506700  0.708200  1
  C  C1783  1  0.887000  0.006700  0.791800  1
  C  C1784  1  0.613000  0.993300  0.291800  1
  C  C1785  1  0.426600  0.515600  0.187200  1
  C  C1786  1  0.073400  0.484400  0.687200  1
  C  C1787  1  0.926600  0.984400  0.812800  1
  C  C1788  1  0.573400  0.015600  0.312800  1
  C  C1789  1  0.460700  0.488500  0.165500  1
  C  C1790  1  0.039300  0.511500  0.665500  1
  C  C1791  1  0.960700  0.011500  0.834500  1
  C  C1792  1  0.539300  0.988500  0.334500  1
  C  C1793  1  0.648300  0.525400  0.071700  1
  C  C1794  1  0.851700  0.474600  0.571700  1
  C  C1795  1  0.148300  0.974600  0.928300  1
  C  C1796  1  0.351700  0.025400  0.428300  1
  C  C1797  1  0.564800  0.574300  0.104100  1
  C  C1798  1  0.935200  0.425700  0.604100  1
  C  C1799  1  0.064800  0.925700  0.895900  1
  C  C1800  1  0.435200  0.074300  0.395900  1
  C  C1801  1  0.574800  0.479000  0.118900  1
  C  C1802  1  0.925200  0.521000  0.618900  1
  C  C1803  1  0.074800  0.021000  0.881100  1
  C  C1804  1  0.425200  0.979000  0.381100  1
  C  C1805  1  0.593100  0.543300  0.175200  1
  C  C1806  1  0.906900  0.456700  0.675200  1
  C  C1807  1  0.093100  0.956700  0.824800  1
  C  C1808  1  0.406900  0.043300  0.324800  1
  C  C1809  1  0.673600  0.489200  0.140000  1
  C  C1810  1  0.826400  0.510800  0.640000  1
  C  C1811  1  0.173600  0.010800  0.860000  1
  C  C1812  1  0.326400  0.989200  0.360000  1
  C  C1813  1  0.664500  0.587800  0.129200  1
  C  C1814  1  0.835500  0.412200  0.629200  1
  C  C1815  1  0.164500  0.912200  0.870800  1
  C  C1816  1  0.335500  0.087800  0.370800  1
  C  C1817  1  0.417300  0.643900  0.012100  1
  C  C1818  1  0.082700  0.356100  0.512100  1
  C  C1819  1  0.917300  0.856100  0.987900  1
  C  C1820  1  0.582700  0.143900  0.487900  1
  C  C1821  1  0.339900  0.578900  0.991200  1
  C  C1822  1  0.160100  0.421100  0.491200  1
  C  C1823  1  0.839900  0.921100  0.008800  1
  C  C1824  1  0.660100  0.078900  0.508800  1
  C  C1825  1  0.410600  0.613900  0.935200  1
  C  C1826  1  0.089400  0.386100  0.435200  1
  C  C1827  1  0.910600  0.886100  0.064800  1
  C  C1828  1  0.589400  0.113900  0.564800  1
  C  C1829  1  0.311300  0.637700  0.932400  1
  C  C1830  1  0.188700  0.362300  0.432400  1
  C  C1831  1  0.811300  0.862300  0.067600  1
  C  C1832  1  0.688700  0.137700  0.567600  1
  C  C1833  1  0.386300  0.702700  0.957200  1
  C  C1834  1  0.113700  0.297300  0.457200  1
  C  C1835  1  0.886300  0.797300  0.042800  1
  C  C1836  1  0.613700  0.202700  0.542800  1
  C  C1837  1  0.315200  0.668300  0.009500  1
  C  C1838  1  0.184800  0.331700  0.509500  1
  C  C1839  1  0.815200  0.831700  0.990500  1
  C  C1840  1  0.684800  0.168300  0.490500  1
  C  C1841  1  0.350800  0.406400  0.014500  1
  C  C1842  1  0.149200  0.593600  0.514500  1
  C  C1843  1  0.850800  0.093600  0.985500  1
  C  C1844  1  0.649200  0.906400  0.485500  1
  C  C1845  1  0.438100  0.350300  0.993000  1
  C  C1846  1  0.061900  0.649700  0.493000  1
  C  C1847  1  0.938100  0.149700  0.007000  1
  C  C1848  1  0.561900  0.850300  0.507000  1
  C  C1849  1  0.428500  0.381300  0.069400  1
  C  C1850  1  0.071500  0.618700  0.569400  1
  C  C1851  1  0.928500  0.118700  0.930600  1
  C  C1852  1  0.571500  0.881300  0.430600  1
  C  C1853  1  0.416100  0.290400  0.049800  1
  C  C1854  1  0.083900  0.709600  0.549800  1
  C  C1855  1  0.916100  0.209600  0.950200  1
  C  C1856  1  0.583900  0.790400  0.450200  1
  C  C1857  1  0.331300  0.346600  0.073400  1
  C  C1858  1  0.168700  0.653400  0.573400  1
  C  C1859  1  0.831300  0.153400  0.926600  1
  C  C1860  1  0.668700  0.846600  0.426600  1
  C  C1861  1  0.341800  0.312700  0.996400  1
  C  C1862  1  0.158200  0.687300  0.496400  1
  C  C1863  1  0.841800  0.187300  0.003600  1
  C  C1864  1  0.658200  0.812700  0.503600  1
  C  C1865  1  0.648500  0.490400  0.923600  1
  C  C1866  1  0.851500  0.509600  0.423600  1
  C  C1867  1  0.148500  0.009600  0.076400  1
  C  C1868  1  0.351500  0.990400  0.576400  1
  C  C1869  1  0.566600  0.435100  0.895900  1
  C  C1870  1  0.933400  0.564900  0.395900  1
  C  C1871  1  0.066600  0.064900  0.104100  1
  C  C1872  1  0.433400  0.935100  0.604100  1
  C  C1873  1  0.565300  0.529700  0.881300  1
  C  C1874  1  0.934700  0.470300  0.381300  1
  C  C1875  1  0.065300  0.970300  0.118700  1
  C  C1876  1  0.434700  0.029700  0.618700  1
  C  C1877  1  0.583700  0.467100  0.824800  1
  C  C1878  1  0.916300  0.532900  0.324800  1
  C  C1879  1  0.083700  0.032900  0.175200  1
  C  C1880  1  0.416300  0.967100  0.675200  1
  C  C1881  1  0.659200  0.530500  0.854100  1
  C  C1882  1  0.840800  0.469500  0.354100  1
  C  C1883  1  0.159200  0.969500  0.145900  1
  C  C1884  1  0.340800  0.030500  0.645900  1
  C  C1885  1  0.667600  0.431300  0.865700  1
  C  C1886  1  0.832400  0.568700  0.365700  1
  C  C1887  1  0.167600  0.068700  0.134300  1
  C  C1888  1  0.332400  0.931300  0.634300  1
  C  C1889  1  0.529700  0.529500  0.970700  1
  C  C1890  1  0.970300  0.470500  0.470700  1
  C  C1891  1  0.029700  0.970500  0.029300  1
  C  C1892  1  0.470300  0.029500  0.529300  1
  C  C1893  1  0.564700  0.569300  0.986400  1
  C  C1894  1  0.935300  0.430700  0.486400  1
  C  C1895  1  0.064700  0.930700  0.013600  1
  C  C1896  1  0.435300  0.069300  0.513600  1
  C  C1897  1  0.463700  0.535700  0.023100  1
  C  C1898  1  0.036300  0.464300  0.523100  1
  C  C1899  1  0.963700  0.964300  0.976900  1
  C  C1900  1  0.536300  0.035700  0.476900  1
  C  C1901  1  0.429600  0.512800  0.054200  1
  C  C1902  1  0.070400  0.487200  0.554200  1
  C  C1903  1  0.929600  0.987200  0.945800  1
  C  C1904  1  0.570400  0.012800  0.445800  1
  C  C1905  1  0.467700  0.462600  0.980100  1
  C  C1906  1  0.032300  0.537400  0.480100  1
  C  C1907  1  0.967700  0.037400  0.019900  1
  C  C1908  1  0.532300  0.962600  0.519900  1
  C  C1909  1  0.428700  0.480400  0.950000  1
  C  C1910  1  0.071300  0.519600  0.450000  1
  C  C1911  1  0.928700  0.019600  0.050000  1
  C  C1912  1  0.571300  0.980400  0.550000  1
  C  C1913  1  0.534800  0.476100  0.029500  1
  C  C1914  1  0.965200  0.523900  0.529500  1
  C  C1915  1  0.034800  0.023900  0.970500  1
  C  C1916  1  0.465200  0.976100  0.470500  1
  C  C1917  1  0.574400  0.440900  0.013200  1
  C  C1918  1  0.925600  0.559100  0.513200  1
  C  C1919  1  0.074400  0.059100  0.986800  1
  C  C1920  1  0.425600  0.940900  0.486800  1
  C  C1921  1  0.773500  0.453600  0.790000  1
  C  C1922  1  0.726500  0.546400  0.290000  1
  C  C1923  1  0.273500  0.046400  0.210000  1
  C  C1924  1  0.226500  0.953600  0.710000  1
  C  C1925  1  0.836500  0.454800  0.790100  1
  C  C1926  1  0.663500  0.545200  0.290100  1
  C  C1927  1  0.336500  0.045200  0.209900  1
  C  C1928  1  0.163500  0.954800  0.709900  1
  C  C1929  1  0.767000  0.507900  0.734100  1
  C  C1930  1  0.733000  0.492100  0.234100  1
  C  C1931  1  0.267000  0.992100  0.265900  1
  C  C1932  1  0.233000  0.007900  0.765900  1
  C  C1933  1  0.752600  0.551300  0.759000  1
  C  C1934  1  0.747400  0.448700  0.259000  1
  C  C1935  1  0.252600  0.948700  0.241000  1
  C  C1936  1  0.247400  0.051300  0.741000  1
  C  C1937  1  0.690700  0.460500  0.758500  1
  C  C1938  1  0.809300  0.539500  0.258500  1
  C  C1939  1  0.190700  0.039500  0.241500  1
  C  C1940  1  0.309300  0.960500  0.741500  1
  C  C1941  1  0.657800  0.468500  0.723000  1
  C  C1942  1  0.842200  0.531500  0.223000  1
  C  C1943  1  0.157800  0.031500  0.277000  1
  C  C1944  1  0.342200  0.968500  0.777000  1
  C  C1945  1  0.766800  0.424300  0.721100  1
  C  C1946  1  0.733200  0.575700  0.221100  1
  C  C1947  1  0.266800  0.075700  0.278900  1
  C  C1948  1  0.233200  0.924300  0.778900  1
  C  C1949  1  0.757500  0.372300  0.732900  1
  C  C1950  1  0.742500  0.627700  0.232900  1
  C  C1951  1  0.257500  0.127700  0.267100  1
  C  C1952  1  0.242500  0.872300  0.767100  1
  C  C1953  1  0.799300  0.377600  0.174600  1
  C  C1954  1  0.700700  0.622400  0.674600  1
  C  C1955  1  0.299300  0.122400  0.825400  1
  C  C1956  1  0.200700  0.877600  0.325400  1
  C  C1957  1  0.226900  0.603100  0.814100  1
  C  C1958  1  0.273100  0.396900  0.314100  1
  C  C1959  1  0.726900  0.896900  0.185900  1
  C  C1960  1  0.773100  0.103100  0.685900  1
  C  C1961  1  0.267200  0.760600  0.923600  1
  C  C1962  1  0.232800  0.239400  0.423600  1
  C  C1963  1  0.767200  0.739400  0.076400  1
  C  C1964  1  0.732800  0.260600  0.576400  1
  C  C1965  1  0.420100  0.856200  0.934900  1
  C  C1966  1  0.079900  0.143800  0.434900  1
  C  C1967  1  0.920100  0.643800  0.065100  1
  C  C1968  1  0.579900  0.356200  0.565100  1
  C  C1969  1  0.231800  0.713100  0.118000  1
  C  C1970  1  0.268200  0.286900  0.618000  1
  C  C1971  1  0.731800  0.786900  0.882000  1
  C  C1972  1  0.768200  0.213100  0.382000  1
  C  C1973  1  0.309700  0.212700  0.067600  1
  C  C1974  1  0.190300  0.787300  0.567600  1
  C  C1975  1  0.809700  0.287300  0.932400  1
  C  C1976  1  0.690300  0.712700  0.432400  1
  C  C1977  1  0.482100  0.140400  0.060400  1
  C  C1978  1  0.017900  0.859600  0.560400  1
  C  C1979  1  0.982100  0.359600  0.939600  1
  C  C1980  1  0.517900  0.640400  0.439600  1
  C  C1981  1  0.238300  0.387900  0.187900  1
  C  C1982  1  0.261700  0.612100  0.687900  1
  C  C1983  1  0.738300  0.112100  0.812100  1
  C  C1984  1  0.761700  0.887900  0.312100  1
  C  C1985  1  0.282200  0.234900  0.889500  1
  C  C1986  1  0.217800  0.765100  0.389500  1
  C  C1987  1  0.782200  0.265100  0.110500  1
  C  C1988  1  0.717800  0.734900  0.610500  1
  C  C1989  1  0.768400  0.652900  0.835300  1
  C  C1990  1  0.731600  0.347100  0.335300  1
  C  C1991  1  0.268400  0.847100  0.164700  1
  C  C1992  1  0.231600  0.152900  0.664700  1
  C  C1993  1  0.783500  0.308500  0.821700  1
  C  C1994  1  0.716500  0.691500  0.321700  1
  C  C1995  1  0.283500  0.191500  0.178300  1
  C  C1996  1  0.216500  0.808500  0.678300  1
  C  C1997  1  0.154800  0.752000  0.233000  1
  C  C1998  1  0.345200  0.248000  0.733000  1
  C  C1999  1  0.654800  0.748000  0.767000  1
  C  C2000  1  0.845200  0.252000  0.267000  1
  C  C2001  1  0.038300  0.579700  0.039400  1
  C  C2002  1  0.461700  0.420300  0.539400  1
  C  C2003  1  0.538300  0.920300  0.960600  1
  C  C2004  1  0.961700  0.079700  0.460600  1
  C  C2005  1  0.683700  0.226000  0.765600  1
  C  C2006  1  0.816300  0.774000  0.265600  1
  C  C2007  1  0.183700  0.274000  0.234400  1
  C  C2008  1  0.316300  0.726000  0.734400  1
  C  C2009  1  0.829900  0.208600  0.731500  1
  C  C2010  1  0.670100  0.791400  0.231500  1
  C  C2011  1  0.329900  0.291400  0.268500  1
  C  C2012  1  0.170100  0.708600  0.768500  1
  C  C2013  1  0.629200  0.368100  0.667500  1
  C  C2014  1  0.870800  0.631900  0.167500  1
  C  C2015  1  0.129200  0.131900  0.332500  1
  C  C2016  1  0.370800  0.868100  0.832500  1
  C  C2017  1  0.527300  0.433200  0.660500  1
  C  C2018  1  0.972700  0.566800  0.160500  1
  C  C2019  1  0.027300  0.066800  0.339500  1
  C  C2020  1  0.472700  0.933200  0.839500  1
  N  N2021  1  0.788600  0.495700  0.959400  1
  N  N2022  1  0.711400  0.504300  0.459400  1
  N  N2023  1  0.288600  0.004300  0.040600  1
  N  N2024  1  0.211400  0.995700  0.540600  1
  N  N2025  1  0.742700  0.443200  0.015200  1
  N  N2026  1  0.757300  0.556800  0.515200  1
  N  N2027  1  0.242700  0.056800  0.984800  1
  N  N2028  1  0.257300  0.943200  0.484800  1
  N  N2029  1  0.773100  0.551100  0.040900  1
  N  N2030  1  0.726900  0.448900  0.540900  1
  N  N2031  1  0.273100  0.948900  0.959100  1
  N  N2032  1  0.226900  0.051100  0.459100  1
  N  N2033  1  0.723700  0.588500  0.978200  1
  N  N2034  1  0.776300  0.411500  0.478200  1
  N  N2035  1  0.223700  0.911500  0.021800  1
  N  N2036  1  0.276300  0.088500  0.521800  1
  N  N2037  1  0.462900  0.738100  0.073200  1
  N  N2038  1  0.037100  0.261900  0.573200  1
  N  N2039  1  0.962900  0.761900  0.926800  1
  N  N2040  1  0.537100  0.238100  0.426800  1
  N  N2041  1  0.556200  0.698000  0.055300  1
  N  N2042  1  0.943800  0.302000  0.555300  1
  N  N2043  1  0.056200  0.802000  0.944700  1
  N  N2044  1  0.443800  0.198000  0.444700  1
  N  N2045  1  0.522900  0.679600  0.143600  1
  N  N2046  1  0.977100  0.320400  0.643600  1
  N  N2047  1  0.022900  0.820400  0.856400  1
  N  N2048  1  0.477100  0.179600  0.356400  1
  N  N2049  1  0.428700  0.644800  0.122800  1
  N  N2050  1  0.071300  0.355200  0.622800  1
  N  N2051  1  0.928700  0.855200  0.877200  1
  N  N2052  1  0.571300  0.144800  0.377200  1
  N  N2053  1  0.227400  0.433600  0.999300  1
  N  N2054  1  0.272600  0.566400  0.499300  1
  N  N2055  1  0.727400  0.066400  0.000700  1
  N  N2056  1  0.772600  0.933600  0.500700  1
  N  N2057  1  0.274900  0.483700  0.946690  1
  N  N2058  1  0.225100  0.516300  0.446690  1
  N  N2059  1  0.774900  0.016300  0.053310  1
  N  N2060  1  0.725100  0.983700  0.553310  1
  N  N2061  1  0.220600  0.538900  0.004600  1
  N  N2062  1  0.279400  0.461100  0.504600  1
  N  N2063  1  0.720600  0.961100  0.995400  1
  N  N2064  1  0.779400  0.038900  0.495400  1
  N  N2065  1  0.271600  0.494800  0.058970  1
  N  N2066  1  0.228400  0.505200  0.558970  1
  N  N2067  1  0.771600  0.005200  0.941030  1
  N  N2068  1  0.728400  0.994800  0.441030  1
  N  N2069  1  0.536700  0.325600  0.857300  1
  N  N2070  1  0.963300  0.674400  0.357300  1
  N  N2071  1  0.036700  0.174400  0.142700  1
  N  N2072  1  0.463300  0.825600  0.642700  1
  N  N2073  1  0.439800  0.345600  0.882700  1
  N  N2074  1  0.060200  0.654400  0.382700  1
  N  N2075  1  0.939800  0.154400  0.117300  1
  N  N2076  1  0.560200  0.845600  0.617300  1
  N  N2077  1  0.498300  0.262300  0.932400  1
  N  N2078  1  0.001700  0.737700  0.432400  1
  N  N2079  1  0.998300  0.237700  0.067600  1
  N  N2080  1  0.501700  0.762300  0.567600  1
  N  N2081  1  0.583800  0.318200  0.944100  1
  N  N2082  1  0.916200  0.681800  0.444100  1
  N  N2083  1  0.083800  0.181800  0.055900  1
  N  N2084  1  0.416200  0.818200  0.555900  1
  N  N2085  1  0.430100  0.650300  0.844700  1
  N  N2086  1  0.069900  0.349700  0.344700  1
  N  N2087  1  0.930100  0.849700  0.155300  1
  N  N2088  1  0.569900  0.150300  0.655300  1
  N  N2089  1  0.442600  0.558300  0.838900  1
  N  N2090  1  0.057400  0.441700  0.338900  1
  N  N2091  1  0.942600  0.941700  0.161100  1
  N  N2092  1  0.557400  0.058300  0.661100  1
  N  N2093  1  0.532000  0.613900  0.821400  1
  N  N2094  1  0.968000  0.386100  0.321400  1
  N  N2095  1  0.032000  0.886100  0.178600  1
  N  N2096  1  0.468000  0.113900  0.678600  1
  N  N2097  1  0.526300  0.656700  0.888900  1
  N  N2098  1  0.973700  0.343300  0.388900  1
  N  N2099  1  0.026300  0.843300  0.111100  1
  N  N2100  1  0.473700  0.156700  0.611100  1
  N  N2101  1  0.554700  0.392100  0.179400  1
  N  N2102  1  0.945300  0.607900  0.679400  1
  N  N2103  1  0.054700  0.107900  0.820600  1
  N  N2104  1  0.445300  0.892100  0.320600  1
  N  N2105  1  0.548100  0.349100  0.112500  1
  N  N2106  1  0.951900  0.650900  0.612500  1
  N  N2107  1  0.048100  0.150900  0.887500  1
  N  N2108  1  0.451900  0.849100  0.387500  1
  N  N2109  1  0.454400  0.347300  0.159800  1
  N  N2110  1  0.045600  0.652700  0.659800  1
  N  N2111  1  0.954400  0.152700  0.840200  1
  N  N2112  1  0.545600  0.847300  0.340200  1
  N  N2113  1  0.457900  0.440300  0.164400  1
  N  N2114  1  0.042100  0.559700  0.664400  1
  N  N2115  1  0.957900  0.059700  0.835600  1
  N  N2116  1  0.542100  0.940300  0.335600  1
  N  N2117  1  0.667600  0.522300  0.041700  1
  N  N2118  1  0.832400  0.477700  0.541700  1
  N  N2119  1  0.167600  0.977700  0.958300  1
  N  N2120  1  0.332400  0.022300  0.458300  1
  N  N2121  1  0.532600  0.600100  0.092600  1
  N  N2122  1  0.967400  0.399900  0.592600  1
  N  N2123  1  0.032600  0.899900  0.907400  1
  N  N2124  1  0.467400  0.100100  0.407400  1
  N  N2125  1  0.546300  0.445400  0.117600  1
  N  N2126  1  0.953700  0.554600  0.617600  1
  N  N2127  1  0.046300  0.054600  0.882400  1
  N  N2128  1  0.453700  0.945400  0.382400  1
  N  N2129  1  0.575100  0.551100  0.205500  1
  N  N2130  1  0.924900  0.448900  0.705500  1
  N  N2131  1  0.075100  0.948900  0.794500  1
  N  N2132  1  0.424900  0.051100  0.294500  1
  N  N2133  1  0.706100  0.460300  0.148300  1
  N  N2134  1  0.793900  0.539700  0.648300  1
  N  N2135  1  0.206100  0.039700  0.851700  1
  N  N2136  1  0.293900  0.960300  0.351700  1
  N  N2137  1  0.690600  0.621900  0.131900  1
  N  N2138  1  0.809400  0.378100  0.631900  1
  N  N2139  1  0.190600  0.878100  0.868100  1
  N  N2140  1  0.309400  0.121900  0.368100  1
  N  N2141  1  0.449100  0.647900  0.036000  1
  N  N2142  1  0.050900  0.352100  0.536000  1
  N  N2143  1  0.949100  0.852100  0.964000  1
  N  N2144  1  0.550900  0.147900  0.464000  1
  N  N2145  1  0.322600  0.542200  0.001100  1
  N  N2146  1  0.177400  0.457800  0.501100  1
  N  N2147  1  0.822600  0.957800  0.998900  1
  N  N2148  1  0.677400  0.042200  0.498900  1
  N  N2149  1  0.439100  0.602000  0.910400  1
  N  N2150  1  0.060900  0.398000  0.410400  1
  N  N2151  1  0.939100  0.898000  0.089600  1
  N  N2152  1  0.560900  0.102000  0.589600  1
  N  N2153  1  0.282000  0.634200  0.906900  1
  N  N2154  1  0.218000  0.365800  0.406900  1
  N  N2155  1  0.782000  0.865800  0.093100  1
  N  N2156  1  0.718000  0.134200  0.593100  1
  N  N2157  1  0.402200  0.740600  0.949400  1
  N  N2158  1  0.097800  0.259400  0.449400  1
  N  N2159  1  0.902200  0.759400  0.050600  1
  N  N2160  1  0.597800  0.240600  0.550600  1
  N  N2161  1  0.285900  0.685000  0.031500  1
  N  N2162  1  0.214100  0.315000  0.531500  1
  N  N2163  1  0.785900  0.815000  0.968500  1
  N  N2164  1  0.714100  0.185000  0.468500  1
  N  N2165  1  0.329200  0.441100  0.006000  1
  N  N2166  1  0.170800  0.558900  0.506000  1
  N  N2167  1  0.829200  0.058900  0.994000  1
  N  N2168  1  0.670800  0.941100  0.494000  1
  N  N2169  1  0.470000  0.349300  0.968900  1
  N  N2170  1  0.030000  0.650700  0.468900  1
  N  N2171  1  0.970000  0.150700  0.031100  1
  N  N2172  1  0.530000  0.849300  0.531100  1
  N  N2173  1  0.456200  0.396100  0.092870  1
  N  N2174  1  0.043800  0.603900  0.592870  1
  N  N2175  1  0.956200  0.103900  0.907130  1
  N  N2176  1  0.543800  0.896100  0.407130  1
  N  N2177  1  0.437400  0.255100  0.058500  1
  N  N2178  1  0.062600  0.744900  0.558500  1
  N  N2179  1  0.937400  0.244900  0.941500  1
  N  N2180  1  0.562600  0.755100  0.441500  1
  N  N2181  1  0.301400  0.348100  0.098500  1
  N  N2182  1  0.198600  0.651900  0.598500  1
  N  N2183  1  0.801400  0.151900  0.901500  1
  N  N2184  1  0.698600  0.848100  0.401500  1
  N  N2185  1  0.317500  0.290400  0.973200  1
  N  N2186  1  0.182500  0.709600  0.473200  1
  N  N2187  1  0.817500  0.209600  0.026800  1
  N  N2188  1  0.682500  0.790400  0.526800  1
  N  N2189  1  0.671100  0.495900  0.952500  1
  N  N2190  1  0.828900  0.504100  0.452500  1
  N  N2191  1  0.171100  0.004100  0.047500  1
  N  N2192  1  0.328900  0.995900  0.547500  1
  N  N2193  1  0.536900  0.407200  0.907500  1
  N  N2194  1  0.963100  0.592800  0.407500  1
  N  N2195  1  0.036900  0.092800  0.092500  1
  N  N2196  1  0.463100  0.907200  0.592500  1
  N  N2197  1  0.532400  0.559800  0.883200  1
  N  N2198  1  0.967600  0.440200  0.383200  1
  N  N2199  1  0.032400  0.940200  0.116800  1
  N  N2200  1  0.467600  0.059800  0.616800  1
  N  N2201  1  0.563300  0.457900  0.795600  1
  N  N2202  1  0.936700  0.542100  0.295600  1
  N  N2203  1  0.063300  0.042100  0.204400  1
  N  N2204  1  0.436700  0.957900  0.704400  1
  N  N2205  1  0.682900  0.563300  0.842900  1
  N  N2206  1  0.817100  0.436700  0.342900  1
  N  N2207  1  0.182900  0.936700  0.157100  1
  N  N2208  1  0.317100  0.063300  0.657100  1
  N  N2209  1  0.698800  0.400600  0.861100  1
  N  N2210  1  0.801200  0.599400  0.361100  1
  N  N2211  1  0.198800  0.099400  0.138900  1
  N  N2212  1  0.301200  0.900600  0.638900  1
  N  N2213  1  0.499000  0.501000  0.000900  1
  N  N2214  1  0.001000  0.499000  0.500900  1
  N  N2215  1  0.999000  0.999000  0.999100  1
  N  N2216  1  0.501000  0.001000  0.499100  1
  N  N2217  1  0.749800  0.460500  0.751500  1
  N  N2218  1  0.750200  0.539500  0.251500  1
  N  N2219  1  0.249800  0.039500  0.248500  1
  N  N2220  1  0.250200  0.960500  0.748500  1
  O  O2221  1  0.744600  0.373100  0.166400  1
  O  O2222  1  0.755400  0.626900  0.666400  1
  O  O2223  1  0.244600  0.126900  0.833600  1
  O  O2224  1  0.255400  0.873100  0.333600  1
  O  O2225  1  0.266800  0.636300  0.825900  1
  O  O2226  1  0.233200  0.363700  0.325900  1
  O  O2227  1  0.766800  0.863700  0.174100  1
  O  O2228  1  0.733200  0.136300  0.674100  1
  O  O2229  1  0.308400  0.791600  0.929300  1
  O  O2230  1  0.191600  0.208400  0.429300  1
  O  O2231  1  0.808400  0.708400  0.070700  1
  O  O2232  1  0.691600  0.291600  0.570700  1
  O  O2233  1  0.456400  0.826500  0.955300  1
  O  O2234  1  0.043600  0.173500  0.455300  1
  O  O2235  1  0.956400  0.673500  0.044700  1
  O  O2236  1  0.543600  0.326500  0.544700  1
  O  O2237  1  0.207100  0.704800  0.083000  1
  O  O2238  1  0.292900  0.295200  0.583000  1
  O  O2239  1  0.707100  0.795200  0.917000  1
  O  O2240  1  0.792900  0.204800  0.417000  1
  O  O2241  1  0.358100  0.185700  0.065300  1
  O  O2242  1  0.141900  0.814300  0.565300  1
  O  O2243  1  0.858100  0.314300  0.934700  1
  O  O2244  1  0.641900  0.685700  0.434700  1
  O  O2245  1  0.512300  0.181000  0.050100  1
  O  O2246  1  0.987700  0.819000  0.550100  1
  O  O2247  1  0.012300  0.319000  0.949900  1
  O  O2248  1  0.487700  0.681000  0.449900  1
  O  O2249  1  0.287100  0.360400  0.178400  1
  O  O2250  1  0.212900  0.639600  0.678400  1
  O  O2251  1  0.787100  0.139600  0.821600  1
  O  O2252  1  0.712900  0.860400  0.321600  1
  O  O2253  1  0.250800  0.256200  0.918800  1
  O  O2254  1  0.249200  0.743800  0.418800  1
  O  O2255  1  0.750800  0.243800  0.081200  1
  O  O2256  1  0.749200  0.756200  0.581200  1
  O  O2257  1  0.713400  0.655100  0.831800  1
  O  O2258  1  0.786600  0.344900  0.331800  1
  O  O2259  1  0.213400  0.844900  0.168200  1
  O  O2260  1  0.286600  0.155100  0.668200  1
  O  O2261  1  0.788200  0.355200  0.837300  1
  O  O2262  1  0.711800  0.644800  0.337300  1
  O  O2263  1  0.288200  0.144800  0.162700  1
  O  O2264  1  0.211800  0.855200  0.662700  1
  O  O2265  1  0.511700  0.602800  0.257700  1
  O  O2266  1  0.988300  0.397200  0.757700  1
  O  O2267  1  0.011700  0.897200  0.742300  1
  O  O2268  1  0.488300  0.102800  0.242300  1
  O  O2269  1  0.773400  0.683700  0.142300  1
  O  O2270  1  0.726600  0.316300  0.642300  1
  O  O2271  1  0.273400  0.816300  0.857700  1
  O  O2272  1  0.226600  0.183700  0.357700  1
  O  O2273  1  0.505500  0.405700  0.742200  1
  O  O2274  1  0.994500  0.594300  0.242200  1
  O  O2275  1  0.005500  0.094300  0.257800  1
  O  O2276  1  0.494500  0.905700  0.757800  1
  O  O2277  1  0.152000  0.799600  0.232000  1
  O  O2278  1  0.348000  0.200400  0.732000  1
  O  O2279  1  0.652000  0.700400  0.768000  1
  O  O2280  1  0.848000  0.299600  0.268000  1
  O  O2281  1  0.048000  0.628000  0.033800  1
  O  O2282  1  0.452000  0.372000  0.533800  1
  O  O2283  1  0.548000  0.872000  0.966200  1
  O  O2284  1  0.952000  0.128000  0.466200  1
  O  O2285  1  0.680300  0.185400  0.741000  1
  O  O2286  1  0.819700  0.814600  0.241000  1
  O  O2287  1  0.180300  0.314600  0.259000  1
  O  O2288  1  0.319700  0.685400  0.759000  1
  O  O2289  1  0.837100  0.177200  0.759000  1
  O  O2290  1  0.662900  0.822800  0.259000  1
  O  O2291  1  0.337100  0.322800  0.241000  1
  O  O2292  1  0.162900  0.677200  0.741000  1
  O  O2293  1  0.616100  0.345900  0.703100  1
  O  O2294  1  0.883900  0.654100  0.203100  1
  O  O2295  1  0.116100  0.154100  0.296900  1
  O  O2296  1  0.383900  0.845900  0.796900  1
  O  O2297  1  0.545800  0.479500  0.644700  1
  O  O2298  1  0.954200  0.520500  0.144700  1
  O  O2299  1  0.045800  0.020500  0.355300  1
  O  O2300  1  0.454200  0.979500  0.855300  1
  O  O2301  1  0.126000  0.600100  0.218600  1
  O  O2302  1  0.374000  0.399900  0.718600  1
  O  O2303  1  0.626000  0.899900  0.781400  1
  O  O2304  1  0.874000  0.100100  0.281400  1
  O  O2305  1  0.095600  0.576400  0.149700  1
  O  O2306  1  0.404400  0.423600  0.649700  1
  O  O2307  1  0.595600  0.923600  0.850300  1
  O  O2308  1  0.904400  0.076400  0.350300  1
  O  O2309  1  0.136400  0.630300  0.085900  1
  O  O2310  1  0.363600  0.369700  0.585900  1
  O  O2311  1  0.636400  0.869700  0.914100  1
  O  O2312  1  0.863600  0.130300  0.414100  1
  O  O2313  1  0.759800  0.229000  0.695600  1
  O  O2314  1  0.740200  0.771000  0.195600  1
  O  O2315  1  0.259800  0.271000  0.304400  1
  O  O2316  1  0.240200  0.729000  0.804400  1
  O  O2317  1  0.696000  0.313000  0.216400  1
  O  O2318  1  0.804000  0.687000  0.716400  1
  O  O2319  1  0.196000  0.187000  0.783600  1
  O  O2320  1  0.304000  0.813000  0.283600  1
  O  O2321  1  0.691200  0.176300  0.114900  1
  O  O2322  1  0.808800  0.823700  0.614900  1
  O  O2323  1  0.191200  0.323700  0.885100  1
  O  O2324  1  0.308800  0.676300  0.385100  1
  O  O2325  1  0.619200  0.163300  0.054100  1
  O  O2326  1  0.880800  0.836700  0.554100  1
  O  O2327  1  0.119200  0.336700  0.945900  1
  O  O2328  1  0.380800  0.663300  0.445900  1
  O  O2329  1  0.597000  0.086500  0.200200  1
  O  O2330  1  0.903000  0.913500  0.700200  1
  O  O2331  1  0.097000  0.413500  0.799800  1
  O  O2332  1  0.403000  0.586500  0.299800  1
  O  O2333  1  0.373400  0.113800  0.118100  1
  O  O2334  1  0.126600  0.886200  0.618100  1
  O  O2335  1  0.873400  0.386200  0.881900  1
  O  O2336  1  0.626600  0.613800  0.381900  1
  F  F2337  1  0.222400  0.569200  0.274700  1
  F  F2338  1  0.277600  0.430800  0.774700  1
  F  F2339  1  0.722400  0.930800  0.725300  1
  F  F2340  1  0.777600  0.069200  0.225300  1
  F  F2341  1  0.275900  0.558500  0.224000  1
  F  F2342  1  0.224100  0.441500  0.724000  1
  F  F2343  1  0.775900  0.941500  0.776000  1
  F  F2344  1  0.724100  0.058500  0.276000  1
  F  F2345  1  0.290300  0.511600  0.275000  1
  F  F2346  1  0.209700  0.488400  0.775000  1
  F  F2347  1  0.790300  0.988400  0.725000  1
  F  F2348  1  0.709700  0.011600  0.225000  1
  F  F2349  1  0.225700  0.498400  0.238400  1
  F  F2350  1  0.274300  0.501600  0.738400  1
  F  F2351  1  0.725700  0.001600  0.761600  1
  F  F2352  1  0.774300  0.998400  0.261600  1
