# generated using pymatgen
data_Fe4Co6BH208C217N50(O4F)4
_symmetry_space_group_name_H-M   'P 1'
_cell_length_a   22.95900000
_cell_length_b   29.15000000
_cell_length_c   34.11300000
_cell_angle_alpha   90.00000000
_cell_angle_beta   90.00000000
_cell_angle_gamma   90.00000000
_symmetry_Int_Tables_number   1
_chemical_formula_structural   Fe4Co6BH208C217N50(O4F)4
_chemical_formula_sum   'Fe16 Co24 B4 H832 C868 N200 O64 F16'
_cell_volume   22830.29069805
_cell_formula_units_Z   4
loop_
 _symmetry_equiv_pos_site_id
 _symmetry_equiv_pos_as_xyz
  1  'x, y, z'
loop_
 _atom_site_type_symbol
 _atom_site_label
 _atom_site_symmetry_multiplicity
 _atom_site_fract_x
 _atom_site_fract_y
 _atom_site_fract_z
 _atom_site_occupancy
  Fe  Fe1  1  0.562120  0.983330  0.642420  1
  Fe  Fe2  1  0.937880  0.016670  0.142420  1
  Fe  Fe3  1  0.062120  0.516670  0.357580  1
  Fe  Fe4  1  0.437880  0.483330  0.857580  1
  Fe  Fe5  1  0.400150  0.172510  0.476530  1
  Fe  Fe6  1  0.099850  0.827490  0.976530  1
  Fe  Fe7  1  0.900150  0.327490  0.523470  1
  Fe  Fe8  1  0.599850  0.672510  0.023470  1
  Fe  Fe9  1  0.346640  0.879020  0.464640  1
  Fe  Fe10  1  0.153360  0.120980  0.964640  1
  Fe  Fe11  1  0.846640  0.620980  0.535360  1
  Fe  Fe12  1  0.653360  0.379020  0.035360  1
  Fe  Fe13  1  0.686900  0.991150  0.403870  1
  Fe  Fe14  1  0.813100  0.008850  0.903870  1
  Fe  Fe15  1  0.186900  0.508850  0.596130  1
  Fe  Fe16  1  0.313100  0.491150  0.096130  1
  Co  Co17  1  0.732140  0.972600  0.549430  1
  Co  Co18  1  0.767860  0.027400  0.049430  1
  Co  Co19  1  0.232140  0.527400  0.450570  1
  Co  Co20  1  0.267860  0.472600  0.950570  1
  Co  Co21  1  0.469800  0.133640  0.613430  1
  Co  Co22  1  0.030200  0.866360  0.113430  1
  Co  Co23  1  0.969800  0.366360  0.386570  1
  Co  Co24  1  0.530200  0.633640  0.886570  1
  Co  Co25  1  0.272370  0.037070  0.442020  1
  Co  Co26  1  0.227630  0.962930  0.942020  1
  Co  Co27  1  0.772370  0.462930  0.557980  1
  Co  Co28  1  0.727630  0.537070  0.057980  1
  Co  Co29  1  0.531880  0.869140  0.388470  1
  Co  Co30  1  0.968120  0.130860  0.888470  1
  Co  Co31  1  0.031880  0.630860  0.611530  1
  Co  Co32  1  0.468120  0.369140  0.111530  1
  Co  Co33  1  0.576080  0.139710  0.391700  1
  Co  Co34  1  0.923920  0.860290  0.891700  1
  Co  Co35  1  0.076080  0.360290  0.608300  1
  Co  Co36  1  0.423920  0.639710  0.108300  1
  Co  Co37  1  0.418940  0.875770  0.597940  1
  Co  Co38  1  0.081060  0.124230  0.097940  1
  Co  Co39  1  0.918940  0.624230  0.402060  1
  Co  Co40  1  0.581060  0.375770  0.902060  1
  B  B41  1  0.126100  0.960000  0.694100  1
  B  B42  1  0.373900  0.040000  0.194100  1
  B  B43  1  0.626100  0.540000  0.305900  1
  B  B44  1  0.873900  0.460000  0.805900  1
  H  H45  1  0.866000  0.069900  0.493300  1
  H  H46  1  0.634000  0.930100  0.993300  1
  H  H47  1  0.366000  0.430100  0.506700  1
  H  H48  1  0.134000  0.569900  0.006700  1
  H  H49  1  0.927700  0.113800  0.531900  1
  H  H50  1  0.572300  0.886200  0.031900  1
  H  H51  1  0.427700  0.386200  0.468100  1
  H  H52  1  0.072300  0.613800  0.968100  1
  H  H53  1  0.981700  0.079300  0.581300  1
  H  H54  1  0.518300  0.920700  0.081300  1
  H  H55  1  0.481700  0.420700  0.418700  1
  H  H56  1  0.018300  0.579300  0.918700  1
  H  H57  1  0.973900  0.001000  0.592100  1
  H  H58  1  0.526100  0.999000  0.092100  1
  H  H59  1  0.473900  0.499000  0.407900  1
  H  H60  1  0.026100  0.501000  0.907900  1
  H  H61  1  0.912200  0.957100  0.553500  1
  H  H62  1  0.587800  0.042900  0.053500  1
  H  H63  1  0.412200  0.542900  0.446500  1
  H  H64  1  0.087800  0.457100  0.946500  1
  H  H65  1  0.816800  0.004200  0.484500  1
  H  H66  1  0.683200  0.995800  0.984500  1
  H  H67  1  0.316800  0.495800  0.515500  1
  H  H68  1  0.183200  0.504200  0.015500  1
  H  H69  1  0.861300  0.949000  0.442000  1
  H  H70  1  0.638700  0.051000  0.942000  1
  H  H71  1  0.361300  0.551000  0.558000  1
  H  H72  1  0.138700  0.449000  0.058000  1
  H  H73  1  0.916300  0.949200  0.469200  1
  H  H74  1  0.583700  0.050800  0.969200  1
  H  H75  1  0.416300  0.550800  0.530800  1
  H  H76  1  0.083700  0.449200  0.030800  1
  H  H77  1  0.898700  0.993700  0.446300  1
  H  H78  1  0.601300  0.006300  0.946300  1
  H  H79  1  0.398700  0.506300  0.553700  1
  H  H80  1  0.101300  0.493700  0.053700  1
  H  H81  1  0.844800  0.899100  0.502800  1
  H  H82  1  0.655200  0.100900  0.002800  1
  H  H83  1  0.344800  0.600900  0.497200  1
  H  H84  1  0.155200  0.399100  0.997200  1
  H  H85  1  0.811500  0.814100  0.521700  1
  H  H86  1  0.688500  0.185900  0.021700  1
  H  H87  1  0.311500  0.685900  0.478300  1
  H  H88  1  0.188500  0.314100  0.978300  1
  H  H89  1  0.746500  0.772900  0.560100  1
  H  H90  1  0.753500  0.227100  0.060100  1
  H  H91  1  0.246500  0.727100  0.439900  1
  H  H92  1  0.253500  0.272900  0.939900  1
  H  H93  1  0.672200  0.810700  0.593000  1
  H  H94  1  0.827800  0.189300  0.093000  1
  H  H95  1  0.172200  0.689300  0.407000  1
  H  H96  1  0.327800  0.310700  0.907000  1
  H  H97  1  0.662900  0.889700  0.587500  1
  H  H98  1  0.837100  0.110300  0.087500  1
  H  H99  1  0.162900  0.610300  0.412500  1
  H  H100  1  0.337100  0.389700  0.912500  1
  H  H101  1  0.849500  0.875500  0.603200  1
  H  H102  1  0.650500  0.124500  0.103200  1
  H  H103  1  0.349500  0.624500  0.396800  1
  H  H104  1  0.150500  0.375500  0.896800  1
  H  H105  1  0.946400  0.854700  0.610800  1
  H  H106  1  0.553600  0.145300  0.110800  1
  H  H107  1  0.446400  0.645300  0.389200  1
  H  H108  1  0.053600  0.354700  0.889200  1
  H  H109  1  0.008300  0.900100  0.648100  1
  H  H110  1  0.491700  0.099900  0.148100  1
  H  H111  1  0.508300  0.599900  0.351900  1
  H  H112  1  0.991700  0.400100  0.851900  1
  H  H113  1  0.973300  0.966200  0.677700  1
  H  H114  1  0.526700  0.033800  0.177700  1
  H  H115  1  0.473300  0.533800  0.322300  1
  H  H116  1  0.026700  0.466200  0.822300  1
  H  H117  1  0.876400  0.987000  0.670100  1
  H  H118  1  0.623600  0.013000  0.170100  1
  H  H119  1  0.376400  0.513000  0.329900  1
  H  H120  1  0.123600  0.487000  0.829900  1
  H  H121  1  0.769800  0.915500  0.621000  1
  H  H122  1  0.730200  0.084500  0.121000  1
  H  H123  1  0.269800  0.584500  0.379000  1
  H  H124  1  0.230200  0.415500  0.879000  1
  H  H125  1  0.774600  0.930700  0.689100  1
  H  H126  1  0.725400  0.069300  0.189100  1
  H  H127  1  0.274600  0.569300  0.310900  1
  H  H128  1  0.225400  0.430700  0.810900  1
  H  H129  1  0.722300  0.955300  0.668400  1
  H  H130  1  0.777700  0.044700  0.168400  1
  H  H131  1  0.222300  0.544700  0.331600  1
  H  H132  1  0.277700  0.455300  0.831600  1
  H  H133  1  0.778500  0.983100  0.679100  1
  H  H134  1  0.721500  0.016900  0.179100  1
  H  H135  1  0.278500  0.516900  0.320900  1
  H  H136  1  0.221500  0.483100  0.820900  1
  H  H137  1  0.819300  0.025100  0.632800  1
  H  H138  1  0.680700  0.974900  0.132800  1
  H  H139  1  0.319300  0.474900  0.367200  1
  H  H140  1  0.180700  0.525100  0.867200  1
  H  H141  1  0.820400  0.104900  0.612700  1
  H  H142  1  0.679600  0.895100  0.112700  1
  H  H143  1  0.320400  0.395100  0.387300  1
  H  H144  1  0.179600  0.604900  0.887300  1
  H  H145  1  0.802900  0.160400  0.565400  1
  H  H146  1  0.697100  0.839600  0.065400  1
  H  H147  1  0.302900  0.339600  0.434600  1
  H  H148  1  0.197100  0.660400  0.934600  1
  H  H149  1  0.753000  0.141300  0.508500  1
  H  H150  1  0.747000  0.858700  0.008500  1
  H  H151  1  0.253000  0.358700  0.491500  1
  H  H152  1  0.247000  0.641300  0.991500  1
  H  H153  1  0.720600  0.066800  0.499000  1
  H  H154  1  0.779400  0.933200  0.999000  1
  H  H155  1  0.220600  0.433200  0.501000  1
  H  H156  1  0.279400  0.566800  0.001000  1
  H  H157  1  0.309500  0.202200  0.639200  1
  H  H158  1  0.190500  0.797800  0.139200  1
  H  H159  1  0.809500  0.297800  0.360800  1
  H  H160  1  0.690500  0.702200  0.860800  1
  H  H161  1  0.267800  0.213800  0.700300  1
  H  H162  1  0.232200  0.786200  0.200300  1
  H  H163  1  0.767800  0.286200  0.299700  1
  H  H164  1  0.732200  0.713800  0.799700  1
  H  H165  1  0.310700  0.264100  0.744400  1
  H  H166  1  0.189300  0.735900  0.244400  1
  H  H167  1  0.810700  0.235900  0.255600  1
  H  H168  1  0.689300  0.764100  0.755600  1
  H  H169  1  0.395300  0.302700  0.727400  1
  H  H170  1  0.104700  0.697300  0.227400  1
  H  H171  1  0.895300  0.197300  0.272600  1
  H  H172  1  0.604700  0.802700  0.772600  1
  H  H173  1  0.437100  0.291100  0.666200  1
  H  H174  1  0.062900  0.708900  0.166200  1
  H  H175  1  0.937100  0.208900  0.333800  1
  H  H176  1  0.562900  0.791100  0.833800  1
  H  H177  1  0.380700  0.210600  0.598400  1
  H  H178  1  0.119300  0.789400  0.098400  1
  H  H179  1  0.880700  0.289400  0.401600  1
  H  H180  1  0.619300  0.710600  0.901600  1
  H  H181  1  0.431700  0.297800  0.594100  1
  H  H182  1  0.068300  0.702200  0.094100  1
  H  H183  1  0.931700  0.202200  0.405900  1
  H  H184  1  0.568300  0.797800  0.905900  1
  H  H185  1  0.370600  0.284000  0.577300  1
  H  H186  1  0.129400  0.716000  0.077300  1
  H  H187  1  0.870600  0.216000  0.422700  1
  H  H188  1  0.629400  0.784000  0.922700  1
  H  H189  1  0.427500  0.264000  0.558500  1
  H  H190  1  0.072500  0.736000  0.058500  1
  H  H191  1  0.927500  0.236000  0.441500  1
  H  H192  1  0.572500  0.764000  0.941500  1
  H  H193  1  0.504500  0.256600  0.604900  1
  H  H194  1  0.995500  0.743400  0.104900  1
  H  H195  1  0.004500  0.243400  0.395100  1
  H  H196  1  0.495500  0.756600  0.895100  1
  H  H197  1  0.612600  0.259900  0.612000  1
  H  H198  1  0.887400  0.740100  0.112000  1
  H  H199  1  0.112600  0.240100  0.388000  1
  H  H200  1  0.387400  0.759900  0.888000  1
  H  H201  1  0.697900  0.217300  0.614800  1
  H  H202  1  0.802100  0.782700  0.114800  1
  H  H203  1  0.197900  0.282700  0.385200  1
  H  H204  1  0.302100  0.717300  0.885200  1
  H  H205  1  0.693700  0.137800  0.616300  1
  H  H206  1  0.806300  0.862200  0.116300  1
  H  H207  1  0.193700  0.362200  0.383700  1
  H  H208  1  0.306300  0.637800  0.883700  1
  H  H209  1  0.604200  0.100900  0.615000  1
  H  H210  1  0.895800  0.899100  0.115000  1
  H  H211  1  0.104200  0.399100  0.385000  1
  H  H212  1  0.395800  0.600900  0.885000  1
  H  H213  1  0.617800  0.140500  0.709700  1
  H  H214  1  0.882200  0.859500  0.209700  1
  H  H215  1  0.117800  0.359500  0.290300  1
  H  H216  1  0.382200  0.640500  0.790300  1
  H  H217  1  0.670600  0.207400  0.719400  1
  H  H218  1  0.829400  0.792600  0.219400  1
  H  H219  1  0.170600  0.292600  0.280600  1
  H  H220  1  0.329400  0.707400  0.780600  1
  H  H221  1  0.622900  0.277400  0.723700  1
  H  H222  1  0.877100  0.722600  0.223700  1
  H  H223  1  0.122900  0.222600  0.276300  1
  H  H224  1  0.377100  0.777400  0.776300  1
  H  H225  1  0.522200  0.280500  0.718100  1
  H  H226  1  0.977800  0.719500  0.218100  1
  H  H227  1  0.022200  0.219500  0.281900  1
  H  H228  1  0.477800  0.780500  0.781900  1
  H  H229  1  0.469400  0.213600  0.708400  1
  H  H230  1  0.030600  0.786400  0.208400  1
  H  H231  1  0.969400  0.286400  0.291600  1
  H  H232  1  0.530600  0.713600  0.791600  1
  H  H233  1  0.541000  0.103800  0.694800  1
  H  H234  1  0.959000  0.896200  0.194800  1
  H  H235  1  0.041000  0.396200  0.305200  1
  H  H236  1  0.459000  0.603800  0.805200  1
  H  H237  1  0.517700  0.101500  0.762000  1
  H  H238  1  0.982300  0.898500  0.262000  1
  H  H239  1  0.017700  0.398500  0.238000  1
  H  H240  1  0.482300  0.601500  0.738000  1
  H  H241  1  0.462500  0.083100  0.740000  1
  H  H242  1  0.037500  0.916900  0.240000  1
  H  H243  1  0.962500  0.416900  0.260000  1
  H  H244  1  0.537500  0.583100  0.760000  1
  H  H245  1  0.463600  0.133600  0.755700  1
  H  H246  1  0.036400  0.866400  0.255700  1
  H  H247  1  0.963600  0.366400  0.244300  1
  H  H248  1  0.536400  0.633600  0.744300  1
  H  H249  1  0.398700  0.107600  0.711700  1
  H  H250  1  0.101300  0.892400  0.211700  1
  H  H251  1  0.898700  0.392400  0.288300  1
  H  H252  1  0.601300  0.607600  0.788300  1
  H  H253  1  0.300100  0.100800  0.696900  1
  H  H254  1  0.199900  0.899200  0.196900  1
  H  H255  1  0.800100  0.399200  0.303100  1
  H  H256  1  0.699900  0.600800  0.803100  1
  H  H257  1  0.230500  0.089200  0.648600  1
  H  H258  1  0.269500  0.910800  0.148600  1
  H  H259  1  0.730500  0.410800  0.351400  1
  H  H260  1  0.769500  0.589200  0.851400  1
  H  H261  1  0.255900  0.095600  0.583000  1
  H  H262  1  0.244100  0.904400  0.083000  1
  H  H263  1  0.755900  0.404400  0.417000  1
  H  H264  1  0.744100  0.595600  0.917000  1
  H  H265  1  0.350900  0.113600  0.565700  1
  H  H266  1  0.149100  0.886400  0.065700  1
  H  H267  1  0.850900  0.386400  0.434300  1
  H  H268  1  0.649100  0.613600  0.934300  1
  H  H269  1  0.128600  0.932000  0.480200  1
  H  H270  1  0.371400  0.068000  0.980200  1
  H  H271  1  0.628600  0.568000  0.519800  1
  H  H272  1  0.871400  0.432000  0.019800  1
  H  H273  1  0.044200  0.957800  0.510300  1
  H  H274  1  0.455800  0.042200  0.010300  1
  H  H275  1  0.544200  0.542200  0.489700  1
  H  H276  1  0.955800  0.457800  0.989700  1
  H  H277  1  0.993700  0.019700  0.484200  1
  H  H278  1  0.506300  0.980300  0.984200  1
  H  H279  1  0.493700  0.480300  0.515800  1
  H  H280  1  0.006300  0.519700  0.015800  1
  H  H281  1  0.027800  0.055700  0.428100  1
  H  H282  1  0.472200  0.944300  0.928100  1
  H  H283  1  0.527800  0.444300  0.571900  1
  H  H284  1  0.972200  0.555700  0.071900  1
  H  H285  1  0.112300  0.029800  0.398000  1
  H  H286  1  0.387700  0.970200  0.898000  1
  H  H287  1  0.612300  0.470200  0.602000  1
  H  H288  1  0.887700  0.529800  0.102000  1
  H  H289  1  0.204200  0.941100  0.440800  1
  H  H290  1  0.295800  0.058900  0.940800  1
  H  H291  1  0.704200  0.558900  0.559200  1
  H  H292  1  0.795800  0.441100  0.059200  1
  H  H293  1  0.133600  0.937700  0.370600  1
  H  H294  1  0.366400  0.062300  0.870600  1
  H  H295  1  0.633600  0.562300  0.629400  1
  H  H296  1  0.866400  0.437700  0.129400  1
  H  H297  1  0.143800  0.896700  0.399600  1
  H  H298  1  0.356200  0.103300  0.899600  1
  H  H299  1  0.643800  0.603300  0.600400  1
  H  H300  1  0.856200  0.396700  0.100400  1
  H  H301  1  0.194000  0.912700  0.371600  1
  H  H302  1  0.306000  0.087300  0.871600  1
  H  H303  1  0.694000  0.587300  0.628400  1
  H  H304  1  0.806000  0.412700  0.128400  1
  H  H305  1  0.216500  0.979300  0.348500  1
  H  H306  1  0.283500  0.020700  0.848500  1
  H  H307  1  0.716500  0.520700  0.651500  1
  H  H308  1  0.783500  0.479300  0.151500  1
  H  H309  1  0.276100  0.014300  0.296200  1
  H  H310  1  0.223900  0.985700  0.796200  1
  H  H311  1  0.776100  0.485700  0.703800  1
  H  H312  1  0.723900  0.514300  0.203800  1
  H  H313  1  0.341100  0.072000  0.279700  1
  H  H314  1  0.158900  0.928000  0.779700  1
  H  H315  1  0.841100  0.428000  0.720300  1
  H  H316  1  0.658900  0.572000  0.220300  1
  H  H317  1  0.381300  0.117800  0.328400  1
  H  H318  1  0.118700  0.882200  0.828400  1
  H  H319  1  0.881300  0.382200  0.671600  1
  H  H320  1  0.618700  0.617800  0.171600  1
  H  H321  1  0.356400  0.105700  0.393500  1
  H  H322  1  0.143600  0.894300  0.893500  1
  H  H323  1  0.856400  0.394300  0.606500  1
  H  H324  1  0.643600  0.605700  0.106500  1
  H  H325  1  0.220800  0.130800  0.344100  1
  H  H326  1  0.279200  0.869200  0.844100  1
  H  H327  1  0.720800  0.369200  0.655900  1
  H  H328  1  0.779200  0.630800  0.155900  1
  H  H329  1  0.150300  0.125100  0.295600  1
  H  H330  1  0.349700  0.874900  0.795600  1
  H  H331  1  0.650300  0.374900  0.704400  1
  H  H332  1  0.849700  0.625100  0.204400  1
  H  H333  1  0.052300  0.125700  0.312300  1
  H  H334  1  0.447700  0.874300  0.812300  1
  H  H335  1  0.552300  0.374300  0.687700  1
  H  H336  1  0.947700  0.625700  0.187700  1
  H  H337  1  0.024900  0.132100  0.377600  1
  H  H338  1  0.475100  0.867900  0.877600  1
  H  H339  1  0.524900  0.367900  0.622400  1
  H  H340  1  0.975100  0.632100  0.122400  1
  H  H341  1  0.095400  0.137800  0.426000  1
  H  H342  1  0.404600  0.862200  0.926000  1
  H  H343  1  0.595400  0.362200  0.574000  1
  H  H344  1  0.904600  0.637800  0.074000  1
  H  H345  1  0.247900  0.136700  0.407100  1
  H  H346  1  0.252100  0.863300  0.907100  1
  H  H347  1  0.747900  0.363300  0.592900  1
  H  H348  1  0.752100  0.636700  0.092900  1
  H  H349  1  0.169700  0.179900  0.454700  1
  H  H350  1  0.330300  0.820100  0.954700  1
  H  H351  1  0.669700  0.320100  0.545300  1
  H  H352  1  0.830300  0.679900  0.045300  1
  H  H353  1  0.210400  0.203200  0.423700  1
  H  H354  1  0.289600  0.796800  0.923700  1
  H  H355  1  0.710400  0.296800  0.576300  1
  H  H356  1  0.789600  0.703200  0.076300  1
  H  H357  1  0.237400  0.179600  0.460800  1
  H  H358  1  0.262600  0.820400  0.960800  1
  H  H359  1  0.737400  0.320400  0.539200  1
  H  H360  1  0.762600  0.679600  0.039200  1
  H  H361  1  0.155400  0.118900  0.482800  1
  H  H362  1  0.344600  0.881100  0.982800  1
  H  H363  1  0.655400  0.381100  0.517200  1
  H  H364  1  0.844600  0.618900  0.017200  1
  H  H365  1  0.123500  0.075800  0.543200  1
  H  H366  1  0.376500  0.924200  0.043200  1
  H  H367  1  0.623500  0.424200  0.456800  1
  H  H368  1  0.876500  0.575800  0.956800  1
  H  H369  1  0.137600  0.014200  0.585200  1
  H  H370  1  0.362400  0.985800  0.085200  1
  H  H371  1  0.637600  0.485800  0.414800  1
  H  H372  1  0.862400  0.514200  0.914800  1
  H  H373  1  0.207400  0.959200  0.570700  1
  H  H374  1  0.292600  0.040800  0.070700  1
  H  H375  1  0.707400  0.540800  0.429300  1
  H  H376  1  0.792600  0.459200  0.929300  1
  H  H377  1  0.263100  0.965800  0.514200  1
  H  H378  1  0.236900  0.034200  0.014200  1
  H  H379  1  0.763100  0.534200  0.485800  1
  H  H380  1  0.736900  0.465800  0.985800  1
  H  H381  1  0.667800  0.774200  0.380000  1
  H  H382  1  0.832200  0.225800  0.880000  1
  H  H383  1  0.167800  0.725800  0.620000  1
  H  H384  1  0.332200  0.274200  0.120000  1
  H  H385  1  0.666200  0.695900  0.367700  1
  H  H386  1  0.833800  0.304100  0.867700  1
  H  H387  1  0.166200  0.804100  0.632300  1
  H  H388  1  0.333800  0.195900  0.132300  1
  H  H389  1  0.643500  0.669000  0.305500  1
  H  H390  1  0.856500  0.331000  0.805500  1
  H  H391  1  0.143500  0.831000  0.694500  1
  H  H392  1  0.356500  0.169000  0.194500  1
  H  H393  1  0.622400  0.720500  0.255600  1
  H  H394  1  0.877600  0.279500  0.755600  1
  H  H395  1  0.122400  0.779500  0.744400  1
  H  H396  1  0.377600  0.220500  0.244400  1
  H  H397  1  0.624000  0.798700  0.267800  1
  H  H398  1  0.876000  0.201300  0.767800  1
  H  H399  1  0.124000  0.701300  0.732200  1
  H  H400  1  0.376000  0.298700  0.232200  1
  H  H401  1  0.664300  0.846000  0.362800  1
  H  H402  1  0.835700  0.154000  0.862800  1
  H  H403  1  0.164300  0.654000  0.637200  1
  H  H404  1  0.335700  0.346000  0.137200  1
  H  H405  1  0.677900  0.857700  0.280300  1
  H  H406  1  0.822100  0.142300  0.780300  1
  H  H407  1  0.177900  0.642300  0.719700  1
  H  H408  1  0.322100  0.357700  0.219700  1
  H  H409  1  0.728000  0.858100  0.311600  1
  H  H410  1  0.772000  0.141900  0.811600  1
  H  H411  1  0.228000  0.641900  0.688400  1
  H  H412  1  0.272000  0.358100  0.188400  1
  H  H413  1  0.684900  0.899700  0.308600  1
  H  H414  1  0.815100  0.100300  0.808600  1
  H  H415  1  0.184900  0.600300  0.691400  1
  H  H416  1  0.315100  0.399700  0.191400  1
  H  H417  1  0.587600  0.886100  0.282700  1
  H  H418  1  0.912400  0.113900  0.782700  1
  H  H419  1  0.087600  0.613900  0.717300  1
  H  H420  1  0.412400  0.386100  0.217300  1
  H  H421  1  0.511200  0.936900  0.256700  1
  H  H422  1  0.988800  0.063100  0.756700  1
  H  H423  1  0.011200  0.563100  0.743300  1
  H  H424  1  0.488800  0.436900  0.243300  1
  H  H425  1  0.419900  0.969900  0.264000  1
  H  H426  1  0.080100  0.030100  0.764000  1
  H  H427  1  0.919900  0.530100  0.736000  1
  H  H428  1  0.580100  0.469900  0.236000  1
  H  H429  1  0.370400  0.963200  0.323000  1
  H  H430  1  0.129600  0.036800  0.823000  1
  H  H431  1  0.870400  0.536800  0.677000  1
  H  H432  1  0.629600  0.463200  0.177000  1
  H  H433  1  0.412300  0.923400  0.374800  1
  H  H434  1  0.087700  0.076600  0.874800  1
  H  H435  1  0.912300  0.576600  0.625200  1
  H  H436  1  0.587700  0.423400  0.125200  1
  H  H437  1  0.362700  0.841100  0.312300  1
  H  H438  1  0.137300  0.158900  0.812300  1
  H  H439  1  0.862700  0.658900  0.687700  1
  H  H440  1  0.637300  0.341100  0.187700  1
  H  H441  1  0.370700  0.854000  0.245400  1
  H  H442  1  0.129300  0.146000  0.745400  1
  H  H443  1  0.870700  0.646000  0.754600  1
  H  H444  1  0.629300  0.354000  0.254600  1
  H  H445  1  0.449600  0.824700  0.211100  1
  H  H446  1  0.050400  0.175300  0.711100  1
  H  H447  1  0.949600  0.675300  0.788900  1
  H  H448  1  0.550400  0.324700  0.288900  1
  H  H449  1  0.520500  0.782600  0.243600  1
  H  H450  1  0.979500  0.217400  0.743600  1
  H  H451  1  0.020500  0.717400  0.756400  1
  H  H452  1  0.479500  0.282600  0.256400  1
  H  H453  1  0.512400  0.769800  0.310500  1
  H  H454  1  0.987600  0.230200  0.810500  1
  H  H455  1  0.012400  0.730200  0.689500  1
  H  H456  1  0.487600  0.269800  0.189500  1
  H  H457  1  0.407000  0.823800  0.370000  1
  H  H458  1  0.093000  0.176200  0.870000  1
  H  H459  1  0.907000  0.676200  0.630000  1
  H  H460  1  0.593000  0.323800  0.130000  1
  H  H461  1  0.405400  0.730700  0.351100  1
  H  H462  1  0.094600  0.269300  0.851100  1
  H  H463  1  0.905400  0.769300  0.648900  1
  H  H464  1  0.594600  0.230700  0.148900  1
  H  H465  1  0.356200  0.759800  0.371000  1
  H  H466  1  0.143800  0.240200  0.871000  1
  H  H467  1  0.856200  0.740200  0.629000  1
  H  H468  1  0.643800  0.259800  0.129000  1
  H  H469  1  0.409400  0.742600  0.395900  1
  H  H470  1  0.090600  0.257400  0.895900  1
  H  H471  1  0.909400  0.757400  0.604100  1
  H  H472  1  0.590600  0.242600  0.104100  1
  H  H473  1  0.492200  0.743600  0.404400  1
  H  H474  1  0.007800  0.256400  0.904400  1
  H  H475  1  0.992200  0.756400  0.595600  1
  H  H476  1  0.507800  0.243600  0.095600  1
  H  H477  1  0.574100  0.715700  0.444600  1
  H  H478  1  0.925900  0.284300  0.944600  1
  H  H479  1  0.074100  0.784300  0.555400  1
  H  H480  1  0.425900  0.215700  0.055400  1
  H  H481  1  0.661200  0.732100  0.476100  1
  H  H482  1  0.838800  0.267900  0.976100  1
  H  H483  1  0.161200  0.767900  0.523900  1
  H  H484  1  0.338800  0.232100  0.023900  1
  H  H485  1  0.699100  0.805800  0.474100  1
  H  H486  1  0.800900  0.194200  0.974100  1
  H  H487  1  0.199100  0.694200  0.525900  1
  H  H488  1  0.300900  0.305800  0.025900  1
  H  H489  1  0.649900  0.863100  0.440500  1
  H  H490  1  0.850100  0.136900  0.940500  1
  H  H491  1  0.149900  0.636900  0.559500  1
  H  H492  1  0.350100  0.363100  0.059500  1
  H  H493  1  0.571700  0.281100  0.448600  1
  H  H494  1  0.928300  0.718900  0.948600  1
  H  H495  1  0.071700  0.218900  0.551400  1
  H  H496  1  0.428300  0.781100  0.051400  1
  H  H497  1  0.660500  0.318100  0.456300  1
  H  H498  1  0.839500  0.681900  0.956300  1
  H  H499  1  0.160500  0.181900  0.543700  1
  H  H500  1  0.339500  0.818100  0.043700  1
  H  H501  1  0.721400  0.328300  0.402800  1
  H  H502  1  0.778600  0.671700  0.902800  1
  H  H503  1  0.221400  0.171700  0.597200  1
  H  H504  1  0.278600  0.828300  0.097200  1
  H  H505  1  0.693600  0.301600  0.341500  1
  H  H506  1  0.806400  0.698400  0.841500  1
  H  H507  1  0.193600  0.198400  0.658500  1
  H  H508  1  0.306400  0.801600  0.158500  1
  H  H509  1  0.604800  0.264700  0.333800  1
  H  H510  1  0.895200  0.735300  0.833800  1
  H  H511  1  0.104800  0.235300  0.666200  1
  H  H512  1  0.395200  0.764700  0.166200  1
  H  H513  1  0.506400  0.234600  0.413800  1
  H  H514  1  0.993600  0.765400  0.913800  1
  H  H515  1  0.006400  0.265400  0.586200  1
  H  H516  1  0.493600  0.734600  0.086200  1
  H  H517  1  0.467000  0.275200  0.339700  1
  H  H518  1  0.033000  0.724800  0.839700  1
  H  H519  1  0.967000  0.224800  0.660300  1
  H  H520  1  0.533000  0.775200  0.160300  1
  H  H521  1  0.479200  0.310500  0.373500  1
  H  H522  1  0.020800  0.689500  0.873500  1
  H  H523  1  0.979200  0.189500  0.626500  1
  H  H524  1  0.520800  0.810500  0.126500  1
  H  H525  1  0.430900  0.272900  0.378700  1
  H  H526  1  0.069100  0.727100  0.878700  1
  H  H527  1  0.930900  0.227100  0.621300  1
  H  H528  1  0.569100  0.772900  0.121300  1
  H  H529  1  0.480800  0.214900  0.319300  1
  H  H530  1  0.019200  0.785100  0.819300  1
  H  H531  1  0.980800  0.285100  0.680700  1
  H  H532  1  0.519200  0.714900  0.180700  1
  H  H533  1  0.470200  0.159500  0.264400  1
  H  H534  1  0.029800  0.840500  0.764400  1
  H  H535  1  0.970200  0.340500  0.735600  1
  H  H536  1  0.529800  0.659500  0.235600  1
  H  H537  1  0.476700  0.084400  0.242300  1
  H  H538  1  0.023300  0.915600  0.742300  1
  H  H539  1  0.976700  0.415600  0.757700  1
  H  H540  1  0.523300  0.584400  0.257700  1
  H  H541  1  0.523200  0.029400  0.280300  1
  H  H542  1  0.976800  0.970600  0.780300  1
  H  H543  1  0.023200  0.470600  0.719700  1
  H  H544  1  0.476800  0.529400  0.219700  1
  H  H545  1  0.563200  0.049600  0.340300  1
  H  H546  1  0.936800  0.950400  0.840300  1
  H  H547  1  0.063200  0.450400  0.659700  1
  H  H548  1  0.436800  0.549600  0.159700  1
  H  H549  1  0.651200  0.088100  0.271100  1
  H  H550  1  0.848800  0.911900  0.771100  1
  H  H551  1  0.151200  0.411900  0.728900  1
  H  H552  1  0.348800  0.588100  0.228900  1
  H  H553  1  0.616100  0.115700  0.211900  1
  H  H554  1  0.883900  0.884300  0.711900  1
  H  H555  1  0.116100  0.384300  0.788100  1
  H  H556  1  0.383900  0.615700  0.288100  1
  H  H557  1  0.607500  0.194100  0.201900  1
  H  H558  1  0.892500  0.805900  0.701900  1
  H  H559  1  0.107500  0.305900  0.798100  1
  H  H560  1  0.392500  0.694100  0.298100  1
  H  H561  1  0.634000  0.244900  0.251100  1
  H  H562  1  0.866000  0.755100  0.751100  1
  H  H563  1  0.134000  0.255100  0.748900  1
  H  H564  1  0.366000  0.744900  0.248900  1
  H  H565  1  0.669000  0.217300  0.310400  1
  H  H566  1  0.831000  0.782700  0.810400  1
  H  H567  1  0.169000  0.282700  0.689600  1
  H  H568  1  0.331000  0.717300  0.189600  1
  H  H569  1  0.684700  0.095800  0.334800  1
  H  H570  1  0.815300  0.904200  0.834800  1
  H  H571  1  0.184700  0.404200  0.665200  1
  H  H572  1  0.315300  0.595800  0.165200  1
  H  H573  1  0.765200  0.154300  0.305900  1
  H  H574  1  0.734800  0.845700  0.805900  1
  H  H575  1  0.265200  0.345700  0.694100  1
  H  H576  1  0.234800  0.654300  0.194100  1
  H  H577  1  0.778400  0.109300  0.329400  1
  H  H578  1  0.721600  0.890700  0.829400  1
  H  H579  1  0.278400  0.390700  0.670600  1
  H  H580  1  0.221600  0.609300  0.170600  1
  H  H581  1  0.771000  0.156100  0.351600  1
  H  H582  1  0.729000  0.843900  0.851600  1
  H  H583  1  0.271000  0.343900  0.648400  1
  H  H584  1  0.229000  0.656100  0.148400  1
  H  H585  1  0.738300  0.177200  0.389800  1
  H  H586  1  0.761700  0.822800  0.889800  1
  H  H587  1  0.238300  0.322800  0.610200  1
  H  H588  1  0.261700  0.677200  0.110200  1
  H  H589  1  0.745700  0.217200  0.453100  1
  H  H590  1  0.754300  0.782800  0.953100  1
  H  H591  1  0.245700  0.282800  0.546900  1
  H  H592  1  0.254300  0.717200  0.046900  1
  H  H593  1  0.706200  0.231100  0.514500  1
  H  H594  1  0.793800  0.768900  0.014500  1
  H  H595  1  0.206200  0.268900  0.485500  1
  H  H596  1  0.293800  0.731100  0.985500  1
  H  H597  1  0.610600  0.210400  0.527800  1
  H  H598  1  0.889400  0.789600  0.027800  1
  H  H599  1  0.110600  0.289600  0.472200  1
  H  H600  1  0.389400  0.710400  0.972200  1
  H  H601  1  0.554600  0.175700  0.479600  1
  H  H602  1  0.945400  0.824300  0.979600  1
  H  H603  1  0.054600  0.324300  0.520400  1
  H  H604  1  0.445400  0.675700  0.020400  1
  H  H605  1  0.364400  0.938600  0.715100  1
  H  H606  1  0.135600  0.061400  0.215100  1
  H  H607  1  0.864400  0.561400  0.284900  1
  H  H608  1  0.635600  0.438600  0.784900  1
  H  H609  1  0.270400  0.928800  0.738600  1
  H  H610  1  0.229600  0.071200  0.238600  1
  H  H611  1  0.770400  0.571200  0.261400  1
  H  H612  1  0.729600  0.428800  0.761400  1
  H  H613  1  0.227900  0.856600  0.738000  1
  H  H614  1  0.272100  0.143400  0.238000  1
  H  H615  1  0.727900  0.643400  0.262000  1
  H  H616  1  0.772100  0.356600  0.762000  1
  H  H617  1  0.279400  0.794200  0.713900  1
  H  H618  1  0.220600  0.205800  0.213900  1
  H  H619  1  0.779400  0.705800  0.286100  1
  H  H620  1  0.720600  0.294200  0.786100  1
  H  H621  1  0.373400  0.804000  0.690400  1
  H  H622  1  0.126600  0.196000  0.190400  1
  H  H623  1  0.873400  0.696000  0.309600  1
  H  H624  1  0.626600  0.304000  0.809600  1
  H  H625  1  0.448400  0.908100  0.682500  1
  H  H626  1  0.051600  0.091900  0.182500  1
  H  H627  1  0.948400  0.591900  0.317500  1
  H  H628  1  0.551600  0.408100  0.817500  1
  H  H629  1  0.471700  0.877500  0.742100  1
  H  H630  1  0.028300  0.122500  0.242100  1
  H  H631  1  0.971700  0.622500  0.257900  1
  H  H632  1  0.528300  0.377500  0.757900  1
  H  H633  1  0.520700  0.866700  0.711400  1
  H  H634  1  0.979300  0.133300  0.211400  1
  H  H635  1  0.020700  0.633300  0.288600  1
  H  H636  1  0.479300  0.366700  0.788600  1
  H  H637  1  0.476200  0.828400  0.723500  1
  H  H638  1  0.023800  0.171600  0.223500  1
  H  H639  1  0.976200  0.671600  0.276500  1
  H  H640  1  0.523800  0.328400  0.776500  1
  H  H641  1  0.516100  0.818100  0.666500  1
  H  H642  1  0.983900  0.181900  0.166500  1
  H  H643  1  0.016100  0.681900  0.333500  1
  H  H644  1  0.483900  0.318100  0.833500  1
  H  H645  1  0.576200  0.770100  0.615100  1
  H  H646  1  0.923800  0.229900  0.115100  1
  H  H647  1  0.076200  0.729900  0.384900  1
  H  H648  1  0.423800  0.270100  0.884900  1
  H  H649  1  0.592300  0.753200  0.549500  1
  H  H650  1  0.907700  0.246800  0.049500  1
  H  H651  1  0.092300  0.746800  0.450500  1
  H  H652  1  0.407700  0.253200  0.950500  1
  H  H653  1  0.533700  0.785700  0.501600  1
  H  H654  1  0.966300  0.214300  0.001600  1
  H  H655  1  0.033700  0.714300  0.498400  1
  H  H656  1  0.466300  0.285700  0.998400  1
  H  H657  1  0.459000  0.835200  0.519200  1
  H  H658  1  0.041000  0.164800  0.019200  1
  H  H659  1  0.959000  0.664800  0.480800  1
  H  H660  1  0.541000  0.335200  0.980800  1
  H  H661  1  0.441000  0.737700  0.584100  1
  H  H662  1  0.059000  0.262300  0.084100  1
  H  H663  1  0.941000  0.762300  0.415900  1
  H  H664  1  0.559000  0.237700  0.915900  1
  H  H665  1  0.470700  0.686600  0.632300  1
  H  H666  1  0.029300  0.313400  0.132300  1
  H  H667  1  0.970700  0.813400  0.367700  1
  H  H668  1  0.529300  0.186600  0.867700  1
  H  H669  1  0.410600  0.671800  0.685500  1
  H  H670  1  0.089400  0.328200  0.185500  1
  H  H671  1  0.910600  0.828200  0.314500  1
  H  H672  1  0.589400  0.171800  0.814500  1
  H  H673  1  0.320900  0.707900  0.690500  1
  H  H674  1  0.179100  0.292100  0.190500  1
  H  H675  1  0.820900  0.792100  0.309500  1
  H  H676  1  0.679100  0.207900  0.809500  1
  H  H677  1  0.291300  0.759000  0.642300  1
  H  H678  1  0.208700  0.241000  0.142300  1
  H  H679  1  0.791300  0.741000  0.357700  1
  H  H680  1  0.708700  0.259000  0.857700  1
  H  H681  1  0.375700  0.786000  0.558100  1
  H  H682  1  0.124300  0.214000  0.058100  1
  H  H683  1  0.875700  0.714000  0.441900  1
  H  H684  1  0.624300  0.286000  0.941900  1
  H  H685  1  0.293300  0.753200  0.543100  1
  H  H686  1  0.206700  0.246800  0.043100  1
  H  H687  1  0.793300  0.746800  0.456900  1
  H  H688  1  0.706700  0.253200  0.956900  1
  H  H689  1  0.276500  0.805000  0.547900  1
  H  H690  1  0.223500  0.195000  0.047900  1
  H  H691  1  0.776500  0.695000  0.452100  1
  H  H692  1  0.723500  0.305000  0.952100  1
  H  H693  1  0.262500  0.770000  0.581500  1
  H  H694  1  0.237500  0.230000  0.081500  1
  H  H695  1  0.762500  0.730000  0.418500  1
  H  H696  1  0.737500  0.270000  0.918500  1
  H  H697  1  0.268600  0.840300  0.607100  1
  H  H698  1  0.231400  0.159700  0.107100  1
  H  H699  1  0.768600  0.659700  0.392900  1
  H  H700  1  0.731400  0.340300  0.892900  1
  H  H701  1  0.226300  0.914000  0.637800  1
  H  H702  1  0.273700  0.086000  0.137800  1
  H  H703  1  0.726300  0.586000  0.362200  1
  H  H704  1  0.773700  0.414000  0.862200  1
  H  H705  1  0.245400  0.988300  0.658600  1
  H  H706  1  0.254600  0.011700  0.158600  1
  H  H707  1  0.745400  0.511700  0.341400  1
  H  H708  1  0.754600  0.488300  0.841400  1
  H  H709  1  0.339300  0.017400  0.654600  1
  H  H710  1  0.160700  0.982600  0.154600  1
  H  H711  1  0.839300  0.482600  0.345400  1
  H  H712  1  0.660700  0.517400  0.845400  1
  H  H713  1  0.413900  0.972400  0.629700  1
  H  H714  1  0.086100  0.027600  0.129700  1
  H  H715  1  0.913900  0.527600  0.370300  1
  H  H716  1  0.586100  0.472400  0.870300  1
  H  H717  1  0.507800  0.051600  0.541500  1
  H  H718  1  0.992200  0.948400  0.041500  1
  H  H719  1  0.007800  0.448400  0.458500  1
  H  H720  1  0.492200  0.551600  0.958500  1
  H  H721  1  0.548300  0.008900  0.547200  1
  H  H722  1  0.951700  0.991100  0.047200  1
  H  H723  1  0.048300  0.491100  0.452800  1
  H  H724  1  0.451700  0.508900  0.952800  1
  H  H725  1  0.579900  0.061400  0.487300  1
  H  H726  1  0.920100  0.938600  0.987300  1
  H  H727  1  0.079900  0.438600  0.512700  1
  H  H728  1  0.420100  0.561400  0.012700  1
  H  H729  1  0.618000  0.040900  0.521200  1
  H  H730  1  0.882000  0.959100  0.021200  1
  H  H731  1  0.118000  0.459100  0.478800  1
  H  H732  1  0.382000  0.540900  0.978800  1
  H  H733  1  0.582700  0.086300  0.528000  1
  H  H734  1  0.917300  0.913700  0.028000  1
  H  H735  1  0.082700  0.413700  0.472000  1
  H  H736  1  0.417300  0.586300  0.972000  1
  H  H737  1  0.525400  0.055700  0.458800  1
  H  H738  1  0.974600  0.944300  0.958800  1
  H  H739  1  0.025400  0.444300  0.541200  1
  H  H740  1  0.474600  0.555700  0.041200  1
  H  H741  1  0.463500  0.063700  0.476900  1
  H  H742  1  0.036500  0.936300  0.976900  1
  H  H743  1  0.963500  0.436300  0.523100  1
  H  H744  1  0.536500  0.563700  0.023100  1
  H  H745  1  0.481200  0.993500  0.417300  1
  H  H746  1  0.018800  0.006500  0.917300  1
  H  H747  1  0.981200  0.506500  0.582700  1
  H  H748  1  0.518800  0.493500  0.082700  1
  H  H749  1  0.458600  0.042500  0.406100  1
  H  H750  1  0.041400  0.957500  0.906100  1
  H  H751  1  0.958600  0.457500  0.593900  1
  H  H752  1  0.541400  0.542500  0.093900  1
  H  H753  1  0.420000  0.010100  0.431900  1
  H  H754  1  0.080000  0.989900  0.931900  1
  H  H755  1  0.920000  0.489900  0.568100  1
  H  H756  1  0.580000  0.510100  0.068100  1
  H  H757  1  0.463200  0.961200  0.528800  1
  H  H758  1  0.036800  0.038800  0.028800  1
  H  H759  1  0.963200  0.538800  0.471200  1
  H  H760  1  0.536800  0.461200  0.971200  1
  H  H761  1  0.431300  0.970900  0.489400  1
  H  H762  1  0.068700  0.029100  0.989400  1
  H  H763  1  0.931300  0.529100  0.510600  1
  H  H764  1  0.568700  0.470900  0.010600  1
  H  H765  1  0.422900  0.026600  0.555200  1
  H  H766  1  0.077100  0.973400  0.055200  1
  H  H767  1  0.922900  0.473400  0.444800  1
  H  H768  1  0.577100  0.526600  0.944800  1
  H  H769  1  0.375000  0.992100  0.540900  1
  H  H770  1  0.125000  0.007900  0.040900  1
  H  H771  1  0.875000  0.507900  0.459100  1
  H  H772  1  0.625000  0.492100  0.959100  1
  H  H773  1  0.390000  0.035500  0.515700  1
  H  H774  1  0.110000  0.964500  0.015700  1
  H  H775  1  0.890000  0.464500  0.484300  1
  H  H776  1  0.610000  0.535500  0.984300  1
  H  H777  1  0.571700  0.983800  0.467700  1
  H  H778  1  0.928300  0.016200  0.967700  1
  H  H779  1  0.071700  0.516200  0.532300  1
  H  H780  1  0.428300  0.483800  0.032300  1
  H  H781  1  0.515600  0.955700  0.458100  1
  H  H782  1  0.984400  0.044300  0.958100  1
  H  H783  1  0.015600  0.544300  0.541900  1
  H  H784  1  0.484400  0.455700  0.041900  1
  H  H785  1  0.591000  0.941700  0.521500  1
  H  H786  1  0.909000  0.058300  0.021500  1
  H  H787  1  0.091000  0.558300  0.478500  1
  H  H788  1  0.409000  0.441700  0.978500  1
  H  H789  1  0.570400  0.905200  0.490700  1
  H  H790  1  0.929600  0.094800  0.990700  1
  H  H791  1  0.070400  0.594800  0.509300  1
  H  H792  1  0.429600  0.405200  0.009300  1
  H  H793  1  0.527500  0.922100  0.523400  1
  H  H794  1  0.972500  0.077900  0.023400  1
  H  H795  1  0.027500  0.577900  0.476600  1
  H  H796  1  0.472500  0.422100  0.976600  1
  H  H797  1  0.856500  0.980300  0.354600  1
  H  H798  1  0.643500  0.019700  0.854600  1
  H  H799  1  0.356500  0.519700  0.645400  1
  H  H800  1  0.143500  0.480300  0.145400  1
  H  H801  1  0.886500  0.028800  0.357600  1
  H  H802  1  0.613500  0.971200  0.857600  1
  H  H803  1  0.386500  0.471200  0.642400  1
  H  H804  1  0.113500  0.528800  0.142400  1
  H  H805  1  0.955000  0.968600  0.377000  1
  H  H806  1  0.545000  0.031400  0.877000  1
  H  H807  1  0.455000  0.531400  0.623000  1
  H  H808  1  0.045000  0.468600  0.123000  1
  H  H809  1  0.979200  0.995500  0.340700  1
  H  H810  1  0.520800  0.004500  0.840700  1
  H  H811  1  0.479200  0.504500  0.659300  1
  H  H812  1  0.020800  0.495500  0.159300  1
  H  H813  1  0.950000  0.947300  0.334900  1
  H  H814  1  0.550000  0.052700  0.834900  1
  H  H815  1  0.450000  0.552700  0.665100  1
  H  H816  1  0.050000  0.447300  0.165100  1
  H  H817  1  0.929300  0.027100  0.255300  1
  H  H818  1  0.570700  0.972900  0.755300  1
  H  H819  1  0.429300  0.472900  0.744700  1
  H  H820  1  0.070700  0.527100  0.244700  1
  H  H821  1  0.969700  0.015900  0.292200  1
  H  H822  1  0.530300  0.984100  0.792200  1
  H  H823  1  0.469700  0.484100  0.707800  1
  H  H824  1  0.030300  0.515900  0.207800  1
  H  H825  1  0.941900  0.103800  0.295800  1
  H  H826  1  0.558100  0.896200  0.795800  1
  H  H827  1  0.441900  0.396200  0.704200  1
  H  H828  1  0.058100  0.603800  0.204200  1
  H  H829  1  0.915600  0.078900  0.332400  1
  H  H830  1  0.584400  0.921100  0.832400  1
  H  H831  1  0.415600  0.421100  0.667600  1
  H  H832  1  0.084400  0.578900  0.167600  1
  H  H833  1  0.876000  0.089900  0.296200  1
  H  H834  1  0.624000  0.910100  0.796200  1
  H  H835  1  0.376000  0.410100  0.703800  1
  H  H836  1  0.124000  0.589900  0.203800  1
  H  H837  1  0.812500  0.043500  0.322300  1
  H  H838  1  0.687500  0.956500  0.822300  1
  H  H839  1  0.312500  0.456500  0.677700  1
  H  H840  1  0.187500  0.543500  0.177700  1
  H  H841  1  0.796100  0.991800  0.314800  1
  H  H842  1  0.703900  0.008200  0.814800  1
  H  H843  1  0.296100  0.508200  0.685200  1
  H  H844  1  0.203900  0.491800  0.185200  1
  H  H845  1  0.758000  0.038000  0.262200  1
  H  H846  1  0.742000  0.962000  0.762200  1
  H  H847  1  0.258000  0.462000  0.737800  1
  H  H848  1  0.242000  0.538000  0.237800  1
  H  H849  1  0.804600  0.004100  0.245100  1
  H  H850  1  0.695400  0.995900  0.745100  1
  H  H851  1  0.304600  0.495900  0.754900  1
  H  H852  1  0.195400  0.504100  0.254900  1
  H  H853  1  0.820900  0.055600  0.252600  1
  H  H854  1  0.679100  0.944400  0.752600  1
  H  H855  1  0.320900  0.444400  0.747400  1
  H  H856  1  0.179100  0.555600  0.247400  1
  H  H857  1  0.876300  0.962800  0.253100  1
  H  H858  1  0.623700  0.037200  0.753100  1
  H  H859  1  0.376300  0.537200  0.746900  1
  H  H860  1  0.123700  0.462800  0.246900  1
  H  H861  1  0.918500  0.942200  0.284700  1
  H  H862  1  0.581500  0.057800  0.784700  1
  H  H863  1  0.418500  0.557800  0.715300  1
  H  H864  1  0.081500  0.442200  0.215300  1
  H  H865  1  0.837900  0.899600  0.279800  1
  H  H866  1  0.662100  0.100400  0.779800  1
  H  H867  1  0.337900  0.600400  0.720200  1
  H  H868  1  0.162100  0.399600  0.220200  1
  H  H869  1  0.799500  0.942500  0.289800  1
  H  H870  1  0.700500  0.057500  0.789800  1
  H  H871  1  0.299500  0.557500  0.710200  1
  H  H872  1  0.200500  0.442500  0.210200  1
  H  H873  1  0.841500  0.922000  0.321500  1
  H  H874  1  0.658500  0.078000  0.821500  1
  H  H875  1  0.341500  0.578000  0.678500  1
  H  H876  1  0.158500  0.422000  0.178500  1
  C  C877  1  0.887600  0.056100  0.513100  1
  C  C878  1  0.612400  0.943900  0.013100  1
  C  C879  1  0.387600  0.443900  0.486900  1
  C  C880  1  0.112400  0.556100  0.986900  1
  C  C881  1  0.924600  0.082400  0.536300  1
  C  C882  1  0.575400  0.917600  0.036300  1
  C  C883  1  0.424600  0.417600  0.463700  1
  C  C884  1  0.075400  0.582400  0.963700  1
  C  C885  1  0.956900  0.061700  0.565900  1
  C  C886  1  0.543100  0.938300  0.065900  1
  C  C887  1  0.456900  0.438300  0.434100  1
  C  C888  1  0.043100  0.561700  0.934100  1
  C  C889  1  0.952300  0.014800  0.572300  1
  C  C890  1  0.547700  0.985200  0.072300  1
  C  C891  1  0.452300  0.485200  0.427700  1
  C  C892  1  0.047700  0.514800  0.927700  1
  C  C893  1  0.915300  0.988500  0.549200  1
  C  C894  1  0.584700  0.011500  0.049200  1
  C  C895  1  0.415300  0.511500  0.450800  1
  C  C896  1  0.084700  0.488500  0.950800  1
  C  C897  1  0.883000  0.009100  0.519600  1
  C  C898  1  0.617000  0.990900  0.019600  1
  C  C899  1  0.383000  0.490900  0.480400  1
  C  C900  1  0.117000  0.509100  0.980400  1
  C  C901  1  0.845300  0.983000  0.495300  1
  C  C902  1  0.654700  0.017000  0.995300  1
  C  C903  1  0.345300  0.517000  0.504700  1
  C  C904  1  0.154700  0.483000  0.004700  1
  C  C905  1  0.884200  0.967100  0.459700  1
  C  C906  1  0.615800  0.032900  0.959700  1
  C  C907  1  0.384200  0.532900  0.540300  1
  C  C908  1  0.115800  0.467100  0.040300  1
  C  C909  1  0.812900  0.910800  0.516300  1
  C  C910  1  0.687100  0.089200  0.016300  1
  C  C911  1  0.312900  0.589200  0.483700  1
  C  C912  1  0.187100  0.410800  0.983700  1
  C  C913  1  0.776200  0.876600  0.531600  1
  C  C914  1  0.723800  0.123400  0.031600  1
  C  C915  1  0.276200  0.623400  0.468400  1
  C  C916  1  0.223800  0.376600  0.968400  1
  C  C917  1  0.781700  0.829200  0.534900  1
  C  C918  1  0.718300  0.170800  0.034900  1
  C  C919  1  0.281700  0.670800  0.465100  1
  C  C920  1  0.218300  0.329200  0.965100  1
  C  C921  1  0.742700  0.804600  0.557900  1
  C  C922  1  0.757300  0.195400  0.057900  1
  C  C923  1  0.242700  0.695400  0.442100  1
  C  C924  1  0.257300  0.304600  0.942100  1
  C  C925  1  0.698200  0.827200  0.577600  1
  C  C926  1  0.801800  0.172800  0.077600  1
  C  C927  1  0.198200  0.672800  0.422400  1
  C  C928  1  0.301800  0.327200  0.922400  1
  C  C929  1  0.692700  0.874600  0.574300  1
  C  C930  1  0.807300  0.125400  0.074300  1
  C  C931  1  0.192700  0.625400  0.425700  1
  C  C932  1  0.307300  0.374600  0.925700  1
  C  C933  1  0.874300  0.893700  0.618100  1
  C  C934  1  0.625700  0.106300  0.118100  1
  C  C935  1  0.374300  0.606300  0.381900  1
  C  C936  1  0.125700  0.393700  0.881900  1
  C  C937  1  0.932400  0.881200  0.622700  1
  C  C938  1  0.567600  0.118800  0.122700  1
  C  C939  1  0.432400  0.618800  0.377300  1
  C  C940  1  0.067600  0.381200  0.877300  1
  C  C941  1  0.969400  0.908400  0.645000  1
  C  C942  1  0.530600  0.091600  0.145000  1
  C  C943  1  0.469400  0.591600  0.355000  1
  C  C944  1  0.030600  0.408400  0.855000  1
  C  C945  1  0.948500  0.948000  0.662800  1
  C  C946  1  0.551500  0.052000  0.162800  1
  C  C947  1  0.448500  0.552000  0.337200  1
  C  C948  1  0.051500  0.448000  0.837200  1
  C  C949  1  0.890400  0.960500  0.658200  1
  C  C950  1  0.609600  0.039500  0.158200  1
  C  C951  1  0.390400  0.539500  0.341800  1
  C  C952  1  0.109600  0.460500  0.841800  1
  C  C953  1  0.853300  0.933300  0.635800  1
  C  C954  1  0.646700  0.066700  0.135800  1
  C  C955  1  0.353300  0.566700  0.364200  1
  C  C956  1  0.146700  0.433300  0.864200  1
  C  C957  1  0.789200  0.942600  0.631800  1
  C  C958  1  0.710800  0.057400  0.131800  1
  C  C959  1  0.289200  0.557400  0.368200  1
  C  C960  1  0.210800  0.442600  0.868200  1
  C  C961  1  0.763900  0.953900  0.670500  1
  C  C962  1  0.736100  0.046100  0.170500  1
  C  C963  1  0.263900  0.546100  0.329500  1
  C  C964  1  0.236100  0.453900  0.829500  1
  C  C965  1  0.796600  0.018400  0.610900  1
  C  C966  1  0.703400  0.981600  0.110900  1
  C  C967  1  0.296600  0.481600  0.389100  1
  C  C968  1  0.203400  0.518400  0.889100  1
  C  C969  1  0.781000  0.052600  0.584200  1
  C  C970  1  0.719000  0.947400  0.084200  1
  C  C971  1  0.281000  0.447400  0.415800  1
  C  C972  1  0.219000  0.552600  0.915800  1
  C  C973  1  0.800400  0.097300  0.589900  1
  C  C974  1  0.699600  0.902700  0.089900  1
  C  C975  1  0.300400  0.402700  0.410100  1
  C  C976  1  0.199600  0.597300  0.910100  1
  C  C977  1  0.789900  0.130500  0.561600  1
  C  C978  1  0.710100  0.869500  0.061600  1
  C  C979  1  0.289900  0.369500  0.438400  1
  C  C980  1  0.210100  0.630500  0.938400  1
  C  C981  1  0.760000  0.119100  0.527500  1
  C  C982  1  0.740000  0.880900  0.027500  1
  C  C983  1  0.260000  0.380900  0.472500  1
  C  C984  1  0.240000  0.619100  0.972500  1
  C  C985  1  0.740600  0.074400  0.521800  1
  C  C986  1  0.759400  0.925600  0.021800  1
  C  C987  1  0.240600  0.425600  0.478200  1
  C  C988  1  0.259400  0.574400  0.978200  1
  C  C989  1  0.326700  0.222300  0.656800  1
  C  C990  1  0.173300  0.777700  0.156800  1
  C  C991  1  0.826700  0.277700  0.343200  1
  C  C992  1  0.673300  0.722300  0.843200  1
  C  C993  1  0.301700  0.229300  0.693500  1
  C  C994  1  0.198300  0.770700  0.193500  1
  C  C995  1  0.801700  0.270700  0.306500  1
  C  C996  1  0.698300  0.729300  0.806500  1
  C  C997  1  0.327400  0.259400  0.719900  1
  C  C998  1  0.172600  0.740600  0.219900  1
  C  C999  1  0.827400  0.240600  0.280100  1
  C  C1000  1  0.672600  0.759400  0.780100  1
  C  C1001  1  0.378100  0.282600  0.709700  1
  C  C1002  1  0.121900  0.717400  0.209700  1
  C  C1003  1  0.878100  0.217400  0.290300  1
  C  C1004  1  0.621900  0.782600  0.790300  1
  C  C1005  1  0.403100  0.275600  0.673100  1
  C  C1006  1  0.096900  0.724400  0.173100  1
  C  C1007  1  0.903100  0.224400  0.326900  1
  C  C1008  1  0.596900  0.775600  0.826900  1
  C  C1009  1  0.377400  0.245500  0.646600  1
  C  C1010  1  0.122600  0.754500  0.146600  1
  C  C1011  1  0.877400  0.254500  0.353400  1
  C  C1012  1  0.622600  0.745500  0.853400  1
  C  C1013  1  0.407100  0.232400  0.611000  1
  C  C1014  1  0.092900  0.767600  0.111000  1
  C  C1015  1  0.907100  0.267600  0.389000  1
  C  C1016  1  0.592900  0.732400  0.889000  1
  C  C1017  1  0.409400  0.273400  0.582500  1
  C  C1018  1  0.090600  0.726600  0.082500  1
  C  C1019  1  0.909400  0.226600  0.417500  1
  C  C1020  1  0.590600  0.773400  0.917500  1
  C  C1021  1  0.504300  0.225200  0.609700  1
  C  C1022  1  0.995700  0.774800  0.109700  1
  C  C1023  1  0.004300  0.274800  0.390300  1
  C  C1024  1  0.495700  0.725200  0.890300  1
  C  C1025  1  0.557300  0.205900  0.611800  1
  C  C1026  1  0.942700  0.794100  0.111800  1
  C  C1027  1  0.057300  0.294100  0.388200  1
  C  C1028  1  0.442700  0.705900  0.888200  1
  C  C1029  1  0.610900  0.228000  0.612600  1
  C  C1030  1  0.889100  0.772000  0.112600  1
  C  C1031  1  0.110900  0.272000  0.387400  1
  C  C1032  1  0.389100  0.728000  0.887400  1
  C  C1033  1  0.662000  0.202500  0.614300  1
  C  C1034  1  0.838000  0.797500  0.114300  1
  C  C1035  1  0.162000  0.297500  0.385700  1
  C  C1036  1  0.338000  0.702500  0.885700  1
  C  C1037  1  0.659500  0.154900  0.615200  1
  C  C1038  1  0.840500  0.845100  0.115200  1
  C  C1039  1  0.159500  0.345100  0.384800  1
  C  C1040  1  0.340500  0.654900  0.884800  1
  C  C1041  1  0.605900  0.132800  0.614400  1
  C  C1042  1  0.894100  0.867200  0.114400  1
  C  C1043  1  0.105900  0.367200  0.385600  1
  C  C1044  1  0.394100  0.632800  0.885600  1
  C  C1045  1  0.598600  0.168600  0.711400  1
  C  C1046  1  0.901400  0.831400  0.211400  1
  C  C1047  1  0.098600  0.331400  0.288600  1
  C  C1048  1  0.401400  0.668600  0.788600  1
  C  C1049  1  0.630300  0.208600  0.717200  1
  C  C1050  1  0.869700  0.791400  0.217200  1
  C  C1051  1  0.130300  0.291400  0.282800  1
  C  C1052  1  0.369700  0.708600  0.782800  1
  C  C1053  1  0.601700  0.250600  0.719800  1
  C  C1054  1  0.898300  0.749400  0.219800  1
  C  C1055  1  0.101700  0.249400  0.280200  1
  C  C1056  1  0.398300  0.750600  0.780200  1
  C  C1057  1  0.541400  0.252400  0.716400  1
  C  C1058  1  0.958600  0.747600  0.216400  1
  C  C1059  1  0.041400  0.247600  0.283600  1
  C  C1060  1  0.458600  0.752400  0.783600  1
  C  C1061  1  0.509700  0.212400  0.710600  1
  C  C1062  1  0.990300  0.787600  0.210600  1
  C  C1063  1  0.009700  0.287600  0.289400  1
  C  C1064  1  0.490300  0.712400  0.789400  1
  C  C1065  1  0.538300  0.170500  0.708000  1
  C  C1066  1  0.961700  0.829500  0.208000  1
  C  C1067  1  0.038300  0.329500  0.292000  1
  C  C1068  1  0.461700  0.670500  0.792000  1
  C  C1069  1  0.512500  0.126000  0.704700  1
  C  C1070  1  0.987500  0.874000  0.204700  1
  C  C1071  1  0.012500  0.374000  0.295300  1
  C  C1072  1  0.487500  0.626000  0.795300  1
  C  C1073  1  0.486600  0.109500  0.744400  1
  C  C1074  1  0.013400  0.890500  0.244400  1
  C  C1075  1  0.986600  0.390500  0.255600  1
  C  C1076  1  0.513400  0.609500  0.755600  1
  C  C1077  1  0.407500  0.115900  0.686100  1
  C  C1078  1  0.092500  0.884100  0.186100  1
  C  C1079  1  0.907500  0.384100  0.313900  1
  C  C1080  1  0.592500  0.615900  0.813900  1
  C  C1081  1  0.367200  0.114100  0.660300  1
  C  C1082  1  0.132800  0.885900  0.160300  1
  C  C1083  1  0.867200  0.385900  0.339700  1
  C  C1084  1  0.632800  0.614100  0.839700  1
  C  C1085  1  0.310300  0.103400  0.670600  1
  C  C1086  1  0.189700  0.896600  0.170600  1
  C  C1087  1  0.810300  0.396600  0.329400  1
  C  C1088  1  0.689700  0.603400  0.829400  1
  C  C1089  1  0.268600  0.096400  0.641700  1
  C  C1090  1  0.231400  0.903600  0.141700  1
  C  C1091  1  0.768600  0.403600  0.358300  1
  C  C1092  1  0.731400  0.596400  0.858300  1
  C  C1093  1  0.283800  0.100200  0.602400  1
  C  C1094  1  0.216200  0.899800  0.102400  1
  C  C1095  1  0.783800  0.399800  0.397600  1
  C  C1096  1  0.716200  0.600200  0.897600  1
  C  C1097  1  0.340700  0.111000  0.592000  1
  C  C1098  1  0.159300  0.889000  0.092000  1
  C  C1099  1  0.840700  0.389000  0.408000  1
  C  C1100  1  0.659300  0.611000  0.908000  1
  C  C1101  1  0.108400  0.956800  0.469800  1
  C  C1102  1  0.391600  0.043200  0.969800  1
  C  C1103  1  0.608400  0.543200  0.530200  1
  C  C1104  1  0.891600  0.456800  0.030200  1
  C  C1105  1  0.057800  0.972200  0.487800  1
  C  C1106  1  0.442200  0.027800  0.987800  1
  C  C1107  1  0.557800  0.527800  0.512200  1
  C  C1108  1  0.942200  0.472200  0.012200  1
  C  C1109  1  0.027600  0.009300  0.472200  1
  C  C1110  1  0.472400  0.990700  0.972200  1
  C  C1111  1  0.527600  0.490700  0.527800  1
  C  C1112  1  0.972400  0.509300  0.027800  1
  C  C1113  1  0.048000  0.030900  0.438500  1
  C  C1114  1  0.452000  0.969100  0.938500  1
  C  C1115  1  0.548000  0.469100  0.561500  1
  C  C1116  1  0.952000  0.530900  0.061500  1
  C  C1117  1  0.098600  0.015400  0.420500  1
  C  C1118  1  0.401400  0.984600  0.920500  1
  C  C1119  1  0.598600  0.484600  0.579500  1
  C  C1120  1  0.901400  0.515400  0.079500  1
  C  C1121  1  0.128800  0.978300  0.436100  1
  C  C1122  1  0.371200  0.021700  0.936100  1
  C  C1123  1  0.628800  0.521700  0.563900  1
  C  C1124  1  0.871200  0.478300  0.063900  1
  C  C1125  1  0.183900  0.958000  0.420100  1
  C  C1126  1  0.316100  0.042000  0.920100  1
  C  C1127  1  0.683900  0.542000  0.579900  1
  C  C1128  1  0.816100  0.458000  0.079900  1
  C  C1129  1  0.161600  0.922700  0.387200  1
  C  C1130  1  0.338400  0.077300  0.887200  1
  C  C1131  1  0.661600  0.577300  0.612800  1
  C  C1132  1  0.838400  0.422700  0.112800  1
  C  C1133  1  0.235900  0.997200  0.366900  1
  C  C1134  1  0.264100  0.002800  0.866900  1
  C  C1135  1  0.735900  0.502800  0.633100  1
  C  C1136  1  0.764100  0.497200  0.133100  1
  C  C1137  1  0.277200  0.025400  0.354700  1
  C  C1138  1  0.222800  0.974600  0.854700  1
  C  C1139  1  0.777200  0.474600  0.645300  1
  C  C1140  1  0.722800  0.525400  0.145300  1
  C  C1141  1  0.292200  0.032600  0.315700  1
  C  C1142  1  0.207800  0.967400  0.815700  1
  C  C1143  1  0.792200  0.467400  0.684300  1
  C  C1144  1  0.707800  0.532600  0.184300  1
  C  C1145  1  0.331100  0.067200  0.305800  1
  C  C1146  1  0.168900  0.932800  0.805800  1
  C  C1147  1  0.831100  0.432800  0.694200  1
  C  C1148  1  0.668900  0.567200  0.194200  1
  C  C1149  1  0.355200  0.094600  0.335000  1
  C  C1150  1  0.144800  0.905400  0.835000  1
  C  C1151  1  0.855200  0.405400  0.665000  1
  C  C1152  1  0.644800  0.594600  0.165000  1
  C  C1153  1  0.340300  0.087400  0.374000  1
  C  C1154  1  0.159700  0.912600  0.874000  1
  C  C1155  1  0.840300  0.412600  0.626000  1
  C  C1156  1  0.659700  0.587400  0.126000  1
  C  C1157  1  0.181500  0.131100  0.350800  1
  C  C1158  1  0.318500  0.868900  0.850800  1
  C  C1159  1  0.681500  0.368900  0.649200  1
  C  C1160  1  0.818500  0.631100  0.149200  1
  C  C1161  1  0.139300  0.127700  0.321700  1
  C  C1162  1  0.360700  0.872300  0.821700  1
  C  C1163  1  0.639300  0.372300  0.678300  1
  C  C1164  1  0.860700  0.627700  0.178300  1
  C  C1165  1  0.080600  0.128000  0.331800  1
  C  C1166  1  0.419400  0.872000  0.831800  1
  C  C1167  1  0.580600  0.372000  0.668200  1
  C  C1168  1  0.919400  0.628000  0.168200  1
  C  C1169  1  0.064100  0.131800  0.370800  1
  C  C1170  1  0.435900  0.868200  0.870800  1
  C  C1171  1  0.564100  0.368200  0.629200  1
  C  C1172  1  0.935900  0.631800  0.129200  1
  C  C1173  1  0.106400  0.135200  0.399900  1
  C  C1174  1  0.393600  0.864800  0.899900  1
  C  C1175  1  0.606400  0.364800  0.600100  1
  C  C1176  1  0.893600  0.635200  0.100100  1
  C  C1177  1  0.165000  0.134900  0.389900  1
  C  C1178  1  0.335000  0.865100  0.889900  1
  C  C1179  1  0.665000  0.365100  0.610100  1
  C  C1180  1  0.835000  0.634900  0.110100  1
  C  C1181  1  0.210500  0.135900  0.420900  1
  C  C1182  1  0.289500  0.864100  0.920900  1
  C  C1183  1  0.710500  0.364100  0.579100  1
  C  C1184  1  0.789500  0.635900  0.079100  1
  C  C1185  1  0.206700  0.178100  0.441700  1
  C  C1186  1  0.293300  0.821900  0.941700  1
  C  C1187  1  0.706700  0.321900  0.558300  1
  C  C1188  1  0.793300  0.678100  0.058300  1
  C  C1189  1  0.180600  0.094800  0.477400  1
  C  C1190  1  0.319400  0.905200  0.977400  1
  C  C1191  1  0.680600  0.405200  0.522600  1
  C  C1192  1  0.819400  0.594800  0.022600  1
  C  C1193  1  0.184800  0.057800  0.503600  1
  C  C1194  1  0.315200  0.942200  0.003600  1
  C  C1195  1  0.684800  0.442200  0.496400  1
  C  C1196  1  0.815200  0.557800  0.996400  1
  C  C1197  1  0.151500  0.053800  0.537400  1
  C  C1198  1  0.348500  0.946200  0.037400  1
  C  C1199  1  0.651500  0.446200  0.462600  1
  C  C1200  1  0.848500  0.553800  0.962600  1
  C  C1201  1  0.159900  0.016900  0.562600  1
  C  C1202  1  0.340100  0.983100  0.062600  1
  C  C1203  1  0.659900  0.483100  0.437400  1
  C  C1204  1  0.840100  0.516900  0.937400  1
  C  C1205  1  0.201800  0.983900  0.553900  1
  C  C1206  1  0.298200  0.016100  0.053900  1
  C  C1207  1  0.701800  0.516100  0.446100  1
  C  C1208  1  0.798200  0.483900  0.946100  1
  C  C1209  1  0.235100  0.987900  0.520000  1
  C  C1210  1  0.264900  0.012100  0.020000  1
  C  C1211  1  0.735100  0.512100  0.480000  1
  C  C1212  1  0.764900  0.487900  0.980000  1
  C  C1213  1  0.658700  0.763400  0.355000  1
  C  C1214  1  0.841300  0.236600  0.855000  1
  C  C1215  1  0.158700  0.736600  0.645000  1
  C  C1216  1  0.341300  0.263400  0.145000  1
  C  C1217  1  0.657700  0.716500  0.347700  1
  C  C1218  1  0.842300  0.283500  0.847700  1
  C  C1219  1  0.157700  0.783500  0.652300  1
  C  C1220  1  0.342300  0.216500  0.152300  1
  C  C1221  1  0.644200  0.700400  0.310400  1
  C  C1222  1  0.855800  0.299600  0.810400  1
  C  C1223  1  0.144200  0.799600  0.689600  1
  C  C1224  1  0.355800  0.200400  0.189600  1
  C  C1225  1  0.631500  0.731200  0.280500  1
  C  C1226  1  0.868500  0.268800  0.780500  1
  C  C1227  1  0.131500  0.768800  0.719500  1
  C  C1228  1  0.368500  0.231200  0.219500  1
  C  C1229  1  0.632500  0.778100  0.287900  1
  C  C1230  1  0.867500  0.221900  0.787900  1
  C  C1231  1  0.132500  0.721900  0.712100  1
  C  C1232  1  0.367500  0.278100  0.212100  1
  C  C1233  1  0.646100  0.794200  0.325100  1
  C  C1234  1  0.853900  0.205800  0.825100  1
  C  C1235  1  0.146100  0.705800  0.674900  1
  C  C1236  1  0.353900  0.294200  0.174900  1
  C  C1237  1  0.647100  0.843400  0.336600  1
  C  C1238  1  0.852900  0.156600  0.836600  1
  C  C1239  1  0.147100  0.656600  0.663400  1
  C  C1240  1  0.352900  0.343400  0.163400  1
  C  C1241  1  0.688500  0.867000  0.306300  1
  C  C1242  1  0.811500  0.133000  0.806300  1
  C  C1243  1  0.188500  0.633000  0.693700  1
  C  C1244  1  0.311500  0.367000  0.193700  1
  C  C1245  1  0.568400  0.886400  0.306600  1
  C  C1246  1  0.931600  0.113600  0.806600  1
  C  C1247  1  0.068400  0.613600  0.693400  1
  C  C1248  1  0.431600  0.386400  0.193400  1
  C  C1249  1  0.516500  0.910400  0.311400  1
  C  C1250  1  0.983500  0.089600  0.811400  1
  C  C1251  1  0.016500  0.589600  0.688600  1
  C  C1252  1  0.483500  0.410400  0.188600  1
  C  C1253  1  0.491400  0.934200  0.280400  1
  C  C1254  1  0.008600  0.065800  0.780400  1
  C  C1255  1  0.991400  0.565800  0.719600  1
  C  C1256  1  0.508600  0.434200  0.219600  1
  C  C1257  1  0.436700  0.953900  0.284700  1
  C  C1258  1  0.063300  0.046100  0.784700  1
  C  C1259  1  0.936700  0.546100  0.715300  1
  C  C1260  1  0.563300  0.453900  0.215300  1
  C  C1261  1  0.407000  0.949900  0.320100  1
  C  C1262  1  0.093000  0.050100  0.820100  1
  C  C1263  1  0.907000  0.550100  0.679900  1
  C  C1264  1  0.593000  0.449900  0.179900  1
  C  C1265  1  0.432100  0.926100  0.351100  1
  C  C1266  1  0.067900  0.073900  0.851100  1
  C  C1267  1  0.932100  0.573900  0.648900  1
  C  C1268  1  0.567900  0.426100  0.148900  1
  C  C1269  1  0.394300  0.829400  0.298600  1
  C  C1270  1  0.105700  0.170600  0.798600  1
  C  C1271  1  0.894300  0.670600  0.701400  1
  C  C1272  1  0.605700  0.329400  0.201400  1
  C  C1273  1  0.399100  0.837100  0.258500  1
  C  C1274  1  0.100900  0.162900  0.758500  1
  C  C1275  1  0.899100  0.662900  0.741500  1
  C  C1276  1  0.600900  0.337100  0.241500  1
  C  C1277  1  0.446400  0.819600  0.237900  1
  C  C1278  1  0.053600  0.180400  0.737900  1
  C  C1279  1  0.946400  0.680400  0.762100  1
  C  C1280  1  0.553600  0.319600  0.262100  1
  C  C1281  1  0.488900  0.794300  0.257400  1
  C  C1282  1  0.011100  0.205700  0.757400  1
  C  C1283  1  0.988900  0.705700  0.742600  1
  C  C1284  1  0.511100  0.294300  0.242600  1
  C  C1285  1  0.484000  0.786600  0.297400  1
  C  C1286  1  0.016000  0.213400  0.797400  1
  C  C1287  1  0.984000  0.713400  0.702600  1
  C  C1288  1  0.516000  0.286600  0.202600  1
  C  C1289  1  0.436800  0.804200  0.318000  1
  C  C1290  1  0.063200  0.195800  0.818000  1
  C  C1291  1  0.936800  0.695800  0.682000  1
  C  C1292  1  0.563200  0.304200  0.182000  1
  C  C1293  1  0.431000  0.798300  0.360600  1
  C  C1294  1  0.069000  0.201700  0.860600  1
  C  C1295  1  0.931000  0.701700  0.639400  1
  C  C1296  1  0.569000  0.298300  0.139400  1
  C  C1297  1  0.397300  0.753600  0.370600  1
  C  C1298  1  0.102700  0.246400  0.870600  1
  C  C1299  1  0.897300  0.746400  0.629400  1
  C  C1300  1  0.602700  0.253600  0.129400  1
  C  C1301  1  0.511200  0.771700  0.402700  1
  C  C1302  1  0.988800  0.228300  0.902700  1
  C  C1303  1  0.011200  0.728300  0.597300  1
  C  C1304  1  0.488800  0.271700  0.097300  1
  C  C1305  1  0.559800  0.779600  0.423700  1
  C  C1306  1  0.940200  0.220400  0.923700  1
  C  C1307  1  0.059800  0.720400  0.576300  1
  C  C1308  1  0.440200  0.279600  0.076300  1
  C  C1309  1  0.589300  0.745200  0.443800  1
  C  C1310  1  0.910700  0.254800  0.943800  1
  C  C1311  1  0.089300  0.754800  0.556200  1
  C  C1312  1  0.410700  0.245200  0.056200  1
  C  C1313  1  0.641500  0.755000  0.462700  1
  C  C1314  1  0.858500  0.245000  0.962700  1
  C  C1315  1  0.141500  0.745000  0.537300  1
  C  C1316  1  0.358500  0.255000  0.037300  1
  C  C1317  1  0.664200  0.799200  0.461400  1
  C  C1318  1  0.835800  0.200800  0.961400  1
  C  C1319  1  0.164200  0.700800  0.538600  1
  C  C1320  1  0.335800  0.299200  0.038600  1
  C  C1321  1  0.634700  0.833600  0.441300  1
  C  C1322  1  0.865300  0.166400  0.941300  1
  C  C1323  1  0.134700  0.666400  0.558700  1
  C  C1324  1  0.365300  0.333600  0.058700  1
  C  C1325  1  0.596100  0.285200  0.427100  1
  C  C1326  1  0.903900  0.714800  0.927100  1
  C  C1327  1  0.096100  0.214800  0.572900  1
  C  C1328  1  0.403900  0.785200  0.072900  1
  C  C1329  1  0.649300  0.307400  0.431800  1
  C  C1330  1  0.850700  0.692600  0.931800  1
  C  C1331  1  0.149300  0.192600  0.568200  1
  C  C1332  1  0.350700  0.807400  0.068200  1
  C  C1333  1  0.685800  0.313500  0.399700  1
  C  C1334  1  0.814200  0.686500  0.899700  1
  C  C1335  1  0.185800  0.186500  0.600300  1
  C  C1336  1  0.314200  0.813500  0.100300  1
  C  C1337  1  0.669100  0.297500  0.363000  1
  C  C1338  1  0.830900  0.702500  0.863000  1
  C  C1339  1  0.169100  0.202500  0.637000  1
  C  C1340  1  0.330900  0.797500  0.137000  1
  C  C1341  1  0.616000  0.275400  0.358300  1
  C  C1342  1  0.884000  0.724600  0.858300  1
  C  C1343  1  0.116000  0.224600  0.641700  1
  C  C1344  1  0.384000  0.775400  0.141700  1
  C  C1345  1  0.579500  0.269200  0.390400  1
  C  C1346  1  0.920500  0.730800  0.890400  1
  C  C1347  1  0.079500  0.230800  0.609600  1
  C  C1348  1  0.420500  0.769200  0.109600  1
  C  C1349  1  0.519000  0.242800  0.387200  1
  C  C1350  1  0.981000  0.757200  0.887200  1
  C  C1351  1  0.019000  0.257200  0.612800  1
  C  C1352  1  0.481000  0.742800  0.112800  1
  C  C1353  1  0.468000  0.279400  0.367600  1
  C  C1354  1  0.032000  0.720600  0.867600  1
  C  C1355  1  0.968000  0.220600  0.632400  1
  C  C1356  1  0.532000  0.779400  0.132400  1
  C  C1357  1  0.503800  0.192800  0.331400  1
  C  C1358  1  0.996200  0.807200  0.831400  1
  C  C1359  1  0.003800  0.307200  0.668600  1
  C  C1360  1  0.496200  0.692800  0.168600  1
  C  C1361  1  0.512800  0.149500  0.315600  1
  C  C1362  1  0.987200  0.850500  0.815600  1
  C  C1363  1  0.012800  0.350500  0.684400  1
  C  C1364  1  0.487200  0.649500  0.184400  1
  C  C1365  1  0.488800  0.137500  0.279600  1
  C  C1366  1  0.011200  0.862500  0.779600  1
  C  C1367  1  0.988800  0.362500  0.720400  1
  C  C1368  1  0.511200  0.637500  0.220400  1
  C  C1369  1  0.492700  0.092500  0.266400  1
  C  C1370  1  0.007300  0.907500  0.766400  1
  C  C1371  1  0.992700  0.407500  0.733600  1
  C  C1372  1  0.507300  0.592500  0.233600  1
  C  C1373  1  0.520600  0.059500  0.289100  1
  C  C1374  1  0.979400  0.940500  0.789100  1
  C  C1375  1  0.020600  0.440500  0.710900  1
  C  C1376  1  0.479400  0.559500  0.210900  1
  C  C1377  1  0.544500  0.071600  0.325100  1
  C  C1378  1  0.955500  0.928400  0.825100  1
  C  C1379  1  0.044500  0.428400  0.674900  1
  C  C1380  1  0.455500  0.571600  0.174900  1
  C  C1381  1  0.647700  0.119500  0.267100  1
  C  C1382  1  0.852300  0.880500  0.767100  1
  C  C1383  1  0.147700  0.380500  0.732900  1
  C  C1384  1  0.352300  0.619500  0.232900  1
  C  C1385  1  0.626700  0.136100  0.231600  1
  C  C1386  1  0.873300  0.863900  0.731600  1
  C  C1387  1  0.126700  0.363900  0.768400  1
  C  C1388  1  0.373300  0.636100  0.268400  1
  C  C1389  1  0.621600  0.183100  0.225600  1
  C  C1390  1  0.878400  0.816900  0.725600  1
  C  C1391  1  0.121600  0.316900  0.774400  1
  C  C1392  1  0.378400  0.683100  0.274400  1
  C  C1393  1  0.637400  0.213500  0.255100  1
  C  C1394  1  0.862600  0.786500  0.755100  1
  C  C1395  1  0.137400  0.286500  0.744900  1
  C  C1396  1  0.362600  0.713500  0.244900  1
  C  C1397  1  0.658400  0.196900  0.290600  1
  C  C1398  1  0.841600  0.803100  0.790600  1
  C  C1399  1  0.158400  0.303100  0.709400  1
  C  C1400  1  0.341600  0.696900  0.209400  1
  C  C1401  1  0.663600  0.150000  0.296600  1
  C  C1402  1  0.836400  0.850000  0.796600  1
  C  C1403  1  0.163600  0.350000  0.703400  1
  C  C1404  1  0.336400  0.650000  0.203400  1
  C  C1405  1  0.692200  0.128900  0.333800  1
  C  C1406  1  0.807800  0.871100  0.833800  1
  C  C1407  1  0.192200  0.371100  0.666200  1
  C  C1408  1  0.307800  0.628900  0.166200  1
  C  C1409  1  0.757900  0.138000  0.329800  1
  C  C1410  1  0.742100  0.862000  0.829800  1
  C  C1411  1  0.257900  0.362000  0.670200  1
  C  C1412  1  0.242100  0.638000  0.170200  1
  C  C1413  1  0.698800  0.172800  0.394700  1
  C  C1414  1  0.801200  0.827200  0.894700  1
  C  C1415  1  0.198800  0.327200  0.605300  1
  C  C1416  1  0.301200  0.672800  0.105300  1
  C  C1417  1  0.673800  0.188100  0.429500  1
  C  C1418  1  0.826200  0.811900  0.929500  1
  C  C1419  1  0.173800  0.311900  0.570500  1
  C  C1420  1  0.326200  0.688100  0.070500  1
  C  C1421  1  0.707400  0.208900  0.458400  1
  C  C1422  1  0.792600  0.791100  0.958400  1
  C  C1423  1  0.207400  0.291100  0.541600  1
  C  C1424  1  0.292600  0.708900  0.041600  1
  C  C1425  1  0.683700  0.217200  0.495200  1
  C  C1426  1  0.816300  0.782800  0.995200  1
  C  C1427  1  0.183700  0.282800  0.504800  1
  C  C1428  1  0.316300  0.717200  0.004800  1
  C  C1429  1  0.626500  0.204800  0.503200  1
  C  C1430  1  0.873500  0.795200  0.003200  1
  C  C1431  1  0.126500  0.295200  0.496800  1
  C  C1432  1  0.373500  0.704800  0.996800  1
  C  C1433  1  0.592900  0.184000  0.474300  1
  C  C1434  1  0.907100  0.816000  0.974300  1
  C  C1435  1  0.092900  0.316000  0.525700  1
  C  C1436  1  0.407100  0.684000  0.025700  1
  C  C1437  1  0.347300  0.909700  0.714800  1
  C  C1438  1  0.152700  0.090300  0.214800  1
  C  C1439  1  0.847300  0.590300  0.285200  1
  C  C1440  1  0.652700  0.409700  0.785200  1
  C  C1441  1  0.291000  0.903800  0.728900  1
  C  C1442  1  0.209000  0.096200  0.228900  1
  C  C1443  1  0.791000  0.596200  0.271100  1
  C  C1444  1  0.709000  0.403800  0.771100  1
  C  C1445  1  0.265500  0.860500  0.728600  1
  C  C1446  1  0.234500  0.139500  0.228600  1
  C  C1447  1  0.765500  0.639500  0.271400  1
  C  C1448  1  0.734500  0.360500  0.771400  1
  C  C1449  1  0.296400  0.823200  0.714100  1
  C  C1450  1  0.203600  0.176800  0.214100  1
  C  C1451  1  0.796400  0.676800  0.285900  1
  C  C1452  1  0.703600  0.323200  0.785900  1
  C  C1453  1  0.352700  0.829000  0.700000  1
  C  C1454  1  0.147300  0.171000  0.200000  1
  C  C1455  1  0.852700  0.671000  0.300000  1
  C  C1456  1  0.647300  0.329000  0.800000  1
  C  C1457  1  0.378200  0.872300  0.700400  1
  C  C1458  1  0.121800  0.127700  0.200400  1
  C  C1459  1  0.878200  0.627700  0.299600  1
  C  C1460  1  0.621800  0.372300  0.799600  1
  C  C1461  1  0.440900  0.875300  0.686000  1
  C  C1462  1  0.059100  0.124700  0.186000  1
  C  C1463  1  0.940900  0.624700  0.314000  1
  C  C1464  1  0.559100  0.375300  0.814000  1
  C  C1465  1  0.481000  0.860600  0.718700  1
  C  C1466  1  0.019000  0.139400  0.218700  1
  C  C1467  1  0.981000  0.639400  0.281300  1
  C  C1468  1  0.519000  0.360600  0.781300  1
  C  C1469  1  0.494800  0.827300  0.644700  1
  C  C1470  1  0.005200  0.172700  0.144700  1
  C  C1471  1  0.994800  0.672700  0.355300  1
  C  C1472  1  0.505200  0.327300  0.855300  1
  C  C1473  1  0.507900  0.812700  0.606400  1
  C  C1474  1  0.992100  0.187300  0.106400  1
  C  C1475  1  0.007900  0.687300  0.393600  1
  C  C1476  1  0.492100  0.312700  0.893600  1
  C  C1477  1  0.552700  0.783100  0.595800  1
  C  C1478  1  0.947300  0.216900  0.095800  1
  C  C1479  1  0.052700  0.716900  0.404200  1
  C  C1480  1  0.447300  0.283100  0.904200  1
  C  C1481  1  0.562400  0.773000  0.556600  1
  C  C1482  1  0.937600  0.227000  0.056600  1
  C  C1483  1  0.062400  0.727000  0.443400  1
  C  C1484  1  0.437600  0.273000  0.943400  1
  C  C1485  1  0.527200  0.792500  0.527900  1
  C  C1486  1  0.972800  0.207500  0.027900  1
  C  C1487  1  0.027200  0.707500  0.472100  1
  C  C1488  1  0.472800  0.292500  0.972100  1
  C  C1489  1  0.482500  0.822100  0.538400  1
  C  C1490  1  0.017500  0.177900  0.038400  1
  C  C1491  1  0.982500  0.677900  0.461600  1
  C  C1492  1  0.517500  0.322100  0.961600  1
  C  C1493  1  0.416900  0.731700  0.605400  1
  C  C1494  1  0.083100  0.268300  0.105400  1
  C  C1495  1  0.916900  0.768300  0.394600  1
  C  C1496  1  0.583100  0.231700  0.894600  1
  C  C1497  1  0.434700  0.701100  0.634300  1
  C  C1498  1  0.065300  0.298900  0.134300  1
  C  C1499  1  0.934700  0.798900  0.365700  1
  C  C1500  1  0.565300  0.201100  0.865700  1
  C  C1501  1  0.398700  0.692200  0.666200  1
  C  C1502  1  0.101300  0.307800  0.166200  1
  C  C1503  1  0.898700  0.807800  0.333800  1
  C  C1504  1  0.601300  0.192200  0.833800  1
  C  C1505  1  0.345000  0.713900  0.669200  1
  C  C1506  1  0.155000  0.286100  0.169200  1
  C  C1507  1  0.845000  0.786100  0.330800  1
  C  C1508  1  0.655000  0.213900  0.830800  1
  C  C1509  1  0.327200  0.744500  0.640300  1
  C  C1510  1  0.172800  0.255500  0.140300  1
  C  C1511  1  0.827200  0.755500  0.359700  1
  C  C1512  1  0.672800  0.244500  0.859700  1
  C  C1513  1  0.363200  0.753400  0.608400  1
  C  C1514  1  0.136800  0.246600  0.108400  1
  C  C1515  1  0.863200  0.746600  0.391600  1
  C  C1516  1  0.636800  0.253400  0.891600  1
  C  C1517  1  0.346600  0.787400  0.579100  1
  C  C1518  1  0.153400  0.212600  0.079100  1
  C  C1519  1  0.846600  0.712600  0.420900  1
  C  C1520  1  0.653400  0.287400  0.920900  1
  C  C1521  1  0.289800  0.778100  0.561400  1
  C  C1522  1  0.210200  0.221900  0.061400  1
  C  C1523  1  0.789800  0.721900  0.438600  1
  C  C1524  1  0.710200  0.278100  0.938600  1
  C  C1525  1  0.304500  0.855100  0.607900  1
  C  C1526  1  0.195500  0.144900  0.107900  1
  C  C1527  1  0.804500  0.644900  0.392100  1
  C  C1528  1  0.695500  0.355100  0.892100  1
  C  C1529  1  0.308600  0.898700  0.621300  1
  C  C1530  1  0.191400  0.101300  0.121300  1
  C  C1531  1  0.808600  0.601300  0.378700  1
  C  C1532  1  0.691400  0.398700  0.878700  1
  C  C1533  1  0.263900  0.925700  0.636200  1
  C  C1534  1  0.236100  0.074300  0.136200  1
  C  C1535  1  0.763900  0.574300  0.363800  1
  C  C1536  1  0.736100  0.425700  0.863800  1
  C  C1537  1  0.275400  0.970200  0.648700  1
  C  C1538  1  0.224600  0.029800  0.148700  1
  C  C1539  1  0.775400  0.529800  0.351300  1
  C  C1540  1  0.724600  0.470200  0.851300  1
  C  C1541  1  0.331600  0.987700  0.646200  1
  C  C1542  1  0.168400  0.012300  0.146200  1
  C  C1543  1  0.831600  0.512300  0.353800  1
  C  C1544  1  0.668400  0.487700  0.853800  1
  C  C1545  1  0.376300  0.960700  0.631400  1
  C  C1546  1  0.123700  0.039300  0.131400  1
  C  C1547  1  0.876300  0.539300  0.368600  1
  C  C1548  1  0.623700  0.460700  0.868600  1
  C  C1549  1  0.619700  0.982800  0.602900  1
  C  C1550  1  0.880300  0.017200  0.102900  1
  C  C1551  1  0.119700  0.517200  0.397100  1
  C  C1552  1  0.380300  0.482800  0.897100  1
  C  C1553  1  0.523500  0.033700  0.623700  1
  C  C1554  1  0.976500  0.966300  0.123700  1
  C  C1555  1  0.023500  0.466300  0.376300  1
  C  C1556  1  0.476500  0.533700  0.876300  1
  C  C1557  1  0.507200  0.942100  0.614100  1
  C  C1558  1  0.992800  0.057900  0.114100  1
  C  C1559  1  0.007200  0.557900  0.385900  1
  C  C1560  1  0.492800  0.442100  0.885900  1
  C  C1561  1  0.505800  0.983400  0.683900  1
  C  C1562  1  0.994200  0.016600  0.183900  1
  C  C1563  1  0.005800  0.516600  0.316100  1
  C  C1564  1  0.494200  0.483400  0.816100  1
  C  C1565  1  0.594900  0.928200  0.664200  1
  C  C1566  1  0.905100  0.071800  0.164200  1
  C  C1567  1  0.094900  0.571800  0.335800  1
  C  C1568  1  0.405100  0.428200  0.835800  1
  C  C1569  1  0.611800  0.022200  0.669900  1
  C  C1570  1  0.888200  0.977800  0.169900  1
  C  C1571  1  0.111800  0.477800  0.330100  1
  C  C1572  1  0.388200  0.522200  0.830100  1
  C  C1573  1  0.437200  0.150000  0.523500  1
  C  C1574  1  0.062800  0.850000  0.023500  1
  C  C1575  1  0.937200  0.350000  0.476500  1
  C  C1576  1  0.562800  0.650000  0.976500  1
  C  C1577  1  0.357200  0.116200  0.472900  1
  C  C1578  1  0.142800  0.883800  0.972900  1
  C  C1579  1  0.857200  0.383800  0.527100  1
  C  C1580  1  0.642800  0.616200  0.027100  1
  C  C1581  1  0.460800  0.146500  0.444800  1
  C  C1582  1  0.039200  0.853500  0.944800  1
  C  C1583  1  0.960800  0.353500  0.555200  1
  C  C1584  1  0.539200  0.646500  0.055200  1
  C  C1585  1  0.365300  0.192100  0.429700  1
  C  C1586  1  0.134700  0.807900  0.929700  1
  C  C1587  1  0.865300  0.307900  0.570300  1
  C  C1588  1  0.634700  0.692100  0.070300  1
  C  C1589  1  0.447300  0.225400  0.481000  1
  C  C1590  1  0.052700  0.774600  0.981000  1
  C  C1591  1  0.947300  0.274600  0.519000  1
  C  C1592  1  0.552700  0.725400  0.019000  1
  C  C1593  1  0.342300  0.194500  0.507400  1
  C  C1594  1  0.157700  0.805500  0.007400  1
  C  C1595  1  0.842300  0.305500  0.492600  1
  C  C1596  1  0.657700  0.694500  0.992600  1
  C  C1597  1  0.332100  0.943800  0.455300  1
  C  C1598  1  0.167900  0.056200  0.955300  1
  C  C1599  1  0.832100  0.556200  0.544700  1
  C  C1600  1  0.667900  0.443800  0.044700  1
  C  C1601  1  0.421700  0.880800  0.444400  1
  C  C1602  1  0.078300  0.119200  0.944400  1
  C  C1603  1  0.921700  0.619200  0.555600  1
  C  C1604  1  0.578300  0.380800  0.055600  1
  C  C1605  1  0.372300  0.887100  0.515000  1
  C  C1606  1  0.127700  0.112900  0.015000  1
  C  C1607  1  0.872300  0.612900  0.485000  1
  C  C1608  1  0.627700  0.387100  0.985000  1
  C  C1609  1  0.360300  0.817100  0.470400  1
  C  C1610  1  0.139700  0.182900  0.970400  1
  C  C1611  1  0.860300  0.682900  0.529600  1
  C  C1612  1  0.639700  0.317100  0.029600  1
  C  C1613  1  0.268900  0.876600  0.484200  1
  C  C1614  1  0.231100  0.123400  0.984200  1
  C  C1615  1  0.768900  0.623400  0.515800  1
  C  C1616  1  0.731100  0.376600  0.015800  1
  C  C1617  1  0.317500  0.871600  0.413100  1
  C  C1618  1  0.182500  0.128400  0.913100  1
  C  C1619  1  0.817500  0.628400  0.586900  1
  C  C1620  1  0.682500  0.371600  0.086900  1
  C  C1621  1  0.694100  0.984200  0.459000  1
  C  C1622  1  0.805900  0.015800  0.959000  1
  C  C1623  1  0.194100  0.515800  0.541000  1
  C  C1624  1  0.305900  0.484200  0.041000  1
  C  C1625  1  0.621200  0.948800  0.401200  1
  C  C1626  1  0.878800  0.051200  0.901200  1
  C  C1627  1  0.121200  0.551200  0.598800  1
  C  C1628  1  0.378800  0.448800  0.098800  1
  C  C1629  1  0.635300  0.047000  0.407800  1
  C  C1630  1  0.864700  0.953000  0.907800  1
  C  C1631  1  0.135300  0.453000  0.592200  1
  C  C1632  1  0.364700  0.547000  0.092200  1
  C  C1633  1  0.673800  0.000700  0.349700  1
  C  C1634  1  0.826200  0.999300  0.849700  1
  C  C1635  1  0.173800  0.499300  0.650300  1
  C  C1636  1  0.326200  0.500700  0.150300  1
  C  C1637  1  0.747200  0.024600  0.405400  1
  C  C1638  1  0.752800  0.975400  0.905400  1
  C  C1639  1  0.247200  0.475400  0.594600  1
  C  C1640  1  0.252800  0.524600  0.094600  1
  C  C1641  1  0.735700  0.943600  0.400000  1
  C  C1642  1  0.764300  0.056400  0.900000  1
  C  C1643  1  0.235700  0.556400  0.600000  1
  C  C1644  1  0.264300  0.443600  0.100000  1
  C  C1645  1  0.534600  0.031200  0.528200  1
  C  C1646  1  0.965400  0.968800  0.028200  1
  C  C1647  1  0.034600  0.468800  0.471800  1
  C  C1648  1  0.465400  0.531200  0.971800  1
  C  C1649  1  0.582600  0.057000  0.515100  1
  C  C1650  1  0.917400  0.943000  0.015100  1
  C  C1651  1  0.082600  0.443000  0.484900  1
  C  C1652  1  0.417400  0.557000  0.984900  1
  C  C1653  1  0.489300  0.040600  0.466000  1
  C  C1654  1  0.010700  0.959400  0.966000  1
  C  C1655  1  0.989300  0.459400  0.534000  1
  C  C1656  1  0.510700  0.540600  0.034000  1
  C  C1657  1  0.459200  0.019500  0.426200  1
  C  C1658  1  0.040800  0.980500  0.926200  1
  C  C1659  1  0.959200  0.480500  0.573800  1
  C  C1660  1  0.540800  0.519500  0.073800  1
  C  C1661  1  0.450800  0.985600  0.511300  1
  C  C1662  1  0.049200  0.014400  0.011300  1
  C  C1663  1  0.950800  0.514400  0.488700  1
  C  C1664  1  0.549200  0.485600  0.988700  1
  C  C1665  1  0.405700  0.012300  0.532700  1
  C  C1666  1  0.094300  0.987700  0.032700  1
  C  C1667  1  0.905700  0.487700  0.467300  1
  C  C1668  1  0.594300  0.512300  0.967300  1
  C  C1669  1  0.537600  0.969600  0.479300  1
  C  C1670  1  0.962400  0.030400  0.979300  1
  C  C1671  1  0.037600  0.530400  0.520700  1
  C  C1672  1  0.462400  0.469600  0.020700  1
  C  C1673  1  0.558600  0.931100  0.506200  1
  C  C1674  1  0.941400  0.068900  0.006200  1
  C  C1675  1  0.058600  0.568900  0.493800  1
  C  C1676  1  0.441400  0.431100  0.993800  1
  C  C1677  1  0.887000  0.999000  0.344200  1
  C  C1678  1  0.613000  0.001000  0.844200  1
  C  C1679  1  0.387000  0.501000  0.655800  1
  C  C1680  1  0.113000  0.499000  0.155800  1
  C  C1681  1  0.949000  0.975300  0.349800  1
  C  C1682  1  0.551000  0.024700  0.849800  1
  C  C1683  1  0.449000  0.524700  0.650200  1
  C  C1684  1  0.051000  0.475300  0.150200  1
  C  C1685  1  0.932000  0.028000  0.284000  1
  C  C1686  1  0.568000  0.972000  0.784000  1
  C  C1687  1  0.432000  0.472000  0.716000  1
  C  C1688  1  0.068000  0.528000  0.216000  1
  C  C1689  1  0.914000  0.081000  0.304400  1
  C  C1690  1  0.586000  0.919000  0.804400  1
  C  C1691  1  0.414000  0.419000  0.695600  1
  C  C1692  1  0.086000  0.581000  0.195600  1
  C  C1693  1  0.818800  0.017500  0.305100  1
  C  C1694  1  0.681200  0.982500  0.805100  1
  C  C1695  1  0.318800  0.482500  0.694900  1
  C  C1696  1  0.181200  0.517500  0.194900  1
  C  C1697  1  0.798600  0.030000  0.262000  1
  C  C1698  1  0.701400  0.970000  0.762000  1
  C  C1699  1  0.298600  0.470000  0.738000  1
  C  C1700  1  0.201400  0.530000  0.238000  1
  C  C1701  1  0.881000  0.957100  0.280900  1
  C  C1702  1  0.619000  0.042900  0.780900  1
  C  C1703  1  0.381000  0.542900  0.719100  1
  C  C1704  1  0.119000  0.457100  0.219100  1
  C  C1705  1  0.836500  0.928000  0.294100  1
  C  C1706  1  0.663500  0.072000  0.794100  1
  C  C1707  1  0.336500  0.572000  0.705900  1
  C  C1708  1  0.163500  0.428000  0.205900  1
  C  C1709  1  0.728000  0.821500  0.687900  1
  C  C1710  1  0.772000  0.178500  0.187900  1
  C  C1711  1  0.228000  0.678500  0.312100  1
  C  C1712  1  0.272000  0.321500  0.812100  1
  C  C1713  1  0.753000  0.121100  0.703500  1
  C  C1714  1  0.747000  0.878900  0.203500  1
  C  C1715  1  0.253000  0.378900  0.296500  1
  C  C1716  1  0.247000  0.621100  0.796500  1
  C  C1717  1  0.586000  0.707400  0.694700  1
  C  C1718  1  0.914000  0.292600  0.194700  1
  C  C1719  1  0.086000  0.792600  0.305300  1
  C  C1720  1  0.414000  0.207400  0.805300  1
  C  C1721  1  0.361700  0.019500  0.748100  1
  C  C1722  1  0.138300  0.980500  0.248100  1
  C  C1723  1  0.861700  0.480500  0.251900  1
  C  C1724  1  0.638300  0.519500  0.751900  1
  C  C1725  1  0.298000  0.250000  0.325100  1
  C  C1726  1  0.202000  0.750000  0.825100  1
  C  C1727  1  0.798000  0.250000  0.674900  1
  C  C1728  1  0.702000  0.750000  0.174900  1
  C  C1729  1  0.451000  0.670000  0.496000  1
  C  C1730  1  0.049000  0.330000  0.996000  1
  C  C1731  1  0.951000  0.830000  0.504000  1
  C  C1732  1  0.549000  0.170000  0.004000  1
  C  C1733  1  0.091000  0.083000  0.646000  1
  C  C1734  1  0.409000  0.917000  0.146000  1
  C  C1735  1  0.591000  0.417000  0.354000  1
  C  C1736  1  0.909000  0.583000  0.854000  1
  C  C1737  1  0.229000  0.847800  0.305200  1
  C  C1738  1  0.271000  0.152200  0.805200  1
  C  C1739  1  0.729000  0.652200  0.694800  1
  C  C1740  1  0.771000  0.347800  0.194800  1
  C  C1741  1  0.113200  0.879800  0.573200  1
  C  C1742  1  0.386800  0.120200  0.073200  1
  C  C1743  1  0.613200  0.620200  0.426800  1
  C  C1744  1  0.886800  0.379800  0.926800  1
  N  N1745  1  0.811800  0.948800  0.516800  1
  N  N1746  1  0.688200  0.051200  0.016800  1
  N  N1747  1  0.311800  0.551200  0.483200  1
  N  N1748  1  0.188200  0.448800  0.983200  1
  N  N1749  1  0.731700  0.899200  0.551300  1
  N  N1750  1  0.768300  0.100800  0.051300  1
  N  N1751  1  0.231700  0.600800  0.448700  1
  N  N1752  1  0.268300  0.399200  0.948700  1
  N  N1753  1  0.780600  0.982000  0.605100  1
  N  N1754  1  0.719400  0.018000  0.105100  1
  N  N1755  1  0.280600  0.518000  0.394900  1
  N  N1756  1  0.219400  0.482000  0.894900  1
  N  N1757  1  0.751100  0.041200  0.550100  1
  N  N1758  1  0.748900  0.958800  0.050100  1
  N  N1759  1  0.251100  0.458800  0.449900  1
  N  N1760  1  0.248900  0.541200  0.949900  1
  N  N1761  1  0.459800  0.209700  0.612800  1
  N  N1762  1  0.040200  0.790300  0.112800  1
  N  N1763  1  0.959800  0.290300  0.387200  1
  N  N1764  1  0.540200  0.709700  0.887200  1
  N  N1765  1  0.554800  0.158300  0.612700  1
  N  N1766  1  0.945200  0.841700  0.112700  1
  N  N1767  1  0.054800  0.341700  0.387300  1
  N  N1768  1  0.445200  0.658300  0.887300  1
  N  N1769  1  0.462100  0.129400  0.677700  1
  N  N1770  1  0.037900  0.870600  0.177700  1
  N  N1771  1  0.962100  0.370600  0.322300  1
  N  N1772  1  0.537900  0.629400  0.822300  1
  N  N1773  1  0.382400  0.118000  0.620900  1
  N  N1774  1  0.117600  0.882000  0.120900  1
  N  N1775  1  0.882400  0.382000  0.379100  1
  N  N1776  1  0.617600  0.618000  0.879100  1
  N  N1777  1  0.220700  0.993300  0.405400  1
  N  N1778  1  0.279300  0.006700  0.905400  1
  N  N1779  1  0.720700  0.506700  0.594600  1
  N  N1780  1  0.779300  0.493300  0.094600  1
  N  N1781  1  0.301300  0.052800  0.383800  1
  N  N1782  1  0.198700  0.947200  0.883800  1
  N  N1783  1  0.801300  0.447200  0.616200  1
  N  N1784  1  0.698700  0.552800  0.116200  1
  N  N1785  1  0.212100  0.095600  0.445000  1
  N  N1786  1  0.287900  0.904400  0.945000  1
  N  N1787  1  0.712100  0.404400  0.555000  1
  N  N1788  1  0.787900  0.595600  0.055000  1
  N  N1789  1  0.226600  0.024800  0.494900  1
  N  N1790  1  0.273400  0.975200  0.994900  1
  N  N1791  1  0.726600  0.475200  0.505100  1
  N  N1792  1  0.773400  0.524800  0.005100  1
  N  N1793  1  0.589400  0.863900  0.337200  1
  N  N1794  1  0.910600  0.136100  0.837200  1
  N  N1795  1  0.089400  0.636100  0.662800  1
  N  N1796  1  0.410600  0.363900  0.162800  1
  N  N1797  1  0.486800  0.906300  0.346800  1
  N  N1798  1  0.013200  0.093700  0.846800  1
  N  N1799  1  0.986800  0.593700  0.653200  1
  N  N1800  1  0.513200  0.406300  0.153200  1
  N  N1801  1  0.491600  0.803400  0.380600  1
  N  N1802  1  0.008400  0.196600  0.880600  1
  N  N1803  1  0.991600  0.696600  0.619400  1
  N  N1804  1  0.508400  0.303400  0.119400  1
  N  N1805  1  0.582500  0.823800  0.422400  1
  N  N1806  1  0.917500  0.176200  0.922400  1
  N  N1807  1  0.082500  0.676200  0.577600  1
  N  N1808  1  0.417500  0.323800  0.077600  1
  N  N1809  1  0.531300  0.200100  0.365600  1
  N  N1810  1  0.968700  0.799900  0.865600  1
  N  N1811  1  0.031300  0.299900  0.634400  1
  N  N1812  1  0.468700  0.700100  0.134400  1
  N  N1813  1  0.540600  0.116600  0.338300  1
  N  N1814  1  0.959400  0.883400  0.838300  1
  N  N1815  1  0.040600  0.383400  0.661700  1
  N  N1816  1  0.459400  0.616600  0.161700  1
  N  N1817  1  0.665400  0.152200  0.368800  1
  N  N1818  1  0.834600  0.847800  0.868800  1
  N  N1819  1  0.165400  0.347800  0.631200  1
  N  N1820  1  0.334600  0.652200  0.131200  1
  N  N1821  1  0.616500  0.175700  0.437400  1
  N  N1822  1  0.883500  0.824300  0.937400  1
  N  N1823  1  0.116500  0.324300  0.562600  1
  N  N1824  1  0.383500  0.675700  0.062600  1
  N  N1825  1  0.450300  0.854700  0.646900  1
  N  N1826  1  0.049700  0.145300  0.146900  1
  N  N1827  1  0.950300  0.645300  0.353100  1
  N  N1828  1  0.549700  0.354700  0.853100  1
  N  N1829  1  0.472800  0.832200  0.577700  1
  N  N1830  1  0.027200  0.167800  0.077700  1
  N  N1831  1  0.972800  0.667800  0.422300  1
  N  N1832  1  0.527200  0.332200  0.922300  1
  N  N1833  1  0.349600  0.834900  0.596700  1
  N  N1834  1  0.150400  0.165100  0.096700  1
  N  N1835  1  0.849600  0.665100  0.403300  1
  N  N1836  1  0.650400  0.334900  0.903300  1
  N  N1837  1  0.364800  0.916200  0.618900  1
  N  N1838  1  0.135200  0.083800  0.118900  1
  N  N1839  1  0.864800  0.583800  0.381100  1
  N  N1840  1  0.635200  0.416200  0.881100  1
  N  N1841  1  0.657800  0.979400  0.580800  1
  N  N1842  1  0.842200  0.020600  0.080800  1
  N  N1843  1  0.157800  0.520600  0.419200  1
  N  N1844  1  0.342200  0.479400  0.919200  1
  N  N1845  1  0.497500  0.065900  0.614400  1
  N  N1846  1  0.002500  0.934100  0.114400  1
  N  N1847  1  0.997500  0.434100  0.385600  1
  N  N1848  1  0.502500  0.565900  0.885600  1
  N  N1849  1  0.478700  0.917200  0.600500  1
  N  N1850  1  0.021300  0.082800  0.100500  1
  N  N1851  1  0.978700  0.582800  0.399500  1
  N  N1852  1  0.521300  0.417200  0.899500  1
  N  N1853  1  0.475600  0.988700  0.711000  1
  N  N1854  1  0.024400  0.011300  0.211000  1
  N  N1855  1  0.975600  0.511300  0.289000  1
  N  N1856  1  0.524400  0.488700  0.789000  1
  N  N1857  1  0.615200  0.897100  0.676900  1
  N  N1858  1  0.884800  0.102900  0.176900  1
  N  N1859  1  0.115200  0.602900  0.323100  1
  N  N1860  1  0.384800  0.397100  0.823100  1
  N  N1861  1  0.642700  0.050300  0.686200  1
  N  N1862  1  0.857300  0.949700  0.186200  1
  N  N1863  1  0.142700  0.449700  0.313800  1
  N  N1864  1  0.357300  0.550300  0.813800  1
  N  N1865  1  0.460700  0.140600  0.551500  1
  N  N1866  1  0.039300  0.859400  0.051500  1
  N  N1867  1  0.960700  0.359400  0.448500  1
  N  N1868  1  0.539300  0.640600  0.948500  1
  N  N1869  1  0.329900  0.085300  0.466300  1
  N  N1870  1  0.170100  0.914700  0.966300  1
  N  N1871  1  0.829900  0.414700  0.533700  1
  N  N1872  1  0.670100  0.585300  0.033700  1
  N  N1873  1  0.498800  0.134700  0.423900  1
  N  N1874  1  0.001200  0.865300  0.923900  1
  N  N1875  1  0.998800  0.365300  0.576100  1
  N  N1876  1  0.501200  0.634700  0.076100  1
  N  N1877  1  0.335600  0.209800  0.402400  1
  N  N1878  1  0.164400  0.790200  0.902400  1
  N  N1879  1  0.835600  0.290200  0.597600  1
  N  N1880  1  0.664400  0.709800  0.097600  1
  N  N1881  1  0.464600  0.261500  0.488500  1
  N  N1882  1  0.035400  0.738500  0.988500  1
  N  N1883  1  0.964600  0.238500  0.511500  1
  N  N1884  1  0.535400  0.761500  0.011500  1
  N  N1885  1  0.307700  0.208400  0.529400  1
  N  N1886  1  0.192300  0.791600  0.029400  1
  N  N1887  1  0.807700  0.291600  0.470600  1
  N  N1888  1  0.692300  0.708400  0.970600  1
  N  N1889  1  0.321900  0.979800  0.449600  1
  N  N1890  1  0.178100  0.020200  0.949600  1
  N  N1891  1  0.821900  0.520200  0.550400  1
  N  N1892  1  0.678100  0.479800  0.050400  1
  N  N1893  1  0.468500  0.878600  0.430100  1
  N  N1894  1  0.031500  0.121400  0.930100  1
  N  N1895  1  0.968500  0.621400  0.569900  1
  N  N1896  1  0.531500  0.378600  0.069900  1
  N  N1897  1  0.393300  0.892900  0.547400  1
  N  N1898  1  0.106700  0.107100  0.047400  1
  N  N1899  1  0.893300  0.607100  0.452600  1
  N  N1900  1  0.606700  0.392900  0.952600  1
  N  N1901  1  0.366300  0.779100  0.478900  1
  N  N1902  1  0.133700  0.220900  0.978900  1
  N  N1903  1  0.866300  0.720900  0.521100  1
  N  N1904  1  0.633700  0.279100  0.021100  1
  N  N1905  1  0.227400  0.867200  0.500100  1
  N  N1906  1  0.272600  0.132800  0.000100  1
  N  N1907  1  0.727400  0.632800  0.499900  1
  N  N1908  1  0.772600  0.367200  0.999900  1
  N  N1909  1  0.302700  0.863500  0.381000  1
  N  N1910  1  0.197300  0.136500  0.881000  1
  N  N1911  1  0.802700  0.636500  0.619000  1
  N  N1912  1  0.697300  0.363500  0.119000  1
  N  N1913  1  0.698300  0.981300  0.492900  1
  N  N1914  1  0.801700  0.018700  0.992900  1
  N  N1915  1  0.198300  0.518700  0.507100  1
  N  N1916  1  0.301700  0.481300  0.007100  1
  N  N1917  1  0.611500  0.076300  0.407800  1
  N  N1918  1  0.888500  0.923700  0.907800  1
  N  N1919  1  0.111500  0.423700  0.592200  1
  N  N1920  1  0.388500  0.576300  0.092200  1
  N  N1921  1  0.585000  0.921200  0.399900  1
  N  N1922  1  0.915000  0.078800  0.899900  1
  N  N1923  1  0.085000  0.578800  0.600100  1
  N  N1924  1  0.415000  0.421200  0.100100  1
  N  N1925  1  0.671100  0.002300  0.314700  1
  N  N1926  1  0.828900  0.997700  0.814700  1
  N  N1927  1  0.171100  0.497700  0.685300  1
  N  N1928  1  0.328900  0.502300  0.185300  1
  N  N1929  1  0.792700  0.054100  0.410600  1
  N  N1930  1  0.707300  0.945900  0.910600  1
  N  N1931  1  0.292700  0.445900  0.589400  1
  N  N1932  1  0.207300  0.554100  0.089400  1
  N  N1933  1  0.770600  0.912500  0.395800  1
  N  N1934  1  0.729400  0.087500  0.895800  1
  N  N1935  1  0.270600  0.587500  0.604200  1
  N  N1936  1  0.229400  0.412500  0.104200  1
  N  N1937  1  0.501700  0.006000  0.496300  1
  N  N1938  1  0.998300  0.994000  0.996300  1
  N  N1939  1  0.001700  0.494000  0.503700  1
  N  N1940  1  0.498300  0.506000  0.003700  1
  N  N1941  1  0.880300  0.005500  0.304500  1
  N  N1942  1  0.619700  0.994500  0.804500  1
  N  N1943  1  0.380300  0.494500  0.695500  1
  N  N1944  1  0.119700  0.505500  0.195500  1
  O  O1945  1  0.665300  0.812700  0.684700  1
  O  O1946  1  0.834700  0.187300  0.184700  1
  O  O1947  1  0.165300  0.687300  0.315300  1
  O  O1948  1  0.334700  0.312700  0.815300  1
  O  O1949  1  0.758100  0.078300  0.700500  1
  O  O1950  1  0.741900  0.921700  0.200500  1
  O  O1951  1  0.258100  0.421700  0.299500  1
  O  O1952  1  0.241900  0.578300  0.799500  1
  O  O1953  1  0.586500  0.757800  0.687200  1
  O  O1954  1  0.913500  0.242200  0.187200  1
  O  O1955  1  0.086500  0.742200  0.312800  1
  O  O1956  1  0.413500  0.257800  0.812800  1
  O  O1957  1  0.406000  0.010700  0.782900  1
  O  O1958  1  0.094000  0.989300  0.282900  1
  O  O1959  1  0.906000  0.489300  0.217100  1
  O  O1960  1  0.594000  0.510700  0.717100  1
  O  O1961  1  0.310000  0.213000  0.321000  1
  O  O1962  1  0.190000  0.787000  0.821000  1
  O  O1963  1  0.810000  0.287000  0.679000  1
  O  O1964  1  0.690000  0.713000  0.179000  1
  O  O1965  1  0.541100  0.334700  0.515400  1
  O  O1966  1  0.958900  0.665300  0.015400  1
  O  O1967  1  0.041100  0.165300  0.484600  1
  O  O1968  1  0.458900  0.834700  0.984600  1
  O  O1969  1  0.200000  0.803000  0.410900  1
  O  O1970  1  0.300000  0.197000  0.910900  1
  O  O1971  1  0.700000  0.697000  0.589100  1
  O  O1972  1  0.800000  0.303000  0.089100  1
  O  O1973  1  0.448700  0.707100  0.468000  1
  O  O1974  1  0.051300  0.292900  0.968000  1
  O  O1975  1  0.948700  0.792900  0.532000  1
  O  O1976  1  0.551300  0.207100  0.032000  1
  O  O1977  1  0.652900  0.960600  0.235800  1
  O  O1978  1  0.847100  0.039400  0.735800  1
  O  O1979  1  0.152900  0.539400  0.764200  1
  O  O1980  1  0.347100  0.460600  0.264200  1
  O  O1981  1  0.575300  0.897400  0.193300  1
  O  O1982  1  0.924700  0.102600  0.693300  1
  O  O1983  1  0.075300  0.602600  0.806700  1
  O  O1984  1  0.424700  0.397400  0.306700  1
  O  O1985  1  0.832800  0.846400  0.438400  1
  O  O1986  1  0.667200  0.153600  0.938400  1
  O  O1987  1  0.332800  0.653600  0.561600  1
  O  O1988  1  0.167200  0.346400  0.061600  1
  O  O1989  1  0.905500  0.097800  0.409000  1
  O  O1990  1  0.594500  0.902200  0.909000  1
  O  O1991  1  0.405500  0.402200  0.591000  1
  O  O1992  1  0.094500  0.597800  0.091000  1
  O  O1993  1  0.143300  0.815000  0.453800  1
  O  O1994  1  0.356700  0.185000  0.953800  1
  O  O1995  1  0.643300  0.685000  0.546200  1
  O  O1996  1  0.856700  0.315000  0.046200  1
  O  O1997  1  0.073000  0.079000  0.677000  1
  O  O1998  1  0.427000  0.921000  0.177000  1
  O  O1999  1  0.573000  0.421000  0.323000  1
  O  O2000  1  0.927000  0.579000  0.823000  1
  O  O2001  1  0.257500  0.892900  0.305000  1
  O  O2002  1  0.242500  0.107100  0.805000  1
  O  O2003  1  0.757500  0.607100  0.695000  1
  O  O2004  1  0.742500  0.392900  0.195000  1
  O  O2005  1  0.175300  0.861500  0.571600  1
  O  O2006  1  0.324700  0.138500  0.071600  1
  O  O2007  1  0.675300  0.638500  0.428400  1
  O  O2008  1  0.824700  0.361500  0.928400  1
  F  F2009  1  0.134100  0.967500  0.655900  1
  F  F2010  1  0.365900  0.032500  0.155900  1
  F  F2011  1  0.634100  0.532500  0.344100  1
  F  F2012  1  0.865900  0.467500  0.844100  1
  F  F2013  1  0.170100  0.980300  0.712700  1
  F  F2014  1  0.329900  0.019700  0.212700  1
  F  F2015  1  0.670100  0.519700  0.287300  1
  F  F2016  1  0.829900  0.480300  0.787300  1
  F  F2017  1  0.128200  0.914500  0.701700  1
  F  F2018  1  0.371800  0.085500  0.201700  1
  F  F2019  1  0.628200  0.585500  0.298300  1
  F  F2020  1  0.871800  0.414500  0.798300  1
  F  F2021  1  0.074900  0.977600  0.703900  1
  F  F2022  1  0.425100  0.022400  0.203900  1
  F  F2023  1  0.574900  0.522400  0.296100  1
  F  F2024  1  0.925100  0.477600  0.796100  1
