
#######################################################################
#
#                 Cambridge Crystallographic Data Centre
#                                CCDC 
#
#######################################################################
#
# If this CIF has been generated from an entry in the Cambridge 
# Structural Database, then it will include bibliographic, chemical, 
# crystal, experimental, refinement or atomic coordinate data resulting 
# from the CCDC's data processing and validation procedures.
#
#######################################################################

data_EGIZUR
_chemical_formula_moiety         
'C192 H168 Co6 Fe4 N48 1-,9(C1 H4 O1),B1 F4 1-,8(H2 O1),2(C8 H20 N1 1+)'
_chemical_name_systematic        
'bis(tetraethylammonium) dodecakis(\m-cyano)-dodecakis(N-(1-phenylethyl)-1-(pyridin-2-yl)methanimine)-dodecakis(cyano)-penta-cobalt(ii)-cobalt(iii)-bis-iron(ii)-bis-iron(iii) tetrafluoroborate methanol solvate octahydrate'
_symmetry_cell_setting           orthorhombic
_symmetry_space_group_name_H-M   'P 21 21 21'
_symmetry_Int_Tables_number      19
_space_group_name_Hall           'P 2ac 2ab'
loop_
_symmetry_equiv_pos_site_id
_symmetry_equiv_pos_as_xyz
1 x,y,z
2 1/2-x,-y,1/2+z
3 1/2+x,1/2-y,-z
4 -x,1/2+y,1/2-z
_cell_length_a                   22.959(12)
_cell_length_b                   29.150(15)
_cell_length_c                   34.113(18)
_cell_angle_alpha                90
_cell_angle_beta                 90
_cell_angle_gamma                90
_cell_volume                     22830.3
_exptl_crystal_colour            red
_exptl_crystal_description       blocks
_cell_formula_units_Z            4
loop_
_atom_site_label
_atom_site_type_symbol
_atom_site_fract_x
_atom_site_fract_y
_atom_site_fract_z
Co1 Co 0.73214(16) -0.0274(2) 0.54943(10)
Co2 Co 0.46980(14) 0.13364(10) 0.61343(8)
Co3 Co 0.27237(13) 0.03707(10) 0.44202(8)
Co4 Co 0.53188(15) -0.13086(11) 0.38847(9)
Co5 Co 0.57608(17) 0.13971(11) 0.39170(9)
Co6 Co 0.41894(13) -0.12423(10) 0.59794(8)
Fe1 Fe 0.56212(14) -0.01667(12) 0.64242(9)
Fe2 Fe 0.40015(17) 0.17251(12) 0.47653(10)
Fe3 Fe 0.34664(14) -0.12098(11) 0.46464(9)
Fe4 Fe 0.68690(15) -0.00885(16) 0.40387(10)
C1 C 0.8876(12) 0.0561(17) 0.5131(7)
H1 H 0.8660 0.0699 0.4933
C2 C 0.9246(16) 0.0824(11) 0.5363(11)
H2 H 0.9277 0.1138 0.5319
C3 C 0.9569(11) 0.0617(16) 0.5659(9)
H3 H 0.9817 0.0793 0.5813
C4 C 0.9523(12) 0.0148(17) 0.5723(7)
H4 H 0.9739 0.0010 0.5921
C5 C 0.9153(16) -0.0115(11) 0.5492(11)
H5 H 0.9122 -0.0429 0.5535
C6 C 0.8830(10) 0.0091(16) 0.5196(9)
C7 C 0.8453(16) -0.017(2) 0.4953(11)
H6 H 0.8168 0.0042 0.4845
C8 C 0.8842(13) -0.0329(19) 0.4597(9)
H7 H 0.8613 -0.0510 0.4420
H8 H 0.9163 -0.0508 0.4692
H9 H 0.8987 -0.0063 0.4463
N1 N 0.8118(12) -0.0512(11) 0.5168(8)
C9 C 0.8129(16) -0.0892(14) 0.5163(10)
H10 H 0.8448 -0.1009 0.5028
C10 C 0.7762(8) -0.1234(8) 0.5316(5)
C11 C 0.7817(8) -0.1708(8) 0.5349(5)
H11 H 0.8115 -0.1859 0.5217
C12 C 0.7427(10) -0.1954(6) 0.5579(6)
H12 H 0.7465 -0.2271 0.5601
C13 C 0.6982(8) -0.1728(8) 0.5776(5)
H13 H 0.6722 -0.1893 0.5930
C14 C 0.6927(7) -0.1254(8) 0.5743(5)
H14 H 0.6629 -0.1103 0.5875
N2 N 0.7317(9) -0.1008(6) 0.5513(6)
C15 C 0.8743(11) -0.1063(9) 0.6181(6)
H15 H 0.8495 -0.1245 0.6032
C16 C 0.9324(12) -0.1188(7) 0.6227(7)
H16 H 0.9464 -0.1453 0.6108
C17 C 0.9694(8) -0.0916(10) 0.6450(7)
H17 H 1.0083 -0.0999 0.6481
C18 C 0.9485(10) -0.0520(9) 0.6628(6)
H18 H 0.9733 -0.0338 0.6777
C19 C 0.8904(12) -0.0395(7) 0.6582(7)
H19 H 0.8764 -0.0130 0.6701
C20 C 0.8533(8) -0.0667(10) 0.6358(7)
C21 C 0.7892(14) -0.0574(15) 0.6318(9)
H20 H 0.7698 -0.0845 0.6210
C22 C 0.7639(15) -0.0461(14) 0.6705(8)
H21 H 0.7746 -0.0693 0.6891
H22 H 0.7223 -0.0447 0.6684
H23 H 0.7785 -0.0169 0.6791
N3 N 0.7806(13) -0.0180(14) 0.6051(10)
C23 C 0.7966(18) 0.0184(17) 0.6109(14)
H24 H 0.8193 0.0251 0.6328
C24 C 0.7810(9) 0.0526(10) 0.5842(6)
C25 C 0.8004(8) 0.0973(11) 0.5899(6)
H25 H 0.8204 0.1049 0.6127
C26 C 0.7899(10) 0.1305(8) 0.5616(8)
H26 H 0.8029 0.1604 0.5654
C27 C 0.7600(9) 0.1191(10) 0.5275(7)
H27 H 0.7530 0.1413 0.5085
C28 C 0.7406(7) 0.0744(11) 0.5218(5)
H28 H 0.7206 0.0668 0.4990
N4 N 0.7511(9) 0.0412(8) 0.5501(8)
C29 C 0.3267(13) 0.2223(8) 0.6568(7)
H29 H 0.3095 0.2022 0.6392
C30 C 0.3017(10) 0.2293(8) 0.6935(9)
H30 H 0.2678 0.2138 0.7003
C31 C 0.3274(13) 0.2594(9) 0.7199(5)
H31 H 0.3107 0.2641 0.7444
C32 C 0.3781(12) 0.2826(7) 0.7097(7)
H32 H 0.3953 0.3027 0.7274
C33 C 0.4031(10) 0.2756(8) 0.6731(8)
H33 H 0.4371 0.2911 0.6662
C34 C 0.3774(13) 0.2455(9) 0.6466(5)
C35 C 0.4071(19) 0.2324(12) 0.6110(10)
H34 H 0.3807 0.2106 0.5984
C36 C 0.4094(17) 0.2734(11) 0.5825(9)
H35 H 0.4317 0.2978 0.5941
H36 H 0.3706 0.2840 0.5773
H37 H 0.4275 0.2640 0.5585
N5 N 0.4598(10) 0.2097(7) 0.6128(6)
C37 C 0.5043(12) 0.2252(10) 0.6097(7)
H38 H 0.5045 0.2566 0.6049
C38 C 0.5573(6) 0.2059(6) 0.6118(5)
C39 C 0.6109(8) 0.2280(4) 0.6126(5)
H39 H 0.6126 0.2599 0.6120
C40 C 0.6620(6) 0.2025(6) 0.6143(5)
H40 H 0.6979 0.2173 0.6148
C41 C 0.6595(6) 0.1549(6) 0.6152(5)
H41 H 0.6937 0.1378 0.6163
C42 C 0.6059(8) 0.1328(4) 0.6144(4)
H42 H 0.6042 0.1009 0.6150
N6 N 0.5548(6) 0.1583(6) 0.6127(4)
C43 C 0.5986(10) 0.1686(6) 0.7114(5)
H43 H 0.6178 0.1405 0.7097
C44 C 0.6303(7) 0.2086(9) 0.7172(6)
H44 H 0.6706 0.2074 0.7194
C45 C 0.6017(10) 0.2506(6) 0.7198(5)
H45 H 0.6229 0.2774 0.7237
C46 C 0.5414(10) 0.2524(6) 0.7164(5)
H46 H 0.5222 0.2805 0.7181
C47 C 0.5097(7) 0.2124(8) 0.7106(6)
H47 H 0.4694 0.2136 0.7084
C48 C 0.5383(10) 0.1705(6) 0.7080(5)
C49 C 0.5125(15) 0.1260(11) 0.7047(8)
H48 H 0.5410 0.1038 0.6948
C50 C 0.4866(16) 0.1095(11) 0.7444(8)
H49 H 0.5177 0.1015 0.7620
H50 H 0.4625 0.0831 0.7400
H51 H 0.4636 0.1336 0.7557
N7 N 0.4621(9) 0.1294(7) 0.6777(6)
C51 C 0.4075(11) 0.1159(9) 0.6861(8)
H52 H 0.3987 0.1076 0.7117
C52 C 0.3672(7) 0.1141(5) 0.6603(4)
C53 C 0.3103(8) 0.1034(6) 0.6706(4)
H53 H 0.3001 0.1008 0.6969
C54 C 0.2686(5) 0.0964(6) 0.6417(6)
H54 H 0.2305 0.0892 0.6486
C55 C 0.2838(6) 0.1002(6) 0.6024(5)
H55 H 0.2559 0.0956 0.5830
C56 C 0.3407(7) 0.1110(5) 0.5920(4)
H56 H 0.3509 0.1136 0.5657
N8 N 0.3824(5) 0.1180(5) 0.6209(5)
C57 C 0.1084(8) -0.0432(6) 0.4698(6)
H57 H 0.1286 -0.0680 0.4802
C58 C 0.0578(8) -0.0278(7) 0.4878(5)
H58 H 0.0442 -0.0422 0.5103
C59 C 0.0276(6) 0.0093(7) 0.4722(6)
H59 H -0.0063 0.0197 0.4842
C60 C 0.0480(8) 0.0309(6) 0.4385(6)
H60 H 0.0278 0.0557 0.4281
C61 C 0.0986(8) 0.0154(7) 0.4205(5)
H61 H 0.1123 0.0298 0.3980
C62 C 0.1288(6) -0.0217(7) 0.4361(6)
C63 C 0.1839(11) -0.0420(11) 0.4201(9)
H62 H 0.2042 -0.0589 0.4408
C64 C 0.1616(11) -0.0773(10) 0.3872(9)
H63 H 0.1336 -0.0623 0.3706
H64 H 0.1438 -0.1033 0.3996
H65 H 0.1940 -0.0873 0.3716
N9 N 0.2207(8) -0.0067(7) 0.4054(6)
C65 C 0.2359(10) -0.0028(8) 0.3669(7)
H66 H 0.2165 -0.0207 0.3485
C66 C 0.2772(6) 0.0254(4) 0.3547(4)
C67 C 0.2922(7) 0.0326(5) 0.3157(4)
H67 H 0.2761 0.0143 0.2962
C68 C 0.3311(7) 0.0672(6) 0.3058(3)
H68 H 0.3411 0.0720 0.2797
C69 C 0.3552(6) 0.0946(5) 0.3350(4)
H69 H 0.3813 0.1178 0.3284
C70 C 0.3403(6) 0.0874(5) 0.3740(4)
H70 H 0.3564 0.1057 0.3935
N10 N 0.3013(6) 0.0528(5) 0.3838(3)
C71 C 0.1815(6) 0.1311(8) 0.3508(5)
H71 H 0.2208 0.1308 0.3441
C72 C 0.1393(8) 0.1277(7) 0.3217(4)
H72 H 0.1503 0.1251 0.2956
C73 C 0.0806(7) 0.1280(7) 0.3318(5)
H73 H 0.0523 0.1257 0.3123
C74 C 0.0641(6) 0.1318(7) 0.3708(5)
H74 H 0.0249 0.1321 0.3776
C75 C 0.1064(8) 0.1352(7) 0.3999(4)
H75 H 0.0954 0.1378 0.4260
C76 C 0.1650(7) 0.1349(7) 0.3899(5)
C77 C 0.2105(11) 0.1359(11) 0.4209(7)
H76 H 0.2479 0.1367 0.4071
C78 C 0.2067(10) 0.1781(9) 0.4417(7)
H77 H 0.1697 0.1799 0.4547
H78 H 0.2104 0.2032 0.4237
H79 H 0.2374 0.1796 0.4608
N11 N 0.2121(7) 0.0956(6) 0.4450(5)
C79 C 0.1806(9) 0.0948(8) 0.4774(7)
H80 H 0.1554 0.1189 0.4828
C80 C 0.1848(7) 0.0578(4) 0.5036(4)
C81 C 0.1515(6) 0.0538(5) 0.5374(4)
H81 H 0.1235 0.0758 0.5432
C82 C 0.1599(6) 0.0169(6) 0.5626(4)
H82 H 0.1376 0.0142 0.5852
C83 C 0.2018(7) -0.0161(5) 0.5539(4)
H83 H 0.2074 -0.0408 0.5707
C84 C 0.2351(6) -0.0121(4) 0.5200(4)
H84 H 0.2631 -0.0342 0.5142
N12 N 0.2266(6) 0.0248(5) 0.4949(3)
C85 C 0.6587(9) -0.2366(7) 0.3550(5)
H85 H 0.6678 -0.2258 0.3800
C86 C 0.6577(9) -0.2835(6) 0.3477(6)
H86 H 0.6662 -0.3041 0.3677
C87 C 0.6442(9) -0.2996(5) 0.3104(7)
H87 H 0.6435 -0.3310 0.3055
C88 C 0.6315(9) -0.2688(7) 0.2805(5)
H88 H 0.6224 -0.2795 0.2556
C89 C 0.6325(9) -0.2219(6) 0.2879(5)
H89 H 0.6240 -0.2013 0.2678
C90 C 0.6461(9) -0.2058(5) 0.3251(6)
C91 C 0.6471(14) -0.1566(8) 0.3366(8)
H90 H 0.6643 -0.1540 0.3628
C92 C 0.6885(14) -0.1330(9) 0.3063(9)
H91 H 0.6779 -0.1423 0.2803
H92 H 0.7280 -0.1419 0.3116
H93 H 0.6849 -0.1003 0.3086
N13 N 0.5894(10) -0.1361(7) 0.3372(6)
C93 C 0.5684(10) -0.1136(8) 0.3066(7)
H94 H 0.5876 -0.1139 0.2827
C94 C 0.5165(6) -0.0896(5) 0.3114(5)
C95 C 0.4914(7) -0.0658(6) 0.2804(4)
H95 H 0.5112 -0.0631 0.2567
C96 C 0.4367(8) -0.0461(5) 0.2847(4)
H96 H 0.4199 -0.0301 0.2640
C97 C 0.4070(6) -0.0501(6) 0.3201(5)
H97 H 0.3704 -0.0368 0.3230
C98 C 0.4321(7) -0.0739(5) 0.3511(4)
H98 H 0.4123 -0.0766 0.3748
N14 N 0.4868(7) -0.0937(5) 0.3468(4)
C99 C 0.3943(7) -0.1706(6) 0.2986(6)
H99 H 0.3627 -0.1589 0.3123
C100 C 0.3991(8) -0.1629(6) 0.2585(6)
H100 H 0.3707 -0.1460 0.2454
C101 C 0.4464(9) -0.1804(7) 0.2379(4)
H101 H 0.4496 -0.1753 0.2111
C102 C 0.4889(7) -0.2057(6) 0.2574(5)
H102 H 0.5205 -0.2174 0.2436
C103 C 0.4840(8) -0.2134(6) 0.2974(5)
H103 H 0.5124 -0.2302 0.3105
C104 C 0.4368(9) -0.1958(6) 0.3180(4)
C105 C 0.4310(12) -0.2017(9) 0.3606(8)
H104 H 0.4070 -0.1762 0.3700
C106 C 0.3973(11) -0.2464(9) 0.3706(7)
H105 H 0.4054 -0.2693 0.3511
H106 H 0.3562 -0.2402 0.3710
H107 H 0.4094 -0.2574 0.3959
N15 N 0.4916(10) -0.1966(7) 0.3806(6)
C107 C 0.5112(10) -0.2283(9) 0.4027(7)
H108 H 0.4922 -0.2564 0.4044
C108 C 0.5598(6) -0.2204(6) 0.4237(4)
C109 C 0.5893(8) -0.2548(4) 0.4438(5)
H109 H 0.5741 -0.2843 0.4446
C110 C 0.6415(8) -0.2450(5) 0.4627(4)
H110 H 0.6612 -0.2679 0.4761
C111 C 0.6642(6) -0.2008(6) 0.4614(4)
H111 H 0.6991 -0.1942 0.4741
C112 C 0.6347(8) -0.1664(4) 0.4413(5)
H112 H 0.6499 -0.1369 0.4405
N16 N 0.5825(7) -0.1762(5) 0.4224(4)
C113 C 0.5961(12) 0.2852(8) 0.4271(6)
H113 H 0.5717 0.2811 0.4486
C114 C 0.6493(13) 0.3074(8) 0.4318(6)
H114 H 0.6605 0.3181 0.4563
C115 C 0.6858(10) 0.3135(8) 0.3997(8)
H115 H 0.7214 0.3283 0.4028
C116 C 0.6691(12) 0.2975(9) 0.3630(6)
H116 H 0.6936 0.3016 0.3415
C117 C 0.6160(13) 0.2754(8) 0.3583(5)
H117 H 0.6048 0.2647 0.3338
C118 C 0.5795(10) 0.2692(8) 0.3904(7)
C119 C 0.519(2) 0.2428(12) 0.3872(10)
H118 H 0.5064 0.2346 0.4138
C120 C 0.468(2) 0.2794(13) 0.3676(10)
H119 H 0.4670 0.2752 0.3397
H120 H 0.4792 0.3105 0.3735
H121 H 0.4309 0.2729 0.3787
N17 N 0.5313(11) 0.2001(8) 0.3656(6)
C121 C 0.5038(13) 0.1928(10) 0.3314(7)
H122 H 0.4808 0.2149 0.3193
C122 C 0.5128(8) 0.1495(5) 0.3156(5)
C123 C 0.4888(8) 0.1375(6) 0.2796(5)
H123 H 0.4702 0.1595 0.2644
C124 C 0.4927(8) 0.0925(7) 0.2664(4)
H124 H 0.4767 0.0844 0.2423
C125 C 0.5206(8) 0.0595(5) 0.2891(5)
H125 H 0.5232 0.0294 0.2803
C126 C 0.5445(7) 0.0716(6) 0.3251(5)
H126 H 0.5632 0.0496 0.3403
N18 N 0.5406(7) 0.1166(6) 0.3383(4)
C127 C 0.6477(9) 0.1195(5) 0.2671(6)
H127 H 0.6512 0.0881 0.2711
C128 C 0.6267(8) 0.1361(7) 0.2316(5)
H128 H 0.6161 0.1157 0.2119
C129 C 0.6216(8) 0.1831(8) 0.2256(5)
H129 H 0.6075 0.1941 0.2019
C130 C 0.6374(9) 0.2135(5) 0.2551(6)
H130 H 0.6340 0.2449 0.2511
C131 C 0.6584(9) 0.1969(7) 0.2906(5)
H131 H 0.6690 0.2173 0.3104
C132 C 0.6636(8) 0.1500(8) 0.2966(4)
C133 C 0.6922(15) 0.1289(11) 0.3338(8)
H132 H 0.6847 0.0958 0.3348
C134 C 0.7579(14) 0.1380(12) 0.3298(8)
H133 H 0.7652 0.1543 0.3059
H134 H 0.7784 0.1093 0.3294
H135 H 0.7710 0.1561 0.3516
N19 N 0.6654(11) 0.1522(8) 0.3688(6)
C135 C 0.6988(14) 0.1728(9) 0.3947(7)
H136 H 0.7383 0.1772 0.3898
C136 C 0.6738(8) 0.1881(6) 0.4295(4)
C137 C 0.7074(7) 0.2089(6) 0.4584(5)
H137 H 0.7457 0.2172 0.4531
C138 C 0.6837(8) 0.2172(6) 0.4952(4)
H138 H 0.7062 0.2311 0.5145
C139 C 0.6265(8) 0.2048(6) 0.5032(4)
H139 H 0.6106 0.2104 0.5278
C140 C 0.5929(7) 0.1840(6) 0.4743(5)
H140 H 0.5546 0.1757 0.4796
N20 N 0.6165(8) 0.1757(6) 0.4374(4)
C141 C 0.3473(8) -0.0903(5) 0.7148(5)
H141 H 0.3644 -0.0614 0.7151
C142 C 0.2910(7) -0.0962(5) 0.7289(5)
H142 H 0.2704 -0.0712 0.7386
C143 C 0.2655(6) -0.1395(6) 0.7286(5)
H143 H 0.2279 -0.1434 0.7380
C144 C 0.2964(7) -0.1768(5) 0.7141(5)
H144 H 0.2794 -0.2058 0.7139
C145 C 0.3527(7) -0.1710(5) 0.7000(5)
H145 H 0.3734 -0.1960 0.6904
C146 C 0.3782(6) -0.1277(6) 0.7004(5)
C147 C 0.4409(10) -0.1247(7) 0.6860(6)
H146 H 0.4484 -0.0919 0.6825
C148 C 0.4810(11) -0.1394(9) 0.7187(7)
H147 H 0.4717 -0.1225 0.7421
H148 H 0.5207 -0.1333 0.7114
H149 H 0.4762 -0.1716 0.7235
N21 N 0.4503(8) -0.1453(6) 0.6469(5)
C149 C 0.4948(11) -0.1727(8) 0.6447(7)
H150 H 0.5161 -0.1819 0.6665
C150 C 0.5079(7) -0.1873(5) 0.6064(3)
C151 C 0.5527(7) -0.2169(5) 0.5958(4)
H151 H 0.5762 -0.2299 0.6151
C152 C 0.5624(6) -0.2270(5) 0.5566(5)
H152 H 0.5923 -0.2468 0.5495
C153 C 0.5272(7) -0.2075(5) 0.5279(3)
H153 H 0.5337 -0.2143 0.5016
C154 C 0.4825(6) -0.1779(5) 0.5384(4)
H154 H 0.4590 -0.1648 0.5192
N22 N 0.4728(6) -0.1678(5) 0.5777(4)
C155 C 0.4169(12) -0.2683(8) 0.6054(6)
H155 H 0.4410 -0.2623 0.5841
C156 C 0.4347(9) -0.2989(7) 0.6343(8)
H156 H 0.4707 -0.3134 0.6323
C157 C 0.3987(12) -0.3078(7) 0.6662(7)
H157 H 0.4106 -0.3282 0.6855
C158 C 0.3450(11) -0.2861(8) 0.6692(6)
H158 H 0.3209 -0.2921 0.6905
C159 C 0.3272(9) -0.2555(7) 0.6403(8)
H159 H 0.2913 -0.2410 0.6423
C160 C 0.3632(12) -0.2466(6) 0.6084(6)
C161 C 0.3466(16) -0.2126(9) 0.5791(9)
H160 H 0.3757 -0.2140 0.5581
C162 C 0.2898(14) -0.2219(9) 0.5614(8)
H161 H 0.2933 -0.2468 0.5431
H162 H 0.2765 -0.1950 0.5479
H163 H 0.2625 -0.2300 0.5815
N23 N 0.3496(7) -0.1651(6) 0.5967(5)
C163 C 0.3045(10) -0.1449(7) 0.6079(6)
H164 H 0.2686 -0.1597 0.6071
C164 C 0.3086(6) -0.1013(3) 0.6213(4)
C165 C 0.2639(4) -0.0743(5) 0.6362(4)
H165 H 0.2263 -0.0860 0.6378
C166 C 0.2754(5) -0.0298(4) 0.6487(4)
H166 H 0.2454 -0.0117 0.6586
C167 C 0.3316(6) -0.0123(3) 0.6462(4)
H167 H 0.3393 0.0174 0.6546
C168 C 0.3763(4) -0.0393(4) 0.6314(4)
H168 H 0.4139 -0.0276 0.6297
N24 N 0.3648(5) -0.0838(4) 0.6189(3)
C169 C 0.6197(9) -0.0172(8) 0.6029(6)
C170 C 0.5235(9) 0.0337(8) 0.6237(6)
C171 C 0.5072(10) -0.0579(8) 0.6141(6)
C172 C 0.5058(9) -0.0166(8) 0.6839(6)
C173 C 0.5949(10) -0.0718(9) 0.6642(6)
C174 C 0.6118(10) 0.0222(8) 0.6699(6)
C175 C 0.4372(11) 0.1500(8) 0.5235(7)
C176 C 0.3572(11) 0.1162(9) 0.4729(6)
C177 C 0.4608(12) 0.1465(8) 0.4448(7)
C178 C 0.3653(11) 0.1921(9) 0.4297(7)
C179 C 0.4473(12) 0.2254(9) 0.4810(7)
C180 C 0.3423(12) 0.1945(9) 0.5074(7)
C181 C 0.3321(10) -0.0562(8) 0.4553(6)
C182 C 0.4217(10) -0.1192(7) 0.4444(6)
C183 C 0.3723(10) -0.1129(7) 0.5150(6)
C184 C 0.3603(10) -0.1829(8) 0.4704(6)
C185 C 0.2689(10) -0.1234(8) 0.4842(6)
C186 C 0.3175(10) -0.1284(8) 0.4131(6)
C187 C 0.6941(10) -0.0158(10) 0.4590(7)
C188 C 0.6212(11) -0.0512(11) 0.4012(7)
C189 C 0.6353(10) 0.0470(11) 0.4078(7)
C190 C 0.6738(10) 0.0007(10) 0.3497(7)
C191 C 0.7472(10) 0.0246(11) 0.4054(7)
C192 C 0.7357(11) -0.0564(11) 0.4000(7)
N25 N 0.6578(8) -0.0206(6) 0.5808(5)
N26 N 0.4975(7) 0.0659(6) 0.6144(5)
N27 N 0.4787(8) -0.0828(6) 0.6005(5)
N28 N 0.4756(8) -0.0113(6) 0.7110(5)
N29 N 0.6152(8) -0.1029(7) 0.6769(5)
N30 N 0.6427(8) 0.0503(7) 0.6862(5)
N31 N 0.4607(9) 0.1406(6) 0.5515(5)
N32 N 0.3299(9) 0.0853(7) 0.4663(5)
N33 N 0.4988(9) 0.1347(7) 0.4239(5)
N34 N 0.3356(10) 0.2098(7) 0.4024(6)
N35 N 0.4646(10) 0.2615(7) 0.4885(5)
N36 N 0.3077(10) 0.2084(7) 0.5294(6)
N37 N 0.3219(8) -0.0202(7) 0.4496(5)
N38 N 0.4685(8) -0.1214(6) 0.4301(5)
N39 N 0.3933(8) -0.1071(6) 0.5474(5)
N40 N 0.3663(8) -0.2209(6) 0.4789(5)
N41 N 0.2274(8) -0.1328(6) 0.5001(5)
N42 N 0.3027(8) -0.1365(6) 0.3810(5)
N43 N 0.6983(8) -0.0187(9) 0.4929(6)
N44 N 0.6115(9) 0.0763(8) 0.4078(6)
N45 N 0.5850(8) -0.0788(8) 0.3999(5)
N46 N 0.6711(8) 0.0023(8) 0.3147(6)
N47 N 0.7927(9) 0.0541(9) 0.4106(6)
N48 N 0.7706(9) -0.0875(9) 0.3958(6)
B1 B 0.1261(15) -0.0400(13) 0.6941(10)
F1 F 0.1341(10) -0.0325(9) 0.6559(7)
F2 F 0.1701(11) -0.0197(10) 0.7127(7)
F3 F 0.1282(15) -0.0855(11) 0.7017(9)
F4 F 0.0749(9) -0.0224(8) 0.7039(6)
C193 C 0.5346(11) 0.0312(10) 0.5282(8)
H169 H 0.5078 0.0516 0.5415
H170 H 0.5483 0.0089 0.5472
C194 C 0.5826(10) 0.0570(10) 0.5151(8)
H171 H 0.5799 0.0614 0.4873
H172 H 0.6180 0.0409 0.5212
H173 H 0.5827 0.0863 0.5280
C195 C 0.4893(11) 0.0406(10) 0.4660(8)
H174 H 0.5254 0.0557 0.4588
H175 H 0.4635 0.0637 0.4769
C196 C 0.4592(10) 0.0195(9) 0.4262(7)
H176 H 0.4812 -0.0065 0.4173
H177 H 0.4586 0.0425 0.4061
H178 H 0.4200 0.0101 0.4319
C197 C 0.4508(11) -0.0144(10) 0.5113(8)
H179 H 0.4632 -0.0388 0.5288
H180 H 0.4313 -0.0291 0.4894
C198 C 0.4057(9) 0.0123(9) 0.5327(7)
H181 H 0.4229 0.0266 0.5552
H182 H 0.3750 -0.0079 0.5409
H183 H 0.3900 0.0355 0.5157
C199 C 0.5376(11) -0.0304(10) 0.4793(8)
H184 H 0.5717 -0.0162 0.4677
H185 H 0.5156 -0.0443 0.4581
C200 C 0.5586(11) -0.0689(10) 0.5062(8)
H186 H 0.5910 -0.0583 0.5215
H187 H 0.5704 -0.0948 0.4907
H188 H 0.5275 -0.0779 0.5234
N49 N 0.5017(9) 0.0060(9) 0.4963(7)
C201 C 0.887(3) -0.001(2) 0.3442(18)
H189 H 0.8565 -0.0197 0.3546
H190 H 0.8865 0.0288 0.3576
C202 C 0.9490(16) -0.0247(12) 0.3498(11)
H191 H 0.9550 -0.0314 0.3770
H192 H 0.9792 -0.0045 0.3407
H193 H 0.9500 -0.0527 0.3349
C203 C 0.932(3) 0.028(2) 0.284(2)
H194 H 0.9293 0.0271 0.2553
H195 H 0.9697 0.0159 0.2922
C204 C 0.914(3) 0.081(2) 0.3044(18)
H196 H 0.9419 0.1038 0.2958
H197 H 0.9156 0.0789 0.3324
H198 H 0.8760 0.0899 0.2962
C205 C 0.8188(14) 0.0175(13) 0.3051(10)
H199 H 0.8125 0.0435 0.3223
H200 H 0.7961 -0.0082 0.3148
C206 C 0.7986(15) 0.0300(12) 0.2620(9)
H201 H 0.7580 0.0380 0.2622
H202 H 0.8046 0.0041 0.2451
H203 H 0.8209 0.0556 0.2526
C207 C 0.881(2) -0.0429(15) 0.2809(13)
H204 H 0.8763 -0.0372 0.2531
H205 H 0.9185 -0.0578 0.2847
C208 C 0.8365(19) -0.0720(15) 0.2941(13)
H206 H 0.8379 -0.1004 0.2798
H207 H 0.7995 -0.0575 0.2898
H208 H 0.8415 -0.0780 0.3215
N50 N 0.8803(13) 0.0055(10) 0.3045(9)
O1 O 0.6653(15) -0.1873(11) 0.6847(9)
C209 C 0.728(2) -0.1785(14) 0.6879(12)
O2 O 0.7581(11) 0.0783(10) 0.7005(8)
C210 C 0.753(2) 0.1211(19) 0.7035(14)
O3 O 0.5865(16) -0.2422(13) 0.6872(11)
C211 C 0.586(2) -0.2926(17) 0.6947(13)
C212 C 0.3617(19) 0.0195(14) 0.7481(13)
O4 O 0.406(2) 0.0107(14) 0.7829(14)
C213 C 0.298(3) 0.250(2) 0.3251(18)
O5 O 0.310(3) 0.213(2) 0.321(2)
O6 O 0.5411(14) 0.3347(10) 0.5154(9)
O7 O 0.200(3) -0.197(2) 0.4109(18)
O8 O 0.4487(15) -0.2929(11) 0.4680(10)
C214 C 0.451(4) -0.330(3) 0.496(2)
O9 O 0.6529(11) -0.0394(9) 0.2358(7)
O10 O 0.5753(17) -0.1026(13) 0.1933(12)
O11 O 0.8328(16) -0.1536(12) 0.4384(11)
O12 O 0.9055(19) 0.0978(15) 0.4090(13)
O13 O 0.1433(13) -0.1850(10) 0.4538(9)
O14 O 0.073(6) 0.079(5) 0.677(4)
C215 C 0.091(3) 0.083(2) 0.646(2)
O15 O 0.2575(14) -0.1071(13) 0.3050(10)
C216 C 0.229(2) -0.1522(17) 0.3052(14)
O16 O 0.1753(9) -0.1385(7) 0.5716(6)
C217 C 0.1132(13) -0.1202(10) 0.5732(9)
loop_
_geom_bond_atom_site_label_1
_geom_bond_atom_site_label_2
_geom_bond_site_symmetry_1
_geom_bond_site_symmetry_2
Co1 N1 1_555 1_555
Co2 N5 1_555 1_555
Co3 N9 1_555 1_555
Co4 N13 1_555 1_555
Co5 N17 1_555 1_555
Co6 N21 1_555 1_555
Fe1 C169 1_555 1_555
Fe2 C175 1_555 1_555
Fe3 C181 1_555 1_555
Fe4 C187 1_555 1_555
C1 H1 1_555 1_555
C2 C1 1_555 1_555
H2 C2 1_555 1_555
C3 C2 1_555 1_555
H3 C3 1_555 1_555
C4 C3 1_555 1_555
H4 C4 1_555 1_555
C5 C4 1_555 1_555
H5 C5 1_555 1_555
C6 C1 1_555 1_555
C7 C6 1_555 1_555
H6 C7 1_555 1_555
C8 C7 1_555 1_555
H7 C8 1_555 1_555
H8 C8 1_555 1_555
H9 C8 1_555 1_555
N1 C7 1_555 1_555
C9 N1 1_555 1_555
H10 C9 1_555 1_555
C10 C9 1_555 1_555
C11 C10 1_555 1_555
H11 C11 1_555 1_555
C12 C11 1_555 1_555
H12 C12 1_555 1_555
C13 C12 1_555 1_555
H13 C13 1_555 1_555
C14 C13 1_555 1_555
H14 C14 1_555 1_555
N2 Co1 1_555 1_555
C15 H15 1_555 1_555
C16 C15 1_555 1_555
H16 C16 1_555 1_555
C17 C16 1_555 1_555
H17 C17 1_555 1_555
C18 C17 1_555 1_555
H18 C18 1_555 1_555
C19 C18 1_555 1_555
H19 C19 1_555 1_555
C20 C15 1_555 1_555
C21 C20 1_555 1_555
H20 C21 1_555 1_555
C22 C21 1_555 1_555
H21 C22 1_555 1_555
H22 C22 1_555 1_555
H23 C22 1_555 1_555
N3 Co1 1_555 1_555
C23 N3 1_555 1_555
H24 C23 1_555 1_555
C24 C23 1_555 1_555
C25 C24 1_555 1_555
H25 C25 1_555 1_555
C26 C25 1_555 1_555
H26 C26 1_555 1_555
C27 C26 1_555 1_555
H27 C27 1_555 1_555
C28 C27 1_555 1_555
H28 C28 1_555 1_555
N4 Co1 1_555 1_555
C29 H29 1_555 1_555
C30 C29 1_555 1_555
H30 C30 1_555 1_555
C31 C30 1_555 1_555
H31 C31 1_555 1_555
C32 C31 1_555 1_555
H32 C32 1_555 1_555
C33 C32 1_555 1_555
H33 C33 1_555 1_555
C34 C29 1_555 1_555
C35 C34 1_555 1_555
H34 C35 1_555 1_555
C36 C35 1_555 1_555
H35 C36 1_555 1_555
H36 C36 1_555 1_555
H37 C36 1_555 1_555
N5 C35 1_555 1_555
C37 N5 1_555 1_555
H38 C37 1_555 1_555
C38 C37 1_555 1_555
C39 C38 1_555 1_555
H39 C39 1_555 1_555
C40 C39 1_555 1_555
H40 C40 1_555 1_555
C41 C40 1_555 1_555
H41 C41 1_555 1_555
C42 C41 1_555 1_555
H42 C42 1_555 1_555
N6 Co2 1_555 1_555
C43 H43 1_555 1_555
C44 C43 1_555 1_555
H44 C44 1_555 1_555
C45 C44 1_555 1_555
H45 C45 1_555 1_555
C46 C45 1_555 1_555
H46 C46 1_555 1_555
C47 C46 1_555 1_555
H47 C47 1_555 1_555
C48 C43 1_555 1_555
C49 C48 1_555 1_555
H48 C49 1_555 1_555
C50 C49 1_555 1_555
H49 C50 1_555 1_555
H50 C50 1_555 1_555
H51 C50 1_555 1_555
N7 Co2 1_555 1_555
C51 N7 1_555 1_555
H52 C51 1_555 1_555
C52 C51 1_555 1_555
C53 C52 1_555 1_555
H53 C53 1_555 1_555
C54 C53 1_555 1_555
H54 C54 1_555 1_555
C55 C54 1_555 1_555
H55 C55 1_555 1_555
C56 C55 1_555 1_555
H56 C56 1_555 1_555
N8 Co2 1_555 1_555
C57 H57 1_555 1_555
C58 C57 1_555 1_555
H58 C58 1_555 1_555
C59 C58 1_555 1_555
H59 C59 1_555 1_555
C60 C59 1_555 1_555
H60 C60 1_555 1_555
C61 C60 1_555 1_555
H61 C61 1_555 1_555
C62 C57 1_555 1_555
C63 C62 1_555 1_555
H62 C63 1_555 1_555
C64 C63 1_555 1_555
H63 C64 1_555 1_555
H64 C64 1_555 1_555
H65 C64 1_555 1_555
N9 C63 1_555 1_555
C65 N9 1_555 1_555
H66 C65 1_555 1_555
C66 C65 1_555 1_555
C67 C66 1_555 1_555
H67 C67 1_555 1_555
C68 C67 1_555 1_555
H68 C68 1_555 1_555
C69 C68 1_555 1_555
H69 C69 1_555 1_555
C70 C69 1_555 1_555
H70 C70 1_555 1_555
N10 Co3 1_555 1_555
C71 H71 1_555 1_555
C72 C71 1_555 1_555
H72 C72 1_555 1_555
C73 C72 1_555 1_555
H73 C73 1_555 1_555
C74 C73 1_555 1_555
H74 C74 1_555 1_555
C75 C74 1_555 1_555
H75 C75 1_555 1_555
C76 C71 1_555 1_555
C77 C76 1_555 1_555
H76 C77 1_555 1_555
C78 C77 1_555 1_555
H77 C78 1_555 1_555
H78 C78 1_555 1_555
H79 C78 1_555 1_555
N11 Co3 1_555 1_555
C79 N11 1_555 1_555
H80 C79 1_555 1_555
C80 C79 1_555 1_555
C81 C80 1_555 1_555
H81 C81 1_555 1_555
C82 C81 1_555 1_555
H82 C82 1_555 1_555
C83 C82 1_555 1_555
H83 C83 1_555 1_555
C84 C83 1_555 1_555
H84 C84 1_555 1_555
N12 Co3 1_555 1_555
C85 H85 1_555 1_555
C86 C85 1_555 1_555
H86 C86 1_555 1_555
C87 C86 1_555 1_555
H87 C87 1_555 1_555
C88 C87 1_555 1_555
H88 C88 1_555 1_555
C89 C88 1_555 1_555
H89 C89 1_555 1_555
C90 C85 1_555 1_555
C91 C90 1_555 1_555
H90 C91 1_555 1_555
C92 C91 1_555 1_555
H91 C92 1_555 1_555
H92 C92 1_555 1_555
H93 C92 1_555 1_555
N13 C91 1_555 1_555
C93 N13 1_555 1_555
H94 C93 1_555 1_555
C94 C93 1_555 1_555
C95 C94 1_555 1_555
H95 C95 1_555 1_555
C96 C95 1_555 1_555
H96 C96 1_555 1_555
C97 C96 1_555 1_555
H97 C97 1_555 1_555
C98 C97 1_555 1_555
H98 C98 1_555 1_555
N14 Co4 1_555 1_555
C99 H99 1_555 1_555
C100 C99 1_555 1_555
H100 C100 1_555 1_555
C101 C100 1_555 1_555
H101 C101 1_555 1_555
C102 C101 1_555 1_555
H102 C102 1_555 1_555
C103 C102 1_555 1_555
H103 C103 1_555 1_555
C104 C99 1_555 1_555
C105 C104 1_555 1_555
H104 C105 1_555 1_555
C106 C105 1_555 1_555
H105 C106 1_555 1_555
H106 C106 1_555 1_555
H107 C106 1_555 1_555
N15 Co4 1_555 1_555
C107 N15 1_555 1_555
H108 C107 1_555 1_555
C108 C107 1_555 1_555
C109 C108 1_555 1_555
H109 C109 1_555 1_555
C110 C109 1_555 1_555
H110 C110 1_555 1_555
C111 C110 1_555 1_555
H111 C111 1_555 1_555
C112 C111 1_555 1_555
H112 C112 1_555 1_555
N16 Co4 1_555 1_555
C113 H113 1_555 1_555
C114 C113 1_555 1_555
H114 C114 1_555 1_555
C115 C114 1_555 1_555
H115 C115 1_555 1_555
C116 C115 1_555 1_555
H116 C116 1_555 1_555
C117 C116 1_555 1_555
H117 C117 1_555 1_555
C118 C113 1_555 1_555
C119 C118 1_555 1_555
H118 C119 1_555 1_555
C120 C119 1_555 1_555
H119 C120 1_555 1_555
H120 C120 1_555 1_555
H121 C120 1_555 1_555
N17 C119 1_555 1_555
C121 N17 1_555 1_555
H122 C121 1_555 1_555
C122 C121 1_555 1_555
C123 C122 1_555 1_555
H123 C123 1_555 1_555
C124 C123 1_555 1_555
H124 C124 1_555 1_555
C125 C124 1_555 1_555
H125 C125 1_555 1_555
C126 C125 1_555 1_555
H126 C126 1_555 1_555
N18 Co5 1_555 1_555
C127 H127 1_555 1_555
C128 C127 1_555 1_555
H128 C128 1_555 1_555
C129 C128 1_555 1_555
H129 C129 1_555 1_555
C130 C129 1_555 1_555
H130 C130 1_555 1_555
C131 C130 1_555 1_555
H131 C131 1_555 1_555
C132 C127 1_555 1_555
C133 C132 1_555 1_555
H132 C133 1_555 1_555
C134 C133 1_555 1_555
H133 C134 1_555 1_555
H134 C134 1_555 1_555
H135 C134 1_555 1_555
N19 Co5 1_555 1_555
C135 N19 1_555 1_555
H136 C135 1_555 1_555
C136 C135 1_555 1_555
C137 C136 1_555 1_555
H137 C137 1_555 1_555
C138 C137 1_555 1_555
H138 C138 1_555 1_555
C139 C138 1_555 1_555
H139 C139 1_555 1_555
C140 C139 1_555 1_555
H140 C140 1_555 1_555
N20 Co5 1_555 1_555
C141 H141 1_555 1_555
C142 C141 1_555 1_555
H142 C142 1_555 1_555
C143 C142 1_555 1_555
H143 C143 1_555 1_555
C144 C143 1_555 1_555
H144 C144 1_555 1_555
C145 C144 1_555 1_555
H145 C145 1_555 1_555
C146 C141 1_555 1_555
C147 C146 1_555 1_555
H146 C147 1_555 1_555
C148 C147 1_555 1_555
H147 C148 1_555 1_555
H148 C148 1_555 1_555
H149 C148 1_555 1_555
N21 C147 1_555 1_555
C149 N21 1_555 1_555
H150 C149 1_555 1_555
C150 C149 1_555 1_555
C151 C150 1_555 1_555
H151 C151 1_555 1_555
C152 C151 1_555 1_555
H152 C152 1_555 1_555
C153 C152 1_555 1_555
H153 C153 1_555 1_555
C154 C153 1_555 1_555
H154 C154 1_555 1_555
N22 Co6 1_555 1_555
C155 H155 1_555 1_555
C156 C155 1_555 1_555
H156 C156 1_555 1_555
C157 C156 1_555 1_555
H157 C157 1_555 1_555
C158 C157 1_555 1_555
H158 C158 1_555 1_555
C159 C158 1_555 1_555
H159 C159 1_555 1_555
C160 C155 1_555 1_555
C161 C160 1_555 1_555
H160 C161 1_555 1_555
C162 C161 1_555 1_555
H161 C162 1_555 1_555
H162 C162 1_555 1_555
H163 C162 1_555 1_555
N23 Co6 1_555 1_555
C163 N23 1_555 1_555
H164 C163 1_555 1_555
C164 C163 1_555 1_555
C165 C164 1_555 1_555
H165 C165 1_555 1_555
C166 C165 1_555 1_555
H166 C166 1_555 1_555
C167 C166 1_555 1_555
H167 C167 1_555 1_555
C168 C167 1_555 1_555
H168 C168 1_555 1_555
N24 Co6 1_555 1_555
C169 N25 1_555 1_555
C170 Fe1 1_555 1_555
C171 Fe1 1_555 1_555
C172 Fe1 1_555 1_555
C173 Fe1 1_555 1_555
C174 Fe1 1_555 1_555
C175 N31 1_555 1_555
C176 Fe2 1_555 1_555
C177 Fe2 1_555 1_555
C178 Fe2 1_555 1_555
C179 Fe2 1_555 1_555
C180 Fe2 1_555 1_555
C181 N37 1_555 1_555
C182 Fe3 1_555 1_555
C183 Fe3 1_555 1_555
C184 Fe3 1_555 1_555
C185 Fe3 1_555 1_555
C186 Fe3 1_555 1_555
C187 N43 1_555 1_555
C188 Fe4 1_555 1_555
C189 Fe4 1_555 1_555
C190 Fe4 1_555 1_555
C191 Fe4 1_555 1_555
C192 Fe4 1_555 1_555
N25 Co1 1_555 1_555
N26 Co2 1_555 1_555
N27 Co6 1_555 1_555
N28 C172 1_555 1_555
N29 C173 1_555 1_555
N30 C174 1_555 1_555
N31 Co2 1_555 1_555
N32 Co3 1_555 1_555
N33 Co5 1_555 1_555
N34 C178 1_555 1_555
N35 C179 1_555 1_555
N36 C180 1_555 1_555
N37 Co3 1_555 1_555
N38 Co4 1_555 1_555
N39 Co6 1_555 1_555
N40 C184 1_555 1_555
N41 C185 1_555 1_555
N42 C186 1_555 1_555
N43 Co1 1_555 1_555
N44 Co5 1_555 1_555
N45 Co4 1_555 1_555
N46 C190 1_555 1_555
N47 C191 1_555 1_555
N48 C192 1_555 1_555
B1 F1 1_555 1_555
F2 B1 1_555 1_555
F3 B1 1_555 1_555
F4 B1 1_555 1_555
C193 H169 1_555 1_555
H170 C193 1_555 1_555
C194 C193 1_555 1_555
H171 C194 1_555 1_555
H172 C194 1_555 1_555
H173 C194 1_555 1_555
C195 H174 1_555 1_555
H175 C195 1_555 1_555
C196 C195 1_555 1_555
H176 C196 1_555 1_555
H177 C196 1_555 1_555
H178 C196 1_555 1_555
C197 H179 1_555 1_555
H180 C197 1_555 1_555
C198 C197 1_555 1_555
H181 C198 1_555 1_555
H182 C198 1_555 1_555
H183 C198 1_555 1_555
C199 H184 1_555 1_555
H185 C199 1_555 1_555
C200 C199 1_555 1_555
H186 C200 1_555 1_555
H187 C200 1_555 1_555
H188 C200 1_555 1_555
N49 C193 1_555 1_555
C201 H189 1_555 1_555
H190 C201 1_555 1_555
C202 C201 1_555 1_555
H191 C202 1_555 1_555
H192 C202 1_555 1_555
H193 C202 1_555 1_555
C203 H194 1_555 1_555
H195 C203 1_555 1_555
C204 C203 1_555 1_555
H196 C204 1_555 1_555
H197 C204 1_555 1_555
H198 C204 1_555 1_555
C205 H199 1_555 1_555
H200 C205 1_555 1_555
C206 C205 1_555 1_555
H201 C206 1_555 1_555
H202 C206 1_555 1_555
H203 C206 1_555 1_555
C207 H204 1_555 1_555
H205 C207 1_555 1_555
C208 C207 1_555 1_555
H206 C208 1_555 1_555
H207 C208 1_555 1_555
H208 C208 1_555 1_555
N50 C201 1_555 1_555
O1 C209 1_555 1_555
O2 C210 1_555 1_555
O3 C211 1_555 1_555
C212 O4 1_555 1_555
C213 O5 1_555 1_555
O8 C214 1_555 1_555
O14 C215 1_555 1_555
O15 C216 1_555 1_555
O16 C217 1_555 1_555
C5 C6 1_555 1_555
C10 N2 1_555 1_555
C14 N2 1_555 1_555
C19 C20 1_555 1_555
C21 N3 1_555 1_555
C24 N4 1_555 1_555
C28 N4 1_555 1_555
C33 C34 1_555 1_555
C38 N6 1_555 1_555
C42 N6 1_555 1_555
C47 C48 1_555 1_555
C49 N7 1_555 1_555
C52 N8 1_555 1_555
C56 N8 1_555 1_555
C61 C62 1_555 1_555
C66 N10 1_555 1_555
C70 N10 1_555 1_555
C75 C76 1_555 1_555
C77 N11 1_555 1_555
C80 N12 1_555 1_555
C84 N12 1_555 1_555
C89 C90 1_555 1_555
C94 N14 1_555 1_555
C98 N14 1_555 1_555
C103 C104 1_555 1_555
C105 N15 1_555 1_555
C108 N16 1_555 1_555
C112 N16 1_555 1_555
C117 C118 1_555 1_555
C122 N18 1_555 1_555
C126 N18 1_555 1_555
C131 C132 1_555 1_555
C133 N19 1_555 1_555
C136 N20 1_555 1_555
C140 N20 1_555 1_555
C145 C146 1_555 1_555
C150 N22 1_555 1_555
C154 N22 1_555 1_555
C159 C160 1_555 1_555
C161 N23 1_555 1_555
C164 N24 1_555 1_555
C168 N24 1_555 1_555
C170 N26 1_555 1_555
C171 N27 1_555 1_555
C176 N32 1_555 1_555
C177 N33 1_555 1_555
C182 N38 1_555 1_555
C183 N39 1_555 1_555
C188 N45 1_555 1_555
C189 N44 1_555 1_555
C195 N49 1_555 1_555
C197 N49 1_555 1_555
C199 N49 1_555 1_555
C203 N50 1_555 1_555
C205 N50 1_555 1_555
C207 N50 1_555 1_555

#END
