
#######################################################################
#
#                 Cambridge Crystallographic Data Centre
#                                CCDC 
#
#######################################################################
#
# If this CIF has been generated from an entry in the Cambridge 
# Structural Database, then it will include bibliographic, chemical, 
# crystal, experimental, refinement or atomic coordinate data resulting 
# from the CCDC's data processing and validation procedures.
#
#######################################################################

data_EGIZOL
_chemical_formula_moiety         
'C192 H168 Co6 Fe4 N48 1-,17(C1 H4 O1),B1 F4 1-,12(H2 O1),2(C8 H20 N1 1+)'
_chemical_name_systematic        
'bis(tetraethylammonium) dodecakis(\m-cyano)-dodecakis(N-(1-phenylethyl)-1-(pyridin-2-yl)methanimine)-dodecakis(cyano)-tri-cobalt(ii)-tri-cobalt(iii)-tetra-iron(ii) tetrafluoroborate methanol solvate dodecahydrate'
_symmetry_cell_setting           orthorhombic
_symmetry_space_group_name_H-M   'P 21 21 21'
_symmetry_Int_Tables_number      19
_space_group_name_Hall           'P 2ac 2ab'
loop_
_symmetry_equiv_pos_site_id
_symmetry_equiv_pos_as_xyz
1 x,y,z
2 1/2-x,-y,1/2+z
3 1/2+x,1/2-y,-z
4 -x,1/2+y,1/2-z
_cell_length_a                   25.432(4)
_cell_length_b                   27.707(4)
_cell_length_c                   34.200(5)
_cell_angle_alpha                90
_cell_angle_beta                 90
_cell_angle_gamma                90
_cell_volume                     24098.8
_exptl_crystal_colour            green
_exptl_crystal_description       blocks
_cell_formula_units_Z            4
loop_
_atom_site_label
_atom_site_type_symbol
_atom_site_fract_x
_atom_site_fract_y
_atom_site_fract_z
Co1 Co 0.72179(6) 0.51496(5) -0.00263(4)
Co2 Co 0.49198(6) 0.66433(5) 0.08521(4)
Co3 Co 0.27529(6) 0.48910(5) 0.00288(3)
Co4 Co 0.51009(6) 0.33801(5) -0.08264(4)
Co5 Co 0.48359(6) 0.60618(5) -0.13460(3)
Co6 Co 0.50254(6) 0.39549(5) 0.13686(4)
Fe1 Fe 0.61893(7) 0.53263(5) 0.12302(4)
Fe2 Fe 0.36397(6) 0.63962(5) -0.02693(4)
Fe3 Fe 0.38444(6) 0.34923(5) 0.03243(4)
Fe4 Fe 0.61491(6) 0.48091(5) -0.12528(4)
N1 N 0.7886(4) 0.4957(3) -0.0406(3)
N2 N 0.7427(4) 0.4432(3) 0.0152(2)
N3 N 0.7731(4) 0.5511(3) 0.0409(3)
N4 N 0.7237(4) 0.5885(3) -0.0218(3)
N5 N 0.4629(4) 0.7381(3) 0.0732(2)
N6 N 0.5562(4) 0.6980(3) 0.0553(2)
N7 N 0.5229(4) 0.6796(3) 0.1436(2)
N8 N 0.4287(4) 0.6448(3) 0.1228(3)
N9 N 0.2274(3) 0.4336(3) -0.0007(2)
N10 N 0.2749(4) 0.4837(3) -0.05331(19)
N11 N 0.2206(4) 0.5389(3) 0.0046(2)
N12 N 0.2716(4) 0.4948(3) 0.05897(19)
N13 N 0.5367(4) 0.3256(3) -0.1427(3)
N14 N 0.4398(4) 0.3456(3) -0.1173(2)
N15 N 0.4983(4) 0.2623(3) -0.0676(2)
N16 N 0.5838(4) 0.3182(3) -0.0559(2)
N17 N 0.4301(4) 0.6503(3) -0.1553(2)
N18 N 0.4426(4) 0.5583(3) -0.1611(2)
N19 N 0.5320(4) 0.6139(3) -0.1786(2)
N20 N 0.5263(4) 0.6567(3) -0.1111(2)
N21 N 0.5547(4) 0.3921(3) 0.1794(2)
N22 N 0.5481(4) 0.3491(3) 0.1125(2)
N23 N 0.4544(4) 0.3473(3) 0.1598(2)
N24 N 0.4579(4) 0.4403(3) 0.1644(2)
N25 N 0.6676(4) 0.5223(3) 0.0417(2)
N26 N 0.5326(4) 0.6001(3) 0.0926(2)
N27 N 0.5463(4) 0.4454(3) 0.1176(2)
N28 N 0.5751(5) 0.5511(3) 0.2055(3)
N29 N 0.7061(5) 0.4603(4) 0.1483(3)
N30 N 0.6906(4) 0.6219(4) 0.1319(3)
N31 N 0.4491(4) 0.6479(3) 0.0360(2)
N32 N 0.3226(3) 0.5422(3) 0.0011(2)
N33 N 0.4391(4) 0.6020(3) -0.0896(2)
N34 N 0.2820(4) 0.6342(3) -0.0931(3)
N35 N 0.4022(4) 0.7406(3) -0.0506(3)
N36 N 0.2859(4) 0.6850(4) 0.0315(3)
N37 N 0.3292(4) 0.4411(3) 0.0060(2)
N38 N 0.4700(4) 0.3493(3) -0.0311(2)
N39 N 0.4562(3) 0.3961(3) 0.09287(19)
N40 N 0.4374(4) 0.2551(3) 0.0585(3)
N41 N 0.3014(4) 0.3481(3) 0.0985(2)
N42 N 0.3175(4) 0.2904(3) -0.0268(2)
N43 N 0.6711(4) 0.4959(3) -0.0475(3)
N44 N 0.5369(4) 0.4072(3) -0.0925(2)
N45 N 0.5324(4) 0.5598(3) -0.1168(2)
N46 N 0.5633(4) 0.4579(4) -0.2044(3)
N47 N 0.6829(5) 0.5633(4) -0.1571(3)
N48 N 0.6988(4) 0.4006(4) -0.1389(3)
C1 C 0.8892(6) 0.5708(5) -0.0498(5)
H1 H 0.8654 0.5925 -0.0376
C2 C 0.9418(8) 0.5787(6) -0.0463(6)
H2 H 0.9541 0.6050 -0.0309
C3 C 0.9771(7) 0.5492(7) -0.0647(6)
H3 H 1.0138 0.5554 -0.0628
C4 C 0.9593(7) 0.5109(7) -0.0857(6)
H4 H 0.9838 0.4903 -0.0984
C5 C 0.9044(6) 0.5010(6) -0.0889(5)
H5 H 0.8921 0.4740 -0.1033
C6 C 0.8695(6) 0.5320(5) -0.0705(4)
C7 C 0.8103(5) 0.5252(5) -0.0737(4)
H6 H 0.7940 0.5580 -0.0720
C8 C 0.7926(6) 0.5029(6) -0.1124(4)
H7 H 0.8084 0.4708 -0.1152
H8 H 0.8038 0.5235 -0.1341
H9 H 0.7542 0.5000 -0.1125
C9 C 0.8046(5) 0.4527(5) -0.0359(3)
H10 H 0.8310 0.4400 -0.0527
C10 C 0.7829(5) 0.4229(4) -0.0053(3)
C11 C 0.8003(5) 0.3771(4) 0.0026(4)
H11 H 0.8281 0.3636 -0.0124
C12 C 0.7776(6) 0.3505(4) 0.0321(4)
H12 H 0.7892 0.3187 0.0378
C13 C 0.7378(5) 0.3712(4) 0.0530(4)
H13 H 0.7215 0.3541 0.0738
C14 C 0.7214(5) 0.4175(4) 0.0436(3)
H14 H 0.6937 0.4314 0.0584
C15 C 0.8387(5) 0.4496(4) 0.0865(4)
H15 H 0.8134 0.4417 0.1059
C16 C 0.8799(6) 0.4177(4) 0.0782(4)
H16 H 0.8820 0.3880 0.0920
C17 C 0.9170(6) 0.4284(5) 0.0508(5)
H17 H 0.9447 0.4063 0.0454
C18 C 0.9140(5) 0.4716(4) 0.0308(4)
H18 H 0.9398 0.4794 0.0118
C19 C 0.8736(5) 0.5036(4) 0.0383(4)
H19 H 0.8718 0.5333 0.0245
C20 C 0.8351(5) 0.4922(4) 0.0664(3)
C21 C 0.7921(5) 0.5270(4) 0.0764(3)
H20 H 0.7622 0.5075 0.0868
C22 C 0.8087(5) 0.5619(5) 0.1093(4)
H21 H 0.8419 0.5776 0.1022
H22 H 0.8133 0.5439 0.1337
H23 H 0.7814 0.5865 0.1129
C23 C 0.7757(5) 0.5960(4) 0.0360(3)
H24 H 0.7917 0.6157 0.0554
C24 C 0.7540(5) 0.6183(4) 0.0001(4)
C25 C 0.7648(5) 0.6648(5) -0.0096(5)
H25 H 0.7862 0.6843 0.0068
C26 C 0.7441(6) 0.6833(5) -0.0438(5)
H26 H 0.7507 0.7158 -0.0512
C27 C 0.7134(6) 0.6536(5) -0.0670(4)
H27 H 0.6992 0.6650 -0.0910
C28 C 0.7040(5) 0.6071(5) -0.0545(3)
H28 H 0.6821 0.5872 -0.0702
C29 C 0.3781(6) 0.7514(4) 0.1490(4)
H29 H 0.3631 0.7207 0.1436
C30 C 0.3745(6) 0.7706(5) 0.1867(4)
H30 H 0.3575 0.7529 0.2068
C31 C 0.3950(6) 0.8137(5) 0.1945(4)
H31 H 0.3927 0.8265 0.2203
C32 C 0.4196(6) 0.8400(6) 0.1653(4)
H32 H 0.4340 0.8709 0.1710
C33 C 0.4231(6) 0.8213(5) 0.1281(4)
H33 H 0.4397 0.8395 0.1080
C34 C 0.4029(5) 0.7764(4) 0.1197(3)
C35 C 0.4076(5) 0.7547(4) 0.0790(3)
H34 H 0.3850 0.7252 0.0787
C36 C 0.3869(6) 0.7880(5) 0.0473(3)
H35 H 0.4057 0.8189 0.0484
H36 H 0.3492 0.7936 0.0514
H37 H 0.3924 0.7731 0.0217
C37 C 0.4951(5) 0.7628(4) 0.0529(3)
H38 H 0.4847 0.7933 0.0427
C38 C 0.5477(5) 0.7444(4) 0.0454(3)
C39 C 0.5864(5) 0.7723(4) 0.0274(3)
H39 H 0.5795 0.8050 0.0210
C40 C 0.6345(6) 0.7520(5) 0.0192(3)
H40 H 0.6614 0.7701 0.0067
C41 C 0.6423(5) 0.7050(5) 0.0296(4)
H41 H 0.6753 0.6903 0.0245
C42 C 0.6019(5) 0.6779(4) 0.0477(3)
H42 H 0.6078 0.6450 0.0545
C43 C 0.6400(5) 0.7556(5) 0.1273(3)
H43 H 0.6668 0.7318 0.1269
C44 C 0.6512(6) 0.8035(5) 0.1160(3)
H44 H 0.6857 0.8118 0.1078
C45 C 0.6129(6) 0.8383(4) 0.1166(3)
H45 H 0.6208 0.8704 0.1091
C46 C 0.5615(6) 0.8260(4) 0.1286(3)
H46 H 0.5348 0.8499 0.1291
C47 C 0.5503(5) 0.7796(4) 0.1394(3)
H47 H 0.5155 0.7717 0.1473
C48 C 0.5888(5) 0.7435(4) 0.1392(3)
C49 C 0.5776(5) 0.6925(4) 0.1514(3)
H48 H 0.5998 0.6712 0.1345
C50 C 0.5962(6) 0.6840(5) 0.1946(4)
H49 H 0.5801 0.7083 0.2116
H50 H 0.6345 0.6868 0.1959
H51 H 0.5855 0.6517 0.2031
C51 C 0.4938(5) 0.6647(4) 0.1708(3)
H52 H 0.5065 0.6635 0.1969
C52 C 0.4389(5) 0.6489(4) 0.1614(3)
C53 C 0.4023(7) 0.6392(4) 0.1895(4)
H53 H 0.4111 0.6417 0.2164
C54 C 0.3507(7) 0.6253(5) 0.1779(6)
H54 H 0.3240 0.6198 0.1968
C55 C 0.3410(6) 0.6203(5) 0.1403(6)
H55 H 0.3073 0.6097 0.1319
C56 C 0.3804(6) 0.6305(4) 0.1124(4)
H56 H 0.3723 0.6272 0.0854
C57 C 0.1487(5) 0.4423(4) 0.0827(3)
H57 H 0.1784 0.4460 0.0992
C58 C 0.1000(6) 0.4588(5) 0.0954(4)
H58 H 0.0961 0.4739 0.1201
C59 C 0.0579(6) 0.4526(5) 0.0710(5)
H59 H 0.0245 0.4644 0.0788
C60 C 0.0627(6) 0.4305(6) 0.0368(4)
H60 H 0.0324 0.4256 0.0210
C61 C 0.1114(5) 0.4145(5) 0.0237(3)
H61 H 0.1145 0.3994 -0.0011
C62 C 0.1547(5) 0.4207(4) 0.0466(3)
C63 C 0.2085(4) 0.4034(3) 0.0329(3)
H62 H 0.2336 0.4082 0.0551
C64 C 0.2095(5) 0.3494(4) 0.0221(3)
H63 H 0.1839 0.3432 0.0013
H64 H 0.2005 0.3301 0.0451
H65 H 0.2447 0.3406 0.0129
C65 C 0.2186(4) 0.4199(4) -0.0350(3)
H66 H 0.1967 0.3929 -0.0403
C66 C 0.2440(5) 0.4475(4) -0.0667(3)
C67 C 0.2377(5) 0.4360(4) -0.1058(3)
H67 H 0.2153 0.4105 -0.1139
C68 C 0.2658(5) 0.4637(4) -0.1326(3)
H68 H 0.2635 0.4568 -0.1597
C69 C 0.2969(5) 0.5013(4) -0.1196(3)
H69 H 0.3153 0.5210 -0.1378
C70 C 0.3013(5) 0.5103(4) -0.0795(3)
H70 H 0.3234 0.5357 -0.0706
C71 C 0.1725(5) 0.5436(4) -0.0966(3)
H71 H 0.1974 0.5659 -0.1065
C72 C 0.1409(5) 0.5174(4) -0.1222(4)
H72 H 0.1440 0.5219 -0.1497
C73 C 0.1049(6) 0.4847(5) -0.1073(4)
H73 H 0.0835 0.4662 -0.1245
C74 C 0.1000(5) 0.4789(5) -0.0676(4)
H74 H 0.0752 0.4566 -0.0574
C75 C 0.1309(5) 0.5052(4) -0.0426(3)
H75 H 0.1268 0.5011 -0.0152
C76 C 0.1674(4) 0.5370(4) -0.0563(3)
C77 C 0.2020(5) 0.5669(3) -0.0299(3)
H76 H 0.2340 0.5753 -0.0454
C78 C 0.1759(5) 0.6145(4) -0.0189(3)
H77 H 0.1433 0.6081 -0.0045
H78 H 0.1677 0.6327 -0.0428
H79 H 0.1998 0.6334 -0.0025
C79 C 0.2091(5) 0.5519(4) 0.0389(3)
H80 H 0.1835 0.5763 0.0436
C80 C 0.2361(5) 0.5282(4) 0.0709(3)
C81 C 0.2271(5) 0.5391(4) 0.1101(3)
H81 H 0.2022 0.5630 0.1175
C82 C 0.2557(5) 0.5138(4) 0.1380(3)
H82 H 0.2503 0.5195 0.1651
C83 C 0.2924(5) 0.4800(4) 0.1255(3)
H83 H 0.3125 0.4627 0.1442
C84 C 0.2997(5) 0.4716(4) 0.0867(3)
H84 H 0.3255 0.4487 0.0788
C85 C 0.6682(5) 0.2712(4) -0.1299(3)
H85 H 0.6884 0.2999 -0.1286
C86 C 0.6914(5) 0.2279(4) -0.1211(3)
H86 H 0.7276 0.2267 -0.1142
C87 C 0.6619(5) 0.1855(4) -0.1221(3)
H87 H 0.6777 0.1555 -0.1158
C88 C 0.6103(6) 0.1876(4) -0.1323(3)
H88 H 0.5899 0.1589 -0.1326
C89 C 0.5869(5) 0.2318(4) -0.1422(3)
H89 H 0.5511 0.2325 -0.1499
C90 C 0.6153(5) 0.2738(4) -0.1409(2)
C91 C 0.5933(5) 0.3224(4) -0.1538(3)
H90 H 0.6121 0.3475 -0.1381
C92 C 0.6061(5) 0.3327(4) -0.1966(3)
H91 H 0.5917 0.3069 -0.2130
H92 H 0.6443 0.3342 -0.2000
H93 H 0.5905 0.3637 -0.2042
C93 C 0.5029(5) 0.3360(4) -0.1683(3)
H94 H 0.5127 0.3391 -0.1950
C94 C 0.4476(5) 0.3432(4) -0.1559(3)
C95 C 0.4077(5) 0.3478(5) -0.1829(3)
H95 H 0.4147 0.3464 -0.2101
C96 C 0.3567(6) 0.3544(5) -0.1690(4)
H96 H 0.3280 0.3578 -0.1866
C97 C 0.3488(5) 0.3560(5) -0.1290(4)
H97 H 0.3142 0.3602 -0.1190
C98 C 0.3900(5) 0.3515(4) -0.1038(4)
H98 H 0.3838 0.3526 -0.0765
C99 C 0.4204(7) 0.2176(8) -0.1404(5)
H99 H 0.4003 0.2465 -0.1409
C100 C 0.4214(9) 0.1850(9) -0.1743(5)
H100 H 0.4030 0.1920 -0.1978
C101 C 0.4506(9) 0.1435(9) -0.1698(5)
H101 H 0.4497 0.1214 -0.1909
C102 C 0.4811(8) 0.1304(8) -0.1382(5)
H102 H 0.5014 0.1016 -0.1377
C103 C 0.4798(7) 0.1620(6) -0.1081(5)
H103 H 0.5002 0.1549 -0.0856
C104 C 0.4494(7) 0.2053(6) -0.1081(4)
C105 C 0.4471(5) 0.2368(4) -0.0711(4)
H104 H 0.4192 0.2618 -0.0751
C106 C 0.4323(6) 0.2078(4) -0.0355(3)
H105 H 0.4549 0.1792 -0.0338
H106 H 0.3955 0.1977 -0.0375
H107 H 0.4369 0.2276 -0.0120
C107 C 0.5358(5) 0.2446(4) -0.0481(3)
H108 H 0.5321 0.2136 -0.0365
C108 C 0.5852(5) 0.2714(4) -0.0434(3)
C109 C 0.6281(5) 0.2520(4) -0.0255(3)
H109 H 0.6273 0.2199 -0.0158
C110 C 0.6725(6) 0.2798(4) -0.0219(4)
H110 H 0.7032 0.2666 -0.0102
C111 C 0.6726(5) 0.3271(4) -0.0353(3)
H111 H 0.7028 0.3471 -0.0331
C112 C 0.6258(5) 0.3440(4) -0.0523(3)
H112 H 0.6251 0.3763 -0.0617
C113 C 0.4914(7) 0.7673(5) -0.1404(7)
H113 H 0.4876 0.7653 -0.1128
C114 C 0.5249(8) 0.8015(7) -0.1552(7)
H114 H 0.5424 0.8247 -0.1395
C115 C 0.5305(9) 0.7991(7) -0.1920(7)
H115 H 0.5574 0.8194 -0.2020
C116 C 0.5041(8) 0.7719(6) -0.2211(7)
H116 H 0.5104 0.7751 -0.2483
C117 C 0.4634(7) 0.7360(6) -0.2032(6)
H117 H 0.4413 0.7165 -0.2190
C118 C 0.4618(6) 0.7345(5) -0.1641(6)
C119 C 0.4233(5) 0.7016(4) -0.1430(3)
H118 H 0.4324 0.7031 -0.1146
C120 C 0.3675(5) 0.7197(4) -0.1467(3)
H119 H 0.3555 0.7159 -0.1737
H120 H 0.3662 0.7539 -0.1394
H121 H 0.3446 0.7012 -0.1292
C121 C 0.3951(5) 0.6289(4) -0.1751(3)
H122 H 0.3664 0.6463 -0.1859
C122 C 0.3999(5) 0.5772(4) -0.1809(3)
C123 C 0.3669(5) 0.5497(4) -0.2028(3)
H123 H 0.3381 0.5638 -0.2164
C124 C 0.3762(6) 0.5006(4) -0.2050(3)
H124 H 0.3540 0.4805 -0.2203
C125 C 0.4183(5) 0.4808(4) -0.1845(3)
H125 H 0.4248 0.4470 -0.1856
C126 C 0.4506(5) 0.5106(4) -0.1626(3)
H126 H 0.4790 0.4970 -0.1483
C127 C 0.4775(5) 0.5413(4) -0.2593(3)
H127 H 0.4936 0.5114 -0.2529
C128 C 0.4379(6) 0.5421(5) -0.2877(3)
H128 H 0.4271 0.5133 -0.3004
C129 C 0.4148(6) 0.5860(6) -0.2968(4)
H129 H 0.3874 0.5873 -0.3156
C130 C 0.4314(6) 0.6279(5) -0.2785(3)
H130 H 0.4160 0.6580 -0.2853
C131 C 0.4707(5) 0.6258(5) -0.2504(3)
H131 H 0.4817 0.6548 -0.2379
C132 C 0.4942(5) 0.5831(4) -0.2400(3)
C133 C 0.5384(5) 0.5798(4) -0.2119(3)
H132 H 0.5367 0.5466 -0.2005
C134 C 0.5902(5) 0.5833(5) -0.2322(3)
H133 H 0.5928 0.6145 -0.2456
H134 H 0.5934 0.5571 -0.2513
H135 H 0.6186 0.5807 -0.2129
C135 C 0.5677(5) 0.6460(4) -0.1724(3)
H136 H 0.5938 0.6532 -0.1914
C136 C 0.5659(5) 0.6706(4) -0.1349(3)
C137 C 0.6025(5) 0.7043(5) -0.1225(4)
H137 H 0.6301 0.7140 -0.1395
C138 C 0.5990(5) 0.7236(4) -0.0860(3)
H138 H 0.6239 0.7467 -0.0772
C139 C 0.5587(5) 0.7088(4) -0.0622(3)
H139 H 0.5554 0.7217 -0.0365
C140 C 0.5228(5) 0.6749(4) -0.0757(3)
H140 H 0.4951 0.6647 -0.0590
C141 C 0.4986(5) 0.4629(4) 0.2615(3)
H141 H 0.5126 0.4936 0.2549
C142 C 0.4606(6) 0.4587(5) 0.2904(3)
H142 H 0.4478 0.4866 0.3034
C143 C 0.4414(6) 0.4133(5) 0.3000(3)
H143 H 0.4152 0.4105 0.3196
C144 C 0.4595(5) 0.3724(5) 0.2817(3)
H144 H 0.4461 0.3416 0.2885
C145 C 0.4978(5) 0.3771(4) 0.2530(3)
H145 H 0.5114 0.3492 0.2405
C146 C 0.5161(5) 0.4219(4) 0.2425(3)
C147 C 0.5590(5) 0.4276(4) 0.2113(3)
H146 H 0.5539 0.4602 0.1993
C148 C 0.6129(5) 0.4279(4) 0.2302(3)
H147 H 0.6198 0.3964 0.2421
H148 H 0.6141 0.4530 0.2504
H149 H 0.6397 0.4346 0.2103
C149 C 0.5915(5) 0.3634(4) 0.1712(3)
H150 H 0.6197 0.3588 0.1891
C150 C 0.5908(4) 0.3375(4) 0.1346(3)
C151 C 0.6301(5) 0.3077(4) 0.1209(4)
H151 H 0.6597 0.3007 0.1369
C152 C 0.6262(5) 0.2884(4) 0.0843(3)
H152 H 0.6529 0.2677 0.0744
C153 C 0.5827(5) 0.2995(4) 0.0619(3)
H153 H 0.5791 0.2863 0.0364
C154 C 0.5445(5) 0.3297(4) 0.0766(3)
H154 H 0.5147 0.3371 0.0609
C155 C 0.5300(6) 0.2392(4) 0.1521(4)
H155 H 0.5297 0.2391 0.1243
C156 C 0.5677(6) 0.2121(5) 0.1717(5)
H156 H 0.5924 0.1932 0.1575
C157 C 0.5687(7) 0.2133(5) 0.2124(5)
H157 H 0.5955 0.1967 0.2263
C158 C 0.5284(7) 0.2401(5) 0.2336(5)
H158 H 0.5276 0.2403 0.2614
C159 C 0.4913(6) 0.2651(4) 0.2119(4)
H159 H 0.4641 0.2818 0.2253
C160 C 0.4923(5) 0.2667(4) 0.1721(3)
C161 C 0.4515(5) 0.2951(4) 0.1493(3)
H160 H 0.4612 0.2925 0.1210
C162 C 0.3971(5) 0.2734(4) 0.1536(3)
H161 H 0.3860 0.2753 0.1810
H162 H 0.3978 0.2396 0.1453
H163 H 0.3722 0.2914 0.1372
C163 C 0.4181(5) 0.3659(4) 0.1799(3)
H164 H 0.3915 0.3466 0.1916
C164 C 0.4188(5) 0.4182(4) 0.1846(3)
C165 C 0.3827(5) 0.4440(4) 0.2072(3)
H165 H 0.3559 0.4278 0.2215
C166 C 0.3870(6) 0.4933(4) 0.2082(4)
H166 H 0.3630 0.5120 0.2232
C167 C 0.4266(6) 0.5156(4) 0.1872(4)
H167 H 0.4301 0.5497 0.1878
C168 C 0.4607(5) 0.4885(4) 0.1655(3)
H168 H 0.4873 0.5044 0.1507
C169 C 0.6483(4) 0.5254(3) 0.0717(3)
C170 C 0.5648(4) 0.5743(4) 0.1041(2)
C171 C 0.5748(4) 0.4790(4) 0.1189(3)
C172 C 0.5931(5) 0.5433(4) 0.1752(3)
C173 C 0.6736(5) 0.4892(4) 0.1400(3)
C174 C 0.6645(5) 0.5878(4) 0.1292(3)
C175 C 0.4173(4) 0.6439(3) 0.0121(2)
C176 C 0.3399(4) 0.5789(4) -0.0088(2)
C177 C 0.4106(5) 0.6139(3) -0.0648(2)
C178 C 0.3113(5) 0.6377(4) -0.0676(2)
C179 C 0.3863(5) 0.7027(4) -0.0428(3)
C180 C 0.3152(5) 0.6683(4) 0.0095(3)
C181 C 0.3508(4) 0.4064(3) 0.0145(2)
C182 C 0.4381(4) 0.3503(3) -0.0070(3)
C183 C 0.4285(4) 0.3813(3) 0.0694(2)
C184 C 0.4161(5) 0.2904(4) 0.0498(3)
C185 C 0.3313(4) 0.3466(3) 0.0734(3)
C186 C 0.3418(4) 0.3127(3) -0.0036(3)
C187 C 0.6485(4) 0.4904(4) -0.0764(2)
C188 C 0.5666(5) 0.4351(4) -0.1041(3)
C189 C 0.5653(4) 0.5297(4) -0.1187(2)
C190 C 0.5837(5) 0.4671(4) -0.1752(3)
C191 C 0.6592(5) 0.5305(4) -0.1459(3)
C192 C 0.6676(5) 0.4313(4) -0.1343(3)
B1 B 0.2518(10) 0.5367(9) 0.2530(6)
F1 F 0.2224(6) 0.5692(5) 0.2747(3)
F2 F 0.2759(6) 0.5585(5) 0.2240(3)
F3 F 0.2903(9) 0.5116(8) 0.2750(5)
F4 F 0.2257(9) 0.4984(8) 0.2384(5)
N49 N 0.4990(4) 0.5010(3) 0.0009(2)
C193 C 0.5297(4) 0.5295(4) -0.0293(3)
H169 H 0.5519 0.5067 -0.0443
H170 H 0.5044 0.5441 -0.0479
C194 C 0.5647(5) 0.5693(4) -0.0136(3)
H171 H 0.5429 0.5946 -0.0019
H172 H 0.5855 0.5829 -0.0350
H173 H 0.5883 0.5559 0.0063
C195 C 0.4637(4) 0.5357(3) 0.0231(3)
H174 H 0.4861 0.5606 0.0356
H175 H 0.4406 0.5524 0.0041
C196 C 0.4296(5) 0.5128(4) 0.0542(3)
H176 H 0.4103 0.4856 0.0430
H177 H 0.4047 0.5368 0.0642
H178 H 0.4519 0.5013 0.0757
C197 C 0.4677(4) 0.4626(3) -0.0199(3)
H179 H 0.4926 0.4404 -0.0331
H180 H 0.4484 0.4435 -0.0001
C198 C 0.4287(5) 0.4804(4) -0.0500(3)
H181 H 0.4063 0.5054 -0.0383
H182 H 0.4067 0.4535 -0.0588
H183 H 0.4476 0.4941 -0.0724
C199 C 0.5348(5) 0.4761(4) 0.0295(3)
H184 H 0.5126 0.4585 0.0486
H185 H 0.5542 0.5012 0.0442
C200 C 0.5744(5) 0.4409(4) 0.0132(3)
H186 H 0.5561 0.4156 -0.0014
H187 H 0.5944 0.4264 0.0347
H188 H 0.5985 0.4580 -0.0044
N50 N 0.7498(6) 0.4605(6) -0.2485(3)
C201 C 0.7735(8) 0.4536(9) -0.2100(5)
H189 H 0.7617 0.4221 -0.1995
H190 H 0.7604 0.4791 -0.1923
C202 C 0.8365(8) 0.4548(9) -0.2099(6)
H191 H 0.8496 0.4429 -0.1847
H192 H 0.8486 0.4880 -0.2140
H193 H 0.8499 0.4342 -0.2310
C203 C 0.7670(8) 0.5079(7) -0.2659(5)
H194 H 0.7506 0.5115 -0.2920
H195 H 0.8056 0.5073 -0.2695
C204 C 0.7526(8) 0.5513(8) -0.2410(6)
H196 H 0.7146 0.5515 -0.2362
H197 H 0.7626 0.5810 -0.2546
H198 H 0.7712 0.5495 -0.2159
C205 C 0.6907(8) 0.4605(8) -0.2415(5)
H199 H 0.6823 0.4860 -0.2222
H200 H 0.6807 0.4291 -0.2298
C206 C 0.6578(7) 0.4685(7) -0.2770(5)
H201 H 0.6210 0.4726 -0.2693
H202 H 0.6609 0.4405 -0.2945
H203 H 0.6699 0.4975 -0.2907
C207 C 0.7668(9) 0.4243(8) -0.2789(5)
H204 H 0.8048 0.4289 -0.2843
H205 H 0.7475 0.4309 -0.3035
C208 C 0.7575(9) 0.3723(8) -0.2671(6)
H206 H 0.7642 0.3686 -0.2390
H207 H 0.7812 0.3512 -0.2818
H208 H 0.7209 0.3634 -0.2728
C209 C 0.7993(9) 0.3776(8) 0.1746(7)
H209 H 0.8193 0.3751 0.1502
H210 H 0.8101 0.3519 0.1925
H211 H 0.8061 0.4091 0.1867
O1 O 0.7446(6) 0.3731(5) 0.1664(4)
H212 H 0.7332 0.3993 0.1575
C210 C 0.2269(8) 0.6031(8) -0.1859(5)
H213 H 0.2364 0.5705 -0.1773
H214 H 0.2236 0.6036 -0.2145
H215 H 0.1933 0.6124 -0.1741
O2 O 0.2668(4) 0.6363(4) -0.1741(3)
H216 H 0.2693 0.6361 -0.1496
C211 C 0.2672(8) 0.7606(10) -0.0764(11)
H217 H 0.2803 0.7273 -0.0766
H218 H 0.2504 0.7677 -0.1015
H219 H 0.2416 0.7645 -0.0553
O3 O 0.3084(7) 0.7916(5) -0.0707(5)
H220 H 0.3335 0.7767 -0.0602
C212 C 0.4201(9) 0.8562(7) -0.0651(10)
H221 H 0.3862 0.8395 -0.0671
H222 H 0.4336 0.8629 -0.0914
H223 H 0.4154 0.8866 -0.0509
O4 O 0.4564(6) 0.8265(5) -0.0447(5)
H224 H 0.4750 0.8113 -0.0608
C213 C 0.2318(8) 0.7131(8) 0.1180(6)
H225 H 0.2700 0.7116 0.1142
H226 H 0.2211 0.6885 0.1369
H227 H 0.2220 0.7451 0.1278
O5 O 0.2071(4) 0.7048(3) 0.0830(3)
H228 H 0.2296 0.7022 0.0652
C214 C 0.3097(7) 0.2127(6) 0.0676(5)
H229 H 0.2807 0.1907 0.0738
H230 H 0.3029 0.2283 0.0424
H231 H 0.3126 0.2372 0.0881
O6 O 0.3581(5) 0.1857(4) 0.0653(4)
C215 C 0.4821(11) 0.1404(9) 0.0604(12)
H232 H 0.5007 0.1110 0.0526
H233 H 0.4481 0.1419 0.0470
H234 H 0.4765 0.1402 0.0887
O7 O 0.5123(7) 0.1810(5) 0.0501(5)
H235 H 0.5155 0.1992 0.0696
C216 C 0.2383(7) 0.3879(7) 0.1879(5)
H236 H 0.2428 0.4045 0.2130
H237 H 0.2086 0.3655 0.1896
H238 H 0.2316 0.4116 0.1673
O8 O 0.2871(4) 0.3604(5) 0.1784(3)
H239 H 0.2939 0.3411 0.1967
C217 C 0.2822(7) 0.2349(6) -0.1105(4)
H240 H 0.3092 0.2147 -0.0983
H241 H 0.2992 0.2603 -0.1260
H242 H 0.2601 0.2151 -0.1276
O9 O 0.2508(4) 0.2562(4) -0.0812(3)
H243 H 0.2695 0.2626 -0.0616
C218 C 0.7684(12) 0.6529(12) -0.1647(10)
H244 H 0.7843 0.6514 -0.1907
H245 H 0.7782 0.6241 -0.1498
H246 H 0.7811 0.6817 -0.1510
O10 O 0.7134(7) 0.6551(5) -0.1682(4)
H247 H 0.7006 0.6275 -0.1643
C219 C 0.7835(9) 0.3085(8) -0.1783(7)
H248 H 0.7881 0.2847 -0.1574
H249 H 0.8105 0.3035 -0.1983
H250 H 0.7486 0.3046 -0.1900
O11 O 0.7882(7) 0.3552(6) -0.1627(5)
O12 O 0.5117(8) 0.6028(6) 0.2577(4)
O13 O 0.7734(10) 0.6837(9) 0.1423(9)
O14 O 0.5055(9) 0.4057(6) -0.2578(5)
C220 C 0.1548(18) 0.7520(12) 0.2330(12)
H251 H 0.1898 0.7422 0.2418
H252 H 0.1482 0.7390 0.2068
H253 H 0.1283 0.7395 0.2512
O15 O 0.1520(7) 0.7996(5) 0.2320(6)
H254 H 0.1825 0.8112 0.2306
C221 C 0.0383(8) 0.5797(6) 0.0394(7)
H255 H 0.0716 0.5627 0.0433
H256 H 0.0205 0.5665 0.0163
H257 H 0.0159 0.5754 0.0624
O16 O 0.0480(5) 0.6280(4) 0.0338(6)
H258 H 0.0233 0.6403 0.0209
C222 C 0.6837(11) 0.2260(7) -0.2344(6)
H259 H 0.6512 0.2290 -0.2192
H260 H 0.6886 0.2551 -0.2503
H261 H 0.7135 0.2222 -0.2166
O17 O 0.6803(8) 0.1854(8) -0.2590(5)
H262 H 0.6970 0.1624 -0.2490
C223 C 0.8299(12) 0.2086(11) -0.2685(7)
H263 H 0.8046 0.2329 -0.2596
H264 H 0.8161 0.1923 -0.2918
H265 H 0.8634 0.2242 -0.2748
O18 O 0.8371(7) 0.1772(9) -0.2410(5)
C224 C 0.6292(12) 0.3681(8) -0.3325(6)
O19 O 0.6161(9) 0.3459(6) -0.2969(9)
C225 C 0.5273(18) 0.4332(10) -0.3395(8)
H266 H 0.4934 0.4380 -0.3264
H267 H 0.5530 0.4208 -0.3206
H268 H 0.5230 0.4100 -0.3608
O20 O 0.5458(14) 0.4795(10) -0.3553(7)
H269 H 0.5415 0.5013 -0.3385
O21 O 0.126(2) 0.6001(11) 0.2186(10)
O22 O 0.0956(10) 0.5764(8) 0.1497(7)
O23 O 0.1364(4) 0.6303(3) 0.0859(3)
O24 O 0.7598(11) 0.2290(12) -0.3044(7)
O25 O 0.6960(6) 0.3130(8) 0.2164(5)
O26 O 0.6912(6) 0.1763(4) 0.1149(5)
O27 O 0.6192(6) 0.1633(4) 0.0541(4)
O28 O 0.597(3) 0.0865(8) 0.2002(9)
O29 O 0.3734(9) 0.1138(5) 0.1181(5)
loop_
_geom_bond_atom_site_label_1
_geom_bond_atom_site_label_2
_geom_bond_site_symmetry_1
_geom_bond_site_symmetry_2
Co1 N1 1_555 1_555
Co2 N5 1_555 1_555
Co3 N9 1_555 1_555
Co4 N13 1_555 1_555
Co5 N17 1_555 1_555
Co6 N21 1_555 1_555
Fe1 C169 1_555 1_555
Fe2 C175 1_555 1_555
Fe3 C181 1_555 1_555
Fe4 C187 1_555 1_555
N1 C7 1_555 1_555
N2 Co1 1_555 1_555
N3 Co1 1_555 1_555
N4 Co1 1_555 1_555
N5 C35 1_555 1_555
N6 Co2 1_555 1_555
N7 Co2 1_555 1_555
N8 Co2 1_555 1_555
N9 C63 1_555 1_555
N10 Co3 1_555 1_555
N11 Co3 1_555 1_555
N12 Co3 1_555 1_555
N13 C91 1_555 1_555
N14 Co4 1_555 1_555
N15 Co4 1_555 1_555
N16 Co4 1_555 1_555
N17 C119 1_555 1_555
N18 Co5 1_555 1_555
N19 Co5 1_555 1_555
N20 Co5 1_555 1_555
N21 C147 1_555 1_555
N22 Co6 1_555 1_555
N23 Co6 1_555 1_555
N24 Co6 1_555 1_555
N25 Co1 1_555 1_555
N26 Co2 1_555 1_555
N27 Co6 1_555 1_555
N28 C172 1_555 1_555
N29 C173 1_555 1_555
N30 C174 1_555 1_555
N31 Co2 1_555 1_555
N32 Co3 1_555 1_555
N33 Co5 1_555 1_555
N34 C178 1_555 1_555
N35 C179 1_555 1_555
N36 C180 1_555 1_555
N37 Co3 1_555 1_555
N38 Co4 1_555 1_555
N39 Co6 1_555 1_555
N40 C184 1_555 1_555
N41 C185 1_555 1_555
N42 C186 1_555 1_555
N43 Co1 1_555 1_555
N44 Co4 1_555 1_555
N45 Co5 1_555 1_555
N46 C190 1_555 1_555
N47 C191 1_555 1_555
N48 C192 1_555 1_555
C1 H1 1_555 1_555
C2 C1 1_555 1_555
H2 C2 1_555 1_555
C3 C2 1_555 1_555
H3 C3 1_555 1_555
C4 C3 1_555 1_555
H4 C4 1_555 1_555
C5 C4 1_555 1_555
H5 C5 1_555 1_555
C6 C1 1_555 1_555
C7 C6 1_555 1_555
H6 C7 1_555 1_555
C8 C7 1_555 1_555
H7 C8 1_555 1_555
H8 C8 1_555 1_555
H9 C8 1_555 1_555
C9 N1 1_555 1_555
H10 C9 1_555 1_555
C10 N2 1_555 1_555
C11 C10 1_555 1_555
H11 C11 1_555 1_555
C12 C11 1_555 1_555
H12 C12 1_555 1_555
C13 C12 1_555 1_555
H13 C13 1_555 1_555
C14 N2 1_555 1_555
H14 C14 1_555 1_555
C15 H15 1_555 1_555
C16 C15 1_555 1_555
H16 C16 1_555 1_555
C17 C16 1_555 1_555
H17 C17 1_555 1_555
C18 C17 1_555 1_555
H18 C18 1_555 1_555
C19 C18 1_555 1_555
H19 C19 1_555 1_555
C20 C15 1_555 1_555
C21 N3 1_555 1_555
H20 C21 1_555 1_555
C22 C21 1_555 1_555
H21 C22 1_555 1_555
H22 C22 1_555 1_555
H23 C22 1_555 1_555
C23 N3 1_555 1_555
H24 C23 1_555 1_555
C24 N4 1_555 1_555
C25 C24 1_555 1_555
H25 C25 1_555 1_555
C26 C25 1_555 1_555
H26 C26 1_555 1_555
C27 C26 1_555 1_555
H27 C27 1_555 1_555
C28 N4 1_555 1_555
H28 C28 1_555 1_555
C29 H29 1_555 1_555
C30 C29 1_555 1_555
H30 C30 1_555 1_555
C31 C30 1_555 1_555
H31 C31 1_555 1_555
C32 C31 1_555 1_555
H32 C32 1_555 1_555
C33 C32 1_555 1_555
H33 C33 1_555 1_555
C34 C29 1_555 1_555
C35 C34 1_555 1_555
H34 C35 1_555 1_555
C36 C35 1_555 1_555
H35 C36 1_555 1_555
H36 C36 1_555 1_555
H37 C36 1_555 1_555
C37 N5 1_555 1_555
H38 C37 1_555 1_555
C38 N6 1_555 1_555
C39 C38 1_555 1_555
H39 C39 1_555 1_555
C40 C39 1_555 1_555
H40 C40 1_555 1_555
C41 C40 1_555 1_555
H41 C41 1_555 1_555
C42 N6 1_555 1_555
H42 C42 1_555 1_555
C43 H43 1_555 1_555
C44 C43 1_555 1_555
H44 C44 1_555 1_555
C45 C44 1_555 1_555
H45 C45 1_555 1_555
C46 C45 1_555 1_555
H46 C46 1_555 1_555
C47 C46 1_555 1_555
H47 C47 1_555 1_555
C48 C43 1_555 1_555
C49 N7 1_555 1_555
H48 C49 1_555 1_555
C50 C49 1_555 1_555
H49 C50 1_555 1_555
H50 C50 1_555 1_555
H51 C50 1_555 1_555
C51 N7 1_555 1_555
H52 C51 1_555 1_555
C52 N8 1_555 1_555
C53 C52 1_555 1_555
H53 C53 1_555 1_555
C54 C53 1_555 1_555
H54 C54 1_555 1_555
C55 C54 1_555 1_555
H55 C55 1_555 1_555
C56 N8 1_555 1_555
H56 C56 1_555 1_555
C57 H57 1_555 1_555
C58 C57 1_555 1_555
H58 C58 1_555 1_555
C59 C58 1_555 1_555
H59 C59 1_555 1_555
C60 C59 1_555 1_555
H60 C60 1_555 1_555
C61 C60 1_555 1_555
H61 C61 1_555 1_555
C62 C57 1_555 1_555
C63 C62 1_555 1_555
H62 C63 1_555 1_555
C64 C63 1_555 1_555
H63 C64 1_555 1_555
H64 C64 1_555 1_555
H65 C64 1_555 1_555
C65 N9 1_555 1_555
H66 C65 1_555 1_555
C66 N10 1_555 1_555
C67 C66 1_555 1_555
H67 C67 1_555 1_555
C68 C67 1_555 1_555
H68 C68 1_555 1_555
C69 C68 1_555 1_555
H69 C69 1_555 1_555
C70 N10 1_555 1_555
H70 C70 1_555 1_555
C71 H71 1_555 1_555
C72 C71 1_555 1_555
H72 C72 1_555 1_555
C73 C72 1_555 1_555
H73 C73 1_555 1_555
C74 C73 1_555 1_555
H74 C74 1_555 1_555
C75 C74 1_555 1_555
H75 C75 1_555 1_555
C76 C71 1_555 1_555
C77 N11 1_555 1_555
H76 C77 1_555 1_555
C78 C77 1_555 1_555
H77 C78 1_555 1_555
H78 C78 1_555 1_555
H79 C78 1_555 1_555
C79 N11 1_555 1_555
H80 C79 1_555 1_555
C80 N12 1_555 1_555
C81 C80 1_555 1_555
H81 C81 1_555 1_555
C82 C81 1_555 1_555
H82 C82 1_555 1_555
C83 C82 1_555 1_555
H83 C83 1_555 1_555
C84 N12 1_555 1_555
H84 C84 1_555 1_555
C85 H85 1_555 1_555
C86 C85 1_555 1_555
H86 C86 1_555 1_555
C87 C86 1_555 1_555
H87 C87 1_555 1_555
C88 C87 1_555 1_555
H88 C88 1_555 1_555
C89 C88 1_555 1_555
H89 C89 1_555 1_555
C90 C85 1_555 1_555
C91 C90 1_555 1_555
H90 C91 1_555 1_555
C92 C91 1_555 1_555
H91 C92 1_555 1_555
H92 C92 1_555 1_555
H93 C92 1_555 1_555
C93 N13 1_555 1_555
H94 C93 1_555 1_555
C94 N14 1_555 1_555
C95 C94 1_555 1_555
H95 C95 1_555 1_555
C96 C95 1_555 1_555
H96 C96 1_555 1_555
C97 C96 1_555 1_555
H97 C97 1_555 1_555
C98 N14 1_555 1_555
H98 C98 1_555 1_555
C99 H99 1_555 1_555
C100 C99 1_555 1_555
H100 C100 1_555 1_555
C101 C100 1_555 1_555
H101 C101 1_555 1_555
C102 C101 1_555 1_555
H102 C102 1_555 1_555
C103 C102 1_555 1_555
H103 C103 1_555 1_555
C104 C99 1_555 1_555
C105 N15 1_555 1_555
H104 C105 1_555 1_555
C106 C105 1_555 1_555
H105 C106 1_555 1_555
H106 C106 1_555 1_555
H107 C106 1_555 1_555
C107 N15 1_555 1_555
H108 C107 1_555 1_555
C108 N16 1_555 1_555
C109 C108 1_555 1_555
H109 C109 1_555 1_555
C110 C109 1_555 1_555
H110 C110 1_555 1_555
C111 C110 1_555 1_555
H111 C111 1_555 1_555
C112 N16 1_555 1_555
H112 C112 1_555 1_555
C113 H113 1_555 1_555
C114 C113 1_555 1_555
H114 C114 1_555 1_555
C115 C114 1_555 1_555
H115 C115 1_555 1_555
C116 C115 1_555 1_555
H116 C116 1_555 1_555
C117 C116 1_555 1_555
H117 C117 1_555 1_555
C118 C113 1_555 1_555
C119 C118 1_555 1_555
H118 C119 1_555 1_555
C120 C119 1_555 1_555
H119 C120 1_555 1_555
H120 C120 1_555 1_555
H121 C120 1_555 1_555
C121 N17 1_555 1_555
H122 C121 1_555 1_555
C122 N18 1_555 1_555
C123 C122 1_555 1_555
H123 C123 1_555 1_555
C124 C123 1_555 1_555
H124 C124 1_555 1_555
C125 C124 1_555 1_555
H125 C125 1_555 1_555
C126 N18 1_555 1_555
H126 C126 1_555 1_555
C127 H127 1_555 1_555
C128 C127 1_555 1_555
H128 C128 1_555 1_555
C129 C128 1_555 1_555
H129 C129 1_555 1_555
C130 C129 1_555 1_555
H130 C130 1_555 1_555
C131 C130 1_555 1_555
H131 C131 1_555 1_555
C132 C127 1_555 1_555
C133 N19 1_555 1_555
H132 C133 1_555 1_555
C134 C133 1_555 1_555
H133 C134 1_555 1_555
H134 C134 1_555 1_555
H135 C134 1_555 1_555
C135 N19 1_555 1_555
H136 C135 1_555 1_555
C136 N20 1_555 1_555
C137 C136 1_555 1_555
H137 C137 1_555 1_555
C138 C137 1_555 1_555
H138 C138 1_555 1_555
C139 C138 1_555 1_555
H139 C139 1_555 1_555
C140 N20 1_555 1_555
H140 C140 1_555 1_555
C141 H141 1_555 1_555
C142 C141 1_555 1_555
H142 C142 1_555 1_555
C143 C142 1_555 1_555
H143 C143 1_555 1_555
C144 C143 1_555 1_555
H144 C144 1_555 1_555
C145 C144 1_555 1_555
H145 C145 1_555 1_555
C146 C141 1_555 1_555
C147 C146 1_555 1_555
H146 C147 1_555 1_555
C148 C147 1_555 1_555
H147 C148 1_555 1_555
H148 C148 1_555 1_555
H149 C148 1_555 1_555
C149 N21 1_555 1_555
H150 C149 1_555 1_555
C150 N22 1_555 1_555
C151 C150 1_555 1_555
H151 C151 1_555 1_555
C152 C151 1_555 1_555
H152 C152 1_555 1_555
C153 C152 1_555 1_555
H153 C153 1_555 1_555
C154 N22 1_555 1_555
H154 C154 1_555 1_555
C155 H155 1_555 1_555
C156 C155 1_555 1_555
H156 C156 1_555 1_555
C157 C156 1_555 1_555
H157 C157 1_555 1_555
C158 C157 1_555 1_555
H158 C158 1_555 1_555
C159 C158 1_555 1_555
H159 C159 1_555 1_555
C160 C155 1_555 1_555
C161 N23 1_555 1_555
H160 C161 1_555 1_555
C162 C161 1_555 1_555
H161 C162 1_555 1_555
H162 C162 1_555 1_555
H163 C162 1_555 1_555
C163 N23 1_555 1_555
H164 C163 1_555 1_555
C164 N24 1_555 1_555
C165 C164 1_555 1_555
H165 C165 1_555 1_555
C166 C165 1_555 1_555
H166 C166 1_555 1_555
C167 C166 1_555 1_555
H167 C167 1_555 1_555
C168 N24 1_555 1_555
H168 C168 1_555 1_555
C169 N25 1_555 1_555
C170 Fe1 1_555 1_555
C171 Fe1 1_555 1_555
C172 Fe1 1_555 1_555
C173 Fe1 1_555 1_555
C174 Fe1 1_555 1_555
C175 N31 1_555 1_555
C176 Fe2 1_555 1_555
C177 Fe2 1_555 1_555
C178 Fe2 1_555 1_555
C179 Fe2 1_555 1_555
C180 Fe2 1_555 1_555
C181 N37 1_555 1_555
C182 Fe3 1_555 1_555
C183 Fe3 1_555 1_555
C184 Fe3 1_555 1_555
C185 Fe3 1_555 1_555
C186 Fe3 1_555 1_555
C187 N43 1_555 1_555
C188 Fe4 1_555 1_555
C189 Fe4 1_555 1_555
C190 Fe4 1_555 1_555
C191 Fe4 1_555 1_555
C192 Fe4 1_555 1_555
B1 F1 1_555 1_555
F2 B1 1_555 1_555
F3 B1 1_555 1_555
F4 B1 1_555 1_555
N49 C193 1_555 1_555
C193 H169 1_555 1_555
H170 C193 1_555 1_555
C194 C193 1_555 1_555
H171 C194 1_555 1_555
H172 C194 1_555 1_555
H173 C194 1_555 1_555
C195 N49 1_555 1_555
H174 C195 1_555 1_555
H175 C195 1_555 1_555
C196 C195 1_555 1_555
H176 C196 1_555 1_555
H177 C196 1_555 1_555
H178 C196 1_555 1_555
C197 N49 1_555 1_555
H179 C197 1_555 1_555
H180 C197 1_555 1_555
C198 C197 1_555 1_555
H181 C198 1_555 1_555
H182 C198 1_555 1_555
H183 C198 1_555 1_555
C199 N49 1_555 1_555
H184 C199 1_555 1_555
H185 C199 1_555 1_555
C200 C199 1_555 1_555
H186 C200 1_555 1_555
H187 C200 1_555 1_555
H188 C200 1_555 1_555
N50 C201 1_555 1_555
C201 H189 1_555 1_555
H190 C201 1_555 1_555
C202 C201 1_555 1_555
H191 C202 1_555 1_555
H192 C202 1_555 1_555
H193 C202 1_555 1_555
C203 N50 1_555 1_555
H194 C203 1_555 1_555
H195 C203 1_555 1_555
C204 C203 1_555 1_555
H196 C204 1_555 1_555
H197 C204 1_555 1_555
H198 C204 1_555 1_555
C205 N50 1_555 1_555
H199 C205 1_555 1_555
H200 C205 1_555 1_555
C206 C205 1_555 1_555
H201 C206 1_555 1_555
H202 C206 1_555 1_555
H203 C206 1_555 1_555
C207 N50 1_555 1_555
H204 C207 1_555 1_555
H205 C207 1_555 1_555
C208 C207 1_555 1_555
H206 C208 1_555 1_555
H207 C208 1_555 1_555
H208 C208 1_555 1_555
C209 H209 1_555 1_555
H210 C209 1_555 1_555
H211 C209 1_555 1_555
O1 C209 1_555 1_555
H212 O1 1_555 1_555
C210 H213 1_555 1_555
H214 C210 1_555 1_555
H215 C210 1_555 1_555
O2 C210 1_555 1_555
H216 O2 1_555 1_555
C211 H217 1_555 1_555
H218 C211 1_555 1_555
H219 C211 1_555 1_555
O3 C211 1_555 1_555
H220 O3 1_555 1_555
C212 H221 1_555 1_555
H222 C212 1_555 1_555
H223 C212 1_555 1_555
O4 C212 1_555 1_555
H224 O4 1_555 1_555
C213 H225 1_555 1_555
H226 C213 1_555 1_555
H227 C213 1_555 1_555
O5 C213 1_555 1_555
H228 O5 1_555 1_555
C214 H229 1_555 1_555
H230 C214 1_555 1_555
H231 C214 1_555 1_555
O6 C214 1_555 1_555
C215 H232 1_555 1_555
H233 C215 1_555 1_555
H234 C215 1_555 1_555
O7 C215 1_555 1_555
H235 O7 1_555 1_555
C216 H236 1_555 1_555
H237 C216 1_555 1_555
H238 C216 1_555 1_555
O8 C216 1_555 1_555
H239 O8 1_555 1_555
C217 H240 1_555 1_555
H241 C217 1_555 1_555
H242 C217 1_555 1_555
O9 C217 1_555 1_555
H243 O9 1_555 1_555
C218 H244 1_555 1_555
H245 C218 1_555 1_555
H246 C218 1_555 1_555
O10 C218 1_555 1_555
H247 O10 1_555 1_555
C219 H248 1_555 1_555
H249 C219 1_555 1_555
H250 C219 1_555 1_555
O11 C219 1_555 1_555
C220 H251 1_555 1_555
H252 C220 1_555 1_555
H253 C220 1_555 1_555
O15 C220 1_555 1_555
H254 O15 1_555 1_555
C221 H255 1_555 1_555
H256 C221 1_555 1_555
H257 C221 1_555 1_555
O16 C221 1_555 1_555
H258 O16 1_555 1_555
C222 H259 1_555 1_555
H260 C222 1_555 1_555
H261 C222 1_555 1_555
O17 C222 1_555 1_555
H262 O17 1_555 1_555
C223 H263 1_555 1_555
H264 C223 1_555 1_555
H265 C223 1_555 1_555
O18 C223 1_555 1_555
C224 O19 1_555 1_555
C225 H266 1_555 1_555
H267 C225 1_555 1_555
H268 C225 1_555 1_555
O20 C225 1_555 1_555
H269 O20 1_555 1_555
N26 C170 1_555 1_555
N27 C171 1_555 1_555
N32 C176 1_555 1_555
N33 C177 1_555 1_555
N38 C182 1_555 1_555
N39 C183 1_555 1_555
N44 C188 1_555 1_555
N45 C189 1_555 1_555
C5 C6 1_555 1_555
C9 C10 1_555 1_555
C13 C14 1_555 1_555
C19 C20 1_555 1_555
C20 C21 1_555 1_555
C23 C24 1_555 1_555
C27 C28 1_555 1_555
C33 C34 1_555 1_555
C37 C38 1_555 1_555
C41 C42 1_555 1_555
C47 C48 1_555 1_555
C48 C49 1_555 1_555
C51 C52 1_555 1_555
C55 C56 1_555 1_555
C61 C62 1_555 1_555
C65 C66 1_555 1_555
C69 C70 1_555 1_555
C75 C76 1_555 1_555
C76 C77 1_555 1_555
C79 C80 1_555 1_555
C83 C84 1_555 1_555
C89 C90 1_555 1_555
C93 C94 1_555 1_555
C97 C98 1_555 1_555
C103 C104 1_555 1_555
C104 C105 1_555 1_555
C107 C108 1_555 1_555
C111 C112 1_555 1_555
C117 C118 1_555 1_555
C121 C122 1_555 1_555
C125 C126 1_555 1_555
C131 C132 1_555 1_555
C132 C133 1_555 1_555
C135 C136 1_555 1_555
C139 C140 1_555 1_555
C145 C146 1_555 1_555
C149 C150 1_555 1_555
C153 C154 1_555 1_555
C159 C160 1_555 1_555
C160 C161 1_555 1_555
C163 C164 1_555 1_555
C167 C168 1_555 1_555

#END
