
#######################################################################
#
#                 Cambridge Crystallographic Data Centre
#                                CCDC 
#
#######################################################################
#
# If this CIF has been generated from an entry in the Cambridge 
# Structural Database, then it will include bibliographic, chemical, 
# crystal, experimental, refinement or atomic coordinate data resulting 
# from the CCDC's data processing and validation procedures.
#
#######################################################################

data_EHAROU
_chemical_formula_moiety         'C44 H32 F8 N4 Pt1 2+,2(N1 O3 1-),2(H2 O1)'
_chemical_name_systematic        
"(1,3-bis(3-(2,3,5,6-tetrafluoro-4-(4-pyridylmethyl)phenyl)phenyl)phenyl-N,N')-(ethylene-1,2-diamino)-platinum(ii) dinitrate dihydrate"
_symmetry_cell_setting           triclinic
_symmetry_space_group_name_H-M   'P -1'
_symmetry_Int_Tables_number      2
_space_group_name_Hall           '-P 1'
loop_
_symmetry_equiv_pos_site_id
_symmetry_equiv_pos_as_xyz
1 x,y,z
2 -x,-y,-z
_cell_length_a                   9.603(2)
_cell_length_b                   13.484(3)
_cell_length_c                   17.828(4)
_cell_angle_alpha                88.621(5)
_cell_angle_beta                 82.884(6)
_cell_angle_gamma                70.382(4)
_cell_volume                     2157.36
_cell_formula_units_Z            2
_exptl_crystal_recrystallization_method dimethylformamide/methanol
loop_
_atom_site_label
_atom_site_type_symbol
_atom_site_fract_x
_atom_site_fract_y
_atom_site_fract_z
Pt1 Pt -0.49407(5) 0.70929(3) 0.89922(3)
F1 F -0.9054(8) 0.8681(5) 0.5775(4)
F2 F -0.8054(8) 0.8705(5) 0.4318(4)
F3 F -0.6839(9) 1.1719(5) 0.4761(4)
F4 F -0.7836(9) 1.1695(5) 0.6210(4)
F5 F -0.4375(9) 0.3971(7) 0.4304(4)
F6 F -0.4510(9) 0.3522(6) 0.5775(4)
F7 F 0.0299(9) 0.3641(6) 0.5819(4)
F8 F 0.0455(8) 0.4074(7) 0.4349(4)
N3 N -0.3570(10) 0.6280(7) 0.9732(5)
H1 H -0.3475 0.5579 0.9706
H2 H -0.2641 0.6336 0.9607
N4 N -0.5746(10) 0.8134(7) 0.9878(5)
H3 H -0.5850 0.8804 0.9712
H4 H -0.6669 0.8124 1.0082
C1 C -0.4157(13) 0.6686(9) 1.0502(6)
H5 H -0.3360 0.6460 1.0836
H6 H -0.4969 0.6421 1.0707
C2 C -0.4731(14) 0.7859(9) 1.0456(7)
H7 H -0.5263 0.8175 1.0950
H8 H -0.3895 0.8129 1.0319
N5 N -0.6316(9) 0.7995(6) 0.8282(5)
C3 C -0.5818(12) 0.8148(8) 0.7578(6)
H9 H -0.4808 0.7765 0.7400
C4 C -0.6655(12) 0.8820(8) 0.7085(7)
H10 H -0.6236 0.8895 0.6584
C5 C -0.8138(12) 0.9390(8) 0.7341(6)
C6 C -0.8667(12) 0.9190(9) 0.8034(7)
H11 H -0.9691 0.9529 0.8208
C7 C -0.7780(12) 0.8511(8) 0.8502(7)
H12 H -0.8203 0.8399 0.8993
C8 C -0.9129(13) 1.0205(9) 0.6860(6)
H13 H -1.0098 1.0088 0.6885
H14 H -0.9321 1.0912 0.7080
C9 C -0.8508(12) 1.0196(8) 0.6047(6)
C10 C -0.8507(12) 0.9439(9) 0.5529(7)
C11 C -0.7981(12) 0.9460(8) 0.4789(6)
C12 C -0.7403(12) 1.0207(8) 0.4499(6)
C13 C -0.7390(12) 1.0965(8) 0.5000(7)
C14 C -0.7916(13) 1.0938(9) 0.5752(7)
C15 C -0.6865(13) 1.0213(8) 0.3660(6)
C16 C -0.5622(12) 0.9377(8) 0.3334(7)
H15 H -0.5113 0.8820 0.3641
C17 C -0.5149(13) 0.9364(8) 0.2583(7)
C18 C -0.5953(14) 1.0151(9) 0.2128(7)
H16 H -0.5671 1.0119 0.1597
C19 C -0.7148(13) 1.0970(9) 0.2444(7)
H17 H -0.7674 1.1511 0.2131
C20 C -0.7599(13) 1.1022(8) 0.3214(7)
H18 H -0.8405 1.1607 0.3432
C21 C -0.3795(13) 0.8488(8) 0.2248(6)
C22 C -0.3457(12) 0.7463(8) 0.2515(6)
H19 H -0.4120 0.7312 0.2906
C23 C -0.2180(12) 0.6658(8) 0.2225(6)
C24 C -0.1223(14) 0.6916(9) 0.1667(6)
H20 H -0.0344 0.6383 0.1453
C25 C -0.1532(14) 0.7941(10) 0.1419(7)
H21 H -0.0848 0.8106 0.1048
C26 C -0.2800(14) 0.8708(9) 0.1701(7)
H22 H -0.3005 0.9405 0.1520
C27 C -0.1870(11) 0.5565(8) 0.2489(6)
C28 C -0.2107(11) 0.5340(8) 0.3238(6)
H23 H -0.2457 0.5896 0.3605
C29 C -0.1840(12) 0.4304(9) 0.3469(6)
C30 C -0.1355(13) 0.3497(8) 0.2929(7)
H24 H -0.1192 0.2792 0.3082
C31 C -0.1108(12) 0.3709(9) 0.2174(7)
H25 H -0.0771 0.3154 0.1807
C32 C -0.1357(12) 0.4740(8) 0.1959(7)
H26 H -0.1176 0.4889 0.1440
C33 C -0.1985(13) 0.4070(8) 0.4291(6)
C34 C -0.3179(14) 0.3909(9) 0.4680(8)
C35 C -0.3270(15) 0.3684(8) 0.5450(7)
C36 C -0.2112(15) 0.3573(8) 0.5839(6)
C37 C -0.0895(14) 0.3743(8) 0.5456(7)
C38 C -0.0796(14) 0.3952(9) 0.4696(6)
N6 N -0.4069(9) 0.5941(6) 0.8202(5)
C39 C -0.4857(12) 0.5336(9) 0.8022(7)
H27 H -0.5858 0.5499 0.8251
C40 C -0.4277(15) 0.4502(9) 0.7528(7)
H28 H -0.4877 0.4102 0.7419
C41 C -0.2855(14) 0.4236(8) 0.7190(6)
C42 C -0.2026(13) 0.4860(9) 0.7370(7)
H29 H -0.1015 0.4701 0.7160
C43 C -0.2693(13) 0.5690(8) 0.7848(7)
H30 H -0.2135 0.6130 0.7938
C44 C -0.2181(17) 0.3288(8) 0.6678(6)
H31 H -0.2775 0.2814 0.6775
H32 H -0.1160 0.2902 0.6797
N1 N -0.7830(11) 0.6432(9) 1.0222(6)
O1 O -0.7921(13) 0.5936(8) 0.9674(7)
O2 O -0.8364(10) 0.7413(6) 1.0189(5)
O3 O -0.7233(11) 0.6002(7) 1.0751(5)
N2 N 0.1987(12) 0.0439(9) 0.0556(7)
O4 O 0.3018(12) 0.0406(7) 0.0070(6)
O5 O 0.1249(12) 0.1295(7) 0.0895(6)
O6 O 0.1678(12) -0.0362(7) 0.0727(6)
O7 O 0.0970(10) 0.3261(7) 0.0504(6)
O8 O 0.7856(12) 0.2019(8) -0.1841(5)
loop_
_geom_bond_atom_site_label_1
_geom_bond_atom_site_label_2
_geom_bond_site_symmetry_1
_geom_bond_site_symmetry_2
Pt1 N3 1_555 1_555
F1 C10 1_555 1_555
F2 C11 1_555 1_555
F3 C13 1_555 1_555
F4 C14 1_555 1_555
F5 C34 1_555 1_555
F6 C35 1_555 1_555
F7 C37 1_555 1_555
F8 C38 1_555 1_555
N1 O1 1_555 1_555
O2 N1 1_555 1_555
O3 N1 1_555 1_555
N2 O4 1_555 1_555
O5 N2 1_555 1_555
O6 N2 1_555 1_555
N3 H1 1_555 1_555
H2 N3 1_555 1_555
N4 Pt1 1_555 1_555
H3 N4 1_555 1_555
H4 N4 1_555 1_555
C1 N3 1_555 1_555
H5 C1 1_555 1_555
H6 C1 1_555 1_555
C2 N4 1_555 1_555
H7 C2 1_555 1_555
H8 C2 1_555 1_555
N5 Pt1 1_555 1_555
C3 N5 1_555 1_555
H9 C3 1_555 1_555
C4 C3 1_555 1_555
H10 C4 1_555 1_555
C5 C4 1_555 1_555
C6 C5 1_555 1_555
H11 C6 1_555 1_555
C7 N5 1_555 1_555
H12 C7 1_555 1_555
C8 C5 1_555 1_555
H13 C8 1_555 1_555
H14 C8 1_555 1_555
C9 C8 1_555 1_555
C10 C9 1_555 1_555
C11 C10 1_555 1_555
C12 C11 1_555 1_555
C13 C12 1_555 1_555
C14 C9 1_555 1_555
C15 C12 1_555 1_555
C16 C15 1_555 1_555
H15 C16 1_555 1_555
C17 C16 1_555 1_555
C18 C17 1_555 1_555
H16 C18 1_555 1_555
C19 C18 1_555 1_555
H17 C19 1_555 1_555
C20 C15 1_555 1_555
H18 C20 1_555 1_555
C21 C17 1_555 1_555
C22 C21 1_555 1_555
H19 C22 1_555 1_555
C23 C22 1_555 1_555
C24 C23 1_555 1_555
H20 C24 1_555 1_555
C25 C24 1_555 1_555
H21 C25 1_555 1_555
C26 C21 1_555 1_555
H22 C26 1_555 1_555
C27 C23 1_555 1_555
C28 C27 1_555 1_555
H23 C28 1_555 1_555
C29 C28 1_555 1_555
C30 C29 1_555 1_555
H24 C30 1_555 1_555
C31 C30 1_555 1_555
H25 C31 1_555 1_555
C32 C27 1_555 1_555
H26 C32 1_555 1_555
C33 C29 1_555 1_555
C34 C33 1_555 1_555
C35 C34 1_555 1_555
C36 C35 1_555 1_555
C37 C36 1_555 1_555
C38 C33 1_555 1_555
N6 Pt1 1_555 1_555
C39 N6 1_555 1_555
H27 C39 1_555 1_555
C40 C39 1_555 1_555
H28 C40 1_555 1_555
C41 C40 1_555 1_555
C42 C41 1_555 1_555
H29 C42 1_555 1_555
C43 N6 1_555 1_555
H30 C43 1_555 1_555
C44 C36 1_555 1_555
H31 C44 1_555 1_555
H32 C44 1_555 1_555
C1 C2 1_555 1_555
C6 C7 1_555 1_555
C13 C14 1_555 1_555
C19 C20 1_555 1_555
C25 C26 1_555 1_555
C31 C32 1_555 1_555
C37 C38 1_555 1_555
C41 C44 1_555 1_555
C42 C43 1_555 1_555

#END
