# generated using pymatgen
data_H50PdC50N6O13F8
_symmetry_space_group_name_H-M   'P 1'
_cell_length_a   15.26730000
_cell_length_b   18.24840000
_cell_length_c   37.17600000
_cell_angle_alpha   90.00000000
_cell_angle_beta   90.00000000
_cell_angle_gamma   90.00000000
_symmetry_Int_Tables_number   1
_chemical_formula_structural   H50PdC50N6O13F8
_chemical_formula_sum   'H400 Pd8 C400 N48 O104 F64'
_cell_volume   10357.37476917
_cell_formula_units_Z   8
loop_
 _symmetry_equiv_pos_site_id
 _symmetry_equiv_pos_as_xyz
  1  'x, y, z'
loop_
 _atom_site_type_symbol
 _atom_site_label
 _atom_site_symmetry_multiplicity
 _atom_site_fract_x
 _atom_site_fract_y
 _atom_site_fract_z
 _atom_site_occupancy
  H  H1  1  0.945200  0.369900  0.164100  1
  H  H2  1  0.445200  0.130100  0.664100  1
  H  H3  1  0.054800  0.869900  0.164100  1
  H  H4  1  0.445200  0.369900  0.335900  1
  H  H5  1  0.054800  0.630100  0.835900  1
  H  H6  1  0.554800  0.869900  0.335900  1
  H  H7  1  0.945200  0.130100  0.835900  1
  H  H8  1  0.554800  0.630100  0.664100  1
  H  H9  1  0.991100  0.365500  0.105300  1
  H  H10  1  0.491100  0.134500  0.605300  1
  H  H11  1  0.008900  0.865500  0.105300  1
  H  H12  1  0.491100  0.365500  0.394700  1
  H  H13  1  0.008900  0.634500  0.894700  1
  H  H14  1  0.508900  0.865500  0.394700  1
  H  H15  1  0.991100  0.134500  0.894700  1
  H  H16  1  0.508900  0.634500  0.605300  1
  H  H17  1  0.889900  0.566600  0.090000  1
  H  H18  1  0.389900  0.933400  0.590000  1
  H  H19  1  0.110100  0.066600  0.090000  1
  H  H20  1  0.389900  0.566600  0.410000  1
  H  H21  1  0.110100  0.433400  0.910000  1
  H  H22  1  0.610100  0.066600  0.410000  1
  H  H23  1  0.889900  0.933400  0.910000  1
  H  H24  1  0.610100  0.433400  0.590000  1
  H  H25  1  0.843200  0.566400  0.148700  1
  H  H26  1  0.343200  0.933600  0.648700  1
  H  H27  1  0.156800  0.066400  0.148700  1
  H  H28  1  0.343200  0.566400  0.351300  1
  H  H29  1  0.156800  0.433600  0.851300  1
  H  H30  1  0.656800  0.066400  0.351300  1
  H  H31  1  0.843200  0.933600  0.851300  1
  H  H32  1  0.656800  0.433600  0.648700  1
  H  H33  1  0.996500  0.524700  0.047300  1
  H  H34  1  0.496500  0.975300  0.547300  1
  H  H35  1  0.003500  0.024700  0.047300  1
  H  H36  1  0.496500  0.524700  0.452700  1
  H  H37  1  0.003500  0.475300  0.952700  1
  H  H38  1  0.503500  0.024700  0.452700  1
  H  H39  1  0.996500  0.975300  0.952700  1
  H  H40  1  0.503500  0.475300  0.547300  1
  H  H41  1  0.056400  0.456200  0.057600  1
  H  H42  1  0.556400  0.043800  0.557600  1
  H  H43  1  0.943600  0.956200  0.057600  1
  H  H44  1  0.556400  0.456200  0.442400  1
  H  H45  1  0.943600  0.543800  0.942400  1
  H  H46  1  0.443600  0.956200  0.442400  1
  H  H47  1  0.056400  0.043800  0.942400  1
  H  H48  1  0.443600  0.543800  0.557600  1
  H  H49  1  0.778400  0.235100  0.968000  1
  H  H50  1  0.278400  0.264900  0.468000  1
  H  H51  1  0.221600  0.735100  0.968000  1
  H  H52  1  0.278400  0.235100  0.532000  1
  H  H53  1  0.221600  0.764900  0.032000  1
  H  H54  1  0.721600  0.735100  0.532000  1
  H  H55  1  0.778400  0.264900  0.032000  1
  H  H56  1  0.721600  0.764900  0.468000  1
  H  H57  1  0.744600  0.193700  0.862700  1
  H  H58  1  0.244600  0.306300  0.362700  1
  H  H59  1  0.255400  0.693700  0.862700  1
  H  H60  1  0.244600  0.193700  0.637300  1
  H  H61  1  0.255400  0.806300  0.137300  1
  H  H62  1  0.755400  0.693700  0.637300  1
  H  H63  1  0.744600  0.306300  0.137300  1
  H  H64  1  0.755400  0.806300  0.362700  1
  H  H65  1  0.828200  0.295500  0.848000  1
  H  H66  1  0.328200  0.204500  0.348000  1
  H  H67  1  0.171800  0.795500  0.848000  1
  H  H68  1  0.328200  0.295500  0.652000  1
  H  H69  1  0.171800  0.704500  0.152000  1
  H  H70  1  0.671800  0.795500  0.652000  1
  H  H71  1  0.828200  0.204500  0.152000  1
  H  H72  1  0.671800  0.704500  0.348000  1
  H  H73  1  0.630700  0.194200  0.967700  1
  H  H74  1  0.130700  0.305800  0.467700  1
  H  H75  1  0.369300  0.694200  0.967700  1
  H  H76  1  0.130700  0.194200  0.532300  1
  H  H77  1  0.369300  0.805800  0.032300  1
  H  H78  1  0.869300  0.694200  0.532300  1
  H  H79  1  0.630700  0.305800  0.032300  1
  H  H80  1  0.869300  0.805800  0.467700  1
  H  H81  1  0.524300  0.997100  0.944700  1
  H  H82  1  0.024300  0.502900  0.444700  1
  H  H83  1  0.475700  0.497100  0.944700  1
  H  H84  1  0.024300  0.997100  0.555300  1
  H  H85  1  0.475700  0.002900  0.055300  1
  H  H86  1  0.975700  0.497100  0.555300  1
  H  H87  1  0.524300  0.502900  0.055300  1
  H  H88  1  0.975700  0.002900  0.444700  1
  H  H89  1  0.625900  0.981900  0.898900  1
  H  H90  1  0.125900  0.518100  0.398900  1
  H  H91  1  0.374100  0.481900  0.898900  1
  H  H92  1  0.125900  0.981900  0.601100  1
  H  H93  1  0.374100  0.018100  0.101100  1
  H  H94  1  0.874100  0.481900  0.601100  1
  H  H95  1  0.625900  0.518100  0.101100  1
  H  H96  1  0.874100  0.018100  0.398900  1
  H  H97  1  0.729500  0.072500  0.887000  1
  H  H98  1  0.229500  0.427500  0.387000  1
  H  H99  1  0.270500  0.572500  0.887000  1
  H  H100  1  0.229500  0.072500  0.613000  1
  H  H101  1  0.270500  0.927500  0.113000  1
  H  H102  1  0.770500  0.572500  0.613000  1
  H  H103  1  0.729500  0.427500  0.113000  1
  H  H104  1  0.770500  0.927500  0.387000  1
  H  H105  1  0.582700  0.155400  0.026900  1
  H  H106  1  0.082700  0.344600  0.526900  1
  H  H107  1  0.417300  0.655400  0.026900  1
  H  H108  1  0.082700  0.155400  0.473100  1
  H  H109  1  0.417300  0.844600  0.973100  1
  H  H110  1  0.917300  0.655400  0.473100  1
  H  H111  1  0.582700  0.344600  0.973100  1
  H  H112  1  0.917300  0.844600  0.526900  1
  H  H113  1  0.290500  0.098700  0.004500  1
  H  H114  1  0.790500  0.401300  0.504500  1
  H  H115  1  0.709500  0.598700  0.004500  1
  H  H116  1  0.790500  0.098700  0.495500  1
  H  H117  1  0.709500  0.901300  0.995500  1
  H  H118  1  0.209500  0.598700  0.495500  1
  H  H119  1  0.290500  0.401300  0.995500  1
  H  H120  1  0.209500  0.901300  0.504500  1
  H  H121  1  0.397200  0.065700  0.963100  1
  H  H122  1  0.897200  0.434300  0.463100  1
  H  H123  1  0.602800  0.565700  0.963100  1
  H  H124  1  0.897200  0.065700  0.536900  1
  H  H125  1  0.602800  0.934300  0.036900  1
  H  H126  1  0.102800  0.565700  0.536900  1
  H  H127  1  0.397200  0.434300  0.036900  1
  H  H128  1  0.102800  0.934300  0.463100  1
  H  H129  1  0.679300  0.487700  0.181400  1
  H  H130  1  0.179300  0.012300  0.681400  1
  H  H131  1  0.320700  0.987700  0.181400  1
  H  H132  1  0.179300  0.487700  0.318600  1
  H  H133  1  0.320700  0.512300  0.818600  1
  H  H134  1  0.820700  0.987700  0.318600  1
  H  H135  1  0.679300  0.012300  0.818600  1
  H  H136  1  0.820700  0.512300  0.681400  1
  H  H137  1  0.556100  0.415200  0.172200  1
  H  H138  1  0.056100  0.084800  0.672200  1
  H  H139  1  0.443900  0.915200  0.172200  1
  H  H140  1  0.056100  0.415200  0.327800  1
  H  H141  1  0.443900  0.584800  0.827800  1
  H  H142  1  0.943900  0.915200  0.327800  1
  H  H143  1  0.556100  0.084800  0.827800  1
  H  H144  1  0.943900  0.584800  0.672200  1
  H  H145  1  0.682900  0.246400  0.219000  1
  H  H146  1  0.182900  0.253600  0.719000  1
  H  H147  1  0.317100  0.746400  0.219000  1
  H  H148  1  0.182900  0.246400  0.281000  1
  H  H149  1  0.317100  0.753600  0.781000  1
  H  H150  1  0.817100  0.746400  0.281000  1
  H  H151  1  0.682900  0.253600  0.781000  1
  H  H152  1  0.817100  0.753600  0.719000  1
  H  H153  1  0.804700  0.320500  0.225500  1
  H  H154  1  0.304700  0.179500  0.725500  1
  H  H155  1  0.195300  0.820500  0.225500  1
  H  H156  1  0.304700  0.320500  0.274500  1
  H  H157  1  0.195300  0.679500  0.774500  1
  H  H158  1  0.695300  0.820500  0.274500  1
  H  H159  1  0.804700  0.179500  0.774500  1
  H  H160  1  0.695300  0.679500  0.725500  1
  H  H161  1  0.528100  0.233700  0.207600  1
  H  H162  1  0.028100  0.266300  0.707600  1
  H  H163  1  0.471900  0.733700  0.207600  1
  H  H164  1  0.028100  0.233700  0.292400  1
  H  H165  1  0.471900  0.766300  0.792400  1
  H  H166  1  0.971900  0.733700  0.292400  1
  H  H167  1  0.528100  0.266300  0.792400  1
  H  H168  1  0.971900  0.766300  0.707600  1
  H  H169  1  0.471600  0.305300  0.198500  1
  H  H170  1  0.971600  0.194700  0.698500  1
  H  H171  1  0.528400  0.805300  0.198500  1
  H  H172  1  0.971600  0.305300  0.301500  1
  H  H173  1  0.528400  0.694700  0.801500  1
  H  H174  1  0.028400  0.805300  0.301500  1
  H  H175  1  0.471600  0.194700  0.801500  1
  H  H176  1  0.028400  0.694700  0.698500  1
  H  H177  1  0.888000  0.393100  0.840200  1
  H  H178  1  0.388000  0.106900  0.340200  1
  H  H179  1  0.112000  0.893100  0.840200  1
  H  H180  1  0.388000  0.393100  0.659800  1
  H  H181  1  0.112000  0.606900  0.159800  1
  H  H182  1  0.612000  0.893100  0.659800  1
  H  H183  1  0.888000  0.106900  0.159800  1
  H  H184  1  0.612000  0.606900  0.340200  1
  H  H185  1  0.942000  0.460500  0.856500  1
  H  H186  1  0.442000  0.039500  0.356500  1
  H  H187  1  0.058000  0.960500  0.856500  1
  H  H188  1  0.442000  0.460500  0.643500  1
  H  H189  1  0.058000  0.539500  0.143500  1
  H  H190  1  0.558000  0.960500  0.643500  1
  H  H191  1  0.942000  0.039500  0.143500  1
  H  H192  1  0.558000  0.539500  0.356500  1
  H  H193  1  0.799600  0.498700  0.841500  1
  H  H194  1  0.299600  0.001300  0.341500  1
  H  H195  1  0.200400  0.998700  0.841500  1
  H  H196  1  0.299600  0.498700  0.658500  1
  H  H197  1  0.200400  0.501300  0.158500  1
  H  H198  1  0.700400  0.998700  0.658500  1
  H  H199  1  0.799600  0.001300  0.158500  1
  H  H200  1  0.700400  0.501300  0.341500  1
  H  H201  1  0.759000  0.437200  0.867500  1
  H  H202  1  0.259000  0.062800  0.367500  1
  H  H203  1  0.241000  0.937200  0.867500  1
  H  H204  1  0.259000  0.437200  0.632500  1
  H  H205  1  0.241000  0.562800  0.132500  1
  H  H206  1  0.741000  0.937200  0.632500  1
  H  H207  1  0.759000  0.062800  0.132500  1
  H  H208  1  0.741000  0.562800  0.367500  1
  H  H209  1  0.746900  0.591500  0.920100  1
  H  H210  1  0.246900  0.908500  0.420100  1
  H  H211  1  0.253100  0.091500  0.920100  1
  H  H212  1  0.246900  0.591500  0.579900  1
  H  H213  1  0.253100  0.408500  0.079900  1
  H  H214  1  0.753100  0.091500  0.579900  1
  H  H215  1  0.746900  0.908500  0.079900  1
  H  H216  1  0.753100  0.408500  0.420100  1
  H  H217  1  0.690600  0.524900  0.904300  1
  H  H218  1  0.190600  0.975100  0.404300  1
  H  H219  1  0.309400  0.024900  0.904300  1
  H  H220  1  0.190600  0.524900  0.595700  1
  H  H221  1  0.309400  0.475100  0.095700  1
  H  H222  1  0.809400  0.024900  0.595700  1
  H  H223  1  0.690600  0.975100  0.095700  1
  H  H224  1  0.809400  0.475100  0.404300  1
  H  H225  1  0.725000  0.588000  0.878000  1
  H  H226  1  0.225000  0.912000  0.378000  1
  H  H227  1  0.275000  0.088000  0.878000  1
  H  H228  1  0.225000  0.588000  0.622000  1
  H  H229  1  0.275000  0.412000  0.122000  1
  H  H230  1  0.775000  0.088000  0.622000  1
  H  H231  1  0.725000  0.912000  0.122000  1
  H  H232  1  0.775000  0.412000  0.378000  1
  H  H233  1  0.193000  0.151400  0.046300  1
  H  H234  1  0.693000  0.348600  0.546300  1
  H  H235  1  0.807000  0.651400  0.046300  1
  H  H236  1  0.693000  0.151400  0.453700  1
  H  H237  1  0.807000  0.848600  0.953700  1
  H  H238  1  0.307000  0.651400  0.453700  1
  H  H239  1  0.193000  0.348600  0.953700  1
  H  H240  1  0.307000  0.848600  0.546300  1
  H  H241  1  0.241800  0.224100  0.032600  1
  H  H242  1  0.741800  0.275900  0.532600  1
  H  H243  1  0.758200  0.724100  0.032600  1
  H  H244  1  0.741800  0.224100  0.467400  1
  H  H245  1  0.758200  0.775900  0.967400  1
  H  H246  1  0.258200  0.724100  0.467400  1
  H  H247  1  0.241800  0.275900  0.967400  1
  H  H248  1  0.258200  0.775900  0.532600  1
  H  H249  1  0.230500  0.273900  0.091700  1
  H  H250  1  0.730500  0.226100  0.591700  1
  H  H251  1  0.769500  0.773900  0.091700  1
  H  H252  1  0.730500  0.273900  0.408300  1
  H  H253  1  0.769500  0.726100  0.908300  1
  H  H254  1  0.269500  0.773900  0.408300  1
  H  H255  1  0.230500  0.226100  0.908300  1
  H  H256  1  0.269500  0.726100  0.591700  1
  H  H257  1  0.135900  0.258700  0.074500  1
  H  H258  1  0.635900  0.241300  0.574500  1
  H  H259  1  0.864100  0.758700  0.074500  1
  H  H260  1  0.635900  0.258700  0.425500  1
  H  H261  1  0.864100  0.741300  0.925500  1
  H  H262  1  0.364100  0.758700  0.425500  1
  H  H263  1  0.135900  0.241300  0.925500  1
  H  H264  1  0.364100  0.741300  0.574500  1
  H  H265  1  0.111000  0.190500  0.159200  1
  H  H266  1  0.611000  0.309500  0.659200  1
  H  H267  1  0.889000  0.690500  0.159200  1
  H  H268  1  0.611000  0.190500  0.340800  1
  H  H269  1  0.889000  0.809500  0.840800  1
  H  H270  1  0.389000  0.690500  0.340800  1
  H  H271  1  0.111000  0.309500  0.840800  1
  H  H272  1  0.389000  0.809500  0.659200  1
  H  H273  1  0.068400  0.244800  0.130200  1
  H  H274  1  0.568400  0.255200  0.630200  1
  H  H275  1  0.931600  0.744800  0.130200  1
  H  H276  1  0.568400  0.244800  0.369800  1
  H  H277  1  0.931600  0.755200  0.869800  1
  H  H278  1  0.431600  0.744800  0.369800  1
  H  H279  1  0.068400  0.255200  0.869800  1
  H  H280  1  0.431600  0.755200  0.630200  1
  H  H281  1  0.159100  0.265700  0.149200  1
  H  H282  1  0.659100  0.234300  0.649200  1
  H  H283  1  0.840900  0.765700  0.149200  1
  H  H284  1  0.659100  0.265700  0.350800  1
  H  H285  1  0.840900  0.734300  0.850800  1
  H  H286  1  0.340900  0.765700  0.350800  1
  H  H287  1  0.159100  0.234300  0.850800  1
  H  H288  1  0.340900  0.734300  0.649200  1
  H  H289  1  0.781800  0.517400  0.270900  1
  H  H290  1  0.281800  0.982600  0.770900  1
  H  H291  1  0.218200  0.017400  0.270900  1
  H  H292  1  0.281800  0.517400  0.229100  1
  H  H293  1  0.218200  0.482600  0.729100  1
  H  H294  1  0.718200  0.017400  0.229100  1
  H  H295  1  0.781800  0.982600  0.729100  1
  H  H296  1  0.718200  0.482600  0.770900  1
  H  H297  1  0.801700  0.437800  0.275400  1
  H  H298  1  0.301700  0.062200  0.775400  1
  H  H299  1  0.198300  0.937800  0.275400  1
  H  H300  1  0.301700  0.437800  0.224600  1
  H  H301  1  0.198300  0.562200  0.724600  1
  H  H302  1  0.698300  0.937800  0.224600  1
  H  H303  1  0.801700  0.062200  0.724600  1
  H  H304  1  0.698300  0.562200  0.775400  1
  H  H305  1  0.012200  0.511600  0.227700  1
  H  H306  1  0.512200  0.988400  0.727700  1
  H  H307  1  0.987800  0.011600  0.227700  1
  H  H308  1  0.512200  0.511600  0.272300  1
  H  H309  1  0.987800  0.488400  0.772300  1
  H  H310  1  0.487800  0.011600  0.272300  1
  H  H311  1  0.012200  0.988400  0.772300  1
  H  H312  1  0.487800  0.488400  0.727700  1
  H  H313  1  0.965300  0.578600  0.215100  1
  H  H314  1  0.465300  0.921400  0.715100  1
  H  H315  1  0.034700  0.078600  0.215100  1
  H  H316  1  0.465300  0.578600  0.284900  1
  H  H317  1  0.034700  0.421400  0.784900  1
  H  H318  1  0.534700  0.078600  0.284900  1
  H  H319  1  0.965300  0.921400  0.784900  1
  H  H320  1  0.534700  0.421400  0.715100  1
  H  H321  1  0.890700  0.516500  0.312700  1
  H  H322  1  0.390700  0.983500  0.812700  1
  H  H323  1  0.109300  0.016500  0.312700  1
  H  H324  1  0.390700  0.516500  0.187300  1
  H  H325  1  0.109300  0.483500  0.687300  1
  H  H326  1  0.609300  0.016500  0.187300  1
  H  H327  1  0.890700  0.983500  0.687300  1
  H  H328  1  0.609300  0.483500  0.812700  1
  H  H329  1  0.944900  0.457900  0.289300  1
  H  H330  1  0.444900  0.042100  0.789300  1
  H  H331  1  0.055100  0.957900  0.289300  1
  H  H332  1  0.444900  0.457900  0.210700  1
  H  H333  1  0.055100  0.542100  0.710700  1
  H  H334  1  0.555100  0.957900  0.210700  1
  H  H335  1  0.944900  0.042100  0.710700  1
  H  H336  1  0.555100  0.542100  0.789300  1
  H  H337  1  0.911600  0.606400  0.268900  1
  H  H338  1  0.411600  0.893600  0.768900  1
  H  H339  1  0.088400  0.106400  0.268900  1
  H  H340  1  0.411600  0.606400  0.231100  1
  H  H341  1  0.088400  0.393600  0.731100  1
  H  H342  1  0.588400  0.106400  0.231100  1
  H  H343  1  0.911600  0.893600  0.731100  1
  H  H344  1  0.588400  0.393600  0.768900  1
  H  H345  1  0.006000  0.573500  0.279000  1
  H  H346  1  0.506000  0.926500  0.779000  1
  H  H347  1  0.994000  0.073500  0.279000  1
  H  H348  1  0.506000  0.573500  0.221000  1
  H  H349  1  0.994000  0.426500  0.721000  1
  H  H350  1  0.494000  0.073500  0.221000  1
  H  H351  1  0.006000  0.926500  0.721000  1
  H  H352  1  0.494000  0.426500  0.779000  1
  H  H353  1  0.313100  0.139300  0.171800  1
  H  H354  1  0.813100  0.360700  0.671800  1
  H  H355  1  0.686900  0.639300  0.171800  1
  H  H356  1  0.813100  0.139300  0.328200  1
  H  H357  1  0.686900  0.860700  0.828200  1
  H  H358  1  0.186900  0.639300  0.328200  1
  H  H359  1  0.313100  0.360700  0.828200  1
  H  H360  1  0.186900  0.860700  0.671800  1
  H  H361  1  0.296600  0.133300  0.124800  1
  H  H362  1  0.796600  0.366700  0.624800  1
  H  H363  1  0.703400  0.633300  0.124800  1
  H  H364  1  0.796600  0.133300  0.375200  1
  H  H365  1  0.703400  0.866700  0.875200  1
  H  H366  1  0.203400  0.633300  0.375200  1
  H  H367  1  0.296600  0.366700  0.875200  1
  H  H368  1  0.203400  0.866700  0.624800  1
  H  H369  1  0.254200  0.389000  0.187700  1
  H  H370  1  0.754200  0.111000  0.687700  1
  H  H371  1  0.745800  0.889000  0.187700  1
  H  H372  1  0.754200  0.389000  0.312300  1
  H  H373  1  0.745800  0.611000  0.812300  1
  H  H374  1  0.245800  0.889000  0.312300  1
  H  H375  1  0.254200  0.111000  0.812300  1
  H  H376  1  0.245800  0.611000  0.687700  1
  H  H377  1  0.218500  0.336700  0.196500  1
  H  H378  1  0.718500  0.163300  0.696500  1
  H  H379  1  0.781500  0.836700  0.196500  1
  H  H380  1  0.718500  0.336700  0.303500  1
  H  H381  1  0.781500  0.663300  0.803500  1
  H  H382  1  0.281500  0.836700  0.303500  1
  H  H383  1  0.218500  0.163300  0.803500  1
  H  H384  1  0.281500  0.663300  0.696500  1
  H  H385  1  0.559800  0.696800  0.272800  1
  H  H386  1  0.059800  0.803200  0.772800  1
  H  H387  1  0.440200  0.196800  0.272800  1
  H  H388  1  0.059800  0.696800  0.227200  1
  H  H389  1  0.440200  0.303200  0.727200  1
  H  H390  1  0.940200  0.196800  0.227200  1
  H  H391  1  0.559800  0.803200  0.727200  1
  H  H392  1  0.940200  0.303200  0.772800  1
  H  H393  1  0.471400  0.682200  0.284000  1
  H  H394  1  0.971400  0.817800  0.784000  1
  H  H395  1  0.528600  0.182200  0.284000  1
  H  H396  1  0.971400  0.682200  0.216000  1
  H  H397  1  0.528600  0.317800  0.716000  1
  H  H398  1  0.028600  0.182200  0.216000  1
  H  H399  1  0.471400  0.817800  0.716000  1
  H  H400  1  0.028600  0.317800  0.784000  1
  Pd  Pd401  1  0.856670  0.475370  0.214975  1
  Pd  Pd402  1  0.356670  0.024630  0.714975  1
  Pd  Pd403  1  0.143330  0.975370  0.214975  1
  Pd  Pd404  1  0.356670  0.475370  0.285025  1
  Pd  Pd405  1  0.143330  0.524630  0.785025  1
  Pd  Pd406  1  0.643330  0.975370  0.285025  1
  Pd  Pd407  1  0.856670  0.024630  0.785025  1
  Pd  Pd408  1  0.643330  0.524630  0.714975  1
  C  C409  1  0.934600  0.410700  0.148880  1
  C  C410  1  0.434600  0.089300  0.648880  1
  C  C411  1  0.065400  0.910700  0.148880  1
  C  C412  1  0.434600  0.410700  0.351120  1
  C  C413  1  0.065400  0.589300  0.851120  1
  C  C414  1  0.565400  0.910700  0.351120  1
  C  C415  1  0.934600  0.089300  0.851120  1
  C  C416  1  0.565400  0.589300  0.648880  1
  C  C417  1  0.963000  0.408300  0.114090  1
  C  C418  1  0.463000  0.091700  0.614090  1
  C  C419  1  0.037000  0.908300  0.114090  1
  C  C420  1  0.463000  0.408300  0.385910  1
  C  C421  1  0.037000  0.591700  0.885910  1
  C  C422  1  0.537000  0.908300  0.385910  1
  C  C423  1  0.963000  0.091700  0.885910  1
  C  C424  1  0.537000  0.591700  0.614090  1
  C  C425  1  0.951000  0.468500  0.091350  1
  C  C426  1  0.451000  0.031500  0.591350  1
  C  C427  1  0.049000  0.968500  0.091350  1
  C  C428  1  0.451000  0.468500  0.408650  1
  C  C429  1  0.049000  0.531500  0.908650  1
  C  C430  1  0.549000  0.968500  0.408650  1
  C  C431  1  0.951000  0.031500  0.908650  1
  C  C432  1  0.549000  0.531500  0.591350  1
  C  C433  1  0.903500  0.526000  0.105000  1
  C  C434  1  0.403500  0.974000  0.605000  1
  C  C435  1  0.096500  0.026000  0.105000  1
  C  C436  1  0.403500  0.526000  0.395000  1
  C  C437  1  0.096500  0.474000  0.895000  1
  C  C438  1  0.596500  0.026000  0.395000  1
  C  C439  1  0.903500  0.974000  0.895000  1
  C  C440  1  0.596500  0.474000  0.605000  1
  C  C441  1  0.875400  0.525500  0.140030  1
  C  C442  1  0.375400  0.974500  0.640030  1
  C  C443  1  0.124600  0.025500  0.140030  1
  C  C444  1  0.375400  0.525500  0.359970  1
  C  C445  1  0.124600  0.474500  0.859970  1
  C  C446  1  0.624600  0.025500  0.359970  1
  C  C447  1  0.875400  0.974500  0.859970  1
  C  C448  1  0.624600  0.474500  0.640030  1
  C  C449  1  0.995000  0.472700  0.054900  1
  C  C450  1  0.495000  0.027300  0.554900  1
  C  C451  1  0.005000  0.972700  0.054900  1
  C  C452  1  0.495000  0.472700  0.445100  1
  C  C453  1  0.005000  0.527300  0.945100  1
  C  C454  1  0.505000  0.972700  0.445100  1
  C  C455  1  0.995000  0.027300  0.945100  1
  C  C456  1  0.505000  0.527300  0.554900  1
  C  C457  1  0.952400  0.428200  0.025290  1
  C  C458  1  0.452400  0.071800  0.525290  1
  C  C459  1  0.047600  0.928200  0.025290  1
  C  C460  1  0.452400  0.428200  0.474710  1
  C  C461  1  0.047600  0.571800  0.974710  1
  C  C462  1  0.547600  0.928200  0.474710  1
  C  C463  1  0.952400  0.071800  0.974710  1
  C  C464  1  0.547600  0.571800  0.525290  1
  C  C465  1  0.998200  0.373500  0.007390  1
  C  C466  1  0.498200  0.126500  0.507390  1
  C  C467  1  0.001800  0.873500  0.007390  1
  C  C468  1  0.498200  0.373500  0.492610  1
  C  C469  1  0.001800  0.626500  0.992610  1
  C  C470  1  0.501800  0.873500  0.492610  1
  C  C471  1  0.998200  0.126500  0.992610  1
  C  C472  1  0.501800  0.626500  0.507390  1
  C  C473  1  0.962700  0.336700  0.978760  1
  C  C474  1  0.462700  0.163300  0.478760  1
  C  C475  1  0.037300  0.836700  0.978760  1
  C  C476  1  0.462700  0.336700  0.521240  1
  C  C477  1  0.037300  0.663300  0.021240  1
  C  C478  1  0.537300  0.836700  0.521240  1
  C  C479  1  0.962700  0.163300  0.021240  1
  C  C480  1  0.537300  0.663300  0.478760  1
  C  C481  1  0.879500  0.350800  0.965710  1
  C  C482  1  0.379500  0.149200  0.465710  1
  C  C483  1  0.120500  0.850800  0.965710  1
  C  C484  1  0.379500  0.350800  0.534290  1
  C  C485  1  0.120500  0.649200  0.034290  1
  C  C486  1  0.620500  0.850800  0.534290  1
  C  C487  1  0.879500  0.149200  0.034290  1
  C  C488  1  0.620500  0.649200  0.465710  1
  C  C489  1  0.833900  0.405200  0.983550  1
  C  C490  1  0.333900  0.094800  0.483550  1
  C  C491  1  0.166100  0.905200  0.983550  1
  C  C492  1  0.333900  0.405200  0.516450  1
  C  C493  1  0.166100  0.594800  0.016450  1
  C  C494  1  0.666100  0.905200  0.516450  1
  C  C495  1  0.833900  0.094800  0.016450  1
  C  C496  1  0.666100  0.594800  0.483550  1
  C  C497  1  0.870300  0.442900  0.012100  1
  C  C498  1  0.370300  0.057100  0.512100  1
  C  C499  1  0.129700  0.942900  0.012100  1
  C  C500  1  0.370300  0.442900  0.487900  1
  C  C501  1  0.129700  0.557100  0.987900  1
  C  C502  1  0.629700  0.942900  0.487900  1
  C  C503  1  0.870300  0.057100  0.987900  1
  C  C504  1  0.629700  0.557100  0.512100  1
  C  C505  1  0.840900  0.307400  0.935600  1
  C  C506  1  0.340900  0.192600  0.435600  1
  C  C507  1  0.159100  0.807400  0.935600  1
  C  C508  1  0.340900  0.307400  0.564400  1
  C  C509  1  0.159100  0.692600  0.064400  1
  C  C510  1  0.659100  0.807400  0.564400  1
  C  C511  1  0.840900  0.192600  0.064400  1
  C  C512  1  0.659100  0.692600  0.435600  1
  C  C513  1  0.788300  0.247400  0.943500  1
  C  C514  1  0.288300  0.252600  0.443500  1
  C  C515  1  0.211700  0.747400  0.943500  1
  C  C516  1  0.288300  0.247400  0.556500  1
  C  C517  1  0.211700  0.752600  0.056500  1
  C  C518  1  0.711700  0.747400  0.556500  1
  C  C519  1  0.788300  0.252600  0.056500  1
  C  C520  1  0.711700  0.752600  0.443500  1
  C  C521  1  0.749300  0.204200  0.916710  1
  C  C522  1  0.249300  0.295800  0.416710  1
  C  C523  1  0.250700  0.704200  0.916710  1
  C  C524  1  0.249300  0.204200  0.583290  1
  C  C525  1  0.250700  0.795800  0.083290  1
  C  C526  1  0.750700  0.704200  0.583290  1
  C  C527  1  0.749300  0.295800  0.083290  1
  C  C528  1  0.750700  0.795800  0.416710  1
  C  C529  1  0.767700  0.223100  0.881500  1
  C  C530  1  0.267700  0.276900  0.381500  1
  C  C531  1  0.232300  0.723100  0.881500  1
  C  C532  1  0.267700  0.223100  0.618500  1
  C  C533  1  0.232300  0.776900  0.118500  1
  C  C534  1  0.732300  0.723100  0.618500  1
  C  C535  1  0.767700  0.276900  0.118500  1
  C  C536  1  0.732300  0.776900  0.381500  1
  C  C537  1  0.818800  0.283300  0.872580  1
  C  C538  1  0.318800  0.216700  0.372580  1
  C  C539  1  0.181200  0.783300  0.872580  1
  C  C540  1  0.318800  0.283300  0.627420  1
  C  C541  1  0.181200  0.716700  0.127420  1
  C  C542  1  0.681200  0.783300  0.627420  1
  C  C543  1  0.818800  0.216700  0.127420  1
  C  C544  1  0.681200  0.716700  0.372580  1
  C  C545  1  0.856100  0.325900  0.899460  1
  C  C546  1  0.356100  0.174100  0.399460  1
  C  C547  1  0.143900  0.825900  0.899460  1
  C  C548  1  0.356100  0.325900  0.600540  1
  C  C549  1  0.143900  0.674100  0.100540  1
  C  C550  1  0.643900  0.825900  0.600540  1
  C  C551  1  0.856100  0.174100  0.100540  1
  C  C552  1  0.643900  0.674100  0.399460  1
  C  C553  1  0.689300  0.143500  0.925720  1
  C  C554  1  0.189300  0.356500  0.425720  1
  C  C555  1  0.310700  0.643500  0.925720  1
  C  C556  1  0.189300  0.143500  0.574280  1
  C  C557  1  0.310700  0.856500  0.074280  1
  C  C558  1  0.810700  0.643500  0.574280  1
  C  C559  1  0.689300  0.356500  0.074280  1
  C  C560  1  0.810700  0.856500  0.425720  1
  C  C561  1  0.629200  0.151000  0.953480  1
  C  C562  1  0.129200  0.349000  0.453480  1
  C  C563  1  0.370800  0.651000  0.953480  1
  C  C564  1  0.129200  0.151000  0.546520  1
  C  C565  1  0.370800  0.849000  0.046520  1
  C  C566  1  0.870800  0.651000  0.546520  1
  C  C567  1  0.629200  0.349000  0.046520  1
  C  C568  1  0.870800  0.849000  0.453480  1
  C  C569  1  0.566700  0.097500  0.961290  1
  C  C570  1  0.066700  0.402500  0.461290  1
  C  C571  1  0.433300  0.597500  0.961290  1
  C  C572  1  0.066700  0.097500  0.538710  1
  C  C573  1  0.433300  0.902500  0.038710  1
  C  C574  1  0.933300  0.597500  0.538710  1
  C  C575  1  0.566700  0.402500  0.038710  1
  C  C576  1  0.933300  0.902500  0.461290  1
  C  C577  1  0.566400  0.034300  0.940230  1
  C  C578  1  0.066400  0.465700  0.440230  1
  C  C579  1  0.433600  0.534300  0.940230  1
  C  C580  1  0.066400  0.034300  0.559770  1
  C  C581  1  0.433600  0.965700  0.059770  1
  C  C582  1  0.933600  0.534300  0.559770  1
  C  C583  1  0.566400  0.465700  0.059770  1
  C  C584  1  0.933600  0.965700  0.440230  1
  C  C585  1  0.626500  0.025400  0.912950  1
  C  C586  1  0.126500  0.474600  0.412950  1
  C  C587  1  0.373500  0.525400  0.912950  1
  C  C588  1  0.126500  0.025400  0.587050  1
  C  C589  1  0.373500  0.974600  0.087050  1
  C  C590  1  0.873500  0.525400  0.587050  1
  C  C591  1  0.626500  0.474600  0.087050  1
  C  C592  1  0.873500  0.974600  0.412950  1
  C  C593  1  0.688100  0.079500  0.905730  1
  C  C594  1  0.188100  0.420500  0.405730  1
  C  C595  1  0.311900  0.579500  0.905730  1
  C  C596  1  0.188100  0.079500  0.594270  1
  C  C597  1  0.311900  0.920500  0.094270  1
  C  C598  1  0.811900  0.579500  0.594270  1
  C  C599  1  0.688100  0.420500  0.094270  1
  C  C600  1  0.811900  0.920500  0.405730  1
  C  C601  1  0.501100  0.111100  0.989880  1
  C  C602  1  0.001100  0.388900  0.489880  1
  C  C603  1  0.498900  0.611100  0.989880  1
  C  C604  1  0.001100  0.111100  0.510120  1
  C  C605  1  0.498900  0.888900  0.010120  1
  C  C606  1  0.998900  0.611100  0.510120  1
  C  C607  1  0.501100  0.388900  0.010120  1
  C  C608  1  0.998900  0.888900  0.489880  1
  C  C609  1  0.523000  0.144400  0.022220  1
  C  C610  1  0.023000  0.355600  0.522220  1
  C  C611  1  0.477000  0.644400  0.022220  1
  C  C612  1  0.023000  0.144400  0.477780  1
  C  C613  1  0.477000  0.855600  0.977780  1
  C  C614  1  0.977000  0.644400  0.477780  1
  C  C615  1  0.523000  0.355600  0.977780  1
  C  C616  1  0.977000  0.855600  0.522220  1
  C  C617  1  0.460900  0.162100  0.047690  1
  C  C618  1  0.960900  0.337900  0.547690  1
  C  C619  1  0.539100  0.662100  0.047690  1
  C  C620  1  0.960900  0.162100  0.452310  1
  C  C621  1  0.539100  0.837900  0.952310  1
  C  C622  1  0.039100  0.662100  0.452310  1
  C  C623  1  0.460900  0.337900  0.952310  1
  C  C624  1  0.039100  0.837900  0.547690  1
  C  C625  1  0.372500  0.145700  0.040310  1
  C  C626  1  0.872500  0.354300  0.540310  1
  C  C627  1  0.627500  0.645700  0.040310  1
  C  C628  1  0.872500  0.145700  0.459690  1
  C  C629  1  0.627500  0.854300  0.959690  1
  C  C630  1  0.127500  0.645700  0.459690  1
  C  C631  1  0.372500  0.354300  0.959690  1
  C  C632  1  0.127500  0.854300  0.540310  1
  C  C633  1  0.350100  0.110400  0.009070  1
  C  C634  1  0.850100  0.389600  0.509070  1
  C  C635  1  0.649900  0.610400  0.009070  1
  C  C636  1  0.850100  0.110400  0.490930  1
  C  C637  1  0.649900  0.889600  0.990930  1
  C  C638  1  0.149900  0.610400  0.490930  1
  C  C639  1  0.350100  0.389600  0.990930  1
  C  C640  1  0.149900  0.889600  0.509070  1
  C  C641  1  0.413200  0.091700  0.984190  1
  C  C642  1  0.913200  0.408300  0.484190  1
  C  C643  1  0.586800  0.591700  0.984190  1
  C  C644  1  0.913200  0.091700  0.515810  1
  C  C645  1  0.586800  0.908300  0.015810  1
  C  C646  1  0.086800  0.591700  0.515810  1
  C  C647  1  0.413200  0.408300  0.015810  1
  C  C648  1  0.086800  0.908300  0.484190  1
  C  C649  1  0.484200  0.195400  0.082760  1
  C  C650  1  0.984200  0.304600  0.582760  1
  C  C651  1  0.515800  0.695400  0.082760  1
  C  C652  1  0.984200  0.195400  0.417240  1
  C  C653  1  0.515800  0.804600  0.917240  1
  C  C654  1  0.015800  0.695400  0.417240  1
  C  C655  1  0.484200  0.304600  0.917240  1
  C  C656  1  0.015800  0.804600  0.582760  1
  C  C657  1  0.539000  0.160200  0.107120  1
  C  C658  1  0.039000  0.339800  0.607120  1
  C  C659  1  0.461000  0.660200  0.107120  1
  C  C660  1  0.039000  0.160200  0.392880  1
  C  C661  1  0.461000  0.839800  0.892880  1
  C  C662  1  0.961000  0.660200  0.392880  1
  C  C663  1  0.539000  0.339800  0.892880  1
  C  C664  1  0.961000  0.839800  0.607120  1
  C  C665  1  0.553200  0.186700  0.140660  1
  C  C666  1  0.053200  0.313300  0.640660  1
  C  C667  1  0.446800  0.686700  0.140660  1
  C  C668  1  0.053200  0.186700  0.359340  1
  C  C669  1  0.446800  0.813300  0.859340  1
  C  C670  1  0.946800  0.686700  0.359340  1
  C  C671  1  0.553200  0.313300  0.859340  1
  C  C672  1  0.946800  0.813300  0.640660  1
  C  C673  1  0.513700  0.251100  0.153280  1
  C  C674  1  0.013700  0.248900  0.653280  1
  C  C675  1  0.486300  0.751100  0.153280  1
  C  C676  1  0.013700  0.251100  0.346720  1
  C  C677  1  0.486300  0.748900  0.846720  1
  C  C678  1  0.986300  0.751100  0.346720  1
  C  C679  1  0.513700  0.248900  0.846720  1
  C  C680  1  0.986300  0.748900  0.653280  1
  C  C681  1  0.463500  0.286800  0.128590  1
  C  C682  1  0.963500  0.213200  0.628590  1
  C  C683  1  0.536500  0.786800  0.128590  1
  C  C684  1  0.963500  0.286800  0.371410  1
  C  C685  1  0.536500  0.713200  0.871410  1
  C  C686  1  0.036500  0.786800  0.371410  1
  C  C687  1  0.463500  0.213200  0.871410  1
  C  C688  1  0.036500  0.713200  0.628590  1
  C  C689  1  0.447700  0.261200  0.094860  1
  C  C690  1  0.947700  0.238800  0.594860  1
  C  C691  1  0.552300  0.761200  0.094860  1
  C  C692  1  0.947700  0.261200  0.405140  1
  C  C693  1  0.552300  0.738800  0.905140  1
  C  C694  1  0.052300  0.761200  0.405140  1
  C  C695  1  0.447700  0.238800  0.905140  1
  C  C696  1  0.052300  0.738800  0.594860  1
  C  C697  1  0.680000  0.438100  0.189090  1
  C  C698  1  0.180000  0.061900  0.689090  1
  C  C699  1  0.320000  0.938100  0.189090  1
  C  C700  1  0.180000  0.438100  0.310910  1
  C  C701  1  0.320000  0.561900  0.810910  1
  C  C702  1  0.820000  0.938100  0.310910  1
  C  C703  1  0.680000  0.061900  0.810910  1
  C  C704  1  0.820000  0.561900  0.689090  1
  C  C705  1  0.606000  0.395400  0.184000  1
  C  C706  1  0.106000  0.104600  0.684000  1
  C  C707  1  0.394000  0.895400  0.184000  1
  C  C708  1  0.106000  0.395400  0.316000  1
  C  C709  1  0.394000  0.604600  0.816000  1
  C  C710  1  0.894000  0.895400  0.316000  1
  C  C711  1  0.606000  0.104600  0.816000  1
  C  C712  1  0.894000  0.604600  0.684000  1
  C  C713  1  0.605000  0.323900  0.196120  1
  C  C714  1  0.105000  0.176100  0.696120  1
  C  C715  1  0.395000  0.823900  0.196120  1
  C  C716  1  0.105000  0.323900  0.303880  1
  C  C717  1  0.395000  0.676100  0.803880  1
  C  C718  1  0.895000  0.823900  0.303880  1
  C  C719  1  0.605000  0.176100  0.803880  1
  C  C720  1  0.895000  0.676100  0.696120  1
  C  C721  1  0.680800  0.296000  0.211250  1
  C  C722  1  0.180800  0.204000  0.711250  1
  C  C723  1  0.319200  0.796000  0.211250  1
  C  C724  1  0.180800  0.296000  0.288750  1
  C  C725  1  0.319200  0.704000  0.788750  1
  C  C726  1  0.819200  0.796000  0.288750  1
  C  C727  1  0.680800  0.204000  0.788750  1
  C  C728  1  0.819200  0.704000  0.711250  1
  C  C729  1  0.753000  0.340400  0.215090  1
  C  C730  1  0.253000  0.159600  0.715090  1
  C  C731  1  0.247000  0.840400  0.215090  1
  C  C732  1  0.253000  0.340400  0.284910  1
  C  C733  1  0.247000  0.659600  0.784910  1
  C  C734  1  0.747000  0.840400  0.284910  1
  C  C735  1  0.753000  0.159600  0.784910  1
  C  C736  1  0.747000  0.659600  0.715090  1
  C  C737  1  0.524000  0.276700  0.191470  1
  C  C738  1  0.024000  0.223300  0.691470  1
  C  C739  1  0.476000  0.776700  0.191470  1
  C  C740  1  0.024000  0.276700  0.308530  1
  C  C741  1  0.476000  0.723300  0.808530  1
  C  C742  1  0.976000  0.776700  0.308530  1
  C  C743  1  0.524000  0.223300  0.808530  1
  C  C744  1  0.976000  0.723300  0.691470  1
  C  C745  1  0.892400  0.426900  0.860930  1
  C  C746  1  0.392400  0.073100  0.360930  1
  C  C747  1  0.107600  0.926900  0.860930  1
  C  C748  1  0.392400  0.426900  0.639070  1
  C  C749  1  0.107600  0.573100  0.139070  1
  C  C750  1  0.607600  0.926900  0.639070  1
  C  C751  1  0.892400  0.073100  0.139070  1
  C  C752  1  0.607600  0.573100  0.360930  1
  C  C753  1  0.809500  0.470400  0.863870  1
  C  C754  1  0.309500  0.029600  0.363870  1
  C  C755  1  0.190500  0.970400  0.863870  1
  C  C756  1  0.309500  0.470400  0.636130  1
  C  C757  1  0.190500  0.529600  0.136130  1
  C  C758  1  0.690500  0.970400  0.636130  1
  C  C759  1  0.809500  0.029600  0.136130  1
  C  C760  1  0.690500  0.529600  0.363870  1
  C  C761  1  0.738800  0.558900  0.899400  1
  C  C762  1  0.238800  0.941100  0.399400  1
  C  C763  1  0.261200  0.058900  0.899400  1
  C  C764  1  0.238800  0.558900  0.600600  1
  C  C765  1  0.261200  0.441100  0.100600  1
  C  C766  1  0.761200  0.058900  0.600600  1
  C  C767  1  0.738800  0.941100  0.100600  1
  C  C768  1  0.761200  0.441100  0.399400  1
  C  C769  1  0.231800  0.192100  0.053680  1
  C  C770  1  0.731800  0.307900  0.553680  1
  C  C771  1  0.768200  0.692100  0.053680  1
  C  C772  1  0.731800  0.192100  0.446320  1
  C  C773  1  0.768200  0.807900  0.946320  1
  C  C774  1  0.268200  0.692100  0.446320  1
  C  C775  1  0.231800  0.307900  0.946320  1
  C  C776  1  0.268200  0.807900  0.553680  1
  C  C777  1  0.190000  0.235000  0.083430  1
  C  C778  1  0.690000  0.265000  0.583430  1
  C  C779  1  0.810000  0.735000  0.083430  1
  C  C780  1  0.690000  0.235000  0.416570  1
  C  C781  1  0.810000  0.765000  0.916570  1
  C  C782  1  0.310000  0.735000  0.416570  1
  C  C783  1  0.190000  0.265000  0.916570  1
  C  C784  1  0.310000  0.765000  0.583430  1
  C  C785  1  0.123500  0.225400  0.139800  1
  C  C786  1  0.623500  0.274600  0.639800  1
  C  C787  1  0.876500  0.725400  0.139800  1
  C  C788  1  0.623500  0.225400  0.360200  1
  C  C789  1  0.876500  0.774600  0.860200  1
  C  C790  1  0.376500  0.725400  0.360200  1
  C  C791  1  0.123500  0.274600  0.860200  1
  C  C792  1  0.376500  0.774600  0.639800  1
  C  C793  1  0.905400  0.500900  0.287900  1
  C  C794  1  0.405400  0.999100  0.787900  1
  C  C795  1  0.094600  0.000900  0.287900  1
  C  C796  1  0.405400  0.500900  0.212100  1
  C  C797  1  0.094600  0.499100  0.712100  1
  C  C798  1  0.594600  0.000900  0.212100  1
  C  C799  1  0.905400  0.999100  0.712100  1
  C  C800  1  0.594600  0.499100  0.787900  1
  C  C801  1  0.948600  0.561900  0.267950  1
  C  C802  1  0.448600  0.938100  0.767950  1
  C  C803  1  0.051400  0.061900  0.267950  1
  C  C804  1  0.448600  0.561900  0.232050  1
  C  C805  1  0.051400  0.438100  0.732050  1
  C  C806  1  0.551400  0.061900  0.232050  1
  C  C807  1  0.948600  0.938100  0.732050  1
  C  C808  1  0.551400  0.438100  0.767950  1
  N  N809  1  0.891300  0.470100  0.162400  1
  N  N810  1  0.391300  0.029900  0.662400  1
  N  N811  1  0.108700  0.970100  0.162400  1
  N  N812  1  0.391300  0.470100  0.337600  1
  N  N813  1  0.108700  0.529900  0.837600  1
  N  N814  1  0.608700  0.970100  0.337600  1
  N  N815  1  0.891300  0.029900  0.837600  1
  N  N816  1  0.608700  0.529900  0.662400  1
  N  N817  1  0.752900  0.411100  0.204560  1
  N  N818  1  0.252900  0.088900  0.704560  1
  N  N819  1  0.247100  0.911100  0.204560  1
  N  N820  1  0.252900  0.411100  0.295440  1
  N  N821  1  0.247100  0.588900  0.795440  1
  N  N822  1  0.747100  0.911100  0.295440  1
  N  N823  1  0.752900  0.088900  0.795440  1
  N  N824  1  0.747100  0.588900  0.704560  1
  N  N825  1  0.823800  0.481900  0.267530  1
  N  N826  1  0.323800  0.018100  0.767530  1
  N  N827  1  0.176200  0.981900  0.267530  1
  N  N828  1  0.323800  0.481900  0.232470  1
  N  N829  1  0.176200  0.518100  0.732470  1
  N  N830  1  0.676200  0.981900  0.232470  1
  N  N831  1  0.823800  0.018100  0.732470  1
  N  N832  1  0.676200  0.518100  0.767530  1
  N  N833  1  0.961200  0.538200  0.229810  1
  N  N834  1  0.461200  0.961800  0.729810  1
  N  N835  1  0.038800  0.038200  0.229810  1
  N  N836  1  0.461200  0.538200  0.270190  1
  N  N837  1  0.038800  0.461800  0.770190  1
  N  N838  1  0.538800  0.038200  0.270190  1
  N  N839  1  0.961200  0.961800  0.770190  1
  N  N840  1  0.538800  0.461800  0.729810  1
  N  N841  1  0.063600  0.368400  0.221580  1
  N  N842  1  0.563600  0.131600  0.721580  1
  N  N843  1  0.936400  0.868400  0.221580  1
  N  N844  1  0.563600  0.368400  0.278420  1
  N  N845  1  0.936400  0.631600  0.778420  1
  N  N846  1  0.436400  0.868400  0.278420  1
  N  N847  1  0.063600  0.131600  0.778420  1
  N  N848  1  0.436400  0.631600  0.721580  1
  N  N849  1  0.704700  0.646400  0.243450  1
  N  N850  1  0.204700  0.853600  0.743450  1
  N  N851  1  0.295300  0.146400  0.243450  1
  N  N852  1  0.204700  0.646400  0.256550  1
  N  N853  1  0.295300  0.353600  0.756550  1
  N  N854  1  0.795300  0.146400  0.256550  1
  N  N855  1  0.704700  0.853600  0.756550  1
  N  N856  1  0.795300  0.353600  0.743450  1
  O  O857  1  0.909200  0.385000  0.893160  1
  O  O858  1  0.409200  0.115000  0.393160  1
  O  O859  1  0.090800  0.885000  0.893160  1
  O  O860  1  0.409200  0.385000  0.606840  1
  O  O861  1  0.090800  0.615000  0.106840  1
  O  O862  1  0.590800  0.885000  0.606840  1
  O  O863  1  0.909200  0.115000  0.106840  1
  O  O864  1  0.590800  0.615000  0.393160  1
  O  O865  1  0.817500  0.518400  0.893280  1
  O  O866  1  0.317500  0.981600  0.393280  1
  O  O867  1  0.182500  0.018400  0.893280  1
  O  O868  1  0.317500  0.518400  0.606720  1
  O  O869  1  0.182500  0.481600  0.106720  1
  O  O870  1  0.682500  0.018400  0.606720  1
  O  O871  1  0.817500  0.981600  0.106720  1
  O  O872  1  0.682500  0.481600  0.393280  1
  O  O873  1  0.312600  0.164100  0.066430  1
  O  O874  1  0.812600  0.335900  0.566430  1
  O  O875  1  0.687400  0.664100  0.066430  1
  O  O876  1  0.812600  0.164100  0.433570  1
  O  O877  1  0.687400  0.835900  0.933570  1
  O  O878  1  0.187400  0.664100  0.433570  1
  O  O879  1  0.312600  0.335900  0.933570  1
  O  O880  1  0.187400  0.835900  0.566430  1
  O  O881  1  0.169900  0.189100  0.111840  1
  O  O882  1  0.669900  0.310900  0.611840  1
  O  O883  1  0.830100  0.689100  0.111840  1
  O  O884  1  0.669900  0.189100  0.388160  1
  O  O885  1  0.830100  0.810900  0.888160  1
  O  O886  1  0.330100  0.689100  0.388160  1
  O  O887  1  0.169900  0.310900  0.888160  1
  O  O888  1  0.330100  0.810900  0.611840  1
  O  O889  1  0.989300  0.363000  0.235170  1
  O  O890  1  0.489300  0.137000  0.735170  1
  O  O891  1  0.010700  0.863000  0.235170  1
  O  O892  1  0.489300  0.363000  0.264830  1
  O  O893  1  0.010700  0.637000  0.764830  1
  O  O894  1  0.510700  0.863000  0.264830  1
  O  O895  1  0.989300  0.137000  0.764830  1
  O  O896  1  0.510700  0.637000  0.735170  1
  O  O897  1  0.098200  0.314400  0.206990  1
  O  O898  1  0.598200  0.185600  0.706990  1
  O  O899  1  0.901800  0.814400  0.206990  1
  O  O900  1  0.598200  0.314400  0.293010  1
  O  O901  1  0.901800  0.685600  0.793010  1
  O  O902  1  0.401800  0.814400  0.293010  1
  O  O903  1  0.098200  0.185600  0.793010  1
  O  O904  1  0.401800  0.685600  0.706990  1
  O  O905  1  0.104000  0.428200  0.222150  1
  O  O906  1  0.604000  0.071800  0.722150  1
  O  O907  1  0.896000  0.928200  0.222150  1
  O  O908  1  0.604000  0.428200  0.277850  1
  O  O909  1  0.896000  0.571800  0.777850  1
  O  O910  1  0.396000  0.928200  0.277850  1
  O  O911  1  0.104000  0.071800  0.777850  1
  O  O912  1  0.396000  0.571800  0.722150  1
  O  O913  1  0.703800  0.614600  0.272030  1
  O  O914  1  0.203800  0.885400  0.772030  1
  O  O915  1  0.296200  0.114600  0.272030  1
  O  O916  1  0.203800  0.614600  0.227970  1
  O  O917  1  0.296200  0.385400  0.727970  1
  O  O918  1  0.796200  0.114600  0.227970  1
  O  O919  1  0.703800  0.885400  0.727970  1
  O  O920  1  0.796200  0.385400  0.772030  1
  O  O921  1  0.651000  0.697600  0.237270  1
  O  O922  1  0.151000  0.802400  0.737270  1
  O  O923  1  0.349000  0.197600  0.237270  1
  O  O924  1  0.151000  0.697600  0.262730  1
  O  O925  1  0.349000  0.302400  0.762730  1
  O  O926  1  0.849000  0.197600  0.262730  1
  O  O927  1  0.651000  0.802400  0.762730  1
  O  O928  1  0.849000  0.302400  0.737270  1
  O  O929  1  0.760000  0.633500  0.221190  1
  O  O930  1  0.260000  0.866500  0.721190  1
  O  O931  1  0.240000  0.133500  0.221190  1
  O  O932  1  0.260000  0.633500  0.278810  1
  O  O933  1  0.240000  0.366500  0.778810  1
  O  O934  1  0.740000  0.133500  0.278810  1
  O  O935  1  0.760000  0.866500  0.778810  1
  O  O936  1  0.740000  0.366500  0.721190  1
  O  O937  1  0.333200  0.113900  0.150560  1
  O  O938  1  0.833200  0.386100  0.650560  1
  O  O939  1  0.666800  0.613900  0.150560  1
  O  O940  1  0.833200  0.113900  0.349440  1
  O  O941  1  0.666800  0.886100  0.849440  1
  O  O942  1  0.166800  0.613900  0.349440  1
  O  O943  1  0.333200  0.386100  0.849440  1
  O  O944  1  0.166800  0.886100  0.650560  1
  O  O945  1  0.283800  0.334000  0.199860  1
  O  O946  1  0.783800  0.166000  0.699860  1
  O  O947  1  0.716200  0.834000  0.199860  1
  O  O948  1  0.783800  0.334000  0.300140  1
  O  O949  1  0.716200  0.666000  0.800140  1
  O  O950  1  0.216200  0.834000  0.300140  1
  O  O951  1  0.283800  0.166000  0.800140  1
  O  O952  1  0.216200  0.666000  0.699860  1
  O  O953  1  0.517700  0.687400  0.292950  1
  O  O954  1  0.017700  0.812600  0.792950  1
  O  O955  1  0.482300  0.187400  0.292950  1
  O  O956  1  0.017700  0.687400  0.207050  1
  O  O957  1  0.482300  0.312600  0.707050  1
  O  O958  1  0.982300  0.187400  0.207050  1
  O  O959  1  0.517700  0.812600  0.707050  1
  O  O960  1  0.982300  0.312600  0.792950  1
  F  F961  1  0.081220  0.357040  0.017440  1
  F  F962  1  0.581220  0.142960  0.517440  1
  F  F963  1  0.918780  0.857040  0.017440  1
  F  F964  1  0.581220  0.357040  0.482560  1
  F  F965  1  0.918780  0.642960  0.982560  1
  F  F966  1  0.418780  0.857040  0.482560  1
  F  F967  1  0.081220  0.142960  0.982560  1
  F  F968  1  0.418780  0.642960  0.517440  1
  F  F969  1  0.012090  0.284590  0.962170  1
  F  F970  1  0.512090  0.215410  0.462170  1
  F  F971  1  0.987910  0.784590  0.962170  1
  F  F972  1  0.512090  0.284590  0.537830  1
  F  F973  1  0.987910  0.715410  0.037830  1
  F  F974  1  0.487910  0.784590  0.537830  1
  F  F975  1  0.012090  0.215410  0.037830  1
  F  F976  1  0.487910  0.715410  0.462170  1
  F  F977  1  0.752850  0.423490  0.972410  1
  F  F978  1  0.252850  0.076510  0.472410  1
  F  F979  1  0.247150  0.923490  0.972410  1
  F  F980  1  0.252850  0.423490  0.527590  1
  F  F981  1  0.247150  0.576510  0.027590  1
  F  F982  1  0.747150  0.923490  0.527590  1
  F  F983  1  0.752850  0.076510  0.027590  1
  F  F984  1  0.747150  0.576510  0.472410  1
  F  F985  1  0.823100  0.497310  0.027410  1
  F  F986  1  0.323100  0.002690  0.527410  1
  F  F987  1  0.176900  0.997310  0.027410  1
  F  F988  1  0.323100  0.497310  0.472590  1
  F  F989  1  0.176900  0.502690  0.972590  1
  F  F990  1  0.676900  0.997310  0.472590  1
  F  F991  1  0.823100  0.002690  0.972590  1
  F  F992  1  0.676900  0.502690  0.527410  1
  F  F993  1  0.577000  0.095940  0.097730  1
  F  F994  1  0.077000  0.404060  0.597730  1
  F  F995  1  0.423000  0.595940  0.097730  1
  F  F996  1  0.077000  0.095940  0.402270  1
  F  F997  1  0.423000  0.904060  0.902270  1
  F  F998  1  0.923000  0.595940  0.402270  1
  F  F999  1  0.577000  0.404060  0.902270  1
  F  F1000  1  0.923000  0.904060  0.597730  1
  F  F1001  1  0.606600  0.149230  0.163100  1
  F  F1002  1  0.106600  0.350770  0.663100  1
  F  F1003  1  0.393400  0.649230  0.163100  1
  F  F1004  1  0.106600  0.149230  0.336900  1
  F  F1005  1  0.393400  0.850770  0.836900  1
  F  F1006  1  0.893400  0.649230  0.336900  1
  F  F1007  1  0.606600  0.350770  0.836900  1
  F  F1008  1  0.893400  0.850770  0.663100  1
  F  F1009  1  0.425000  0.351490  0.138030  1
  F  F1010  1  0.925000  0.148510  0.638030  1
  F  F1011  1  0.575000  0.851490  0.138030  1
  F  F1012  1  0.925000  0.351490  0.361970  1
  F  F1013  1  0.575000  0.648510  0.861970  1
  F  F1014  1  0.075000  0.851490  0.361970  1
  F  F1015  1  0.425000  0.148510  0.861970  1
  F  F1016  1  0.075000  0.648510  0.638030  1
  F  F1017  1  0.396070  0.299480  0.072500  1
  F  F1018  1  0.896070  0.200520  0.572500  1
  F  F1019  1  0.603930  0.799480  0.072500  1
  F  F1020  1  0.896070  0.299480  0.427500  1
  F  F1021  1  0.603930  0.700520  0.927500  1
  F  F1022  1  0.103930  0.799480  0.427500  1
  F  F1023  1  0.396070  0.200520  0.927500  1
  F  F1024  1  0.103930  0.700520  0.572500  1
