
#######################################################################
#
#                 Cambridge Crystallographic Data Centre
#                                CCDC 
#
#######################################################################
#
# If this CIF has been generated from an entry in the Cambridge 
# Structural Database, then it will include bibliographic, chemical, 
# crystal, experimental, refinement or atomic coordinate data resulting 
# from the CCDC's data processing and validation procedures.
#
#######################################################################

data_EHARIO
_chemical_formula_moiety         
'C48 H38 F8 N4 Pd1 2+,2(N1 O3 1-),1.5(C3 H7 N1 O1),0.5(C1 H4 O1)'
_chemical_name_systematic        
"(R,R)-(1,3-bis(3-(2,3,5,6-Tetrafluoro-4-(4-pyridylmethyl)phenyl)phenyl)phenyl-N,N')-(cyclohexane-1,2-diamino)-palladium(ii) dinitrate dimethylformamide methanol solvate"
_symmetry_cell_setting           triclinic
_symmetry_space_group_name_H-M   'P 1'
_symmetry_Int_Tables_number      1
_space_group_name_Hall           'P 1'
loop_
_symmetry_equiv_pos_site_id
_symmetry_equiv_pos_as_xyz
1 x,y,z
_cell_length_a                   11.6595(14)
_cell_length_b                   12.0387(14)
_cell_length_c                   20.209(2)
_cell_angle_alpha                82.508(2)
_cell_angle_beta                 83.352(2)
_cell_angle_gamma                68.841(2)
_cell_volume                     2615.57
_cell_formula_units_Z            2
_exptl_crystal_recrystallization_method 
'diethyl ether/dimethylformamide/methanol'
loop_
_atom_site_label
_atom_site_type_symbol
_atom_site_fract_x
_atom_site_fract_y
_atom_site_fract_z
Pd1 Pd 0.90902(6) 0.08590(6) 0.93770(4)
F9 F 0.5772(8) 0.0979(9) 0.7001(5)
F10 F 0.6139(12) 0.0673(11) 0.5734(6)
F11 F 0.4685(12) 0.4883(9) 0.5196(6)
F12 F 0.4233(10) 0.5169(9) 0.6501(7)
F13 F 1.2043(10) -0.5119(10) 0.5981(5)
F14 F 1.1880(12) -0.5232(10) 0.7293(7)
F15 F 0.7893(9) -0.2320(9) 0.7256(5)
F16 F 0.8001(9) -0.2249(10) 0.5940(5)
N8 N 0.8845(12) 0.2445(9) 0.9736(7)
N9 N 1.0445(14) 0.0098(14) 1.0033(7)
C7 C 0.9994(11) 0.2210(11) 1.0101(7)
H11 H 1.0704 0.2148 0.9778
C8 C 1.0217(10) 0.1102(10) 1.0531(6)
H12 H 0.9505 0.1147 1.0850
C9 C 1.1435(18) 0.0763(18) 1.0908(9)
H13 H 1.137(15) 0.027(13) 1.132(8)
H14 H 1.213(16) 0.029(14) 1.063(8)
C10 C 1.169(2) 0.1825(15) 1.1074(13)
H15 H 1.18(3) 0.17(2) 1.155(13)
H16 H 1.25(2) 0.182(16) 1.083(10)
C11 C 1.088(2) 0.290(2) 1.0960(15)
H17 H 1.13(2) 0.340(19) 1.077(11)
H18 H 1.05(2) 0.32(2) 1.140(13)
C12 C 0.9741(13) 0.3261(15) 1.0523(6)
H19 H 0.898(15) 0.339(11) 1.081(7)
H20 H 0.967(13) 0.399(11) 1.024(7)
N12 N 0.7750(11) 0.1622(9) 0.8753(7)
C55 C 0.6640(14) 0.189(2) 0.9003(8)
H45 H 0.6500 0.1777 0.9465
C56 C 0.5568(17) 0.2369(17) 0.8593(9)
H46 H 0.4779 0.2433 0.8775
C57 C 0.5785(17) 0.2716(15) 0.7931(8)
C58 C 0.694(2) 0.244(2) 0.7732(13)
H47 H 0.7163 0.2569 0.7279
C59 C 0.7895(17) 0.1936(17) 0.8188(8)
H48 H 0.8695 0.1852 0.8019
C60 C 0.4673(17) 0.3258(16) 0.7507(10)
H49 H 0.433(18) 0.411(16) 0.754(9)
H50 H 0.405(19) 0.292(16) 0.769(9)
C61 C 0.4958(18) 0.3049(19) 0.6761(9)
C62 C 0.5435(14) 0.1917(14) 0.6481(7)
C63 C 0.5670(17) 0.1825(15) 0.5923(9)
C64 C 0.5394(15) 0.2783(14) 0.5342(7)
C65 C 0.4885(13) 0.3957(11) 0.5613(8)
C66 C 0.4704(14) 0.4019(17) 0.6265(9)
C67 C 0.5539(17) 0.2564(18) 0.4639(8)
C68 C 0.6617(18) 0.1744(17) 0.4387(9)
H51 H 0.7246 0.1309 0.4663
C69 C 0.674(2) 0.1583(16) 0.3714(9)
C70 C 0.5768(17) 0.2286(17) 0.3281(9)
H52 H 0.5840 0.2175 0.2829
C71 C 0.476(2) 0.310(2) 0.3556(11)
H53 H 0.4139 0.3587 0.3284
C72 C 0.4619(18) 0.3238(17) 0.4211(9)
H54 H 0.3897 0.3792 0.4385
C73 C 0.7859(19) 0.0675(15) 0.3459(10)
C74 C 0.8350(14) -0.0439(12) 0.3866(7)
H55 H 0.7934 -0.0560 0.4275
C75 C 0.9456(16) -0.1365(16) 0.3660(8)
C76 C 1.005(2) -0.1129(19) 0.3019(9)
H56 H 1.0727 -0.1738 0.2848
C77 C 0.969(2) -0.013(2) 0.2686(10)
H57 H 1.0184 0.0008 0.2314
C78 C 0.853(2) 0.083(2) 0.2848(9)
H58 H 0.8241 0.1522 0.2557
C79 C 0.9921(16) -0.2541(17) 0.4099(8)
C80 C 0.9767(15) -0.2603(15) 0.4776(7)
H59 H 0.9406 -0.1902 0.4986
C81 C 1.0137(15) -0.3681(16) 0.5153(9)
C82 C 1.0724(14) -0.4714(16) 0.4850(9)
H60 H 1.0987 -0.5448 0.5106
C83 C 1.0923(13) -0.4656(15) 0.4152(8)
H61 H 1.1381 -0.5354 0.3955
C84 C 1.0467(17) -0.3600(16) 0.3743(8)
H62 H 1.0508 -0.3574 0.3279
C85 C 1.0058(13) -0.3703(12) 0.5899(8)
C86 C 1.0970(13) -0.4467(13) 0.6315(8)
C87 C 1.0916(16) -0.4502(13) 0.7002(7)
C88 C 0.9829(14) -0.3747(14) 0.7356(8)
C89 C 0.8899(14) -0.2977(14) 0.6948(8)
C90 C 0.8983(14) -0.2983(13) 0.6265(8)
N13 N 0.9370(13) -0.0678(13) 0.8996(6)
C91 C 0.8721(14) -0.1363(13) 0.9231(8)
H63 H 0.8114 -0.1095 0.9574
C92 C 0.8879(18) -0.2487(19) 0.9000(9)
H64 H 0.8538 -0.3019 0.9241
C93 C 0.9581(14) -0.2743(16) 0.8383(8)
C94 C 1.023(2) -0.1976(19) 0.8131(11)
H65 H 1.0763 -0.2119 0.7747
C95 C 1.0031(16) -0.0976(14) 0.8486(7)
H66 H 1.0464 -0.0477 0.8308
C96 C 0.9712(18) -0.3859(15) 0.8102(9)
H67 H 1.044(19) -0.449(17) 0.827(9)
H68 H 0.900(19) -0.408(17) 0.826(9)
Pd2 Pd 0.43390(6) -0.36662(5) 0.13335(4)
F1 F 0.7796(9) -0.3818(10) 0.3705(5)
F2 F 0.7308(9) -0.3501(7) 0.5014(4)
F3 F 0.8769(11) -0.7695(11) 0.5518(6)
F4 F 0.9223(9) -0.7969(9) 0.4236(4)
F5 F 0.1384(9) 0.2341(10) 0.4704(6)
F6 F 0.1571(10) 0.2381(9) 0.3391(5)
F7 F 0.5587(9) -0.0473(10) 0.3443(5)
F8 F 0.5411(9) -0.0570(9) 0.4767(5)
N6 N 0.2986(12) -0.2958(9) 0.0683(6)
N7 N 0.4576(11) -0.5185(12) 0.0956(5)
C1 C 0.2654(12) -0.3953(10) 0.0503(7)
H1 H 0.2161 -0.4221 0.0871
C2 C 0.3868(13) -0.4940(10) 0.0356(7)
H2 H 0.4317 -0.4600 -0.0004
C3 C 0.3725(18) -0.6006(13) 0.0092(10)
H3 H 0.453(17) -0.653(13) -0.008(9)
H4 H 0.342(15) -0.646(14) 0.046(9)
C4 C 0.288(3) -0.564(2) -0.0446(19)
H5 H 0.33(3) -0.61(3) -0.083(18)
H6 H 0.23(4) -0.60(3) -0.030(19)
C5 C 0.2332(19) -0.4655(15) -0.0667(10)
H7 H 0.16(2) -0.464(19) -0.082(12)
H8 H 0.282(18) -0.445(15) -0.105(10)
C6 C 0.198(2) -0.3572(16) -0.0121(10)
H9 H 0.216(16) -0.289(15) -0.035(8)
H10 H 0.110(18) -0.331(15) 0.000(9)
N10 N 0.5784(9) -0.4554(10) 0.1930(5)
C13 C 0.6988(11) -0.4757(18) 0.1680(8)
H21 H 0.7156 -0.4498 0.1238
C14 C 0.7912(15) -0.5324(18) 0.2074(8)
H22 H 0.8711 -0.5627 0.1878
C15 C 0.7725(14) -0.5471(14) 0.2739(8)
C16 C 0.6504(17) -0.5265(18) 0.3017(8)
H23 H 0.6365 -0.5482 0.3469
C17 C 0.5526(13) -0.4751(15) 0.2629(6)
H24 H 0.4719 -0.4538 0.2818
C18 C 0.8789(18) -0.599(2) 0.3169(9)
H25 H 0.920(19) -0.683(17) 0.309(9)
H26 H 0.94(2) -0.559(17) 0.302(10)
C19 C 0.8500(13) -0.5919(13) 0.3893(7)
C20 C 0.7977(12) -0.4788(11) 0.4119(6)
C21 C 0.7750(14) -0.4605(14) 0.4849(7)
C22 C 0.8054(13) -0.5589(14) 0.5279(6)
C23 C 0.8473(15) -0.6595(13) 0.5075(8)
C24 C 0.8735(15) -0.6862(13) 0.4378(8)
C25 C 0.7895(14) -0.5423(13) 0.6016(7)
C26 C 0.6838(16) -0.4575(16) 0.6295(8)
H27 H 0.6217 -0.4128 0.6017
C27 C 0.6661(17) -0.4359(19) 0.6979(9)
C28 C 0.7545(16) -0.5037(15) 0.7377(8)
H28 H 0.7427 -0.4942 0.7833
C29 C 0.8657(18) -0.5896(14) 0.7130(8)
H29 H 0.9271 -0.6324 0.7417
C30 C 0.8828(16) -0.6100(14) 0.6441(8)
H30 H 0.9545 -0.6672 0.6275
C31 C 0.5498(16) -0.3411(17) 0.7223(7)
C32 C 0.507(2) -0.2289(18) 0.6865(10)
H31 H 0.5525 -0.2133 0.6480
C33 C 0.401(2) -0.142(2) 0.7055(10)
C34 C 0.3358(19) -0.165(2) 0.7635(9)
H32 H 0.2579 -0.1104 0.7747
C35 C 0.3887(19) -0.274(2) 0.8077(9)
H33 H 0.3535 -0.2849 0.8507
C36 C 0.489(2) -0.3567(18) 0.7834(10)
H34 H 0.5207 -0.4294 0.8092
C37 C 0.3552(15) -0.0289(17) 0.6669(8)
C38 C 0.3686(17) -0.0223(17) 0.5975(9)
H35 H 0.4075 -0.0935 0.5779
C39 C 0.3272(15) 0.0858(16) 0.5540(9)
C40 C 0.2778(16) 0.1917(18) 0.5872(10)
H36 H 0.2538 0.2652 0.5616
C41 C 0.2641(14) 0.1901(16) 0.6549(9)
H37 H 0.2330 0.2607 0.6755
C42 C 0.2973(16) 0.0817(18) 0.6914(8)
H38 H 0.2794 0.0818 0.7375
C43 C 0.3416(15) 0.0868(16) 0.4814(8)
C44 C 0.2454(15) 0.1591(15) 0.4443(9)
C45 C 0.2558(15) 0.1600(14) 0.3767(8)
C46 C 0.3529(16) 0.0984(14) 0.3398(8)
C47 C 0.4505(14) 0.0249(11) 0.3769(8)
C48 C 0.4434(14) 0.0180(16) 0.4451(8)
N11 N 0.4039(10) -0.2068(8) 0.1698(6)
C49 C 0.4555(15) -0.1252(12) 0.1411(8)
H39 H 0.4923 -0.1322 0.0978
C50 C 0.4544(17) -0.0370(14) 0.1735(10)
H40 H 0.5068 0.0048 0.1574
C51 C 0.3780(15) -0.0044(15) 0.2306(8)
C52 C 0.3166(18) -0.0788(14) 0.2576(9)
H41 H 0.2647 -0.0592 0.2962
C53 C 0.3276(13) -0.1764(14) 0.2318(7)
H42 H 0.2867 -0.2264 0.2529
C54 C 0.368(2) 0.106(2) 0.2647(10)
H43 H 0.30(2) 0.173(19) 0.248(10)
H44 H 0.44(2) 0.126(19) 0.251(10)
N1 N 0.1221(14) 0.2262(15) 0.8457(13)
O1 O 0.0389(11) 0.3239(10) 0.8521(6)
O2 O 0.2276(10) 0.2264(12) 0.8514(6)
O3 O 0.1015(14) 0.1394(12) 0.8348(9)
N2 N 0.2191(8) -0.5149(7) 0.2251(4)
O4 O 0.3007(15) -0.6038(9) 0.2013(8)
O5 O 0.1082(11) -0.5073(12) 0.2335(6)
O6 O 0.2437(14) -0.4297(11) 0.2342(6)
N3 N 0.6963(11) -0.4919(12) 0.9559(8)
O7 O 0.6398(13) -0.5437(10) 0.9304(6)
O8 O 0.679(2) -0.4359(17) 1.0051(6)
O9 O 0.7824(12) -0.4803(13) 0.9202(8)
N4 N 0.6453(15) 0.2022(12) 0.1075(6)
O10 O 0.6856(12) 0.1628(14) 0.0512(5)
O11 O 0.6997(12) 0.2759(9) 0.1035(10)
O12 O 0.5716(13) 0.1942(14) 0.1502(7)
O14 O 0.7450(14) -0.2805(14) 0.0488(7)
C107 C 0.874(2) -0.351(3) 0.0583(12)
O15 O 0.0427(11) -0.1736(11) 0.1143(7)
N14 N -0.1295(15) -0.1811(14) 0.1746(7)
C97 C -0.2076(18) -0.075(2) 0.1441(10)
C98 C -0.194(2) -0.232(2) 0.2295(9)
C99 C -0.0039(17) -0.2189(12) 0.1606(8)
O16 O 0.2990(16) -0.1083(15) 0.9585(8)
N15 N 0.4651(14) -0.0968(16) 0.8896(7)
C100 C 0.5148(15) -0.032(2) 0.8332(10)
C101 C 0.549(3) -0.209(3) 0.932(2)
C102 C 0.349(2) -0.053(2) 0.9107(12)
O18 O 0.059(5) -0.055(5) 0.631(2)
C105 C 0.089(7) -0.146(4) 0.633(3)
loop_
_geom_bond_atom_site_label_1
_geom_bond_atom_site_label_2
_geom_bond_site_symmetry_1
_geom_bond_site_symmetry_2
Pd1 N8 1_555 1_555
Pd2 N6 1_555 1_555
F1 C20 1_555 1_555
F2 C21 1_555 1_555
F3 C23 1_555 1_555
F4 C24 1_555 1_555
F5 C44 1_555 1_555
F6 C45 1_555 1_555
F7 C47 1_555 1_555
F8 C48 1_555 1_555
F9 C62 1_555 1_555
F10 C63 1_555 1_555
F11 C65 1_555 1_555
F12 C66 1_555 1_555
F13 C86 1_555 1_555
F14 C87 1_555 1_555
F15 C89 1_555 1_555
F16 C90 1_555 1_555
N1 O1 1_555 1_555
O2 N1 1_555 1_555
O3 N1 1_555 1_555
N2 O4 1_555 1_555
O5 N2 1_555 1_555
O6 N2 1_555 1_555
N3 O7 1_555 1_555
O8 N3 1_555 1_555
O9 N3 1_555 1_555
N4 O10 1_555 1_555
O11 N4 1_555 1_555
O12 N4 1_555 1_555
O14 C107 1_555 1_555
N6 C1 1_555 1_555
N7 Pd2 1_555 1_555
C1 H1 1_555 1_555
C2 N7 1_555 1_555
H2 C2 1_555 1_555
C3 C2 1_555 1_555
H3 C3 1_555 1_555
H4 C3 1_555 1_555
C4 C3 1_555 1_555
H5 C4 1_555 1_555
H6 C4 1_555 1_555
C5 C4 1_555 1_555
H7 C5 1_555 1_555
H8 C5 1_555 1_555
C6 C1 1_555 1_555
H9 C6 1_555 1_555
H10 C6 1_555 1_555
N8 C7 1_555 1_555
N9 Pd1 1_555 1_555
C7 H11 1_555 1_555
C8 N9 1_555 1_555
H12 C8 1_555 1_555
C9 C8 1_555 1_555
H13 C9 1_555 1_555
H14 C9 1_555 1_555
C10 C9 1_555 1_555
H15 C10 1_555 1_555
H16 C10 1_555 1_555
C11 C10 1_555 1_555
H17 C11 1_555 1_555
H18 C11 1_555 1_555
C12 C7 1_555 1_555
H19 C12 1_555 1_555
H20 C12 1_555 1_555
N10 Pd2 1_555 1_555
C13 N10 1_555 1_555
H21 C13 1_555 1_555
C14 C13 1_555 1_555
H22 C14 1_555 1_555
C15 C14 1_555 1_555
C16 C15 1_555 1_555
H23 C16 1_555 1_555
C17 N10 1_555 1_555
H24 C17 1_555 1_555
C18 C15 1_555 1_555
H25 C18 1_555 1_555
H26 C18 1_555 1_555
C19 C18 1_555 1_555
C20 C19 1_555 1_555
C21 C20 1_555 1_555
C22 C21 1_555 1_555
C23 C22 1_555 1_555
C24 C19 1_555 1_555
C25 C22 1_555 1_555
C26 C25 1_555 1_555
H27 C26 1_555 1_555
C27 C26 1_555 1_555
C28 C27 1_555 1_555
H28 C28 1_555 1_555
C29 C28 1_555 1_555
H29 C29 1_555 1_555
C30 C25 1_555 1_555
H30 C30 1_555 1_555
C31 C27 1_555 1_555
C32 C31 1_555 1_555
H31 C32 1_555 1_555
C33 C32 1_555 1_555
C34 C33 1_555 1_555
H32 C34 1_555 1_555
C35 C34 1_555 1_555
H33 C35 1_555 1_555
C36 C31 1_555 1_555
H34 C36 1_555 1_555
C37 C33 1_555 1_555
C38 C37 1_555 1_555
H35 C38 1_555 1_555
C39 C38 1_555 1_555
C40 C39 1_555 1_555
H36 C40 1_555 1_555
C41 C40 1_555 1_555
H37 C41 1_555 1_555
C42 C37 1_555 1_555
H38 C42 1_555 1_555
C43 C39 1_555 1_555
C44 C43 1_555 1_555
C45 C44 1_555 1_555
C46 C45 1_555 1_555
C47 C46 1_555 1_555
C48 C43 1_555 1_555
N11 Pd2 1_555 1_555
C49 N11 1_555 1_555
H39 C49 1_555 1_555
C50 C49 1_555 1_555
H40 C50 1_555 1_555
C51 C50 1_555 1_555
C52 C51 1_555 1_555
H41 C52 1_555 1_555
C53 N11 1_555 1_555
H42 C53 1_555 1_555
C54 C46 1_555 1_555
H43 C54 1_555 1_555
H44 C54 1_555 1_555
N12 Pd1 1_555 1_555
C55 N12 1_555 1_555
H45 C55 1_555 1_555
C56 C55 1_555 1_555
H46 C56 1_555 1_555
C57 C56 1_555 1_555
C58 C57 1_555 1_555
H47 C58 1_555 1_555
C59 N12 1_555 1_555
H48 C59 1_555 1_555
C60 C57 1_555 1_555
H49 C60 1_555 1_555
H50 C60 1_555 1_555
C61 C60 1_555 1_555
C62 C61 1_555 1_555
C63 C62 1_555 1_555
C64 C63 1_555 1_555
C65 C64 1_555 1_555
C66 C61 1_555 1_555
C67 C64 1_555 1_555
C68 C67 1_555 1_555
H51 C68 1_555 1_555
C69 C68 1_555 1_555
C70 C69 1_555 1_555
H52 C70 1_555 1_555
C71 C70 1_555 1_555
H53 C71 1_555 1_555
C72 C67 1_555 1_555
H54 C72 1_555 1_555
C73 C69 1_555 1_555
C74 C73 1_555 1_555
H55 C74 1_555 1_555
C75 C74 1_555 1_555
C76 C75 1_555 1_555
H56 C76 1_555 1_555
C77 C76 1_555 1_555
H57 C77 1_555 1_555
C78 C73 1_555 1_555
H58 C78 1_555 1_555
C79 C75 1_555 1_555
C80 C79 1_555 1_555
H59 C80 1_555 1_555
C81 C80 1_555 1_555
C82 C81 1_555 1_555
H60 C82 1_555 1_555
C83 C82 1_555 1_555
H61 C83 1_555 1_555
C84 C79 1_555 1_555
H62 C84 1_555 1_555
C85 C81 1_555 1_555
C86 C85 1_555 1_555
C87 C86 1_555 1_555
C88 C87 1_555 1_555
C89 C88 1_555 1_555
C90 C85 1_555 1_555
N13 Pd1 1_555 1_555
C91 N13 1_555 1_555
H63 C91 1_555 1_555
C92 C91 1_555 1_555
H64 C92 1_555 1_555
C93 C92 1_555 1_555
C94 C93 1_555 1_555
H65 C94 1_555 1_555
C95 N13 1_555 1_555
H66 C95 1_555 1_555
C96 C88 1_555 1_555
H67 C96 1_555 1_555
H68 C96 1_555 1_555
O15 C99 1_555 1_555
N14 C97 1_555 1_555
C98 N14 1_555 1_555
C99 N14 1_555 1_555
O16 C102 1_555 1_555
N15 C100 1_555 1_555
C101 N15 1_555 1_555
C102 N15 1_555 1_555
O18 C105 1_555 1_555
C1 C2 1_555 1_555
C5 C6 1_555 1_555
C7 C8 1_555 1_555
C11 C12 1_555 1_555
C16 C17 1_555 1_555
C23 C24 1_555 1_555
C29 C30 1_555 1_555
C35 C36 1_555 1_555
C41 C42 1_555 1_555
C47 C48 1_555 1_555
C51 C54 1_555 1_555
C52 C53 1_555 1_555
C58 C59 1_555 1_555
C65 C66 1_555 1_555
C71 C72 1_555 1_555
C77 C78 1_555 1_555
C83 C84 1_555 1_555
C89 C90 1_555 1_555
C93 C96 1_555 1_555
C94 C95 1_555 1_555

#END
