
#######################################################################
#
#                 Cambridge Crystallographic Data Centre
#                                CCDC 
#
#######################################################################
#
# If this CIF has been generated from an entry in the Cambridge 
# Structural Database, then it will include bibliographic, chemical, 
# crystal, experimental, refinement or atomic coordinate data resulting 
# from the CCDC's data processing and validation procedures.
#
#######################################################################

data_EHARUA
_chemical_formula_moiety         'C50 H44 F8 N4 O4 Pd1 2+,2(N1 O3 1-),3(H2 O1)'
_chemical_name_systematic        
"(1,3-bis(3-(2,3,5,6-Tetrafluoro-4-(4-pyridylmethyl)phenyl)-4-methoxyethoxyphenyl)phenyl-N,N')-(ethylene-1,2-diamino)-palladium(ii) dinitrate trihydrate"
_symmetry_cell_setting           orthorhombic
_symmetry_space_group_name_H-M   'P b c n'
_symmetry_Int_Tables_number      60
_space_group_name_Hall           '-P 2n 2ab'
loop_
_symmetry_equiv_pos_site_id
_symmetry_equiv_pos_as_xyz
1 x,y,z
2 1/2+x,1/2+y,1/2-z
3 x,-y,1/2+z
4 1/2-x,1/2+y,z
5 -x,-y,-z
6 1/2-x,1/2-y,1/2+z
7 -x,y,1/2-z
8 1/2+x,1/2-y,-z
_cell_length_a                   37.176(3)
_cell_length_b                   15.2673(11)
_cell_length_c                   18.2484(13)
_cell_angle_alpha                90
_cell_angle_beta                 90
_cell_angle_gamma                90
_cell_volume                     10357.4
_cell_formula_units_Z            8
loop_
_atom_site_label
_atom_site_type_symbol
_atom_site_fract_x
_atom_site_fract_y
_atom_site_fract_z
Pd1 Pd 0.214975(9) 1.85667(2) 0.47537(2)
F1 F 0.01744(8) 2.08122(18) 0.35704(19)
F2 F -0.03783(8) 2.01209(18) 0.28459(18)
F3 F -0.02759(8) 1.75285(19) 0.42349(19)
F4 F 0.02741(8) 1.8231(2) 0.49731(18)
F5 F 0.09773(8) 1.5770(2) 0.09594(17)
F6 F 0.16310(8) 1.6066(2) 0.14923(18)
F7 F 0.13803(9) 1.4250(2) 0.35149(17)
F8 F 0.07250(8) 1.39607(19) 0.29948(18)
N1 N 0.16240(10) 1.8913(2) 0.4701(2)
C1 C 0.14888(13) 1.9346(3) 0.4107(3)
H1 H 0.1641 1.9452 0.3699
C2 C 0.11409(13) 1.9630(3) 0.4083(3)
H2 H 0.1053 1.9911 0.3655
C3 C 0.09135(12) 1.9510(3) 0.4685(3)
C4 C 0.10500(13) 1.9035(3) 0.5260(3)
H3 H 0.0900 1.8899 0.5666
C5 C 0.14003(13) 1.8754(3) 0.5255(3)
H4 H 0.1487 1.8432 0.5664
C6 C 0.05490(13) 1.9950(4) 0.4727(3)
H5 H 0.0473 1.9965 0.5247
H6 H 0.0576 2.0564 0.4562
C7 C 0.02529(12) 1.9524(3) 0.4282(3)
C8 C 0.00739(13) 1.9982(3) 0.3735(3)
C9 C -0.02124(13) 1.9627(3) 0.3367(3)
C10 C -0.03429(12) 1.8795(3) 0.3508(3)
C11 C -0.01645(13) 1.8339(3) 0.4052(3)
C12 C 0.01210(13) 1.8703(3) 0.4429(3)
C13 C -0.06440(12) 1.8409(3) 0.3074(3)
C14 C -0.05650(13) 1.7883(3) 0.2474(3)
H7 H -0.0320 1.7784 0.2351
C15 C -0.08329(13) 1.7493(3) 0.2042(3)
C16 C -0.11850(13) 1.7677(3) 0.2231(3)
H8 H -0.1373 1.7446 0.1937
C17 C -0.12742(13) 1.8188(3) 0.2833(3)
H9 H -0.1520 1.8282 0.2955
C18 C -0.10054(12) 1.8561(3) 0.3259(3)
C19 C -0.07428(13) 1.6893(3) 0.1435(3)
C20 C -0.04652(12) 1.6292(3) 0.1510(3)
H10 H -0.0323 1.6307 0.1942
C21 C -0.03871(13) 1.5667(3) 0.0975(3)
C22 C -0.05977(14) 1.5664(4) 0.0343(3)
H11 H -0.0553 1.5243 -0.0029
C23 C -0.08705(14) 1.6265(4) 0.0254(3)
H12 H -0.1011 1.6259 -0.0181
C24 C -0.09427(14) 1.6881(4) 0.0795(3)
H13 H -0.1130 1.7295 0.0725
C25 C -0.01012(13) 1.5011(3) 0.1111(3)
C26 C 0.02222(13) 1.5230(3) 0.1444(3)
H14 H 0.0269 1.5827 0.1554
C27 C 0.04769(13) 1.4609(3) 0.1621(3)
C28 C 0.04031(14) 1.3725(3) 0.1457(3)
C29 C 0.00907(14) 1.3501(3) 0.1104(3)
H15 H 0.0045 1.2905 0.0987
C30 C -0.01581(14) 1.4132(3) 0.0917(3)
H16 H -0.0369 1.3972 0.0657
C31 C 0.08276(13) 1.4842(3) 0.1954(3)
C32 C 0.10712(14) 1.5390(3) 0.1602(3)
C33 C 0.14066(13) 1.5532(3) 0.1867(3)
C34 C 0.15328(13) 1.5137(3) 0.2511(3)
C35 C 0.12859(14) 1.4635(3) 0.2868(3)
C36 C 0.09486(13) 1.4477(3) 0.2612(3)
N2 N 0.20456(10) 1.7529(3) 0.4111(2)
C37 C 0.18909(13) 1.6800(3) 0.4381(3)
H17 H 0.1814 1.6793 0.4877
C38 C 0.18400(13) 1.6060(3) 0.3954(3)
H18 H 0.1722 1.5561 0.4152
C39 C 0.19612(13) 1.6050(3) 0.3239(3)
C40 C 0.21125(13) 1.6808(3) 0.2960(3)
H19 H 0.2190 1.6829 0.2464
C41 C 0.21509(13) 1.7530(3) 0.3404(3)
H20 H 0.2255 1.8047 0.3205
C42 C 0.19147(14) 1.5240(3) 0.2767(3)
H21 H 0.2076 1.5281 0.2337
H22 H 0.1985 1.4716 0.3053
O1 O -0.10684(9) 1.9092(2) 0.3850(2)
O2 O -0.10672(12) 1.8175(3) 0.5184(2)
C43 C -0.13907(14) 1.8924(3) 0.4269(3)
H23 H -0.1598 1.8880 0.3931
H24 H -0.1435 1.9420 0.4605
C44 C -0.13613(17) 1.8095(4) 0.4704(4)
H25 H -0.1585 1.7996 0.4987
H26 H -0.1325 1.7590 0.4372
C45 C -0.1006(3) 1.7388(5) 0.5589(4)
H27 H -0.0799 1.7469 0.5915
H28 H -0.0957 1.6906 0.5249
H29 H -0.1220 1.7250 0.5880
O3 O 0.06643(9) 1.3126(2) 0.1641(2)
O4 O 0.11184(12) 1.1699(3) 0.1891(2)
C46 C 0.05368(15) 1.2318(4) 0.1921(5)
H30 H 0.0463 1.1930 0.1514
H31 H 0.0326 1.2418 0.2241
C47 C 0.08343(16) 1.1900(4) 0.2350(4)
H32 H 0.0917 1.2305 0.2739
H33 H 0.0745 1.1359 0.2587
C48 C 0.1398(2) 1.1235(7) 0.2254(5)
H34 H 0.1592 1.1110 0.1905
H35 H 0.1302 1.0684 0.2448
H36 H 0.1492 1.1591 0.2657
N3 N 0.26753(11) 1.8238(3) 0.4819(2)
H37 H 0.2709 1.7818 0.5174
H38 H 0.2754 1.8017 0.4378
N4 N 0.22981(11) 1.9612(3) 0.5382(2)
H39 H 0.2277 2.0122 0.5116
H40 H 0.2151 1.9653 0.5786
C49 C 0.28790(13) 1.9054(4) 0.5009(3)
H41 H 0.3127 1.8907 0.5165
H42 H 0.2893 1.9449 0.4579
C50 C 0.26795(15) 1.9486(4) 0.5619(3)
H43 H 0.2689 1.9116 0.6064
H44 H 0.2790 2.0060 0.5735
N5 N 0.22158(12) 1.0636(3) 0.3684(3)
O5 O 0.23517(10) 0.9893(2) 0.3630(2)
O6 O 0.20699(12) 1.0982(3) 0.3144(2)
O7 O 0.22215(11) 1.1040(3) 0.4282(2)
N6 N 0.24345(16) 0.7047(3) 0.6464(3)
O8 O 0.27203(15) 0.7038(4) 0.6146(3)
O9 O 0.23727(15) 0.6510(3) 0.6976(3)
O10 O 0.22119(15) 0.7600(4) 0.6335(4)
O11 O 0.15056(13) 1.3332(3) 0.1139(3)
H45 H 0.1718 1.3131 0.1393
H46 H 0.1248 1.2966 0.1333
O12 O 0.19986(12) 1.2838(3) 0.3340(3)
H47 H 0.1877 1.2542 0.3890
H48 H 0.1965 1.2185 0.3367
O13 O 0.29295(11) 0.5177(3) 0.6874(2)
H49 H 0.2728 0.5598 0.6968
H50 H 0.2840 0.4714 0.6822
loop_
_geom_bond_atom_site_label_1
_geom_bond_atom_site_label_2
_geom_bond_site_symmetry_1
_geom_bond_site_symmetry_2
Pd1 N1 1_555 1_555
F1 C8 1_555 1_555
F2 C9 1_555 1_555
F3 C11 1_555 1_555
F4 C12 1_555 1_555
F5 C32 1_555 1_555
F6 C33 1_555 1_555
F7 C35 1_555 1_555
F8 C36 1_555 1_555
N1 C1 1_555 1_555
C1 H1 1_555 1_555
C2 C1 1_555 1_555
H2 C2 1_555 1_555
C3 C2 1_555 1_555
C4 C3 1_555 1_555
H3 C4 1_555 1_555
C5 N1 1_555 1_555
H4 C5 1_555 1_555
C6 C3 1_555 1_555
H5 C6 1_555 1_555
H6 C6 1_555 1_555
C7 C6 1_555 1_555
C8 C7 1_555 1_555
C9 C8 1_555 1_555
C10 C9 1_555 1_555
C11 C10 1_555 1_555
C12 C7 1_555 1_555
C13 C10 1_555 1_555
C14 C13 1_555 1_555
H7 C14 1_555 1_555
C15 C14 1_555 1_555
C16 C15 1_555 1_555
H8 C16 1_555 1_555
C17 C16 1_555 1_555
H9 C17 1_555 1_555
C18 C13 1_555 1_555
C19 C15 1_555 1_555
C20 C19 1_555 1_555
H10 C20 1_555 1_555
C21 C20 1_555 1_555
C22 C21 1_555 1_555
H11 C22 1_555 1_555
C23 C22 1_555 1_555
H12 C23 1_555 1_555
C24 C19 1_555 1_555
H13 C24 1_555 1_555
C25 C21 1_555 1_555
C26 C25 1_555 1_555
H14 C26 1_555 1_555
C27 C26 1_555 1_555
C28 C27 1_555 1_555
C29 C28 1_555 1_555
H15 C29 1_555 1_555
C30 C25 1_555 1_555
H16 C30 1_555 1_555
C31 C27 1_555 1_555
C32 C31 1_555 1_555
C33 C32 1_555 1_555
C34 C33 1_555 1_555
C35 C34 1_555 1_555
C36 C31 1_555 1_555
N2 Pd1 1_555 1_555
C37 N2 1_555 1_555
H17 C37 1_555 1_555
C38 C37 1_555 1_555
H18 C38 1_555 1_555
C39 C38 1_555 1_555
C40 C39 1_555 1_555
H19 C40 1_555 1_555
C41 N2 1_555 1_555
H20 C41 1_555 1_555
C42 C34 1_555 1_555
H21 C42 1_555 1_555
H22 C42 1_555 1_555
O1 C18 1_555 1_555
O2 C44 1_555 1_555
C43 O1 1_555 1_555
H23 C43 1_555 1_555
H24 C43 1_555 1_555
C44 C43 1_555 1_555
H25 C44 1_555 1_555
H26 C44 1_555 1_555
C45 O2 1_555 1_555
H27 C45 1_555 1_555
H28 C45 1_555 1_555
H29 C45 1_555 1_555
O3 C28 1_555 1_555
O4 C47 1_555 1_555
C46 O3 1_555 1_555
H30 C46 1_555 1_555
H31 C46 1_555 1_555
C47 C46 1_555 1_555
H32 C47 1_555 1_555
H33 C47 1_555 1_555
C48 O4 1_555 1_555
H34 C48 1_555 1_555
H35 C48 1_555 1_555
H36 C48 1_555 1_555
N3 Pd1 1_555 1_555
H37 N3 1_555 1_555
H38 N3 1_555 1_555
N4 Pd1 1_555 1_555
H39 N4 1_555 1_555
H40 N4 1_555 1_555
C49 N3 1_555 1_555
H41 C49 1_555 1_555
H42 C49 1_555 1_555
C50 N4 1_555 1_555
H43 C50 1_555 1_555
H44 C50 1_555 1_555
N5 O5 1_555 1_555
O6 N5 1_555 1_555
O7 N5 1_555 1_555
N6 O8 1_555 1_555
O9 N6 1_555 1_555
O10 N6 1_555 1_555
O11 H45 1_555 1_555
H46 O11 1_555 1_555
O12 H47 1_555 1_555
H48 O12 1_555 1_555
O13 H49 1_555 1_555
H50 O13 1_555 1_555
C4 C5 1_555 1_555
C11 C12 1_555 1_555
C17 C18 1_555 1_555
C23 C24 1_555 1_555
C29 C30 1_555 1_555
C35 C36 1_555 1_555
C39 C42 1_555 1_555
C40 C41 1_555 1_555
C49 C50 1_555 1_555

#END
