# generated using pymatgen
data_Fe4H96C144S13N24(O18F7)2
_symmetry_space_group_name_H-M   'P 1'
_cell_length_a   33.78800000
_cell_length_b   33.78800000
_cell_length_c   39.93800000
_cell_angle_alpha   90.00000000
_cell_angle_beta   90.00000000
_cell_angle_gamma   120.00000000
_symmetry_Int_Tables_number   1
_chemical_formula_structural   Fe4H96C144S13N24(O18F7)2
_chemical_formula_sum   'Fe16 H384 C576 S52 N96 O144 F56'
_cell_volume   39485.88854862
_cell_formula_units_Z   4
loop_
 _symmetry_equiv_pos_site_id
 _symmetry_equiv_pos_as_xyz
  1  'x, y, z'
loop_
 _atom_site_type_symbol
 _atom_site_label
 _atom_site_symmetry_multiplicity
 _atom_site_fract_x
 _atom_site_fract_y
 _atom_site_fract_z
 _atom_site_occupancy
  Fe  Fe1  1  0.666667  0.333333  0.255440  1
  Fe  Fe2  1  0.333333  0.666667  0.244560  1
  Fe  Fe3  1  0.333333  0.666667  0.744560  1
  Fe  Fe4  1  0.666667  0.333333  0.755440  1
  Fe  Fe5  1  0.715450  0.141740  0.993090  1.0
  Fe  Fe6  1  0.426290  0.284550  0.993090  1.0
  Fe  Fe7  1  0.858260  0.573710  0.993090  1.0
  Fe  Fe8  1  0.141740  0.715450  0.506910  1.0
  Fe  Fe9  1  0.284550  0.426290  0.506910  1.0
  Fe  Fe10  1  0.573710  0.858260  0.506910  1.0
  Fe  Fe11  1  0.284550  0.858260  0.006910  1.0
  Fe  Fe12  1  0.573710  0.715450  0.006910  1.0
  Fe  Fe13  1  0.141740  0.426290  0.006910  1.0
  Fe  Fe14  1  0.858260  0.284550  0.493090  1.0
  Fe  Fe15  1  0.715450  0.573710  0.493090  1.0
  Fe  Fe16  1  0.426290  0.141740  0.493090  1.0
  H  H17  1  0.572300  0.003300  0.016700  1.0
  H  H18  1  0.431000  0.427700  0.016700  1.0
  H  H19  1  0.996700  0.569000  0.016700  1.0
  H  H20  1  0.003300  0.572300  0.483300  1.0
  H  H21  1  0.427700  0.431000  0.483300  1.0
  H  H22  1  0.569000  0.996700  0.483300  1.0
  H  H23  1  0.427700  0.996700  0.983300  1.0
  H  H24  1  0.569000  0.572300  0.983300  1.0
  H  H25  1  0.003300  0.431000  0.983300  1.0
  H  H26  1  0.996700  0.427700  0.516700  1.0
  H  H27  1  0.572300  0.569000  0.516700  1.0
  H  H28  1  0.431000  0.003300  0.516700  1.0
  H  H29  1  0.570700  0.959700  0.970600  1.0
  H  H30  1  0.389000  0.429300  0.970600  1.0
  H  H31  1  0.040300  0.611000  0.970600  1.0
  H  H32  1  0.959700  0.570700  0.529400  1.0
  H  H33  1  0.429300  0.389000  0.529400  1.0
  H  H34  1  0.611000  0.040300  0.529400  1.0
  H  H35  1  0.429300  0.040300  0.029400  1.0
  H  H36  1  0.611000  0.570700  0.029400  1.0
  H  H37  1  0.959700  0.389000  0.029400  1.0
  H  H38  1  0.040300  0.429300  0.470600  1.0
  H  H39  1  0.570700  0.611000  0.470600  1.0
  H  H40  1  0.389000  0.959700  0.470600  1.0
  H  H41  1  0.629700  0.990900  0.931100  1.0
  H  H42  1  0.361200  0.370300  0.931100  1.0
  H  H43  1  0.009100  0.638800  0.931100  1.0
  H  H44  1  0.990900  0.629700  0.568900  1.0
  H  H45  1  0.370300  0.361200  0.568900  1.0
  H  H46  1  0.638800  0.009100  0.568900  1.0
  H  H47  1  0.370300  0.009100  0.068900  1.0
  H  H48  1  0.638800  0.629700  0.068900  1.0
  H  H49  1  0.990900  0.361200  0.068900  1.0
  H  H50  1  0.009100  0.370300  0.431100  1.0
  H  H51  1  0.629700  0.638800  0.431100  1.0
  H  H52  1  0.361200  0.990900  0.431100  1.0
  H  H53  1  0.690400  0.065800  0.937700  1.0
  H  H54  1  0.375400  0.309600  0.937700  1.0
  H  H55  1  0.934200  0.624600  0.937700  1.0
  H  H56  1  0.065800  0.690400  0.562300  1.0
  H  H57  1  0.309600  0.375400  0.562300  1.0
  H  H58  1  0.624600  0.934200  0.562300  1.0
  H  H59  1  0.309600  0.934200  0.062300  1.0
  H  H60  1  0.624600  0.690400  0.062300  1.0
  H  H61  1  0.065800  0.375400  0.062300  1.0
  H  H62  1  0.934200  0.309600  0.437700  1.0
  H  H63  1  0.690400  0.624600  0.437700  1.0
  H  H64  1  0.375400  0.065800  0.437700  1.0
  H  H65  1  0.621000  0.072200  0.055500  1.0
  H  H66  1  0.451200  0.379000  0.055500  1.0
  H  H67  1  0.927800  0.548800  0.055500  1.0
  H  H68  1  0.072200  0.621000  0.444500  1.0
  H  H69  1  0.379000  0.451200  0.444500  1.0
  H  H70  1  0.548800  0.927800  0.444500  1.0
  H  H71  1  0.379000  0.927800  0.944500  1.0
  H  H72  1  0.548800  0.621000  0.944500  1.0
  H  H73  1  0.072200  0.451200  0.944500  1.0
  H  H74  1  0.927800  0.379000  0.555500  1.0
  H  H75  1  0.621000  0.548800  0.555500  1.0
  H  H76  1  0.451200  0.072200  0.555500  1.0
  H  H77  1  0.740500  0.165000  0.074400  1.0
  H  H78  1  0.424500  0.259500  0.074400  1.0
  H  H79  1  0.835000  0.575500  0.074400  1.0
  H  H80  1  0.165000  0.740500  0.425600  1.0
  H  H81  1  0.259500  0.424500  0.425600  1.0
  H  H82  1  0.575500  0.835000  0.425600  1.0
  H  H83  1  0.259500  0.835000  0.925600  1.0
  H  H84  1  0.575500  0.740500  0.925600  1.0
  H  H85  1  0.165000  0.424500  0.925600  1.0
  H  H86  1  0.835000  0.259500  0.574400  1.0
  H  H87  1  0.740500  0.575500  0.574400  1.0
  H  H88  1  0.424500  0.165000  0.574400  1.0
  H  H89  1  0.630200  0.206600  0.096900  1.0
  H  H90  1  0.576400  0.369800  0.096900  1.0
  H  H91  1  0.793400  0.423600  0.096900  1.0
  H  H92  1  0.206600  0.630200  0.403100  1.0
  H  H93  1  0.369800  0.576400  0.403100  1.0
  H  H94  1  0.423600  0.793400  0.403100  1.0
  H  H95  1  0.369800  0.793400  0.903100  1.0
  H  H96  1  0.423600  0.630200  0.903100  1.0
  H  H97  1  0.206600  0.576400  0.903100  1.0
  H  H98  1  0.793400  0.369800  0.596900  1.0
  H  H99  1  0.630200  0.423600  0.596900  1.0
  H  H100  1  0.576400  0.206600  0.596900  1.0
  H  H101  1  0.622900  0.162400  0.049700  1.0
  H  H102  1  0.539500  0.377100  0.049700  1.0
  H  H103  1  0.837600  0.460500  0.049700  1.0
  H  H104  1  0.162400  0.622900  0.450300  1.0
  H  H105  1  0.377100  0.539500  0.450300  1.0
  H  H106  1  0.460500  0.837600  0.450300  1.0
  H  H107  1  0.377100  0.837600  0.950300  1.0
  H  H108  1  0.460500  0.622900  0.950300  1.0
  H  H109  1  0.162400  0.539500  0.950300  1.0
  H  H110  1  0.837600  0.377100  0.549700  1.0
  H  H111  1  0.622900  0.460500  0.549700  1.0
  H  H112  1  0.539500  0.162400  0.549700  1.0
  H  H113  1  0.665800  0.234900  0.223400  1.0
  H  H114  1  0.569100  0.334200  0.223400  1.0
  H  H115  1  0.765100  0.430900  0.223400  1.0
  H  H116  1  0.234900  0.665800  0.276600  1.0
  H  H117  1  0.334200  0.569100  0.276600  1.0
  H  H118  1  0.430900  0.765100  0.276600  1.0
  H  H119  1  0.334200  0.765100  0.776600  1.0
  H  H120  1  0.430900  0.665800  0.776600  1.0
  H  H121  1  0.234900  0.569100  0.776600  1.0
  H  H122  1  0.765100  0.334200  0.723400  1.0
  H  H123  1  0.665800  0.430900  0.723400  1.0
  H  H124  1  0.569100  0.234900  0.723400  1.0
  H  H125  1  0.747700  0.351200  0.172100  1.0
  H  H126  1  0.603500  0.252300  0.172100  1.0
  H  H127  1  0.648800  0.396500  0.172100  1.0
  H  H128  1  0.351200  0.747700  0.327900  1.0
  H  H129  1  0.252300  0.603500  0.327900  1.0
  H  H130  1  0.396500  0.648800  0.327900  1.0
  H  H131  1  0.252300  0.648800  0.827900  1.0
  H  H132  1  0.396500  0.747700  0.827900  1.0
  H  H133  1  0.351200  0.603500  0.827900  1.0
  H  H134  1  0.648800  0.252300  0.672100  1.0
  H  H135  1  0.747700  0.396500  0.672100  1.0
  H  H136  1  0.603500  0.351200  0.672100  1.0
  H  H137  1  0.737300  0.308300  0.123600  1.0
  H  H138  1  0.571000  0.262700  0.123600  1.0
  H  H139  1  0.691700  0.429000  0.123600  1.0
  H  H140  1  0.308300  0.737300  0.376400  1.0
  H  H141  1  0.262700  0.571000  0.376400  1.0
  H  H142  1  0.429000  0.691700  0.376400  1.0
  H  H143  1  0.262700  0.691700  0.876400  1.0
  H  H144  1  0.429000  0.737300  0.876400  1.0
  H  H145  1  0.308300  0.571000  0.876400  1.0
  H  H146  1  0.691700  0.262700  0.623600  1.0
  H  H147  1  0.737300  0.429000  0.623600  1.0
  H  H148  1  0.571000  0.308300  0.623600  1.0
  H  H149  1  0.779500  0.338700  0.235100  1.0
  H  H150  1  0.559200  0.220500  0.235100  1.0
  H  H151  1  0.661300  0.440800  0.235100  1.0
  H  H152  1  0.338700  0.779500  0.264900  1.0
  H  H153  1  0.220500  0.559200  0.264900  1.0
  H  H154  1  0.440800  0.661300  0.264900  1.0
  H  H155  1  0.220500  0.661300  0.764900  1.0
  H  H156  1  0.440800  0.779500  0.764900  1.0
  H  H157  1  0.338700  0.559200  0.764900  1.0
  H  H158  1  0.661300  0.220500  0.735100  1.0
  H  H159  1  0.779500  0.440800  0.735100  1.0
  H  H160  1  0.559200  0.338700  0.735100  1.0
  H  H161  1  0.702500  0.402400  0.320700  1.0
  H  H162  1  0.699900  0.297500  0.320700  1.0
  H  H163  1  0.597600  0.300100  0.320700  1.0
  H  H164  1  0.402400  0.702500  0.179300  1.0
  H  H165  1  0.297500  0.699900  0.179300  1.0
  H  H166  1  0.300100  0.597600  0.179300  1.0
  H  H167  1  0.297500  0.597600  0.679300  1.0
  H  H168  1  0.300100  0.702500  0.679300  1.0
  H  H169  1  0.402400  0.699900  0.679300  1.0
  H  H170  1  0.597600  0.297500  0.820700  1.0
  H  H171  1  0.702500  0.300100  0.820700  1.0
  H  H172  1  0.699900  0.402400  0.820700  1.0
  H  H173  1  0.773800  0.446100  0.346200  1.0
  H  H174  1  0.672300  0.226200  0.346200  1.0
  H  H175  1  0.553900  0.327700  0.346200  1.0
  H  H176  1  0.446100  0.773800  0.153800  1.0
  H  H177  1  0.226200  0.672300  0.153800  1.0
  H  H178  1  0.327700  0.553900  0.153800  1.0
  H  H179  1  0.226200  0.553900  0.653800  1.0
  H  H180  1  0.327700  0.773800  0.653800  1.0
  H  H181  1  0.446100  0.672300  0.653800  1.0
  H  H182  1  0.553900  0.226200  0.846200  1.0
  H  H183  1  0.773800  0.327700  0.846200  1.0
  H  H184  1  0.672300  0.446100  0.846200  1.0
  H  H185  1  0.837900  0.445300  0.324900  1.0
  H  H186  1  0.607400  0.162100  0.324900  1.0
  H  H187  1  0.554700  0.392600  0.324900  1.0
  H  H188  1  0.445300  0.837900  0.175100  1.0
  H  H189  1  0.162100  0.607400  0.175100  1.0
  H  H190  1  0.392600  0.554700  0.175100  1.0
  H  H191  1  0.162100  0.554700  0.675100  1.0
  H  H192  1  0.392600  0.837900  0.675100  1.0
  H  H193  1  0.445300  0.607400  0.675100  1.0
  H  H194  1  0.554700  0.162100  0.824900  1.0
  H  H195  1  0.837900  0.392600  0.824900  1.0
  H  H196  1  0.607400  0.445300  0.824900  1.0
  H  H197  1  0.830500  0.400500  0.278000  1.0
  H  H198  1  0.570000  0.169500  0.278000  1.0
  H  H199  1  0.599500  0.430000  0.278000  1.0
  H  H200  1  0.400500  0.830500  0.222000  1.0
  H  H201  1  0.169500  0.570000  0.222000  1.0
  H  H202  1  0.430000  0.599500  0.222000  1.0
  H  H203  1  0.169500  0.599500  0.722000  1.0
  H  H204  1  0.430000  0.830500  0.722000  1.0
  H  H205  1  0.400500  0.570000  0.722000  1.0
  H  H206  1  0.599500  0.169500  0.778000  1.0
  H  H207  1  0.830500  0.430000  0.778000  1.0
  H  H208  1  0.570000  0.400500  0.778000  1.0
  H  H209  1  0.847400  0.171900  0.058400  1.0
  H  H210  1  0.324500  0.152600  0.058400  1.0
  H  H211  1  0.828100  0.675500  0.058400  1.0
  H  H212  1  0.171900  0.847400  0.441600  1.0
  H  H213  1  0.152600  0.324500  0.441600  1.0
  H  H214  1  0.675500  0.828100  0.441600  1.0
  H  H215  1  0.152600  0.828100  0.941600  1.0
  H  H216  1  0.675500  0.847400  0.941600  1.0
  H  H217  1  0.171900  0.324500  0.941600  1.0
  H  H218  1  0.828100  0.152600  0.558400  1.0
  H  H219  1  0.847400  0.675500  0.558400  1.0
  H  H220  1  0.324500  0.171900  0.558400  1.0
  H  H221  1  0.839900  0.102100  0.060100  1.0
  H  H222  1  0.262200  0.160100  0.060100  1.0
  H  H223  1  0.897900  0.737800  0.060100  1.0
  H  H224  1  0.102100  0.839900  0.439900  1.0
  H  H225  1  0.160100  0.262200  0.439900  1.0
  H  H226  1  0.737800  0.897900  0.439900  1.0
  H  H227  1  0.160100  0.897900  0.939900  1.0
  H  H228  1  0.737800  0.839900  0.939900  1.0
  H  H229  1  0.102100  0.262200  0.939900  1.0
  H  H230  1  0.897900  0.160100  0.560100  1.0
  H  H231  1  0.839900  0.737800  0.560100  1.0
  H  H232  1  0.262200  0.102100  0.560100  1.0
  H  H233  1  0.771100  0.038100  0.044200  1.0
  H  H234  1  0.267000  0.228900  0.044200  1.0
  H  H235  1  0.961900  0.733000  0.044200  1.0
  H  H236  1  0.038100  0.771100  0.455800  1.0
  H  H237  1  0.228900  0.267000  0.455800  1.0
  H  H238  1  0.733000  0.961900  0.455800  1.0
  H  H239  1  0.228900  0.961900  0.955800  1.0
  H  H240  1  0.733000  0.771100  0.955800  1.0
  H  H241  1  0.038100  0.267000  0.955800  1.0
  H  H242  1  0.961900  0.228900  0.544200  1.0
  H  H243  1  0.771100  0.733000  0.544200  1.0
  H  H244  1  0.267000  0.038100  0.544200  1.0
  H  H245  1  0.716100  0.049800  0.018500  1.0
  H  H246  1  0.333700  0.283900  0.018500  1.0
  H  H247  1  0.950200  0.666300  0.018500  1.0
  H  H248  1  0.049800  0.716100  0.481500  1.0
  H  H249  1  0.283900  0.333700  0.481500  1.0
  H  H250  1  0.666300  0.950200  0.481500  1.0
  H  H251  1  0.283900  0.950200  0.981500  1.0
  H  H252  1  0.666300  0.716100  0.981500  1.0
  H  H253  1  0.049800  0.333700  0.981500  1.0
  H  H254  1  0.950200  0.283900  0.518500  1.0
  H  H255  1  0.716100  0.666300  0.518500  1.0
  H  H256  1  0.333700  0.049800  0.518500  1.0
  H  H257  1  0.823200  0.233500  0.034200  1.0
  H  H258  1  0.410300  0.176800  0.034200  1.0
  H  H259  1  0.766500  0.589700  0.034200  1.0
  H  H260  1  0.233500  0.823200  0.465800  1.0
  H  H261  1  0.176800  0.410300  0.465800  1.0
  H  H262  1  0.589700  0.766500  0.465800  1.0
  H  H263  1  0.176800  0.766500  0.965800  1.0
  H  H264  1  0.589700  0.823200  0.965800  1.0
  H  H265  1  0.233500  0.410300  0.965800  1.0
  H  H266  1  0.766500  0.176800  0.534200  1.0
  H  H267  1  0.823200  0.589700  0.534200  1.0
  H  H268  1  0.410300  0.233500  0.534200  1.0
  H  H269  1  0.774300  0.244300  0.951500  1.0
  H  H270  1  0.470000  0.225700  0.951500  1.0
  H  H271  1  0.755700  0.530000  0.951500  1.0
  H  H272  1  0.244300  0.774300  0.548500  1.0
  H  H273  1  0.225700  0.470000  0.548500  1.0
  H  H274  1  0.530000  0.755700  0.548500  1.0
  H  H275  1  0.225700  0.755700  0.048500  1.0
  H  H276  1  0.530000  0.774300  0.048500  1.0
  H  H277  1  0.244300  0.470000  0.048500  1.0
  H  H278  1  0.755700  0.225700  0.451500  1.0
  H  H279  1  0.774300  0.530000  0.451500  1.0
  H  H280  1  0.470000  0.244300  0.451500  1.0
  H  H281  1  0.785000  0.340300  0.039800  1.0
  H  H282  1  0.555300  0.215000  0.039800  1.0
  H  H283  1  0.659700  0.444700  0.039800  1.0
  H  H284  1  0.340300  0.785000  0.460200  1.0
  H  H285  1  0.215000  0.555300  0.460200  1.0
  H  H286  1  0.444700  0.659700  0.460200  1.0
  H  H287  1  0.215000  0.659700  0.960200  1.0
  H  H288  1  0.444700  0.785000  0.960200  1.0
  H  H289  1  0.340300  0.555300  0.960200  1.0
  H  H290  1  0.659700  0.215000  0.539800  1.0
  H  H291  1  0.785000  0.444700  0.539800  1.0
  H  H292  1  0.555300  0.340300  0.539800  1.0
  H  H293  1  0.772200  0.266800  0.051000  1.0
  H  H294  1  0.494600  0.227800  0.051000  1.0
  H  H295  1  0.733200  0.505400  0.051000  1.0
  H  H296  1  0.266800  0.772200  0.449000  1.0
  H  H297  1  0.227800  0.494600  0.449000  1.0
  H  H298  1  0.505400  0.733200  0.449000  1.0
  H  H299  1  0.227800  0.733200  0.949000  1.0
  H  H300  1  0.505400  0.772200  0.949000  1.0
  H  H301  1  0.266800  0.494600  0.949000  1.0
  H  H302  1  0.733200  0.227800  0.551000  1.0
  H  H303  1  0.772200  0.505400  0.551000  1.0
  H  H304  1  0.494600  0.266800  0.551000  1.0
  H  H305  1  0.795300  0.130400  0.967700  1.0
  H  H306  1  0.335100  0.204700  0.967700  1.0
  H  H307  1  0.869600  0.664900  0.967700  1.0
  H  H308  1  0.130400  0.795300  0.532300  1.0
  H  H309  1  0.204700  0.335100  0.532300  1.0
  H  H310  1  0.664900  0.869600  0.532300  1.0
  H  H311  1  0.204700  0.869600  0.032300  1.0
  H  H312  1  0.664900  0.795300  0.032300  1.0
  H  H313  1  0.130400  0.335100  0.032300  1.0
  H  H314  1  0.869600  0.204700  0.467700  1.0
  H  H315  1  0.795300  0.664900  0.467700  1.0
  H  H316  1  0.335100  0.130400  0.467700  1.0
  H  H317  1  0.826200  0.135100  0.912900  1.0
  H  H318  1  0.308900  0.173800  0.912900  1.0
  H  H319  1  0.864900  0.691100  0.912900  1.0
  H  H320  1  0.135100  0.826200  0.587100  1.0
  H  H321  1  0.173800  0.308900  0.587100  1.0
  H  H322  1  0.691100  0.864900  0.587100  1.0
  H  H323  1  0.173800  0.864900  0.087100  1.0
  H  H324  1  0.691100  0.826200  0.087100  1.0
  H  H325  1  0.135100  0.308900  0.087100  1.0
  H  H326  1  0.864900  0.173800  0.412900  1.0
  H  H327  1  0.826200  0.691100  0.412900  1.0
  H  H328  1  0.308900  0.135100  0.412900  1.0
  H  H329  1  0.798100  0.154400  0.865100  1.0
  H  H330  1  0.356300  0.201900  0.865100  1.0
  H  H331  1  0.845600  0.643700  0.865100  1.0
  H  H332  1  0.154400  0.798100  0.634900  1.0
  H  H333  1  0.201900  0.356300  0.634900  1.0
  H  H334  1  0.643700  0.845600  0.634900  1.0
  H  H335  1  0.201900  0.845600  0.134900  1.0
  H  H336  1  0.643700  0.798100  0.134900  1.0
  H  H337  1  0.154400  0.356300  0.134900  1.0
  H  H338  1  0.845600  0.201900  0.365100  1.0
  H  H339  1  0.798100  0.643700  0.365100  1.0
  H  H340  1  0.356300  0.154400  0.365100  1.0
  H  H341  1  0.732600  0.167400  0.870300  1.0
  H  H342  1  0.434800  0.267400  0.870300  1.0
  H  H343  1  0.832600  0.565200  0.870300  1.0
  H  H344  1  0.167400  0.732600  0.629700  1.0
  H  H345  1  0.267400  0.434800  0.629700  1.0
  H  H346  1  0.565200  0.832600  0.629700  1.0
  H  H347  1  0.267400  0.832600  0.129700  1.0
  H  H348  1  0.565200  0.732600  0.129700  1.0
  H  H349  1  0.167400  0.434800  0.129700  1.0
  H  H350  1  0.832600  0.267400  0.370300  1.0
  H  H351  1  0.732600  0.565200  0.370300  1.0
  H  H352  1  0.434800  0.167400  0.370300  1.0
  H  H353  1  0.683100  0.178200  0.916100  1.0
  H  H354  1  0.495100  0.316900  0.916100  1.0
  H  H355  1  0.821800  0.504900  0.916100  1.0
  H  H356  1  0.178200  0.683100  0.583900  1.0
  H  H357  1  0.316900  0.495100  0.583900  1.0
  H  H358  1  0.504900  0.821800  0.583900  1.0
  H  H359  1  0.316900  0.821800  0.083900  1.0
  H  H360  1  0.504900  0.683100  0.083900  1.0
  H  H361  1  0.178200  0.495100  0.083900  1.0
  H  H362  1  0.821800  0.316900  0.416100  1.0
  H  H363  1  0.683100  0.504900  0.416100  1.0
  H  H364  1  0.495100  0.178200  0.416100  1.0
  H  H365  1  0.881600  0.491900  0.978700  1.0
  H  H366  1  0.610300  0.118400  0.978700  1.0
  H  H367  1  0.508100  0.389700  0.978700  1.0
  H  H368  1  0.491900  0.881600  0.521300  1.0
  H  H369  1  0.118400  0.610300  0.521300  1.0
  H  H370  1  0.389700  0.508100  0.521300  1.0
  H  H371  1  0.118400  0.508100  0.021300  1.0
  H  H372  1  0.389700  0.881600  0.021300  1.0
  H  H373  1  0.491900  0.610300  0.021300  1.0
  H  H374  1  0.508100  0.118400  0.478700  1.0
  H  H375  1  0.881600  0.389700  0.478700  1.0
  H  H376  1  0.610300  0.491900  0.478700  1.0
  H  H377  1  0.731900  0.367600  0.977200  1.0
  H  H378  1  0.635700  0.268100  0.977200  1.0
  H  H379  1  0.632400  0.364300  0.977200  1.0
  H  H380  1  0.367600  0.731900  0.522800  1.0
  H  H381  1  0.268100  0.635700  0.522800  1.0
  H  H382  1  0.364300  0.632400  0.522800  1.0
  H  H383  1  0.268100  0.632400  0.022800  1.0
  H  H384  1  0.364300  0.731900  0.022800  1.0
  H  H385  1  0.367600  0.635700  0.022800  1.0
  H  H386  1  0.632400  0.268100  0.477200  1.0
  H  H387  1  0.731900  0.364300  0.477200  1.0
  H  H388  1  0.635700  0.367600  0.477200  1.0
  H  H389  1  0.752700  0.441200  0.959700  1.0
  H  H390  1  0.688500  0.247300  0.959700  1.0
  H  H391  1  0.558800  0.311500  0.959700  1.0
  H  H392  1  0.441200  0.752700  0.540300  1.0
  H  H393  1  0.247300  0.688500  0.540300  1.0
  H  H394  1  0.311500  0.558800  0.540300  1.0
  H  H395  1  0.247300  0.558800  0.040300  1.0
  H  H396  1  0.311500  0.752700  0.040300  1.0
  H  H397  1  0.441200  0.688500  0.040300  1.0
  H  H398  1  0.558800  0.247300  0.459700  1.0
  H  H399  1  0.752700  0.311500  0.459700  1.0
  H  H400  1  0.688500  0.441200  0.459700  1.0
  C  C401  1  0.632200  0.060300  0.004600  1.0
  C  C402  1  0.428100  0.367800  0.004600  1.0
  C  C403  1  0.939700  0.571900  0.004600  1.0
  C  C404  1  0.060300  0.632200  0.495400  1.0
  C  C405  1  0.367800  0.428100  0.495400  1.0
  C  C406  1  0.571900  0.939700  0.495400  1.0
  C  C407  1  0.367800  0.939700  0.995400  1.0
  C  C408  1  0.571900  0.632200  0.995400  1.0
  C  C409  1  0.060300  0.428100  0.995400  1.0
  C  C410  1  0.939700  0.367800  0.504600  1.0
  C  C411  1  0.632200  0.571900  0.504600  1.0
  C  C412  1  0.428100  0.060300  0.504600  1.0
  C  C413  1  0.596200  0.015900  0.000700  1.0
  C  C414  1  0.419700  0.403800  0.000700  1.0
  C  C415  1  0.984100  0.580300  0.000700  1.0
  C  C416  1  0.015900  0.596200  0.499300  1.0
  C  C417  1  0.403800  0.419700  0.499300  1.0
  C  C418  1  0.580300  0.984100  0.499300  1.0
  C  C419  1  0.403800  0.984100  0.999300  1.0
  C  C420  1  0.580300  0.596200  0.999300  1.0
  C  C421  1  0.015900  0.419700  0.999300  1.0
  C  C422  1  0.984100  0.403800  0.500700  1.0
  C  C423  1  0.596200  0.580300  0.500700  1.0
  C  C424  1  0.419700  0.015900  0.500700  1.0
  C  C425  1  0.595300  0.990100  0.973300  1.0
  C  C426  1  0.394800  0.404700  0.973300  1.0
  C  C427  1  0.009900  0.605200  0.973300  1.0
  C  C428  1  0.990100  0.595300  0.526700  1.0
  C  C429  1  0.404700  0.394800  0.526700  1.0
  C  C430  1  0.605200  0.009900  0.526700  1.0
  C  C431  1  0.404700  0.009900  0.026700  1.0
  C  C432  1  0.605200  0.595300  0.026700  1.0
  C  C433  1  0.990100  0.394800  0.026700  1.0
  C  C434  1  0.009900  0.404700  0.473300  1.0
  C  C435  1  0.595300  0.605200  0.473300  1.0
  C  C436  1  0.394800  0.990100  0.473300  1.0
  C  C437  1  0.630400  0.008700  0.949800  1.0
  C  C438  1  0.378300  0.369600  0.949800  1.0
  C  C439  1  0.991300  0.621700  0.949800  1.0
  C  C440  1  0.008700  0.630400  0.550200  1.0
  C  C441  1  0.369600  0.378300  0.550200  1.0
  C  C442  1  0.621700  0.991300  0.550200  1.0
  C  C443  1  0.369600  0.991300  0.050200  1.0
  C  C444  1  0.621700  0.630400  0.050200  1.0
  C  C445  1  0.008700  0.378300  0.050200  1.0
  C  C446  1  0.991300  0.369600  0.449800  1.0
  C  C447  1  0.630400  0.621700  0.449800  1.0
  C  C448  1  0.378300  0.008700  0.449800  1.0
  C  C449  1  0.666400  0.053100  0.953800  1.0
  C  C450  1  0.386700  0.333600  0.953800  1.0
  C  C451  1  0.946900  0.613300  0.953800  1.0
  C  C452  1  0.053100  0.666400  0.546200  1.0
  C  C453  1  0.333600  0.386700  0.546200  1.0
  C  C454  1  0.613300  0.946900  0.546200  1.0
  C  C455  1  0.333600  0.946900  0.046200  1.0
  C  C456  1  0.613300  0.666400  0.046200  1.0
  C  C457  1  0.053100  0.386700  0.046200  1.0
  C  C458  1  0.946900  0.333600  0.453800  1.0
  C  C459  1  0.666400  0.613300  0.453800  1.0
  C  C460  1  0.386700  0.053100  0.453800  1.0
  C  C461  1  0.637800  0.084900  0.035500  1.0
  C  C462  1  0.447100  0.362200  0.035500  1.0
  C  C463  1  0.915100  0.552900  0.035500  1.0
  C  C464  1  0.084900  0.637800  0.464500  1.0
  C  C465  1  0.362200  0.447100  0.464500  1.0
  C  C466  1  0.552900  0.915100  0.464500  1.0
  C  C467  1  0.362200  0.915100  0.964500  1.0
  C  C468  1  0.552900  0.637800  0.964500  1.0
  C  C469  1  0.084900  0.447100  0.964500  1.0
  C  C470  1  0.915100  0.362200  0.535500  1.0
  C  C471  1  0.637800  0.552900  0.535500  1.0
  C  C472  1  0.447100  0.084900  0.535500  1.0
  C  C473  1  0.681000  0.159500  0.057600  1.0
  C  C474  1  0.478500  0.319000  0.057600  1.0
  C  C475  1  0.840500  0.521500  0.057600  1.0
  C  C476  1  0.159500  0.681000  0.442400  1.0
  C  C477  1  0.319000  0.478500  0.442400  1.0
  C  C478  1  0.521500  0.840500  0.442400  1.0
  C  C479  1  0.319000  0.840500  0.942400  1.0
  C  C480  1  0.521500  0.681000  0.942400  1.0
  C  C481  1  0.159500  0.478500  0.942400  1.0
  C  C482  1  0.840500  0.319000  0.557600  1.0
  C  C483  1  0.681000  0.521500  0.557600  1.0
  C  C484  1  0.478500  0.159500  0.557600  1.0
  C  C485  1  0.718100  0.173400  0.079000  1.0
  C  C486  1  0.455300  0.281900  0.079000  1.0
  C  C487  1  0.826600  0.544700  0.079000  1.0
  C  C488  1  0.173400  0.718100  0.421000  1.0
  C  C489  1  0.281900  0.455300  0.421000  1.0
  C  C490  1  0.544700  0.826600  0.421000  1.0
  C  C491  1  0.281900  0.826600  0.921000  1.0
  C  C492  1  0.544700  0.718100  0.921000  1.0
  C  C493  1  0.173400  0.455300  0.921000  1.0
  C  C494  1  0.826600  0.281900  0.579000  1.0
  C  C495  1  0.718100  0.544700  0.579000  1.0
  C  C496  1  0.455300  0.173400  0.579000  1.0
  C  C497  1  0.722400  0.199600  0.107000  1.0
  C  C498  1  0.477200  0.277600  0.107000  1.0
  C  C499  1  0.800400  0.522800  0.107000  1.0
  C  C500  1  0.199600  0.722400  0.393000  1.0
  C  C501  1  0.277600  0.477200  0.393000  1.0
  C  C502  1  0.522800  0.800400  0.393000  1.0
  C  C503  1  0.277600  0.800400  0.893000  1.0
  C  C504  1  0.522800  0.722400  0.893000  1.0
  C  C505  1  0.199600  0.477200  0.893000  1.0
  C  C506  1  0.800400  0.277600  0.607000  1.0
  C  C507  1  0.722400  0.522800  0.607000  1.0
  C  C508  1  0.477200  0.199600  0.607000  1.0
  C  C509  1  0.689700  0.212000  0.113700  1.0
  C  C510  1  0.522300  0.310300  0.113700  1.0
  C  C511  1  0.788000  0.477700  0.113700  1.0
  C  C512  1  0.212000  0.689700  0.386300  1.0
  C  C513  1  0.310300  0.522300  0.386300  1.0
  C  C514  1  0.477700  0.788000  0.386300  1.0
  C  C515  1  0.310300  0.788000  0.886300  1.0
  C  C516  1  0.477700  0.689700  0.886300  1.0
  C  C517  1  0.212000  0.522300  0.886300  1.0
  C  C518  1  0.788000  0.310300  0.613700  1.0
  C  C519  1  0.689700  0.477700  0.613700  1.0
  C  C520  1  0.522300  0.212000  0.613700  1.0
  C  C521  1  0.652600  0.198100  0.092300  1.0
  C  C522  1  0.545500  0.347400  0.092300  1.0
  C  C523  1  0.801900  0.454500  0.092300  1.0
  C  C524  1  0.198100  0.652600  0.407700  1.0
  C  C525  1  0.347400  0.545500  0.407700  1.0
  C  C526  1  0.454500  0.801900  0.407700  1.0
  C  C527  1  0.347400  0.801900  0.907700  1.0
  C  C528  1  0.454500  0.652600  0.907700  1.0
  C  C529  1  0.198100  0.545500  0.907700  1.0
  C  C530  1  0.801900  0.347400  0.592300  1.0
  C  C531  1  0.652600  0.454500  0.592300  1.0
  C  C532  1  0.545500  0.198100  0.592300  1.0
  C  C533  1  0.648200  0.171800  0.064300  1.0
  C  C534  1  0.523600  0.351800  0.064300  1.0
  C  C535  1  0.828200  0.476400  0.064300  1.0
  C  C536  1  0.171800  0.648200  0.435700  1.0
  C  C537  1  0.351800  0.523600  0.435700  1.0
  C  C538  1  0.476400  0.828200  0.435700  1.0
  C  C539  1  0.351800  0.828200  0.935700  1.0
  C  C540  1  0.476400  0.648200  0.935700  1.0
  C  C541  1  0.171800  0.523600  0.935700  1.0
  C  C542  1  0.828200  0.351800  0.564300  1.0
  C  C543  1  0.648200  0.476400  0.564300  1.0
  C  C544  1  0.523600  0.171800  0.564300  1.0
  C  C545  1  0.695400  0.246200  0.144600  1.0
  C  C546  1  0.550800  0.304600  0.144600  1.0
  C  C547  1  0.753800  0.449200  0.144600  1.0
  C  C548  1  0.246200  0.695400  0.355400  1.0
  C  C549  1  0.304600  0.550800  0.355400  1.0
  C  C550  1  0.449200  0.753800  0.355400  1.0
  C  C551  1  0.304600  0.753800  0.855400  1.0
  C  C552  1  0.449200  0.695400  0.855400  1.0
  C  C553  1  0.246200  0.550800  0.855400  1.0
  C  C554  1  0.753800  0.304600  0.644600  1.0
  C  C555  1  0.695400  0.449200  0.644600  1.0
  C  C556  1  0.550800  0.246200  0.644600  1.0
  C  C557  1  0.674200  0.224400  0.174300  1.0
  C  C558  1  0.550200  0.325800  0.174300  1.0
  C  C559  1  0.775600  0.449800  0.174300  1.0
  C  C560  1  0.224400  0.674200  0.325700  1.0
  C  C561  1  0.325800  0.550200  0.325700  1.0
  C  C562  1  0.449800  0.775600  0.325700  1.0
  C  C563  1  0.325800  0.775600  0.825700  1.0
  C  C564  1  0.449800  0.674200  0.825700  1.0
  C  C565  1  0.224400  0.550200  0.825700  1.0
  C  C566  1  0.775600  0.325800  0.674300  1.0
  C  C567  1  0.674200  0.449800  0.674300  1.0
  C  C568  1  0.550200  0.224400  0.674300  1.0
  C  C569  1  0.680300  0.249800  0.203100  1.0
  C  C570  1  0.569500  0.319700  0.203100  1.0
  C  C571  1  0.750200  0.430500  0.203100  1.0
  C  C572  1  0.249800  0.680300  0.296900  1.0
  C  C573  1  0.319700  0.569500  0.296900  1.0
  C  C574  1  0.430500  0.750200  0.296900  1.0
  C  C575  1  0.319700  0.750200  0.796900  1.0
  C  C576  1  0.430500  0.680300  0.796900  1.0
  C  C577  1  0.249800  0.569500  0.796900  1.0
  C  C578  1  0.750200  0.319700  0.703100  1.0
  C  C579  1  0.680300  0.430500  0.703100  1.0
  C  C580  1  0.569500  0.249800  0.703100  1.0
  C  C581  1  0.707800  0.297200  0.202300  1.0
  C  C582  1  0.589400  0.292200  0.202300  1.0
  C  C583  1  0.702800  0.410600  0.202300  1.0
  C  C584  1  0.297200  0.707800  0.297700  1.0
  C  C585  1  0.292200  0.589400  0.297700  1.0
  C  C586  1  0.410600  0.702800  0.297700  1.0
  C  C587  1  0.292200  0.702800  0.797700  1.0
  C  C588  1  0.410600  0.707800  0.797700  1.0
  C  C589  1  0.297200  0.589400  0.797700  1.0
  C  C590  1  0.702800  0.292200  0.702300  1.0
  C  C591  1  0.707800  0.410600  0.702300  1.0
  C  C592  1  0.589400  0.297200  0.702300  1.0
  C  C593  1  0.729000  0.319000  0.172700  1.0
  C  C594  1  0.590000  0.271000  0.172700  1.0
  C  C595  1  0.681000  0.410000  0.172700  1.0
  C  C596  1  0.319000  0.729000  0.327300  1.0
  C  C597  1  0.271000  0.590000  0.327300  1.0
  C  C598  1  0.410000  0.681000  0.327300  1.0
  C  C599  1  0.271000  0.681000  0.827300  1.0
  C  C600  1  0.410000  0.729000  0.827300  1.0
  C  C601  1  0.319000  0.590000  0.827300  1.0
  C  C602  1  0.681000  0.271000  0.672700  1.0
  C  C603  1  0.729000  0.410000  0.672700  1.0
  C  C604  1  0.590000  0.319000  0.672700  1.0
  C  C605  1  0.722800  0.293400  0.143800  1.0
  C  C606  1  0.570600  0.277200  0.143800  1.0
  C  C607  1  0.706600  0.429400  0.143800  1.0
  C  C608  1  0.293400  0.722800  0.356200  1.0
  C  C609  1  0.277200  0.570600  0.356200  1.0
  C  C610  1  0.429400  0.706600  0.356200  1.0
  C  C611  1  0.277200  0.706600  0.856200  1.0
  C  C612  1  0.429400  0.722800  0.856200  1.0
  C  C613  1  0.293400  0.570600  0.856200  1.0
  C  C614  1  0.706600  0.277200  0.643800  1.0
  C  C615  1  0.722800  0.429400  0.643800  1.0
  C  C616  1  0.570600  0.293400  0.643800  1.0
  C  C617  1  0.755900  0.343700  0.243100  1.0
  C  C618  1  0.587800  0.244100  0.243100  1.0
  C  C619  1  0.656300  0.412200  0.243100  1.0
  C  C620  1  0.343700  0.755900  0.256900  1.0
  C  C621  1  0.244100  0.587800  0.256900  1.0
  C  C622  1  0.412200  0.656300  0.256900  1.0
  C  C623  1  0.244100  0.656300  0.756900  1.0
  C  C624  1  0.412200  0.755900  0.756900  1.0
  C  C625  1  0.343700  0.587800  0.756900  1.0
  C  C626  1  0.656300  0.244100  0.743100  1.0
  C  C627  1  0.755900  0.412200  0.743100  1.0
  C  C628  1  0.587800  0.343700  0.743100  1.0
  C  C629  1  0.762100  0.374800  0.271500  1.0
  C  C630  1  0.612700  0.237900  0.271500  1.0
  C  C631  1  0.625200  0.387300  0.271500  1.0
  C  C632  1  0.374800  0.762100  0.228500  1.0
  C  C633  1  0.237900  0.612700  0.228500  1.0
  C  C634  1  0.387300  0.625200  0.228500  1.0
  C  C635  1  0.237900  0.625200  0.728500  1.0
  C  C636  1  0.387300  0.762100  0.728500  1.0
  C  C637  1  0.374800  0.612700  0.728500  1.0
  C  C638  1  0.625200  0.237900  0.771500  1.0
  C  C639  1  0.762100  0.387300  0.771500  1.0
  C  C640  1  0.612700  0.374800  0.771500  1.0
  C  C641  1  0.728400  0.401900  0.312100  1.0
  C  C642  1  0.673500  0.271600  0.312100  1.0
  C  C643  1  0.598100  0.326500  0.312100  1.0
  C  C644  1  0.401900  0.728400  0.187900  1.0
  C  C645  1  0.271600  0.673500  0.187900  1.0
  C  C646  1  0.326500  0.598100  0.187900  1.0
  C  C647  1  0.271600  0.598100  0.687900  1.0
  C  C648  1  0.326500  0.728400  0.687900  1.0
  C  C649  1  0.401900  0.673500  0.687900  1.0
  C  C650  1  0.598100  0.271600  0.812100  1.0
  C  C651  1  0.728400  0.326500  0.812100  1.0
  C  C652  1  0.673500  0.401900  0.812100  1.0
  C  C653  1  0.770900  0.428000  0.327200  1.0
  C  C654  1  0.657100  0.229100  0.327200  1.0
  C  C655  1  0.572000  0.342900  0.327200  1.0
  C  C656  1  0.428000  0.770900  0.172800  1.0
  C  C657  1  0.229100  0.657100  0.172800  1.0
  C  C658  1  0.342900  0.572000  0.172800  1.0
  C  C659  1  0.229100  0.572000  0.672800  1.0
  C  C660  1  0.342900  0.770900  0.672800  1.0
  C  C661  1  0.428000  0.657100  0.672800  1.0
  C  C662  1  0.572000  0.229100  0.827200  1.0
  C  C663  1  0.770900  0.342900  0.827200  1.0
  C  C664  1  0.657100  0.428000  0.827200  1.0
  C  C665  1  0.808900  0.427500  0.314500  1.0
  C  C666  1  0.618600  0.191100  0.314500  1.0
  C  C667  1  0.572500  0.381400  0.314500  1.0
  C  C668  1  0.427500  0.808900  0.185500  1.0
  C  C669  1  0.191100  0.618600  0.185500  1.0
  C  C670  1  0.381400  0.572500  0.185500  1.0
  C  C671  1  0.191100  0.572500  0.685500  1.0
  C  C672  1  0.381400  0.808900  0.685500  1.0
  C  C673  1  0.427500  0.618600  0.685500  1.0
  C  C674  1  0.572500  0.191100  0.814500  1.0
  C  C675  1  0.808900  0.381400  0.814500  1.0
  C  C676  1  0.618600  0.427500  0.814500  1.0
  C  C677  1  0.804500  0.400800  0.286700  1.0
  C  C678  1  0.596300  0.195500  0.286700  1.0
  C  C679  1  0.599200  0.403700  0.286700  1.0
  C  C680  1  0.400800  0.804500  0.213300  1.0
  C  C681  1  0.195500  0.596300  0.213300  1.0
  C  C682  1  0.403700  0.599200  0.213300  1.0
  C  C683  1  0.195500  0.599200  0.713300  1.0
  C  C684  1  0.403700  0.804500  0.713300  1.0
  C  C685  1  0.400800  0.596300  0.713300  1.0
  C  C686  1  0.599200  0.195500  0.786700  1.0
  C  C687  1  0.804500  0.403700  0.786700  1.0
  C  C688  1  0.596300  0.400800  0.786700  1.0
  C  C689  1  0.792600  0.154900  0.033300  1.0
  C  C690  1  0.362300  0.207400  0.033300  1.0
  C  C691  1  0.845100  0.637700  0.033300  1.0
  C  C692  1  0.154900  0.792600  0.466700  1.0
  C  C693  1  0.207400  0.362300  0.466700  1.0
  C  C694  1  0.637700  0.845100  0.466700  1.0
  C  C695  1  0.207400  0.845100  0.966700  1.0
  C  C696  1  0.637700  0.792600  0.966700  1.0
  C  C697  1  0.154900  0.362300  0.966700  1.0
  C  C698  1  0.845100  0.207400  0.533300  1.0
  C  C699  1  0.792600  0.637700  0.533300  1.0
  C  C700  1  0.362300  0.154900  0.533300  1.0
  C  C701  1  0.821200  0.147000  0.048500  1.0
  C  C702  1  0.325800  0.178800  0.048500  1.0
  C  C703  1  0.853000  0.674200  0.048500  1.0
  C  C704  1  0.147000  0.821200  0.451500  1.0
  C  C705  1  0.178800  0.325800  0.451500  1.0
  C  C706  1  0.674200  0.853000  0.451500  1.0
  C  C707  1  0.178800  0.853000  0.951500  1.0
  C  C708  1  0.674200  0.821200  0.951500  1.0
  C  C709  1  0.147000  0.325800  0.951500  1.0
  C  C710  1  0.853000  0.178800  0.548500  1.0
  C  C711  1  0.821200  0.674200  0.548500  1.0
  C  C712  1  0.325800  0.147000  0.548500  1.0
  C  C713  1  0.815900  0.105800  0.051100  1.0
  C  C714  1  0.289900  0.184100  0.051100  1.0
  C  C715  1  0.894200  0.710100  0.051100  1.0
  C  C716  1  0.105800  0.815900  0.448900  1.0
  C  C717  1  0.184100  0.289900  0.448900  1.0
  C  C718  1  0.710100  0.894200  0.448900  1.0
  C  C719  1  0.184100  0.894200  0.948900  1.0
  C  C720  1  0.710100  0.815900  0.948900  1.0
  C  C721  1  0.105800  0.289900  0.948900  1.0
  C  C722  1  0.894200  0.184100  0.551100  1.0
  C  C723  1  0.815900  0.710100  0.551100  1.0
  C  C724  1  0.289900  0.105800  0.551100  1.0
  C  C725  1  0.776100  0.068100  0.040800  1.0
  C  C726  1  0.292000  0.223900  0.040800  1.0
  C  C727  1  0.931900  0.708000  0.040800  1.0
  C  C728  1  0.068100  0.776100  0.459200  1.0
  C  C729  1  0.223900  0.292000  0.459200  1.0
  C  C730  1  0.708000  0.931900  0.459200  1.0
  C  C731  1  0.223900  0.931900  0.959200  1.0
  C  C732  1  0.708000  0.776100  0.959200  1.0
  C  C733  1  0.068100  0.292000  0.959200  1.0
  C  C734  1  0.931900  0.223900  0.540800  1.0
  C  C735  1  0.776100  0.708000  0.540800  1.0
  C  C736  1  0.292000  0.068100  0.540800  1.0
  C  C737  1  0.744200  0.075000  0.025800  1.0
  C  C738  1  0.330800  0.255800  0.025800  1.0
  C  C739  1  0.925000  0.669200  0.025800  1.0
  C  C740  1  0.075000  0.744200  0.474200  1.0
  C  C741  1  0.255800  0.330800  0.474200  1.0
  C  C742  1  0.669200  0.925000  0.474200  1.0
  C  C743  1  0.255800  0.925000  0.974200  1.0
  C  C744  1  0.669200  0.744200  0.974200  1.0
  C  C745  1  0.075000  0.330800  0.974200  1.0
  C  C746  1  0.925000  0.255800  0.525800  1.0
  C  C747  1  0.744200  0.669200  0.525800  1.0
  C  C748  1  0.330800  0.075000  0.525800  1.0
  C  C749  1  0.798400  0.205900  0.025800  1.0
  C  C750  1  0.407500  0.201600  0.025800  1.0
  C  C751  1  0.794100  0.592500  0.025800  1.0
  C  C752  1  0.205900  0.798400  0.474200  1.0
  C  C753  1  0.201600  0.407500  0.474200  1.0
  C  C754  1  0.592500  0.794100  0.474200  1.0
  C  C755  1  0.201600  0.794100  0.974200  1.0
  C  C756  1  0.592500  0.798400  0.974200  1.0
  C  C757  1  0.205900  0.407500  0.974200  1.0
  C  C758  1  0.794100  0.201600  0.525800  1.0
  C  C759  1  0.798400  0.592500  0.525800  1.0
  C  C760  1  0.407500  0.205900  0.525800  1.0
  C  C761  1  0.772000  0.248600  0.002300  1.0
  C  C762  1  0.476600  0.228000  0.002300  1.0
  C  C763  1  0.751400  0.523400  0.002300  1.0
  C  C764  1  0.248600  0.772000  0.497700  1.0
  C  C765  1  0.228000  0.476600  0.497700  1.0
  C  C766  1  0.523400  0.751400  0.497700  1.0
  C  C767  1  0.228000  0.751400  0.997700  1.0
  C  C768  1  0.523400  0.772000  0.997700  1.0
  C  C769  1  0.248600  0.476600  0.997700  1.0
  C  C770  1  0.751400  0.228000  0.502300  1.0
  C  C771  1  0.772000  0.523400  0.502300  1.0
  C  C772  1  0.476600  0.248600  0.502300  1.0
  C  C773  1  0.776500  0.263800  0.969400  1.0
  C  C774  1  0.487300  0.223500  0.969400  1.0
  C  C775  1  0.736200  0.512700  0.969400  1.0
  C  C776  1  0.263800  0.776500  0.530600  1.0
  C  C777  1  0.223500  0.487300  0.530600  1.0
  C  C778  1  0.512700  0.736200  0.530600  1.0
  C  C779  1  0.223500  0.736200  0.030600  1.0
  C  C780  1  0.512700  0.776500  0.030600  1.0
  C  C781  1  0.263800  0.487300  0.030600  1.0
  C  C782  1  0.736200  0.223500  0.469400  1.0
  C  C783  1  0.776500  0.512700  0.469400  1.0
  C  C784  1  0.487300  0.263800  0.469400  1.0
  C  C785  1  0.784100  0.307400  0.962800  1.0
  C  C786  1  0.523300  0.215900  0.962800  1.0
  C  C787  1  0.692600  0.476700  0.962800  1.0
  C  C788  1  0.307400  0.784100  0.537200  1.0
  C  C789  1  0.215900  0.523300  0.537200  1.0
  C  C790  1  0.476700  0.692600  0.537200  1.0
  C  C791  1  0.215900  0.692600  0.037200  1.0
  C  C792  1  0.476700  0.784100  0.037200  1.0
  C  C793  1  0.307400  0.523300  0.037200  1.0
  C  C794  1  0.692600  0.215900  0.462800  1.0
  C  C795  1  0.784100  0.476700  0.462800  1.0
  C  C796  1  0.523300  0.307400  0.462800  1.0
  C  C797  1  0.787300  0.336000  0.989000  1.0
  C  C798  1  0.548700  0.212700  0.989000  1.0
  C  C799  1  0.664000  0.451300  0.989000  1.0
  C  C800  1  0.336000  0.787300  0.511000  1.0
  C  C801  1  0.212700  0.548700  0.511000  1.0
  C  C802  1  0.451300  0.664000  0.511000  1.0
  C  C803  1  0.212700  0.664000  0.011000  1.0
  C  C804  1  0.451300  0.787300  0.011000  1.0
  C  C805  1  0.336000  0.548700  0.011000  1.0
  C  C806  1  0.664000  0.212700  0.489000  1.0
  C  C807  1  0.787300  0.451300  0.489000  1.0
  C  C808  1  0.548700  0.336000  0.489000  1.0
  C  C809  1  0.782800  0.320800  0.021900  1.0
  C  C810  1  0.538000  0.217200  0.021900  1.0
  C  C811  1  0.679200  0.462000  0.021900  1.0
  C  C812  1  0.320800  0.782800  0.478100  1.0
  C  C813  1  0.217200  0.538000  0.478100  1.0
  C  C814  1  0.462000  0.679200  0.478100  1.0
  C  C815  1  0.217200  0.679200  0.978100  1.0
  C  C816  1  0.462000  0.782800  0.978100  1.0
  C  C817  1  0.320800  0.538000  0.978100  1.0
  C  C818  1  0.679200  0.217200  0.521900  1.0
  C  C819  1  0.782800  0.462000  0.521900  1.0
  C  C820  1  0.538000  0.320800  0.521900  1.0
  C  C821  1  0.775200  0.277100  0.028500  1.0
  C  C822  1  0.501900  0.224800  0.028500  1.0
  C  C823  1  0.722900  0.498100  0.028500  1.0
  C  C824  1  0.277100  0.775200  0.471500  1.0
  C  C825  1  0.224800  0.501900  0.471500  1.0
  C  C826  1  0.498100  0.722900  0.471500  1.0
  C  C827  1  0.224800  0.722900  0.971500  1.0
  C  C828  1  0.498100  0.775200  0.971500  1.0
  C  C829  1  0.277100  0.501900  0.971500  1.0
  C  C830  1  0.722900  0.224800  0.528500  1.0
  C  C831  1  0.775200  0.498100  0.528500  1.0
  C  C832  1  0.501900  0.277100  0.528500  1.0
  C  C833  1  0.784600  0.139200  0.948700  1.0
  C  C834  1  0.354600  0.215400  0.948700  1.0
  C  C835  1  0.860800  0.645400  0.948700  1.0
  C  C836  1  0.139200  0.784600  0.551300  1.0
  C  C837  1  0.215400  0.354600  0.551300  1.0
  C  C838  1  0.645400  0.860800  0.551300  1.0
  C  C839  1  0.215400  0.860800  0.051300  1.0
  C  C840  1  0.645400  0.784600  0.051300  1.0
  C  C841  1  0.139200  0.354600  0.051300  1.0
  C  C842  1  0.860800  0.215400  0.448700  1.0
  C  C843  1  0.784600  0.645400  0.448700  1.0
  C  C844  1  0.354600  0.139200  0.448700  1.0
  C  C845  1  0.802000  0.141500  0.915700  1.0
  C  C846  1  0.339500  0.198000  0.915700  1.0
  C  C847  1  0.858500  0.660500  0.915700  1.0
  C  C848  1  0.141500  0.802000  0.584300  1.0
  C  C849  1  0.198000  0.339500  0.584300  1.0
  C  C850  1  0.660500  0.858500  0.584300  1.0
  C  C851  1  0.198000  0.858500  0.084300  1.0
  C  C852  1  0.660500  0.802000  0.084300  1.0
  C  C853  1  0.141500  0.339500  0.084300  1.0
  C  C854  1  0.858500  0.198000  0.415700  1.0
  C  C855  1  0.802000  0.660500  0.415700  1.0
  C  C856  1  0.339500  0.141500  0.415700  1.0
  C  C857  1  0.784700  0.152900  0.886300  1.0
  C  C858  1  0.368200  0.215300  0.886300  1.0
  C  C859  1  0.847100  0.631800  0.886300  1.0
  C  C860  1  0.152900  0.784700  0.613700  1.0
  C  C861  1  0.215300  0.368200  0.613700  1.0
  C  C862  1  0.631800  0.847100  0.613700  1.0
  C  C863  1  0.215300  0.847100  0.113700  1.0
  C  C864  1  0.631800  0.784700  0.113700  1.0
  C  C865  1  0.152900  0.368200  0.113700  1.0
  C  C866  1  0.847100  0.215300  0.386300  1.0
  C  C867  1  0.784700  0.631800  0.386300  1.0
  C  C868  1  0.368200  0.152900  0.386300  1.0
  C  C869  1  0.747000  0.161900  0.888800  1.0
  C  C870  1  0.414900  0.253000  0.888800  1.0
  C  C871  1  0.838100  0.585100  0.888800  1.0
  C  C872  1  0.161900  0.747000  0.611200  1.0
  C  C873  1  0.253000  0.414900  0.611200  1.0
  C  C874  1  0.585100  0.838100  0.611200  1.0
  C  C875  1  0.253000  0.838100  0.111200  1.0
  C  C876  1  0.585100  0.747000  0.111200  1.0
  C  C877  1  0.161900  0.414900  0.111200  1.0
  C  C878  1  0.838100  0.253000  0.388800  1.0
  C  C879  1  0.747000  0.585100  0.388800  1.0
  C  C880  1  0.414900  0.161900  0.388800  1.0
  C  C881  1  0.734200  0.161300  0.925400  1.0
  C  C882  1  0.427100  0.265800  0.925400  1.0
  C  C883  1  0.838700  0.572900  0.925400  1.0
  C  C884  1  0.161300  0.734200  0.574600  1.0
  C  C885  1  0.265800  0.427100  0.574600  1.0
  C  C886  1  0.572900  0.838700  0.574600  1.0
  C  C887  1  0.265800  0.838700  0.074600  1.0
  C  C888  1  0.572900  0.734200  0.074600  1.0
  C  C889  1  0.161300  0.427100  0.074600  1.0
  C  C890  1  0.838700  0.265800  0.425400  1.0
  C  C891  1  0.734200  0.572900  0.425400  1.0
  C  C892  1  0.427100  0.161300  0.425400  1.0
  C  C893  1  0.697100  0.170400  0.933500  1.0
  C  C894  1  0.473300  0.302900  0.933500  1.0
  C  C895  1  0.829600  0.526700  0.933500  1.0
  C  C896  1  0.170400  0.697100  0.566500  1.0
  C  C897  1  0.302900  0.473300  0.566500  1.0
  C  C898  1  0.526700  0.829600  0.566500  1.0
  C  C899  1  0.302900  0.829600  0.066500  1.0
  C  C900  1  0.526700  0.697100  0.066500  1.0
  C  C901  1  0.170400  0.473300  0.066500  1.0
  C  C902  1  0.829600  0.302900  0.433500  1.0
  C  C903  1  0.697100  0.526700  0.433500  1.0
  C  C904  1  0.473300  0.170400  0.433500  1.0
  C  C905  1  0.818800  0.468700  0.970200  1.0
  C  C906  1  0.649900  0.181200  0.970200  1.0
  C  C907  1  0.531300  0.350100  0.970200  1.0
  C  C908  1  0.468700  0.818800  0.529800  1.0
  C  C909  1  0.181200  0.649900  0.529800  1.0
  C  C910  1  0.350100  0.531300  0.529800  1.0
  C  C911  1  0.181200  0.531300  0.029800  1.0
  C  C912  1  0.350100  0.818800  0.029800  1.0
  C  C913  1  0.468700  0.649900  0.029800  1.0
  C  C914  1  0.531300  0.181200  0.470200  1.0
  C  C915  1  0.818800  0.350100  0.470200  1.0
  C  C916  1  0.649900  0.468700  0.470200  1.0
  C  C917  1  0.852000  0.465500  0.978400  1.0
  C  C918  1  0.613500  0.148000  0.978400  1.0
  C  C919  1  0.534500  0.386500  0.978400  1.0
  C  C920  1  0.465500  0.852000  0.521600  1.0
  C  C921  1  0.148000  0.613500  0.521600  1.0
  C  C922  1  0.386500  0.534500  0.521600  1.0
  C  C923  1  0.148000  0.534500  0.021600  1.0
  C  C924  1  0.386500  0.852000  0.021600  1.0
  C  C925  1  0.465500  0.613500  0.021600  1.0
  C  C926  1  0.534500  0.148000  0.478400  1.0
  C  C927  1  0.852000  0.386500  0.478400  1.0
  C  C928  1  0.613500  0.465500  0.478400  1.0
  C  C929  1  0.845800  0.419100  0.988400  1.0
  C  C930  1  0.573300  0.154200  0.988400  1.0
  C  C931  1  0.580900  0.426700  0.988400  1.0
  C  C932  1  0.419100  0.845800  0.511600  1.0
  C  C933  1  0.154200  0.573300  0.511600  1.0
  C  C934  1  0.426700  0.580900  0.511600  1.0
  C  C935  1  0.154200  0.580900  0.011600  1.0
  C  C936  1  0.426700  0.845800  0.011600  1.0
  C  C937  1  0.419100  0.573300  0.011600  1.0
  C  C938  1  0.580900  0.154200  0.488400  1.0
  C  C939  1  0.845800  0.426700  0.488400  1.0
  C  C940  1  0.573300  0.419100  0.488400  1.0
  C  C941  1  0.798500  0.382800  0.982700  1.0
  C  C942  1  0.584300  0.201500  0.982700  1.0
  C  C943  1  0.617200  0.415700  0.982700  1.0
  C  C944  1  0.382800  0.798500  0.517300  1.0
  C  C945  1  0.201500  0.584300  0.517300  1.0
  C  C946  1  0.415700  0.617200  0.517300  1.0
  C  C947  1  0.201500  0.617200  0.017300  1.0
  C  C948  1  0.415700  0.798500  0.017300  1.0
  C  C949  1  0.382800  0.584300  0.017300  1.0
  C  C950  1  0.617200  0.201500  0.482700  1.0
  C  C951  1  0.798500  0.415700  0.482700  1.0
  C  C952  1  0.584300  0.382800  0.482700  1.0
  C  C953  1  0.763100  0.391100  0.976000  1.0
  C  C954  1  0.628000  0.236900  0.976000  1.0
  C  C955  1  0.608900  0.372000  0.976000  1.0
  C  C956  1  0.391100  0.763100  0.524000  1.0
  C  C957  1  0.236900  0.628000  0.524000  1.0
  C  C958  1  0.372000  0.608900  0.524000  1.0
  C  C959  1  0.236900  0.608900  0.024000  1.0
  C  C960  1  0.372000  0.763100  0.024000  1.0
  C  C961  1  0.391100  0.628000  0.024000  1.0
  C  C962  1  0.608900  0.236900  0.476000  1.0
  C  C963  1  0.763100  0.372000  0.476000  1.0
  C  C964  1  0.628000  0.391100  0.476000  1.0
  C  C965  1  0.775400  0.434700  0.967600  1.0
  C  C966  1  0.659300  0.224600  0.967600  1.0
  C  C967  1  0.565300  0.340700  0.967600  1.0
  C  C968  1  0.434700  0.775400  0.532400  1.0
  C  C969  1  0.224600  0.659300  0.532400  1.0
  C  C970  1  0.340700  0.565300  0.532400  1.0
  C  C971  1  0.224600  0.565300  0.032400  1.0
  C  C972  1  0.340700  0.775400  0.032400  1.0
  C  C973  1  0.434700  0.659300  0.032400  1.0
  C  C974  1  0.565300  0.224600  0.467600  1.0
  C  C975  1  0.775400  0.340700  0.467600  1.0
  C  C976  1  0.659300  0.434700  0.467600  1.0
  S  S977  1  0.666667  0.333333  0.060300  1
  S  S978  1  0.333333  0.666667  0.439700  1
  S  S979  1  0.333333  0.666667  0.939700  1
  S  S980  1  0.666667  0.333333  0.560300  1
  S  S981  1  0.779100  0.228600  0.126730  1.0
  S  S982  1  0.449500  0.220900  0.126730  1.0
  S  S983  1  0.771400  0.550500  0.126730  1.0
  S  S984  1  0.228600  0.779100  0.373270  1.0
  S  S985  1  0.220900  0.449500  0.373270  1.0
  S  S986  1  0.550500  0.771400  0.373270  1.0
  S  S987  1  0.220900  0.771400  0.873270  1.0
  S  S988  1  0.550500  0.779100  0.873270  1.0
  S  S989  1  0.228600  0.449500  0.873270  1.0
  S  S990  1  0.771400  0.220900  0.626730  1.0
  S  S991  1  0.779100  0.550500  0.626730  1.0
  S  S992  1  0.449500  0.228600  0.626730  1.0
  S  S993  1  0.634300  0.163300  0.180160  1.0
  S  S994  1  0.529000  0.365700  0.180160  1.0
  S  S995  1  0.836700  0.471000  0.180160  1.0
  S  S996  1  0.163300  0.634300  0.319840  1.0
  S  S997  1  0.365700  0.529000  0.319840  1.0
  S  S998  1  0.471000  0.836700  0.319840  1.0
  S  S999  1  0.365700  0.836700  0.819840  1.0
  S  S1000  1  0.471000  0.634300  0.819840  1.0
  S  S1001  1  0.163300  0.529000  0.819840  1.0
  S  S1002  1  0.836700  0.365700  0.680160  1.0
  S  S1003  1  0.634300  0.471000  0.680160  1.0
  S  S1004  1  0.529000  0.163300  0.680160  1.0
  S  S1005  1  0.788900  0.321400  0.919480  1.0
  S  S1006  1  0.532500  0.211100  0.919480  1.0
  S  S1007  1  0.678600  0.467500  0.919480  1.0
  S  S1008  1  0.321400  0.788900  0.580520  1.0
  S  S1009  1  0.211100  0.532500  0.580520  1.0
  S  S1010  1  0.467500  0.678600  0.580520  1.0
  S  S1011  1  0.211100  0.678600  0.080520  1.0
  S  S1012  1  0.467500  0.788900  0.080520  1.0
  S  S1013  1  0.321400  0.532500  0.080520  1.0
  S  S1014  1  0.678600  0.211100  0.419480  1.0
  S  S1015  1  0.788900  0.467500  0.419480  1.0
  S  S1016  1  0.532500  0.321400  0.419480  1.0
  S  S1017  1  0.893800  0.414900  0.000280  1.0
  S  S1018  1  0.521100  0.106200  0.000280  1.0
  S  S1019  1  0.585100  0.478900  0.000280  1.0
  S  S1020  1  0.414900  0.893800  0.499720  1.0
  S  S1021  1  0.106200  0.521100  0.499720  1.0
  S  S1022  1  0.478900  0.585100  0.499720  1.0
  S  S1023  1  0.106200  0.585100  0.999720  1.0
  S  S1024  1  0.478900  0.893800  0.999720  1.0
  S  S1025  1  0.414900  0.521100  0.999720  1.0
  S  S1026  1  0.585100  0.106200  0.500280  1.0
  S  S1027  1  0.893800  0.478900  0.500280  1.0
  S  S1028  1  0.521100  0.414900  0.500280  1.0
  N  N1029  1  0.667300  0.078900  0.981100  1.0
  N  N1030  1  0.411600  0.332700  0.981100  1.0
  N  N1031  1  0.921100  0.588400  0.981100  1.0
  N  N1032  1  0.078900  0.667300  0.518900  1.0
  N  N1033  1  0.332700  0.411600  0.518900  1.0
  N  N1034  1  0.588400  0.921100  0.518900  1.0
  N  N1035  1  0.332700  0.921100  0.018900  1.0
  N  N1036  1  0.588400  0.667300  0.018900  1.0
  N  N1037  1  0.078900  0.411600  0.018900  1.0
  N  N1038  1  0.921100  0.332700  0.481100  1.0
  N  N1039  1  0.667300  0.588400  0.481100  1.0
  N  N1040  1  0.411600  0.078900  0.481100  1.0
  N  N1041  1  0.724100  0.375400  0.284200  1.0
  N  N1042  1  0.651300  0.275900  0.284200  1.0
  N  N1043  1  0.624600  0.348700  0.284200  1.0
  N  N1044  1  0.375400  0.724100  0.215800  1.0
  N  N1045  1  0.275900  0.651300  0.215800  1.0
  N  N1046  1  0.348700  0.624600  0.215800  1.0
  N  N1047  1  0.275900  0.624600  0.715800  1.0
  N  N1048  1  0.348700  0.724100  0.715800  1.0
  N  N1049  1  0.375400  0.651300  0.715800  1.0
  N  N1050  1  0.624600  0.275900  0.784200  1.0
  N  N1051  1  0.724100  0.348700  0.784200  1.0
  N  N1052  1  0.651300  0.375400  0.784200  1.0
  N  N1053  1  0.669200  0.126800  0.031500  1.0
  N  N1054  1  0.457600  0.330800  0.031500  1.0
  N  N1055  1  0.873200  0.542400  0.031500  1.0
  N  N1056  1  0.126800  0.669200  0.468500  1.0
  N  N1057  1  0.330800  0.457600  0.468500  1.0
  N  N1058  1  0.542400  0.873200  0.468500  1.0
  N  N1059  1  0.330800  0.873200  0.968500  1.0
  N  N1060  1  0.542400  0.669200  0.968500  1.0
  N  N1061  1  0.126800  0.457600  0.968500  1.0
  N  N1062  1  0.873200  0.330800  0.531500  1.0
  N  N1063  1  0.669200  0.542400  0.531500  1.0
  N  N1064  1  0.457600  0.126800  0.531500  1.0
  N  N1065  1  0.710900  0.322400  0.229100  1.0
  N  N1066  1  0.611500  0.289100  0.229100  1.0
  N  N1067  1  0.677600  0.388500  0.229100  1.0
  N  N1068  1  0.322400  0.710900  0.270900  1.0
  N  N1069  1  0.289100  0.611500  0.270900  1.0
  N  N1070  1  0.388500  0.677600  0.270900  1.0
  N  N1071  1  0.289100  0.677600  0.770900  1.0
  N  N1072  1  0.388500  0.710900  0.770900  1.0
  N  N1073  1  0.322400  0.611500  0.770900  1.0
  N  N1074  1  0.677600  0.289100  0.729100  1.0
  N  N1075  1  0.710900  0.388500  0.729100  1.0
  N  N1076  1  0.611500  0.322400  0.729100  1.0
  N  N1077  1  0.754200  0.125900  0.020600  1.0
  N  N1078  1  0.371700  0.245800  0.020600  1.0
  N  N1079  1  0.874100  0.628300  0.020600  1.0
  N  N1080  1  0.125900  0.754200  0.479400  1.0
  N  N1081  1  0.245800  0.371700  0.479400  1.0
  N  N1082  1  0.628300  0.874100  0.479400  1.0
  N  N1083  1  0.245800  0.874100  0.979400  1.0
  N  N1084  1  0.628300  0.754200  0.979400  1.0
  N  N1085  1  0.125900  0.371700  0.979400  1.0
  N  N1086  1  0.874100  0.245800  0.520600  1.0
  N  N1087  1  0.754200  0.628300  0.520600  1.0
  N  N1088  1  0.371700  0.125900  0.520600  1.0
  N  N1089  1  0.769800  0.204900  0.009500  1.0
  N  N1090  1  0.435100  0.230200  0.009500  1.0
  N  N1091  1  0.795100  0.564900  0.009500  1.0
  N  N1092  1  0.204900  0.769800  0.490500  1.0
  N  N1093  1  0.230200  0.435100  0.490500  1.0
  N  N1094  1  0.564900  0.795100  0.490500  1.0
  N  N1095  1  0.230200  0.795100  0.990500  1.0
  N  N1096  1  0.564900  0.769800  0.990500  1.0
  N  N1097  1  0.204900  0.435100  0.990500  1.0
  N  N1098  1  0.795100  0.230200  0.509500  1.0
  N  N1099  1  0.769800  0.564900  0.509500  1.0
  N  N1100  1  0.435100  0.204900  0.509500  1.0
  N  N1101  1  0.750100  0.151200  0.950600  1.0
  N  N1102  1  0.401100  0.249900  0.950600  1.0
  N  N1103  1  0.848800  0.598900  0.950600  1.0
  N  N1104  1  0.151200  0.750100  0.549400  1.0
  N  N1105  1  0.249900  0.401100  0.549400  1.0
  N  N1106  1  0.598900  0.848800  0.549400  1.0
  N  N1107  1  0.249900  0.848800  0.049400  1.0
  N  N1108  1  0.598900  0.750100  0.049400  1.0
  N  N1109  1  0.151200  0.401100  0.049400  1.0
  N  N1110  1  0.848800  0.249900  0.450600  1.0
  N  N1111  1  0.750100  0.598900  0.450600  1.0
  N  N1112  1  0.401100  0.151200  0.450600  1.0
  N  N1113  1  0.683100  0.168100  0.963800  1.0
  N  N1114  1  0.485000  0.316900  0.963800  1.0
  N  N1115  1  0.831900  0.515000  0.963800  1.0
  N  N1116  1  0.168100  0.683100  0.536200  1.0
  N  N1117  1  0.316900  0.485000  0.536200  1.0
  N  N1118  1  0.515000  0.831900  0.536200  1.0
  N  N1119  1  0.316900  0.831900  0.036200  1.0
  N  N1120  1  0.515000  0.683100  0.036200  1.0
  N  N1121  1  0.168100  0.485000  0.036200  1.0
  N  N1122  1  0.831900  0.316900  0.463800  1.0
  N  N1123  1  0.683100  0.515000  0.463800  1.0
  N  N1124  1  0.485000  0.168100  0.463800  1.0
  O  O1125  1  0.799100  0.202000  0.116200  1.0
  O  O1126  1  0.402900  0.200900  0.116200  1.0
  O  O1127  1  0.798000  0.597100  0.116200  1.0
  O  O1128  1  0.202000  0.799100  0.383800  1.0
  O  O1129  1  0.200900  0.402900  0.383800  1.0
  O  O1130  1  0.597100  0.798000  0.383800  1.0
  O  O1131  1  0.200900  0.798000  0.883800  1.0
  O  O1132  1  0.597100  0.799100  0.883800  1.0
  O  O1133  1  0.202000  0.402900  0.883800  1.0
  O  O1134  1  0.798000  0.200900  0.616200  1.0
  O  O1135  1  0.799100  0.597100  0.616200  1.0
  O  O1136  1  0.402900  0.202000  0.616200  1.0
  O  O1137  1  0.801800  0.274800  0.118700  1.0
  O  O1138  1  0.473000  0.198200  0.118700  1.0
  O  O1139  1  0.725200  0.527000  0.118700  1.0
  O  O1140  1  0.274800  0.801800  0.381300  1.0
  O  O1141  1  0.198200  0.473000  0.381300  1.0
  O  O1142  1  0.527000  0.725200  0.381300  1.0
  O  O1143  1  0.198200  0.725200  0.881300  1.0
  O  O1144  1  0.527000  0.801800  0.881300  1.0
  O  O1145  1  0.274800  0.473000  0.881300  1.0
  O  O1146  1  0.725200  0.198200  0.618700  1.0
  O  O1147  1  0.801800  0.527000  0.618700  1.0
  O  O1148  1  0.473000  0.274800  0.618700  1.0
  O  O1149  1  0.765700  0.221200  0.163000  1.0
  O  O1150  1  0.455500  0.234300  0.163000  1.0
  O  O1151  1  0.778800  0.544500  0.163000  1.0
  O  O1152  1  0.221200  0.765700  0.337000  1.0
  O  O1153  1  0.234300  0.455500  0.337000  1.0
  O  O1154  1  0.544500  0.778800  0.337000  1.0
  O  O1155  1  0.234300  0.778800  0.837000  1.0
  O  O1156  1  0.544500  0.765700  0.837000  1.0
  O  O1157  1  0.221200  0.455500  0.837000  1.0
  O  O1158  1  0.778800  0.234300  0.663000  1.0
  O  O1159  1  0.765700  0.544500  0.663000  1.0
  O  O1160  1  0.455500  0.221200  0.663000  1.0
  O  O1161  1  0.655200  0.143400  0.169300  1.0
  O  O1162  1  0.488200  0.344800  0.169300  1.0
  O  O1163  1  0.856600  0.511800  0.169300  1.0
  O  O1164  1  0.143400  0.655200  0.330700  1.0
  O  O1165  1  0.344800  0.488200  0.330700  1.0
  O  O1166  1  0.511800  0.856600  0.330700  1.0
  O  O1167  1  0.344800  0.856600  0.830700  1.0
  O  O1168  1  0.511800  0.655200  0.830700  1.0
  O  O1169  1  0.143400  0.488200  0.830700  1.0
  O  O1170  1  0.856600  0.344800  0.669300  1.0
  O  O1171  1  0.655200  0.511800  0.669300  1.0
  O  O1172  1  0.488200  0.143400  0.669300  1.0
  O  O1173  1  0.597400  0.156400  0.161500  1.0
  O  O1174  1  0.559000  0.402600  0.161500  1.0
  O  O1175  1  0.843600  0.441000  0.161500  1.0
  O  O1176  1  0.156400  0.597400  0.338500  1.0
  O  O1177  1  0.402600  0.559000  0.338500  1.0
  O  O1178  1  0.441000  0.843600  0.338500  1.0
  O  O1179  1  0.402600  0.843600  0.838500  1.0
  O  O1180  1  0.441000  0.597400  0.838500  1.0
  O  O1181  1  0.156400  0.559000  0.838500  1.0
  O  O1182  1  0.843600  0.402600  0.661500  1.0
  O  O1183  1  0.597400  0.441000  0.661500  1.0
  O  O1184  1  0.559000  0.156400  0.661500  1.0
  O  O1185  1  0.619100  0.154400  0.218200  1.0
  O  O1186  1  0.535300  0.380900  0.218200  1.0
  O  O1187  1  0.845600  0.464700  0.218200  1.0
  O  O1188  1  0.154400  0.619100  0.281800  1.0
  O  O1189  1  0.380900  0.535300  0.281800  1.0
  O  O1190  1  0.464700  0.845600  0.281800  1.0
  O  O1191  1  0.380900  0.845600  0.781800  1.0
  O  O1192  1  0.464700  0.619100  0.781800  1.0
  O  O1193  1  0.154400  0.535300  0.781800  1.0
  O  O1194  1  0.845600  0.380900  0.718200  1.0
  O  O1195  1  0.619100  0.464700  0.718200  1.0
  O  O1196  1  0.535300  0.154400  0.718200  1.0
  O  O1197  1  0.784800  0.283900  0.903300  1.0
  O  O1198  1  0.499100  0.215200  0.903300  1.0
  O  O1199  1  0.716100  0.500900  0.903300  1.0
  O  O1200  1  0.283900  0.784800  0.596700  1.0
  O  O1201  1  0.215200  0.499100  0.596700  1.0
  O  O1202  1  0.500900  0.716100  0.596700  1.0
  O  O1203  1  0.215200  0.716100  0.096700  1.0
  O  O1204  1  0.500900  0.784800  0.096700  1.0
  O  O1205  1  0.283900  0.499100  0.096700  1.0
  O  O1206  1  0.716100  0.215200  0.403300  1.0
  O  O1207  1  0.784800  0.500900  0.403300  1.0
  O  O1208  1  0.499100  0.283900  0.403300  1.0
  O  O1209  1  0.830800  0.365500  0.915200  1.0
  O  O1210  1  0.534700  0.169200  0.915200  1.0
  O  O1211  1  0.634500  0.465300  0.915200  1.0
  O  O1212  1  0.365500  0.830800  0.584800  1.0
  O  O1213  1  0.169200  0.534700  0.584800  1.0
  O  O1214  1  0.465300  0.634500  0.584800  1.0
  O  O1215  1  0.169200  0.634500  0.084800  1.0
  O  O1216  1  0.465300  0.830800  0.084800  1.0
  O  O1217  1  0.365500  0.534700  0.084800  1.0
  O  O1218  1  0.634500  0.169200  0.415200  1.0
  O  O1219  1  0.830800  0.465300  0.415200  1.0
  O  O1220  1  0.534700  0.365500  0.415200  1.0
  O  O1221  1  0.745700  0.325600  0.918800  1.0
  O  O1222  1  0.579900  0.254300  0.918800  1.0
  O  O1223  1  0.674400  0.420100  0.918800  1.0
  O  O1224  1  0.325600  0.745700  0.581200  1.0
  O  O1225  1  0.254300  0.579900  0.581200  1.0
  O  O1226  1  0.420100  0.674400  0.581200  1.0
  O  O1227  1  0.254300  0.674400  0.081200  1.0
  O  O1228  1  0.420100  0.745700  0.081200  1.0
  O  O1229  1  0.325600  0.579900  0.081200  1.0
  O  O1230  1  0.674400  0.254300  0.418800  1.0
  O  O1231  1  0.745700  0.420100  0.418800  1.0
  O  O1232  1  0.579900  0.325600  0.418800  1.0
  O  O1233  1  0.936700  0.457100  0.992800  1.0
  O  O1234  1  0.520400  0.063300  0.992800  1.0
  O  O1235  1  0.542900  0.479600  0.992800  1.0
  O  O1236  1  0.457100  0.936700  0.507200  1.0
  O  O1237  1  0.063300  0.520400  0.507200  1.0
  O  O1238  1  0.479600  0.542900  0.507200  1.0
  O  O1239  1  0.063300  0.542900  0.007200  1.0
  O  O1240  1  0.479600  0.936700  0.007200  1.0
  O  O1241  1  0.457100  0.520400  0.007200  1.0
  O  O1242  1  0.542900  0.063300  0.492800  1.0
  O  O1243  1  0.936700  0.479600  0.492800  1.0
  O  O1244  1  0.520400  0.457100  0.492800  1.0
  O  O1245  1  0.885700  0.404900  0.039500  1.0
  O  O1246  1  0.519200  0.114300  0.039500  1.0
  O  O1247  1  0.595100  0.480800  0.039500  1.0
  O  O1248  1  0.404900  0.885700  0.460500  1.0
  O  O1249  1  0.114300  0.519200  0.460500  1.0
  O  O1250  1  0.480800  0.595100  0.460500  1.0
  O  O1251  1  0.114300  0.595100  0.960500  1.0
  O  O1252  1  0.480800  0.885700  0.960500  1.0
  O  O1253  1  0.404900  0.519200  0.960500  1.0
  O  O1254  1  0.595100  0.114300  0.539500  1.0
  O  O1255  1  0.885700  0.480800  0.539500  1.0
  O  O1256  1  0.519200  0.404900  0.539500  1.0
  O  O1257  1  0.894900  0.379600  0.983600  1.0
  O  O1258  1  0.484700  0.105100  0.983600  1.0
  O  O1259  1  0.620400  0.515300  0.983600  1.0
  O  O1260  1  0.379600  0.894900  0.516400  1.0
  O  O1261  1  0.105100  0.484700  0.516400  1.0
  O  O1262  1  0.515300  0.620400  0.516400  1.0
  O  O1263  1  0.105100  0.620400  0.016400  1.0
  O  O1264  1  0.515300  0.894900  0.016400  1.0
  O  O1265  1  0.379600  0.484700  0.016400  1.0
  O  O1266  1  0.620400  0.105100  0.483600  1.0
  O  O1267  1  0.894900  0.515300  0.483600  1.0
  O  O1268  1  0.484700  0.379600  0.483600  1.0
  F  F1269  1  0.666667  0.333333  0.024400  1
  F  F1270  1  0.333333  0.666667  0.475600  1
  F  F1271  1  0.333333  0.666667  0.975600  1
  F  F1272  1  0.666667  0.333333  0.524400  1
  F  F1273  1  0.666667  0.333333  0.096000  1
  F  F1274  1  0.333333  0.666667  0.404000  1
  F  F1275  1  0.333333  0.666667  0.904000  1
  F  F1276  1  0.666667  0.333333  0.596000  1
  F  F1277  1  0.627000  0.339400  0.061600  1
  F  F1278  1  0.712400  0.373000  0.061600  1
  F  F1279  1  0.660600  0.287600  0.061600  1
  F  F1280  1  0.339400  0.627000  0.438400  1
  F  F1281  1  0.373000  0.712400  0.438400  1
  F  F1282  1  0.287600  0.660600  0.438400  1
  F  F1283  1  0.373000  0.660600  0.938400  1
  F  F1284  1  0.287600  0.627000  0.938400  1
  F  F1285  1  0.339400  0.712400  0.938400  1
  F  F1286  1  0.660600  0.373000  0.561600  1
  F  F1287  1  0.627000  0.287600  0.561600  1
  F  F1288  1  0.712400  0.339400  0.561600  1
  F  F1289  1  0.716700  0.356700  0.062200  1
  F  F1290  1  0.640000  0.283300  0.062200  1
  F  F1291  1  0.643300  0.360000  0.062200  1
  F  F1292  1  0.356700  0.716700  0.437800  1
  F  F1293  1  0.283300  0.640000  0.437800  1
  F  F1294  1  0.360000  0.643300  0.437800  1
  F  F1295  1  0.283300  0.643300  0.937800  1
  F  F1296  1  0.360000  0.716700  0.937800  1
  F  F1297  1  0.356700  0.640000  0.937800  1
  F  F1298  1  0.643300  0.283300  0.562200  1
  F  F1299  1  0.716700  0.360000  0.562200  1
  F  F1300  1  0.640000  0.356700  0.562200  1
  F  F1301  1  0.618200  0.303200  0.060200  1
  F  F1302  1  0.685000  0.381800  0.060200  1
  F  F1303  1  0.696800  0.315000  0.060200  1
  F  F1304  1  0.303200  0.618200  0.439800  1
  F  F1305  1  0.381800  0.685000  0.439800  1
  F  F1306  1  0.315000  0.696800  0.439800  1
  F  F1307  1  0.381800  0.696800  0.939800  1
  F  F1308  1  0.315000  0.618200  0.939800  1
  F  F1309  1  0.303200  0.685000  0.939800  1
  F  F1310  1  0.696800  0.381800  0.560200  1
  F  F1311  1  0.618200  0.315000  0.560200  1
  F  F1312  1  0.685000  0.303200  0.560200  1
  F  F1313  1  0.660000  0.371700  0.060300  1.0
  F  F1314  1  0.711700  0.340000  0.060300  1.0
  F  F1315  1  0.628300  0.288300  0.060300  1.0
  F  F1316  1  0.371700  0.660000  0.439700  1.0
  F  F1317  1  0.340000  0.711700  0.439700  1.0
  F  F1318  1  0.288300  0.628300  0.439700  1.0
  F  F1319  1  0.340000  0.628300  0.939700  1.0
  F  F1320  1  0.288300  0.660000  0.939700  1.0
  F  F1321  1  0.371700  0.711700  0.939700  1.0
  F  F1322  1  0.628300  0.340000  0.560300  1.0
  F  F1323  1  0.660000  0.288300  0.560300  1.0
  F  F1324  1  0.711700  0.371700  0.560300  1.0
