
#######################################################################
#
#                 Cambridge Crystallographic Data Centre
#                                CCDC 
#
#######################################################################
#
# If this CIF has been generated from an entry in the Cambridge 
# Structural Database, then it will include bibliographic, chemical, 
# crystal, experimental, refinement or atomic coordinate data resulting 
# from the CCDC's data processing and validation procedures.
#
#######################################################################

data_ELAVET
_chemical_formula_moiety         'C32 H48 Ag2 N4 Si4 2+,2(Cl1 O4 1-)'
_chemical_name_systematic        
'bis(\m~2~-1,2-bis(Dimethyl(4-pyridyl)silyl)ethane)-di-silver diperchlorate'
_symmetry_cell_setting           triclinic
_symmetry_space_group_name_H-M   'P -1'
_symmetry_Int_Tables_number      2
_space_group_name_Hall           '-P 1'
loop_
_symmetry_equiv_pos_site_id
_symmetry_equiv_pos_as_xyz
1 x,y,z
2 -x,-y,-z
_cell_length_a                   9.9958(6)
_cell_length_b                   11.8193(7)
_cell_length_c                   19.1958(11)
_cell_angle_alpha                76.168(3)
_cell_angle_beta                 89.317(3)
_cell_angle_gamma                77.361(3)
_cell_volume                     2146.78
_exptl_crystal_colour            colorless
_exptl_crystal_description       block
_cell_formula_units_Z            2
loop_
_atom_site_label
_atom_site_type_symbol
_atom_site_fract_x
_atom_site_fract_y
_atom_site_fract_z
C1 C 0.3433(6) 0.2800(5) 1.0198(3)
H1 H 0.3120 0.2249 1.0556
C2 C 0.2609(6) 0.3923(5) 0.9946(3)
H2 H 0.1756 0.4111 1.0140
N1 N 0.4676(5) 0.2478(4) 0.9939(2)
C3 C 0.5089(6) 0.3294(5) 0.9424(3)
H3 H 0.5947 0.3085 0.9238
C4 C 0.4312(6) 0.4423(5) 0.9155(3)
H4 H 0.4652 0.4957 0.8798
C5 C 0.3020(5) 0.4780(5) 0.9412(3)
Ag1 Ag 0.40839(4) -0.07314(4) 0.96154(2)
Si1 Si 0.00226(17) 0.44587(14) 0.76434(9)
Si2 Si 0.17841(17) 0.62774(13) 0.90726(8)
N3 N 0.2827(4) 0.0913(4) 0.9017(2)
C9 C 0.3357(6) 0.1736(5) 0.8561(3)
H7 H 0.4302 0.1589 0.8512
C10 C 0.2556(6) 0.2792(5) 0.8162(3)
H8 H 0.2970 0.3344 0.7860
C11 C 0.1138(5) 0.3038(5) 0.8207(3)
C12 C -0.1788(6) 0.4497(6) 0.7890(4)
H9 H -0.1874 0.4502 0.8388
H10 H -0.2052 0.3804 0.7809
H11 H -0.2374 0.5205 0.7601
C13 C 0.0679(7) 0.5717(5) 0.7846(3)
H12 H 0.1668 0.5549 0.7809
H13 H 0.0300 0.6442 0.7484
C14 C 0.0336(6) 0.5946(5) 0.8593(3)
H14 H 0.0072 0.5249 0.8890
H15 H -0.0448 0.6615 0.8539
C15 C 0.1124(7) 0.6865(6) 0.9858(3)
H16 H 0.0496 0.7624 0.9693
H17 H 0.1877 0.6961 1.0128
H18 H 0.0659 0.6314 1.0159
C16 C 0.2671(8) 0.7335(6) 0.8490(4)
H19 H 0.2039 0.8091 0.8321
H20 H 0.3017 0.7026 0.8088
H21 H 0.3421 0.7440 0.8758
C17 C 0.0291(7) 0.4443(6) 0.6674(3)
H22 H -0.0263 0.5155 0.6373
H23 H 0.0034 0.3755 0.6581
H24 H 0.1241 0.4410 0.6575
C18 C 0.0609(5) 0.2170(5) 0.8697(3)
H25 H -0.0331 0.2293 0.8762
C19 C 0.1469(5) 0.1144(5) 0.9079(3)
H26 H 0.1089 0.0584 0.9396
C1A C 0.6567(6) -0.2800(5) 0.9802(3)
H1A H 0.6880 -0.2249 0.9444
C2A C 0.7391(6) -0.3923(5) 1.0054(3)
H2A H 0.8244 -0.4111 0.9860
N1A N 0.5324(5) -0.2478(4) 1.0061(2)
C3A C 0.4911(6) -0.3294(5) 1.0576(3)
H3A H 0.4053 -0.3085 1.0762
C4A C 0.5688(6) -0.4423(5) 1.0845(3)
H4A H 0.5348 -0.4957 1.1202
C5A C 0.6980(5) -0.4780(5) 1.0588(3)
Ag1A Ag 0.59161(4) 0.07314(4) 1.03846(2)
Si1A Si 0.99774(17) -0.44587(14) 1.23566(9)
Si2A Si 0.82159(17) -0.62774(13) 1.09274(8)
N3A N 0.7173(4) -0.0913(4) 1.0983(2)
C9A C 0.6643(6) -0.1736(5) 1.1439(3)
H7A H 0.5698 -0.1589 1.1488
C10A C 0.7444(6) -0.2792(5) 1.1838(3)
H8A H 0.7030 -0.3344 1.2140
C11A C 0.8862(5) -0.3038(5) 1.1793(3)
C12A C 1.1788(6) -0.4497(6) 1.2110(4)
H9A H 1.1874 -0.4502 1.1612
H10A H 1.2052 -0.3804 1.2191
H11A H 1.2374 -0.5205 1.2399
C13A C 0.9321(7) -0.5717(5) 1.2154(3)
H12A H 0.8332 -0.5549 1.2191
H13A H 0.9700 -0.6442 1.2516
C14A C 0.9664(6) -0.5946(5) 1.1407(3)
H14A H 0.9928 -0.5249 1.1110
H15A H 1.0448 -0.6615 1.1461
C15A C 0.8876(7) -0.6865(6) 1.0142(3)
H16A H 0.9504 -0.7624 1.0307
H17A H 0.8123 -0.6961 0.9872
H18A H 0.9341 -0.6314 0.9841
C16A C 0.7329(8) -0.7335(6) 1.1510(4)
H19A H 0.7961 -0.8091 1.1679
H20A H 0.6983 -0.7026 1.1912
H21A H 0.6579 -0.7440 1.1242
C17A C 0.9709(7) -0.4443(6) 1.3326(3)
H22A H 1.0263 -0.5155 1.3627
H23A H 0.9966 -0.3755 1.3419
H24A H 0.8759 -0.4410 1.3425
C18A C 0.9391(5) -0.2170(5) 1.1303(3)
H25A H 1.0331 -0.2293 1.1238
C19A C 0.8531(5) -0.1144(5) 1.0921(3)
H26A H 0.8911 -0.0584 1.0604
N2 N 0.2454(5) 0.6101(5) 0.4655(3)
C6 C 0.2492(6) 0.6611(5) 0.3962(3)
H5 H 0.3147 0.6239 0.3693
C7 C 0.1609(6) 0.7665(5) 0.3619(3)
H6 H 0.1688 0.7984 0.3132
C8 C 0.0599(6) 0.8257(5) 0.3997(3)
Ag2 Ag 0.63225(5) 0.55885(4) 0.48178(3)
Si3 Si 0.30027(18) 1.12557(15) 0.30977(9)
Si4 Si -0.06629(16) 0.96884(14) 0.35635(8)
N4 N 0.5384(5) 0.7391(5) 0.4286(3)
C20 C 0.5408(7) 0.7795(6) 0.3577(3)
H27 H 0.5886 0.7281 0.3315
C21 C 0.4767(7) 0.8926(6) 0.3213(3)
H28 H 0.4808 0.9156 0.2716
C22 C 0.4052(6) 0.9737(5) 0.3586(3)
C23 C 0.1295(6) 1.0990(6) 0.2854(3)
H29 H 0.0872 1.1629 0.2450
H30 H 0.1453 1.0248 0.2702
C24 C 0.0294(7) 1.0922(6) 0.3466(3)
H31 H -0.0369 1.1679 0.3387
H32 H 0.0801 1.0811 0.3914
C25 C -0.1336(7) 0.9505(7) 0.2714(3)
H33 H -0.1800 0.8857 0.2815
H34 H -0.0589 0.9334 0.2408
H35 H -0.1967 1.0229 0.2477
C26 C -0.2077(7) 0.9927(6) 0.4189(4)
H36 H -0.2571 0.9302 0.4242
H37 H -0.2689 1.0686 0.3999
H38 H -0.1698 0.9915 0.4649
C27 C 0.0611(7) 0.7739(6) 0.4735(3)
H39 H -0.0007 0.8110 0.5022
C28 C 0.1517(7) 0.6700(6) 0.5037(3)
H40 H 0.1496 0.6383 0.5528
C29 C 0.4065(6) 0.9311(6) 0.4325(3)
H41 H 0.3628 0.9814 0.4604
C30 C 0.4717(6) 0.8152(6) 0.4653(3)
H42 H 0.4691 0.7891 0.5149
C31 C 0.2799(9) 1.2269(6) 0.3719(4)
H43 H 0.2268 1.3042 0.3479
H44 H 0.3687 1.2343 0.3862
H45 H 0.2338 1.1945 0.4136
C32 C 0.3916(8) 1.1834(7) 0.2273(4)
H46 H 0.3396 1.2603 0.2019
H47 H 0.4011 1.1289 0.1967
H48 H 0.4809 1.1905 0.2410
N2A N 0.7546(5) 0.3899(5) 0.5345(3)
C6A C 0.7508(6) 0.3389(5) 0.6038(3)
H5A H 0.6853 0.3761 0.6307
C7A C 0.8391(6) 0.2335(5) 0.6381(3)
H6A H 0.8312 0.2016 0.6868
C8A C 0.9401(6) 0.1743(5) 0.6003(3)
Ag2A Ag 0.36775(5) 0.44115(4) 0.51822(3)
Si3A Si 0.69973(18) -0.12557(15) 0.69023(9)
Si4A Si 1.06629(16) 0.03116(14) 0.64365(8)
N4A N 0.4616(5) 0.2609(5) 0.5714(3)
C20A C 0.4592(7) 0.2205(6) 0.6423(3)
H27A H 0.4114 0.2719 0.6685
C21A C 0.5233(7) 0.1074(6) 0.6787(3)
H28A H 0.5192 0.0844 0.7284
C22A C 0.5948(6) 0.0263(5) 0.6414(3)
C23A C 0.8705(6) -0.0990(6) 0.7146(3)
H29A H 0.9128 -0.1629 0.7550
H30A H 0.8547 -0.0248 0.7298
C24A C 0.9706(7) -0.0922(6) 0.6534(3)
H31A H 1.0369 -0.1679 0.6613
H32A H 0.9199 -0.0811 0.6086
C25A C 1.1336(7) 0.0495(7) 0.7286(3)
H33A H 1.1800 0.1143 0.7185
H34A H 1.0589 0.0666 0.7592
H35A H 1.1967 -0.0229 0.7523
C26A C 1.2077(7) 0.0073(6) 0.5811(4)
H36A H 1.2571 0.0698 0.5758
H37A H 1.2689 -0.0686 0.6001
H38A H 1.1698 0.0085 0.5351
C27A C 0.9389(7) 0.2261(6) 0.5265(3)
H39A H 1.0007 0.1890 0.4978
C28A C 0.8483(7) 0.3300(6) 0.4963(3)
H40A H 0.8504 0.3617 0.4472
C29A C 0.5935(6) 0.0689(6) 0.5675(3)
H41A H 0.6372 0.0186 0.5396
C30A C 0.5283(6) 0.1848(6) 0.5347(3)
H42A H 0.5309 0.2109 0.4851
C31A C 0.7201(9) -0.2269(6) 0.6281(4)
H43A H 0.7732 -0.3042 0.6521
H44A H 0.6313 -0.2343 0.6138
H45A H 0.7662 -0.1945 0.5864
C32A C 0.6084(8) -0.1834(7) 0.7727(4)
H46A H 0.6604 -0.2603 0.7981
H47A H 0.5989 -0.1289 0.8033
H48A H 0.5191 -0.1905 0.7590
Cl1 Cl 0.77085(13) 0.04597(11) 0.88287(7)
O1 O 0.7925(5) 0.1067(4) 0.9371(2)
O2 O 0.6480(5) 0.0044(5) 0.8959(3)
O3 O 0.7605(7) 0.1267(5) 0.8136(3)
O4 O 0.8821(5) -0.0532(5) 0.8858(3)
Cl2 Cl 0.41697(14) 0.58063(13) 0.66524(7)
O5 O 0.3353(7) 0.5007(6) 0.6602(3)
O6 O 0.5196(7) 0.5767(5) 0.6138(3)
O7 O 0.3340(8) 0.6980(5) 0.6503(4)
O8 O 0.4764(7) 0.5497(8) 0.7348(3)
loop_
_geom_bond_atom_site_label_1
_geom_bond_atom_site_label_2
_geom_bond_site_symmetry_1
_geom_bond_site_symmetry_2
C1 H1 1_555 1_555
C2 C1 1_555 1_555
H2 C2 1_555 1_555
N1 C1 1_555 1_555
C3 N1 1_555 1_555
H3 C3 1_555 1_555
C4 C3 1_555 1_555
H4 C4 1_555 1_555
C5 C2 1_555 1_555
N2 C6 1_555 1_555
C6 H5 1_555 1_555
C7 C6 1_555 1_555
H6 C7 1_555 1_555
C8 C7 1_555 1_555
Ag1 N3 1_555 1_555
Ag2 N4 1_555 1_555
Cl1 O1 1_555 1_555
Cl2 O5 1_555 1_555
Si1 C11 1_555 1_555
Si2 C5 1_555 1_555
Si3 C22 1_555 1_555
Si4 C8 1_555 1_555
O2 Cl1 1_555 1_555
O3 Cl1 1_555 1_555
O4 Cl1 1_555 1_555
O6 Cl2 1_555 1_555
O7 Cl2 1_555 1_555
O8 Cl2 1_555 1_555
N3 C9 1_555 1_555
N4 C20 1_555 1_555
C9 H7 1_555 1_555
C10 C9 1_555 1_555
H8 C10 1_555 1_555
C11 C10 1_555 1_555
C12 Si1 1_555 1_555
H9 C12 1_555 1_555
H10 C12 1_555 1_555
H11 C12 1_555 1_555
C13 Si1 1_555 1_555
H12 C13 1_555 1_555
H13 C13 1_555 1_555
C14 Si2 1_555 1_555
H14 C14 1_555 1_555
H15 C14 1_555 1_555
C15 Si2 1_555 1_555
H16 C15 1_555 1_555
H17 C15 1_555 1_555
H18 C15 1_555 1_555
C16 Si2 1_555 1_555
H19 C16 1_555 1_555
H20 C16 1_555 1_555
H21 C16 1_555 1_555
C17 Si1 1_555 1_555
H22 C17 1_555 1_555
H23 C17 1_555 1_555
H24 C17 1_555 1_555
C18 C11 1_555 1_555
H25 C18 1_555 1_555
C19 N3 1_555 1_555
H26 C19 1_555 1_555
C20 H27 1_555 1_555
C21 C20 1_555 1_555
H28 C21 1_555 1_555
C22 C21 1_555 1_555
C23 Si3 1_555 1_555
H29 C23 1_555 1_555
H30 C23 1_555 1_555
C24 Si4 1_555 1_555
H31 C24 1_555 1_555
H32 C24 1_555 1_555
C25 Si4 1_555 1_555
H33 C25 1_555 1_555
H34 C25 1_555 1_555
H35 C25 1_555 1_555
C26 Si4 1_555 1_555
H36 C26 1_555 1_555
H37 C26 1_555 1_555
H38 C26 1_555 1_555
C27 C8 1_555 1_555
H39 C27 1_555 1_555
C28 N2 1_555 1_555
H40 C28 1_555 1_555
C29 C22 1_555 1_555
H41 C29 1_555 1_555
C30 N4 1_555 1_555
H42 C30 1_555 1_555
C31 Si3 1_555 1_555
H43 C31 1_555 1_555
H44 C31 1_555 1_555
H45 C31 1_555 1_555
C32 Si3 1_555 1_555
H46 C32 1_555 1_555
H47 C32 1_555 1_555
H48 C32 1_555 1_555
C1A H1A 1_555 1_555
C2A C1A 1_555 1_555
H2A C2A 1_555 1_555
N1A Ag1 1_555 1_555
C3A N1A 1_555 1_555
H3A C3A 1_555 1_555
C4A C3A 1_555 1_555
H4A C4A 1_555 1_555
C5A C2A 1_555 1_555
N2A Ag2 1_555 1_555
C6A N2A 1_555 1_555
H5A C6A 1_555 1_555
C7A C6A 1_555 1_555
H6A C7A 1_555 1_555
C8A C7A 1_555 1_555
Ag1A N1 1_555 1_555
Ag2A N2 1_555 1_555
Si1A C11A 1_555 1_555
Si2A C5A 1_555 1_555
Si3A C22A 1_555 1_555
Si4A C8A 1_555 1_555
N3A Ag1A 1_555 1_555
N4A Ag2A 1_555 1_555
C9A N3A 1_555 1_555
H7A C9A 1_555 1_555
C10A C9A 1_555 1_555
H8A C10A 1_555 1_555
C11A C10A 1_555 1_555
C12A Si1A 1_555 1_555
H9A C12A 1_555 1_555
H10A C12A 1_555 1_555
H11A C12A 1_555 1_555
C13A Si1A 1_555 1_555
H12A C13A 1_555 1_555
H13A C13A 1_555 1_555
C14A Si2A 1_555 1_555
H14A C14A 1_555 1_555
H15A C14A 1_555 1_555
C15A Si2A 1_555 1_555
H16A C15A 1_555 1_555
H17A C15A 1_555 1_555
H18A C15A 1_555 1_555
C16A Si2A 1_555 1_555
H19A C16A 1_555 1_555
H20A C16A 1_555 1_555
H21A C16A 1_555 1_555
C17A Si1A 1_555 1_555
H22A C17A 1_555 1_555
H23A C17A 1_555 1_555
H24A C17A 1_555 1_555
C18A C11A 1_555 1_555
H25A C18A 1_555 1_555
C19A N3A 1_555 1_555
H26A C19A 1_555 1_555
C20A N4A 1_555 1_555
H27A C20A 1_555 1_555
C21A C20A 1_555 1_555
H28A C21A 1_555 1_555
C22A C21A 1_555 1_555
C23A Si3A 1_555 1_555
H29A C23A 1_555 1_555
H30A C23A 1_555 1_555
C24A Si4A 1_555 1_555
H31A C24A 1_555 1_555
H32A C24A 1_555 1_555
C25A Si4A 1_555 1_555
H33A C25A 1_555 1_555
H34A C25A 1_555 1_555
H35A C25A 1_555 1_555
C26A Si4A 1_555 1_555
H36A C26A 1_555 1_555
H37A C26A 1_555 1_555
H38A C26A 1_555 1_555
C27A C8A 1_555 1_555
H39A C27A 1_555 1_555
C28A N2A 1_555 1_555
H40A C28A 1_555 1_555
C29A C22A 1_555 1_555
H41A C29A 1_555 1_555
C30A N4A 1_555 1_555
H42A C30A 1_555 1_555
C31A Si3A 1_555 1_555
H43A C31A 1_555 1_555
H44A C31A 1_555 1_555
H45A C31A 1_555 1_555
C32A Si3A 1_555 1_555
H46A C32A 1_555 1_555
H47A C32A 1_555 1_555
H48A C32A 1_555 1_555
C4 C5 1_555 1_555
C13 C14 1_555 1_555
C18 C19 1_555 1_555
C23 C24 1_555 1_555
C27 C28 1_555 1_555
C29 C30 1_555 1_555
C1A N1A 1_555 1_555
C4A C5A 1_555 1_555
C13A C14A 1_555 1_555
C18A C19A 1_555 1_555
C23A C24A 1_555 1_555
C27A C28A 1_555 1_555
C29A C30A 1_555 1_555

#END
