# generated using pymatgen
data_Zn8H228C276N84Cl16O71
_symmetry_space_group_name_H-M   'P 1'
_cell_length_a   20.53700000
_cell_length_b   21.10600000
_cell_length_c   46.14700000
_cell_angle_alpha   90.00000000
_cell_angle_beta   90.00000000
_cell_angle_gamma   115.94200000
_symmetry_Int_Tables_number   1
_chemical_formula_structural   Zn8H228C276N84Cl16O71
_chemical_formula_sum   'Zn16 H456 C552 N168 Cl32 O142'
_cell_volume   17987.08324046
_cell_formula_units_Z   2
loop_
 _symmetry_equiv_pos_site_id
 _symmetry_equiv_pos_as_xyz
  1  'x, y, z'
loop_
 _atom_site_type_symbol
 _atom_site_label
 _atom_site_symmetry_multiplicity
 _atom_site_fract_x
 _atom_site_fract_y
 _atom_site_fract_z
 _atom_site_occupancy
  Zn  Zn1  1  0.322160  0.721050  0.918430  1.0
  Zn  Zn2  1  0.322160  0.721050  0.581570  1.0
  Zn  Zn3  1  0.677840  0.278950  0.081570  1.0
  Zn  Zn4  1  0.677840  0.278950  0.418430  1.0
  Zn  Zn5  1  0.194300  0.200080  0.903290  1.0
  Zn  Zn6  1  0.194300  0.200080  0.596710  1.0
  Zn  Zn7  1  0.805700  0.799920  0.096710  1.0
  Zn  Zn8  1  0.805700  0.799920  0.403290  1.0
  Zn  Zn9  1  0.194190  0.281200  0.117880  1.0
  Zn  Zn10  1  0.194190  0.281200  0.382120  1.0
  Zn  Zn11  1  0.805810  0.718800  0.882120  1.0
  Zn  Zn12  1  0.805810  0.718800  0.617880  1.0
  Zn  Zn13  1  0.323950  0.783410  0.129420  1.0
  Zn  Zn14  1  0.323950  0.783410  0.370580  1.0
  Zn  Zn15  1  0.676050  0.216590  0.870580  1.0
  Zn  Zn16  1  0.676050  0.216590  0.629420  1.0
  H  H17  1  0.081700  0.597900  0.166900  1.0
  H  H18  1  0.081700  0.597900  0.333100  1.0
  H  H19  1  0.918300  0.402100  0.833100  1.0
  H  H20  1  0.918300  0.402100  0.666900  1.0
  H  H21  1  0.103400  0.630200  0.212300  1.0
  H  H22  1  0.103400  0.630200  0.287700  1.0
  H  H23  1  0.896600  0.369800  0.787700  1.0
  H  H24  1  0.896600  0.369800  0.712300  1.0
  H  H25  1  0.196400  0.740800  0.229600  1.0
  H  H26  1  0.196400  0.740800  0.270400  1.0
  H  H27  1  0.803600  0.259200  0.770400  1.0
  H  H28  1  0.803600  0.259200  0.729600  1.0
  H  H29  1  0.295300  0.802500  0.193600  1.0
  H  H30  1  0.295300  0.802500  0.306400  1.0
  H  H31  1  0.704700  0.197500  0.806400  1.0
  H  H32  1  0.704700  0.197500  0.693600  1.0
  H  H33  1  0.266800  0.643400  0.045300  1.0
  H  H34  1  0.266800  0.643400  0.454700  1.0
  H  H35  1  0.733200  0.356600  0.954700  1.0
  H  H36  1  0.733200  0.356600  0.545300  1.0
  H  H37  1  0.322600  0.703600  0.064600  1.0
  H  H38  1  0.322600  0.703600  0.435400  1.0
  H  H39  1  0.677400  0.296400  0.935400  1.0
  H  H40  1  0.677400  0.296400  0.564600  1.0
  H  H41  1  0.138100  0.579300  0.064300  1.0
  H  H42  1  0.138100  0.579300  0.435700  1.0
  H  H43  1  0.861900  0.420700  0.935700  1.0
  H  H44  1  0.861900  0.420700  0.564300  1.0
  H  H45  1  0.079100  0.570100  0.111500  1.0
  H  H46  1  0.079100  0.570100  0.388500  1.0
  H  H47  1  0.920900  0.429900  0.888500  1.0
  H  H48  1  0.920900  0.429900  0.611500  1.0
  H  H49  1  0.165700  0.728000  0.052900  1.0
  H  H50  1  0.165700  0.728000  0.447100  1.0
  H  H51  1  0.834300  0.272000  0.947100  1.0
  H  H52  1  0.834300  0.272000  0.552900  1.0
  H  H53  1  0.156100  0.806800  0.020400  1.0
  H  H54  1  0.156100  0.806800  0.479600  1.0
  H  H55  1  0.843900  0.193200  0.979600  1.0
  H  H56  1  0.843900  0.193200  0.520400  1.0
  H  H57  1  0.250100  0.862100  0.986700  1.0
  H  H58  1  0.250100  0.862100  0.513300  1.0
  H  H59  1  0.749900  0.137900  0.013300  1.0
  H  H60  1  0.749900  0.137900  0.486700  1.0
  H  H61  1  0.413300  0.890100  0.989300  1.0
  H  H62  1  0.413300  0.890100  0.510700  1.0
  H  H63  1  0.586700  0.109900  0.010700  1.0
  H  H64  1  0.586700  0.109900  0.489300  1.0
  H  H65  1  0.393900  0.815100  0.976500  1.0
  H  H66  1  0.393900  0.815100  0.523500  1.0
  H  H67  1  0.606100  0.184900  0.023500  1.0
  H  H68  1  0.606100  0.184900  0.476500  1.0
  H  H69  1  0.321000  0.960900  0.910300  1.0
  H  H70  1  0.321000  0.960900  0.589700  1.0
  H  H71  1  0.679000  0.039100  0.089700  1.0
  H  H72  1  0.679000  0.039100  0.410300  1.0
  H  H73  1  0.373900  0.973900  0.957900  1.0
  H  H74  1  0.373900  0.973900  0.542100  1.0
  H  H75  1  0.626100  0.026100  0.042100  1.0
  H  H76  1  0.626100  0.026100  0.457900  1.0
  H  H77  1  0.258100  0.890400  0.864000  1.0
  H  H78  1  0.258100  0.890400  0.636000  1.0
  H  H79  1  0.741900  0.109600  0.136000  1.0
  H  H80  1  0.741900  0.109600  0.364000  1.0
  H  H81  1  0.194600  0.822900  0.826400  1.0
  H  H82  1  0.194600  0.822900  0.673600  1.0
  H  H83  1  0.805400  0.177100  0.173600  1.0
  H  H84  1  0.805400  0.177100  0.326400  1.0
  H  H85  1  0.184800  0.707800  0.821600  1.0
  H  H86  1  0.184800  0.707800  0.678400  1.0
  H  H87  1  0.815200  0.292200  0.178400  1.0
  H  H88  1  0.815200  0.292200  0.321600  1.0
  H  H89  1  0.236400  0.667900  0.859800  1.0
  H  H90  1  0.236400  0.667900  0.640200  1.0
  H  H91  1  0.763600  0.332100  0.140200  1.0
  H  H92  1  0.763600  0.332100  0.359800  1.0
  H  H93  1  0.525000  0.880600  0.200400  1.0
  H  H94  1  0.525000  0.880600  0.299600  1.0
  H  H95  1  0.475000  0.119400  0.799600  1.0
  H  H96  1  0.475000  0.119400  0.700400  1.0
  H  H97  1  0.534500  0.995800  0.205900  1.0
  H  H98  1  0.534500  0.995800  0.294100  1.0
  H  H99  1  0.465500  0.004200  0.794100  1.0
  H  H100  1  0.465500  0.004200  0.705900  1.0
  H  H101  1  0.446900  0.022400  0.181800  1.0
  H  H102  1  0.446900  0.022400  0.318200  1.0
  H  H103  1  0.553100  0.977600  0.818200  1.0
  H  H104  1  0.553100  0.977600  0.681800  1.0
  H  H105  1  0.361400  0.936800  0.153000  1.0
  H  H106  1  0.361400  0.936800  0.347000  1.0
  H  H107  1  0.638600  0.063200  0.847000  1.0
  H  H108  1  0.638600  0.063200  0.653000  1.0
  H  H109  1  0.383200  0.595000  0.123000  1.0
  H  H110  1  0.383200  0.595000  0.377000  1.0
  H  H111  1  0.616800  0.405000  0.877000  1.0
  H  H112  1  0.616800  0.405000  0.623000  1.0
  H  H113  1  0.345400  0.639400  0.110600  1.0
  H  H114  1  0.345400  0.639400  0.389400  1.0
  H  H115  1  0.654600  0.360600  0.889400  1.0
  H  H116  1  0.654600  0.360600  0.610600  1.0
  H  H117  1  0.462200  0.643800  0.169300  1.0
  H  H118  1  0.462200  0.643800  0.330700  1.0
  H  H119  1  0.537800  0.356200  0.830700  1.0
  H  H120  1  0.537800  0.356200  0.669300  1.0
  H  H121  1  0.509300  0.756300  0.194100  1.0
  H  H122  1  0.509300  0.756300  0.305900  1.0
  H  H123  1  0.490700  0.243700  0.805900  1.0
  H  H124  1  0.490700  0.243700  0.694100  1.0
  H  H125  1  0.303400  0.600600  0.183000  1.0
  H  H126  1  0.303400  0.600600  0.317000  1.0
  H  H127  1  0.696600  0.399400  0.817000  1.0
  H  H128  1  0.696600  0.399400  0.683000  1.0
  H  H129  1  0.191700  0.518600  0.198700  1.0
  H  H130  1  0.191700  0.518600  0.301300  1.0
  H  H131  1  0.808300  0.481400  0.801300  1.0
  H  H132  1  0.808300  0.481400  0.698700  1.0
  H  H133  1  0.117300  0.430900  0.164200  1.0
  H  H134  1  0.117300  0.430900  0.335800  1.0
  H  H135  1  0.882700  0.569100  0.835800  1.0
  H  H136  1  0.882700  0.569100  0.664200  1.0
  H  H137  1  0.097200  0.443500  0.101000  1.0
  H  H138  1  0.097200  0.443500  0.399000  1.0
  H  H139  1  0.902800  0.556500  0.899000  1.0
  H  H140  1  0.902800  0.556500  0.601000  1.0
  H  H141  1  0.155100  0.416500  0.093500  1.0
  H  H142  1  0.155100  0.416500  0.406500  1.0
  H  H143  1  0.844900  0.583500  0.906500  1.0
  H  H144  1  0.844900  0.583500  0.593500  1.0
  H  H145  1  0.982300  0.356600  0.125600  1.0
  H  H146  1  0.982300  0.356600  0.374400  1.0
  H  H147  1  0.017700  0.643400  0.874400  1.0
  H  H148  1  0.017700  0.643400  0.625600  1.0
  H  H149  1  0.951400  0.244100  0.153300  1.0
  H  H150  1  0.951400  0.244100  0.346700  1.0
  H  H151  1  0.048600  0.755900  0.846700  1.0
  H  H152  1  0.048600  0.755900  0.653300  1.0
  H  H153  1  0.974700  0.159400  0.181700  1.0
  H  H154  1  0.974700  0.159400  0.318300  1.0
  H  H155  1  0.025300  0.840600  0.818300  1.0
  H  H156  1  0.025300  0.840600  0.681700  1.0
  H  H157  1  0.012400  0.079000  0.203800  1.0
  H  H158  1  0.012400  0.079000  0.296200  1.0
  H  H159  1  0.987600  0.921000  0.796200  1.0
  H  H160  1  0.987600  0.921000  0.703800  1.0
  H  H161  1  0.121400  0.078600  0.192100  1.0
  H  H162  1  0.121400  0.078600  0.307900  1.0
  H  H163  1  0.878600  0.921400  0.807900  1.0
  H  H164  1  0.878600  0.921400  0.692100  1.0
  H  H165  1  0.192300  0.151100  0.156100  1.0
  H  H166  1  0.192300  0.151100  0.343900  1.0
  H  H167  1  0.807700  0.848900  0.843900  1.0
  H  H168  1  0.807700  0.848900  0.656100  1.0
  H  H169  1  0.331200  0.105900  0.965000  1.0
  H  H170  1  0.331200  0.105900  0.535000  1.0
  H  H171  1  0.668800  0.894100  0.035000  1.0
  H  H172  1  0.668800  0.894100  0.465000  1.0
  H  H173  1  0.244500  0.987700  0.963100  1.0
  H  H174  1  0.244500  0.987700  0.536900  1.0
  H  H175  1  0.755500  0.012300  0.036900  1.0
  H  H176  1  0.755500  0.012300  0.463100  1.0
  H  H177  1  0.152900  0.952400  0.931000  1.0
  H  H178  1  0.152900  0.952400  0.569000  1.0
  H  H179  1  0.847100  0.047600  0.069000  1.0
  H  H180  1  0.847100  0.047600  0.431000  1.0
  H  H181  1  0.128700  0.034900  0.908700  1.0
  H  H182  1  0.128700  0.034900  0.591300  1.0
  H  H183  1  0.871300  0.965100  0.091300  1.0
  H  H184  1  0.871300  0.965100  0.408700  1.0
  H  H185  1  0.339300  0.373600  0.895400  1.0
  H  H186  1  0.339300  0.373600  0.604600  1.0
  H  H187  1  0.660700  0.626400  0.104600  1.0
  H  H188  1  0.660700  0.626400  0.395400  1.0
  H  H189  1  0.399200  0.423300  0.916800  1.0
  H  H190  1  0.399200  0.423300  0.583200  1.0
  H  H191  1  0.600800  0.576700  0.083200  1.0
  H  H192  1  0.600800  0.576700  0.416800  1.0
  H  H193  1  0.438900  0.365200  0.957500  1.0
  H  H194  1  0.438900  0.365200  0.542500  1.0
  H  H195  1  0.561100  0.634800  0.042500  1.0
  H  H196  1  0.561100  0.634800  0.457500  1.0
  H  H197  1  0.399800  0.237800  0.972400  1.0
  H  H198  1  0.399800  0.237800  0.527600  1.0
  H  H199  1  0.600200  0.762200  0.027600  1.0
  H  H200  1  0.600200  0.762200  0.472400  1.0
  H  H201  1  0.269700  0.353400  0.966600  1.0
  H  H202  1  0.269700  0.353400  0.533400  1.0
  H  H203  1  0.730300  0.646600  0.033400  1.0
  H  H204  1  0.730300  0.646600  0.466600  1.0
  H  H205  1  0.184300  0.387500  0.980600  1.0
  H  H206  1  0.184300  0.387500  0.519400  1.0
  H  H207  1  0.815700  0.612500  0.019400  1.0
  H  H208  1  0.815700  0.612500  0.480600  1.0
  H  H209  1  0.169200  0.471800  0.953500  1.0
  H  H210  1  0.169200  0.471800  0.546500  1.0
  H  H211  1  0.830800  0.528200  0.046500  1.0
  H  H212  1  0.830800  0.528200  0.453500  1.0
  H  H213  1  0.179500  0.496300  0.890300  1.0
  H  H214  1  0.179500  0.496300  0.609700  1.0
  H  H215  1  0.820500  0.503700  0.109700  1.0
  H  H216  1  0.820500  0.503700  0.390300  1.0
  H  H217  1  0.206700  0.554700  0.914300  1.0
  H  H218  1  0.206700  0.554700  0.585700  1.0
  H  H219  1  0.793300  0.445300  0.085700  1.0
  H  H220  1  0.793300  0.445300  0.414300  1.0
  H  H221  1  0.279900  0.503900  0.850700  1.0
  H  H222  1  0.279900  0.503900  0.649300  1.0
  H  H223  1  0.720100  0.496100  0.149300  1.0
  H  H224  1  0.720100  0.496100  0.350700  1.0
  H  H225  1  0.388900  0.612400  0.831800  1.0
  H  H226  1  0.388900  0.612400  0.668200  1.0
  H  H227  1  0.611100  0.387600  0.168200  1.0
  H  H228  1  0.611100  0.387600  0.331800  1.0
  H  H229  1  0.476200  0.742200  0.831700  1.0
  H  H230  1  0.476200  0.742200  0.668300  1.0
  H  H231  1  0.523800  0.257800  0.168300  1.0
  H  H232  1  0.523800  0.257800  0.331700  1.0
  H  H233  1  0.560500  0.921200  0.880100  1.0
  H  H234  1  0.560500  0.921200  0.619900  1.0
  H  H235  1  0.439500  0.078800  0.119900  1.0
  H  H236  1  0.439500  0.078800  0.380100  1.0
  H  H237  1  0.561400  0.860900  0.839000  1.0
  H  H238  1  0.561400  0.860900  0.661000  1.0
  H  H239  1  0.438600  0.139100  0.161000  1.0
  H  H240  1  0.438600  0.139100  0.339000  1.0
  H  H241  1  0.465000  0.861900  0.913600  1.0
  H  H242  1  0.465000  0.861900  0.586400  1.0
  H  H243  1  0.535000  0.138100  0.086400  1.0
  H  H244  1  0.535000  0.138100  0.413600  1.0
  H  H245  1  0.055300  0.341100  0.897400  1.0
  H  H246  1  0.055300  0.341100  0.602600  1.0
  H  H247  1  0.944700  0.658900  0.102600  1.0
  H  H248  1  0.944700  0.658900  0.397400  1.0
  H  H249  1  0.096800  0.395900  0.853400  1.0
  H  H250  1  0.096800  0.395900  0.646600  1.0
  H  H251  1  0.903200  0.604100  0.146600  1.0
  H  H252  1  0.903200  0.604100  0.353400  1.0
  H  H253  1  0.183600  0.377100  0.831100  1.0
  H  H254  1  0.183600  0.377100  0.668900  1.0
  H  H255  1  0.816400  0.622900  0.168900  1.0
  H  H256  1  0.816400  0.622900  0.331100  1.0
  H  H257  1  0.232500  0.311900  0.850800  1.0
  H  H258  1  0.232500  0.311900  0.649200  1.0
  H  H259  1  0.767500  0.688100  0.149200  1.0
  H  H260  1  0.767500  0.688100  0.350800  1.0
  H  H261  1  0.143300  0.125000  0.968600  1.0
  H  H262  1  0.143300  0.125000  0.531400  1.0
  H  H263  1  0.856700  0.875000  0.031400  1.0
  H  H264  1  0.856700  0.875000  0.468600  1.0
  H  H265  1  0.087400  0.118300  0.992900  1.0
  H  H266  1  0.087400  0.118300  0.507100  1.0
  H  H267  1  0.912600  0.881700  0.007100  1.0
  H  H268  1  0.912600  0.881700  0.492900  1.0
  H  H269  1  0.026300  0.214500  0.987000  1.0
  H  H270  1  0.026300  0.214500  0.513000  1.0
  H  H271  1  0.973700  0.785500  0.013000  1.0
  H  H272  1  0.973700  0.785500  0.487000  1.0
  H  H273  1  0.032800  0.294600  0.949800  1.0
  H  H274  1  0.032800  0.294600  0.550200  1.0
  H  H275  1  0.967200  0.705400  0.050200  1.0
  H  H276  1  0.967200  0.705400  0.449800  1.0
  H  H277  1  0.234500  0.124200  0.004300  1.0
  H  H278  1  0.234500  0.124200  0.495700  1.0
  H  H279  1  0.765500  0.875800  0.995700  1.0
  H  H280  1  0.765500  0.875800  0.504300  1.0
  H  H281  1  0.328700  0.194000  0.033200  1.0
  H  H282  1  0.328700  0.194000  0.466800  1.0
  H  H283  1  0.671300  0.806000  0.966800  1.0
  H  H284  1  0.671300  0.806000  0.533200  1.0
  H  H285  1  0.334100  0.299000  0.051900  1.0
  H  H286  1  0.334100  0.299000  0.448100  1.0
  H  H287  1  0.665900  0.701000  0.948100  1.0
  H  H288  1  0.665900  0.701000  0.551900  1.0
  H  H289  1  0.256000  0.391900  0.026500  1.0
  H  H290  1  0.256000  0.391900  0.473500  1.0
  H  H291  1  0.744000  0.608100  0.973500  1.0
  H  H292  1  0.744000  0.608100  0.526500  1.0
  H  H293  1  0.193700  0.345700  0.047700  1.0
  H  H294  1  0.193700  0.345700  0.452300  1.0
  H  H295  1  0.806300  0.654300  0.952300  1.0
  H  H296  1  0.806300  0.654300  0.547700  1.0
  H  H297  1  0.384400  0.470800  0.049500  1.0
  H  H298  1  0.384400  0.470800  0.450500  1.0
  H  H299  1  0.615600  0.529200  0.950500  1.0
  H  H300  1  0.615600  0.529200  0.549500  1.0
  H  H301  1  0.425500  0.496900  0.099200  1.0
  H  H302  1  0.425500  0.496900  0.400800  1.0
  H  H303  1  0.574500  0.503100  0.900800  1.0
  H  H304  1  0.574500  0.503100  0.599200  1.0
  H  H305  1  0.408300  0.497900  0.151700  1.0
  H  H306  1  0.408300  0.497900  0.348300  1.0
  H  H307  1  0.591700  0.502100  0.848300  1.0
  H  H308  1  0.591700  0.502100  0.651700  1.0
  H  H309  1  0.396000  0.483000  0.202200  1.0
  H  H310  1  0.396000  0.483000  0.297800  1.0
  H  H311  1  0.604000  0.517000  0.797800  1.0
  H  H312  1  0.604000  0.517000  0.702200  1.0
  H  H313  1  0.297600  0.378500  0.218000  1.0
  H  H314  1  0.297600  0.378500  0.282000  1.0
  H  H315  1  0.702400  0.621500  0.782000  1.0
  H  H316  1  0.702400  0.621500  0.718000  1.0
  H  H317  1  0.221200  0.298900  0.185200  1.0
  H  H318  1  0.221200  0.298900  0.314800  1.0
  H  H319  1  0.778800  0.701100  0.814800  1.0
  H  H320  1  0.778800  0.701100  0.685200  1.0
  H  H321  1  0.296900  0.954800  0.060800  1.0
  H  H322  1  0.296900  0.954800  0.439200  1.0
  H  H323  1  0.703100  0.045200  0.939200  1.0
  H  H324  1  0.703100  0.045200  0.560800  1.0
  H  H325  1  0.180000  0.939500  0.074600  1.0
  H  H326  1  0.180000  0.939500  0.425400  1.0
  H  H327  1  0.820000  0.060500  0.925400  1.0
  H  H328  1  0.820000  0.060500  0.574600  1.0
  H  H329  1  0.124200  0.868200  0.115900  1.0
  H  H330  1  0.124200  0.868200  0.384100  1.0
  H  H331  1  0.875800  0.131800  0.884100  1.0
  H  H332  1  0.875800  0.131800  0.615900  1.0
  H  H333  1  0.190700  0.813000  0.138400  1.0
  H  H334  1  0.190700  0.813000  0.361600  1.0
  H  H335  1  0.809300  0.187000  0.861600  1.0
  H  H336  1  0.809300  0.187000  0.638400  1.0
  H  H337  1  0.507700  0.908300  0.042700  1.0
  H  H338  1  0.507700  0.908300  0.457300  1.0
  H  H339  1  0.492300  0.091700  0.957300  1.0
  H  H340  1  0.492300  0.091700  0.542700  1.0
  H  H341  1  0.414300  0.952400  0.046000  1.0
  H  H342  1  0.414300  0.952400  0.454000  1.0
  H  H343  1  0.585700  0.047600  0.954000  1.0
  H  H344  1  0.585700  0.047600  0.546000  1.0
  H  H345  1  0.180300  0.573800  0.001000  1.0
  H  H346  1  0.180300  0.573800  0.499000  1.0
  H  H347  1  0.819700  0.426200  0.999000  1.0
  H  H348  1  0.819700  0.426200  0.501000  1.0
  H  H349  1  0.076500  0.587500  0.994100  1.0
  H  H350  1  0.076500  0.587500  0.505900  1.0
  H  H351  1  0.923500  0.412500  0.005900  1.0
  H  H352  1  0.923500  0.412500  0.494100  1.0
  H  H353  1  0.059800  0.642400  0.951300  1.0
  H  H354  1  0.059800  0.642400  0.548700  1.0
  H  H355  1  0.940200  0.357600  0.048700  1.0
  H  H356  1  0.940200  0.357600  0.451300  1.0
  H  H357  1  0.160900  0.699700  0.923200  1.0
  H  H358  1  0.160900  0.699700  0.576800  1.0
  H  H359  1  0.839100  0.300300  0.076800  1.0
  H  H360  1  0.839100  0.300300  0.423200  1.0
  H  H361  1  0.495100  0.760300  0.947900  1.0
  H  H362  1  0.495100  0.760300  0.552100  1.0
  H  H363  1  0.504900  0.239700  0.052100  1.0
  H  H364  1  0.504900  0.239700  0.447900  1.0
  H  H365  1  0.526200  0.718100  0.966700  1.0
  H  H366  1  0.526200  0.718100  0.533300  1.0
  H  H367  1  0.473800  0.281900  0.033300  1.0
  H  H368  1  0.473800  0.281900  0.466700  1.0
  H  H369  1  0.427900  0.607500  0.994500  1.0
  H  H370  1  0.427900  0.607500  0.505500  1.0
  H  H371  1  0.572100  0.392500  0.005500  1.0
  H  H372  1  0.572100  0.392500  0.494500  1.0
  H  H373  1  0.293700  0.566800  0.004700  1.0
  H  H374  1  0.293700  0.566800  0.495300  1.0
  H  H375  1  0.706300  0.433200  0.995300  1.0
  H  H376  1  0.706300  0.433200  0.504700  1.0
  H  H377  1  0.031800  0.085200  0.819100  1.0
  H  H378  1  0.031800  0.085200  0.680900  1.0
  H  H379  1  0.968200  0.914800  0.180900  1.0
  H  H380  1  0.968200  0.914800  0.319100  1.0
  H  H381  1  0.920400  0.025900  0.846000  1.0
  H  H382  1  0.920400  0.025900  0.654000  1.0
  H  H383  1  0.079600  0.974100  0.154000  1.0
  H  H384  1  0.079600  0.974100  0.346000  1.0
  H  H385  1  0.920500  0.036200  0.894200  1.0
  H  H386  1  0.920500  0.036200  0.605800  1.0
  H  H387  1  0.079500  0.963800  0.105800  1.0
  H  H388  1  0.079500  0.963800  0.394200  1.0
  H  H389  1  0.025000  0.101300  0.919600  1.0
  H  H390  1  0.025000  0.101300  0.580400  1.0
  H  H391  1  0.975000  0.898700  0.080400  1.0
  H  H392  1  0.975000  0.898700  0.419600  1.0
  H  H393  1  0.349700  0.270900  0.869000  1.0
  H  H394  1  0.349700  0.270900  0.631000  1.0
  H  H395  1  0.650300  0.729100  0.131000  1.0
  H  H396  1  0.650300  0.729100  0.369000  1.0
  H  H397  1  0.383000  0.268900  0.838700  1.0
  H  H398  1  0.383000  0.268900  0.661300  1.0
  H  H399  1  0.617000  0.731100  0.161300  1.0
  H  H400  1  0.617000  0.731100  0.338700  1.0
  H  H401  1  0.289100  0.210100  0.797600  1.0
  H  H402  1  0.289100  0.210100  0.702400  1.0
  H  H403  1  0.710900  0.789900  0.202400  1.0
  H  H404  1  0.710900  0.789900  0.297600  1.0
  H  H405  1  0.155600  0.148200  0.796800  1.0
  H  H406  1  0.155600  0.148200  0.703200  1.0
  H  H407  1  0.844400  0.851800  0.203200  1.0
  H  H408  1  0.844400  0.851800  0.296800  1.0
  H  H409  1  0.312100  0.104500  0.839300  1.0
  H  H410  1  0.312100  0.104500  0.660700  1.0
  H  H411  1  0.687900  0.895500  0.160700  1.0
  H  H412  1  0.687900  0.895500  0.339300  1.0
  H  H413  1  0.360000  0.029200  0.858200  1.0
  H  H414  1  0.360000  0.029200  0.641800  1.0
  H  H415  1  0.640000  0.970800  0.141800  1.0
  H  H416  1  0.640000  0.970800  0.358200  1.0
  H  H417  1  0.454300  0.075300  0.889500  1.0
  H  H418  1  0.454300  0.075300  0.610500  1.0
  H  H419  1  0.545700  0.924700  0.110500  1.0
  H  H420  1  0.545700  0.924700  0.389500  1.0
  H  H421  1  0.451000  0.752200  0.090800  1.0
  H  H422  1  0.451000  0.752200  0.409200  1.0
  H  H423  1  0.549000  0.247800  0.909200  1.0
  H  H424  1  0.549000  0.247800  0.590800  1.0
  H  H425  1  0.508200  0.789900  0.066600  1.0
  H  H426  1  0.508200  0.789900  0.433400  1.0
  H  H427  1  0.491800  0.210100  0.933400  1.0
  H  H428  1  0.491800  0.210100  0.566600  1.0
  H  H429  1  0.094400  0.064100  0.057100  1.0
  H  H430  1  0.094400  0.064100  0.442900  1.0
  H  H431  1  0.905600  0.935900  0.942900  1.0
  H  H432  1  0.905600  0.935900  0.557100  1.0
  H  H433  1  0.994500  0.072700  0.039700  1.0
  H  H434  1  0.994500  0.072700  0.460300  1.0
  H  H435  1  0.005500  0.927300  0.960300  1.0
  H  H436  1  0.005500  0.927300  0.539700  1.0
  H  H437  1  0.975000  0.173200  0.050400  1.0
  H  H438  1  0.975000  0.173200  0.449600  1.0
  H  H439  1  0.025000  0.826800  0.949600  1.0
  H  H440  1  0.025000  0.826800  0.550400  1.0
  H  H441  1  0.056700  0.259300  0.076500  1.0
  H  H442  1  0.056700  0.259300  0.423500  1.0
  H  H443  1  0.943300  0.740700  0.923500  1.0
  H  H444  1  0.943300  0.740700  0.576500  1.0
  H  H445  1  0.378200  0.219700  0.143000  1.0
  H  H446  1  0.378200  0.219700  0.357000  1.0
  H  H447  1  0.621800  0.780300  0.857000  1.0
  H  H448  1  0.621800  0.780300  0.643000  1.0
  H  H449  1  0.343700  0.272700  0.144300  1.0
  H  H450  1  0.343700  0.272700  0.355700  1.0
  H  H451  1  0.656300  0.727300  0.855700  1.0
  H  H452  1  0.656300  0.727300  0.644300  1.0
  H  H453  1  0.327600  0.118500  0.100500  1.0
  H  H454  1  0.327600  0.118500  0.399500  1.0
  H  H455  1  0.672400  0.881500  0.899500  1.0
  H  H456  1  0.672400  0.881500  0.600500  1.0
  H  H457  1  0.212600  0.073000  0.074600  1.0
  H  H458  1  0.212600  0.073000  0.425400  1.0
  H  H459  1  0.787400  0.927000  0.925400  1.0
  H  H460  1  0.787400  0.927000  0.574600  1.0
  H  H461  1  0.451300  0.379900  0.142400  1.0
  H  H462  1  0.451300  0.379900  0.357600  1.0
  H  H463  1  0.548700  0.620100  0.857600  1.0
  H  H464  1  0.548700  0.620100  0.642400  1.0
  H  H465  1  0.551400  0.456100  0.114800  1.0
  H  H466  1  0.551400  0.456100  0.385200  1.0
  H  H467  1  0.448600  0.543900  0.885200  1.0
  H  H468  1  0.448600  0.543900  0.614800  1.0
  H  H469  1  0.580000  0.416200  0.072600  1.0
  H  H470  1  0.580000  0.416200  0.427400  1.0
  H  H471  1  0.420000  0.583800  0.927400  1.0
  H  H472  1  0.420000  0.583800  0.572600  1.0
  C  C473  1  0.187600  0.680100  0.154900  1.0
  C  C474  1  0.187600  0.680100  0.345100  1.0
  C  C475  1  0.812400  0.319900  0.845100  1.0
  C  C476  1  0.812400  0.319900  0.654900  1.0
  C  C477  1  0.123600  0.635900  0.173300  1.0
  C  C478  1  0.123600  0.635900  0.326700  1.0
  C  C479  1  0.876400  0.364100  0.826700  1.0
  C  C480  1  0.876400  0.364100  0.673300  1.0
  C  C481  1  0.136000  0.659000  0.198600  1.0
  C  C482  1  0.136000  0.659000  0.301400  1.0
  C  C483  1  0.864000  0.341000  0.801400  1.0
  C  C484  1  0.864000  0.341000  0.698600  1.0
  C  C485  1  0.196000  0.725000  0.210700  1.0
  C  C486  1  0.196000  0.725000  0.289300  1.0
  C  C487  1  0.804000  0.275000  0.789300  1.0
  C  C488  1  0.804000  0.275000  0.710700  1.0
  C  C489  1  0.254200  0.762000  0.188800  1.0
  C  C490  1  0.254200  0.762000  0.311200  1.0
  C  C491  1  0.745800  0.238000  0.811200  1.0
  C  C492  1  0.745800  0.238000  0.688800  1.0
  C  C493  1  0.273400  0.683500  0.057300  1.0
  C  C494  1  0.273400  0.683500  0.442700  1.0
  C  C495  1  0.726600  0.316500  0.942700  1.0
  C  C496  1  0.726600  0.316500  0.557300  1.0
  C  C497  1  0.159000  0.607500  0.080300  1.0
  C  C498  1  0.159000  0.607500  0.419700  1.0
  C  C499  1  0.841000  0.392500  0.919700  1.0
  C  C500  1  0.841000  0.392500  0.580300  1.0
  C  C501  1  0.125900  0.601300  0.106200  1.0
  C  C502  1  0.125900  0.601300  0.393800  1.0
  C  C503  1  0.874100  0.398700  0.893800  1.0
  C  C504  1  0.874100  0.398700  0.606200  1.0
  C  C505  1  0.183200  0.657000  0.124100  1.0
  C  C506  1  0.183200  0.657000  0.375900  1.0
  C  C507  1  0.816800  0.343000  0.875900  1.0
  C  C508  1  0.816800  0.343000  0.624100  1.0
  C  C509  1  0.264200  0.738100  0.038400  1.0
  C  C510  1  0.264200  0.738100  0.461600  1.0
  C  C511  1  0.735800  0.261900  0.961600  1.0
  C  C512  1  0.735800  0.261900  0.538400  1.0
  C  C513  1  0.202100  0.751000  0.039400  1.0
  C  C514  1  0.202100  0.751000  0.460600  1.0
  C  C515  1  0.797900  0.249000  0.960600  1.0
  C  C516  1  0.797900  0.249000  0.539400  1.0
  C  C517  1  0.196300  0.797400  0.020300  1.0
  C  C518  1  0.196300  0.797400  0.479700  1.0
  C  C519  1  0.803700  0.202600  0.979700  1.0
  C  C520  1  0.803700  0.202600  0.520300  1.0
  C  C521  1  0.253100  0.830800  0.000200  1.0
  C  C522  1  0.253100  0.830800  0.499800  1.0
  C  C523  1  0.746900  0.169200  0.999800  1.0
  C  C524  1  0.746900  0.169200  0.500200  1.0
  C  C525  1  0.310700  0.817800  0.000300  1.0
  C  C526  1  0.310700  0.817800  0.499700  1.0
  C  C527  1  0.689300  0.182200  0.999700  1.0
  C  C528  1  0.689300  0.182200  0.500300  1.0
  C  C529  1  0.375300  0.849500  0.980000  1.0
  C  C530  1  0.375300  0.849500  0.520000  1.0
  C  C531  1  0.624700  0.150500  0.020000  1.0
  C  C532  1  0.624700  0.150500  0.480000  1.0
  C  C533  1  0.327700  0.926300  0.920600  1.0
  C  C534  1  0.327700  0.926300  0.579400  1.0
  C  C535  1  0.672300  0.073700  0.079400  1.0
  C  C536  1  0.672300  0.073700  0.420600  1.0
  C  C537  1  0.307900  0.855400  0.910800  1.0
  C  C538  1  0.307900  0.855400  0.589200  1.0
  C  C539  1  0.692100  0.144600  0.089200  1.0
  C  C540  1  0.692100  0.144600  0.410800  1.0
  C  C541  1  0.356900  0.933700  0.946400  1.0
  C  C542  1  0.356900  0.933700  0.553600  1.0
  C  C543  1  0.643100  0.066300  0.053600  1.0
  C  C544  1  0.643100  0.066300  0.446400  1.0
  C  C545  1  0.276300  0.817100  0.884600  1.0
  C  C546  1  0.276300  0.817100  0.615400  1.0
  C  C547  1  0.723700  0.182900  0.115400  1.0
  C  C548  1  0.723700  0.182900  0.384600  1.0
  C  C549  1  0.250500  0.843600  0.863000  1.0
  C  C550  1  0.250500  0.843600  0.637000  1.0
  C  C551  1  0.749500  0.156400  0.137000  1.0
  C  C552  1  0.749500  0.156400  0.363000  1.0
  C  C553  1  0.214700  0.804500  0.840300  1.0
  C  C554  1  0.214700  0.804500  0.659700  1.0
  C  C555  1  0.785300  0.195500  0.159700  1.0
  C  C556  1  0.785300  0.195500  0.340300  1.0
  C  C557  1  0.207500  0.736200  0.837400  1.0
  C  C558  1  0.207500  0.736200  0.662600  1.0
  C  C559  1  0.792500  0.263800  0.162600  1.0
  C  C560  1  0.792500  0.263800  0.337400  1.0
  C  C561  1  0.238100  0.712600  0.860900  1.0
  C  C562  1  0.238100  0.712600  0.639100  1.0
  C  C563  1  0.761900  0.287400  0.139100  1.0
  C  C564  1  0.761900  0.287400  0.360900  1.0
  C  C565  1  0.439800  0.847800  0.173700  1.0
  C  C566  1  0.439800  0.847800  0.326300  1.0
  C  C567  1  0.560200  0.152200  0.826300  1.0
  C  C568  1  0.560200  0.152200  0.673700  1.0
  C  C569  1  0.492900  0.894000  0.191000  1.0
  C  C570  1  0.492900  0.894000  0.309000  1.0
  C  C571  1  0.507100  0.106000  0.809000  1.0
  C  C572  1  0.507100  0.106000  0.691000  1.0
  C  C573  1  0.498400  0.962400  0.194400  1.0
  C  C574  1  0.498400  0.962400  0.305600  1.0
  C  C575  1  0.501600  0.037600  0.805600  1.0
  C  C576  1  0.501600  0.037600  0.694400  1.0
  C  C577  1  0.446800  0.978500  0.179800  1.0
  C  C578  1  0.446800  0.978500  0.320200  1.0
  C  C579  1  0.553200  0.021500  0.820200  1.0
  C  C580  1  0.553200  0.021500  0.679800  1.0
  C  C581  1  0.396100  0.927000  0.162300  1.0
  C  C582  1  0.396100  0.927000  0.337700  1.0
  C  C583  1  0.603900  0.073000  0.837700  1.0
  C  C584  1  0.603900  0.073000  0.662300  1.0
  C  C585  1  0.355800  0.620700  0.128300  1.0
  C  C586  1  0.355800  0.620700  0.371700  1.0
  C  C587  1  0.644200  0.379300  0.871700  1.0
  C  C588  1  0.644200  0.379300  0.628300  1.0
  C  C589  1  0.448500  0.679600  0.165700  1.0
  C  C590  1  0.448500  0.679600  0.334300  1.0
  C  C591  1  0.551500  0.320400  0.834300  1.0
  C  C592  1  0.551500  0.320400  0.665700  1.0
  C  C593  1  0.474200  0.741100  0.179700  1.0
  C  C594  1  0.474200  0.741100  0.320300  1.0
  C  C595  1  0.525800  0.258900  0.820300  1.0
  C  C596  1  0.525800  0.258900  0.679700  1.0
  C  C597  1  0.438600  0.777200  0.168600  1.0
  C  C598  1  0.438600  0.777200  0.331400  1.0
  C  C599  1  0.561400  0.222800  0.831400  1.0
  C  C600  1  0.561400  0.222800  0.668600  1.0
  C  C601  1  0.285900  0.569700  0.140900  1.0
  C  C602  1  0.285900  0.569700  0.359100  1.0
  C  C603  1  0.714100  0.430300  0.859100  1.0
  C  C604  1  0.714100  0.430300  0.640900  1.0
  C  C605  1  0.270300  0.568500  0.170200  1.0
  C  C606  1  0.270300  0.568500  0.329800  1.0
  C  C607  1  0.729700  0.431500  0.829800  1.0
  C  C608  1  0.729700  0.431500  0.670200  1.0
  C  C609  1  0.206300  0.519800  0.179600  1.0
  C  C610  1  0.206300  0.519800  0.320400  1.0
  C  C611  1  0.793700  0.480200  0.820400  1.0
  C  C612  1  0.793700  0.480200  0.679600  1.0
  C  C613  1  0.160100  0.468100  0.158200  1.0
  C  C614  1  0.160100  0.468100  0.341800  1.0
  C  C615  1  0.839900  0.531900  0.841800  1.0
  C  C616  1  0.839900  0.531900  0.658200  1.0
  C  C617  1  0.178300  0.473700  0.130800  1.0
  C  C618  1  0.178300  0.473700  0.369200  1.0
  C  C619  1  0.821700  0.526300  0.869200  1.0
  C  C620  1  0.821700  0.526300  0.630800  1.0
  C  C621  1  0.127000  0.422800  0.109200  1.0
  C  C622  1  0.127000  0.422800  0.390800  1.0
  C  C623  1  0.873000  0.577200  0.890800  1.0
  C  C624  1  0.873000  0.577200  0.609200  1.0
  C  C625  1  0.012000  0.334600  0.129100  1.0
  C  C626  1  0.012000  0.334600  0.370900  1.0
  C  C627  1  0.988000  0.665400  0.870900  1.0
  C  C628  1  0.988000  0.665400  0.629100  1.0
  C  C629  1  0.995300  0.272300  0.144500  1.0
  C  C630  1  0.995300  0.272300  0.355500  1.0
  C  C631  1  0.004700  0.727700  0.855500  1.0
  C  C632  1  0.004700  0.727700  0.644500  1.0
  C  C633  1  0.054800  0.260500  0.144200  1.0
  C  C634  1  0.054800  0.260500  0.355800  1.0
  C  C635  1  0.945200  0.739500  0.855800  1.0
  C  C636  1  0.945200  0.739500  0.644200  1.0
  C  C637  1  0.068400  0.204800  0.158000  1.0
  C  C638  1  0.068400  0.204800  0.342000  1.0
  C  C639  1  0.931600  0.795200  0.842000  1.0
  C  C640  1  0.931600  0.795200  0.658000  1.0
  C  C641  1  0.018700  0.158900  0.177400  1.0
  C  C642  1  0.018700  0.158900  0.322600  1.0
  C  C643  1  0.981300  0.841100  0.822600  1.0
  C  C644  1  0.981300  0.841100  0.677400  1.0
  C  C645  1  0.042000  0.110800  0.190100  1.0
  C  C646  1  0.042000  0.110800  0.309900  1.0
  C  C647  1  0.958000  0.889200  0.809900  1.0
  C  C648  1  0.958000  0.889200  0.690100  1.0
  C  C649  1  0.107200  0.109500  0.182800  1.0
  C  C650  1  0.107200  0.109500  0.317200  1.0
  C  C651  1  0.892800  0.890500  0.817200  1.0
  C  C652  1  0.892800  0.890500  0.682800  1.0
  C  C653  1  0.150200  0.153700  0.161800  1.0
  C  C654  1  0.150200  0.153700  0.338200  1.0
  C  C655  1  0.849800  0.846300  0.838200  1.0
  C  C656  1  0.849800  0.846300  0.661800  1.0
  C  C657  1  0.273400  0.137900  0.938900  1.0
  C  C658  1  0.273400  0.137900  0.561100  1.0
  C  C659  1  0.726600  0.862100  0.061100  1.0
  C  C660  1  0.726600  0.862100  0.438900  1.0
  C  C661  1  0.289400  0.091800  0.953900  1.0
  C  C662  1  0.289400  0.091800  0.546100  1.0
  C  C663  1  0.710600  0.908200  0.046100  1.0
  C  C664  1  0.710600  0.908200  0.453900  1.0
  C  C665  1  0.238500  0.021100  0.951600  1.0
  C  C666  1  0.238500  0.021100  0.548400  1.0
  C  C667  1  0.761500  0.978900  0.048400  1.0
  C  C668  1  0.761500  0.978900  0.451600  1.0
  C  C669  1  0.182600  0.000100  0.933900  1.0
  C  C670  1  0.182600  0.000100  0.566100  1.0
  C  C671  1  0.817400  0.999900  0.066100  1.0
  C  C672  1  0.817400  0.999900  0.433900  1.0
  C  C673  1  0.170000  0.049200  0.920200  1.0
  C  C674  1  0.170000  0.049200  0.579800  1.0
  C  C675  1  0.830000  0.950800  0.079800  1.0
  C  C676  1  0.830000  0.950800  0.420200  1.0
  C  C677  1  0.351000  0.384600  0.915700  1.0
  C  C678  1  0.351000  0.384600  0.584300  1.0
  C  C679  1  0.649000  0.615400  0.084300  1.0
  C  C680  1  0.649000  0.615400  0.415700  1.0
  C  C681  1  0.400000  0.325500  0.950400  1.0
  C  C682  1  0.400000  0.325500  0.549600  1.0
  C  C683  1  0.600000  0.674500  0.049600  1.0
  C  C684  1  0.600000  0.674500  0.450400  1.0
  C  C685  1  0.379300  0.254800  0.958200  1.0
  C  C686  1  0.379300  0.254800  0.541800  1.0
  C  C687  1  0.620700  0.745200  0.041800  1.0
  C  C688  1  0.620700  0.745200  0.458200  1.0
  C  C689  1  0.317400  0.213300  0.938700  1.0
  C  C690  1  0.317400  0.213300  0.561300  1.0
  C  C691  1  0.682600  0.786700  0.061300  1.0
  C  C692  1  0.682600  0.786700  0.438700  1.0
  C  C693  1  0.297700  0.407700  0.928800  1.0
  C  C694  1  0.297700  0.407700  0.571200  1.0
  C  C695  1  0.702300  0.592300  0.071200  1.0
  C  C696  1  0.702300  0.592300  0.428800  1.0
  C  C697  1  0.260100  0.384400  0.955000  1.0
  C  C698  1  0.260100  0.384400  0.545000  1.0
  C  C699  1  0.739900  0.615600  0.045000  1.0
  C  C700  1  0.739900  0.615600  0.455000  1.0
  C  C701  1  0.211000  0.405400  0.963700  1.0
  C  C702  1  0.211000  0.405400  0.536300  1.0
  C  C703  1  0.789000  0.594600  0.036300  1.0
  C  C704  1  0.789000  0.594600  0.463700  1.0
  C  C705  1  0.201200  0.454200  0.947300  1.0
  C  C706  1  0.201200  0.454200  0.552700  1.0
  C  C707  1  0.798800  0.545800  0.052700  1.0
  C  C708  1  0.798800  0.545800  0.447300  1.0
  C  C709  1  0.238000  0.477800  0.921400  1.0
  C  C710  1  0.238000  0.477800  0.578600  1.0
  C  C711  1  0.762000  0.522200  0.078600  1.0
  C  C712  1  0.762000  0.522200  0.421400  1.0
  C  C713  1  0.220700  0.524900  0.902300  1.0
  C  C714  1  0.220700  0.524900  0.597700  1.0
  C  C715  1  0.779300  0.475100  0.097700  1.0
  C  C716  1  0.779300  0.475100  0.402300  1.0
  C  C717  1  0.301000  0.548700  0.858900  1.0
  C  C718  1  0.301000  0.548700  0.641100  1.0
  C  C719  1  0.699000  0.451300  0.141100  1.0
  C  C720  1  0.699000  0.451300  0.358900  1.0
  C  C721  1  0.361000  0.609100  0.848100  1.0
  C  C722  1  0.361000  0.609100  0.651900  1.0
  C  C723  1  0.639000  0.390900  0.151900  1.0
  C  C724  1  0.639000  0.390900  0.348100  1.0
  C  C725  1  0.368600  0.663200  0.868000  1.0
  C  C726  1  0.368600  0.663200  0.632000  1.0
  C  C727  1  0.631400  0.336800  0.132000  1.0
  C  C728  1  0.631400  0.336800  0.368000  1.0
  C  C729  1  0.423000  0.738500  0.870200  1.0
  C  C730  1  0.423000  0.738500  0.629800  1.0
  C  C731  1  0.577000  0.261500  0.129800  1.0
  C  C732  1  0.577000  0.261500  0.370200  1.0
  C  C733  1  0.475200  0.767400  0.848100  1.0
  C  C734  1  0.475200  0.767400  0.651900  1.0
  C  C735  1  0.524800  0.232600  0.151900  1.0
  C  C736  1  0.524800  0.232600  0.348100  1.0
  C  C737  1  0.526000  0.875200  0.876900  1.0
  C  C738  1  0.526000  0.875200  0.623100  1.0
  C  C739  1  0.474000  0.124800  0.123100  1.0
  C  C740  1  0.474000  0.124800  0.376900  1.0
  C  C741  1  0.526100  0.838500  0.853000  1.0
  C  C742  1  0.526100  0.838500  0.647000  1.0
  C  C743  1  0.473900  0.161500  0.147000  1.0
  C  C744  1  0.473900  0.161500  0.353000  1.0
  C  C745  1  0.468200  0.837700  0.897200  1.0
  C  C746  1  0.468200  0.837700  0.602800  1.0
  C  C747  1  0.531800  0.162300  0.102800  1.0
  C  C748  1  0.531800  0.162300  0.397200  1.0
  C  C749  1  0.123900  0.296500  0.901400  1.0
  C  C750  1  0.123900  0.296500  0.598600  1.0
  C  C751  1  0.876100  0.703500  0.098600  1.0
  C  C752  1  0.876100  0.703500  0.401400  1.0
  C  C753  1  0.092900  0.336100  0.888100  1.0
  C  C754  1  0.092900  0.336100  0.611900  1.0
  C  C755  1  0.907100  0.663900  0.111900  1.0
  C  C756  1  0.907100  0.663900  0.388100  1.0
  C  C757  1  0.116200  0.367900  0.861800  1.0
  C  C758  1  0.116200  0.367900  0.638200  1.0
  C  C759  1  0.883800  0.632100  0.138200  1.0
  C  C760  1  0.883800  0.632100  0.361800  1.0
  C  C761  1  0.167000  0.356700  0.849100  1.0
  C  C762  1  0.167000  0.356700  0.650900  1.0
  C  C763  1  0.833000  0.643300  0.150900  1.0
  C  C764  1  0.833000  0.643300  0.349100  1.0
  C  C765  1  0.195900  0.317600  0.860700  1.0
  C  C766  1  0.195900  0.317600  0.639300  1.0
  C  C767  1  0.804100  0.682400  0.139300  1.0
  C  C768  1  0.804100  0.682400  0.360700  1.0
  C  C769  1  0.127900  0.151700  0.981800  1.0
  C  C770  1  0.127900  0.151700  0.518200  1.0
  C  C771  1  0.872100  0.848300  0.018200  1.0
  C  C772  1  0.872100  0.848300  0.481800  1.0
  C  C773  1  0.055300  0.224200  0.970600  1.0
  C  C774  1  0.055300  0.224200  0.529400  1.0
  C  C775  1  0.944700  0.775800  0.029400  1.0
  C  C776  1  0.944700  0.775800  0.470600  1.0
  C  C777  1  0.057400  0.266600  0.950100  1.0
  C  C778  1  0.057400  0.266600  0.549900  1.0
  C  C779  1  0.942600  0.733400  0.049900  1.0
  C  C780  1  0.942600  0.733400  0.450100  1.0
  C  C781  1  0.102900  0.263200  0.928500  1.0
  C  C782  1  0.102900  0.263200  0.571500  1.0
  C  C783  1  0.897100  0.736800  0.071500  1.0
  C  C784  1  0.897100  0.736800  0.428500  1.0
  C  C785  1  0.190300  0.193000  0.002600  1.0
  C  C786  1  0.190300  0.193000  0.497400  1.0
  C  C787  1  0.809700  0.807000  0.997400  1.0
  C  C788  1  0.809700  0.807000  0.502600  1.0
  C  C789  1  0.239000  0.167700  0.010700  1.0
  C  C790  1  0.239000  0.167700  0.489300  1.0
  C  C791  1  0.761000  0.832300  0.989300  1.0
  C  C792  1  0.761000  0.832300  0.510700  1.0
  C  C793  1  0.293300  0.208300  0.028200  1.0
  C  C794  1  0.293300  0.208300  0.471800  1.0
  C  C795  1  0.706700  0.791700  0.971800  1.0
  C  C796  1  0.706700  0.791700  0.528200  1.0
  C  C797  1  0.297600  0.271500  0.039200  1.0
  C  C798  1  0.297600  0.271500  0.460800  1.0
  C  C799  1  0.702400  0.728500  0.960800  1.0
  C  C800  1  0.702400  0.728500  0.539200  1.0
  C  C801  1  0.246400  0.291200  0.030400  1.0
  C  C802  1  0.246400  0.291200  0.469600  1.0
  C  C803  1  0.753600  0.708800  0.969600  1.0
  C  C804  1  0.753600  0.708800  0.530400  1.0
  C  C805  1  0.243100  0.357500  0.042000  1.0
  C  C806  1  0.243100  0.357500  0.458000  1.0
  C  C807  1  0.756900  0.642500  0.958000  1.0
  C  C808  1  0.756900  0.642500  0.542000  1.0
  C  C809  1  0.359300  0.447400  0.065900  1.0
  C  C810  1  0.359300  0.447400  0.434100  1.0
  C  C811  1  0.640700  0.552600  0.934100  1.0
  C  C812  1  0.640700  0.552600  0.565900  1.0
  C  C813  1  0.381400  0.462000  0.092900  1.0
  C  C814  1  0.381400  0.462000  0.407100  1.0
  C  C815  1  0.618600  0.538000  0.907100  1.0
  C  C816  1  0.618600  0.538000  0.592900  1.0
  C  C817  1  0.326300  0.415500  0.109900  1.0
  C  C818  1  0.326300  0.415500  0.390100  1.0
  C  C819  1  0.673700  0.584500  0.890100  1.0
  C  C820  1  0.673700  0.584500  0.609900  1.0
  C  C821  1  0.320300  0.406400  0.140700  1.0
  C  C822  1  0.320300  0.406400  0.359300  1.0
  C  C823  1  0.679700  0.593600  0.859300  1.0
  C  C824  1  0.679700  0.593600  0.640700  1.0
  C  C825  1  0.370700  0.458100  0.159500  1.0
  C  C826  1  0.370700  0.458100  0.340500  1.0
  C  C827  1  0.629300  0.541900  0.840500  1.0
  C  C828  1  0.629300  0.541900  0.659500  1.0
  C  C829  1  0.364200  0.450100  0.189300  1.0
  C  C830  1  0.364200  0.450100  0.310700  1.0
  C  C831  1  0.635800  0.549900  0.810700  1.0
  C  C832  1  0.635800  0.549900  0.689300  1.0
  C  C833  1  0.305700  0.388000  0.198300  1.0
  C  C834  1  0.305700  0.388000  0.301700  1.0
  C  C835  1  0.694300  0.612000  0.801700  1.0
  C  C836  1  0.694300  0.612000  0.698300  1.0
  C  C837  1  0.258800  0.339600  0.178000  1.0
  C  C838  1  0.258800  0.339600  0.322000  1.0
  C  C839  1  0.741200  0.660400  0.822000  1.0
  C  C840  1  0.741200  0.660400  0.678000  1.0
  C  C841  1  0.302300  0.885700  0.090100  1.0
  C  C842  1  0.302300  0.885700  0.409900  1.0
  C  C843  1  0.697700  0.114300  0.909900  1.0
  C  C844  1  0.697700  0.114300  0.590100  1.0
  C  C845  1  0.272200  0.924400  0.075900  1.0
  C  C846  1  0.272200  0.924400  0.424100  1.0
  C  C847  1  0.727800  0.075600  0.924100  1.0
  C  C848  1  0.727800  0.075600  0.575900  1.0
  C  C849  1  0.202900  0.916700  0.084700  1.0
  C  C850  1  0.202900  0.916700  0.415300  1.0
  C  C851  1  0.797100  0.083300  0.915300  1.0
  C  C852  1  0.797100  0.083300  0.584700  1.0
  C  C853  1  0.169000  0.874300  0.108900  1.0
  C  C854  1  0.169000  0.874300  0.391100  1.0
  C  C855  1  0.831000  0.125700  0.891100  1.0
  C  C856  1  0.831000  0.125700  0.608900  1.0
  C  C857  1  0.211000  0.840500  0.122100  1.0
  C  C858  1  0.211000  0.840500  0.377900  1.0
  C  C859  1  0.789000  0.159500  0.877900  1.0
  C  C860  1  0.789000  0.159500  0.622100  1.0
  C  C861  1  0.468600  0.893100  0.055400  1.0
  C  C862  1  0.468600  0.893100  0.444600  1.0
  C  C863  1  0.531400  0.106900  0.944600  1.0
  C  C864  1  0.531400  0.106900  0.555400  1.0
  C  C865  1  0.417200  0.917800  0.057600  1.0
  C  C866  1  0.417200  0.917800  0.442400  1.0
  C  C867  1  0.582800  0.082200  0.942400  1.0
  C  C868  1  0.582800  0.082200  0.557600  1.0
  C  C869  1  0.370500  0.883300  0.079900  1.0
  C  C870  1  0.370500  0.883300  0.420100  1.0
  C  C871  1  0.629500  0.116700  0.920100  1.0
  C  C872  1  0.629500  0.116700  0.579900  1.0
  C  C873  1  0.232500  0.635700  0.967000  1.0
  C  C874  1  0.232500  0.635700  0.533000  1.0
  C  C875  1  0.767500  0.364300  0.033000  1.0
  C  C876  1  0.767500  0.364300  0.467000  1.0
  C  C877  1  0.176100  0.600500  0.985700  1.0
  C  C878  1  0.176100  0.600500  0.514300  1.0
  C  C879  1  0.823900  0.399500  0.014300  1.0
  C  C880  1  0.823900  0.399500  0.485700  1.0
  C  C881  1  0.114000  0.606700  0.980700  1.0
  C  C882  1  0.114000  0.606700  0.519300  1.0
  C  C883  1  0.886000  0.393300  0.019300  1.0
  C  C884  1  0.886000  0.393300  0.480700  1.0
  C  C885  1  0.103700  0.641700  0.955600  1.0
  C  C886  1  0.103700  0.641700  0.544400  1.0
  C  C887  1  0.896300  0.358300  0.044400  1.0
  C  C888  1  0.896300  0.358300  0.455600  1.0
  C  C889  1  0.163200  0.673400  0.939000  1.0
  C  C890  1  0.163200  0.673400  0.561000  1.0
  C  C891  1  0.836800  0.326600  0.061000  1.0
  C  C892  1  0.836800  0.326600  0.439000  1.0
  C  C893  1  0.489500  0.713300  0.952500  1.0
  C  C894  1  0.489500  0.713300  0.547500  1.0
  C  C895  1  0.510500  0.286700  0.047500  1.0
  C  C896  1  0.510500  0.286700  0.452500  1.0
  C  C897  1  0.397300  0.623500  0.985600  1.0
  C  C898  1  0.397300  0.623500  0.514400  1.0
  C  C899  1  0.602700  0.376500  0.014400  1.0
  C  C900  1  0.602700  0.376500  0.485600  1.0
  C  C901  1  0.322500  0.599400  0.991100  1.0
  C  C902  1  0.322500  0.599400  0.508900  1.0
  C  C903  1  0.677500  0.400600  0.008900  1.0
  C  C904  1  0.677500  0.400600  0.491100  1.0
  C  C905  1  0.303400  0.636300  0.971100  1.0
  C  C906  1  0.303400  0.636300  0.528900  1.0
  C  C907  1  0.696600  0.363700  0.028900  1.0
  C  C908  1  0.696600  0.363700  0.471100  1.0
  C  C909  1  0.088100  0.116900  0.857200  1.0
  C  C910  1  0.088100  0.116900  0.642800  1.0
  C  C911  1  0.911900  0.883100  0.142800  1.0
  C  C912  1  0.911900  0.883100  0.357200  1.0
  C  C913  1  0.029300  0.085200  0.839200  1.0
  C  C914  1  0.029300  0.085200  0.660800  1.0
  C  C915  1  0.970700  0.914800  0.160800  1.0
  C  C916  1  0.970700  0.914800  0.339200  1.0
  C  C917  1  0.963800  0.052200  0.855600  1.0
  C  C918  1  0.963800  0.052200  0.644400  1.0
  C  C919  1  0.036200  0.947800  0.144400  1.0
  C  C920  1  0.036200  0.947800  0.355600  1.0
  C  C921  1  0.964000  0.058400  0.884200  1.0
  C  C922  1  0.964000  0.058400  0.615800  1.0
  C  C923  1  0.036000  0.941600  0.115800  1.0
  C  C924  1  0.036000  0.941600  0.384200  1.0
  C  C925  1  0.026800  0.096700  0.899600  1.0
  C  C926  1  0.026800  0.096700  0.600400  1.0
  C  C927  1  0.973200  0.903300  0.100400  1.0
  C  C928  1  0.973200  0.903300  0.399600  1.0
  C  C929  1  0.349300  0.240000  0.853400  1.0
  C  C930  1  0.349300  0.240000  0.646600  1.0
  C  C931  1  0.650700  0.760000  0.146600  1.0
  C  C932  1  0.650700  0.760000  0.353400  1.0
  C  C933  1  0.258600  0.196900  0.813600  1.0
  C  C934  1  0.258600  0.196900  0.686400  1.0
  C  C935  1  0.741400  0.803100  0.186400  1.0
  C  C936  1  0.741400  0.803100  0.313600  1.0
  C  C937  1  0.184900  0.162500  0.813100  1.0
  C  C938  1  0.184900  0.162500  0.686900  1.0
  C  C939  1  0.815100  0.837500  0.186900  1.0
  C  C940  1  0.815100  0.837500  0.313100  1.0
  C  C941  1  0.161700  0.152700  0.842100  1.0
  C  C942  1  0.161700  0.152700  0.657900  1.0
  C  C943  1  0.838300  0.847300  0.157900  1.0
  C  C944  1  0.838300  0.847300  0.342100  1.0
  C  C945  1  0.375600  0.188700  0.865000  1.0
  C  C946  1  0.375600  0.188700  0.635000  1.0
  C  C947  1  0.624400  0.811300  0.135000  1.0
  C  C948  1  0.624400  0.811300  0.365000  1.0
  C  C949  1  0.348200  0.120000  0.853400  1.0
  C  C950  1  0.348200  0.120000  0.646600  1.0
  C  C951  1  0.651800  0.880000  0.146600  1.0
  C  C952  1  0.651800  0.880000  0.353400  1.0
  C  C953  1  0.377700  0.075800  0.864100  1.0
  C  C954  1  0.377700  0.075800  0.635900  1.0
  C  C955  1  0.622300  0.924200  0.135900  1.0
  C  C956  1  0.622300  0.924200  0.364100  1.0
  C  C957  1  0.432400  0.103200  0.883200  1.0
  C  C958  1  0.432400  0.103200  0.616800  1.0
  C  C959  1  0.567600  0.896800  0.116800  1.0
  C  C960  1  0.567600  0.896800  0.383200  1.0
  C  C961  1  0.457500  0.170900  0.894000  1.0
  C  C962  1  0.457500  0.170900  0.606000  1.0
  C  C963  1  0.542500  0.829100  0.106000  1.0
  C  C964  1  0.542500  0.829100  0.394000  1.0
  C  C965  1  0.486300  0.797700  0.084000  1.0
  C  C966  1  0.486300  0.797700  0.416000  1.0
  C  C967  1  0.513700  0.202300  0.916000  1.0
  C  C968  1  0.513700  0.202300  0.584000  1.0
  C  C969  1  0.132400  0.159000  0.077400  1.0
  C  C970  1  0.132400  0.159000  0.422600  1.0
  C  C971  1  0.867600  0.841000  0.922600  1.0
  C  C972  1  0.867600  0.841000  0.577400  1.0
  C  C973  1  0.085900  0.103000  0.061000  1.0
  C  C974  1  0.085900  0.103000  0.439000  1.0
  C  C975  1  0.914100  0.897000  0.939000  1.0
  C  C976  1  0.914100  0.897000  0.561000  1.0
  C  C977  1  0.027900  0.108800  0.051000  1.0
  C  C978  1  0.027900  0.108800  0.449000  1.0
  C  C979  1  0.972100  0.891200  0.949000  1.0
  C  C980  1  0.972100  0.891200  0.551000  1.0
  C  C981  1  0.015800  0.169600  0.057300  1.0
  C  C982  1  0.015800  0.169600  0.442700  1.0
  C  C983  1  0.984200  0.830400  0.942700  1.0
  C  C984  1  0.984200  0.830400  0.557300  1.0
  C  C985  1  0.063700  0.219300  0.072800  1.0
  C  C986  1  0.063700  0.219300  0.427200  1.0
  C  C987  1  0.936300  0.780700  0.927200  1.0
  C  C988  1  0.936300  0.780700  0.572800  1.0
  C  C989  1  0.360900  0.247300  0.131300  1.0
  C  C990  1  0.360900  0.247300  0.368700  1.0
  C  C991  1  0.639100  0.752700  0.868700  1.0
  C  C992  1  0.639100  0.752700  0.631300  1.0
  C  C993  1  0.295000  0.138100  0.099800  1.0
  C  C994  1  0.295000  0.138100  0.400200  1.0
  C  C995  1  0.705000  0.861900  0.900200  1.0
  C  C996  1  0.705000  0.861900  0.599800  1.0
  C  C997  1  0.232200  0.114100  0.085600  1.0
  C  C998  1  0.232200  0.114100  0.414400  1.0
  C  C999  1  0.767800  0.885900  0.914400  1.0
  C  C1000  1  0.767800  0.885900  0.585600  1.0
  C  C1001  1  0.200200  0.159600  0.089600  1.0
  C  C1002  1  0.200200  0.159600  0.410400  1.0
  C  C1003  1  0.799800  0.840400  0.910400  1.0
  C  C1004  1  0.799800  0.840400  0.589600  1.0
  C  C1005  1  0.424300  0.300700  0.113400  1.0
  C  C1006  1  0.424300  0.300700  0.386600  1.0
  C  C1007  1  0.575700  0.699300  0.886600  1.0
  C  C1008  1  0.575700  0.699300  0.613400  1.0
  C  C1009  1  0.463400  0.366000  0.124900  1.0
  C  C1010  1  0.463400  0.366000  0.375100  1.0
  C  C1011  1  0.536600  0.634000  0.875100  1.0
  C  C1012  1  0.536600  0.634000  0.624900  1.0
  C  C1013  1  0.523100  0.410300  0.108500  1.0
  C  C1014  1  0.523100  0.410300  0.391500  1.0
  C  C1015  1  0.476900  0.589700  0.891500  1.0
  C  C1016  1  0.476900  0.589700  0.608500  1.0
  C  C1017  1  0.540000  0.386800  0.083500  1.0
  C  C1018  1  0.540000  0.386800  0.416500  1.0
  C  C1019  1  0.460000  0.613200  0.916500  1.0
  C  C1020  1  0.460000  0.613200  0.583500  1.0
  C  C1021  1  0.503000  0.681100  0.925600  1.0
  C  C1022  1  0.503000  0.681100  0.574400  1.0
  C  C1023  1  0.497000  0.318900  0.074400  1.0
  C  C1024  1  0.497000  0.318900  0.425600  1.0
  N  N1025  1  0.245300  0.734900  0.162400  1.0
  N  N1026  1  0.245300  0.734900  0.337600  1.0
  N  N1027  1  0.754700  0.265100  0.837600  1.0
  N  N1028  1  0.754700  0.265100  0.662400  1.0
  N  N1029  1  0.242200  0.690300  0.107300  1.0
  N  N1030  1  0.242200  0.690300  0.392700  1.0
  N  N1031  1  0.757800  0.309700  0.892700  1.0
  N  N1032  1  0.757800  0.309700  0.607300  1.0
  N  N1033  1  0.225100  0.659200  0.081100  1.0
  N  N1034  1  0.225100  0.659200  0.418900  1.0
  N  N1035  1  0.774900  0.340800  0.918900  1.0
  N  N1036  1  0.774900  0.340800  0.581100  1.0
  N  N1037  1  0.317800  0.769300  0.019200  1.0
  N  N1038  1  0.317800  0.769300  0.480800  1.0
  N  N1039  1  0.682200  0.230700  0.980800  1.0
  N  N1040  1  0.682200  0.230700  0.519200  1.0
  N  N1041  1  0.328800  0.823200  0.931700  1.0
  N  N1042  1  0.328800  0.823200  0.568300  1.0
  N  N1043  1  0.671200  0.176800  0.068300  1.0
  N  N1044  1  0.671200  0.176800  0.431700  1.0
  N  N1045  1  0.357400  0.870600  0.953100  1.0
  N  N1046  1  0.357400  0.870600  0.546900  1.0
  N  N1047  1  0.642600  0.129400  0.046900  1.0
  N  N1048  1  0.642600  0.129400  0.453100  1.0
  N  N1049  1  0.268500  0.751600  0.884100  1.0
  N  N1050  1  0.268500  0.751600  0.615900  1.0
  N  N1051  1  0.731500  0.248400  0.115900  1.0
  N  N1052  1  0.731500  0.248400  0.384100  1.0
  N  N1053  1  0.395000  0.861700  0.158300  1.0
  N  N1054  1  0.395000  0.861700  0.341700  1.0
  N  N1055  1  0.605000  0.138300  0.841700  1.0
  N  N1056  1  0.605000  0.138300  0.658300  1.0
  N  N1057  1  0.391700  0.738600  0.146000  1.0
  N  N1058  1  0.391700  0.738600  0.354000  1.0
  N  N1059  1  0.608300  0.261400  0.854000  1.0
  N  N1060  1  0.608300  0.261400  0.646000  1.0
  N  N1061  1  0.399600  0.677100  0.145600  1.0
  N  N1062  1  0.399600  0.677100  0.354400  1.0
  N  N1063  1  0.600400  0.322900  0.854400  1.0
  N  N1064  1  0.600400  0.322900  0.645600  1.0
  N  N1065  1  0.240400  0.522300  0.122600  1.0
  N  N1066  1  0.240400  0.522300  0.377400  1.0
  N  N1067  1  0.759600  0.477700  0.877400  1.0
  N  N1068  1  0.759600  0.477700  0.622600  1.0
  N  N1069  1  0.108300  0.312700  0.130300  1.0
  N  N1070  1  0.108300  0.312700  0.369700  1.0
  N  N1071  1  0.891700  0.687300  0.869700  1.0
  N  N1072  1  0.891700  0.687300  0.630300  1.0
  N  N1073  1  0.080600  0.355300  0.120700  1.0
  N  N1074  1  0.080600  0.355300  0.379300  1.0
  N  N1075  1  0.919400  0.644700  0.879300  1.0
  N  N1076  1  0.919400  0.644700  0.620700  1.0
  N  N1077  1  0.131000  0.201900  0.149300  1.0
  N  N1078  1  0.131000  0.201900  0.350700  1.0
  N  N1079  1  0.869000  0.798100  0.850700  1.0
  N  N1080  1  0.869000  0.798100  0.649300  1.0
  N  N1081  1  0.214200  0.118400  0.922100  1.0
  N  N1082  1  0.214200  0.118400  0.577900  1.0
  N  N1083  1  0.785800  0.881600  0.077900  1.0
  N  N1084  1  0.785800  0.881600  0.422100  1.0
  N  N1085  1  0.299900  0.257400  0.923600  1.0
  N  N1086  1  0.299900  0.257400  0.576400  1.0
  N  N1087  1  0.700100  0.742600  0.076400  1.0
  N  N1088  1  0.700100  0.742600  0.423600  1.0
  N  N1089  1  0.351100  0.323400  0.930200  1.0
  N  N1090  1  0.351100  0.323400  0.569800  1.0
  N  N1091  1  0.648900  0.676600  0.069800  1.0
  N  N1092  1  0.648900  0.676600  0.430200  1.0
  N  N1093  1  0.284600  0.455100  0.912200  1.0
  N  N1094  1  0.284600  0.455100  0.587800  1.0
  N  N1095  1  0.715400  0.544900  0.087800  1.0
  N  N1096  1  0.715400  0.544900  0.412200  1.0
  N  N1097  1  0.322300  0.639500  0.890700  1.0
  N  N1098  1  0.322300  0.639500  0.609300  1.0
  N  N1099  1  0.677700  0.360500  0.109300  1.0
  N  N1100  1  0.677700  0.360500  0.390700  1.0
  N  N1101  1  0.281300  0.570100  0.883400  1.0
  N  N1102  1  0.281300  0.570100  0.616600  1.0
  N  N1103  1  0.718700  0.429900  0.116600  1.0
  N  N1104  1  0.718700  0.429900  0.383400  1.0
  N  N1105  1  0.419700  0.771700  0.894300  1.0
  N  N1106  1  0.419700  0.771700  0.605700  1.0
  N  N1107  1  0.580300  0.228300  0.105700  1.0
  N  N1108  1  0.580300  0.228300  0.394300  1.0
  N  N1109  1  0.173500  0.285800  0.886600  1.0
  N  N1110  1  0.173500  0.285800  0.613400  1.0
  N  N1111  1  0.826500  0.714200  0.113400  1.0
  N  N1112  1  0.826500  0.714200  0.386600  1.0
  N  N1113  1  0.132500  0.218800  0.939000  1.0
  N  N1114  1  0.132500  0.218800  0.561000  1.0
  N  N1115  1  0.867500  0.781200  0.061000  1.0
  N  N1116  1  0.867500  0.781200  0.439000  1.0
  N  N1117  1  0.102600  0.195200  0.964500  1.0
  N  N1118  1  0.102600  0.195200  0.535500  1.0
  N  N1119  1  0.897400  0.804800  0.035500  1.0
  N  N1120  1  0.897400  0.804800  0.464500  1.0
  N  N1121  1  0.191800  0.254300  0.011900  1.0
  N  N1122  1  0.191800  0.254300  0.488100  1.0
  N  N1123  1  0.808200  0.745700  0.988100  1.0
  N  N1124  1  0.808200  0.745700  0.511900  1.0
  N  N1125  1  0.268500  0.369800  0.094100  1.0
  N  N1126  1  0.268500  0.369800  0.405900  1.0
  N  N1127  1  0.731500  0.630200  0.905900  1.0
  N  N1128  1  0.731500  0.630200  0.594100  1.0
  N  N1129  1  0.290500  0.389400  0.066700  1.0
  N  N1130  1  0.290500  0.389400  0.433300  1.0
  N  N1131  1  0.709500  0.610600  0.933300  1.0
  N  N1132  1  0.709500  0.610600  0.566700  1.0
  N  N1133  1  0.264000  0.347600  0.150400  1.0
  N  N1134  1  0.264000  0.347600  0.349600  1.0
  N  N1135  1  0.736000  0.652400  0.849600  1.0
  N  N1136  1  0.736000  0.652400  0.650400  1.0
  N  N1137  1  0.273800  0.844400  0.113600  1.0
  N  N1138  1  0.273800  0.844400  0.386400  1.0
  N  N1139  1  0.726200  0.155600  0.886400  1.0
  N  N1140  1  0.726200  0.155600  0.613600  1.0
  N  N1141  1  0.390200  0.834700  0.091500  1.0
  N  N1142  1  0.390200  0.834700  0.408500  1.0
  N  N1143  1  0.609800  0.165300  0.908500  1.0
  N  N1144  1  0.609800  0.165300  0.591500  1.0
  N  N1145  1  0.448900  0.839800  0.076500  1.0
  N  N1146  1  0.448900  0.839800  0.423500  1.0
  N  N1147  1  0.551100  0.160200  0.923500  1.0
  N  N1148  1  0.551100  0.160200  0.576500  1.0
  N  N1149  1  0.227300  0.669000  0.944100  1.0
  N  N1150  1  0.227300  0.669000  0.555900  1.0
  N  N1151  1  0.772700  0.331000  0.055900  1.0
  N  N1152  1  0.772700  0.331000  0.444100  1.0
  N  N1153  1  0.358700  0.681500  0.956100  1.0
  N  N1154  1  0.358700  0.681500  0.543900  1.0
  N  N1155  1  0.641300  0.318500  0.043900  1.0
  N  N1156  1  0.641300  0.318500  0.456100  1.0
  N  N1157  1  0.415500  0.671800  0.965900  1.0
  N  N1158  1  0.415500  0.671800  0.534100  1.0
  N  N1159  1  0.584500  0.328200  0.034100  1.0
  N  N1160  1  0.584500  0.328200  0.465900  1.0
  N  N1161  1  0.089300  0.126800  0.885800  1.0
  N  N1162  1  0.089300  0.126800  0.614200  1.0
  N  N1163  1  0.910700  0.873200  0.114200  1.0
  N  N1164  1  0.910700  0.873200  0.385800  1.0
  N  N1165  1  0.220400  0.181300  0.860400  1.0
  N  N1166  1  0.220400  0.181300  0.639600  1.0
  N  N1167  1  0.779600  0.818700  0.139600  1.0
  N  N1168  1  0.779600  0.818700  0.360400  1.0
  N  N1169  1  0.278700  0.208100  0.841100  1.0
  N  N1170  1  0.278700  0.208100  0.658900  1.0
  N  N1171  1  0.721300  0.791900  0.158900  1.0
  N  N1172  1  0.721300  0.791900  0.341100  1.0
  N  N1173  1  0.430400  0.213500  0.883800  1.0
  N  N1174  1  0.430400  0.213500  0.616200  1.0
  N  N1175  1  0.569600  0.786500  0.116200  1.0
  N  N1176  1  0.569600  0.786500  0.383800  1.0
  N  N1177  1  0.123500  0.216600  0.084100  1.0
  N  N1178  1  0.123500  0.216600  0.415900  1.0
  N  N1179  1  0.876500  0.783400  0.915900  1.0
  N  N1180  1  0.876500  0.783400  0.584100  1.0
  N  N1181  1  0.244100  0.214300  0.105800  1.0
  N  N1182  1  0.244100  0.214300  0.394200  1.0
  N  N1183  1  0.755900  0.785700  0.894200  1.0
  N  N1184  1  0.755900  0.785700  0.605800  1.0
  N  N1185  1  0.300700  0.199900  0.113500  1.0
  N  N1186  1  0.300700  0.199900  0.386500  1.0
  N  N1187  1  0.699300  0.800100  0.886500  1.0
  N  N1188  1  0.699300  0.800100  0.613500  1.0
  N  N1189  1  0.439000  0.275200  0.089500  1.0
  N  N1190  1  0.439000  0.275200  0.410500  1.0
  N  N1191  1  0.561000  0.724800  0.910500  1.0
  N  N1192  1  0.561000  0.724800  0.589500  1.0
  Cl  Cl1193  1  0.908900  0.572200  0.972980  1
  Cl  Cl1194  1  0.908900  0.572200  0.527020  1
  Cl  Cl1195  1  0.091100  0.427800  0.027020  1
  Cl  Cl1196  1  0.091100  0.427800  0.472980  1
  Cl  Cl1197  1  0.416900  0.086400  0.016900  1
  Cl  Cl1198  1  0.416900  0.086400  0.483100  1
  Cl  Cl1199  1  0.583100  0.913600  0.983100  1
  Cl  Cl1200  1  0.583100  0.913600  0.516900  1
  Cl  Cl1201  1  0.890200  0.048700  0.982250  1
  Cl  Cl1202  1  0.890200  0.048700  0.517750  1
  Cl  Cl1203  1  0.109800  0.951300  0.017750  1
  Cl  Cl1204  1  0.109800  0.951300  0.482250  1
  Cl  Cl1205  1  0.068200  0.534800  0.859100  1
  Cl  Cl1206  1  0.068200  0.534800  0.640900  1
  Cl  Cl1207  1  0.931800  0.465200  0.140900  1
  Cl  Cl1208  1  0.931800  0.465200  0.359100  1
  Cl  Cl1209  1  0.425500  0.433700  0.830050  1
  Cl  Cl1210  1  0.425500  0.433700  0.669950  1
  Cl  Cl1211  1  0.574500  0.566300  0.169950  1
  Cl  Cl1212  1  0.574500  0.566300  0.330050  1
  Cl  Cl1213  1  0.500000  0.500000  0.000000  1
  Cl  Cl1214  1  0.500000  0.500000  0.500000  1
  Cl  Cl1215  1  0.273900  0.026900  0.167150  1
  Cl  Cl1216  1  0.273900  0.026900  0.332850  1
  Cl  Cl1217  1  0.726100  0.973100  0.832850  1
  Cl  Cl1218  1  0.726100  0.973100  0.667150  1
  Cl  Cl1219  1  0.995600  0.956700  0.250000  1
  Cl  Cl1220  1  0.004400  0.043300  0.750000  1
  Cl  Cl1221  1  0.847800  0.054500  0.148000  1
  Cl  Cl1222  1  0.847800  0.054500  0.352000  1
  Cl  Cl1223  1  0.152200  0.945500  0.852000  1
  Cl  Cl1224  1  0.152200  0.945500  0.648000  1
  O  O1225  1  0.932300  0.634600  0.954900  1
  O  O1226  1  0.932300  0.634600  0.545100  1
  O  O1227  1  0.067700  0.365400  0.045100  1
  O  O1228  1  0.067700  0.365400  0.454900  1
  O  O1229  1  0.933500  0.525000  0.960500  1
  O  O1230  1  0.933500  0.525000  0.539500  1
  O  O1231  1  0.066500  0.475000  0.039500  1
  O  O1232  1  0.066500  0.475000  0.460500  1
  O  O1233  1  0.938500  0.592300  0.001400  1
  O  O1234  1  0.938500  0.592300  0.498600  1
  O  O1235  1  0.061500  0.407700  0.998600  1
  O  O1236  1  0.061500  0.407700  0.501400  1
  O  O1237  1  0.831400  0.537000  0.974600  1
  O  O1238  1  0.831400  0.537000  0.525400  1
  O  O1239  1  0.168600  0.463000  0.025400  1
  O  O1240  1  0.168600  0.463000  0.474600  1
  O  O1241  1  0.458400  0.099400  0.041200  1
  O  O1242  1  0.458400  0.099400  0.458800  1
  O  O1243  1  0.541600  0.900600  0.958800  1
  O  O1244  1  0.541600  0.900600  0.541200  1
  O  O1245  1  0.427500  0.034800  0.001400  1
  O  O1246  1  0.427500  0.034800  0.498600  1
  O  O1247  1  0.572500  0.965200  0.998600  1
  O  O1248  1  0.572500  0.965200  0.501400  1
  O  O1249  1  0.439200  0.146700  0.999300  1
  O  O1250  1  0.439200  0.146700  0.500700  1
  O  O1251  1  0.560800  0.853300  0.000700  1
  O  O1252  1  0.560800  0.853300  0.499300  1
  O  O1253  1  0.349300  0.070200  0.023400  1
  O  O1254  1  0.349300  0.070200  0.476600  1
  O  O1255  1  0.650700  0.929800  0.976600  1
  O  O1256  1  0.650700  0.929800  0.523400  1
  O  O1257  1  0.910400  0.002800  0.999400  1
  O  O1258  1  0.910400  0.002800  0.500600  1
  O  O1259  1  0.089600  0.997200  0.000600  1
  O  O1260  1  0.089600  0.997200  0.499400  1
  O  O1261  1  0.900200  0.106600  0.999900  1
  O  O1262  1  0.900200  0.106600  0.500100  1
  O  O1263  1  0.099800  0.893400  0.000100  1
  O  O1264  1  0.099800  0.893400  0.499900  1
  O  O1265  1  0.814600  0.007600  0.975600  1
  O  O1266  1  0.814600  0.007600  0.524400  1
  O  O1267  1  0.185400  0.992400  0.024400  1
  O  O1268  1  0.185400  0.992400  0.475600  1
  O  O1269  1  0.925800  0.070600  0.956400  1
  O  O1270  1  0.925800  0.070600  0.543600  1
  O  O1271  1  0.074200  0.929400  0.043600  1
  O  O1272  1  0.074200  0.929400  0.456400  1
  O  O1273  1  0.132100  0.542500  0.841700  1
  O  O1274  1  0.132100  0.542500  0.658300  1
  O  O1275  1  0.867900  0.457500  0.158300  1
  O  O1276  1  0.867900  0.457500  0.341700  1
  O  O1277  1  0.088600  0.583100  0.882200  1
  O  O1278  1  0.088600  0.583100  0.617800  1
  O  O1279  1  0.911400  0.416900  0.117800  1
  O  O1280  1  0.911400  0.416900  0.382200  1
  O  O1281  1  0.008900  0.533800  0.847200  1
  O  O1282  1  0.008900  0.533800  0.652800  1
  O  O1283  1  0.991100  0.466200  0.152800  1
  O  O1284  1  0.991100  0.466200  0.347200  1
  O  O1285  1  0.040300  0.463000  0.871400  1
  O  O1286  1  0.040300  0.463000  0.628600  1
  O  O1287  1  0.959700  0.537000  0.128600  1
  O  O1288  1  0.959700  0.537000  0.371400  1
  O  O1289  1  0.460000  0.406900  0.811500  1
  O  O1290  1  0.460000  0.406900  0.688500  1
  O  O1291  1  0.540000  0.593100  0.188500  1
  O  O1292  1  0.540000  0.593100  0.311500  1
  O  O1293  1  0.439500  0.502000  0.823100  1
  O  O1294  1  0.439500  0.502000  0.676900  1
  O  O1295  1  0.560500  0.498000  0.176900  1
  O  O1296  1  0.560500  0.498000  0.323100  1
  O  O1297  1  0.458400  0.430900  0.859900  1
  O  O1298  1  0.458400  0.430900  0.640100  1
  O  O1299  1  0.541600  0.569100  0.140100  1
  O  O1300  1  0.541600  0.569100  0.359900  1
  O  O1301  1  0.356900  0.395500  0.833100  1
  O  O1302  1  0.356900  0.395500  0.666900  1
  O  O1303  1  0.643100  0.604500  0.166900  1
  O  O1304  1  0.643100  0.604500  0.333100  1
  O  O1305  1  0.312900  0.020200  0.140900  1
  O  O1306  1  0.312900  0.020200  0.359100  1
  O  O1307  1  0.687100  0.979800  0.859100  1
  O  O1308  1  0.687100  0.979800  0.640900  1
  O  O1309  1  0.207800  0.023700  0.161700  1
  O  O1310  1  0.207800  0.023700  0.338300  1
  O  O1311  1  0.792200  0.976300  0.838300  1
  O  O1312  1  0.792200  0.976300  0.661700  1
  O  O1313  1  0.324800  0.052400  0.188400  1
  O  O1314  1  0.324800  0.052400  0.311600  1
  O  O1315  1  0.675200  0.947600  0.811600  1
  O  O1316  1  0.675200  0.947600  0.688400  1
  O  O1317  1  0.246000  0.957000  0.180300  1
  O  O1318  1  0.246000  0.957000  0.319700  1
  O  O1319  1  0.754000  0.043000  0.819700  1
  O  O1320  1  0.754000  0.043000  0.680300  1
  O  O1321  1  0.932000  0.900000  0.250000  1
  O  O1322  1  0.068000  0.100000  0.750000  1
  O  O1323  1  0.975000  0.023000  0.250000  1
  O  O1324  1  0.025000  0.977000  0.750000  1
  O  O1325  1  0.784700  0.020600  0.136100  1
  O  O1326  1  0.784700  0.020600  0.363900  1
  O  O1327  1  0.215300  0.979400  0.863900  1
  O  O1328  1  0.215300  0.979400  0.636100  1
  O  O1329  1  0.812000  0.038000  0.174700  1
  O  O1330  1  0.812000  0.038000  0.325300  1
  O  O1331  1  0.188000  0.962000  0.825300  1
  O  O1332  1  0.188000  0.962000  0.674700  1
  O  O1333  1  0.892000  0.080000  0.126600  1
  O  O1334  1  0.892000  0.080000  0.373400  1
  O  O1335  1  0.108000  0.920000  0.873400  1
  O  O1336  1  0.108000  0.920000  0.626600  1
  O  O1337  1  0.866000  0.005000  0.159800  1
  O  O1338  1  0.866000  0.005000  0.340200  1
  O  O1339  1  0.134000  0.995000  0.840200  1
  O  O1340  1  0.134000  0.995000  0.659800  1
  O  O1341  1  0.616900  0.838100  0.250000  1
  O  O1342  1  0.383100  0.161900  0.750000  1
  O  O1343  1  0.726700  0.462000  0.938300  1
  O  O1344  1  0.726700  0.462000  0.561700  1
  O  O1345  1  0.273300  0.538000  0.061700  1
  O  O1346  1  0.273300  0.538000  0.438300  1
  O  O1347  1  0.525600  0.464700  0.979300  1
  O  O1348  1  0.525600  0.464700  0.520700  1
  O  O1349  1  0.474400  0.535300  0.020700  1
  O  O1350  1  0.474400  0.535300  0.479300  1
  O  O1351  1  0.516400  0.502200  0.030000  1
  O  O1352  1  0.516400  0.502200  0.470000  1
  O  O1353  1  0.483600  0.497800  0.970000  1
  O  O1354  1  0.483600  0.497800  0.530000  1
  O  O1355  1  0.425100  0.476200  0.994900  1.0
  O  O1356  1  0.425100  0.476200  0.505100  1.0
  O  O1357  1  0.574900  0.523800  0.005100  1.0
  O  O1358  1  0.574900  0.523800  0.494900  1.0
  O  O1359  1  0.466700  0.424900  0.011800  1.0
  O  O1360  1  0.466700  0.424900  0.488200  1.0
  O  O1361  1  0.533300  0.575100  0.988200  1.0
  O  O1362  1  0.533300  0.575100  0.511800  1.0
  O  O1363  1  0.038900  0.965500  0.277200  1.0
  O  O1364  1  0.038900  0.965500  0.222800  1.0
  O  O1365  1  0.961100  0.034500  0.722800  1.0
  O  O1366  1  0.961100  0.034500  0.777200  1.0
