
#######################################################################
#
#                 Cambridge Crystallographic Data Centre
#                                CCDC 
#
#######################################################################
#
# If this CIF has been generated from an entry in the Cambridge 
# Structural Database, then it will include bibliographic, chemical, 
# crystal, experimental, refinement or atomic coordinate data resulting 
# from the CCDC's data processing and validation procedures.
#
#######################################################################

data_ELUGIB
_chemical_formula_moiety         '16(Cl1 O4 1-),3(H2 O1),C276 H228 N84 Zn8 16+'
_chemical_name_systematic        
'dodecakis(\m~2~-2,6-bis(3-(2-Pyridyl)pyrazolylmethyl)pyridine)-octa-zinc(ii) hexadecaperchlorate trihydrate unknown solvate'
_symmetry_cell_setting           monoclinic
_symmetry_space_group_name_H-M   'P 21/m'
_symmetry_Int_Tables_number      11
_space_group_name_Hall           '-P 2yb'
loop_
_symmetry_equiv_pos_site_id
_symmetry_equiv_pos_as_xyz
1 x,y,z
2 x,1/2-y,z
3 -x,-y,-z
4 -x,1/2+y,-z
_cell_length_a                   20.537(9)
_cell_length_b                   46.147(12)
_cell_length_c                   21.106(6)
_cell_angle_alpha                90
_cell_angle_beta                 115.942(18)
_cell_angle_gamma                90
_cell_volume                     17987.1
_exptl_crystal_colour            colorless
_exptl_crystal_description       block
_cell_formula_units_Z            2
_exptl_crystal_recrystallization_method 'dmf/ethyl acetate'
loop_
_atom_site_label
_atom_site_type_symbol
_atom_site_fract_x
_atom_site_fract_y
_atom_site_fract_z
Cl1 Cl 1.0911(3) 0.02702(12) 0.4278(3)
O1 O 1.0677(7) 0.0451(3) 0.3654(7)
O2 O 1.0665(7) 0.0395(3) 0.4750(7)
O3 O 1.0615(8) -0.0014(3) 0.4077(8)
O4 O 1.1686(7) 0.0254(3) 0.4630(7)
Cl2 Cl 0.5831(3) -0.01690(12) 0.9136(3)
O5 O 0.5416(9) -0.0412(3) 0.9006(8)
O6 O 0.5725(12) -0.0014(5) 0.9652(11)
O7 O 0.5608(8) 0.0007(3) 0.8533(8)
O8 O 0.6507(18) -0.0234(6) 0.9298(15)
Cl3 Cl 0.1098(3) 0.01775(12) 0.9513(3)
O9 O 0.0896(11) 0.0006(4) 0.9972(10)
O10 O 0.0998(7) 0.0001(3) 0.8934(7)
O11 O 0.1854(9) 0.0244(3) 0.9924(8)
O12 O 0.0742(10) 0.0436(4) 0.9294(9)
Cl4 Cl 0.9318(4) 0.1409(2) 0.4652(4)
O13 O 0.8679(10) 0.1583(4) 0.4575(9)
O14 O 0.9114(10) 0.1178(4) 0.4169(10)
O15 O 0.9911(16) 0.1528(6) 0.4662(14)
O16 O 0.9597(16) 0.1286(6) 0.5370(16)
Cl5 Cl 0.5745(5) 0.16995(18) 0.5663(3)
O17 O 0.5400(10) 0.1885(4) 0.5931(9)
O18 O 0.5605(12) 0.1769(5) 0.4980(12)
O19 O 0.5416(13) 0.1401(5) 0.5691(12)
O20 O 0.6431(16) 0.1669(5) 0.6045(14)
Cl6 Cl 0.5000 0.0000 0.5000
O22 O 0.5749(16) 0.0051(6) 0.5238(14)
O24 O 0.5333(17) -0.0118(6) 0.5751(15)
O22B O 0.4251(16) -0.0051(6) 0.4762(14)
O24B O 0.4667(17) 0.0118(6) 0.4249(15)
Cl7 Cl 0.7261(4) -0.16715(16) 0.9731(4)
O25 O 0.6871(8) -0.1409(3) 0.9798(8)
O26 O 0.7922(17) -0.1617(6) 0.9763(15)
O27 O 0.6752(17) -0.1884(7) 0.9476(15)
O28 O 0.754(2) -0.1803(8) 1.043(2)
Cl8 Cl 1.0044(10) -0.2500 1.0433(8)
O29 O 0.9611(19) -0.2772(7) 1.0345(17)
O30 O 1.068(4) -0.2500 1.100(3)
O31 O 1.025(4) -0.2500 0.977(3)
O29A O 0.9611(19) -0.2228(7) 1.0345(17)
Cl9 Cl 1.1522(11) -0.1480(5) 0.9455(10)
O32 O 1.2153(15) -0.1361(5) 0.9794(13)
O33 O 1.188(3) -0.1747(10) 0.962(2)
O34 O 1.108(3) -0.1266(11) 0.920(3)
O35 O 1.134(3) -0.1598(10) 0.995(3)
O36 O 0.3831(10) -0.2500 0.1619(8)
O37 O 1.2733(11) 0.0617(4) 0.5380(10)
Zn1 Zn 0.67784(11) 0.08157(5) 0.27895(10)
Zn2 Zn 0.80570(11) 0.09671(5) 0.79992(10)
Zn3 Zn 0.80581(11) -0.11788(5) 0.71880(11)
Zn4 Zn 0.67605(12) -0.12942(5) 0.21659(11)
N1 N 0.7547(9) -0.1624(4) 0.2651(10)
N2 N 0.7578(8) -0.1073(4) 0.3097(7)
N3 N 0.7749(8) -0.0811(3) 0.3408(8)
N4 N 0.6822(8) -0.0192(3) 0.2307(7)
N5 N 0.6712(8) 0.0683(3) 0.1768(7)
N6 N 0.6426(9) 0.0469(3) 0.1294(8)
N7 N 0.7315(8) 0.1159(3) 0.2484(8)
N8 N 0.6050(10) -0.1583(4) 0.1383(8)
N9 N 0.6083(8) -0.1460(3) 0.2614(6)
N10 N 0.6004(7) -0.1456(3) 0.3229(7)
N11 N 0.7596(8) -0.1226(3) 0.4777(7)
N12 N 0.8917(9) -0.1303(4) 0.6873(8)
N13 N 0.9194(9) -0.1207(4) 0.6447(7)
N14 N 0.8690(9) -0.1493(4) 0.7981(7)
N15 N 0.7858(7) 0.0779(3) 0.8816(7)
N16 N 0.7001(7) 0.0764(3) 0.7426(6)
N17 N 0.6489(7) 0.0698(3) 0.6766(7)
N18 N 0.7154(8) 0.0878(3) 0.5449(7)
N19 N 0.6777(8) 0.1093(3) 0.3605(7)
N20 N 0.7187(8) 0.1166(3) 0.4299(7)
N21 N 0.5803(7) 0.1057(3) 0.2283(6)
N22 N 0.8265(8) 0.1134(3) 0.7142(7)
N23 N 0.8675(8) 0.0610(4) 0.7812(7)
N24 N 0.8974(8) 0.0355(3) 0.8048(7)
N25 N 0.8082(8) -0.0119(3) 0.7457(7)
N26 N 0.7315(7) -0.0941(3) 0.6302(7)
N27 N 0.7095(8) -0.0667(4) 0.6106(7)
N28 N 0.7360(8) -0.1504(4) 0.6524(8)
N29 N 0.7262(11) -0.1136(4) 0.1556(9)
N30 N 0.6098(9) -0.0915(3) 0.1653(7)
N31 N 0.5511(9) -0.0765(4) 0.1602(9)
N32 N 0.7727(8) 0.0559(3) 0.3310(7)
N33 N 0.6413(8) 0.0439(3) 0.3185(7)
N34 N 0.5845(8) 0.0341(4) 0.3282(8)
N35 N 0.9107(9) 0.1142(4) 0.8732(7)
N36 N 0.7796(8) 0.1396(3) 0.8187(8)
N37 N 0.7213(9) 0.1589(4) 0.7919(9)
N38 N 0.5696(8) 0.1162(4) 0.7865(9)
N39 N 0.8765(8) -0.0841(3) 0.7834(7)
N40 N 0.7559(7) -0.1058(3) 0.7857(7)
N41 N 0.6993(8) -0.1135(3) 0.8001(7)
N42 N 0.5610(7) -0.0895(3) 0.7248(7)
C1 C 0.8124(14) -0.1549(5) 0.3199(13)
C2 C 0.8764(17) -0.1733(6) 0.3641(17)
H1 H 0.9183 -0.1669 0.4021
C3 C 0.864(2) -0.1986(10) 0.341(2)
H2 H 0.8966 -0.2123 0.3698
C4 C 0.804(2) -0.2107(7) 0.275(2)
H3 H 0.8036 -0.2296 0.2592
C5 C 0.7458(18) -0.1888(6) 0.238(2)
H4 H 0.7047 -0.1936 0.1975
C6 C 0.7266(10) -0.0573(4) 0.3165(9)
H5 H 0.7332 -0.0453 0.3566
H6 H 0.6774 -0.0646 0.2964
C7 C 0.8410(11) -0.0803(5) 0.3925(10)
H7 H 0.8619 -0.0643 0.4207
C8 C 0.8741(11) -0.1062(5) 0.3987(9)
H8 H 0.9209 -0.1115 0.4299
C9 C 0.8168(11) -0.1241(5) 0.3430(10)
C10 C 0.7358(9) -0.0384(4) 0.2619(8)
C11 C 0.7979(11) -0.0394(4) 0.2490(9)
H9 H 0.8343 -0.0529 0.2720
C12 C 0.8037(11) -0.0203(4) 0.2026(10)
H10 H 0.8439 -0.0204 0.1932
C13 C 0.7469(11) -0.0002(4) 0.1692(10)
H11 H 0.7499 0.0133 0.1379
C14 C 0.6893(11) -0.0003(4) 0.1822(9)
C15 C 0.6247(10) 0.0200(4) 0.1505(10)
H12 H 0.5867 0.0107 0.1099
H13 H 0.6061 0.0235 0.1849
C16 C 0.6723(12) 0.0794(5) 0.0737(9)
H14 H 0.6790 0.0897 0.0391
C17 C 0.6921(10) 0.0892(4) 0.1446(10)
C18 C 0.6431(11) 0.0536(4) 0.0663(10)
H15 H 0.6261 0.0421 0.0261
C19 C 0.7237(10) 0.1154(4) 0.1829(9)
C20 C 0.7495(15) 0.1370(5) 0.1564(13)
H16 H 0.7419 0.1360 0.1096
C21 C 0.7853(14) 0.1597(7) 0.1955(15)
H17 H 0.8054 0.1736 0.1771
C22 C 0.7925(13) 0.1626(5) 0.2638(15)
H18 H 0.8152 0.1784 0.2922
C23 C 0.7619(11) 0.1391(5) 0.2874(10)
H19 H 0.7636 0.1402 0.3321
C24 C 0.5602(12) -0.1737(5) 0.1522(10)
C25 C 0.5071(14) -0.1910(4) 0.1060(10)
H20 H 0.4750 -0.2004 0.1194
C26 C 0.5016(15) -0.1944(5) 0.0376(13)
H21 H 0.4655 -0.2059 0.0042
C27 C 0.5532(14) -0.1798(5) 0.0215(11)
H22 H 0.5531 -0.1818 -0.0224
C28 C 0.6039(15) -0.1623(5) 0.0730(12)
H23 H 0.6386 -0.1530 0.0632
C29 C 0.6442(10) -0.1283(4) 0.3793(9)
H24 H 0.6168 -0.1230 0.4050
H25 H 0.6546 -0.1106 0.3606
C30 C 0.5515(10) -0.1657(4) 0.3204(9)
H26 H 0.5378 -0.1693 0.3562
C31 C 0.5258(10) -0.1797(4) 0.2589(9)
H27 H 0.4907 -0.1941 0.2437
C32 C 0.5614(10) -0.1686(4) 0.2228(9)
C33 C 0.7141(10) -0.1409(4) 0.4303(9)
C34 C 0.7297(11) -0.1702(4) 0.4315(9)
H28 H 0.6966 -0.1830 0.3994
C35 C 0.7937(14) -0.1796(5) 0.4802(12)
H29 H 0.8083 -0.1987 0.4814
C36 C 0.8399(12) -0.1582(6) 0.5319(10)
H30 H 0.8827 -0.1642 0.5691
C37 C 0.8217(11) -0.1308(4) 0.5263(10)
C38 C 0.8730(11) -0.1092(5) 0.5772(9)
H31 H 0.9028 -0.1010 0.5565
H32 H 0.8449 -0.0935 0.5835
C39 C 0.9880(12) -0.1291(7) 0.6654(12)
H33 H 1.0177 -0.1256 0.6434
C40 C 1.0047(12) -0.1445(7) 0.7277(13)
H34 H 1.0486 -0.1533 0.7559
C41 C 0.9452(12) -0.1442(6) 0.7395(11)
C42 C 0.9316(13) -0.1580(7) 0.7952(10)
C43 C 0.9813(19) -0.1774(8) 0.8411(15)
H35 H 1.0253 -0.1817 0.8406
C44 C 0.958(2) -0.1901(8) 0.8892(18)
H36 H 0.9876 -0.2038 0.9210
C45 C 0.8928(18) -0.1828(5) 0.8905(12)
H37 H 0.8786 -0.1921 0.9214
C46 C 0.8498(14) -0.1618(4) 0.8463(10)
H38 H 0.8077 -0.1561 0.8489
C47 C 0.7266(9) 0.0611(4) 0.8621(9)
C48 C 0.7106(10) 0.0461(4) 0.9082(9)
H39 H 0.6688 0.0350 0.8941
C49 C 0.7615(11) 0.0484(5) 0.9789(9)
H40 H 0.7555 0.0369 1.0123
C50 C 0.8174(10) 0.0661(4) 0.9999(9)
H41 H 0.8471 0.0690 1.0476
C51 C 0.8300(11) 0.0798(4) 0.9508(9)
H42 H 0.8713 0.0913 0.9651
C52 C 0.6490(10) 0.0843(4) 0.6154(9)
H43 H 0.6607 0.1046 0.6264
H44 H 0.6008 0.0832 0.5767
C53 C 0.6000(10) 0.0496(4) 0.6745(11)
H45 H 0.5611 0.0425 0.6348
C54 C 0.6207(9) 0.0418(4) 0.7452(9)
H46 H 0.6002 0.0276 0.7622
C55 C 0.6826(9) 0.0613(3) 0.7867(9)
C56 C 0.7023(9) 0.0712(4) 0.5923(8)
C57 C 0.7399(10) 0.0450(4) 0.6156(8)
H47 H 0.7303 0.0334 0.6466
C58 C 0.7890(10) 0.0363(4) 0.5946(9)
H48 H 0.8157 0.0194 0.6125
C59 C 0.7988(11) 0.0527(4) 0.5458(10)
H49 H 0.8308 0.0465 0.5282
C60 C 0.7620(10) 0.0786(4) 0.5222(8)
C61 C 0.7793(11) 0.0977(4) 0.4751(9)
H50 H 0.8205 0.1097 0.5037
H51 H 0.7933 0.0857 0.4453
C62 C 0.6990(13) 0.1411(4) 0.4513(12)
H52 H 0.7201 0.1493 0.4961
C63 C 0.6390(12) 0.1519(4) 0.3909(10)
H53 H 0.6111 0.1682 0.3876
C64 C 0.6314(10) 0.1320(4) 0.3368(10)
C65 C 0.5770(10) 0.1298(4) 0.2615(8)
C66 C 0.5248(12) 0.1519(4) 0.2326(12)
H54 H 0.5238 0.1683 0.2578
C67 C 0.4740(10) 0.1231(5) 0.1248(10)
H55 H 0.4395 0.1199 0.0788
C68 C 0.4739(12) 0.1470(5) 0.1615(11)
H56 H 0.4386 0.1610 0.1391
C69 C 0.5318(11) 0.1028(4) 0.1623(11)
H57 H 0.5350 0.0864 0.1381
C70 C 0.8761(10) 0.0986(5) 0.7035(9)
C71 C 0.9071(12) 0.1119(5) 0.6639(9)
H58 H 0.9447 0.1026 0.6589
C72 C 0.8838(15) 0.1382(5) 0.6321(10)
H59 H 0.9032 0.1466 0.6041
C73 C 0.8330(14) 0.1509(6) 0.6433(11)
H60 H 0.8164 0.1689 0.6229
C74 C 0.8041(11) 0.1393(4) 0.6824(9)
H61 H 0.7675 0.1492 0.6881
C75 C 0.8721(10) 0.0182(4) 0.8483(9)
H62 H 0.8567 0.0314 0.8750
H63 H 0.9126 0.0071 0.8817
C76 C 0.9447(11) 0.0294(6) 0.7758(11)
H64 H 0.9737 0.0130 0.7855
C77 C 0.9426(12) 0.0499(5) 0.7334(11)
H65 H 0.9672 0.0502 0.7054
C78 C 0.8971(10) 0.0715(5) 0.7368(9)
C79 C 0.8097(11) -0.0026(4) 0.8070(9)
C80 C 0.7610(10) -0.0107(4) 0.8323(10)
H66 H 0.7655 -0.0043 0.8758
C81 C 0.7067(11) -0.0282(4) 0.7917(9)
H67 H 0.6713 -0.0332 0.8060
C82 C 0.7024(10) -0.0392(4) 0.7285(9)
H68 H 0.6659 -0.0519 0.7010
C83 C 0.7536(10) -0.0304(4) 0.7088(8)
C84 C 0.7569(11) -0.0420(4) 0.6425(9)
H69 H 0.7440 -0.0265 0.6081
H70 H 0.8063 -0.0477 0.6543
C85 C 0.6407(10) -0.0659(5) 0.5526(10)
H71 H 0.6156 -0.0495 0.5292
C86 C 0.6186(11) -0.0929(5) 0.5380(11)
H72 H 0.5745 -0.0992 0.5031
C87 C 0.6737(9) -0.1099(4) 0.5845(9)
C88 C 0.6797(10) -0.1407(4) 0.5936(10)
C89 C 0.6293(12) -0.1595(5) 0.5419(10)
H73 H 0.5917 -0.1517 0.5021
C90 C 0.6358(15) -0.1893(6) 0.5499(12)
H74 H 0.6040 -0.2022 0.5170
C91 C 0.6943(14) -0.1983(5) 0.6120(14)
H75 H 0.7024 -0.2180 0.6215
C92 C 0.7412(12) -0.1780(5) 0.6604(12)
H76 H 0.7788 -0.1852 0.7011
C93 C 0.6977(13) -0.0901(4) 0.1143(10)
C94 C 0.7278(16) -0.0759(5) 0.0756(11)
H77 H 0.7031 -0.0608 0.0452
C95 C 0.7971(19) -0.0847(7) 0.0833(16)
H78 H 0.8200 -0.0746 0.0605
C96 C 0.8310(19) -0.1089(8) 0.1257(17)
H79 H 0.8758 -0.1159 0.1318
C97 C 0.7890(18) -0.1221(5) 0.1595(14)
H80 H 0.8093 -0.1384 0.1870
C98 C 0.5314(14) -0.0554(4) 0.1069(11)
H81 H 0.4923 -0.0427 0.0917
C99 C 0.5828(15) -0.0576(5) 0.0822(12)
H82 H 0.5857 -0.0460 0.0476
C100 C 0.6295(14) -0.0799(5) 0.1167(10)
C101 C 0.7675(10) 0.0330(4) 0.3643(8)
C102 C 0.8239(9) 0.0143(4) 0.3995(9)
H83 H 0.8197 -0.0010 0.4262
C103 C 0.8860(12) 0.0193(4) 0.3933(10)
H84 H 0.9235 0.0059 0.4125
C104 C 0.8963(10) 0.0444(4) 0.3583(10)
H85 H 0.9402 0.0487 0.3576
C105 C 0.8368(10) 0.0610(4) 0.3266(10)
H86 H 0.8391 0.0768 0.3003
C106 C 0.5105(9) 0.0475(4) 0.2867(10)
H87 H 0.5049 0.0521 0.2397
H88 H 0.4738 0.0333 0.2819
C107 C 0.6027(11) 0.0144(4) 0.3765(10)
H89 H 0.5721 0.0055 0.3925
C108 C 0.6775(12) 0.0089(5) 0.4006(10)
H90 H 0.7063 -0.0047 0.4332
C109 C 0.6966(10) 0.0289(4) 0.3637(9)
C110 C 0.9119(10) 0.1428(5) 0.8831(10)
C111 C 0.9707(12) 0.1608(5) 0.9148(11)
H91 H 0.9682 0.1809 0.9148
C112 C 1.0362(14) 0.1444(6) 0.9478(12)
H92 H 1.0796 0.1540 0.9741
C113 C 1.0360(11) 0.1158(6) 0.9416(10)
H93 H 1.0795 0.1058 0.9638
C114 C 0.9732(9) 0.1004(5) 0.9033(9)
H94 H 0.9750 0.0804 0.8987
C115 C 0.6507(12) 0.1466(5) 0.7600(10)
H95 H 0.6503 0.1310 0.7291
H96 H 0.6170 0.1613 0.7311
C116 C 0.7414(13) 0.1864(5) 0.8031(12)
H97 H 0.7109 0.2024 0.7899
C117 C 0.8151(16) 0.1869(4) 0.8375(12)
H98 H 0.8444 0.2032 0.8518
C118 C 0.8383(11) 0.1579(4) 0.8473(10)
C119 C 0.6244(11) 0.1350(4) 0.8113(10)
C120 C 0.6518(12) 0.1466(5) 0.8800(12)
H99 H 0.6879 0.1607 0.8955
C121 C 0.6223(13) 0.1359(5) 0.9242(12)
H100 H 0.6400 0.1418 0.9708
C122 C 0.5676(13) 0.1168(5) 0.8968(11)
H101 H 0.5457 0.1105 0.9247
C123 C 0.5425(11) 0.1060(5) 0.8291(12)
C124 C 0.5137(11) -0.0840(5) 0.2023(11)
H102 H 0.5490 -0.0908 0.2478
H103 H 0.4918 -0.0666 0.2101
C125 C 0.8676(10) -0.0774(4) 0.8410(10)
C126 C 0.9141(10) -0.0610(4) 0.8970(9)
H104 H 0.9056 -0.0571 0.9359
C127 C 0.9721(11) -0.0510(4) 0.8912(9)
H105 H 1.0055 -0.0397 0.9273
C128 C 0.9842(11) -0.0573(4) 0.8304(11)
H106 H 1.0250 -0.0504 0.8268
C129 C 0.9363(10) -0.0728(4) 0.7807(9)
H107 H 0.9433 -0.0765 0.7407
C130 C 0.6391(9) -0.1313(4) 0.7527(11)
H108 H 0.6218 -0.1430 0.7803
H109 H 0.6563 -0.1443 0.7273
C131 C 0.7050(11) -0.0998(4) 0.8619(10)
H110 H 0.6724 -0.1005 0.8815
C132 C 0.7678(12) -0.0856(4) 0.8859(10)
H111 H 0.7874 -0.0746 0.9270
C133 C 0.7998(9) -0.0896(4) 0.8404(8)
C134 C 0.5757(10) -0.1134(4) 0.6993(12)
C135 C 0.5366(10) -0.1249(5) 0.6340(10)
H112 H 0.5487 -0.1424 0.6201
C136 C 0.4769(13) -0.1085(6) 0.5897(10)
H113 H 0.4486 -0.1148 0.5439
C137 C 0.4600(10) -0.0835(5) 0.6132(10)
H114 H 0.4200 -0.0726 0.5838
C138 C 0.4970(10) 0.0744(4) 0.3189(10)
C123B C 0.4575(11) -0.1060(5) 0.1709(12)
N38B N 0.4304(8) -0.1162(4) 0.2135(9)
C119B C 0.3756(11) -0.1350(4) 0.1887(10)
C115B C 0.3493(12) -0.1466(5) 0.2400(10)
N37B N 0.2787(9) -0.1589(4) 0.2081(9)
N36B N 0.2204(8) -0.1396(3) 0.1813(8)
Zn2B Zn 0.19430(11) -0.09671(5) 0.20008(10)
N15B N 0.2142(7) -0.0779(3) 0.1184(7)
C47B C 0.2734(9) -0.0611(4) 0.1379(9)
C48B C 0.2894(10) -0.0461(4) 0.0918(9)
H39B H 0.3312 -0.0350 0.1059
C49B C 0.2385(11) -0.0484(5) 0.0211(9)
H40B H 0.2445 -0.0369 -0.0123
C50B C 0.1826(10) -0.0661(4) 0.0001(9)
H41B H 0.1529 -0.0690 -0.0476
C51B C 0.1700(11) -0.0798(4) 0.0492(9)
H42B H 0.1287 -0.0913 0.0349
C55B C 0.3174(9) -0.0613(3) 0.2133(9)
N16B N 0.2999(7) -0.0764(3) 0.2574(6)
N22B N 0.1735(8) -0.1134(3) 0.2858(7)
C70B C 0.1239(10) -0.0986(5) 0.2965(9)
C71B C 0.0929(12) -0.1119(5) 0.3361(9)
H58B H 0.0553 -0.1026 0.3411
C72B C 0.1162(15) -0.1382(5) 0.3679(10)
H59B H 0.0968 -0.1466 0.3959
C73B C 0.1670(14) -0.1509(6) 0.3567(11)
H60B H 0.1836 -0.1689 0.3771
C74B C 0.1959(11) -0.1393(4) 0.3176(9)
H61B H 0.2325 -0.1492 0.3119
C78B C 0.1029(10) -0.0715(5) 0.2632(9)
N23B N 0.1325(8) -0.0610(4) 0.2188(7)
N35B N 0.0893(9) -0.1142(4) 0.1268(7)
C110B C 0.0881(10) -0.1428(5) 0.1169(10)
C111B C 0.0293(12) -0.1608(5) 0.0852(11)
H91B H 0.0318 -0.1809 0.0852
C112B C -0.0362(14) -0.1444(6) 0.0522(12)
H92B H -0.0796 -0.1540 0.0259
C113B C -0.0360(11) -0.1158(6) 0.0584(10)
H93B H -0.0795 -0.1058 0.0362
C114B C 0.0268(9) -0.1004(5) 0.0967(9)
H94B H 0.0250 -0.0804 0.1013
C118B C 0.1617(11) -0.1579(4) 0.1527(10)
C117B C 0.1849(16) -0.1869(4) 0.1625(12)
C116B C 0.2586(13) -0.1864(5) 0.1969(12)
H97B H 0.2891 -0.2024 0.2101
H98B H 0.1556 -0.2032 0.1482
N24B N 0.1026(8) -0.0355(3) 0.1952(7)
C75B C 0.1279(10) -0.0182(4) 0.1517(9)
H62B H 0.1433 -0.0314 0.1250
H63B H 0.0874 -0.0071 0.1183
C79B C 0.1903(11) 0.0026(4) 0.1930(9)
N25B N 0.1918(8) 0.0119(3) 0.2543(7)
C83B C 0.2464(10) 0.0304(4) 0.2912(8)
C82B C 0.2976(10) 0.0392(4) 0.2715(9)
C81B C 0.2933(11) 0.0282(4) 0.2083(9)
C80B C 0.2390(10) 0.0107(4) 0.1677(10)
H66B H 0.2345 0.0043 0.1242
H67B H 0.3287 0.0332 0.1940
H68B H 0.3341 0.0519 0.2990
C84B C 0.2431(11) 0.0420(4) 0.3575(9)
N27B N 0.2905(8) 0.0667(4) 0.3894(7)
N26B N 0.2685(7) 0.0941(3) 0.3698(7)
Zn3B Zn 0.19419(11) 0.11788(5) 0.28120(11)
N12B N 0.1083(9) 0.1303(4) 0.3127(8)
N13B N 0.0806(9) 0.1207(4) 0.3553(7)
C38B C 0.1270(11) 0.1092(5) 0.4228(9)
C37B C 0.1783(11) 0.1308(4) 0.4737(10)
N11B N 0.2404(8) 0.1226(3) 0.5223(7)
C33B C 0.2859(10) 0.1409(4) 0.5697(9)
C29B C 0.3558(10) 0.1283(4) 0.6207(9)
N10B N 0.3996(7) 0.1456(3) 0.6771(7)
N9B N 0.3917(8) 0.1460(3) 0.7386(6)
Zn4B Zn 0.32395(12) 0.12942(5) 0.78341(11)
N1B N 0.2453(9) 0.1624(4) 0.7349(10)
C1B C 0.1876(14) 0.1549(5) 0.6801(13)
C2B C 0.1236(17) 0.1733(6) 0.6359(17)
H1B H 0.0817 0.1669 0.5979
C3B C 0.136(2) 0.1986(10) 0.659(2)
H2B H 0.1034 0.2123 0.6302
C4B C 0.196(2) 0.2107(7) 0.725(2)
H3B H 0.1964 0.2296 0.7408
C5B C 0.2542(18) 0.1888(6) 0.762(2)
H4B H 0.2953 0.1936 0.8025
C9B C 0.1832(11) 0.1241(5) 0.6570(10)
N2B N 0.2422(8) 0.1073(4) 0.6903(7)
N8B N 0.3950(10) 0.1583(4) 0.8617(8)
C24B C 0.4398(12) 0.1737(5) 0.8478(10)
C25B C 0.4929(14) 0.1910(4) 0.8940(10)
H20B H 0.5250 0.2004 0.8806
C26B C 0.4984(15) 0.1944(5) 0.9624(13)
H21B H 0.5345 0.2059 0.9958
C27B C 0.4468(14) 0.1798(5) 0.9785(11)
H22B H 0.4469 0.1818 1.0224
C28B C 0.3961(15) 0.1623(5) 0.9270(12)
H23B H 0.3614 0.1530 0.9368
C32B C 0.4386(10) 0.1686(4) 0.7772(9)
C31B C 0.4742(10) 0.1797(4) 0.7411(9)
C30B C 0.4485(10) 0.1657(4) 0.6796(9)
H26B H 0.4622 0.1693 0.6438
H27B H 0.5093 0.1941 0.7563
N29B N 0.2738(11) 0.1136(4) 0.8444(9)
C93B C 0.3023(13) 0.0901(4) 0.8857(10)
C94B C 0.2722(16) 0.0759(5) 0.9244(11)
H77B H 0.2969 0.0608 0.9548
C95B C 0.2029(19) 0.0847(7) 0.9167(16)
H78B H 0.1800 0.0746 0.9395
C96B C 0.1690(19) 0.1089(8) 0.8743(17)
H79B H 0.1242 0.1159 0.8682
C97B C 0.2110(18) 0.1221(5) 0.8405(14)
H80B H 0.1907 0.1384 0.8130
C100B C 0.3705(14) 0.0799(5) 0.8833(10)
N30B N 0.3902(9) 0.0915(3) 0.8347(7)
N31B N 0.4489(9) 0.0765(4) 0.8398(9)
C98B C 0.4686(14) 0.0554(4) 0.8931(11)
H81B H 0.5077 0.0427 0.9083
C99B C 0.4172(15) 0.0576(5) 0.9178(12)
H82B H 0.4143 0.0460 0.9524
C124B C 0.4863(11) 0.0840(5) 0.7977(11)
C138B C 0.5030(10) -0.0744(4) 0.6811(10)
C106B C 0.4895(9) -0.0475(4) 0.7133(10)
N34B N 0.4155(8) -0.0341(4) 0.6718(8)
N33B N 0.3587(8) -0.0439(3) 0.6815(7)
Zn1B Zn 0.32216(11) -0.08157(5) 0.72105(10)
N5B N 0.3288(8) -0.0683(3) 0.8232(7)
N6B N 0.3574(9) -0.0469(3) 0.8706(8)
C15B C 0.3753(10) -0.0200(4) 0.8495(10)
C14B C 0.3107(11) 0.0003(4) 0.8178(9)
N4B N 0.3178(8) 0.0192(3) 0.7693(7)
C10B C 0.2642(9) 0.0384(4) 0.7381(8)
C6B C 0.2734(10) 0.0573(4) 0.6835(9)
N3B N 0.2251(8) 0.0811(3) 0.6592(8)
C7B C 0.1590(11) 0.0803(5) 0.6075(10)
H7B H 0.1381 0.0643 0.5793
C8B C 0.1259(11) 0.1062(5) 0.6013(9)
H8B H 0.0791 0.1115 0.5701
H5B H 0.2668 0.0453 0.6434
H6B H 0.3226 0.0646 0.7036
C11B C 0.2021(11) 0.0394(4) 0.7510(9)
H9B H 0.1657 0.0529 0.7280
C12B C 0.1963(11) 0.0203(4) 0.7974(10)
H10B H 0.1561 0.0204 0.8068
C13B C 0.2531(11) 0.0002(4) 0.8308(10)
H11B H 0.2501 -0.0133 0.8621
H12B H 0.4133 -0.0107 0.8901
H13B H 0.3939 -0.0235 0.8151
C18B C 0.3569(11) -0.0536(4) 0.9337(10)
C16B C 0.3277(12) -0.0794(5) 0.9263(9)
H14B H 0.3210 -0.0897 0.9609
C17B C 0.3079(10) -0.0892(4) 0.8554(10)
C19B C 0.2763(10) -0.1154(4) 0.8171(9)
N7B N 0.2685(8) -0.1159(3) 0.7516(8)
N19B N 0.3223(8) -0.1093(3) 0.6395(7)
N20B N 0.2813(8) -0.1166(3) 0.5701(7)
C61B C 0.2207(11) -0.0977(4) 0.5249(9)
C60B C 0.2380(10) -0.0786(4) 0.4778(8)
N18B N 0.2846(8) -0.0878(3) 0.4551(7)
C56B C 0.2977(9) -0.0712(4) 0.4077(8)
C52B C 0.3510(10) -0.0843(4) 0.3846(9)
N17B N 0.3511(7) -0.0698(3) 0.3234(7)
C53B C 0.4000(10) -0.0496(4) 0.3255(11)
H45B H 0.4389 -0.0425 0.3652
C54B C 0.3793(9) -0.0418(4) 0.2548(9)
H46B H 0.3998 -0.0276 0.2378
H43B H 0.3393 -0.1046 0.3736
H44B H 0.3992 -0.0832 0.4233
C57B C 0.2601(10) -0.0450(4) 0.3844(8)
H47B H 0.2697 -0.0334 0.3534
C58B C 0.2110(10) -0.0363(4) 0.4054(9)
H48B H 0.1843 -0.0194 0.3875
C59B C 0.2012(11) -0.0527(4) 0.4542(10)
H49B H 0.1692 -0.0465 0.4718
H50B H 0.1795 -0.1097 0.4963
H51B H 0.2067 -0.0857 0.5547
C62B C 0.3010(13) -0.1411(4) 0.5487(12)
H52B H 0.2799 -0.1493 0.5039
C63B C 0.3610(12) -0.1519(4) 0.6091(10)
H53B H 0.3889 -0.1682 0.6124
C64B C 0.3686(10) -0.1320(4) 0.6632(10)
C65B C 0.4230(10) -0.1298(4) 0.7385(8)
N21B N 0.4197(7) -0.1057(3) 0.7717(6)
N32B N 0.2273(8) -0.0559(3) 0.6690(7)
C101B C 0.2325(10) -0.0330(4) 0.6357(8)
C102B C 0.1761(9) -0.0143(4) 0.6005(9)
H83B H 0.1803 0.0010 0.5738
C103B C 0.1140(12) -0.0193(4) 0.6067(10)
H84B H 0.0765 -0.0059 0.5875
C104B C 0.1037(10) -0.0444(4) 0.6417(10)
H85B H 0.0598 -0.0487 0.6424
C105B C 0.1632(10) -0.0610(4) 0.6734(10)
H86B H 0.1609 -0.0768 0.6997
C109B C 0.3034(10) -0.0289(4) 0.6363(9)
C108B C 0.3225(12) -0.0089(5) 0.5994(10)
C107B C 0.3973(11) -0.0144(4) 0.6235(10)
H89B H 0.4279 -0.0055 0.6075
H90B H 0.2937 0.0047 0.5668
C69B C 0.4682(11) -0.1028(4) 0.8377(11)
C67B C 0.5260(10) -0.1231(5) 0.8752(10)
H55B H 0.5605 -0.1199 0.9212
C68B C 0.5261(12) -0.1470(5) 0.8385(11)
C66B C 0.4752(12) -0.1519(4) 0.7674(12)
H54B H 0.4762 -0.1683 0.7422
H56B H 0.5614 -0.1610 0.8609
H57B H 0.4650 -0.0864 0.8619
C23B C 0.2381(11) -0.1391(5) 0.7126(10)
C22B C 0.2075(13) -0.1626(5) 0.7362(15)
C21B C 0.2147(14) -0.1597(7) 0.8045(15)
C20B C 0.2505(15) -0.1370(5) 0.8436(13)
H16B H 0.2581 -0.1360 0.8904
H17B H 0.1946 -0.1736 0.8229
H18B H 0.1848 -0.1784 0.7078
H19B H 0.2364 -0.1402 0.6679
H15B H 0.3739 -0.0421 0.9739
H87B H 0.4951 -0.0521 0.7603
H88B H 0.5262 -0.0333 0.7181
N42B N 0.4390(7) 0.0895(3) 0.2752(7)
C134B C 0.4243(10) 0.1134(4) 0.3007(12)
C130B C 0.3609(9) 0.1313(4) 0.2473(11)
N41B N 0.3007(8) 0.1135(3) 0.1999(7)
N40B N 0.2441(7) 0.1058(3) 0.2143(7)
N14B N 0.1310(9) 0.1493(4) 0.2019(7)
C42B C 0.0684(13) 0.1580(7) 0.2048(10)
C41B C 0.0548(12) 0.1442(6) 0.2605(11)
C40B C -0.0047(12) 0.1445(7) 0.2723(13)
C39B C 0.0120(12) 0.1291(7) 0.3346(12)
H33B H -0.0177 0.1256 0.3566
H34B H -0.0486 0.1533 0.2441
C43B C 0.0187(19) 0.1774(8) 0.1589(15)
H35B H -0.0253 0.1817 0.1594
C44B C 0.042(2) 0.1901(8) 0.1108(18)
H36B H 0.0124 0.2038 0.0790
C45B C 0.1072(18) 0.1828(5) 0.1095(12)
H37B H 0.1214 0.1921 0.0786
C46B C 0.1502(14) 0.1618(4) 0.1537(10)
H38B H 0.1923 0.1561 0.1511
N28B N 0.2640(8) 0.1504(4) 0.3476(8)
C88B C 0.3203(10) 0.1407(4) 0.4064(10)
C87B C 0.3263(9) 0.1099(4) 0.4155(9)
C86B C 0.3814(11) 0.0929(5) 0.4620(11)
C85B C 0.3593(10) 0.0659(5) 0.4474(10)
H71B H 0.3844 0.0495 0.4708
H72B H 0.4255 0.0992 0.4969
C89B C 0.3707(12) 0.1595(5) 0.4581(10)
H73B H 0.4083 0.1517 0.4979
C90B C 0.3642(15) 0.1893(6) 0.4501(12)
H74B H 0.3960 0.2022 0.4830
C91B C 0.3057(14) 0.1983(5) 0.3880(14)
H75B H 0.2976 0.2180 0.3785
C92B C 0.2588(12) 0.1780(5) 0.3396(12)
H76B H 0.2212 0.1852 0.2989
N39B N 0.1235(8) 0.0841(3) 0.2166(7)
C125B C 0.1324(10) 0.0774(4) 0.1590(10)
C126B C 0.0859(10) 0.0610(4) 0.1030(9)
H104B H 0.0944 0.0571 0.0641
C127B C 0.0279(11) 0.0510(4) 0.1088(9)
H105B H -0.0055 0.0397 0.0727
C128B C 0.0158(11) 0.0573(4) 0.1696(11)
H106B H -0.0250 0.0504 0.1732
C129B C 0.0637(10) 0.0728(4) 0.2193(9)
H107B H 0.0567 0.0765 0.2593
C133B C 0.2002(9) 0.0896(4) 0.1596(8)
C132B C 0.2322(12) 0.0856(4) 0.1141(10)
C131B C 0.2950(11) 0.0998(4) 0.1381(10)
H110B H 0.3276 0.1005 0.1185
H111B H 0.2126 0.0746 0.0730
H108B H 0.3782 0.1430 0.2197
H109B H 0.3437 0.1443 0.2727
C135B C 0.4634(10) 0.1249(5) 0.3660(10)
H112B H 0.4513 0.1424 0.3799
C136B C 0.5231(13) 0.1085(6) 0.4103(10)
H113B H 0.5514 0.1148 0.4561
C137B C 0.5400(10) 0.0835(5) 0.3868(10)
H114B H 0.5800 0.0726 0.4162
H102B H 0.4510 0.0908 0.7522
H103B H 0.5082 0.0666 0.7899
H24B H 0.3832 0.1230 0.5950
H25B H 0.3454 0.1106 0.6394
C34B C 0.2703(11) 0.1702(4) 0.5685(9)
H28B H 0.3034 0.1830 0.6006
C35B C 0.2063(14) 0.1796(5) 0.5198(12)
H29B H 0.1917 0.1987 0.5186
C36B C 0.1601(12) 0.1582(6) 0.4681(10)
H30B H 0.1173 0.1642 0.4309
H31B H 0.0972 0.1010 0.4435
H32B H 0.1551 0.0935 0.4165
H69B H 0.2560 0.0265 0.3919
H70B H 0.1937 0.0477 0.3457
C76B C 0.0553(11) -0.0294(6) 0.2242(11)
H64B H 0.0263 -0.0130 0.2145
C77B C 0.0574(12) -0.0499(5) 0.2666(11)
H65B H 0.0328 -0.0502 0.2946
H95B H 0.3497 -0.1310 0.2709
H96B H 0.3830 -0.1613 0.2689
C120B C 0.3482(12) -0.1466(5) 0.1200(12)
H99B H 0.3121 -0.1607 0.1045
C121B C 0.3777(13) -0.1359(5) 0.0758(12)
H100B H 0.3600 -0.1418 0.0292
C122B C 0.4324(13) -0.1168(5) 0.1032(11)
H101B H 0.4543 -0.1105 0.0753
O21? O 0.4744(15) 0.0207(6) 0.5353(14)
O23? O 0.4836(15) -0.0300(6) 0.4978(14)
loop_
_geom_bond_atom_site_label_1
_geom_bond_atom_site_label_2
_geom_bond_site_symmetry_1
_geom_bond_site_symmetry_2
Zn1 N5 1_555 1_555
Zn2 N15 1_555 1_555
Zn3 N12 1_555 1_555
Zn4 N1 1_555 1_555
N1 C1 1_555 1_555
N2 Zn4 1_555 1_555
N3 N2 1_555 1_555
N4 C10 1_555 1_555
N5 N6 1_555 1_555
N6 C15 1_555 1_555
N7 Zn1 1_555 1_555
N8 Zn4 1_555 1_555
N9 Zn4 1_555 1_555
N10 N9 1_555 1_555
N11 C33 1_555 1_555
N12 N13 1_555 1_555
N13 C38 1_555 1_555
N14 Zn3 1_555 1_555
N15 C47 1_555 1_555
N16 Zn2 1_555 1_555
N17 N16 1_555 1_555
N18 C56 1_555 1_555
N19 Zn1 1_555 1_555
N20 N19 1_555 1_555
N21 Zn1 1_555 1_555
N22 Zn2 1_555 1_555
N23 Zn2 1_555 1_555
N24 N23 1_555 1_555
N25 C79 1_555 1_555
N26 Zn3 1_555 1_555
N27 N26 1_555 1_555
N28 Zn3 1_555 1_555
N29 Zn4 1_555 1_555
N30 Zn4 1_555 1_555
N31 N30 1_555 1_555
N32 Zn1 1_555 1_555
N33 Zn1 1_555 1_555
N34 N33 1_555 1_555
N35 Zn2 1_555 1_555
N36 Zn2 1_555 1_555
N37 N36 1_555 1_555
N38 C119 1_555 1_555
N39 Zn3 1_555 1_555
N40 Zn3 1_555 1_555
N41 N40 1_555 1_555
N42 C134 1_555 1_555
C1 C2 1_555 1_555
C2 H1 1_555 1_555
C3 C2 1_555 1_555
H2 C3 1_555 1_555
C4 C3 1_555 1_555
H3 C4 1_555 1_555
C5 N1 1_555 1_555
H4 C5 1_555 1_555
C6 N3 1_555 1_555
H5 C6 1_555 1_555
H6 C6 1_555 1_555
C7 N3 1_555 1_555
H7 C7 1_555 1_555
C8 C7 1_555 1_555
H8 C8 1_555 1_555
C9 N2 1_555 1_555
C10 C6 1_555 1_555
C11 C10 1_555 1_555
H9 C11 1_555 1_555
C12 C11 1_555 1_555
H10 C12 1_555 1_555
C13 C12 1_555 1_555
H11 C13 1_555 1_555
C14 N4 1_555 1_555
C15 C14 1_555 1_555
H12 C15 1_555 1_555
H13 C15 1_555 1_555
C16 H14 1_555 1_555
C17 N5 1_555 1_555
C18 N6 1_555 1_555
H15 C18 1_555 1_555
C19 N7 1_555 1_555
C20 C19 1_555 1_555
H16 C20 1_555 1_555
C21 C20 1_555 1_555
H17 C21 1_555 1_555
C22 C21 1_555 1_555
H18 C22 1_555 1_555
C23 N7 1_555 1_555
H19 C23 1_555 1_555
C24 N8 1_555 1_555
C25 C24 1_555 1_555
H20 C25 1_555 1_555
C26 C25 1_555 1_555
H21 C26 1_555 1_555
C27 C26 1_555 1_555
H22 C27 1_555 1_555
C28 N8 1_555 1_555
H23 C28 1_555 1_555
C29 N10 1_555 1_555
H24 C29 1_555 1_555
H25 C29 1_555 1_555
C30 N10 1_555 1_555
H26 C30 1_555 1_555
C31 C30 1_555 1_555
H27 C31 1_555 1_555
C32 N9 1_555 1_555
C33 C29 1_555 1_555
C34 C33 1_555 1_555
H28 C34 1_555 1_555
C35 C34 1_555 1_555
H29 C35 1_555 1_555
C36 C35 1_555 1_555
H30 C36 1_555 1_555
C37 N11 1_555 1_555
C38 C37 1_555 1_555
H31 C38 1_555 1_555
H32 C38 1_555 1_555
C39 N13 1_555 1_555
H33 C39 1_555 1_555
C40 C39 1_555 1_555
H34 C40 1_555 1_555
C41 N12 1_555 1_555
C42 N14 1_555 1_555
C43 C42 1_555 1_555
H35 C43 1_555 1_555
C44 C43 1_555 1_555
H36 C44 1_555 1_555
C45 C44 1_555 1_555
H37 C45 1_555 1_555
C46 N14 1_555 1_555
H38 C46 1_555 1_555
C47 C48 1_555 1_555
C48 H39 1_555 1_555
C49 C48 1_555 1_555
H40 C49 1_555 1_555
C50 C49 1_555 1_555
H41 C50 1_555 1_555
C51 N15 1_555 1_555
H42 C51 1_555 1_555
C52 N17 1_555 1_555
H43 C52 1_555 1_555
H44 C52 1_555 1_555
C53 N17 1_555 1_555
H45 C53 1_555 1_555
C54 C53 1_555 1_555
H46 C54 1_555 1_555
C55 N16 1_555 1_555
C56 C52 1_555 1_555
C57 C56 1_555 1_555
H47 C57 1_555 1_555
C58 C57 1_555 1_555
H48 C58 1_555 1_555
C59 C58 1_555 1_555
H49 C59 1_555 1_555
C60 N18 1_555 1_555
C61 N20 1_555 1_555
H50 C61 1_555 1_555
H51 C61 1_555 1_555
C62 N20 1_555 1_555
H52 C62 1_555 1_555
C63 C62 1_555 1_555
H53 C63 1_555 1_555
C64 N19 1_555 1_555
C65 N21 1_555 1_555
C66 C65 1_555 1_555
H54 C66 1_555 1_555
C67 H55 1_555 1_555
C68 C66 1_555 1_555
H56 C68 1_555 1_555
C69 N21 1_555 1_555
H57 C69 1_555 1_555
C70 N22 1_555 1_555
C71 C70 1_555 1_555
H58 C71 1_555 1_555
C72 C71 1_555 1_555
H59 C72 1_555 1_555
C73 C72 1_555 1_555
H60 C73 1_555 1_555
C74 N22 1_555 1_555
H61 C74 1_555 1_555
C75 N24 1_555 1_555
H62 C75 1_555 1_555
H63 C75 1_555 1_555
C76 N24 1_555 1_555
H64 C76 1_555 1_555
C77 C76 1_555 1_555
H65 C77 1_555 1_555
C78 N23 1_555 1_555
C79 C75 1_555 1_555
C80 C79 1_555 1_555
H66 C80 1_555 1_555
C81 C80 1_555 1_555
H67 C81 1_555 1_555
C82 C81 1_555 1_555
H68 C82 1_555 1_555
C83 N25 1_555 1_555
C84 N27 1_555 1_555
H69 C84 1_555 1_555
H70 C84 1_555 1_555
C85 N27 1_555 1_555
H71 C85 1_555 1_555
C86 C85 1_555 1_555
H72 C86 1_555 1_555
C87 N26 1_555 1_555
C88 N28 1_555 1_555
C89 C88 1_555 1_555
H73 C89 1_555 1_555
C90 C89 1_555 1_555
H74 C90 1_555 1_555
C91 C90 1_555 1_555
H75 C91 1_555 1_555
C92 N28 1_555 1_555
H76 C92 1_555 1_555
C93 N29 1_555 1_555
C94 C93 1_555 1_555
H77 C94 1_555 1_555
C95 C94 1_555 1_555
H78 C95 1_555 1_555
C96 C95 1_555 1_555
H79 C96 1_555 1_555
C97 N29 1_555 1_555
H80 C97 1_555 1_555
C98 N31 1_555 1_555
H81 C98 1_555 1_555
C99 C98 1_555 1_555
H82 C99 1_555 1_555
C100 N30 1_555 1_555
C101 N32 1_555 1_555
C102 C101 1_555 1_555
H83 C102 1_555 1_555
C103 C102 1_555 1_555
H84 C103 1_555 1_555
C104 C103 1_555 1_555
H85 C104 1_555 1_555
C105 N32 1_555 1_555
H86 C105 1_555 1_555
C106 N34 1_555 1_555
H87 C106 1_555 1_555
H88 C106 1_555 1_555
C107 N34 1_555 1_555
H89 C107 1_555 1_555
C108 C107 1_555 1_555
H90 C108 1_555 1_555
C109 N33 1_555 1_555
C110 N35 1_555 1_555
C111 C110 1_555 1_555
H91 C111 1_555 1_555
C112 C111 1_555 1_555
H92 C112 1_555 1_555
C113 C112 1_555 1_555
H93 C113 1_555 1_555
C114 N35 1_555 1_555
H94 C114 1_555 1_555
C115 N37 1_555 1_555
H95 C115 1_555 1_555
H96 C115 1_555 1_555
C116 N37 1_555 1_555
H97 C116 1_555 1_555
C117 C116 1_555 1_555
H98 C117 1_555 1_555
C118 N36 1_555 1_555
C119 C115 1_555 1_555
C120 C119 1_555 1_555
H99 C120 1_555 1_555
C121 C120 1_555 1_555
H100 C121 1_555 1_555
C122 C121 1_555 1_555
H101 C122 1_555 1_555
C123 N38 1_555 1_555
C124 N31 1_555 1_555
H102 C124 1_555 1_555
H103 C124 1_555 1_555
C125 N39 1_555 1_555
C126 C125 1_555 1_555
H104 C126 1_555 1_555
C127 C126 1_555 1_555
H105 C127 1_555 1_555
C128 C127 1_555 1_555
H106 C128 1_555 1_555
C129 N39 1_555 1_555
H107 C129 1_555 1_555
C130 N41 1_555 1_555
H108 C130 1_555 1_555
H109 C130 1_555 1_555
C131 N41 1_555 1_555
H110 C131 1_555 1_555
C132 C131 1_555 1_555
H111 C132 1_555 1_555
C133 N40 1_555 1_555
C134 C130 1_555 1_555
C135 C134 1_555 1_555
H112 C135 1_555 1_555
C136 C135 1_555 1_555
H113 C136 1_555 1_555
C137 C136 1_555 1_555
H114 C137 1_555 1_555
C138 C106 1_555 1_555
Cl1 O1 1_555 1_555
Cl2 O5 1_555 1_555
Cl3 O9 1_555 1_555
Cl4 O13 1_555 1_555
Cl5 O17 1_555 1_555
Cl6 O22 1_555 1_555
Cl7 O25 1_555 1_555
Cl8 O29 1_555 1_555
Cl9 O32 1_555 1_555
O2 Cl1 1_555 1_555
O3 Cl1 1_555 1_555
O4 Cl1 1_555 1_555
O6 Cl2 1_555 1_555
O7 Cl2 1_555 1_555
O8 Cl2 1_555 1_555
O10 Cl3 1_555 1_555
O11 Cl3 1_555 1_555
O12 Cl3 1_555 1_555
O14 Cl4 1_555 1_555
O15 Cl4 1_555 1_555
O16 Cl4 1_555 1_555
O18 Cl5 1_555 1_555
O19 Cl5 1_555 1_555
O20 Cl5 1_555 1_555
O24 Cl6 1_555 1_555
O26 Cl7 1_555 1_555
O27 Cl7 1_555 1_555
O28 Cl7 1_555 1_555
O30 Cl8 1_555 1_555
O31 Cl8 1_555 1_555
O33 Cl9 1_555 1_555
O34 Cl9 1_555 1_555
O35 Cl9 1_555 1_555
C123B C124 1_555 1_555
N38B C123B 1_555 1_555
C119B N38B 1_555 1_555
C115B C119B 1_555 1_555
N37B C115B 1_555 1_555
N36B N37B 1_555 1_555
Zn2B N36B 1_555 1_555
N15B Zn2B 1_555 1_555
C47B N15B 1_555 1_555
C48B C47B 1_555 1_555
H39B C48B 1_555 1_555
C49B C48B 1_555 1_555
H40B C49B 1_555 1_555
C50B C49B 1_555 1_555
H41B C50B 1_555 1_555
C51B N15B 1_555 1_555
H42B C51B 1_555 1_555
C55B C47B 1_555 1_555
N16B Zn2B 1_555 1_555
N22B Zn2B 1_555 1_555
C70B N22B 1_555 1_555
C71B C70B 1_555 1_555
H58B C71B 1_555 1_555
C72B C71B 1_555 1_555
H59B C72B 1_555 1_555
C73B C72B 1_555 1_555
H60B C73B 1_555 1_555
C74B N22B 1_555 1_555
H61B C74B 1_555 1_555
C78B C70B 1_555 1_555
N23B Zn2B 1_555 1_555
N35B Zn2B 1_555 1_555
C110B N35B 1_555 1_555
C111B C110B 1_555 1_555
H91B C111B 1_555 1_555
C112B C111B 1_555 1_555
H92B C112B 1_555 1_555
C113B C112B 1_555 1_555
H93B C113B 1_555 1_555
C114B N35B 1_555 1_555
H94B C114B 1_555 1_555
C118B N36B 1_555 1_555
C117B C118B 1_555 1_555
C116B N37B 1_555 1_555
H97B C116B 1_555 1_555
H98B C117B 1_555 1_555
N24B N23B 1_555 1_555
C75B N24B 1_555 1_555
H62B C75B 1_555 1_555
H63B C75B 1_555 1_555
C79B C75B 1_555 1_555
N25B C79B 1_555 1_555
C83B N25B 1_555 1_555
C82B C83B 1_555 1_555
C81B C82B 1_555 1_555
C80B C79B 1_555 1_555
H66B C80B 1_555 1_555
H67B C81B 1_555 1_555
H68B C82B 1_555 1_555
C84B C83B 1_555 1_555
N27B C84B 1_555 1_555
N26B N27B 1_555 1_555
Zn3B N26B 1_555 1_555
N12B Zn3B 1_555 1_555
N13B N12B 1_555 1_555
C38B N13B 1_555 1_555
C37B C38B 1_555 1_555
N11B C37B 1_555 1_555
C33B N11B 1_555 1_555
C29B C33B 1_555 1_555
N10B C29B 1_555 1_555
N9B N10B 1_555 1_555
Zn4B N9B 1_555 1_555
N1B Zn4B 1_555 1_555
C1B N1B 1_555 1_555
C2B C1B 1_555 1_555
H1B C2B 1_555 1_555
C3B C2B 1_555 1_555
H2B C3B 1_555 1_555
C4B C3B 1_555 1_555
H3B C4B 1_555 1_555
C5B N1B 1_555 1_555
H4B C5B 1_555 1_555
C9B C1B 1_555 1_555
N2B Zn4B 1_555 1_555
N8B Zn4B 1_555 1_555
C24B N8B 1_555 1_555
C25B C24B 1_555 1_555
H20B C25B 1_555 1_555
C26B C25B 1_555 1_555
H21B C26B 1_555 1_555
C27B C26B 1_555 1_555
H22B C27B 1_555 1_555
C28B N8B 1_555 1_555
H23B C28B 1_555 1_555
C32B N9B 1_555 1_555
C31B C32B 1_555 1_555
C30B N10B 1_555 1_555
H26B C30B 1_555 1_555
H27B C31B 1_555 1_555
N29B Zn4B 1_555 1_555
C93B N29B 1_555 1_555
C94B C93B 1_555 1_555
H77B C94B 1_555 1_555
C95B C94B 1_555 1_555
H78B C95B 1_555 1_555
C96B C95B 1_555 1_555
H79B C96B 1_555 1_555
C97B N29B 1_555 1_555
H80B C97B 1_555 1_555
C100B C93B 1_555 1_555
N30B Zn4B 1_555 1_555
N31B N30B 1_555 1_555
C98B N31B 1_555 1_555
H81B C98B 1_555 1_555
C99B C100B 1_555 1_555
H82B C99B 1_555 1_555
C124B C123 1_555 1_555
C138B N42 1_555 1_555
C106B C138B 1_555 1_555
N34B C106B 1_555 1_555
N33B N34B 1_555 1_555
Zn1B N33B 1_555 1_555
N5B Zn1B 1_555 1_555
N6B N5B 1_555 1_555
C15B N6B 1_555 1_555
C14B C15B 1_555 1_555
N4B C14B 1_555 1_555
C10B N4B 1_555 1_555
C6B C10B 1_555 1_555
N3B N2B 1_555 1_555
C7B N3B 1_555 1_555
H7B C7B 1_555 1_555
C8B C9B 1_555 1_555
H8B C8B 1_555 1_555
H5B C6B 1_555 1_555
H6B C6B 1_555 1_555
C11B C10B 1_555 1_555
H9B C11B 1_555 1_555
C12B C11B 1_555 1_555
H10B C12B 1_555 1_555
C13B C14B 1_555 1_555
H11B C13B 1_555 1_555
H12B C15B 1_555 1_555
H13B C15B 1_555 1_555
C18B N6B 1_555 1_555
C16B C18B 1_555 1_555
H14B C16B 1_555 1_555
C17B N5B 1_555 1_555
C19B C17B 1_555 1_555
N7B Zn1B 1_555 1_555
N19B Zn1B 1_555 1_555
N20B N19B 1_555 1_555
C61B N20B 1_555 1_555
C60B C61B 1_555 1_555
N18B C60B 1_555 1_555
C56B N18B 1_555 1_555
C52B C56B 1_555 1_555
N17B N16B 1_555 1_555
C53B N17B 1_555 1_555
H45B C53B 1_555 1_555
C54B C55B 1_555 1_555
H46B C54B 1_555 1_555
H43B C52B 1_555 1_555
H44B C52B 1_555 1_555
C57B C56B 1_555 1_555
H47B C57B 1_555 1_555
C58B C57B 1_555 1_555
H48B C58B 1_555 1_555
C59B C60B 1_555 1_555
H49B C59B 1_555 1_555
H50B C61B 1_555 1_555
H51B C61B 1_555 1_555
C62B N20B 1_555 1_555
H52B C62B 1_555 1_555
C63B C62B 1_555 1_555
H53B C63B 1_555 1_555
C64B N19B 1_555 1_555
C65B C64B 1_555 1_555
N21B Zn1B 1_555 1_555
N32B Zn1B 1_555 1_555
C101B N32B 1_555 1_555
C102B C101B 1_555 1_555
H83B C102B 1_555 1_555
C103B C102B 1_555 1_555
H84B C103B 1_555 1_555
C104B C103B 1_555 1_555
H85B C104B 1_555 1_555
C105B N32B 1_555 1_555
H86B C105B 1_555 1_555
C109B N33B 1_555 1_555
C108B C109B 1_555 1_555
C107B N34B 1_555 1_555
H89B C107B 1_555 1_555
H90B C108B 1_555 1_555
C69B N21B 1_555 1_555
C67B C69B 1_555 1_555
H55B C67B 1_555 1_555
C68B C67B 1_555 1_555
C66B C65B 1_555 1_555
H54B C66B 1_555 1_555
H56B C68B 1_555 1_555
H57B C69B 1_555 1_555
C23B N7B 1_555 1_555
C22B C23B 1_555 1_555
C21B C22B 1_555 1_555
C20B C19B 1_555 1_555
H16B C20B 1_555 1_555
H17B C21B 1_555 1_555
H18B C22B 1_555 1_555
H19B C23B 1_555 1_555
H15B C18B 1_555 1_555
H87B C106B 1_555 1_555
H88B C106B 1_555 1_555
N42B C138 1_555 1_555
C134B N42B 1_555 1_555
C130B C134B 1_555 1_555
N41B C130B 1_555 1_555
N40B Zn3B 1_555 1_555
N14B Zn3B 1_555 1_555
C42B N14B 1_555 1_555
C41B N12B 1_555 1_555
C40B C41B 1_555 1_555
C39B N13B 1_555 1_555
H33B C39B 1_555 1_555
H34B C40B 1_555 1_555
C43B C42B 1_555 1_555
H35B C43B 1_555 1_555
C44B C43B 1_555 1_555
H36B C44B 1_555 1_555
C45B C44B 1_555 1_555
H37B C45B 1_555 1_555
C46B N14B 1_555 1_555
H38B C46B 1_555 1_555
N28B Zn3B 1_555 1_555
C88B N28B 1_555 1_555
C87B N26B 1_555 1_555
C86B C87B 1_555 1_555
C85B N27B 1_555 1_555
H71B C85B 1_555 1_555
H72B C86B 1_555 1_555
C89B C88B 1_555 1_555
H73B C89B 1_555 1_555
C90B C89B 1_555 1_555
H74B C90B 1_555 1_555
C91B C90B 1_555 1_555
H75B C91B 1_555 1_555
C92B N28B 1_555 1_555
H76B C92B 1_555 1_555
N39B Zn3B 1_555 1_555
C125B N39B 1_555 1_555
C126B C125B 1_555 1_555
H104B C126B 1_555 1_555
C127B C126B 1_555 1_555
H105B C127B 1_555 1_555
C128B C127B 1_555 1_555
H106B C128B 1_555 1_555
C129B N39B 1_555 1_555
H107B C129B 1_555 1_555
C133B N40B 1_555 1_555
C132B C133B 1_555 1_555
C131B N41B 1_555 1_555
H110B C131B 1_555 1_555
H111B C132B 1_555 1_555
H108B C130B 1_555 1_555
H109B C130B 1_555 1_555
C135B C134B 1_555 1_555
H112B C135B 1_555 1_555
C136B C135B 1_555 1_555
H113B C136B 1_555 1_555
C137B C138 1_555 1_555
H114B C137B 1_555 1_555
H102B C124B 1_555 1_555
H103B C124B 1_555 1_555
H24B C29B 1_555 1_555
H25B C29B 1_555 1_555
C34B C33B 1_555 1_555
H28B C34B 1_555 1_555
C35B C34B 1_555 1_555
H29B C35B 1_555 1_555
C36B C37B 1_555 1_555
H30B C36B 1_555 1_555
H31B C38B 1_555 1_555
H32B C38B 1_555 1_555
H69B C84B 1_555 1_555
H70B C84B 1_555 1_555
C76B N24B 1_555 1_555
H64B C76B 1_555 1_555
C77B C78B 1_555 1_555
H65B C77B 1_555 1_555
H95B C115B 1_555 1_555
H96B C115B 1_555 1_555
C120B C119B 1_555 1_555
H99B C120B 1_555 1_555
C121B C120B 1_555 1_555
H100B C121B 1_555 1_555
C122B C123B 1_555 1_555
H101B C122B 1_555 1_555
O22B Cl6 1_555 1_555
O24B Cl6 1_555 1_555
O29A Cl8 1_555 1_555
C1 C9 1_555 1_555
C4 C5 1_555 1_555
C8 C9 1_555 1_555
C13 C14 1_555 1_555
C16 C17 1_555 1_555
C16 C18 1_555 1_555
C17 C19 1_555 1_555
C22 C23 1_555 1_555
C24 C32 1_555 1_555
C27 C28 1_555 1_555
C31 C32 1_555 1_555
C36 C37 1_555 1_555
C40 C41 1_555 1_555
C41 C42 1_555 1_555
C45 C46 1_555 1_555
C47 C55 1_555 1_555
C50 C51 1_555 1_555
C54 C55 1_555 1_555
C59 C60 1_555 1_555
C60 C61 1_555 1_555
C63 C64 1_555 1_555
C64 C65 1_555 1_555
C67 C68 1_555 1_555
C67 C69 1_555 1_555
C70 C78 1_555 1_555
C73 C74 1_555 1_555
C77 C78 1_555 1_555
C82 C83 1_555 1_555
C83 C84 1_555 1_555
C86 C87 1_555 1_555
C87 C88 1_555 1_555
C91 C92 1_555 1_555
C93 C100 1_555 1_555
C96 C97 1_555 1_555
C99 C100 1_555 1_555
C101 C109 1_555 1_555
C104 C105 1_555 1_555
C108 C109 1_555 1_555
C110 C118 1_555 1_555
C113 C114 1_555 1_555
C117 C118 1_555 1_555
C122 C123 1_555 1_555
C125 C133 1_555 1_555
C128 C129 1_555 1_555
C132 C133 1_555 1_555
C137 C138B 1_555 1_555
C50B C51B 1_555 1_555
C55B N16B 1_555 1_555
C73B C74B 1_555 1_555
C78B N23B 1_555 1_555
C110B C118B 1_555 1_555
C113B C114B 1_555 1_555
C117B C116B 1_555 1_555
C81B C80B 1_555 1_555
C4B C5B 1_555 1_555
C9B N2B 1_555 1_555
C24B C32B 1_555 1_555
C27B C28B 1_555 1_555
C31B C30B 1_555 1_555
C96B C97B 1_555 1_555
C100B N30B 1_555 1_555
N31B C124B 1_555 1_555
C98B C99B 1_555 1_555
C6B N3B 1_555 1_555
C7B C8B 1_555 1_555
C12B C13B 1_555 1_555
C16B C17B 1_555 1_555
C19B N7B 1_555 1_555
C52B N17B 1_555 1_555
C53B C54B 1_555 1_555
C58B C59B 1_555 1_555
C63B C64B 1_555 1_555
C65B N21B 1_555 1_555
C101B C109B 1_555 1_555
C104B C105B 1_555 1_555
C108B C107B 1_555 1_555
C68B C66B 1_555 1_555
C21B C20B 1_555 1_555
N41B N40B 1_555 1_555
C42B C41B 1_555 1_555
C40B C39B 1_555 1_555
C45B C46B 1_555 1_555
C88B C87B 1_555 1_555
C86B C85B 1_555 1_555
C91B C92B 1_555 1_555
C125B C133B 1_555 1_555
C128B C129B 1_555 1_555
C132B C131B 1_555 1_555
C136B C137B 1_555 1_555
C35B C36B 1_555 1_555
C76B C77B 1_555 1_555
C121B C122B 1_555 1_555

#END
