
#######################################################################
#
#                 Cambridge Crystallographic Data Centre
#                                CCDC 
#
#######################################################################
#
# If this CIF has been generated from an entry in the Cambridge 
# Structural Database, then it will include bibliographic, chemical, 
# crystal, experimental, refinement or atomic coordinate data resulting 
# from the CCDC's data processing and validation procedures.
#
#######################################################################

data_ELUPAD
_chemical_formula_moiety         
'2(C126 H162 N36 O12 Pd6 12+),24(N1 O3 1-),73.9(H2 O1),3(C18 H12)'
_chemical_name_systematic        
"bis(bis(\m~3~-2,4,6-tris(4-pyridyl)-1,3,5-triazine)-tris(\m~2~-3,6-bis(4-pyridyl)-4,5-bis(methoxycarbonyl)pyridazine)-hexakis(N,N,N',N'-tetramethylethylenediamine)-hexa-palladium) tetracosakis(nitrate) tris(triphenylene) clathrate hydrate"
_symmetry_cell_setting           triclinic
_symmetry_space_group_name_H-M   'P -1'
_symmetry_Int_Tables_number      2
_space_group_name_Hall           '-P 1'
loop_
_symmetry_equiv_pos_site_id
_symmetry_equiv_pos_as_xyz
1 x,y,z
2 -x,-y,-z
_cell_length_a                   22.315(11)
_cell_length_b                   22.885(5)
_cell_length_c                   27.307(7)
_cell_angle_alpha                110.001(3)
_cell_angle_beta                 105.508(4)
_cell_angle_gamma                99.386(4)
_cell_volume                     12117.8
_exptl_crystal_colour            yellow
_exptl_crystal_description       plate
_cell_formula_units_Z            1
loop_
_atom_site_label
_atom_site_type_symbol
_atom_site_fract_x
_atom_site_fract_y
_atom_site_fract_z
Pd1 Pd 0.76859(3) 0.35318(3) 0.39111(3)
Pd2 Pd 0.17340(4) 0.37308(4) 0.21713(3)
Pd3 Pd 0.65615(4) 0.91157(4) 0.50128(4)
Pd4 Pd 0.70577(4) 0.31304(4) 0.91891(3)
Pd5 Pd 0.11718(4) 0.37257(5) 0.75421(3)
Pd6 Pd 0.60429(5) 0.88499(4) 1.03706(4)
N1 N 0.7028(3) 0.4053(3) 0.3951(3)
N2 N 0.2668(3) 0.4213(4) 0.2660(3)
N3 N 0.6187(5) 0.8143(4) 0.4711(4)
N4 N 0.4821(4) 0.5826(4) 0.3863(3)
N5 N 0.5894(3) 0.5780(4) 0.4187(3)
N6 N 0.5042(3) 0.4820(3) 0.3685(3)
C1 C 0.7236(4) 0.4698(4) 0.4218(4)
H1 H 0.7687 0.4910 0.4387
C2 C 0.6788(4) 0.5059(4) 0.4247(4)
H2 H 0.6938 0.5517 0.4445
C3 C 0.6150(4) 0.4766(4) 0.3998(4)
C4 C 0.5929(4) 0.4079(5) 0.3719(4)
H3 H 0.5481 0.3855 0.3543
C5 C 0.6399(4) 0.3754(4) 0.3717(4)
H4 H 0.6265 0.3294 0.3539
C6 C 0.3111(4) 0.3895(5) 0.2719(4)
H5 H 0.2974 0.3437 0.2522
C7 C 0.3734(5) 0.4170(4) 0.3034(4)
H6 H 0.4028 0.3916 0.3060
C8 C 0.3948(4) 0.4856(5) 0.3332(4)
C9 C 0.3492(4) 0.5191(5) 0.3302(4)
H7 H 0.3614 0.5646 0.3509
C10 C 0.2871(4) 0.4870(5) 0.2976(4)
H8 H 0.2559 0.5107 0.2965
C11 C 0.5542(5) 0.7861(5) 0.4465(5)
H9 H 0.5257 0.8122 0.4425
C12 C 0.5287(5) 0.7194(5) 0.4269(5)
H10 H 0.4834 0.6999 0.4086
C13 C 0.5696(5) 0.6820(5) 0.4344(5)
C14 C 0.6370(5) 0.7132(5) 0.4577(5)
H11 H 0.6670 0.6884 0.4600
C15 C 0.6585(6) 0.7784(5) 0.4769(6)
H12 H 0.7037 0.7990 0.4952
C16 C 0.5672(4) 0.5150(5) 0.3964(4)
C17 C 0.5460(4) 0.6103(4) 0.4129(4)
C18 C 0.4640(4) 0.5185(4) 0.3654(4)
N7 N 0.6438(4) 0.3681(4) 0.9075(3)
N8 N 0.2142(4) 0.4117(5) 0.7838(3)
N9 N 0.5743(4) 0.7870(4) 0.9942(4)
N10 N 0.4401(4) 0.5592(4) 0.8789(3)
N11 N 0.4562(3) 0.4550(3) 0.8555(3)
N12 N 0.5462(3) 0.5482(4) 0.9086(3)
C19 C 0.6691(5) 0.4326(4) 0.9276(4)
H13 H 0.7143 0.4513 0.9471
C20 C 0.6299(4) 0.4722(4) 0.9202(4)
H14 H 0.6478 0.5179 0.9353
C21 C 0.5638(4) 0.4441(4) 0.8902(4)
C22 C 0.5398(5) 0.3775(4) 0.8670(4)
H15 H 0.4955 0.3569 0.8444
C23 C 0.5822(5) 0.3412(5) 0.8776(4)
H16 H 0.5659 0.2954 0.8626
C24 C 0.2536(5) 0.3720(5) 0.7866(4)
H17 H 0.2353 0.3265 0.7730
C25 C 0.3227(4) 0.3995(5) 0.8102(4)
H18 H 0.3504 0.3727 0.8135
C26 C 0.3480(4) 0.4646(4) 0.8277(4)
C27 C 0.3064(5) 0.5012(5) 0.8218(4)
H19 H 0.3232 0.5465 0.8332
C28 C 0.2423(5) 0.4744(6) 0.8001(5)
H20 H 0.2152 0.5017 0.7960
C29 C 0.5122(6) 0.7591(5) 0.9625(5)
H21 H 0.4835 0.7854 0.9608
C30 C 0.4881(5) 0.6922(5) 0.9315(4)
H22 H 0.4437 0.6730 0.9087
C31 C 0.5291(5) 0.6556(4) 0.9347(4)
C32 C 0.5938(5) 0.6842(5) 0.9663(4)
H23 H 0.6234 0.6588 0.9678
C33 C 0.6149(5) 0.7510(5) 0.9961(5)
H24 H 0.6594 0.7713 1.0181
C34 C 0.5189(5) 0.4847(4) 0.8839(4)
C35 C 0.5030(5) 0.5824(4) 0.9050(4)
C36 C 0.4195(4) 0.4936(4) 0.8549(3)
N13 N 0.7608(3) 0.3482(3) 0.4624(3)
N14 N 0.7170(4) 0.3107(4) 0.8466(3)
N15 N 0.7399(13) 0.3770(15) 0.6481(15)
N16 N 0.7348(12) 0.3691(15) 0.6917(14)
O1 O 0.776(2) 0.1725(15) 0.5569(9)
O2 O 0.8460(3) 0.2670(4) 0.5745(3)
C37 C 0.7198(4) 0.2974(5) 0.4600(4)
H25 H 0.6932 0.2653 0.4242
C38 C 0.7132(5) 0.2881(5) 0.5049(4)
H26 H 0.6833 0.2506 0.5009
C39 C 0.7516(5) 0.3349(4) 0.5563(4)
C40 C 0.7939(5) 0.3899(5) 0.5593(4)
H27 H 0.8207 0.4234 0.5943
C41 C 0.7956(5) 0.3940(4) 0.5105(4)
H28 H 0.8232 0.4315 0.5122
C42 C 0.6790(6) 0.2653(5) 0.7996(5)
H29 H 0.6464 0.2328 0.7993
C43 C 0.6842(7) 0.2623(6) 0.7484(5)
H30 H 0.6574 0.2275 0.7142
C44 C 0.7312(6) 0.3135(5) 0.7506(5)
C45 C 0.7701(5) 0.3612(5) 0.8004(4)
H31 H 0.8014 0.3962 0.8022
C46 C 0.7636(5) 0.3582(5) 0.8486(5)
H32 H 0.7924 0.3900 0.8837
C47 C 0.7488(5) 0.3251(5) 0.6065(4)
C48 C 0.7722(4) 0.2781(4) 0.6207(4)
C49 C 0.7998(5) 0.2352(5) 0.5853(4)
C50 C 0.8751(6) 0.2268(8) 0.5380(5)
H33 H 0.9087 0.2549 0.5327
H34 H 0.8415 0.1989 0.5019
H35 H 0.8944 0.1999 0.5551
C51 C 0.7364(6) 0.3139(5) 0.6978(5)
C52 C 0.7651(4) 0.2717(4) 0.6666(4)
O3 O 0.8484(5) 0.2307(6) 0.7004(6)
O4 O 0.7512(4) 0.1820(4) 0.6899(4)
C53 C 0.7909(6) 0.2247(6) 0.6864(5)
C54 C 0.7774(10) 0.1433(8) 0.7158(7)
H36 H 0.7420 0.1108 0.7148
H37 H 0.8046 0.1708 0.7546
H38 H 0.8036 0.1216 0.6961
N17 N 0.1631(3) 0.3565(4) 0.2835(3)
N18 N 0.1207(4) 0.3571(5) 0.6770(3)
N19 N 0.1774(4) 0.3729(5) 0.4707(4)
N20 N 0.1716(5) 0.3743(5) 0.5171(4)
C55 C 0.1694(5) 0.3020(5) 0.2882(4)
H39 H 0.1785 0.2703 0.2603
C56 C 0.1628(5) 0.2909(5) 0.3332(5)
H40 H 0.1679 0.2518 0.3363
C57 C 0.1491(5) 0.3359(6) 0.3736(4)
C58 C 0.1459(5) 0.3944(6) 0.3686(5)
H41 H 0.1396 0.4285 0.3967
C59 C 0.1520(5) 0.4007(5) 0.3225(5)
H42 H 0.1479 0.4395 0.3183
C60 C 0.1211(6) 0.2991(6) 0.6432(5)
H43 H 0.1195 0.2651 0.6556
C61 C 0.1235(6) 0.2875(6) 0.5925(5)
H44 H 0.1253 0.2462 0.5698
C62 C 0.1232(5) 0.3371(5) 0.5730(5)
C63 C 0.1234(5) 0.3967(5) 0.6093(5)
H45 H 0.1247 0.4322 0.5986
C64 C 0.1217(5) 0.4040(6) 0.6602(5)
H46 H 0.1213 0.4450 0.6846
C65 C 0.1387(5) 0.3271(6) 0.4226(5)
C66 C 0.0880(5) 0.2772(5) 0.4203(5)
O5 O 0.0546(15) 0.2076(14) 0.3272(15)
O6 O -0.0170(9) 0.2095(9) 0.3649(8)
C67 C 0.041(2) 0.219(2) 0.365(2)
C68 C -0.0630(14) 0.1505(13) 0.3182(15)
H47 H -0.1031 0.1403 0.3257
H48 H -0.0438 0.1143 0.3140
H49 H -0.0726 0.1577 0.2839
C69 C 0.1255(5) 0.3291(6) 0.5167(5)
C70 C 0.0826(5) 0.2801(5) 0.4686(5)
O7 O -0.0105(4) 0.2524(5) 0.4910(4)
O8 O 0.0298(5) 0.1745(5) 0.4477(5)
C71 C 0.0275(6) 0.2343(7) 0.4719(6)
C72 C -0.0222(11) 0.1257(8) 0.4479(11)
H50 H -0.0162 0.0826 0.4321
H51 H -0.0643 0.1264 0.4256
H52 H -0.0207 0.1358 0.4862
N21 N 0.6545(4) 0.9146(4) 0.5765(4)
N22 N 0.6132(5) 0.8903(4) 0.9665(4)
N23 N 0.6044(6) 0.8842(5) 0.7338(5)
N24 N 0.5999(5) 0.8823(4) 0.7819(5)
C73 C 0.7043(6) 0.9080(5) 0.6097(5)
H53 H 0.7394 0.9006 0.5973
C74 C 0.7093(7) 0.9111(6) 0.6636(6)
H54 H 0.7475 0.9088 0.6878
C75 C 0.6555(7) 0.9179(6) 0.6791(6)
C76 C 0.6020(6) 0.9236(6) 0.6413(5)
H55 H 0.5649 0.9288 0.6513
C77 C 0.6019(6) 0.9219(5) 0.5903(5)
H56 H 0.5654 0.9258 0.5655
C78 C 0.6676(6) 0.8871(6) 0.9579(5)
H57 H 0.7005 0.8805 0.9841
C79 C 0.6797(7) 0.8929(6) 0.9125(6)
H58 H 0.7183 0.8862 0.9060
C80 C 0.6358(7) 0.9083(5) 0.8770(5)
C81 C 0.5769(7) 0.9110(6) 0.8865(5)
H59 H 0.5429 0.9177 0.8614
C82 C 0.5698(6) 0.9039(5) 0.9327(5)
H60 H 0.5314 0.9091 0.9404
C83 C 0.6563(7) 0.9198(6) 0.7351(6)
C84 C 0.7038(7) 0.9634(7) 0.7837(6)
C85 C 0.6475(7) 0.9179(6) 0.8284(6)
C86 C 0.7004(8) 0.9602(7) 0.8315(6)
O9 O 0.7496(6) 1.0566(6) 0.7712(6)
O10 O 0.8127(6) 1.0002(7) 0.7936(7)
C87 C 0.7613(9) 1.0154(8) 0.7851(8)
C88 C 0.8689(11) 1.0602(14) 0.8070(14)
H61 H 0.9093 1.0479 0.8101
H62 H 0.8738 1.0950 0.8422
H63 H 0.8587 1.0754 0.7771
O11 O 0.8128(12) 0.9680(12) 0.8971(11)
O12 O 0.7288(10) 1.0331(10) 0.9272(9)
C89 C 0.7555(12) 1.0123(12) 0.8883(11)
C90 C 0.7539(14) 1.0915(13) 0.9986(12)
H64 H 0.7249 1.0780 1.0165
H65 H 0.7521 1.1342 0.9992
H66 H 0.7984 1.0938 1.0188
N25 N 0.7749(4) 0.3552(4) 0.3181(3)
N26 N 0.8357(4) 0.3017(4) 0.3877(3)
C91 C 0.8351(5) 0.3380(6) 0.3130(5)
H67 H 0.8333 0.3241 0.2740
H68 H 0.8734 0.3759 0.3366
C92 C 0.8397(5) 0.2854(5) 0.3310(4)
H69 H 0.8813 0.2755 0.3311
H70 H 0.8042 0.2461 0.3041
C93 C 0.7146(6) 0.3091(6) 0.2716(4)
H71 H 0.7165 0.3095 0.2363
H72 H 0.6767 0.3224 0.2778
H73 H 0.7109 0.2653 0.2702
C94 C 0.7821(6) 0.4215(5) 0.3175(5)
H74 H 0.7847 0.4196 0.2817
H75 H 0.8216 0.4520 0.3476
H76 H 0.7444 0.4362 0.3226
C95 C 0.8197(6) 0.2423(5) 0.3970(5)
H77 H 0.8541 0.2208 0.3949
H78 H 0.7785 0.2130 0.3684
H79 H 0.8158 0.2534 0.4338
C96 C 0.8997(5) 0.3451(5) 0.4309(5)
H80 H 0.9325 0.3214 0.4300
H81 H 0.8957 0.3591 0.4678
H82 H 0.9127 0.3832 0.4233
N27 N 0.1825(6) 0.3900(6) 0.1492(4)
N28 N 0.0807(6) 0.3224(6) 0.1654(5)
C97 C 0.1285(11) 0.3568(11) 0.1041(8)
H83 H 0.1366 0.3179 0.0796
H84 H 0.1198 0.3842 0.0833
C98 C 0.0720(9) 0.3366(11) 0.1163(8)
H85 H 0.0425 0.2973 0.0837
H86 H 0.0495 0.3709 0.1201
C99 C 0.1974(9) 0.4583(8) 0.1626(7)
H87 H 0.2017 0.4661 0.1305
H88 H 0.2381 0.4807 0.1943
H89 H 0.1624 0.4747 0.1724
C100 C 0.2314(10) 0.3663(10) 0.1328(7)
H90 H 0.2346 0.3751 0.1008
H91 H 0.2209 0.3195 0.1226
H92 H 0.2730 0.3878 0.1637
C101 C 0.0377(7) 0.3468(10) 0.1895(8)
H93 H -0.0069 0.3225 0.1645
H94 H 0.0446 0.3927 0.1961
H95 H 0.0449 0.3423 0.2249
C102 C 0.0695(10) 0.2517(8) 0.1534(8)
H96 H 0.0242 0.2284 0.1299
H97 H 0.0790 0.2461 0.1884
H98 H 0.0981 0.2344 0.1341
N29 N 0.6603(6) 0.9080(5) 0.4247(4)
N30 N 0.6977(5) 1.0095(4) 0.5320(4)
C103 C 0.7058(19) 0.9673(17) 0.4374(15)
H99 H 0.6923 0.9795 0.4055
H100 H 0.7483 0.9587 0.4397
C104 C 0.716(2) 1.025(2) 0.4894(17)
H101 H 0.7620 1.0503 0.5054
H102 H 0.6901 1.0533 0.4790
C105 C 0.5928(8) 0.8866(9) 0.3848(6)
H103 H 0.5937 0.8842 0.3485
H104 H 0.5696 0.9178 0.3986
H105 H 0.5707 0.8438 0.3811
C106 C 0.7016(10) 0.8715(9) 0.4075(8)
H106 H 0.7025 0.8708 0.3717
H107 H 0.6855 0.8271 0.4037
H108 H 0.7454 0.8912 0.4352
C107 C 0.6621(7) 1.0494(6) 0.5609(7)
H109 H 0.6849 1.0954 0.5746
H110 H 0.6594 1.0390 0.5924
H111 H 0.6183 1.0403 0.5351
C108 C 0.7625(6) 1.0278(6) 0.5733(6)
H112 H 0.7818 1.0746 0.5876
H113 H 0.7898 1.0048 0.5560
H114 H 0.7591 1.0162 0.6041
N31 N 0.6945(4) 0.3154(4) 0.9922(3)
N32 N 0.7673(4) 0.2566(5) 0.9301(4)
C109 C 0.7446(5) 0.2871(6) 1.0164(5)
H115 H 0.7312 0.2703 1.0419
H116 H 0.7865 0.3210 1.0379
C110 C 0.7521(6) 0.2326(6) 0.9699(6)
H117 H 0.7873 0.2157 0.9854
H118 H 0.7115 0.1967 0.9508
C111 C 0.7050(7) 0.3806(6) 1.0330(5)
H119 H 0.6990 0.3782 1.0666
H120 H 0.6738 0.4007 1.0173
H121 H 0.7491 0.4067 1.0424
C112 C 0.6288(5) 0.2752(6) 0.9800(5)
H122 H 0.6236 0.2761 1.0147
H123 H 0.6230 0.2305 0.9551
H124 H 0.5963 0.2925 0.9620
C113 C 0.8361(5) 0.2998(7) 0.9530(6)
H125 H 0.8666 0.2745 0.9590
H126 H 0.8431 0.3353 0.9884
H127 H 0.8432 0.3177 0.9265
C114 C 0.7585(7) 0.2017(7) 0.8781(6)
H128 H 0.7888 0.1768 0.8860
H129 H 0.7670 0.2183 0.8512
H130 H 0.7140 0.1737 0.8627
N33 N 0.1110(5) 0.3951(6) 0.8318(4)
N34 N 0.0168(4) 0.3331(6) 0.7248(4)
C115 C 0.0393(7) 0.3830(12) 0.8202(7)
H131 H 0.0306 0.3727 0.8505
H132 H 0.0294 0.4246 0.8239
C116 C -0.0036(6) 0.3380(10) 0.7728(6)
H133 H -0.0456 0.3483 0.7666
H134 H -0.0100 0.2956 0.7755
C117 C 0.1399(10) 0.3538(9) 0.8560(7)
H135 H 0.1369 0.3640 0.8929
H136 H 0.1856 0.3615 0.8591
H137 H 0.1167 0.3082 0.8320
C118 C 0.1471(8) 0.4595(8) 0.8712(6)
H138 H 0.1419 0.4662 0.9071
H139 H 0.1309 0.4906 0.8578
H140 H 0.1930 0.4658 0.8755
C119 C -0.0014(7) 0.2654(9) 0.6857(7)
H141 H -0.0486 0.2475 0.6722
H142 H 0.0194 0.2406 0.7045
H143 H 0.0128 0.2628 0.6543
C120 C -0.0155(6) 0.3710(9) 0.6936(6)
H144 H -0.0627 0.3533 0.6801
H145 H -0.0011 0.3669 0.6620
H146 H -0.0032 0.4168 0.7188
N35 N 0.5948(6) 0.8808(5) 1.1096(4)
N36 N 0.6359(6) 0.9831(5) 1.0806(4)
C121 C 0.6050(12) 0.9453(8) 1.1479(6)
H147 H 0.5627 0.9547 1.1444
H148 H 0.6247 0.9489 1.1863
C122 C 0.6463(11) 0.9922(7) 1.1386(7)
H149 H 0.6917 0.9931 1.1559
H150 H 0.6416 1.0353 1.1586
C123 C 0.5339(7) 0.8424(9) 1.1008(6)
H151 H 0.5323 0.8421 1.1363
H152 H 0.5270 0.7980 1.0746
H153 H 0.5001 0.8603 1.0856
C124 C 0.6428(6) 0.8542(6) 1.1362(5)
H154 H 0.6364 0.8536 1.1702
H155 H 0.6865 0.8812 1.1456
H156 H 0.6375 0.8099 1.1107
C125 C 0.5840(10) 1.0140(7) 1.0610(7)
H157 H 0.5998 1.0612 1.0820
H158 H 0.5447 0.9972 1.0672
H159 H 0.5742 1.0037 1.0213
C126 C 0.6984(10) 1.0133(8) 1.0809(9)
H160 H 0.7099 1.0602 1.1022
H161 H 0.6963 1.0043 1.0427
H162 H 0.7313 0.9958 1.0982
C127 C 0.4936(3) 0.4260(3) 0.7359(2)
C128 C 0.5187(3) 0.3699(4) 0.7298(3)
C129 C 0.5857(3) 0.3779(4) 0.7518(3)
C130 C 0.6279(3) 0.4501(5) 0.7842(3)
C131 C 0.6037(3) 0.5013(4) 0.7957(2)
C132 C 0.5375(3) 0.4874(4) 0.77135(18)
C133 C 0.4053(3) 0.4722(4) 0.7203(2)
C134 C 0.3350(3) 0.4635(4) 0.6989(3)
C135 C 0.2933(2) 0.3960(5) 0.6658(3)
C136 C 0.3095(3) 0.3434(4) 0.6537(3)
C137 C 0.3746(3) 0.3498(4) 0.6760(3)
C138 C 0.4220(3) 0.4151(3) 0.7108(2)
C139 C 0.5171(3) 0.5454(3) 0.77731(18)
C140 C 0.5614(4) 0.6168(3) 0.8104(2)
C141 C 0.5272(5) 0.6633(3) 0.8122(3)
C142 C 0.4537(5) 0.6541(4) 0.7848(3)
C143 C 0.4322(4) 0.5922(4) 0.7598(3)
C144 C 0.4408(3) 0.5374(4) 0.7556(2)
N37 N 0.4246(9) 0.9085(12) 0.0226(11)
O13 O 0.3684(9) 0.8617(8) -0.0043(7)
O14 O 0.418(2) 0.9428(9) 0.0532(10)
O15 O 0.4523(7) 0.8854(5) -0.0106(6)
N38 N 0.0851(4) 0.4730(5) 0.5062(5)
O16 O 0.0405(4) 0.4236(5) 0.4932(4)
O17 O 0.0943(5) 0.4818(4) 0.4657(4)
O18 O 0.1166(4) 0.5081(4) 0.5526(4)
N39 N 0.8556(6) 0.4977(7) 0.9900(4)
O19 O 0.8252(4) 0.4479(5) 0.9879(4)
O20 O 0.8303(6) 0.5262(6) 0.9616(5)
O21 O 0.9130(5) 0.5219(5) 1.0207(4)
N40 N 0.5184(10) 0.6469(10) 0.0463(8)
O22 O 0.4592(8) 0.6212(7) 0.0132(7)
O23 O 0.5465(9) 0.6051(9) 0.0411(8)
O24 O 0.5470(9) 0.6977(10) 0.0790(8)
N41 N 0.1110(6) 0.5338(6) 0.2641(6)
O25 O 0.1181(5) 0.5302(5) 0.3107(4)
O26 O 0.1190(12) 0.5786(11) 0.2468(10)
O27 O 0.1393(12) 0.4988(12) 0.2383(10)
N42 N 0.5286(15) 0.7890(15) 0.2430(13)
O28 O 0.5339(13) 0.8095(14) 0.2150(12)
O29 O 0.5696(13) 0.7591(12) 0.2633(11)
O30 O 0.4838(13) 0.7768(12) 0.2649(11)
O31 O 0.8828(14) 0.3823(15) 0.2009(12)
O32 O 0.8945(6) 0.4744(6) 0.2336(5)
O33 O 0.854(2) 0.875(2) 0.487(2)
N43? N 0.7141(14) 0.3593(15) 0.6365(15)
N44? N 0.7073(13) 0.3545(16) 0.6805(15)
O34? O 0.792(2) 0.1809(14) 0.5813(9)
O35? O -0.0199(12) 0.2414(11) 0.3556(12)
C145? C 0.0341(18) 0.2404(15) 0.3663(19)
O36? O 0.058(2) 0.1819(16) 0.3351(18)
C146? C 0.0031(14) 0.156(2) 0.2792(14)
H163? H 0.0118 0.1213 0.2517
H164? H 0.0001 0.1915 0.2668
H165? H -0.0378 0.1398 0.2833
O37? O 0.7785(10) 1.0644(11) 0.8911(9)
C147? C 0.670(2) 0.9805(17) 0.4376(17)
H166? H 0.7001 0.9912 0.4191
H167? H 0.6277 0.9839 0.4173
C148? C 0.686(2) 1.018(2) 0.4767(19)
H168? H 0.6550 1.0444 0.4754
H169? H 0.7277 1.0459 0.4805
C149? C 0.5350(3) 0.4990(4) 0.5116(2)
C150? C 0.5368(3) 0.4346(3) 0.49661(19)
C151? C 0.5955(4) 0.4196(4) 0.5089(2)
C152? C 0.6527(3) 0.4688(4) 0.5378(3)
C153? C 0.6518(3) 0.5336(4) 0.5552(3)
C154? C 0.5926(3) 0.5492(3) 0.5422(2)
C155? C 0.5920(4) 0.6171(3) 0.5571(3)
C156? C 0.6486(4) 0.6686(4) 0.5861(3)
C157? C 0.6478(6) 0.7325(4) 0.5989(4)
C158? C 0.5891(6) 0.7464(4) 0.5832(4)
C159? C 0.5321(5) 0.6970(4) 0.5565(4)
C160? C 0.5317(4) 0.6314(4) 0.5422(3)
C161? C 0.4806(3) 0.3870(3) 0.7264(2)
C162? C 0.5026(4) 0.3345(4) 0.7192(3)
C163? C 0.5677(4) 0.3406(4) 0.7387(3)
C164? C 0.6113(3) 0.3906(5) 0.7648(3)
C165? C 0.5897(3) 0.4489(4) 0.7712(2)
C166? C 0.5227(3) 0.4496(4) 0.7523(2)
C167? C 0.3832(3) 0.4339(4) 0.7086(2)
C168? C 0.3195(2) 0.4246(5) 0.6839(3)
C169? C 0.2757(3) 0.3705(5) 0.6606(3)
C170? C 0.3044(3) 0.3131(4) 0.6592(3)
C171? C 0.3701(3) 0.3226(4) 0.6816(3)
C172? C 0.4114(3) 0.3801(3) 0.7041(2)
C173? C 0.4962(3) 0.5070(3) 0.75889(18)
C174? C 0.5348(3) 0.5613(3) 0.78369(18)
C175? C 0.5245(4) 0.6226(3) 0.7905(2)
C176? C 0.4669(4) 0.6157(3) 0.7696(3)
C177? C 0.4028(4) 0.5559(4) 0.7416(3)
C178? C 0.4373(3) 0.4980(3) 0.7333(2)
O38? O 0.0562(9) 0.5014(8) 0.2238(7)
O39? O 0.1617(18) 0.5758(17) 0.2702(14)
N45? N 0.4028(14) 0.8073(14) 0.4248(14)
O40? O 0.3886(12) 0.7653(12) 0.4451(10)
O41? O 0.4024(12) 0.7826(13) 0.3867(11)
O42? O 0.4391(17) 0.8563(15) 0.4669(14)
O43? O 0.3846(15) 0.8041(17) 0.4594(13)
O44? O 0.4197(15) 0.8369(16) 0.3968(13)
O45? O 0.5113(18) 0.8379(19) 0.2419(16)
N46? N 0.8150(18) 0.8125(19) 0.5726(16)
O46? O 0.810(2) 0.778(2) 0.509(2)
O47? O 0.8248(18) 0.870(2) 0.5579(17)
O48? O 0.7873(10) 0.7871(10) 0.5911(9)
N47? N 0.8238(12) 0.8442(15) 0.5045(11)
O49? O 0.6332(12) 0.0881(12) 0.7398(10)
O50? O 0.8100(9) 0.8913(10) 0.5339(9)
O51? O 0.8119(8) 0.7958(10) 0.4900(7)
O52? O 0.6284(7) 0.2159(7) 0.3247(6)
O53? O 0.4467(7) 0.2910(7) 0.3006(6)
O54? O 0.5891(5) 0.1793(5) 0.8429(4)
O55? O 0.9682(4) 0.4392(4) 0.0627(4)
O56? O 0.9242(5) 0.4592(5) 0.8622(4)
O57? O 0.0116(5) 0.3715(5) 0.9850(4)
O58? O 0.6830(8) 0.6997(8) 0.1172(7)
O59? O 0.6273(11) 0.9437(11) 0.2798(10)
O60? O 0.7540(5) 0.6053(5) 0.9909(4)
O61? O 0.2945(6) 0.4181(6) 0.9333(6)
O62? O 0.9762(8) 0.4166(8) 0.5719(7)
O63? O 0.1403(9) 0.2177(9) 0.7314(8)
O64? O 0.9360(11) 0.1056(11) 0.5870(9)
O65? O 0.1847(10) 0.2710(10) 0.9797(8)
O66? O 0.5881(11) 0.1240(11) 0.4330(9)
O67? O 0.8628(10) 0.9081(10) 0.6854(8)
O68? O 0.9483(16) 0.9844(17) 0.3261(14)
O69? O 0.760(2) 0.779(2) 0.9674(18)
O70? O 0.7497(15) 0.9337(14) 0.2951(13)
O71? O 0.898(2) 0.106(2) 0.1282(18)
O72? O 0.9764(16) 0.1700(16) 0.7797(14)
O73? O 0.2227(18) 0.2280(17) 0.1792(15)
O74? O 0.024(2) 0.080(2) 0.1363(19)
O75? O 0.9235(12) 0.3691(14) 0.8883(10)
O76? O 0.8979(9) 0.3480(9) 0.0879(8)
O77? O 0.446(3) 0.911(3) 0.343(2)
O78? O 0.5947(13) 0.0540(13) 0.8495(11)
O79? O 0.5158(11) 0.0320(11) 0.2116(10)
O80? O 0.9104(13) 0.2242(12) 0.0437(12)
O81? O 0.4026(7) 0.4912(8) 0.9596(6)
O82? O 0.4701(14) 0.8073(13) 0.6418(12)
O83? O 0.3118(14) 0.2505(14) 0.1546(12)
O84? O 0.5033(12) 0.9313(12) 0.4670(11)
O85? O 0.898(2) 0.024(2) 0.501(2)
O86? O 0.0519(11) 0.2579(10) 0.9562(9)
O87? O 0.9908(10) 0.4014(11) 0.3550(9)
O88? O 0.0061(13) 0.4708(14) 0.3199(11)
O89? O 0.9476(13) 0.2983(13) 0.2556(11)
O90? O 0.603(2) 0.128(2) 0.2134(19)
O91? O 0.6996(11) 0.1280(11) 0.4060(9)
O92? O 0.8539(14) 0.1721(14) 0.2018(12)
O93? O 0.9136(13) 0.1036(13) 0.6776(11)
O94? O 0.7720(19) 0.1133(18) 0.2478(15)
O95? O 0.7653(12) 0.8887(12) 0.0822(11)
O96? O 0.127(2) 0.130(2) 0.190(2)
O97? O 0.285(2) 0.209(2) 0.2579(18)
O98? O 0.5106(12) 0.2137(11) 0.2446(10)
O99? O 0.7629(13) 0.2897(13) 0.1558(12)
O100? O 0.5875(18) 0.7539(18) 0.2070(16)
O101? O 0.2176(14) 0.2127(13) 0.8891(13)
O102? O 0.8009(13) 0.0871(12) 0.4058(11)
O103? O 0.6842(11) 0.3380(10) 0.1431(9)
O104? O 0.5689(15) 0.2151(16) 0.1718(13)
O105? O 0.6463(18) 0.2370(18) 0.1162(15)
O106? O 0.9064(14) 0.2297(14) 0.8418(12)
O107? O 0.105(2) 0.114(2) 0.231(2)
O108? O 0.8999(10) 0.3926(11) 0.1135(9)
O109? O 0.5104(17) 0.0012(17) 0.4098(15)
O110? O 0.6290(12) 0.0828(12) 0.8834(11)
O111? O 0.4917(17) 0.0242(15) 0.2407(13)
O112? O 0.944(2) 0.188(2) -0.002(2)
O113? O 0.427(2) 0.528(2) 0.9785(18)
O114? O 0.5200(11) 0.7859(11) 0.6531(9)
O115? O 0.3161(15) 0.2275(15) 0.2144(14)
O116? O 0.8603(13) 0.0555(13) 0.4775(11)
O117? O -0.007(2) 0.2563(19) 0.9552(16)
O118? O 0.9983(9) 0.3683(9) 0.3622(8)
O119? O 0.0065(15) 0.5101(17) 0.3384(14)
O120? O 0.977(2) 0.256(2) 0.2631(17)
O121? O 0.6976(17) 0.1364(16) 0.2518(14)
O122? O 0.852(3) 0.229(3) 0.172(2)
O123? O 0.999(3) 0.176(3) 0.202(2)
O124? O 0.881(2) 0.038(2) 0.686(2)
O125? O 0.743(2) 0.1602(19) 0.2014(17)
O126? O 0.8500(16) 0.9527(16) 0.0646(14)
O127? O 0.1401(14) 0.1341(13) 0.2305(13)
O128? O 0.248(2) 0.172(2) 0.2617(17)
O129? O 0.541(3) 0.230(3) 0.244(3)
O130? O 0.7385(11) 0.3535(10) 0.1609(8)
O131? O 0.194(2) 0.215(2) 0.8549(19)
O132? O 0.6948(14) 0.7692(14) 0.2329(12)
O133? O 0.7633(15) 0.1169(14) 0.4125(12)
O134? O 0.819(3) 0.094(2) 0.256(2)
O135? O 0.5942(13) 0.1680(13) 0.1728(11)
O136? O 0.629(2) 0.204(2) 0.1321(17)
O137? O 0.9250(10) 0.3436(15) 0.8794(10)
O138? O 0.4400(18) -0.0098(17) 0.2300(14)
O139? O 0.8895(17) 0.2371(16) 0.0698(15)
O140? O 0.663(2) 0.120(2) 0.266(2)
O141? O 0.454(2) 0.229(2) 0.2157(18)
O142? O 0.7698(17) 0.3871(17) 0.1754(13)
O143? O 0.122(2) 0.165(2) 0.7928(18)
O144? O 0.9114(17) 0.3123(19) 0.8611(16)
loop_
_geom_bond_atom_site_label_1
_geom_bond_atom_site_label_2
_geom_bond_site_symmetry_1
_geom_bond_site_symmetry_2
Pd1 N1 1_555 1_555
Pd2 N2 1_555 1_555
Pd3 N3 1_555 1_555
Pd4 N7 1_555 1_555
Pd5 N8 1_555 1_555
Pd6 N9 1_555 1_555
N1 C1 1_555 1_555
N2 C6 1_555 1_555
N3 C11 1_555 1_555
N4 C17 1_555 1_555
N5 C16 1_555 1_555
N6 C16 1_555 1_555
C1 H1 1_555 1_555
C2 C1 1_555 1_555
H2 C2 1_555 1_555
C3 C2 1_555 1_555
C4 C3 1_555 1_555
H3 C4 1_555 1_555
C5 N1 1_555 1_555
H4 C5 1_555 1_555
C6 H5 1_555 1_555
C7 C6 1_555 1_555
H6 C7 1_555 1_555
C8 C7 1_555 1_555
C9 C8 1_555 1_555
H7 C9 1_555 1_555
C10 N2 1_555 1_555
H8 C10 1_555 1_555
C11 H9 1_555 1_555
C12 C11 1_555 1_555
H10 C12 1_555 1_555
C13 C12 1_555 1_555
C14 C13 1_555 1_555
H11 C14 1_555 1_555
C15 N3 1_555 1_555
H12 C15 1_555 1_555
C16 C3 1_555 1_555
C17 N5 1_555 1_555
C18 N4 1_555 1_555
N7 C19 1_555 1_555
N8 C24 1_555 1_555
N9 C29 1_555 1_555
N10 C35 1_555 1_555
N11 C34 1_555 1_555
N12 C34 1_555 1_555
C19 H13 1_555 1_555
C20 C19 1_555 1_555
H14 C20 1_555 1_555
C21 C20 1_555 1_555
C22 C21 1_555 1_555
H15 C22 1_555 1_555
C23 N7 1_555 1_555
H16 C23 1_555 1_555
C24 H17 1_555 1_555
C25 C24 1_555 1_555
H18 C25 1_555 1_555
C26 C25 1_555 1_555
C27 C26 1_555 1_555
H19 C27 1_555 1_555
C28 N8 1_555 1_555
H20 C28 1_555 1_555
C29 H21 1_555 1_555
C30 C29 1_555 1_555
H22 C30 1_555 1_555
C31 C30 1_555 1_555
C32 C31 1_555 1_555
H23 C32 1_555 1_555
C33 N9 1_555 1_555
H24 C33 1_555 1_555
C34 C21 1_555 1_555
C35 N12 1_555 1_555
C36 N10 1_555 1_555
N13 Pd1 1_555 1_555
N14 Pd4 1_555 1_555
N15 N16 1_555 1_555
N16 C51 1_555 1_555
O1 C49 1_555 1_555
O2 C49 1_555 1_555
C37 N13 1_555 1_555
H25 C37 1_555 1_555
C38 C37 1_555 1_555
H26 C38 1_555 1_555
C39 C38 1_555 1_555
C40 C39 1_555 1_555
H27 C40 1_555 1_555
C41 N13 1_555 1_555
H28 C41 1_555 1_555
C42 N14 1_555 1_555
H29 C42 1_555 1_555
C43 C42 1_555 1_555
H30 C43 1_555 1_555
C44 C43 1_555 1_555
C45 C44 1_555 1_555
H31 C45 1_555 1_555
C46 N14 1_555 1_555
H32 C46 1_555 1_555
C47 N15 1_555 1_555
C48 C47 1_555 1_555
C49 C48 1_555 1_555
C50 O2 1_555 1_555
H33 C50 1_555 1_555
H34 C50 1_555 1_555
H35 C50 1_555 1_555
C51 C44 1_555 1_555
C52 C48 1_555 1_555
O3 C53 1_555 1_555
O4 C53 1_555 1_555
C53 C52 1_555 1_555
C54 O4 1_555 1_555
H36 C54 1_555 1_555
H37 C54 1_555 1_555
H38 C54 1_555 1_555
N17 Pd2 1_555 1_555
N18 Pd5 1_555 1_555
N19 N20 1_555 1_555
N20 C69 1_555 1_555
C55 N17 1_555 1_555
H39 C55 1_555 1_555
C56 C55 1_555 1_555
H40 C56 1_555 1_555
C57 C56 1_555 1_555
C58 C57 1_555 1_555
H41 C58 1_555 1_555
C59 N17 1_555 1_555
H42 C59 1_555 1_555
C60 N18 1_555 1_555
H43 C60 1_555 1_555
C61 C60 1_555 1_555
H44 C61 1_555 1_555
C62 C61 1_555 1_555
C63 C62 1_555 1_555
H45 C63 1_555 1_555
C64 N18 1_555 1_555
H46 C64 1_555 1_555
C65 N19 1_555 1_555
C66 C65 1_555 1_555
O5 C67 1_555 1_555
O6 C67 1_555 1_555
C67 C66 1_555 1_555
C68 O6 1_555 1_555
H47 C68 1_555 1_555
H48 C68 1_555 1_555
H49 C68 1_555 1_555
C69 C62 1_555 1_555
C70 C66 1_555 1_555
O7 C71 1_555 1_555
O8 C71 1_555 1_555
C71 C70 1_555 1_555
C72 O8 1_555 1_555
H50 C72 1_555 1_555
H51 C72 1_555 1_555
H52 C72 1_555 1_555
N21 Pd3 1_555 1_555
N22 Pd6 1_555 1_555
N23 N24 1_555 1_555
N24 C85 1_555 1_555
C73 N21 1_555 1_555
H53 C73 1_555 1_555
C74 C73 1_555 1_555
H54 C74 1_555 1_555
C75 C74 1_555 1_555
C76 C75 1_555 1_555
H55 C76 1_555 1_555
C77 N21 1_555 1_555
H56 C77 1_555 1_555
C78 N22 1_555 1_555
H57 C78 1_555 1_555
C79 C78 1_555 1_555
H58 C79 1_555 1_555
C80 C79 1_555 1_555
C81 C80 1_555 1_555
H59 C81 1_555 1_555
C82 N22 1_555 1_555
H60 C82 1_555 1_555
C83 N23 1_555 1_555
C84 C83 1_555 1_555
C85 C80 1_555 1_555
C86 C84 1_555 1_555
O9 C87 1_555 1_555
O10 C87 1_555 1_555
C87 C84 1_555 1_555
C88 O10 1_555 1_555
H61 C88 1_555 1_555
H62 C88 1_555 1_555
H63 C88 1_555 1_555
O11 C89 1_555 1_555
O12 C89 1_555 1_555
C89 C86 1_555 1_555
C90 O12 1_555 1_555
H64 C90 1_555 1_555
H65 C90 1_555 1_555
H66 C90 1_555 1_555
N25 Pd1 1_555 1_555
N26 Pd1 1_555 1_555
C91 N25 1_555 1_555
H67 C91 1_555 1_555
H68 C91 1_555 1_555
C92 N26 1_555 1_555
H69 C92 1_555 1_555
H70 C92 1_555 1_555
C93 N25 1_555 1_555
H71 C93 1_555 1_555
H72 C93 1_555 1_555
H73 C93 1_555 1_555
C94 N25 1_555 1_555
H74 C94 1_555 1_555
H75 C94 1_555 1_555
H76 C94 1_555 1_555
C95 N26 1_555 1_555
H77 C95 1_555 1_555
H78 C95 1_555 1_555
H79 C95 1_555 1_555
C96 N26 1_555 1_555
H80 C96 1_555 1_555
H81 C96 1_555 1_555
H82 C96 1_555 1_555
N27 Pd2 1_555 1_555
N28 Pd2 1_555 1_555
C97 N27 1_555 1_555
H83 C97 1_555 1_555
H84 C97 1_555 1_555
C98 N28 1_555 1_555
H85 C98 1_555 1_555
H86 C98 1_555 1_555
C99 N27 1_555 1_555
H87 C99 1_555 1_555
H88 C99 1_555 1_555
H89 C99 1_555 1_555
C100 N27 1_555 1_555
H90 C100 1_555 1_555
H91 C100 1_555 1_555
H92 C100 1_555 1_555
C101 N28 1_555 1_555
H93 C101 1_555 1_555
H94 C101 1_555 1_555
H95 C101 1_555 1_555
C102 N28 1_555 1_555
H96 C102 1_555 1_555
H97 C102 1_555 1_555
H98 C102 1_555 1_555
N29 Pd3 1_555 1_555
N30 Pd3 1_555 1_555
C103 N29 1_555 1_555
H99 C103 1_555 1_555
H100 C103 1_555 1_555
C104 N30 1_555 1_555
H101 C104 1_555 1_555
H102 C104 1_555 1_555
C105 N29 1_555 1_555
H103 C105 1_555 1_555
H104 C105 1_555 1_555
H105 C105 1_555 1_555
C106 N29 1_555 1_555
H106 C106 1_555 1_555
H107 C106 1_555 1_555
H108 C106 1_555 1_555
C107 N30 1_555 1_555
H109 C107 1_555 1_555
H110 C107 1_555 1_555
H111 C107 1_555 1_555
C108 N30 1_555 1_555
H112 C108 1_555 1_555
H113 C108 1_555 1_555
H114 C108 1_555 1_555
N31 Pd4 1_555 1_555
N32 Pd4 1_555 1_555
C109 N31 1_555 1_555
H115 C109 1_555 1_555
H116 C109 1_555 1_555
C110 N32 1_555 1_555
H117 C110 1_555 1_555
H118 C110 1_555 1_555
C111 N31 1_555 1_555
H119 C111 1_555 1_555
H120 C111 1_555 1_555
H121 C111 1_555 1_555
C112 N31 1_555 1_555
H122 C112 1_555 1_555
H123 C112 1_555 1_555
H124 C112 1_555 1_555
C113 N32 1_555 1_555
H125 C113 1_555 1_555
H126 C113 1_555 1_555
H127 C113 1_555 1_555
C114 N32 1_555 1_555
H128 C114 1_555 1_555
H129 C114 1_555 1_555
H130 C114 1_555 1_555
N33 Pd5 1_555 1_555
N34 Pd5 1_555 1_555
C115 N33 1_555 1_555
H131 C115 1_555 1_555
H132 C115 1_555 1_555
C116 N34 1_555 1_555
H133 C116 1_555 1_555
H134 C116 1_555 1_555
C117 N33 1_555 1_555
H135 C117 1_555 1_555
H136 C117 1_555 1_555
H137 C117 1_555 1_555
C118 N33 1_555 1_555
H138 C118 1_555 1_555
H139 C118 1_555 1_555
H140 C118 1_555 1_555
C119 N34 1_555 1_555
H141 C119 1_555 1_555
H142 C119 1_555 1_555
H143 C119 1_555 1_555
C120 N34 1_555 1_555
H144 C120 1_555 1_555
H145 C120 1_555 1_555
H146 C120 1_555 1_555
N35 Pd6 1_555 1_555
N36 Pd6 1_555 1_555
C121 N35 1_555 1_555
H147 C121 1_555 1_555
H148 C121 1_555 1_555
C122 N36 1_555 1_555
H149 C122 1_555 1_555
H150 C122 1_555 1_555
C123 N35 1_555 1_555
H151 C123 1_555 1_555
H152 C123 1_555 1_555
H153 C123 1_555 1_555
C124 N35 1_555 1_555
H154 C124 1_555 1_555
H155 C124 1_555 1_555
H156 C124 1_555 1_555
C125 N36 1_555 1_555
H157 C125 1_555 1_555
H158 C125 1_555 1_555
H159 C125 1_555 1_555
C126 N36 1_555 1_555
H160 C126 1_555 1_555
H161 C126 1_555 1_555
H162 C126 1_555 1_555
C127 C128 1_555 1_555
C128 C129 1_555 1_555
C129 C130 1_555 1_555
C130 C131 1_555 1_555
C131 C132 1_555 1_555
C132 C127 1_555 1_555
C133 C134 1_555 1_555
C134 C135 1_555 1_555
C135 C136 1_555 1_555
C136 C137 1_555 1_555
C137 C138 1_555 1_555
C138 C127 1_555 1_555
C139 C132 1_555 1_555
C140 C139 1_555 1_555
C141 C140 1_555 1_555
C142 C141 1_555 1_555
C143 C142 1_555 1_555
C144 C133 1_555 1_555
N37 O13 1_555 1_555
O14 N37 1_555 1_555
O15 N37 1_555 1_555
N38 O16 1_555 1_555
O17 N38 1_555 1_555
O18 N38 1_555 1_555
N39 O19 1_555 1_555
O20 N39 1_555 1_555
O21 N39 1_555 1_555
N40 O22 1_555 1_555
O23 N40 1_555 1_555
O24 N40 1_555 1_555
N41 O25 1_555 1_555
O26 N41 1_555 1_555
O27 N41 1_555 1_555
N42 O28 1_555 1_555
O29 N42 1_555 1_555
O30 N42 1_555 1_555
N6 C18 1_555 1_555
C4 C5 1_555 1_555
C8 C18 1_555 1_555
C9 C10 1_555 1_555
C13 C17 1_555 1_555
C14 C15 1_555 1_555
N11 C36 1_555 1_555
C22 C23 1_555 1_555
C26 C36 1_555 1_555
C27 C28 1_555 1_555
C31 C35 1_555 1_555
C32 C33 1_555 1_555
C39 C47 1_555 1_555
C40 C41 1_555 1_555
C45 C46 1_555 1_555
C51 C52 1_555 1_555
C57 C65 1_555 1_555
C58 C59 1_555 1_555
C63 C64 1_555 1_555
C69 C70 1_555 1_555
C75 C83 1_555 1_555
C76 C77 1_555 1_555
C81 C82 1_555 1_555
C85 C86 1_555 1_555
C91 C92 1_555 1_555
C97 C98 1_555 1_555
C103 C104 1_555 1_555
C109 C110 1_555 1_555
C115 C116 1_555 1_555
C121 C122 1_555 1_555
C133 C138 1_555 1_555
C139 C144 1_555 1_555
C143 C144 1_555 1_555

#END
