# generated using pymatgen
data_H169Pd6C178N47O144
_symmetry_space_group_name_H-M   'P 1'
_cell_length_a   22.31500000
_cell_length_b   22.88500000
_cell_length_c   27.30700000
_cell_angle_alpha   110.00100000
_cell_angle_beta   105.50800000
_cell_angle_gamma   99.38600000
_symmetry_Int_Tables_number   1
_chemical_formula_structural   H169Pd6C178N47O144
_chemical_formula_sum   'H338 Pd12 C356 N94 O288'
_cell_volume   12117.78609508
_cell_formula_units_Z   2
loop_
 _symmetry_equiv_pos_site_id
 _symmetry_equiv_pos_as_xyz
  1  'x, y, z'
loop_
 _atom_site_type_symbol
 _atom_site_label
 _atom_site_symmetry_multiplicity
 _atom_site_fract_x
 _atom_site_fract_y
 _atom_site_fract_z
 _atom_site_occupancy
  H  H1  1  0.768700  0.491000  0.438700  1
  H  H2  1  0.231300  0.509000  0.561300  1
  H  H3  1  0.693800  0.551700  0.444500  1
  H  H4  1  0.306200  0.448300  0.555500  1
  H  H5  1  0.548100  0.385500  0.354300  1
  H  H6  1  0.451900  0.614500  0.645700  1
  H  H7  1  0.626500  0.329400  0.353900  1
  H  H8  1  0.373500  0.670600  0.646100  1
  H  H9  1  0.297400  0.343700  0.252200  1
  H  H10  1  0.702600  0.656300  0.747800  1
  H  H11  1  0.402800  0.391600  0.306000  1
  H  H12  1  0.597200  0.608400  0.694000  1
  H  H13  1  0.361400  0.564600  0.350900  1
  H  H14  1  0.638600  0.435400  0.649100  1
  H  H15  1  0.255900  0.510700  0.296500  1
  H  H16  1  0.744100  0.489300  0.703500  1
  H  H17  1  0.525700  0.812200  0.442500  1
  H  H18  1  0.474300  0.187800  0.557500  1
  H  H19  1  0.483400  0.699900  0.408600  1
  H  H20  1  0.516600  0.300100  0.591400  1
  H  H21  1  0.667000  0.688400  0.460000  1
  H  H22  1  0.333000  0.311600  0.540000  1
  H  H23  1  0.703700  0.799000  0.495200  1
  H  H24  1  0.296300  0.201000  0.504800  1
  H  H25  1  0.714300  0.451300  0.947100  1
  H  H26  1  0.285700  0.548700  0.052900  1
  H  H27  1  0.647800  0.517900  0.935300  1
  H  H28  1  0.352200  0.482100  0.064700  1
  H  H29  1  0.495500  0.356900  0.844400  1
  H  H30  1  0.504500  0.643100  0.155600  1
  H  H31  1  0.565900  0.295400  0.862600  1
  H  H32  1  0.434100  0.704600  0.137400  1
  H  H33  1  0.235300  0.326500  0.773000  1
  H  H34  1  0.764700  0.673500  0.227000  1
  H  H35  1  0.350400  0.372700  0.813500  1
  H  H36  1  0.649600  0.627300  0.186500  1
  H  H37  1  0.323200  0.546500  0.833200  1
  H  H38  1  0.676800  0.453500  0.166800  1
  H  H39  1  0.215200  0.501700  0.796000  1
  H  H40  1  0.784800  0.498300  0.204000  1
  H  H41  1  0.483500  0.785400  0.960800  1
  H  H42  1  0.516500  0.214600  0.039200  1
  H  H43  1  0.443700  0.673000  0.908700  1
  H  H44  1  0.556300  0.327000  0.091300  1
  H  H45  1  0.623400  0.658800  0.967800  1
  H  H46  1  0.376600  0.341200  0.032200  1
  H  H47  1  0.659400  0.771300  0.018100  1
  H  H48  1  0.340600  0.228700  0.981900  1
  H  H49  1  0.693200  0.265300  0.424200  1
  H  H50  1  0.306800  0.734700  0.575800  1
  H  H51  1  0.683300  0.250600  0.500900  1
  H  H52  1  0.316700  0.749400  0.499100  1
  H  H53  1  0.820700  0.423400  0.594300  1
  H  H54  1  0.179300  0.576600  0.405700  1
  H  H55  1  0.823200  0.431500  0.512200  1
  H  H56  1  0.176800  0.568500  0.487800  1
  H  H57  1  0.646400  0.232800  0.799300  1
  H  H58  1  0.353600  0.767200  0.200700  1
  H  H59  1  0.657400  0.227500  0.714200  1
  H  H60  1  0.342600  0.772500  0.285800  1
  H  H61  1  0.801400  0.396200  0.802200  1
  H  H62  1  0.198600  0.603800  0.197800  1
  H  H63  1  0.792400  0.390000  0.883700  1
  H  H64  1  0.207600  0.610000  0.116300  1
  H  H65  1  0.908700  0.254900  0.532700  1
  H  H66  1  0.091300  0.745100  0.467300  1
  H  H67  1  0.841500  0.198900  0.501900  1
  H  H68  1  0.158500  0.801100  0.498100  1
  H  H69  1  0.894400  0.199900  0.555100  1
  H  H70  1  0.105600  0.800100  0.444900  1
  H  H71  1  0.742000  0.110800  0.714800  1
  H  H72  1  0.258000  0.889200  0.285200  1
  H  H73  1  0.804600  0.170800  0.754600  1
  H  H74  1  0.195400  0.829200  0.245400  1
  H  H75  1  0.803600  0.121600  0.696100  1
  H  H76  1  0.196400  0.878400  0.303900  1
  H  H77  1  0.178500  0.270300  0.260300  1
  H  H78  1  0.821500  0.729700  0.739700  1
  H  H79  1  0.167900  0.251800  0.336300  1
  H  H80  1  0.832100  0.748200  0.663700  1
  H  H81  1  0.139600  0.428500  0.396700  1
  H  H82  1  0.860400  0.571500  0.603300  1
  H  H83  1  0.147900  0.439500  0.318300  1
  H  H84  1  0.852100  0.560500  0.681700  1
  H  H85  1  0.119500  0.265100  0.655600  1
  H  H86  1  0.880500  0.734900  0.344400  1
  H  H87  1  0.125300  0.246200  0.569800  1
  H  H88  1  0.874700  0.753800  0.430200  1
  H  H89  1  0.124700  0.432200  0.598600  1
  H  H90  1  0.875300  0.567800  0.401400  1
  H  H91  1  0.121300  0.445000  0.684600  1
  H  H92  1  0.878700  0.555000  0.315400  1
  H  H93  1  0.896900  0.140300  0.325700  1
  H  H94  1  0.103100  0.859700  0.674300  1
  H  H95  1  0.956200  0.114300  0.314000  1
  H  H96  1  0.043800  0.885700  0.686000  1
  H  H97  1  0.927400  0.157700  0.283900  1
  H  H98  1  0.072600  0.842300  0.716100  1
  H  H99  1  0.983800  0.082600  0.432100  1
  H  H100  1  0.016200  0.917400  0.567900  1
  H  H101  1  0.935700  0.126400  0.425600  1
  H  H102  1  0.064300  0.873600  0.574400  1
  H  H103  1  0.979300  0.135800  0.486200  1
  H  H104  1  0.020700  0.864200  0.513800  1
  H  H105  1  0.739400  0.900600  0.597300  1
  H  H106  1  0.260600  0.099400  0.402700  1
  H  H107  1  0.747500  0.908800  0.687800  1
  H  H108  1  0.252500  0.091200  0.312200  1
  H  H109  1  0.564900  0.928800  0.651300  1
  H  H110  1  0.435100  0.071200  0.348700  1
  H  H111  1  0.565400  0.925800  0.565500  1
  H  H112  1  0.434600  0.074200  0.434500  1
  H  H113  1  0.700500  0.880500  0.984100  1
  H  H114  1  0.299500  0.119500  0.015900  1
  H  H115  1  0.718300  0.886200  0.906000  1
  H  H116  1  0.281700  0.113800  0.094000  1
  H  H117  1  0.542900  0.917700  0.861400  1
  H  H118  1  0.457100  0.082300  0.138600  1
  H  H119  1  0.531400  0.909100  0.940400  1
  H  H120  1  0.468600  0.090900  0.059600  1
  H  H121  1  0.909300  0.047900  0.810100  1
  H  H122  1  0.090700  0.952100  0.189900  1
  H  H123  1  0.873800  0.095000  0.842200  1
  H  H124  1  0.126200  0.905000  0.157800  1
  H  H125  1  0.858700  0.075400  0.777100  1
  H  H126  1  0.141300  0.924600  0.222900  1
  H  H127  1  0.724900  0.078000  0.016500  1
  H  H128  1  0.275100  0.922000  0.983500  1
  H  H129  1  0.752100  0.134200  0.999200  1
  H  H130  1  0.247900  0.865800  0.000800  1
  H  H131  1  0.798400  0.093800  0.018800  1
  H  H132  1  0.201600  0.906200  0.981200  1
  H  H133  1  0.833300  0.324100  0.274000  1
  H  H134  1  0.166700  0.675900  0.726000  1
  H  H135  1  0.873400  0.375900  0.336600  1
  H  H136  1  0.126600  0.624100  0.663400  1
  H  H137  1  0.881300  0.275500  0.331100  1
  H  H138  1  0.118700  0.724500  0.668900  1
  H  H139  1  0.804200  0.246100  0.304100  1
  H  H140  1  0.195800  0.753900  0.695900  1
  H  H141  1  0.716500  0.309500  0.236300  1
  H  H142  1  0.283500  0.690500  0.763700  1
  H  H143  1  0.676700  0.322400  0.277800  1
  H  H144  1  0.323300  0.677600  0.722200  1
  H  H145  1  0.710900  0.265300  0.270200  1
  H  H146  1  0.289100  0.734700  0.729800  1
  H  H147  1  0.784700  0.419600  0.281700  1
  H  H148  1  0.215300  0.580400  0.718300  1
  H  H149  1  0.821600  0.452000  0.347600  1
  H  H150  1  0.178400  0.548000  0.652400  1
  H  H151  1  0.744400  0.436200  0.322600  1
  H  H152  1  0.255600  0.563800  0.677400  1
  H  H153  1  0.854100  0.220800  0.394900  1
  H  H154  1  0.145900  0.779200  0.605100  1
  H  H155  1  0.778500  0.213000  0.368400  1
  H  H156  1  0.221500  0.787000  0.631600  1
  H  H157  1  0.815800  0.253400  0.433800  1
  H  H158  1  0.184200  0.746600  0.566200  1
  H  H159  1  0.932500  0.321400  0.430000  1
  H  H160  1  0.067500  0.678600  0.570000  1
  H  H161  1  0.895700  0.359100  0.467800  1
  H  H162  1  0.104300  0.640900  0.532200  1
  H  H163  1  0.912700  0.383200  0.423300  1
  H  H164  1  0.087300  0.616800  0.576700  1
  H  H165  1  0.136600  0.317900  0.079600  1
  H  H166  1  0.863400  0.682100  0.920400  1
  H  H167  1  0.119800  0.384200  0.083300  1
  H  H168  1  0.880200  0.615800  0.916700  1
  H  H169  1  0.042500  0.297300  0.083700  1
  H  H170  1  0.957500  0.702700  0.916300  1
  H  H171  1  0.049500  0.370900  0.120100  1
  H  H172  1  0.950500  0.629100  0.879900  1
  H  H173  1  0.201700  0.466100  0.130500  1
  H  H174  1  0.798300  0.533900  0.869500  1
  H  H175  1  0.238100  0.480700  0.194300  1
  H  H176  1  0.761900  0.519300  0.805700  1
  H  H177  1  0.162400  0.474700  0.172400  1
  H  H178  1  0.837600  0.525300  0.827600  1
  H  H179  1  0.234600  0.375100  0.100800  1
  H  H180  1  0.765400  0.624900  0.899200  1
  H  H181  1  0.220900  0.319500  0.122600  1
  H  H182  1  0.779100  0.680500  0.877400  1
  H  H183  1  0.273000  0.387800  0.163700  1
  H  H184  1  0.727000  0.612200  0.836300  1
  H  H185  1  0.993100  0.322500  0.164500  1
  H  H186  1  0.006900  0.677500  0.835500  1
  H  H187  1  0.044600  0.392700  0.196100  1
  H  H188  1  0.955400  0.607300  0.803900  1
  H  H189  1  0.044900  0.342300  0.224900  1
  H  H190  1  0.955100  0.657700  0.775100  1
  H  H191  1  0.024200  0.228400  0.129900  1
  H  H192  1  0.975800  0.771600  0.870100  1
  H  H193  1  0.079000  0.246100  0.188400  1
  H  H194  1  0.921000  0.753900  0.811600  1
  H  H195  1  0.098100  0.234400  0.134100  1
  H  H196  1  0.901900  0.765600  0.865900  1
  H  H197  1  0.692300  0.979500  0.405500  1
  H  H198  1  0.307700  0.020500  0.594500  1
  H  H199  1  0.748300  0.958700  0.439700  1
  H  H200  1  0.251700  0.041300  0.560300  1
  H  H201  1  0.762000  0.050300  0.505400  1
  H  H202  1  0.238000  0.949700  0.494600  1
  H  H203  1  0.690100  0.053300  0.479000  1
  H  H204  1  0.309900  0.946700  0.521000  1
  H  H205  1  0.593700  0.884200  0.348500  1
  H  H206  1  0.406300  0.115800  0.651500  1
  H  H207  1  0.569600  0.917800  0.398600  1
  H  H208  1  0.430400  0.082200  0.601400  1
  H  H209  1  0.570700  0.843800  0.381100  1
  H  H210  1  0.429300  0.156200  0.618900  1
  H  H211  1  0.702500  0.870800  0.371700  1
  H  H212  1  0.297500  0.129200  0.628300  1
  H  H213  1  0.685500  0.827100  0.403700  1
  H  H214  1  0.314500  0.172900  0.596300  1
  H  H215  1  0.745400  0.891200  0.435200  1
  H  H216  1  0.254600  0.108800  0.564800  1
  H  H217  1  0.684900  0.095400  0.574600  1
  H  H218  1  0.315100  0.904600  0.425400  1
  H  H219  1  0.659400  0.039000  0.592400  1
  H  H220  1  0.340600  0.961000  0.407600  1
  H  H221  1  0.618300  0.040300  0.535100  1
  H  H222  1  0.381700  0.959700  0.464900  1
  H  H223  1  0.781800  0.074600  0.587600  1
  H  H224  1  0.218200  0.925400  0.412400  1
  H  H225  1  0.789800  0.004800  0.556000  1
  H  H226  1  0.210200  0.995200  0.444000  1
  H  H227  1  0.759100  0.016200  0.604100  1
  H  H228  1  0.240900  0.983800  0.395900  1
  H  H229  1  0.731200  0.270300  0.041900  1
  H  H230  1  0.268800  0.729700  0.958100  1
  H  H231  1  0.786500  0.321000  0.037900  1
  H  H232  1  0.213500  0.679000  0.962100  1
  H  H233  1  0.787300  0.215700  0.985400  1
  H  H234  1  0.212700  0.784300  0.014600  1
  H  H235  1  0.711500  0.196700  0.950800  1
  H  H236  1  0.288500  0.803300  0.049200  1
  H  H237  1  0.699000  0.378200  0.066600  1
  H  H238  1  0.301000  0.621800  0.933400  1
  H  H239  1  0.673800  0.400700  0.017300  1
  H  H240  1  0.326200  0.599300  0.982700  1
  H  H241  1  0.749100  0.406700  0.042400  1
  H  H242  1  0.250900  0.593300  0.957600  1
  H  H243  1  0.623600  0.276100  0.014700  1
  H  H244  1  0.376400  0.723900  0.985300  1
  H  H245  1  0.623000  0.230500  0.955100  1
  H  H246  1  0.377000  0.769500  0.044900  1
  H  H247  1  0.596300  0.292500  0.962000  1
  H  H248  1  0.403700  0.707500  0.038000  1
  H  H249  1  0.866600  0.274500  0.959000  1
  H  H250  1  0.133400  0.725500  0.041000  1
  H  H251  1  0.843100  0.335300  0.988400  1
  H  H252  1  0.156900  0.664700  0.011600  1
  H  H253  1  0.843200  0.317700  0.926500  1
  H  H254  1  0.156800  0.682300  0.073500  1
  H  H255  1  0.788800  0.176800  0.886000  1
  H  H256  1  0.211200  0.823200  0.114000  1
  H  H257  1  0.767000  0.218300  0.851200  1
  H  H258  1  0.233000  0.781700  0.148800  1
  H  H259  1  0.714000  0.173700  0.862700  1
  H  H260  1  0.286000  0.826300  0.137300  1
  H  H261  1  0.030600  0.372700  0.850500  1
  H  H262  1  0.969400  0.627300  0.149500  1
  H  H263  1  0.029400  0.424600  0.823900  1
  H  H264  1  0.970600  0.575400  0.176100  1
  H  H265  1  0.954400  0.348300  0.766600  1
  H  H266  1  0.045600  0.651700  0.233400  1
  H  H267  1  0.990000  0.295600  0.775500  1
  H  H268  1  0.010000  0.704400  0.224500  1
  H  H269  1  0.136900  0.364000  0.892900  1
  H  H270  1  0.863100  0.636000  0.107100  1
  H  H271  1  0.185600  0.361500  0.859100  1
  H  H272  1  0.814400  0.638500  0.140900  1
  H  H273  1  0.116700  0.308200  0.832000  1
  H  H274  1  0.883300  0.691800  0.168000  1
  H  H275  1  0.141900  0.466200  0.907100  1
  H  H276  1  0.858100  0.533800  0.092900  1
  H  H277  1  0.130900  0.490600  0.857800  1
  H  H278  1  0.869100  0.509400  0.142200  1
  H  H279  1  0.193000  0.465800  0.875500  1
  H  H280  1  0.807000  0.534200  0.124500  1
  H  H281  1  0.951400  0.247500  0.672200  1
  H  H282  1  0.048600  0.752500  0.327800  1
  H  H283  1  0.019400  0.240600  0.704500  1
  H  H284  1  0.980600  0.759400  0.295500  1
  H  H285  1  0.012800  0.262800  0.654300  1
  H  H286  1  0.987200  0.737200  0.345700  1
  H  H287  1  0.937300  0.353300  0.680100  1
  H  H288  1  0.062700  0.646700  0.319900  1
  H  H289  1  0.998900  0.366900  0.662000  1
  H  H290  1  0.001100  0.633100  0.338000  1
  H  H291  1  0.996800  0.416800  0.718800  1
  H  H292  1  0.003200  0.583200  0.281200  1
  H  H293  1  0.562700  0.954700  0.144400  1
  H  H294  1  0.437300  0.045300  0.855600  1
  H  H295  1  0.624700  0.948900  0.186300  1
  H  H296  1  0.375300  0.051100  0.813700  1
  H  H297  1  0.691700  0.993100  0.155900  1
  H  H298  1  0.308300  0.006900  0.844100  1
  H  H299  1  0.641600  0.035300  0.158600  1
  H  H300  1  0.358400  0.964700  0.841400  1
  H  H301  1  0.532300  0.842100  0.136300  1
  H  H302  1  0.467700  0.157900  0.863700  1
  H  H303  1  0.527000  0.798000  0.074600  1
  H  H304  1  0.473000  0.202000  0.925400  1
  H  H305  1  0.500100  0.860300  0.085600  1
  H  H306  1  0.499900  0.139700  0.914400  1
  H  H307  1  0.636400  0.853600  0.170200  1
  H  H308  1  0.363600  0.146400  0.829800  1
  H  H309  1  0.686500  0.881200  0.145600  1
  H  H310  1  0.313500  0.118800  0.854400  1
  H  H311  1  0.637500  0.809900  0.110700  1
  H  H312  1  0.362500  0.190100  0.889300  1
  H  H313  1  0.599800  0.061200  0.082000  1
  H  H314  1  0.400200  0.938800  0.918000  1
  H  H315  1  0.544700  0.997200  0.067200  1
  H  H316  1  0.455300  0.002800  0.932800  1
  H  H317  1  0.574200  0.003700  0.021300  1
  H  H318  1  0.425800  0.996300  0.978700  1
  H  H319  1  0.709900  0.060200  0.102200  1
  H  H320  1  0.290100  0.939800  0.897800  1
  H  H321  1  0.696300  0.004300  0.042700  1
  H  H322  1  0.303700  0.995700  0.957300  1
  H  H323  1  0.731300  0.995800  0.098200  1
  H  H324  1  0.268700  0.004200  0.901800  1
  H  H325  1  0.011800  0.121300  0.251700  1
  H  H326  1  0.988200  0.878700  0.748300  1
  H  H327  1  0.000100  0.191500  0.266800  1
  H  H328  1  0.999900  0.808500  0.733200  1
  H  H329  1  0.962200  0.139800  0.283300  1
  H  H330  1  0.037800  0.860200  0.716700  1
  H  H331  1  0.700100  0.991200  0.419100  1
  H  H332  1  0.299900  0.008800  0.580900  1
  H  H333  1  0.627700  0.983900  0.417300  1
  H  H334  1  0.372300  0.016100  0.582700  1
  H  H335  1  0.655000  0.044400  0.475400  1
  H  H336  1  0.345000  0.955600  0.524600  1
  H  H337  1  0.727700  0.045900  0.480500  1
  H  H338  1  0.272300  0.954100  0.519500  1
  Pd  Pd339  1  0.768590  0.353180  0.391110  1
  Pd  Pd340  1  0.231410  0.646820  0.608890  1
  Pd  Pd341  1  0.173400  0.373080  0.217130  1
  Pd  Pd342  1  0.826600  0.626920  0.782870  1
  Pd  Pd343  1  0.656150  0.911570  0.501280  1
  Pd  Pd344  1  0.343850  0.088430  0.498720  1
  Pd  Pd345  1  0.705770  0.313040  0.918910  1
  Pd  Pd346  1  0.294230  0.686960  0.081090  1
  Pd  Pd347  1  0.117180  0.372570  0.754210  1
  Pd  Pd348  1  0.882820  0.627430  0.245790  1
  Pd  Pd349  1  0.604290  0.884990  0.037060  1
  Pd  Pd350  1  0.395710  0.115010  0.962940  1
  C  C351  1  0.723600  0.469800  0.421800  1
  C  C352  1  0.276400  0.530200  0.578200  1
  C  C353  1  0.678800  0.505900  0.424700  1
  C  C354  1  0.321200  0.494100  0.575300  1
  C  C355  1  0.615000  0.476600  0.399800  1
  C  C356  1  0.385000  0.523400  0.600200  1
  C  C357  1  0.592900  0.407900  0.371900  1
  C  C358  1  0.407100  0.592100  0.628100  1
  C  C359  1  0.639900  0.375400  0.371700  1
  C  C360  1  0.360100  0.624600  0.628300  1
  C  C361  1  0.311100  0.389500  0.271900  1
  C  C362  1  0.688900  0.610500  0.728100  1
  C  C363  1  0.373400  0.417000  0.303400  1
  C  C364  1  0.626600  0.583000  0.696600  1
  C  C365  1  0.394800  0.485600  0.333200  1
  C  C366  1  0.605200  0.514400  0.666800  1
  C  C367  1  0.349200  0.519100  0.330200  1
  C  C368  1  0.650800  0.480900  0.669800  1
  C  C369  1  0.287100  0.487000  0.297600  1
  C  C370  1  0.712900  0.513000  0.702400  1
  C  C371  1  0.554200  0.786100  0.446500  1
  C  C372  1  0.445800  0.213900  0.553500  1
  C  C373  1  0.528700  0.719400  0.426900  1
  C  C374  1  0.471300  0.280600  0.573100  1
  C  C375  1  0.569600  0.682000  0.434400  1
  C  C376  1  0.430400  0.318000  0.565600  1
  C  C377  1  0.637000  0.713200  0.457700  1
  C  C378  1  0.363000  0.286800  0.542300  1
  C  C379  1  0.658500  0.778400  0.476900  1
  C  C380  1  0.341500  0.221600  0.523100  1
  C  C381  1  0.567200  0.515000  0.396400  1
  C  C382  1  0.432800  0.485000  0.603600  1
  C  C383  1  0.546000  0.610300  0.412900  1
  C  C384  1  0.454000  0.389700  0.587100  1
  C  C385  1  0.464000  0.518500  0.365400  1
  C  C386  1  0.536000  0.481500  0.634600  1
  C  C387  1  0.669100  0.432600  0.927600  1
  C  C388  1  0.330900  0.567400  0.072400  1
  C  C389  1  0.629900  0.472200  0.920200  1
  C  C390  1  0.370100  0.527800  0.079800  1
  C  C391  1  0.563800  0.444100  0.890200  1
  C  C392  1  0.436200  0.555900  0.109800  1
  C  C393  1  0.539800  0.377500  0.867000  1
  C  C394  1  0.460200  0.622500  0.133000  1
  C  C395  1  0.582200  0.341200  0.877600  1
  C  C396  1  0.417800  0.658800  0.122400  1
  C  C397  1  0.253600  0.372000  0.786600  1
  C  C398  1  0.746400  0.628000  0.213400  1
  C  C399  1  0.322700  0.399500  0.810200  1
  C  C400  1  0.677300  0.600500  0.189800  1
  C  C401  1  0.348000  0.464600  0.827700  1
  C  C402  1  0.652000  0.535400  0.172300  1
  C  C403  1  0.306400  0.501200  0.821800  1
  C  C404  1  0.693600  0.498800  0.178200  1
  C  C405  1  0.242300  0.474400  0.800100  1
  C  C406  1  0.757700  0.525600  0.199900  1
  C  C407  1  0.512200  0.759100  0.962500  1
  C  C408  1  0.487800  0.240900  0.037500  1
  C  C409  1  0.488100  0.692200  0.931500  1
  C  C410  1  0.511900  0.307800  0.068500  1
  C  C411  1  0.529100  0.655600  0.934700  1
  C  C412  1  0.470900  0.344400  0.065300  1
  C  C413  1  0.593800  0.684200  0.966300  1
  C  C414  1  0.406200  0.315800  0.033700  1
  C  C415  1  0.614900  0.751000  0.996100  1
  C  C416  1  0.385100  0.249000  0.003900  1
  C  C417  1  0.518900  0.484700  0.883900  1
  C  C418  1  0.481100  0.515300  0.116100  1
  C  C419  1  0.503000  0.582400  0.905000  1
  C  C420  1  0.497000  0.417600  0.095000  1
  C  C421  1  0.419500  0.493600  0.854900  1
  C  C422  1  0.580500  0.506400  0.145100  1
  C  C423  1  0.719800  0.297400  0.460000  1
  C  C424  1  0.280200  0.702600  0.540000  1
  C  C425  1  0.713200  0.288100  0.504900  1
  C  C426  1  0.286800  0.711900  0.495100  1
  C  C427  1  0.751600  0.334900  0.556300  1
  C  C428  1  0.248400  0.665100  0.443700  1
  C  C429  1  0.793900  0.389900  0.559300  1
  C  C430  1  0.206100  0.610100  0.440700  1
  C  C431  1  0.795600  0.394000  0.510500  1
  C  C432  1  0.204400  0.606000  0.489500  1
  C  C433  1  0.679000  0.265300  0.799600  1
  C  C434  1  0.321000  0.734700  0.200400  1
  C  C435  1  0.684200  0.262300  0.748400  1
  C  C436  1  0.315800  0.737700  0.251600  1
  C  C437  1  0.731200  0.313500  0.750600  1
  C  C438  1  0.268800  0.686500  0.249400  1
  C  C439  1  0.770100  0.361200  0.800400  1
  C  C440  1  0.229900  0.638800  0.199600  1
  C  C441  1  0.763600  0.358200  0.848600  1
  C  C442  1  0.236400  0.641800  0.151400  1
  C  C443  1  0.748800  0.325100  0.606500  1
  C  C444  1  0.251200  0.674900  0.393500  1
  C  C445  1  0.772200  0.278100  0.620700  1
  C  C446  1  0.227800  0.721900  0.379300  1
  C  C447  1  0.799800  0.235200  0.585300  1
  C  C448  1  0.200200  0.764800  0.414700  1
  C  C449  1  0.875100  0.226800  0.538000  1
  C  C450  1  0.124900  0.773200  0.462000  1
  C  C451  1  0.736400  0.313900  0.697800  1
  C  C452  1  0.263600  0.686100  0.302200  1
  C  C453  1  0.765100  0.271700  0.666667  1
  C  C454  1  0.234900  0.728300  0.333333  1
  C  C455  1  0.790900  0.224700  0.686400  1
  C  C456  1  0.209100  0.775300  0.313600  1
  C  C457  1  0.777400  0.143300  0.715800  1
  C  C458  1  0.222600  0.856700  0.284200  1
  C  C459  1  0.169400  0.302000  0.288200  1
  C  C460  1  0.830600  0.698000  0.711800  1
  C  C461  1  0.162800  0.290900  0.333200  1
  C  C462  1  0.837200  0.709100  0.666800  1
  C  C463  1  0.149100  0.335900  0.373600  1
  C  C464  1  0.850900  0.664100  0.626400  1
  C  C465  1  0.145900  0.394400  0.368600  1
  C  C466  1  0.854100  0.605600  0.631400  1
  C  C467  1  0.152000  0.400700  0.322500  1
  C  C468  1  0.848000  0.599300  0.677500  1
  C  C469  1  0.121100  0.299100  0.643200  1
  C  C470  1  0.878900  0.700900  0.356800  1
  C  C471  1  0.123500  0.287500  0.592500  1
  C  C472  1  0.876500  0.712500  0.407500  1
  C  C473  1  0.123200  0.337100  0.573000  1
  C  C474  1  0.876800  0.662900  0.427000  1
  C  C475  1  0.123400  0.396700  0.609300  1
  C  C476  1  0.876600  0.603300  0.390700  1
  C  C477  1  0.121700  0.404000  0.660200  1
  C  C478  1  0.878300  0.596000  0.339800  1
  C  C479  1  0.138700  0.327100  0.422600  1
  C  C480  1  0.861300  0.672900  0.577400  1
  C  C481  1  0.088000  0.277200  0.420300  1
  C  C482  1  0.912000  0.722800  0.579700  1
  C  C483  1  0.041000  0.219000  0.365000  1
  C  C484  1  0.959000  0.781000  0.635000  1
  C  C485  1  0.937000  0.150500  0.318200  1
  C  C486  1  0.063000  0.849500  0.681800  1
  C  C487  1  0.125500  0.329100  0.516700  1
  C  C488  1  0.874500  0.670900  0.483300  1
  C  C489  1  0.082600  0.280100  0.468600  1
  C  C490  1  0.917400  0.719900  0.531400  1
  C  C491  1  0.027500  0.234300  0.471900  1
  C  C492  1  0.972500  0.765700  0.528100  1
  C  C493  1  0.977800  0.125700  0.447900  1
  C  C494  1  0.022200  0.874300  0.552100  1
  C  C495  1  0.704300  0.908000  0.609700  1
  C  C496  1  0.295700  0.092000  0.390300  1
  C  C497  1  0.709300  0.911100  0.663600  1
  C  C498  1  0.290700  0.088900  0.336400  1
  C  C499  1  0.655500  0.917900  0.679100  1
  C  C500  1  0.344500  0.082100  0.320900  1
  C  C501  1  0.602000  0.923600  0.641300  1
  C  C502  1  0.398000  0.076400  0.358700  1
  C  C503  1  0.601900  0.921900  0.590300  1
  C  C504  1  0.398100  0.078100  0.409700  1
  C  C505  1  0.667600  0.887100  0.957900  1
  C  C506  1  0.332400  0.112900  0.042100  1
  C  C507  1  0.679700  0.892900  0.912500  1
  C  C508  1  0.320300  0.107100  0.087500  1
  C  C509  1  0.635800  0.908300  0.877000  1
  C  C510  1  0.364200  0.091700  0.123000  1
  C  C511  1  0.576900  0.911000  0.886500  1
  C  C512  1  0.423100  0.089000  0.113500  1
  C  C513  1  0.569800  0.903900  0.932700  1
  C  C514  1  0.430200  0.096100  0.067300  1
  C  C515  1  0.656300  0.919800  0.735100  1
  C  C516  1  0.343700  0.080200  0.264900  1
  C  C517  1  0.703800  0.963400  0.783700  1
  C  C518  1  0.296200  0.036600  0.216300  1
  C  C519  1  0.647500  0.917900  0.828400  1
  C  C520  1  0.352500  0.082100  0.171600  1
  C  C521  1  0.700400  0.960200  0.831500  1
  C  C522  1  0.299600  0.039800  0.168500  1
  C  C523  1  0.761300  0.015400  0.785100  1
  C  C524  1  0.238700  0.984600  0.214900  1
  C  C525  1  0.868900  0.060200  0.807000  1
  C  C526  1  0.131100  0.939800  0.193000  1
  C  C527  1  0.755500  0.012300  0.888300  1
  C  C528  1  0.244500  0.987700  0.111700  1
  C  C529  1  0.753900  0.091500  0.998600  1
  C  C530  1  0.246100  0.908500  0.001400  1
  C  C531  1  0.835100  0.338000  0.313000  1
  C  C532  1  0.164900  0.662000  0.687000  1
  C  C533  1  0.839700  0.285400  0.331000  1
  C  C534  1  0.160300  0.714600  0.669000  1
  C  C535  1  0.714600  0.309100  0.271600  1
  C  C536  1  0.285400  0.690900  0.728400  1
  C  C537  1  0.782100  0.421500  0.317500  1
  C  C538  1  0.217900  0.578500  0.682500  1
  C  C539  1  0.819700  0.242300  0.397000  1
  C  C540  1  0.180300  0.757700  0.603000  1
  C  C541  1  0.899700  0.345100  0.430900  1
  C  C542  1  0.100300  0.654900  0.569100  1
  C  C543  1  0.128500  0.356800  0.104100  1
  C  C544  1  0.871500  0.643200  0.895900  1
  C  C545  1  0.072000  0.336600  0.116300  1
  C  C546  1  0.928000  0.663400  0.883700  1
  C  C547  1  0.197400  0.458300  0.162600  1
  C  C548  1  0.802600  0.541700  0.837400  1
  C  C549  1  0.231400  0.366300  0.132800  1
  C  C550  1  0.768600  0.633700  0.867200  1
  C  C551  1  0.037700  0.346800  0.189500  1
  C  C552  1  0.962300  0.653200  0.810500  1
  C  C553  1  0.069500  0.251700  0.153400  1
  C  C554  1  0.930500  0.748300  0.846600  1
  C  C555  1  0.705800  0.967300  0.437400  1
  C  C556  1  0.294200  0.032700  0.562600  1
  C  C557  1  0.716000  0.025000  0.489400  1
  C  C558  1  0.284000  0.975000  0.510600  1
  C  C559  1  0.592800  0.886600  0.384800  1
  C  C560  1  0.407200  0.113400  0.615200  1
  C  C561  1  0.701600  0.871500  0.407500  1
  C  C562  1  0.298400  0.128500  0.592500  1
  C  C563  1  0.662100  0.049400  0.560900  1
  C  C564  1  0.337900  0.950600  0.439100  1
  C  C565  1  0.762500  0.027800  0.573300  1
  C  C566  1  0.237500  0.972200  0.426700  1
  C  C567  1  0.744600  0.287100  0.016400  1
  C  C568  1  0.255400  0.712900  0.983600  1
  C  C569  1  0.752100  0.232600  0.969900  1
  C  C570  1  0.247900  0.767400  0.030100  1
  C  C571  1  0.705000  0.380600  0.033000  1
  C  C572  1  0.295000  0.619400  0.967000  1
  C  C573  1  0.628800  0.275200  0.980000  1
  C  C574  1  0.371200  0.724800  0.020000  1
  C  C575  1  0.836100  0.299800  0.953000  1
  C  C576  1  0.163900  0.700200  0.047000  1
  C  C577  1  0.758500  0.201700  0.878100  1
  C  C578  1  0.241500  0.798300  0.121900  1
  C  C579  1  0.039300  0.383000  0.820200  1
  C  C580  1  0.960700  0.617000  0.179800  1
  C  C581  1  0.996400  0.338000  0.772800  1
  C  C582  1  0.003600  0.662000  0.227200  1
  C  C583  1  0.139900  0.353800  0.856000  1
  C  C584  1  0.860100  0.646200  0.144000  1
  C  C585  1  0.147100  0.459500  0.871200  1
  C  C586  1  0.852900  0.540500  0.128800  1
  C  C587  1  0.998600  0.265400  0.685700  1
  C  C588  1  0.001400  0.734600  0.314300  1
  C  C589  1  0.984500  0.371000  0.693600  1
  C  C590  1  0.015500  0.629000  0.306400  1
  C  C591  1  0.605000  0.945300  0.147900  1
  C  C592  1  0.395000  0.054700  0.852100  1
  C  C593  1  0.646300  0.992200  0.138600  1
  C  C594  1  0.353700  0.007800  0.861400  1
  C  C595  1  0.533900  0.842400  0.100800  1
  C  C596  1  0.466100  0.157600  0.899200  1
  C  C597  1  0.642800  0.854200  0.136200  1
  C  C598  1  0.357200  0.145800  0.863800  1
  C  C599  1  0.584000  0.014000  0.061000  1
  C  C600  1  0.416000  0.986000  0.939000  1
  C  C601  1  0.698400  0.013300  0.080900  1
  C  C602  1  0.301600  0.986700  0.919100  1
  C  C603  1  0.493600  0.426000  0.735900  1
  C  C604  1  0.506400  0.574000  0.264100  1
  C  C605  1  0.518700  0.369900  0.729800  1
  C  C606  1  0.481300  0.630100  0.270200  1
  C  C607  1  0.585700  0.377900  0.751800  1
  C  C608  1  0.414300  0.622100  0.248200  1
  C  C609  1  0.627900  0.450100  0.784200  1
  C  C610  1  0.372100  0.549900  0.215800  1
  C  C611  1  0.603700  0.501300  0.795700  1
  C  C612  1  0.396300  0.498700  0.204300  1
  C  C613  1  0.537500  0.487400  0.771350  1
  C  C614  1  0.462500  0.512600  0.228650  1
  C  C615  1  0.405300  0.472200  0.720300  1
  C  C616  1  0.594700  0.527800  0.279700  1
  C  C617  1  0.335000  0.463500  0.698900  1
  C  C618  1  0.665000  0.536500  0.301100  1
  C  C619  1  0.293300  0.396000  0.665800  1
  C  C620  1  0.706700  0.604000  0.334200  1
  C  C621  1  0.309500  0.343400  0.653700  1
  C  C622  1  0.690500  0.656600  0.346300  1
  C  C623  1  0.374600  0.349800  0.676000  1
  C  C624  1  0.625400  0.650200  0.324000  1
  C  C625  1  0.422000  0.415100  0.710800  1
  C  C626  1  0.578000  0.584900  0.289200  1
  C  C627  1  0.517100  0.545400  0.777310  1
  C  C628  1  0.482900  0.454600  0.222690  1
  C  C629  1  0.561400  0.616800  0.810400  1
  C  C630  1  0.438600  0.383200  0.189600  1
  C  C631  1  0.527200  0.663300  0.812200  1
  C  C632  1  0.472800  0.336700  0.187800  1
  C  C633  1  0.453700  0.654100  0.784800  1
  C  C634  1  0.546300  0.345900  0.215200  1
  C  C635  1  0.432200  0.592200  0.759800  1
  C  C636  1  0.567800  0.407800  0.240200  1
  C  C637  1  0.440800  0.537400  0.755600  1
  C  C638  1  0.559200  0.462600  0.244400  1
  C  C639  1  0.034100  0.240400  0.366300  1
  C  C640  1  0.965900  0.759600  0.633700  1
  C  C641  1  0.003100  0.156000  0.279200  1
  C  C642  1  0.996900  0.844000  0.720800  1
  C  C643  1  0.670000  0.980500  0.437600  1
  C  C644  1  0.330000  0.019500  0.562400  1
  C  C645  1  0.686000  0.018000  0.476700  1
  C  C646  1  0.314000  0.982000  0.523300  1
  C  C647  1  0.535000  0.499000  0.511600  1
  C  C648  1  0.465000  0.501000  0.488400  1
  C  C649  1  0.536800  0.434600  0.496610  1
  C  C650  1  0.463200  0.565400  0.503390  1
  C  C651  1  0.595500  0.419600  0.508900  1
  C  C652  1  0.404500  0.580400  0.491100  1
  C  C653  1  0.652700  0.468800  0.537800  1
  C  C654  1  0.347300  0.531200  0.462200  1
  C  C655  1  0.651800  0.533600  0.555200  1
  C  C656  1  0.348200  0.466400  0.444800  1
  C  C657  1  0.592600  0.549200  0.542200  1
  C  C658  1  0.407400  0.450800  0.457800  1
  C  C659  1  0.592000  0.617100  0.557100  1
  C  C660  1  0.408000  0.382900  0.442900  1
  C  C661  1  0.648600  0.668600  0.586100  1
  C  C662  1  0.351400  0.331400  0.413900  1
  C  C663  1  0.647800  0.732500  0.598900  1
  C  C664  1  0.352200  0.267500  0.401100  1
  C  C665  1  0.589100  0.746400  0.583200  1
  C  C666  1  0.410900  0.253600  0.416800  1
  C  C667  1  0.532100  0.697000  0.556500  1
  C  C668  1  0.467900  0.303000  0.443500  1
  C  C669  1  0.531700  0.631400  0.542200  1
  C  C670  1  0.468300  0.368600  0.457800  1
  C  C671  1  0.480600  0.387000  0.726400  1
  C  C672  1  0.519400  0.613000  0.273600  1
  C  C673  1  0.502600  0.334500  0.719200  1
  C  C674  1  0.497400  0.665500  0.280800  1
  C  C675  1  0.567700  0.340600  0.738700  1
  C  C676  1  0.432300  0.659400  0.261300  1
  C  C677  1  0.611300  0.390600  0.764800  1
  C  C678  1  0.388700  0.609400  0.235200  1
  C  C679  1  0.589700  0.448900  0.771200  1
  C  C680  1  0.410300  0.551100  0.228800  1
  C  C681  1  0.522700  0.449600  0.752300  1
  C  C682  1  0.477300  0.550400  0.247700  1
  C  C683  1  0.383200  0.433900  0.708600  1
  C  C684  1  0.616800  0.566100  0.291400  1
  C  C685  1  0.319500  0.424600  0.683900  1
  C  C686  1  0.680500  0.575400  0.316100  1
  C  C687  1  0.275700  0.370500  0.660600  1
  C  C688  1  0.724300  0.629500  0.339400  1
  C  C689  1  0.304400  0.313100  0.659200  1
  C  C690  1  0.695600  0.686900  0.340800  1
  C  C691  1  0.370100  0.322600  0.681600  1
  C  C692  1  0.629900  0.677400  0.318400  1
  C  C693  1  0.411400  0.380100  0.704100  1
  C  C694  1  0.588600  0.619900  0.295900  1
  C  C695  1  0.496200  0.507000  0.758890  1
  C  C696  1  0.503800  0.493000  0.241110  1
  C  C697  1  0.534800  0.561300  0.783690  1
  C  C698  1  0.465200  0.438700  0.216310  1
  C  C699  1  0.524500  0.622600  0.790500  1
  C  C700  1  0.475500  0.377400  0.209500  1
  C  C701  1  0.466900  0.615700  0.769600  1
  C  C702  1  0.533100  0.384300  0.230400  1
  C  C703  1  0.402800  0.555900  0.741600  1
  C  C704  1  0.597200  0.444100  0.258400  1
  C  C705  1  0.437300  0.498000  0.733300  1
  C  C706  1  0.562700  0.502000  0.266700  1
  N  N707  1  0.702800  0.405300  0.395100  1
  N  N708  1  0.297200  0.594700  0.604900  1
  N  N709  1  0.266800  0.421300  0.266000  1
  N  N710  1  0.733200  0.578700  0.734000  1
  N  N711  1  0.618700  0.814300  0.471100  1
  N  N712  1  0.381300  0.185700  0.528900  1
  N  N713  1  0.482100  0.582600  0.386300  1
  N  N714  1  0.517900  0.417400  0.613700  1
  N  N715  1  0.589400  0.578000  0.418700  1
  N  N716  1  0.410600  0.422000  0.581300  1
  N  N717  1  0.504200  0.482000  0.368500  1
  N  N718  1  0.495800  0.518000  0.631500  1
  N  N719  1  0.643800  0.368100  0.907500  1
  N  N720  1  0.356200  0.631900  0.092500  1
  N  N721  1  0.214200  0.411700  0.783800  1
  N  N722  1  0.785800  0.588300  0.216200  1
  N  N723  1  0.574300  0.787000  0.994200  1
  N  N724  1  0.425700  0.213000  0.005800  1
  N  N725  1  0.440100  0.559200  0.878900  1
  N  N726  1  0.559900  0.440800  0.121100  1
  N  N727  1  0.456200  0.455000  0.855500  1
  N  N728  1  0.543800  0.545000  0.144500  1
  N  N729  1  0.546200  0.548200  0.908600  1
  N  N730  1  0.453800  0.451800  0.091400  1
  N  N731  1  0.760800  0.348200  0.462400  1
  N  N732  1  0.239200  0.651800  0.537600  1
  N  N733  1  0.717000  0.310700  0.846600  1
  N  N734  1  0.283000  0.689300  0.153400  1
  N  N735  1  0.739900  0.377000  0.648100  1
  N  N736  1  0.260100  0.623000  0.351900  1
  N  N737  1  0.734800  0.369100  0.691700  1
  N  N738  1  0.265200  0.630900  0.308300  1
  N  N739  1  0.163100  0.356500  0.283500  1
  N  N740  1  0.836900  0.643500  0.716500  1
  N  N741  1  0.120700  0.357100  0.677000  1
  N  N742  1  0.879300  0.642900  0.323000  1
  N  N743  1  0.177400  0.372900  0.470700  1
  N  N744  1  0.822600  0.627100  0.529300  1
  N  N745  1  0.171600  0.374300  0.517100  1
  N  N746  1  0.828400  0.625700  0.482900  1
  N  N747  1  0.654500  0.914600  0.576500  1
  N  N748  1  0.345500  0.085400  0.423500  1
  N  N749  1  0.613200  0.890300  0.966500  1
  N  N750  1  0.386800  0.109700  0.033500  1
  N  N751  1  0.604400  0.884200  0.733800  1
  N  N752  1  0.395600  0.115800  0.266200  1
  N  N753  1  0.599900  0.882300  0.781900  1
  N  N754  1  0.400100  0.117700  0.218100  1
  N  N755  1  0.774900  0.355200  0.318100  1
  N  N756  1  0.225100  0.644800  0.681900  1
  N  N757  1  0.835700  0.301700  0.387700  1
  N  N758  1  0.164300  0.698300  0.612300  1
  N  N759  1  0.182500  0.390000  0.149200  1
  N  N760  1  0.817500  0.610000  0.850800  1
  N  N761  1  0.080700  0.322400  0.165400  1
  N  N762  1  0.919300  0.677600  0.834600  1
  N  N763  1  0.660300  0.908000  0.424700  1
  N  N764  1  0.339700  0.092000  0.575300  1
  N  N765  1  0.697700  0.009500  0.532000  1
  N  N766  1  0.302300  0.990500  0.468000  1
  N  N767  1  0.694500  0.315400  0.992200  1
  N  N768  1  0.305500  0.684600  0.007800  1
  N  N769  1  0.767300  0.256600  0.930100  1
  N  N770  1  0.232700  0.743400  0.069900  1
  N  N771  1  0.111000  0.395100  0.831800  1
  N  N772  1  0.889000  0.604900  0.168200  1
  N  N773  1  0.016800  0.333100  0.724800  1
  N  N774  1  0.983200  0.666900  0.275200  1
  N  N775  1  0.594800  0.880800  0.109600  1
  N  N776  1  0.405200  0.119200  0.890400  1
  N  N777  1  0.635900  0.983100  0.080600  1
  N  N778  1  0.364100  0.016900  0.919400  1
  N  N779  1  0.424600  0.908500  0.022600  1
  N  N780  1  0.575400  0.091500  0.977400  1
  N  N781  1  0.085100  0.473000  0.506200  1
  N  N782  1  0.914900  0.527000  0.493800  1
  N  N783  1  0.855600  0.497700  0.990000  1
  N  N784  1  0.144400  0.502300  0.010000  1
  N  N785  1  0.518400  0.646900  0.046300  1
  N  N786  1  0.481600  0.353100  0.953700  1
  N  N787  1  0.111000  0.533800  0.264100  1
  N  N788  1  0.889000  0.466200  0.735900  1
  N  N789  1  0.528600  0.789000  0.243000  1
  N  N790  1  0.471400  0.211000  0.757000  1
  N  N791  1  0.714100  0.359300  0.636500  1
  N  N792  1  0.285900  0.640700  0.363500  1
  N  N793  1  0.707300  0.354500  0.680500  1
  N  N794  1  0.292700  0.645500  0.319500  1
  N  N795  1  0.402800  0.807300  0.424800  1
  N  N796  1  0.597200  0.192700  0.575200  1
  N  N797  1  0.815000  0.812500  0.572600  1
  N  N798  1  0.185000  0.187500  0.427400  1
  N  N799  1  0.823800  0.844200  0.504500  1
  N  N800  1  0.176200  0.155800  0.495500  1
  O  O801  1  0.776000  0.172500  0.556900  1
  O  O802  1  0.224000  0.827500  0.443100  1
  O  O803  1  0.846000  0.267000  0.574500  1
  O  O804  1  0.154000  0.733000  0.425500  1
  O  O805  1  0.848400  0.230700  0.700400  1
  O  O806  1  0.151600  0.769300  0.299600  1
  O  O807  1  0.751200  0.182000  0.689900  1
  O  O808  1  0.248800  0.818000  0.310100  1
  O  O809  1  0.054600  0.207600  0.327200  1
  O  O810  1  0.945400  0.792400  0.672800  1
  O  O811  1  0.983000  0.209500  0.364900  1
  O  O812  1  0.017000  0.790500  0.635100  1
  O  O813  1  0.989500  0.252400  0.491000  1
  O  O814  1  0.010500  0.747600  0.509000  1
  O  O815  1  0.029800  0.174500  0.447700  1
  O  O816  1  0.970200  0.825500  0.552300  1
  O  O817  1  0.749600  0.056600  0.771200  1
  O  O818  1  0.250400  0.943400  0.228800  1
  O  O819  1  0.812700  0.000200  0.793600  1
  O  O820  1  0.187300  0.999800  0.206400  1
  O  O821  1  0.812800  0.968000  0.897100  1
  O  O822  1  0.187200  0.032000  0.102900  1
  O  O823  1  0.728800  0.033100  0.927200  1
  O  O824  1  0.271200  0.966900  0.072800  1
  O  O825  1  0.368400  0.861700  0.995700  1
  O  O826  1  0.631600  0.138300  0.004300  1
  O  O827  1  0.418000  0.942800  0.053200  1
  O  O828  1  0.582000  0.057200  0.946800  1
  O  O829  1  0.452300  0.885400  0.989400  1
  O  O830  1  0.547700  0.114600  0.010600  1
  O  O831  1  0.040500  0.423600  0.493200  1
  O  O832  1  0.959500  0.576400  0.506800  1
  O  O833  1  0.094300  0.481800  0.465700  1
  O  O834  1  0.905700  0.518200  0.534300  1
  O  O835  1  0.116600  0.508100  0.552600  1
  O  O836  1  0.883400  0.491900  0.447400  1
  O  O837  1  0.825200  0.447900  0.987900  1
  O  O838  1  0.174800  0.552100  0.012100  1
  O  O839  1  0.830300  0.526200  0.961600  1
  O  O840  1  0.169700  0.473800  0.038400  1
  O  O841  1  0.913000  0.521900  0.020700  1
  O  O842  1  0.087000  0.478100  0.979300  1
  O  O843  1  0.459200  0.621200  0.013200  1
  O  O844  1  0.540800  0.378800  0.986800  1
  O  O845  1  0.546500  0.605100  0.041100  1
  O  O846  1  0.453500  0.394900  0.958900  1
  O  O847  1  0.547000  0.697700  0.079000  1
  O  O848  1  0.453000  0.302300  0.921000  1
  O  O849  1  0.118100  0.530200  0.310700  1
  O  O850  1  0.881900  0.469800  0.689300  1
  O  O851  1  0.119000  0.578600  0.246800  1
  O  O852  1  0.881000  0.421400  0.753200  1
  O  O853  1  0.139300  0.498800  0.238300  1
  O  O854  1  0.860700  0.501200  0.761700  1
  O  O855  1  0.533900  0.809500  0.215000  1
  O  O856  1  0.466100  0.190500  0.785000  1
  O  O857  1  0.569600  0.759100  0.263300  1
  O  O858  1  0.430400  0.240900  0.736700  1
  O  O859  1  0.483800  0.776800  0.264900  1
  O  O860  1  0.516200  0.223200  0.735100  1
  O  O861  1  0.882800  0.382300  0.200900  1
  O  O862  1  0.117200  0.617700  0.799100  1
  O  O863  1  0.894500  0.474400  0.233600  1
  O  O864  1  0.105500  0.525600  0.766400  1
  O  O865  1  0.854000  0.875000  0.487000  1
  O  O866  1  0.146000  0.125000  0.513000  1
  O  O867  1  0.792000  0.180900  0.581300  1
  O  O868  1  0.208000  0.819100  0.418700  1
  O  O869  1  0.980100  0.241400  0.355600  1
  O  O870  1  0.019900  0.758600  0.644400  1
  O  O871  1  0.058000  0.181900  0.335100  1
  O  O872  1  0.942000  0.818100  0.664900  1
  O  O873  1  0.778500  0.064400  0.891100  1
  O  O874  1  0.221500  0.935600  0.108900  1
  O  O875  1  0.056200  0.501400  0.223800  1
  O  O876  1  0.943800  0.498600  0.776200  1
  O  O877  1  0.161700  0.575800  0.270200  1
  O  O878  1  0.838300  0.424200  0.729800  1
  O  O879  1  0.388600  0.765300  0.445100  1
  O  O880  1  0.611400  0.234700  0.554900  1
  O  O881  1  0.402400  0.782600  0.386700  1
  O  O882  1  0.597600  0.217400  0.613300  1
  O  O883  1  0.439100  0.856300  0.466900  1
  O  O884  1  0.560900  0.143700  0.533100  1
  O  O885  1  0.384600  0.804100  0.459400  1
  O  O886  1  0.615400  0.195900  0.540600  1
  O  O887  1  0.419700  0.836900  0.396800  1
  O  O888  1  0.580300  0.163100  0.603200  1
  O  O889  1  0.511300  0.837900  0.241900  1
  O  O890  1  0.488700  0.162100  0.758100  1
  O  O891  1  0.810000  0.778000  0.509000  1
  O  O892  1  0.190000  0.222000  0.491000  1
  O  O893  1  0.824800  0.870000  0.557900  1
  O  O894  1  0.175200  0.130000  0.442100  1
  O  O895  1  0.787300  0.787100  0.591100  1
  O  O896  1  0.212700  0.212900  0.408900  1
  O  O897  1  0.633200  0.088100  0.739800  1
  O  O898  1  0.366800  0.911900  0.260200  1
  O  O899  1  0.810000  0.891300  0.533900  1
  O  O900  1  0.190000  0.108700  0.466100  1
  O  O901  1  0.811900  0.795800  0.490000  1
  O  O902  1  0.188100  0.204200  0.510000  1
  O  O903  1  0.628400  0.215900  0.324700  1
  O  O904  1  0.371600  0.784100  0.675300  1
  O  O905  1  0.446700  0.291000  0.300600  1
  O  O906  1  0.553300  0.709000  0.699400  1
  O  O907  1  0.589100  0.179300  0.842900  1
  O  O908  1  0.410900  0.820700  0.157100  1
  O  O909  1  0.968200  0.439200  0.062700  1
  O  O910  1  0.031800  0.560800  0.937300  1
  O  O911  1  0.924200  0.459200  0.862200  1
  O  O912  1  0.075800  0.540800  0.137800  1
  O  O913  1  0.011600  0.371500  0.985000  1
  O  O914  1  0.988400  0.628500  0.015000  1
  O  O915  1  0.683000  0.699700  0.117200  1
  O  O916  1  0.317000  0.300300  0.882800  1
  O  O917  1  0.627300  0.943700  0.279800  1
  O  O918  1  0.372700  0.056300  0.720200  1
  O  O919  1  0.754000  0.605300  0.990900  1
  O  O920  1  0.246000  0.394700  0.009100  1
  O  O921  1  0.294500  0.418100  0.933300  1
  O  O922  1  0.705500  0.581900  0.066700  1
  O  O923  1  0.976200  0.416600  0.571900  1
  O  O924  1  0.023800  0.583400  0.428100  1
  O  O925  1  0.140300  0.217700  0.731400  1
  O  O926  1  0.859700  0.782300  0.268600  1
  O  O927  1  0.936000  0.105600  0.587000  1
  O  O928  1  0.064000  0.894400  0.413000  1
  O  O929  1  0.184700  0.271000  0.979700  1
  O  O930  1  0.815300  0.729000  0.020300  1
  O  O931  1  0.588100  0.124000  0.433000  1
  O  O932  1  0.411900  0.876000  0.567000  1
  O  O933  1  0.862800  0.908100  0.685400  1
  O  O934  1  0.137200  0.091900  0.314600  1
  O  O935  1  0.948300  0.984400  0.326100  1
  O  O936  1  0.051700  0.015600  0.673900  1
  O  O937  1  0.760000  0.779000  0.967400  1
  O  O938  1  0.240000  0.221000  0.032600  1
  O  O939  1  0.749700  0.933700  0.295100  1
  O  O940  1  0.250300  0.066300  0.704900  1
  O  O941  1  0.898000  0.106000  0.128200  1
  O  O942  1  0.102000  0.894000  0.871800  1
  O  O943  1  0.976400  0.170000  0.779700  1
  O  O944  1  0.023600  0.830000  0.220300  1
  O  O945  1  0.222700  0.228000  0.179200  1
  O  O946  1  0.777300  0.772000  0.820800  1
  O  O947  1  0.024000  0.080000  0.136300  1
  O  O948  1  0.976000  0.920000  0.863700  1
  O  O949  1  0.923500  0.369100  0.888300  1
  O  O950  1  0.076500  0.630900  0.111700  1
  O  O951  1  0.897900  0.348000  0.087900  1
  O  O952  1  0.102100  0.652000  0.912100  1
  O  O953  1  0.446000  0.911000  0.343000  1
  O  O954  1  0.554000  0.089000  0.657000  1
  O  O955  1  0.594700  0.054000  0.849500  1
  O  O956  1  0.405300  0.946000  0.150500  1
  O  O957  1  0.515800  0.032000  0.211600  1
  O  O958  1  0.484200  0.968000  0.788400  1
  O  O959  1  0.910400  0.224200  0.043700  1
  O  O960  1  0.089600  0.775800  0.956300  1
  O  O961  1  0.402600  0.491200  0.959600  1
  O  O962  1  0.597400  0.508800  0.040400  1
  O  O963  1  0.470100  0.807300  0.641800  1
  O  O964  1  0.529900  0.192700  0.358200  1
  O  O965  1  0.311800  0.250500  0.154600  1
  O  O966  1  0.688200  0.749500  0.845400  1
  O  O967  1  0.503300  0.931300  0.467000  1
  O  O968  1  0.496700  0.068700  0.533000  1
  O  O969  1  0.898000  0.024000  0.501000  1
  O  O970  1  0.102000  0.976000  0.499000  1
  O  O971  1  0.051900  0.257900  0.956200  1
  O  O972  1  0.948100  0.742100  0.043800  1
  O  O973  1  0.990800  0.401400  0.355000  1
  O  O974  1  0.009200  0.598600  0.645000  1
  O  O975  1  0.006100  0.470800  0.319900  1
  O  O976  1  0.993900  0.529200  0.680100  1
  O  O977  1  0.947600  0.298300  0.255600  1
  O  O978  1  0.052400  0.701700  0.744400  1
  O  O979  1  0.603000  0.128000  0.213400  1
  O  O980  1  0.397000  0.872000  0.786600  1
  O  O981  1  0.699600  0.128000  0.406000  1
  O  O982  1  0.300400  0.872000  0.594000  1
  O  O983  1  0.853900  0.172100  0.201800  1
  O  O984  1  0.146100  0.827900  0.798200  1
  O  O985  1  0.913600  0.103600  0.677600  1
  O  O986  1  0.086400  0.896400  0.322400  1
  O  O987  1  0.772000  0.113300  0.247800  1
  O  O988  1  0.228000  0.886700  0.752200  1
  O  O989  1  0.765300  0.888700  0.082200  1
  O  O990  1  0.234700  0.111300  0.917800  1
  O  O991  1  0.127000  0.130000  0.190000  1
  O  O992  1  0.873000  0.870000  0.810000  1
  O  O993  1  0.285000  0.209000  0.257900  1
  O  O994  1  0.715000  0.791000  0.742100  1
  O  O995  1  0.510600  0.213700  0.244600  1
  O  O996  1  0.489400  0.786300  0.755400  1
  O  O997  1  0.762900  0.289700  0.155800  1
  O  O998  1  0.237100  0.710300  0.844200  1
  O  O999  1  0.587500  0.753900  0.207000  1
  O  O1000  1  0.412500  0.246100  0.793000  1
  O  O1001  1  0.217600  0.212700  0.889100  1
  O  O1002  1  0.782400  0.787300  0.110900  1
  O  O1003  1  0.800900  0.087100  0.405800  1
  O  O1004  1  0.199100  0.912900  0.594200  1
  O  O1005  1  0.684200  0.338000  0.143100  1
  O  O1006  1  0.315800  0.662000  0.856900  1
  O  O1007  1  0.568900  0.215100  0.171800  1
  O  O1008  1  0.431100  0.784900  0.828200  1
  O  O1009  1  0.646300  0.237000  0.116200  1
  O  O1010  1  0.353700  0.763000  0.883800  1
  O  O1011  1  0.906400  0.229700  0.841800  1
  O  O1012  1  0.093600  0.770300  0.158200  1
  O  O1013  1  0.105000  0.114000  0.231000  1
  O  O1014  1  0.895000  0.886000  0.769000  1
  O  O1015  1  0.899900  0.392600  0.113500  1
  O  O1016  1  0.100100  0.607400  0.886500  1
  O  O1017  1  0.510400  0.001200  0.409800  1
  O  O1018  1  0.489600  0.998800  0.590200  1
  O  O1019  1  0.629000  0.082800  0.883400  1
  O  O1020  1  0.371000  0.917200  0.116600  1
  O  O1021  1  0.491700  0.024200  0.240700  1
  O  O1022  1  0.508300  0.975800  0.759300  1
  O  O1023  1  0.944000  0.188000  0.998000  1
  O  O1024  1  0.056000  0.812000  0.002000  1
  O  O1025  1  0.427000  0.528000  0.978500  1
  O  O1026  1  0.573000  0.472000  0.021500  1
  O  O1027  1  0.520000  0.785900  0.653100  1
  O  O1028  1  0.480000  0.214100  0.346900  1
  O  O1029  1  0.316100  0.227500  0.214400  1
  O  O1030  1  0.683900  0.772500  0.785600  1
  O  O1031  1  0.860300  0.055500  0.477500  1
  O  O1032  1  0.139700  0.944500  0.522500  1
  O  O1033  1  0.993000  0.256300  0.955200  1
  O  O1034  1  0.007000  0.743700  0.044800  1
  O  O1035  1  0.998300  0.368300  0.362200  1
  O  O1036  1  0.001700  0.631700  0.637800  1
  O  O1037  1  0.006500  0.510100  0.338400  1
  O  O1038  1  0.993500  0.489900  0.661600  1
  O  O1039  1  0.977000  0.256000  0.263100  1
  O  O1040  1  0.023000  0.744000  0.736900  1
  O  O1041  1  0.697600  0.136400  0.251800  1
  O  O1042  1  0.302400  0.863600  0.748200  1
  O  O1043  1  0.852000  0.229000  0.172000  1
  O  O1044  1  0.148000  0.771000  0.828000  1
  O  O1045  1  0.999000  0.176000  0.202000  1
  O  O1046  1  0.001000  0.824000  0.798000  1
  O  O1047  1  0.881000  0.038000  0.686000  1
  O  O1048  1  0.119000  0.962000  0.314000  1
  O  O1049  1  0.743000  0.160200  0.201400  1
  O  O1050  1  0.257000  0.839800  0.798600  1
  O  O1051  1  0.850000  0.952700  0.064600  1
  O  O1052  1  0.150000  0.047300  0.935400  1
  O  O1053  1  0.140100  0.134100  0.230500  1
  O  O1054  1  0.859900  0.865900  0.769500  1
  O  O1055  1  0.248000  0.172000  0.261700  1
  O  O1056  1  0.752000  0.828000  0.738300  1
  O  O1057  1  0.541000  0.230000  0.244000  1
  O  O1058  1  0.459000  0.770000  0.756000  1
  O  O1059  1  0.738500  0.353500  0.160900  1
  O  O1060  1  0.261500  0.646500  0.839100  1
  O  O1061  1  0.194000  0.215000  0.854900  1
  O  O1062  1  0.806000  0.785000  0.145100  1
  O  O1063  1  0.694800  0.769200  0.232900  1
  O  O1064  1  0.305200  0.230800  0.767100  1
  O  O1065  1  0.763300  0.116900  0.412500  1
  O  O1066  1  0.236700  0.883100  0.587500  1
  O  O1067  1  0.819000  0.094000  0.256000  1
  O  O1068  1  0.181000  0.906000  0.744000  1
  O  O1069  1  0.594200  0.168000  0.172800  1
  O  O1070  1  0.405800  0.832000  0.827200  1
  O  O1071  1  0.629000  0.204000  0.132100  1
  O  O1072  1  0.371000  0.796000  0.867900  1
  O  O1073  1  0.925000  0.343600  0.879400  1
  O  O1074  1  0.075000  0.656400  0.120600  1
  O  O1075  1  0.440000  0.990200  0.230000  1
  O  O1076  1  0.560000  0.009800  0.770000  1
  O  O1077  1  0.889500  0.237100  0.069800  1
  O  O1078  1  0.110500  0.762900  0.930200  1
  O  O1079  1  0.663000  0.120000  0.266000  1
  O  O1080  1  0.337000  0.880000  0.734000  1
  O  O1081  1  0.454000  0.229000  0.215700  1
  O  O1082  1  0.546000  0.771000  0.784300  1
  O  O1083  1  0.769800  0.387100  0.175400  1
  O  O1084  1  0.230200  0.612900  0.824600  1
  O  O1085  1  0.122000  0.165000  0.792800  1
  O  O1086  1  0.878000  0.835000  0.207200  1
  O  O1087  1  0.911400  0.312300  0.861100  1
  O  O1088  1  0.088600  0.687700  0.138900  1
