
#######################################################################
#
#                 Cambridge Crystallographic Data Centre
#                                CCDC 
#
#######################################################################
#
# If this CIF has been generated from an entry in the Cambridge 
# Structural Database, then it will include bibliographic, chemical, 
# crystal, experimental, refinement or atomic coordinate data resulting 
# from the CCDC's data processing and validation procedures.
#
#######################################################################

data_EQESEA
_chemical_formula_moiety         'C72 H42 Cl4 Cu2 N6 O12'
_chemical_name_systematic        
'tetrachloro-bis(\m-1,3,5-triquinolin-6-yl benzene-1,3,5-tricarboxylate)-di-copper(ii)'
_symmetry_cell_setting           orthorhombic
_symmetry_space_group_name_H-M   'C m c a'
_symmetry_Int_Tables_number      64
_space_group_name_Hall           '-C 2ac 2'
loop_
_symmetry_equiv_pos_site_id
_symmetry_equiv_pos_as_xyz
1 x,y,z
2 -x,1/2-y,1/2+z
3 -x,1/2+y,1/2-z
4 x,-y,-z
5 1/2+x,1/2+y,z
6 1/2-x,-y,1/2+z
7 1/2-x,y,1/2-z
8 1/2+x,1/2-y,-z
9 -x,-y,-z
10 x,1/2+y,1/2-z
11 x,1/2-y,1/2+z
12 -x,y,z
13 1/2-x,1/2-y,-z
14 1/2+x,y,1/2-z
15 1/2+x,-y,1/2+z
16 1/2-x,1/2+y,z
_cell_length_a                   26.648(3)
_cell_length_b                   14.3871(11)
_cell_length_c                   15.1191(10)
_cell_angle_alpha                90
_cell_angle_beta                 90
_cell_angle_gamma                90
_cell_volume                     5796.47
_exptl_crystal_colour            brown
_exptl_crystal_description       BLOCK
_cell_formula_units_Z            4
loop_
_atom_site_label
_atom_site_type_symbol
_atom_site_fract_x
_atom_site_fract_y
_atom_site_fract_z
Cu1 Cu 0.66266(13) 0.0000 1.0000
N1 N 0.6822(4) 0.1321(9) 0.9483(9)
C1 C 0.6569(5) 0.2082(13) 0.9571(10)
C2 C 0.7268(5) 0.1405(9) 0.9088(9)
C3 C 1.0916(8) 0.0815(15) 0.3929(10)
C4 C 1.0986(11) 0.0764(18) 0.304(2)
H1 H 0.6260 0.2039 0.9879
C5 C 0.6699(5) 0.2925(12) 0.9271(11)
C6 C 0.7463(4) 0.2232(10) 0.8770(8)
C7 C 0.7584(5) 0.0595(9) 0.8973(12)
H2 H 0.6476 0.3435 0.9339
C8 C 0.7155(6) 0.3051(8) 0.8866(9)
C9 C 0.7941(4) 0.2275(9) 0.8365(8)
C10 C 0.8019(6) 0.0642(11) 0.8545(11)
H3 H 0.7478 0.0016 0.9209
H4 H 0.7261 0.3643 0.8661
H5 H 0.8069 0.2849 0.8151
C11 C 0.8206(5) 0.1501(10) 0.8290(9)
H6 H 0.8201 0.0091 0.8414
O1 O 0.8677(3) 0.1504(7) 0.7839(6)
C12 C 0.9075(5) 0.1507(10) 0.8352(9)
O2 O 0.9063(4) 0.1478(10) 0.9153(7)
C13 C 0.9560(4) 0.1467(8) 0.7842(8)
C14 C 1.0000 0.1488(13) 0.8289(10)
C15 C 0.9561(5) 0.1404(8) 0.6912(8)
H7 H 1.0000 0.1517 0.8917
H8 H 0.9255 0.1375 0.6593
C16 C 1.0000 0.1385(13) 0.6485(12)
C17 C 1.0000 0.131(2) 0.5483(17)
O3 O 1.0364(5) 0.1137(12) 0.5105(7)
C18 C 1.0383(8) 0.1019(14) 0.4168(14)
C19 C 1.0000 0.1098(12) 0.3555(11)
C20 C 1.0000 0.1029(13) 0.2736(10)
C21 C 0.9780(3) 0.1071(18) 0.1928(10)
C22 C 0.9321(7) 0.0833(16) 0.2398(9)
C23 C 1.0000 0.0972(19) 0.1152(10)
N2 N 0.9244(4) 0.0694(15) 0.1549(10)
C24 C 0.9551(5) 0.075(2) 0.0868(9)
Cl1 Cl 0.6422(2) 0.0530(4) 1.1334(4)
N1K N 1.3178(4) 0.1321(9) 0.9483(9)
C1K C 1.3431(5) 0.2082(13) 0.9571(10)
C2K C 1.2732(5) 0.1405(9) 0.9088(9)
C3K C 0.9084(8) 0.0815(15) 0.3929(10)
C4K C 0.9014(11) 0.0764(18) 0.304(2)
H1K H 1.3740 0.2039 0.9879
C5K C 1.3301(5) 0.2925(12) 0.9271(11)
C6K C 1.2537(4) 0.2232(10) 0.8770(8)
C7K C 1.2416(5) 0.0595(9) 0.8973(12)
H2K H 1.3524 0.3435 0.9339
C8K C 1.2845(6) 0.3051(8) 0.8866(9)
C9K C 1.2059(4) 0.2275(9) 0.8365(8)
C10K C 1.1981(6) 0.0642(11) 0.8545(11)
H3K H 1.2522 0.0016 0.9209
H4K H 1.2739 0.3643 0.8661
H5K H 1.1931 0.2849 0.8151
C11K C 1.1794(5) 0.1501(10) 0.8290(9)
H6K H 1.1799 0.0091 0.8414
O1K O 1.1323(3) 0.1504(7) 0.7839(6)
C12K C 1.0925(5) 0.1507(10) 0.8352(9)
O2K O 1.0937(4) 0.1478(10) 0.9153(7)
C13K C 1.0440(4) 0.1467(8) 0.7842(8)
C15K C 1.0439(5) 0.1404(8) 0.6912(8)
H8K H 1.0745 0.1375 0.6593
O3K O 0.9636(5) 0.1137(12) 0.5105(7)
C18K C 0.9617(8) 0.1019(14) 0.4168(14)
C21K C 1.0220(3) 0.1071(18) 0.1928(10)
C22K C 1.0679(7) 0.0833(16) 0.2398(9)
N2K N 1.0756(4) 0.0694(15) 0.1549(10)
C24K C 1.0449(5) 0.075(2) 0.0868(9)
N1C N 0.6822(4) -0.1321(9) 1.0517(9)
C1C C 0.6569(5) -0.2082(13) 1.0429(10)
C2C C 0.7268(5) -0.1405(9) 1.0912(9)
C3C C 1.0916(8) -0.0815(15) 1.6071(10)
C4C C 1.0986(11) -0.0764(18) 1.696(2)
H1C H 0.6260 -0.2039 1.0121
C5C C 0.6699(5) -0.2925(12) 1.0729(11)
C6C C 0.7463(4) -0.2232(10) 1.1230(8)
C7C C 0.7584(5) -0.0595(9) 1.1027(12)
H2C H 0.6476 -0.3435 1.0661
C8C C 0.7155(6) -0.3051(8) 1.1134(9)
C9C C 0.7941(4) -0.2275(9) 1.1635(8)
C10C C 0.8019(6) -0.0642(11) 1.1455(11)
H3C H 0.7478 -0.0016 1.0791
H4C H 0.7261 -0.3643 1.1339
H5C H 0.8069 -0.2849 1.1849
C11C C 0.8206(5) -0.1501(10) 1.1710(9)
H6C H 0.8201 -0.0091 1.1586
O1C O 0.8677(3) -0.1504(7) 1.2161(6)
C12C C 0.9075(5) -0.1507(10) 1.1648(9)
O2C O 0.9063(4) -0.1478(10) 1.0847(7)
C13C C 0.9560(4) -0.1467(8) 1.2158(8)
C14C C 1.0000 -0.1488(13) 1.1711(10)
C15C C 0.9561(5) -0.1404(8) 1.3088(8)
H7C H 1.0000 -0.1517 1.1083
H8C H 0.9255 -0.1375 1.3407
C16C C 1.0000 -0.1385(13) 1.3515(12)
C17C C 1.0000 -0.131(2) 1.4517(17)
O3C O 1.0364(5) -0.1137(12) 1.4895(7)
C18C C 1.0383(8) -0.1019(14) 1.5832(14)
C19C C 1.0000 -0.1098(12) 1.6445(11)
C20C C 1.0000 -0.1029(13) 1.7264(10)
C21C C 0.9780(3) -0.1071(18) 1.8072(10)
C22C C 0.9321(7) -0.0833(16) 1.7602(9)
C23C C 1.0000 -0.0972(19) 1.8848(10)
N2C N 0.9244(4) -0.0694(15) 1.8451(10)
C24C C 0.9551(5) -0.075(2) 1.9132(9)
N1H N 1.3178(4) -0.1321(9) 1.0517(9)
C1H C 1.3431(5) -0.2082(13) 1.0429(10)
C2H C 1.2732(5) -0.1405(9) 1.0912(9)
C3H C 0.9084(8) -0.0815(15) 1.6071(10)
C4H C 0.9014(11) -0.0764(18) 1.696(2)
H1H H 1.3740 -0.2039 1.0121
C5H C 1.3301(5) -0.2925(12) 1.0729(11)
C6H C 1.2537(4) -0.2232(10) 1.1230(8)
C7H C 1.2416(5) -0.0595(9) 1.1027(12)
H2H H 1.3524 -0.3435 1.0661
C8H C 1.2845(6) -0.3051(8) 1.1134(9)
C9H C 1.2059(4) -0.2275(9) 1.1635(8)
C10H C 1.1981(6) -0.0642(11) 1.1455(11)
H3H H 1.2522 -0.0016 1.0791
H4H H 1.2739 -0.3643 1.1339
H5H H 1.1931 -0.2849 1.1849
C11H C 1.1794(5) -0.1501(10) 1.1710(9)
H6H H 1.1799 -0.0091 1.1586
O1H O 1.1323(3) -0.1504(7) 1.2161(6)
C12H C 1.0925(5) -0.1507(10) 1.1648(9)
O2H O 1.0937(4) -0.1478(10) 1.0847(7)
C13H C 1.0440(4) -0.1467(8) 1.2158(8)
C15H C 1.0439(5) -0.1404(8) 1.3088(8)
H8H H 1.0745 -0.1375 1.3407
O3H O 0.9636(5) -0.1137(12) 1.4895(7)
C18H C 0.9617(8) -0.1019(14) 1.5832(14)
C21H C 1.0220(3) -0.1071(18) 1.8072(10)
C22H C 1.0679(7) -0.0833(16) 1.7602(9)
N2H N 1.0756(4) -0.0694(15) 1.8451(10)
C24H C 1.0449(5) -0.075(2) 1.9132(9)
Cl1C Cl 0.6422(2) -0.0530(4) 0.8666(4)
Cu1H Cu 1.33734(13) 0.0000 1.0000
Cl1H Cl 1.3578(2) -0.0530(4) 0.8666(4)
Cl1K Cl 1.3578(2) 0.0530(4) 1.1334(4)
H9? H 0.9680 0.1229 0.3804
H10? H 1.1161 0.0696 0.4380
H11? H 1.1323 0.0692 0.2830
H12? H 0.9428 0.1209 0.1930
H13? H 0.9775 0.1090 0.0677
H14? H 1.0508 0.0824 0.0246
loop_
_geom_bond_atom_site_label_1
_geom_bond_atom_site_label_2
_geom_bond_site_symmetry_1
_geom_bond_site_symmetry_2
Cu1 N1 1_555 1_555
N1 C1 1_555 1_555
C1 H1 1_555 1_555
C2 N1 1_555 1_555
C3 C4 1_555 1_555
C4 C22K 1_555 1_555
C5 C1 1_555 1_555
C6 C2 1_555 1_555
C7 C2 1_555 1_555
H2 C5 1_555 1_555
C8 C5 1_555 1_555
C9 C6 1_555 1_555
C10 C7 1_555 1_555
H3 C7 1_555 1_555
H4 C8 1_555 1_555
H5 C9 1_555 1_555
C11 C9 1_555 1_555
H6 C10 1_555 1_555
O1 C11 1_555 1_555
C12 O1 1_555 1_555
O2 C12 1_555 1_555
C13 C12 1_555 1_555
C14 C13 1_555 1_555
C15 C13 1_555 1_555
H7 C14 1_555 1_555
H8 C15 1_555 1_555
C16 C15 1_555 1_555
C17 C16 1_555 1_555
O3 C17 1_555 1_555
C18 C3 1_555 1_555
C19 C18 1_555 1_555
C20 C19 1_555 1_555
C21 C20 1_555 1_555
C22 C20 1_555 1_555
C23 C21 1_555 1_555
N2 C22 1_555 1_555
C24 C23 1_555 1_555
Cl1 Cu1 1_555 1_555
N1K C1K 1_555 1_555
C1K H1K 1_555 1_555
C2K N1K 1_555 1_555
C3K C4K 1_555 1_555
C4K C22 1_555 1_555
C5K C1K 1_555 1_555
C6K C2K 1_555 1_555
C7K C2K 1_555 1_555
H2K C5K 1_555 1_555
C8K C5K 1_555 1_555
C9K C6K 1_555 1_555
C10K C7K 1_555 1_555
H3K C7K 1_555 1_555
H4K C8K 1_555 1_555
H5K C9K 1_555 1_555
C11K C9K 1_555 1_555
H6K C10K 1_555 1_555
O1K C11K 1_555 1_555
C12K O1K 1_555 1_555
O2K C12K 1_555 1_555
C13K C14 1_555 1_555
C15K C16 1_555 1_555
H8K C15K 1_555 1_555
O3K C17 1_555 1_555
C18K C19 1_555 1_555
C21K C20 1_555 1_555
C22K C20 1_555 1_555
N2K C22K 1_555 1_555
C24K C23 1_555 1_555
N1C Cu1 1_555 1_555
C1C N1C 1_555 1_555
C2C N1C 1_555 1_555
C3C C4C 1_555 1_555
C4C C22H 1_555 1_555
H1C C1C 1_555 1_555
C5C C1C 1_555 1_555
C6C C2C 1_555 1_555
C7C C2C 1_555 1_555
H2C C5C 1_555 1_555
C8C C5C 1_555 1_555
C9C C6C 1_555 1_555
C10C C7C 1_555 1_555
H3C C7C 1_555 1_555
H4C C8C 1_555 1_555
H5C C9C 1_555 1_555
C11C C9C 1_555 1_555
H6C C10C 1_555 1_555
O1C C11C 1_555 1_555
C12C O1C 1_555 1_555
O2C C12C 1_555 1_555
C13C C12C 1_555 1_555
C14C C13C 1_555 1_555
C15C C13C 1_555 1_555
H7C C14C 1_555 1_555
H8C C15C 1_555 1_555
C16C C15C 1_555 1_555
C17C C16C 1_555 1_555
O3C C17C 1_555 1_555
C18C C3C 1_555 1_555
C19C C18C 1_555 1_555
C20C C19C 1_555 1_555
C21C C20C 1_555 1_555
C22C C20C 1_555 1_555
C23C C21C 1_555 1_555
N2C C22C 1_555 1_555
C24C C23C 1_555 1_555
N1H C1H 1_555 1_555
C1H H1H 1_555 1_555
C2H N1H 1_555 1_555
C3H C4H 1_555 1_555
C4H C22C 1_555 1_555
C5H C1H 1_555 1_555
C6H C2H 1_555 1_555
C7H C2H 1_555 1_555
H2H C5H 1_555 1_555
C8H C5H 1_555 1_555
C9H C6H 1_555 1_555
C10H C7H 1_555 1_555
H3H C7H 1_555 1_555
H4H C8H 1_555 1_555
H5H C9H 1_555 1_555
C11H C9H 1_555 1_555
H6H C10H 1_555 1_555
O1H C11H 1_555 1_555
C12H O1H 1_555 1_555
O2H C12H 1_555 1_555
C13H C14C 1_555 1_555
C15H C16C 1_555 1_555
H8H C15H 1_555 1_555
O3H C17C 1_555 1_555
C18H C19C 1_555 1_555
C21H C20C 1_555 1_555
C22H C20C 1_555 1_555
N2H C22H 1_555 1_555
C24H C23C 1_555 1_555
Cl1C Cu1 1_555 1_555
Cu1H N1K 1_555 1_555
Cl1H Cu1H 1_555 1_555
Cl1K Cu1H 1_555 1_555
C6 C8 1_555 1_555
C10 C11 1_555 1_555
O3 C18 1_555 1_555
C23 C21K 1_555 1_555
N2 C24 1_555 1_555
C3K C18K 1_555 1_555
C6K C8K 1_555 1_555
C10K C11K 1_555 1_555
C12K C13K 1_555 1_555
C13K C15K 1_555 1_555
O3K C18K 1_555 1_555
N2K C24K 1_555 1_555
C6C C8C 1_555 1_555
C10C C11C 1_555 1_555
O3C C18C 1_555 1_555
C23C C21H 1_555 1_555
N2C C24C 1_555 1_555
N1H Cu1H 1_555 1_555
C3H C18H 1_555 1_555
C6H C8H 1_555 1_555
C10H C11H 1_555 1_555
C12H C13H 1_555 1_555
C13H C15H 1_555 1_555
O3H C18H 1_555 1_555
N2H C24H 1_555 1_555

#END
