
#######################################################################
#
#                 Cambridge Crystallographic Data Centre
#                                CCDC 
#
#######################################################################
#
# If this CIF has been generated from an entry in the Cambridge 
# Structural Database, then it will include bibliographic, chemical, 
# crystal, experimental, refinement or atomic coordinate data resulting 
# from the CCDC's data processing and validation procedures.
#
#######################################################################

data_EQEVOM
_chemical_formula_moiety         'C118 H90 Cu4 N2 O28,C5 H11 N1 O1'
_chemical_name_systematic        
"tetrakis(\m~4~-3,3'-((5-(acetoxymethyl)-1,3-phenylene)diethyne-2,1-diyl)dibenzoato)-diaqua-bis(N,N-diethylformamide)-tetra-copper N,N-diethylformamide unknown solvate"
_symmetry_cell_setting           triclinic
_symmetry_space_group_name_H-M   'P -1'
_symmetry_Int_Tables_number      2
_space_group_name_Hall           '-P 1'
loop_
_symmetry_equiv_pos_site_id
_symmetry_equiv_pos_as_xyz
1 x,y,z
2 -x,-y,-z
_cell_length_a                   14.852(3)
_cell_length_b                   16.673(3)
_cell_length_c                   17.458(6)
_cell_angle_alpha                110.385(4)
_cell_angle_beta                 103.907(4)
_cell_angle_gamma                108.850(3)
_cell_volume                     3518.51
_exptl_crystal_colour            blue
_exptl_crystal_description       prism
_cell_formula_units_Z            1
loop_
_atom_site_label
_atom_site_type_symbol
_atom_site_fract_x
_atom_site_fract_y
_atom_site_fract_z
O16 O -0.0029(6) 0.5222(7) 1.1990(6)
N2 N -0.1383(7) 0.3993(6) 1.0698(5)
C70 C -0.0973(7) 0.4827(7) 1.1483(6)
H57 H -0.1409 0.5106 1.1642
C71 C -0.2338(9) 0.2229(6) 0.9883(7)
H58 H -0.2792 0.1671 0.9909
H59 H -0.1680 0.2206 0.9912
H60 H -0.2675 0.2225 0.9324
C72 C -0.2132(9) 0.3131(7) 1.0659(7)
H61 H -0.2792 0.3173 1.0606
H62 H -0.1860 0.3102 1.1220
C73 C -0.1916(9) 0.4029(10) 0.9262(6)
H63 H -0.1717 0.4005 0.8761
H64 H -0.1907 0.4650 0.9571
H65 H -0.2615 0.3517 0.9039
C74 C -0.1158(8) 0.3900(11) 0.9902(7)
H66 H -0.1192 0.3261 0.9596
H67 H -0.0445 0.4387 1.0087
Cu1 Cu -0.33064(5) 0.47710(4) 1.34482(4)
Cu2 Cu -0.40413(5) 0.30515(4) 1.21315(4)
O1 O -0.4733(3) 0.4601(2) 1.3068(2)
O2 O -0.5376(3) 0.3093(2) 1.2026(2)
O3 O -0.1990(3) 0.4724(3) 1.3627(2)
O4 O -0.2586(3) 0.3293(3) 1.2443(2)
O5 O -1.3698(3) -0.0194(3) 0.8060(3)
O6 O -1.3345(4) -0.0236(4) 0.6889(3)
O7 O -0.3170(3) 0.5203(3) 1.2555(2)
O8 O -0.3903(3) 0.3721(3) 1.1414(2)
O9 O -0.3546(3) 0.4103(2) 1.4168(2)
O10 O -0.4057(3) 0.2648(2) 1.3055(2)
C1 C -0.5466(4) 0.3836(4) 1.2428(3)
C2 C -0.6508(2) 0.3792(2) 1.2107(2)
C3 C -0.7309(3) 0.29618(19) 1.1378(2)
H1 H -0.7190 0.2426 1.1106
C4 C -0.8285(2) 0.2915(2) 1.1049(2)
C5 C -0.8459(2) 0.3700(3) 1.1448(3)
H2 H -0.9125 0.3668 1.1222
C6 C -0.7657(3) 0.4530(2) 1.2176(3)
H3 H -0.7776 0.5066 1.2448
C7 C -0.6682(2) 0.45766(19) 1.2505(2)
H4 H -0.6134 0.5144 1.3003
C8 C -0.9123(4) 0.2025(4) 1.0324(4)
C9 C -0.9790(5) 0.1265(4) 0.9744(4)
C10 C -1.0581(3) 0.03322(19) 0.9081(2)
C11 C -1.1620(3) 0.0137(2) 0.8835(2)
H5 H -1.1808 0.0624 0.9107
C12 C -1.2385(2) -0.0770(3) 0.8191(3)
C13 C -1.2110(2) -0.14817(19) 0.7794(2)
H6 H -1.2633 -0.2102 0.7354
C14 C -1.1071(3) -0.1287(2) 0.8040(2)
C15 C -1.0306(2) -0.0380(3) 0.8684(3)
H7 H -0.9596 -0.0246 0.8852
C16 C -1.0786(5) -0.2023(5) 0.7646(4)
C17 C -1.0587(4) -0.2674(5) 0.7302(5)
C18 C -1.0400(3) -0.3466(3) 0.6861(3)
C19 C -0.9395(3) -0.3372(2) 0.7090(2)
H8 H -0.8831 -0.2785 0.7548
C20 C -0.9214(2) -0.4138(3) 0.6648(3)
C21 C -1.0039(3) -0.4998(2) 0.5977(2)
H9 H -0.9915 -0.5521 0.5675
C22 C -1.1044(3) -0.5091(2) 0.5748(2)
H10 H -1.1608 -0.5678 0.5290
C23 C -1.1224(2) -0.4325(3) 0.6190(3)
H11 H -1.1911 -0.4389 0.6034
C24 C -0.1872(4) 0.4044(5) 1.3125(4)
C25 C -1.3514(4) -0.1016(4) 0.7931(4)
H12 H -1.3901 -0.1501 0.7297
H13 H -1.3780 -0.1300 0.8291
C26 C -1.3584(6) 0.0131(6) 0.7473(6)
C27 C -1.3746(6) 0.1001(5) 0.7682(5)
H14 H -1.3648 0.1231 0.7248
H15 H -1.3244 0.1500 0.8282
H16 H -1.4451 0.0850 0.7654
C28 C -0.3517(4) 0.4626(4) 1.1741(4)
C29 C -0.3509(3) 0.5019(3) 1.1093(2)
C30 C -0.3056(3) 0.6002(2) 1.13918(17)
H17 H -0.2729 0.6427 1.2013
C31 C -0.3079(3) 0.63616(18) 1.0783(2)
H18 H -0.2769 0.7033 1.0987
C32 C -0.3557(3) 0.5739(3) 0.9874(2)
H19 H -0.3573 0.5985 0.9458
C33 C -0.4011(3) 0.4756(2) 0.95752(17)
C34 C -0.3987(3) 0.43965(18) 1.0184(2)
H20 H -0.4297 0.3725 0.9980
C35 C -0.4532(5) 0.4090(4) 0.8637(4)
C36 C -0.4971(4) 0.3525(4) 0.7870(4)
C37 C -0.3935(5) -0.0215(4) 1.4336(4)
C38 C -0.3901(5) 0.0541(4) 1.4521(4)
C39 C -0.3811(3) 0.15015(18) 1.4807(2)
C40 C -0.3883(3) 0.1879(2) 1.42119(17)
H21 H -0.4006 0.1503 1.3611
C41 C -0.3775(3) 0.2807(2) 1.4496(2)
C42 C -0.3595(3) 0.33572(18) 1.5375(2)
H22 H -0.3522 0.3991 1.5569
C43 C -0.3523(3) 0.2980(2) 1.59700(17)
H23 H -0.3401 0.3356 1.6571
C44 C -0.3631(3) 0.2052(2) 1.5686(2)
H24 H -0.3582 0.1794 1.6092
C45 C -0.3804(4) 0.3213(4) 1.3854(4)
C46 C -0.5468(8) 0.2774(8) 0.6929(5)
C47 C -0.5665(7) 0.3046(6) 0.6263(7)
H25 H -0.5557 0.3684 0.6413
C48 C -0.6019(5) 0.2384(7) 0.5377(6)
C49 C -0.6177(7) 0.1450(6) 0.5157(5)
H26 H -0.6419 0.0997 0.4551
C50 C -0.4020(9) -0.1178(7) 1.4177(7)
C51 C -0.5626(9) 0.1840(9) 0.6709(6)
H27 H -0.5491 0.1654 0.7164
O11 O -0.5524(4) 0.3626(3) 0.4974(4)
O12 O -0.6531(4) 0.3755(4) 0.3941(4)
C52 C -0.6246(6) 0.2639(4) 0.4626(5)
H28 H -0.6153 0.2225 0.4117
H29 H -0.6968 0.2554 0.4422
C53 C -0.5723(4) 0.4151(3) 0.4581(3)
O15 O -0.2583(11) 0.6224(9) 1.4491(12)
N1 N -0.0924(8) 0.7380(8) 1.4957(7)
C64 C -0.1671(13) 0.6758(11) 1.5028(11)
H41 H -0.1485 0.6711 1.5565
C65 C -0.1101(11) 0.7181(9) 1.3973(9)
H42 H -0.0445 0.7286 1.3888
H43 H -0.1621 0.6512 1.3552
C66 C -0.1484(11) 0.7868(9) 1.3815(8)
H44 H -0.1620 0.7759 1.3201
H45 H -0.0956 0.8527 1.4228
H46 H -0.2125 0.7766 1.3915
C67 C 0.0057(10) 0.8006(9) 1.5605(8)
O17 O -0.4708(3) 0.1620(2) 1.1093(3)
Cu1A Cu -0.66936(5) -0.47710(4) 0.65518(4)
Cu2A Cu -0.59587(5) -0.30515(4) 0.78685(4)
O1A O -0.5267(3) -0.4601(2) 0.6932(2)
O2A O -0.4624(3) -0.3093(2) 0.7974(2)
O3A O -0.8010(3) -0.4724(3) 0.6373(2)
O4A O -0.7414(3) -0.3293(3) 0.7557(2)
O5A O 0.3698(3) 0.0194(3) 1.1940(3)
O6A O 0.3345(4) 0.0236(4) 1.3111(3)
O7A O -0.6830(3) -0.5203(3) 0.7445(2)
O8A O -0.6097(3) -0.3721(3) 0.8586(2)
O9A O -0.6454(3) -0.4103(2) 0.5832(2)
O10A O -0.5943(3) -0.2648(2) 0.6945(2)
C1A C -0.4534(4) -0.3836(4) 0.7572(3)
C2A C -0.3492(2) -0.3792(2) 0.7893(2)
C3A C -0.2691(3) -0.29618(19) 0.8622(2)
H1A H -0.2810 -0.2426 0.8894
C4A C -0.1715(2) -0.2915(2) 0.8951(2)
C5A C -0.1541(2) -0.3700(3) 0.8552(3)
H2A H -0.0875 -0.3668 0.8778
C6A C -0.2343(3) -0.4530(2) 0.7824(3)
H3A H -0.2224 -0.5066 0.7552
C7A C -0.3318(2) -0.45766(19) 0.7495(2)
H4A H -0.3866 -0.5144 0.6997
C8A C -0.0877(4) -0.2025(4) 0.9676(4)
C9A C -0.0210(5) -0.1265(4) 1.0256(4)
C10A C 0.0581(3) -0.03322(19) 1.0919(2)
C11A C 0.1620(3) -0.0137(2) 1.1165(2)
H5A H 0.1808 -0.0624 1.0893
C12A C 0.2385(2) 0.0770(3) 1.1809(3)
C13A C 0.2110(2) 0.14817(19) 1.2206(2)
H6A H 0.2633 0.2102 1.2646
C14A C 0.1071(3) 0.1287(2) 1.1960(2)
C15A C 0.0306(2) 0.0380(3) 1.1316(3)
H7A H -0.0404 0.0246 1.1148
C16A C 0.0786(5) 0.2023(5) 1.2354(4)
C17A C 0.0587(4) 0.2674(5) 1.2698(5)
C18A C 0.0400(3) 0.3466(3) 1.3139(3)
C19A C -0.0605(3) 0.3372(2) 1.2910(2)
H8A H -0.1169 0.2785 1.2452
C20A C -0.0786(2) 0.4138(3) 1.3352(3)
C21A C 0.0039(3) 0.4998(2) 1.4023(2)
H9A H -0.0085 0.5521 1.4325
C22A C 0.1044(3) 0.5091(2) 1.4252(2)
H10A H 0.1608 0.5678 1.4710
C23A C 0.1224(2) 0.4325(3) 1.3810(3)
H11A H 0.1911 0.4389 1.3966
C24A C -0.8128(4) -0.4044(5) 0.6875(4)
C25A C 0.3514(4) 0.1016(4) 1.2069(4)
H12A H 0.3901 0.1501 1.2703
H13A H 0.3780 0.1300 1.1709
C26A C 0.3584(6) -0.0131(6) 1.2527(6)
C27A C 0.3746(6) -0.1001(5) 1.2318(5)
H14A H 0.3648 -0.1231 1.2752
H15A H 0.3244 -0.1500 1.1718
H16A H 0.4451 -0.0850 1.2346
C28A C -0.6483(4) -0.4626(4) 0.8259(4)
C29A C -0.6491(3) -0.5019(3) 0.8907(2)
C30A C -0.6944(3) -0.6002(2) 0.86082(17)
H17A H -0.7271 -0.6427 0.7987
C31A C -0.6921(3) -0.63616(18) 0.9217(2)
H18A H -0.7231 -0.7033 0.9013
C32A C -0.6443(3) -0.5739(3) 1.0126(2)
H19A H -0.6427 -0.5985 1.0542
C33A C -0.5989(3) -0.4756(2) 1.04248(17)
C34A C -0.6013(3) -0.43965(18) 0.9816(2)
H20A H -0.5703 -0.3725 1.0020
C35A C -0.5468(5) -0.4090(4) 1.1363(4)
C36A C -0.5029(4) -0.3525(4) 1.2130(4)
C37A C -0.6065(5) 0.0215(4) 0.5664(4)
C38A C -0.6099(5) -0.0541(4) 0.5479(4)
C39A C -0.6189(3) -0.15015(18) 0.5193(2)
C40A C -0.6117(3) -0.1879(2) 0.57881(17)
H21A H -0.5994 -0.1503 0.6389
C41A C -0.6225(3) -0.2807(2) 0.5504(2)
C42A C -0.6405(3) -0.33572(18) 0.4625(2)
H22A H -0.6478 -0.3991 0.4431
C43A C -0.6477(3) -0.2980(2) 0.40300(17)
H23A H -0.6599 -0.3356 0.3429
C44A C -0.6369(3) -0.2052(2) 0.4314(2)
H24A H -0.6418 -0.1794 0.3908
C45A C -0.6196(4) -0.3213(4) 0.6146(4)
C46A C -0.4532(8) -0.2774(8) 1.3071(5)
C47A C -0.4335(7) -0.3046(6) 1.3737(7)
H25A H -0.4443 -0.3684 1.3587
C48A C -0.3981(5) -0.2384(7) 1.4623(6)
C49A C -0.3823(7) -0.1450(6) 1.4843(5)
H26A H -0.3581 -0.0997 1.5449
C50A C -0.5980(9) 0.1178(7) 0.5823(7)
C51A C -0.4374(9) -0.1840(9) 1.3291(6)
H27A H -0.4509 -0.1654 1.2836
O11A O -0.4476(4) -0.3626(3) 1.5026(4)
O12A O -0.3469(4) -0.3755(4) 1.6059(4)
C52A C -0.3754(6) -0.2639(4) 1.5374(5)
H28A H -0.3847 -0.2225 1.5883
H29A H -0.3032 -0.2554 1.5578
C53A C -0.4277(4) -0.4151(3) 1.5419(3)
O15A O -0.7417(11) -0.6224(9) 0.5509(12)
N1A N -0.9076(8) -0.7380(8) 0.5043(7)
C64A C -0.8329(13) -0.6758(11) 0.4972(11)
H41A H -0.8515 -0.6711 0.4435
C65A C -0.8899(11) -0.7181(9) 0.6027(9)
H42A H -0.9555 -0.7286 0.6112
H43A H -0.8379 -0.6512 0.6448
C66A C -0.8516(11) -0.7868(9) 0.6185(8)
H44A H -0.8380 -0.7759 0.6799
H45A H -0.9044 -0.8527 0.5772
H46A H -0.7875 -0.7766 0.6085
C67A C -1.0057(10) -0.8006(9) 0.4395(8)
O17A O -0.5292(3) -0.1620(2) 0.8907(3)
C54? C -0.4938(7) 0.5168(4) 0.4965(7)
H30? H -0.5178 0.5456 0.4623
H31? H -0.4845 0.5512 0.5571
H32? H -0.4290 0.5188 0.4949
C55? C -0.5446(8) 0.2808(8) 0.6976(5)
C56? C -0.5904(7) 0.2956(6) 0.6277(7)
H33? H -0.5882 0.3564 0.6391
C57? C -0.6394(4) 0.2215(7) 0.5411(6)
C58? C -0.6426(7) 0.1325(6) 0.5244(5)
H34? H -0.6761 0.0819 0.4652
C59? C -0.5969(9) 0.1178(7) 0.5943(7)
C60? C -0.5479(8) 0.1919(9) 0.6809(6)
H35? H -0.5166 0.1818 0.7287
O13? O -0.7898(4) 0.2290(4) 0.4608(4)
O14? O -0.7258(7) 0.3820(4) 0.5449(8)
C61? C -0.6898(5) 0.2353(7) 0.4637(6)
H36? H -0.6456 0.2986 0.4710
H37? H -0.6981 0.1854 0.4073
C62? C -0.8014(5) 0.3057(4) 0.5078(4)
C63? C -0.9055(6) 0.2901(7) 0.5100(8)
H38? H -0.9027 0.3516 0.5464
H39? H -0.9250 0.2470 0.5359
H40? H -0.9571 0.2616 0.4493
H47? H -1.0008 0.1906 0.3833
H48? H -1.0237 0.1389 0.4397
H49? H -1.0258 0.1414 0.4474
H50? H -1.0506 0.2262 0.4541
C68? C -1.0916(10) 0.2279(15) 0.4440(15)
H51? H -1.1044 0.2291 0.4968
H52? H -1.0714 0.2917 0.4477
H53? H -1.1550 0.1816 0.3905
C69? C -1.021(2) 0.173(2) 0.3438(7)
H54? H -0.9637 0.1605 0.3333
H55? H -1.0867 0.1157 0.3042
H56? H -1.0218 0.2261 0.3319
loop_
_geom_bond_atom_site_label_1
_geom_bond_atom_site_label_2
_geom_bond_site_symmetry_1
_geom_bond_site_symmetry_2
Cu1 O1 1_555 1_555
Cu2 O2 1_555 1_555
O1 C1 1_555 1_555
O2 C1 1_555 1_555
O3 Cu1 1_555 1_555
O4 Cu2 1_555 1_555
O5 C25 1_555 1_555
O6 C26 1_555 1_555
O7 Cu1 1_555 1_555
O8 Cu2 1_555 1_555
O9 Cu1 1_555 1_555
O10 Cu2 1_555 1_555
C1 C2 1_555 1_555
C2 C3 1_555 1_555
C3 H1 1_555 1_555
C4 C3 1_555 1_555
C5 C4 1_555 1_555
H2 C5 1_555 1_555
C6 C5 1_555 1_555
H3 C6 1_555 1_555
C7 C2 1_555 1_555
H4 C7 1_555 1_555
C8 C4 1_555 1_555
C9 C8 1_555 1_555
C10 C9 1_555 1_555
C11 C10 1_555 1_555
H5 C11 1_555 1_555
C12 C11 1_555 1_555
C13 C12 1_555 1_555
H6 C13 1_555 1_555
C14 C13 1_555 1_555
C15 C10 1_555 1_555
H7 C15 1_555 1_555
C16 C14 1_555 1_555
C17 C16 1_555 1_555
C18 C17 1_555 1_555
C19 C18 1_555 1_555
H8 C19 1_555 1_555
C20 C19 1_555 1_555
C21 C20 1_555 1_555
H9 C21 1_555 1_555
C22 C21 1_555 1_555
H10 C22 1_555 1_555
C23 C18 1_555 1_555
H11 C23 1_555 1_555
C24 O3 1_555 1_555
C25 C12 1_555 1_555
H12 C25 1_555 1_555
H13 C25 1_555 1_555
C26 O5 1_555 1_555
C27 C26 1_555 1_555
H14 C27 1_555 1_555
H15 C27 1_555 1_555
H16 C27 1_555 1_555
C28 O7 1_555 1_555
C29 C28 1_555 1_555
C30 C29 1_555 1_555
H17 C30 1_555 1_555
C31 C30 1_555 1_555
H18 C31 1_555 1_555
C32 C31 1_555 1_555
H19 C32 1_555 1_555
C33 C32 1_555 1_555
C34 C29 1_555 1_555
H20 C34 1_555 1_555
C35 C33 1_555 1_555
C36 C35 1_555 1_555
C37 C38 1_555 1_555
C38 C39 1_555 1_555
C39 C40 1_555 1_555
C40 H21 1_555 1_555
C41 C40 1_555 1_555
C42 C41 1_555 1_555
H22 C42 1_555 1_555
C43 C42 1_555 1_555
H23 C43 1_555 1_555
C44 C39 1_555 1_555
H24 C44 1_555 1_555
C45 O9 1_555 1_555
C46 C36 1_555 1_555
C47 C46 1_555 1_555
H25 C47 1_555 1_555
C48 C47 1_555 1_555
C49 C48 1_555 1_555
H26 C49 1_555 1_555
C50 C37 1_555 1_555
C51 C46 1_555 1_555
H27 C51 1_555 1_555
O11 C52 1_555 1_555
O12 C53 1_555 1_555
C52 C48 1_555 1_555
H28 C52 1_555 1_555
H29 C52 1_555 1_555
C53 O11 1_555 1_555
O15 Cu1 1_555 1_555
N1 C64 1_555 1_555
C64 O15 1_555 1_555
H41 C64 1_555 1_555
C65 N1 1_555 1_555
H42 C65 1_555 1_555
H43 C65 1_555 1_555
C66 C65 1_555 1_555
H44 C66 1_555 1_555
H45 C66 1_555 1_555
H46 C66 1_555 1_555
C67 N1 1_555 1_555
O16 C70 1_555 1_555
N2 C70 1_555 1_555
C70 H57 1_555 1_555
C71 H58 1_555 1_555
H59 C71 1_555 1_555
H60 C71 1_555 1_555
C72 N2 1_555 1_555
H61 C72 1_555 1_555
H62 C72 1_555 1_555
C73 H63 1_555 1_555
H64 C73 1_555 1_555
H65 C73 1_555 1_555
C74 N2 1_555 1_555
H66 C74 1_555 1_555
H67 C74 1_555 1_555
O17 Cu2 1_555 1_555
Cu1A O1A 1_555 1_555
Cu2A O2A 1_555 1_555
O1A C1A 1_555 1_555
O2A C1A 1_555 1_555
O3A Cu1A 1_555 1_555
O4A Cu2A 1_555 1_555
O5A C25A 1_555 1_555
O6A C26A 1_555 1_555
O7A Cu1A 1_555 1_555
O8A Cu2A 1_555 1_555
O9A Cu1A 1_555 1_555
O10A Cu2A 1_555 1_555
C1A C2A 1_555 1_555
C2A C3A 1_555 1_555
C3A H1A 1_555 1_555
C4A C3A 1_555 1_555
C5A C4A 1_555 1_555
H2A C5A 1_555 1_555
C6A C5A 1_555 1_555
H3A C6A 1_555 1_555
C7A C2A 1_555 1_555
H4A C7A 1_555 1_555
C8A C4A 1_555 1_555
C9A C8A 1_555 1_555
C10A C9A 1_555 1_555
C11A C10A 1_555 1_555
H5A C11A 1_555 1_555
C12A C11A 1_555 1_555
C13A C12A 1_555 1_555
H6A C13A 1_555 1_555
C14A C13A 1_555 1_555
C15A C10A 1_555 1_555
H7A C15A 1_555 1_555
C16A C14A 1_555 1_555
C17A C16A 1_555 1_555
C18A C17A 1_555 1_555
C19A C18A 1_555 1_555
H8A C19A 1_555 1_555
C20A C24 1_555 1_555
C21A C20A 1_555 1_555
H9A C21A 1_555 1_555
C22A C21A 1_555 1_555
H10A C22A 1_555 1_555
C23A C18A 1_555 1_555
H11A C23A 1_555 1_555
C24A C20 1_555 1_555
C25A C12A 1_555 1_555
H12A C25A 1_555 1_555
H13A C25A 1_555 1_555
C26A O5A 1_555 1_555
C27A C26A 1_555 1_555
H14A C27A 1_555 1_555
H15A C27A 1_555 1_555
H16A C27A 1_555 1_555
C28A O7A 1_555 1_555
C29A C28A 1_555 1_555
C30A C29A 1_555 1_555
H17A C30A 1_555 1_555
C31A C30A 1_555 1_555
H18A C31A 1_555 1_555
C32A C31A 1_555 1_555
H19A C32A 1_555 1_555
C33A C32A 1_555 1_555
C34A C29A 1_555 1_555
H20A C34A 1_555 1_555
C35A C33A 1_555 1_555
C36A C35A 1_555 1_555
C37A C38A 1_555 1_555
C38A C39A 1_555 1_555
C39A C40A 1_555 1_555
C40A H21A 1_555 1_555
C41A C40A 1_555 1_555
C42A C41A 1_555 1_555
H22A C42A 1_555 1_555
C43A C42A 1_555 1_555
H23A C43A 1_555 1_555
C44A C39A 1_555 1_555
H24A C44A 1_555 1_555
C45A O9A 1_555 1_555
C46A C36A 1_555 1_555
C47A C46A 1_555 1_555
H25A C47A 1_555 1_555
C48A C47A 1_555 1_555
C49A C50 1_555 1_555
H26A C49A 1_555 1_555
C50A C49 1_555 1_555
C51A C50 1_555 1_555
H27A C51A 1_555 1_555
O11A C52A 1_555 1_555
O12A C53A 1_555 1_555
C52A C48A 1_555 1_555
H28A C52A 1_555 1_555
H29A C52A 1_555 1_555
C53A O11A 1_555 1_555
O15A Cu1A 1_555 1_555
N1A C64A 1_555 1_555
C64A O15A 1_555 1_555
H41A C64A 1_555 1_555
C65A N1A 1_555 1_555
H42A C65A 1_555 1_555
H43A C65A 1_555 1_555
C66A C65A 1_555 1_555
H44A C66A 1_555 1_555
H45A C66A 1_555 1_555
H46A C66A 1_555 1_555
C67A N1A 1_555 1_555
O17A Cu2A 1_555 1_555
O4 C24 1_555 1_555
O8 C28 1_555 1_555
O10 C45 1_555 1_555
C6 C7 1_555 1_555
C14 C15 1_555 1_555
C22 C23 1_555 1_555
C33 C34 1_555 1_555
C41 C45 1_555 1_555
C43 C44 1_555 1_555
C51 C50A 1_555 1_555
C71 C72 1_555 1_555
C73 C74 1_555 1_555
O3A C24A 1_555 1_555
O4A C24A 1_555 1_555
O8A C28A 1_555 1_555
O10A C45A 1_555 1_555
C6A C7A 1_555 1_555
C14A C15A 1_555 1_555
C19A C20A 1_555 1_555
C22A C23A 1_555 1_555
C33A C34A 1_555 1_555
C37A C50A 1_555 1_555
C41A C45A 1_555 1_555
C43A C44A 1_555 1_555
C46A C51A 1_555 1_555
C48A C49A 1_555 1_555

#END
