# generated using pymatgen
data_Cu2H83(C49O9)2
_symmetry_space_group_name_H-M   'P 1'
_cell_length_a   18.10100000
_cell_length_b   26.04700000
_cell_length_c   33.21300000
_cell_angle_alpha   105.47800000
_cell_angle_beta   90.00000000
_cell_angle_gamma   90.00000000
_symmetry_Int_Tables_number   1
_chemical_formula_structural   Cu2H83(C49O9)2
_chemical_formula_sum   'Cu16 H664 C784 O144'
_cell_volume   15091.24645537
_cell_formula_units_Z   8
loop_
 _symmetry_equiv_pos_site_id
 _symmetry_equiv_pos_as_xyz
  1  'x, y, z'
loop_
 _atom_site_type_symbol
 _atom_site_label
 _atom_site_symmetry_multiplicity
 _atom_site_fract_x
 _atom_site_fract_y
 _atom_site_fract_z
 _atom_site_occupancy
  Cu  Cu1  1  0.343290  0.111010  0.394880  1.0
  Cu  Cu2  1  0.343290  0.888990  0.105120  1.0
  Cu  Cu3  1  0.843290  0.611010  0.394880  1.0
  Cu  Cu4  1  0.843290  0.388990  0.105120  1.0
  Cu  Cu5  1  0.656710  0.888990  0.605120  1.0
  Cu  Cu6  1  0.656710  0.111010  0.894880  1.0
  Cu  Cu7  1  0.156710  0.388990  0.605120  1.0
  Cu  Cu8  1  0.156710  0.611010  0.894880  1.0
  Cu  Cu9  1  0.402540  0.035350  0.335140  1.0
  Cu  Cu10  1  0.402540  0.964650  0.164860  1.0
  Cu  Cu11  1  0.902540  0.535350  0.335140  1.0
  Cu  Cu12  1  0.902540  0.464650  0.164860  1.0
  Cu  Cu13  1  0.597460  0.964650  0.664860  1.0
  Cu  Cu14  1  0.597460  0.035350  0.835140  1.0
  Cu  Cu15  1  0.097460  0.464650  0.664860  1.0
  Cu  Cu16  1  0.097460  0.535350  0.835140  1.0
  H  H17  1  0.757400  0.287800  0.791900  1
  H  H18  1  0.757400  0.712200  0.708100  1
  H  H19  1  0.257400  0.787800  0.791900  1
  H  H20  1  0.257400  0.212200  0.708100  1
  H  H21  1  0.242600  0.712200  0.208100  1
  H  H22  1  0.242600  0.287800  0.291900  1
  H  H23  1  0.742600  0.212200  0.208100  1
  H  H24  1  0.742600  0.787800  0.291900  1
  H  H25  1  0.694300  0.276200  0.822200  1
  H  H26  1  0.694300  0.723800  0.677800  1
  H  H27  1  0.194300  0.776200  0.822200  1
  H  H28  1  0.194300  0.223800  0.677800  1
  H  H29  1  0.305700  0.723800  0.177800  1
  H  H30  1  0.305700  0.276200  0.322200  1
  H  H31  1  0.805700  0.223800  0.177800  1
  H  H32  1  0.805700  0.776200  0.322200  1
  H  H33  1  0.776900  0.214600  0.841800  1
  H  H34  1  0.776900  0.785400  0.658200  1
  H  H35  1  0.276900  0.714600  0.841800  1
  H  H36  1  0.276900  0.285400  0.658200  1
  H  H37  1  0.223100  0.785400  0.158200  1
  H  H38  1  0.223100  0.214600  0.341800  1
  H  H39  1  0.723100  0.285400  0.158200  1
  H  H40  1  0.723100  0.714600  0.341800  1
  H  H41  1  0.840200  0.232000  0.814400  1
  H  H42  1  0.840200  0.768000  0.685600  1
  H  H43  1  0.340200  0.732000  0.814400  1
  H  H44  1  0.340200  0.268000  0.685600  1
  H  H45  1  0.159800  0.768000  0.185600  1
  H  H46  1  0.159800  0.232000  0.314400  1
  H  H47  1  0.659800  0.268000  0.185600  1
  H  H48  1  0.659800  0.732000  0.314400  1
  H  H49  1  0.773400  0.317100  0.873100  1
  H  H50  1  0.773400  0.682900  0.626900  1
  H  H51  1  0.273400  0.817100  0.873100  1
  H  H52  1  0.273400  0.182900  0.626900  1
  H  H53  1  0.226600  0.682900  0.126900  1
  H  H54  1  0.226600  0.317100  0.373100  1
  H  H55  1  0.726600  0.182900  0.126900  1
  H  H56  1  0.726600  0.817100  0.373100  1
  H  H57  1  0.859300  0.309200  0.861000  1
  H  H58  1  0.859300  0.690800  0.639000  1
  H  H59  1  0.359300  0.809200  0.861000  1
  H  H60  1  0.359300  0.190800  0.639000  1
  H  H61  1  0.140700  0.690800  0.139000  1
  H  H62  1  0.140700  0.309200  0.361000  1
  H  H63  1  0.640700  0.190800  0.139000  1
  H  H64  1  0.640700  0.809200  0.361000  1
  H  H65  1  0.873100  0.249200  0.901900  1
  H  H66  1  0.873100  0.750800  0.598100  1
  H  H67  1  0.373100  0.749200  0.901900  1
  H  H68  1  0.373100  0.250800  0.598100  1
  H  H69  1  0.126900  0.750800  0.098100  1
  H  H70  1  0.126900  0.249200  0.401900  1
  H  H71  1  0.626900  0.250800  0.098100  1
  H  H72  1  0.626900  0.749200  0.401900  1
  H  H73  1  0.786000  0.250700  0.911200  1
  H  H74  1  0.786000  0.749300  0.588800  1
  H  H75  1  0.286000  0.750700  0.911200  1
  H  H76  1  0.286000  0.249300  0.588800  1
  H  H77  1  0.214000  0.749300  0.088800  1
  H  H78  1  0.214000  0.250700  0.411200  1
  H  H79  1  0.714000  0.249300  0.088800  1
  H  H80  1  0.714000  0.750700  0.411200  1
  H  H81  1  0.853600  0.306900  0.967800  1
  H  H82  1  0.853600  0.693100  0.532200  1
  H  H83  1  0.353600  0.806900  0.967800  1
  H  H84  1  0.353600  0.193100  0.532200  1
  H  H85  1  0.146400  0.693100  0.032200  1
  H  H86  1  0.146400  0.306900  0.467800  1
  H  H87  1  0.646400  0.193100  0.032200  1
  H  H88  1  0.646400  0.806900  0.467800  1
  H  H89  1  0.793600  0.339800  0.949500  1
  H  H90  1  0.793600  0.660200  0.550500  1
  H  H91  1  0.293600  0.839800  0.949500  1
  H  H92  1  0.293600  0.160200  0.550500  1
  H  H93  1  0.206400  0.660200  0.050500  1
  H  H94  1  0.206400  0.339800  0.449500  1
  H  H95  1  0.706400  0.160200  0.050500  1
  H  H96  1  0.706400  0.839800  0.449500  1
  H  H97  1  0.879000  0.342100  0.937500  1
  H  H98  1  0.879000  0.657900  0.562500  1
  H  H99  1  0.379000  0.842100  0.937500  1
  H  H100  1  0.379000  0.157900  0.562500  1
  H  H101  1  0.121000  0.657900  0.062500  1
  H  H102  1  0.121000  0.342100  0.437500  1
  H  H103  1  0.621000  0.157900  0.062500  1
  H  H104  1  0.621000  0.842100  0.437500  1
  H  H105  1  0.434500  0.247600  0.362600  1
  H  H106  1  0.434500  0.752400  0.137400  1
  H  H107  1  0.934500  0.747600  0.362600  1
  H  H108  1  0.934500  0.252400  0.137400  1
  H  H109  1  0.565500  0.752400  0.637400  1
  H  H110  1  0.565500  0.247600  0.862600  1
  H  H111  1  0.065500  0.252400  0.637400  1
  H  H112  1  0.065500  0.747600  0.862600  1
  H  H113  1  0.607300  0.287700  0.299600  1
  H  H114  1  0.607300  0.712300  0.200400  1
  H  H115  1  0.107300  0.787700  0.299600  1
  H  H116  1  0.107300  0.212300  0.200400  1
  H  H117  1  0.392700  0.712300  0.700400  1
  H  H118  1  0.392700  0.287700  0.799600  1
  H  H119  1  0.892700  0.212300  0.700400  1
  H  H120  1  0.892700  0.787700  0.799600  1
  H  H121  1  0.645700  0.198800  0.280000  1
  H  H122  1  0.645700  0.801200  0.220000  1
  H  H123  1  0.145700  0.698800  0.280000  1
  H  H124  1  0.145700  0.301200  0.220000  1
  H  H125  1  0.354300  0.801200  0.720000  1
  H  H126  1  0.354300  0.198800  0.780000  1
  H  H127  1  0.854300  0.301200  0.720000  1
  H  H128  1  0.854300  0.698800  0.780000  1
  H  H129  1  0.578600  0.134200  0.301800  1
  H  H130  1  0.578600  0.865800  0.198200  1
  H  H131  1  0.078600  0.634200  0.301800  1
  H  H132  1  0.078600  0.365800  0.198200  1
  H  H133  1  0.421400  0.865800  0.698200  1
  H  H134  1  0.421400  0.134200  0.801800  1
  H  H135  1  0.921400  0.365800  0.698200  1
  H  H136  1  0.921400  0.634200  0.801800  1
  H  H137  1  0.433700  0.431900  0.426300  1
  H  H138  1  0.433700  0.568100  0.073700  1
  H  H139  1  0.933700  0.931900  0.426300  1
  H  H140  1  0.933700  0.068100  0.073700  1
  H  H141  1  0.566300  0.568100  0.573700  1
  H  H142  1  0.566300  0.431900  0.926300  1
  H  H143  1  0.066300  0.068100  0.573700  1
  H  H144  1  0.066300  0.931900  0.926300  1
  H  H145  1  0.316200  0.548700  0.396000  1
  H  H146  1  0.316200  0.451300  0.104000  1
  H  H147  1  0.816200  0.048700  0.396000  1
  H  H148  1  0.816200  0.951300  0.104000  1
  H  H149  1  0.683800  0.451300  0.604000  1
  H  H150  1  0.683800  0.548700  0.896000  1
  H  H151  1  0.183800  0.951300  0.604000  1
  H  H152  1  0.183800  0.048700  0.896000  1
  H  H153  1  0.404500  0.429000  0.304700  1
  H  H154  1  0.404500  0.571000  0.195300  1
  H  H155  1  0.904500  0.929000  0.304700  1
  H  H156  1  0.904500  0.071000  0.195300  1
  H  H157  1  0.595500  0.571000  0.695300  1
  H  H158  1  0.595500  0.429000  0.804700  1
  H  H159  1  0.095500  0.071000  0.695300  1
  H  H160  1  0.095500  0.929000  0.804700  1
  H  H161  1  0.281400  0.482600  0.541300  1
  H  H162  1  0.281400  0.517400  0.958700  1
  H  H163  1  0.781400  0.982600  0.541300  1
  H  H164  1  0.781400  0.017400  0.958700  1
  H  H165  1  0.718600  0.517400  0.458700  1
  H  H166  1  0.718600  0.482600  0.041300  1
  H  H167  1  0.218600  0.017400  0.458700  1
  H  H168  1  0.218600  0.982600  0.041300  1
  H  H169  1  0.241300  0.599300  0.647200  1
  H  H170  1  0.241300  0.400700  0.852800  1
  H  H171  1  0.741300  0.099300  0.647200  1
  H  H172  1  0.741300  0.900700  0.852800  1
  H  H173  1  0.758700  0.400700  0.352800  1
  H  H174  1  0.758700  0.599300  0.147200  1
  H  H175  1  0.258700  0.900700  0.352800  1
  H  H176  1  0.258700  0.099300  0.147200  1
  H  H177  1  0.298000  0.661400  0.617700  1
  H  H178  1  0.298000  0.338600  0.882300  1
  H  H179  1  0.798000  0.161400  0.617700  1
  H  H180  1  0.798000  0.838600  0.882300  1
  H  H181  1  0.702000  0.338600  0.382300  1
  H  H182  1  0.702000  0.661400  0.117700  1
  H  H183  1  0.202000  0.838600  0.382300  1
  H  H184  1  0.202000  0.161400  0.117700  1
  H  H185  1  0.346400  0.634100  0.550000  1
  H  H186  1  0.346400  0.365900  0.950000  1
  H  H187  1  0.846400  0.134100  0.550000  1
  H  H188  1  0.846400  0.865900  0.950000  1
  H  H189  1  0.653600  0.365900  0.450000  1
  H  H190  1  0.653600  0.634100  0.050000  1
  H  H191  1  0.153600  0.865900  0.450000  1
  H  H192  1  0.153600  0.134100  0.050000  1
  H  H193  1  0.303500  0.504300  0.293700  1
  H  H194  1  0.303500  0.495700  0.206300  1
  H  H195  1  0.803500  0.004300  0.293700  1
  H  H196  1  0.803500  0.995700  0.206300  1
  H  H197  1  0.696500  0.495700  0.706300  1
  H  H198  1  0.696500  0.504300  0.793700  1
  H  H199  1  0.196500  0.995700  0.706300  1
  H  H200  1  0.196500  0.004300  0.793700  1
  H  H201  1  0.271500  0.541300  0.336600  1
  H  H202  1  0.271500  0.458700  0.163400  1
  H  H203  1  0.771500  0.041300  0.336600  1
  H  H204  1  0.771500  0.958700  0.163400  1
  H  H205  1  0.728500  0.458700  0.663400  1
  H  H206  1  0.728500  0.541300  0.836600  1
  H  H207  1  0.228500  0.958700  0.663400  1
  H  H208  1  0.228500  0.041300  0.836600  1
  H  H209  1  0.397800  0.671200  0.323100  1
  H  H210  1  0.397800  0.328800  0.176900  1
  H  H211  1  0.897800  0.171200  0.323100  1
  H  H212  1  0.897800  0.828800  0.176900  1
  H  H213  1  0.602200  0.328800  0.676900  1
  H  H214  1  0.602200  0.671200  0.823100  1
  H  H215  1  0.102200  0.828800  0.676900  1
  H  H216  1  0.102200  0.171200  0.823100  1
  H  H217  1  0.343400  0.679100  0.287200  1
  H  H218  1  0.343400  0.320900  0.212800  1
  H  H219  1  0.843400  0.179100  0.287200  1
  H  H220  1  0.843400  0.820900  0.212800  1
  H  H221  1  0.656600  0.320900  0.712800  1
  H  H222  1  0.656600  0.679100  0.787200  1
  H  H223  1  0.156600  0.820900  0.712800  1
  H  H224  1  0.156600  0.179100  0.787200  1
  H  H225  1  0.294700  0.670800  0.367300  1
  H  H226  1  0.294700  0.329200  0.132700  1
  H  H227  1  0.794700  0.170800  0.367300  1
  H  H228  1  0.794700  0.829200  0.132700  1
  H  H229  1  0.705300  0.329200  0.632700  1
  H  H230  1  0.705300  0.670800  0.867300  1
  H  H231  1  0.205300  0.829200  0.632700  1
  H  H232  1  0.205300  0.170800  0.867300  1
  H  H233  1  0.240200  0.678600  0.331300  1
  H  H234  1  0.240200  0.321400  0.168700  1
  H  H235  1  0.740200  0.178600  0.331300  1
  H  H236  1  0.740200  0.821400  0.168700  1
  H  H237  1  0.759800  0.321400  0.668700  1
  H  H238  1  0.759800  0.678600  0.831300  1
  H  H239  1  0.259800  0.821400  0.668700  1
  H  H240  1  0.259800  0.178600  0.831300  1
  H  H241  1  0.253100  0.764500  0.356700  1
  H  H242  1  0.253100  0.235500  0.143300  1
  H  H243  1  0.753100  0.264500  0.356700  1
  H  H244  1  0.753100  0.735500  0.143300  1
  H  H245  1  0.746900  0.235500  0.643300  1
  H  H246  1  0.746900  0.764500  0.856700  1
  H  H247  1  0.246900  0.735500  0.643300  1
  H  H248  1  0.246900  0.264500  0.856700  1
  H  H249  1  0.337000  0.758000  0.340700  1
  H  H250  1  0.337000  0.242000  0.159300  1
  H  H251  1  0.837000  0.258000  0.340700  1
  H  H252  1  0.837000  0.742000  0.159300  1
  H  H253  1  0.663000  0.242000  0.659300  1
  H  H254  1  0.663000  0.758000  0.840700  1
  H  H255  1  0.163000  0.742000  0.659300  1
  H  H256  1  0.163000  0.258000  0.840700  1
  H  H257  1  0.287400  0.754800  0.421800  1
  H  H258  1  0.287400  0.245200  0.078200  1
  H  H259  1  0.787400  0.254800  0.421800  1
  H  H260  1  0.787400  0.745200  0.078200  1
  H  H261  1  0.712600  0.245200  0.578200  1
  H  H262  1  0.712600  0.754800  0.921800  1
  H  H263  1  0.212600  0.745200  0.578200  1
  H  H264  1  0.212600  0.254800  0.921800  1
  H  H265  1  0.339900  0.799600  0.412000  1
  H  H266  1  0.339900  0.200400  0.088000  1
  H  H267  1  0.839900  0.299600  0.412000  1
  H  H268  1  0.839900  0.700400  0.088000  1
  H  H269  1  0.660100  0.200400  0.588000  1
  H  H270  1  0.660100  0.799600  0.912000  1
  H  H271  1  0.160100  0.700400  0.588000  1
  H  H272  1  0.160100  0.299600  0.912000  1
  H  H273  1  0.409700  0.736800  0.436400  1
  H  H274  1  0.409700  0.263200  0.063600  1
  H  H275  1  0.909700  0.236800  0.436400  1
  H  H276  1  0.909700  0.763200  0.063600  1
  H  H277  1  0.590300  0.263200  0.563600  1
  H  H278  1  0.590300  0.736800  0.936400  1
  H  H279  1  0.090300  0.763200  0.563600  1
  H  H280  1  0.090300  0.236800  0.936400  1
  H  H281  1  0.434600  0.736900  0.390200  1
  H  H282  1  0.434600  0.263100  0.109800  1
  H  H283  1  0.934600  0.236900  0.390200  1
  H  H284  1  0.934600  0.763100  0.109800  1
  H  H285  1  0.565400  0.263100  0.609800  1
  H  H286  1  0.565400  0.736900  0.890200  1
  H  H287  1  0.065400  0.763100  0.609800  1
  H  H288  1  0.065400  0.236900  0.890200  1
  H  H289  1  0.382100  0.690500  0.397200  1
  H  H290  1  0.382100  0.309500  0.102800  1
  H  H291  1  0.882100  0.190500  0.397200  1
  H  H292  1  0.882100  0.809500  0.102800  1
  H  H293  1  0.617900  0.309500  0.602800  1
  H  H294  1  0.617900  0.690500  0.897200  1
  H  H295  1  0.117900  0.809500  0.602800  1
  H  H296  1  0.117900  0.190500  0.897200  1
  H  H297  1  0.480000  0.100500  0.495200  1.0
  H  H298  1  0.480000  0.899500  0.004800  1.0
  H  H299  1  0.980000  0.600500  0.495200  1.0
  H  H300  1  0.980000  0.399500  0.004800  1.0
  H  H301  1  0.520000  0.899500  0.504800  1.0
  H  H302  1  0.520000  0.100500  0.995200  1.0
  H  H303  1  0.020000  0.399500  0.504800  1.0
  H  H304  1  0.020000  0.600500  0.995200  1.0
  H  H305  1  0.647900  0.014200  0.524800  1.0
  H  H306  1  0.647900  0.985800  0.975200  1.0
  H  H307  1  0.147900  0.514200  0.524800  1.0
  H  H308  1  0.147900  0.485800  0.975200  1.0
  H  H309  1  0.352100  0.985800  0.475200  1.0
  H  H310  1  0.352100  0.014200  0.024800  1.0
  H  H311  1  0.852100  0.485800  0.475200  1.0
  H  H312  1  0.852100  0.514200  0.024800  1.0
  H  H313  1  0.657600  0.966000  0.454600  1.0
  H  H314  1  0.657600  0.034000  0.045400  1.0
  H  H315  1  0.157600  0.466000  0.454600  1.0
  H  H316  1  0.157600  0.534000  0.045400  1.0
  H  H317  1  0.342400  0.034000  0.545400  1.0
  H  H318  1  0.342400  0.966000  0.954600  1.0
  H  H319  1  0.842400  0.534000  0.545400  1.0
  H  H320  1  0.842400  0.466000  0.954600  1.0
  H  H321  1  0.578600  0.985100  0.404800  1.0
  H  H322  1  0.578600  0.014900  0.095200  1.0
  H  H323  1  0.078600  0.485100  0.404800  1.0
  H  H324  1  0.078600  0.514900  0.095200  1.0
  H  H325  1  0.421400  0.014900  0.595200  1.0
  H  H326  1  0.421400  0.985100  0.904800  1.0
  H  H327  1  0.921400  0.514900  0.595200  1.0
  H  H328  1  0.921400  0.485100  0.904800  1.0
  H  H329  1  0.484300  0.207300  0.630000  1.0
  H  H330  1  0.484300  0.792700  0.870000  1.0
  H  H331  1  0.984300  0.707300  0.630000  1.0
  H  H332  1  0.984300  0.292700  0.870000  1.0
  H  H333  1  0.515700  0.792700  0.370000  1.0
  H  H334  1  0.515700  0.207300  0.130000  1.0
  H  H335  1  0.015700  0.292700  0.370000  1.0
  H  H336  1  0.015700  0.707300  0.130000  1.0
  H  H337  1  0.549200  0.227000  0.750000  1.0
  H  H338  1  0.549200  0.773000  0.750000  1.0
  H  H339  1  0.049200  0.727000  0.750000  1.0
  H  H340  1  0.049200  0.273000  0.750000  1.0
  H  H341  1  0.450800  0.773000  0.250000  1.0
  H  H342  1  0.450800  0.227000  0.250000  1.0
  H  H343  1  0.950800  0.273000  0.250000  1.0
  H  H344  1  0.950800  0.727000  0.250000  1.0
  H  H345  1  0.609700  0.094500  0.660800  1.0
  H  H346  1  0.609700  0.905500  0.839200  1.0
  H  H347  1  0.109700  0.594500  0.660800  1.0
  H  H348  1  0.109700  0.405500  0.839200  1.0
  H  H349  1  0.390300  0.905500  0.339200  1.0
  H  H350  1  0.390300  0.094500  0.160800  1.0
  H  H351  1  0.890300  0.405500  0.339200  1.0
  H  H352  1  0.890300  0.594500  0.160800  1.0
  H  H353  1  0.333700  0.346700  0.674100  1.0
  H  H354  1  0.333700  0.653300  0.825900  1.0
  H  H355  1  0.833700  0.846700  0.674100  1.0
  H  H356  1  0.833700  0.153300  0.825900  1.0
  H  H357  1  0.666300  0.653300  0.325900  1.0
  H  H358  1  0.666300  0.346700  0.174100  1.0
  H  H359  1  0.166300  0.153300  0.325900  1.0
  H  H360  1  0.166300  0.846700  0.174100  1.0
  H  H361  1  0.247900  0.467200  0.765700  1.0
  H  H362  1  0.247900  0.532800  0.734300  1.0
  H  H363  1  0.747900  0.967200  0.765700  1.0
  H  H364  1  0.747900  0.032800  0.734300  1.0
  H  H365  1  0.752100  0.532800  0.234300  1.0
  H  H366  1  0.752100  0.467200  0.265700  1.0
  H  H367  1  0.252100  0.032800  0.234300  1.0
  H  H368  1  0.252100  0.967200  0.265700  1.0
  H  H369  1  0.338900  0.453700  0.811900  1.0
  H  H370  1  0.338900  0.546300  0.688100  1.0
  H  H371  1  0.838900  0.953700  0.811900  1.0
  H  H372  1  0.838900  0.046300  0.688100  1.0
  H  H373  1  0.661100  0.546300  0.188100  1.0
  H  H374  1  0.661100  0.453700  0.311900  1.0
  H  H375  1  0.161100  0.046300  0.188100  1.0
  H  H376  1  0.161100  0.953700  0.311900  1.0
  H  H377  1  0.427300  0.386700  0.789100  1.0
  H  H378  1  0.427300  0.613300  0.710900  1.0
  H  H379  1  0.927300  0.886700  0.789100  1.0
  H  H380  1  0.927300  0.113300  0.710900  1.0
  H  H381  1  0.572700  0.613300  0.210900  1.0
  H  H382  1  0.572700  0.386700  0.289100  1.0
  H  H383  1  0.072700  0.113300  0.210900  1.0
  H  H384  1  0.072700  0.886700  0.289100  1.0
  H  H385  1  0.592400  0.116000  0.754500  1.0
  H  H386  1  0.592400  0.884000  0.745500  1.0
  H  H387  1  0.092400  0.616000  0.754500  1.0
  H  H388  1  0.092400  0.384000  0.745500  1.0
  H  H389  1  0.407600  0.884000  0.245500  1.0
  H  H390  1  0.407600  0.116000  0.254500  1.0
  H  H391  1  0.907600  0.384000  0.245500  1.0
  H  H392  1  0.907600  0.616000  0.254500  1.0
  H  H393  1  0.666500  0.112700  0.727500  1.0
  H  H394  1  0.666500  0.887300  0.772500  1.0
  H  H395  1  0.166500  0.612700  0.727500  1.0
  H  H396  1  0.166500  0.387300  0.772500  1.0
  H  H397  1  0.333500  0.887300  0.272500  1.0
  H  H398  1  0.333500  0.112700  0.227500  1.0
  H  H399  1  0.833500  0.387300  0.272500  1.0
  H  H400  1  0.833500  0.612700  0.227500  1.0
  H  H401  1  0.807400  0.242800  0.794600  1.0
  H  H402  1  0.807400  0.757200  0.705400  1.0
  H  H403  1  0.307400  0.742800  0.794600  1.0
  H  H404  1  0.307400  0.257200  0.705400  1.0
  H  H405  1  0.192600  0.757200  0.205400  1.0
  H  H406  1  0.192600  0.242800  0.294600  1.0
  H  H407  1  0.692600  0.257200  0.205400  1.0
  H  H408  1  0.692600  0.742800  0.294600  1.0
  H  H409  1  0.750800  0.282600  0.781100  1.0
  H  H410  1  0.750800  0.717400  0.718900  1.0
  H  H411  1  0.250800  0.782600  0.781100  1.0
  H  H412  1  0.250800  0.217400  0.718900  1.0
  H  H413  1  0.249200  0.717400  0.218900  1.0
  H  H414  1  0.249200  0.282600  0.281100  1.0
  H  H415  1  0.749200  0.217400  0.218900  1.0
  H  H416  1  0.749200  0.782600  0.281100  1.0
  H  H417  1  0.725900  0.232000  0.846600  1.0
  H  H418  1  0.725900  0.768000  0.653400  1.0
  H  H419  1  0.225900  0.732000  0.846600  1.0
  H  H420  1  0.225900  0.268000  0.653400  1.0
  H  H421  1  0.274100  0.768000  0.153400  1.0
  H  H422  1  0.274100  0.232000  0.346600  1.0
  H  H423  1  0.774100  0.268000  0.153400  1.0
  H  H424  1  0.774100  0.732000  0.346600  1.0
  H  H425  1  0.664200  0.266900  0.831500  1.0
  H  H426  1  0.664200  0.733100  0.668500  1.0
  H  H427  1  0.164200  0.766900  0.831500  1.0
  H  H428  1  0.164200  0.233100  0.668500  1.0
  H  H429  1  0.335800  0.733100  0.168500  1.0
  H  H430  1  0.335800  0.266900  0.331500  1.0
  H  H431  1  0.835800  0.233100  0.168500  1.0
  H  H432  1  0.835800  0.766900  0.331500  1.0
  H  H433  1  0.803600  0.307000  0.867300  1.0
  H  H434  1  0.803600  0.693000  0.632700  1.0
  H  H435  1  0.303600  0.807000  0.867300  1.0
  H  H436  1  0.303600  0.193000  0.632700  1.0
  H  H437  1  0.196400  0.693000  0.132700  1.0
  H  H438  1  0.196400  0.307000  0.367300  1.0
  H  H439  1  0.696400  0.193000  0.132700  1.0
  H  H440  1  0.696400  0.807000  0.367300  1.0
  H  H441  1  0.745300  0.342200  0.849900  1.0
  H  H442  1  0.745300  0.657800  0.650100  1.0
  H  H443  1  0.245300  0.842200  0.849900  1.0
  H  H444  1  0.245300  0.157800  0.650100  1.0
  H  H445  1  0.254700  0.657800  0.150100  1.0
  H  H446  1  0.254700  0.342200  0.349900  1.0
  H  H447  1  0.754700  0.157800  0.150100  1.0
  H  H448  1  0.754700  0.842200  0.349900  1.0
  H  H449  1  0.658100  0.333700  0.900300  1.0
  H  H450  1  0.658100  0.666300  0.599700  1.0
  H  H451  1  0.158100  0.833700  0.900300  1.0
  H  H452  1  0.158100  0.166300  0.599700  1.0
  H  H453  1  0.341900  0.666300  0.099700  1.0
  H  H454  1  0.341900  0.333700  0.400300  1.0
  H  H455  1  0.841900  0.166300  0.099700  1.0
  H  H456  1  0.841900  0.833700  0.400300  1.0
  H  H457  1  0.712600  0.294900  0.916500  1.0
  H  H458  1  0.712600  0.705100  0.583500  1.0
  H  H459  1  0.212600  0.794900  0.916500  1.0
  H  H460  1  0.212600  0.205100  0.583500  1.0
  H  H461  1  0.287400  0.705100  0.083500  1.0
  H  H462  1  0.287400  0.294900  0.416500  1.0
  H  H463  1  0.787400  0.205100  0.083500  1.0
  H  H464  1  0.787400  0.794900  0.416500  1.0
  H  H465  1  0.719200  0.382900  0.960500  1.0
  H  H466  1  0.719200  0.617100  0.539500  1.0
  H  H467  1  0.219200  0.882900  0.960500  1.0
  H  H468  1  0.219200  0.117100  0.539500  1.0
  H  H469  1  0.280800  0.617100  0.039500  1.0
  H  H470  1  0.280800  0.382900  0.460500  1.0
  H  H471  1  0.780800  0.117100  0.039500  1.0
  H  H472  1  0.780800  0.882900  0.460500  1.0
  H  H473  1  0.745800  0.403600  0.921600  1.0
  H  H474  1  0.745800  0.596400  0.578400  1.0
  H  H475  1  0.245800  0.903600  0.921600  1.0
  H  H476  1  0.245800  0.096400  0.578400  1.0
  H  H477  1  0.254200  0.596400  0.078400  1.0
  H  H478  1  0.254200  0.403600  0.421600  1.0
  H  H479  1  0.754200  0.096400  0.078400  1.0
  H  H480  1  0.754200  0.903600  0.421600  1.0
  H  H481  1  0.797700  0.364800  0.939200  1.0
  H  H482  1  0.797700  0.635200  0.560800  1.0
  H  H483  1  0.297700  0.864800  0.939200  1.0
  H  H484  1  0.297700  0.135200  0.560800  1.0
  H  H485  1  0.202300  0.635200  0.060800  1.0
  H  H486  1  0.202300  0.364800  0.439200  1.0
  H  H487  1  0.702300  0.135200  0.060800  1.0
  H  H488  1  0.702300  0.864800  0.439200  1.0
  H  H489  1  0.452100  0.250700  0.372900  1.0
  H  H490  1  0.452100  0.749300  0.127100  1.0
  H  H491  1  0.952100  0.750700  0.372900  1.0
  H  H492  1  0.952100  0.249300  0.127100  1.0
  H  H493  1  0.547900  0.749300  0.627100  1.0
  H  H494  1  0.547900  0.250700  0.872900  1.0
  H  H495  1  0.047900  0.249300  0.627100  1.0
  H  H496  1  0.047900  0.750700  0.872900  1.0
  H  H497  1  0.620900  0.284200  0.303900  1.0
  H  H498  1  0.620900  0.715800  0.196100  1.0
  H  H499  1  0.120900  0.784200  0.303900  1.0
  H  H500  1  0.120900  0.215800  0.196100  1.0
  H  H501  1  0.379100  0.715800  0.696100  1.0
  H  H502  1  0.379100  0.284200  0.803900  1.0
  H  H503  1  0.879100  0.215800  0.696100  1.0
  H  H504  1  0.879100  0.784200  0.803900  1.0
  H  H505  1  0.634300  0.193400  0.270800  1.0
  H  H506  1  0.634300  0.806600  0.229200  1.0
  H  H507  1  0.134300  0.693400  0.270800  1.0
  H  H508  1  0.134300  0.306600  0.229200  1.0
  H  H509  1  0.365700  0.806600  0.729200  1.0
  H  H510  1  0.365700  0.193400  0.770800  1.0
  H  H511  1  0.865700  0.306600  0.729200  1.0
  H  H512  1  0.865700  0.693400  0.770800  1.0
  H  H513  1  0.556500  0.131200  0.288800  1.0
  H  H514  1  0.556500  0.868800  0.211200  1.0
  H  H515  1  0.056500  0.631200  0.288800  1.0
  H  H516  1  0.056500  0.368800  0.211200  1.0
  H  H517  1  0.443500  0.868800  0.711200  1.0
  H  H518  1  0.443500  0.131200  0.788800  1.0
  H  H519  1  0.943500  0.368800  0.711200  1.0
  H  H520  1  0.943500  0.631200  0.788800  1.0
  H  H521  1  0.452900  0.427300  0.449000  1.0
  H  H522  1  0.452900  0.572700  0.051000  1.0
  H  H523  1  0.952900  0.927300  0.449000  1.0
  H  H524  1  0.952900  0.072700  0.051000  1.0
  H  H525  1  0.547100  0.572700  0.551000  1.0
  H  H526  1  0.547100  0.427300  0.949000  1.0
  H  H527  1  0.047100  0.072700  0.551000  1.0
  H  H528  1  0.047100  0.927300  0.949000  1.0
  H  H529  1  0.507800  0.579200  0.452300  1.0
  H  H530  1  0.507800  0.420800  0.047700  1.0
  H  H531  1  0.007800  0.079200  0.452300  1.0
  H  H532  1  0.007800  0.920800  0.047700  1.0
  H  H533  1  0.492200  0.420800  0.547700  1.0
  H  H534  1  0.492200  0.579200  0.952300  1.0
  H  H535  1  0.992200  0.920800  0.547700  1.0
  H  H536  1  0.992200  0.079200  0.952300  1.0
  H  H537  1  0.571400  0.457700  0.354400  1.0
  H  H538  1  0.571400  0.542300  0.145600  1.0
  H  H539  1  0.071400  0.957700  0.354400  1.0
  H  H540  1  0.071400  0.042300  0.145600  1.0
  H  H541  1  0.428600  0.542300  0.645600  1.0
  H  H542  1  0.428600  0.457700  0.854400  1.0
  H  H543  1  0.928600  0.042300  0.645600  1.0
  H  H544  1  0.928600  0.957700  0.854400  1.0
  H  H545  1  0.301100  0.484000  0.553600  1.0
  H  H546  1  0.301100  0.516000  0.946400  1.0
  H  H547  1  0.801100  0.984000  0.553600  1.0
  H  H548  1  0.801100  0.016000  0.946400  1.0
  H  H549  1  0.698900  0.516000  0.446400  1.0
  H  H550  1  0.698900  0.484000  0.053600  1.0
  H  H551  1  0.198900  0.016000  0.446400  1.0
  H  H552  1  0.198900  0.984000  0.053600  1.0
  H  H553  1  0.229400  0.596200  0.655700  1.0
  H  H554  1  0.229400  0.403800  0.844300  1.0
  H  H555  1  0.729400  0.096200  0.655700  1.0
  H  H556  1  0.729400  0.903800  0.844300  1.0
  H  H557  1  0.770600  0.403800  0.344300  1.0
  H  H558  1  0.770600  0.596200  0.155700  1.0
  H  H559  1  0.270600  0.903800  0.344300  1.0
  H  H560  1  0.270600  0.096200  0.155700  1.0
  H  H561  1  0.314600  0.657000  0.641900  1.0
  H  H562  1  0.314600  0.343000  0.858100  1.0
  H  H563  1  0.814600  0.157000  0.641900  1.0
  H  H564  1  0.814600  0.843000  0.858100  1.0
  H  H565  1  0.685400  0.343000  0.358100  1.0
  H  H566  1  0.685400  0.657000  0.141900  1.0
  H  H567  1  0.185400  0.843000  0.358100  1.0
  H  H568  1  0.185400  0.157000  0.141900  1.0
  H  H569  1  0.393000  0.631200  0.584000  1.0
  H  H570  1  0.393000  0.368800  0.916000  1.0
  H  H571  1  0.893000  0.131200  0.584000  1.0
  H  H572  1  0.893000  0.868800  0.916000  1.0
  H  H573  1  0.607000  0.368800  0.416000  1.0
  H  H574  1  0.607000  0.631200  0.084000  1.0
  H  H575  1  0.107000  0.868800  0.416000  1.0
  H  H576  1  0.107000  0.131200  0.084000  1.0
  H  H577  1  0.583000  0.597500  0.396500  1.0
  H  H578  1  0.583000  0.402500  0.103500  1.0
  H  H579  1  0.083000  0.097500  0.396500  1.0
  H  H580  1  0.083000  0.902500  0.103500  1.0
  H  H581  1  0.417000  0.402500  0.603500  1.0
  H  H582  1  0.417000  0.597500  0.896500  1.0
  H  H583  1  0.917000  0.902500  0.603500  1.0
  H  H584  1  0.917000  0.097500  0.896500  1.0
  H  H585  1  0.636000  0.549300  0.373200  1.0
  H  H586  1  0.636000  0.450700  0.126800  1.0
  H  H587  1  0.136000  0.049300  0.373200  1.0
  H  H588  1  0.136000  0.950700  0.126800  1.0
  H  H589  1  0.364000  0.450700  0.626800  1.0
  H  H590  1  0.364000  0.549300  0.873200  1.0
  H  H591  1  0.864000  0.950700  0.626800  1.0
  H  H592  1  0.864000  0.049300  0.873200  1.0
  H  H593  1  0.392900  0.561400  0.304200  1.0
  H  H594  1  0.392900  0.438600  0.195800  1.0
  H  H595  1  0.892900  0.061400  0.304200  1.0
  H  H596  1  0.892900  0.938600  0.195800  1.0
  H  H597  1  0.607100  0.438600  0.695800  1.0
  H  H598  1  0.607100  0.561400  0.804200  1.0
  H  H599  1  0.107100  0.938600  0.695800  1.0
  H  H600  1  0.107100  0.061400  0.804200  1.0
  H  H601  1  0.467700  0.551700  0.277300  1.0
  H  H602  1  0.467700  0.448300  0.222700  1.0
  H  H603  1  0.967700  0.051700  0.277300  1.0
  H  H604  1  0.967700  0.948300  0.222700  1.0
  H  H605  1  0.532300  0.448300  0.722700  1.0
  H  H606  1  0.532300  0.551700  0.777300  1.0
  H  H607  1  0.032300  0.948300  0.722700  1.0
  H  H608  1  0.032300  0.051700  0.777300  1.0
  H  H609  1  0.472300  0.636400  0.272800  1.0
  H  H610  1  0.472300  0.363600  0.227200  1.0
  H  H611  1  0.972300  0.136400  0.272800  1.0
  H  H612  1  0.972300  0.863600  0.227200  1.0
  H  H613  1  0.527700  0.363600  0.727200  1.0
  H  H614  1  0.527700  0.636400  0.772800  1.0
  H  H615  1  0.027700  0.863600  0.727200  1.0
  H  H616  1  0.027700  0.136400  0.772800  1.0
  H  H617  1  0.423800  0.658500  0.314200  1.0
  H  H618  1  0.423800  0.341500  0.185800  1.0
  H  H619  1  0.923800  0.158500  0.314200  1.0
  H  H620  1  0.923800  0.841500  0.185800  1.0
  H  H621  1  0.576200  0.341500  0.685800  1.0
  H  H622  1  0.576200  0.658500  0.814200  1.0
  H  H623  1  0.076200  0.841500  0.685800  1.0
  H  H624  1  0.076200  0.158500  0.814200  1.0
  H  H625  1  0.329300  0.656700  0.272800  1.0
  H  H626  1  0.329300  0.343300  0.227200  1.0
  H  H627  1  0.829300  0.156700  0.272800  1.0
  H  H628  1  0.829300  0.843300  0.227200  1.0
  H  H629  1  0.670700  0.343300  0.727200  1.0
  H  H630  1  0.670700  0.656700  0.772800  1.0
  H  H631  1  0.170700  0.843300  0.727200  1.0
  H  H632  1  0.170700  0.156700  0.772800  1.0
  H  H633  1  0.331200  0.593100  0.263900  1.0
  H  H634  1  0.331200  0.406900  0.236100  1.0
  H  H635  1  0.831200  0.093100  0.263900  1.0
  H  H636  1  0.831200  0.906900  0.236100  1.0
  H  H637  1  0.668800  0.406900  0.736100  1.0
  H  H638  1  0.668800  0.593100  0.763900  1.0
  H  H639  1  0.168800  0.906900  0.736100  1.0
  H  H640  1  0.168800  0.093100  0.763900  1.0
  H  H641  1  0.430800  0.635600  0.216200  1.0
  H  H642  1  0.430800  0.364400  0.283800  1.0
  H  H643  1  0.930800  0.135600  0.216200  1.0
  H  H644  1  0.930800  0.864400  0.283800  1.0
  H  H645  1  0.569200  0.364400  0.783800  1.0
  H  H646  1  0.569200  0.635600  0.716200  1.0
  H  H647  1  0.069200  0.864400  0.783800  1.0
  H  H648  1  0.069200  0.135600  0.716200  1.0
  H  H649  1  0.383800  0.581600  0.201700  1.0
  H  H650  1  0.383800  0.418400  0.298300  1.0
  H  H651  1  0.883800  0.081600  0.201700  1.0
  H  H652  1  0.883800  0.918400  0.298300  1.0
  H  H653  1  0.616200  0.418400  0.798300  1.0
  H  H654  1  0.616200  0.581600  0.701700  1.0
  H  H655  1  0.116200  0.918400  0.798300  1.0
  H  H656  1  0.116200  0.081600  0.701700  1.0
  H  H657  1  0.330000  0.636000  0.166900  1.0
  H  H658  1  0.330000  0.364000  0.333100  1.0
  H  H659  1  0.830000  0.136000  0.166900  1.0
  H  H660  1  0.830000  0.864000  0.333100  1.0
  H  H661  1  0.670000  0.364000  0.833100  1.0
  H  H662  1  0.670000  0.636000  0.666900  1.0
  H  H663  1  0.170000  0.864000  0.833100  1.0
  H  H664  1  0.170000  0.136000  0.666900  1.0
  H  H665  1  0.333200  0.686500  0.206900  1.0
  H  H666  1  0.333200  0.313500  0.293100  1.0
  H  H667  1  0.833200  0.186500  0.206900  1.0
  H  H668  1  0.833200  0.813500  0.293100  1.0
  H  H669  1  0.666800  0.313500  0.793100  1.0
  H  H670  1  0.666800  0.686500  0.706900  1.0
  H  H671  1  0.166800  0.813500  0.793100  1.0
  H  H672  1  0.166800  0.186500  0.706900  1.0
  H  H673  1  0.275200  0.639600  0.205400  1.0
  H  H674  1  0.275200  0.360400  0.294600  1.0
  H  H675  1  0.775200  0.139600  0.205400  1.0
  H  H676  1  0.775200  0.860400  0.294600  1.0
  H  H677  1  0.724800  0.360400  0.794600  1.0
  H  H678  1  0.724800  0.639600  0.705400  1.0
  H  H679  1  0.224800  0.860400  0.794600  1.0
  H  H680  1  0.224800  0.139600  0.705400  1.0
  C  C681  1  0.712600  0.212500  0.770700  1
  C  C682  1  0.712600  0.787500  0.729300  1
  C  C683  1  0.212600  0.712500  0.770700  1
  C  C684  1  0.212600  0.287500  0.729300  1
  C  C685  1  0.287400  0.787500  0.229300  1
  C  C686  1  0.287400  0.212500  0.270700  1
  C  C687  1  0.787400  0.287500  0.229300  1
  C  C688  1  0.787400  0.712500  0.270700  1
  C  C689  1  0.737100  0.260500  0.804600  1
  C  C690  1  0.737100  0.739500  0.695400  1
  C  C691  1  0.237100  0.760500  0.804600  1
  C  C692  1  0.237100  0.239500  0.695400  1
  C  C693  1  0.262900  0.739500  0.195400  1
  C  C694  1  0.262900  0.260500  0.304600  1
  C  C695  1  0.762900  0.239500  0.195400  1
  C  C696  1  0.762900  0.760500  0.304600  1
  C  C697  1  0.795500  0.244300  0.831300  1
  C  C698  1  0.795500  0.755700  0.668700  1
  C  C699  1  0.295500  0.744300  0.831300  1
  C  C700  1  0.295500  0.255700  0.668700  1
  C  C701  1  0.204500  0.755700  0.168700  1
  C  C702  1  0.204500  0.244300  0.331300  1
  C  C703  1  0.704500  0.255700  0.168700  1
  C  C704  1  0.704500  0.744300  0.331300  1
  C  C705  1  0.814600  0.291100  0.867700  1
  C  C706  1  0.814600  0.708900  0.632300  1
  C  C707  1  0.314600  0.791100  0.867700  1
  C  C708  1  0.314600  0.208900  0.632300  1
  C  C709  1  0.185400  0.708900  0.132300  1
  C  C710  1  0.185400  0.291100  0.367700  1
  C  C711  1  0.685400  0.208900  0.132300  1
  C  C712  1  0.685400  0.791100  0.367700  1
  C  C713  1  0.829000  0.272100  0.906200  1
  C  C714  1  0.829000  0.727900  0.593800  1
  C  C715  1  0.329000  0.772100  0.906200  1
  C  C716  1  0.329000  0.227900  0.593800  1
  C  C717  1  0.171000  0.727900  0.093800  1
  C  C718  1  0.171000  0.272100  0.406200  1
  C  C719  1  0.671000  0.227900  0.093800  1
  C  C720  1  0.671000  0.772100  0.406200  1
  C  C721  1  0.840000  0.319400  0.943500  1
  C  C722  1  0.840000  0.680600  0.556500  1
  C  C723  1  0.340000  0.819400  0.943500  1
  C  C724  1  0.340000  0.180600  0.556500  1
  C  C725  1  0.160000  0.680600  0.056500  1
  C  C726  1  0.160000  0.319400  0.443500  1
  C  C727  1  0.660000  0.180600  0.056500  1
  C  C728  1  0.660000  0.819400  0.443500  1
  C  C729  1  0.500300  0.184800  0.334200  1
  C  C730  1  0.500300  0.815200  0.165800  1
  C  C731  1  0.000300  0.684800  0.334200  1
  C  C732  1  0.000300  0.315200  0.165800  1
  C  C733  1  0.499700  0.815200  0.665800  1
  C  C734  1  0.499700  0.184800  0.834200  1
  C  C735  1  0.999700  0.315200  0.665800  1
  C  C736  1  0.999700  0.684800  0.834200  1
  C  C737  1  0.477400  0.237700  0.345900  1
  C  C738  1  0.477400  0.762300  0.154100  1
  C  C739  1  0.977400  0.737700  0.345900  1
  C  C740  1  0.977400  0.262300  0.154100  1
  C  C741  1  0.522600  0.762300  0.654100  1
  C  C742  1  0.522600  0.237700  0.845900  1
  C  C743  1  0.022600  0.262300  0.654100  1
  C  C744  1  0.022600  0.737700  0.845900  1
  C  C745  1  0.517300  0.276000  0.332900  1
  C  C746  1  0.517300  0.724000  0.167100  1
  C  C747  1  0.017300  0.776000  0.332900  1
  C  C748  1  0.017300  0.224000  0.167100  1
  C  C749  1  0.482700  0.724000  0.667100  1
  C  C750  1  0.482700  0.276000  0.832900  1
  C  C751  1  0.982700  0.224000  0.667100  1
  C  C752  1  0.982700  0.776000  0.832900  1
  C  C753  1  0.580000  0.261500  0.308400  1
  C  C754  1  0.580000  0.738500  0.191600  1
  C  C755  1  0.080000  0.761500  0.308400  1
  C  C756  1  0.080000  0.238500  0.191600  1
  C  C757  1  0.420000  0.738500  0.691600  1
  C  C758  1  0.420000  0.261500  0.808400  1
  C  C759  1  0.920000  0.238500  0.691600  1
  C  C760  1  0.920000  0.761500  0.808400  1
  C  C761  1  0.602900  0.208700  0.296800  1
  C  C762  1  0.602900  0.791300  0.203200  1
  C  C763  1  0.102900  0.708700  0.296800  1
  C  C764  1  0.102900  0.291300  0.203200  1
  C  C765  1  0.397100  0.791300  0.703200  1
  C  C766  1  0.397100  0.208700  0.796800  1
  C  C767  1  0.897100  0.291300  0.703200  1
  C  C768  1  0.897100  0.708700  0.796800  1
  C  C769  1  0.563000  0.170300  0.309700  1
  C  C770  1  0.563000  0.829700  0.190300  1
  C  C771  1  0.063000  0.670300  0.309700  1
  C  C772  1  0.063000  0.329700  0.190300  1
  C  C773  1  0.437000  0.829700  0.690300  1
  C  C774  1  0.437000  0.170300  0.809700  1
  C  C775  1  0.937000  0.329700  0.690300  1
  C  C776  1  0.937000  0.670300  0.809700  1
  C  C777  1  0.493800  0.330900  0.344900  1
  C  C778  1  0.493800  0.669100  0.155100  1
  C  C779  1  0.993800  0.830900  0.344900  1
  C  C780  1  0.993800  0.169100  0.155100  1
  C  C781  1  0.506200  0.669100  0.655100  1
  C  C782  1  0.506200  0.330900  0.844900  1
  C  C783  1  0.006200  0.169100  0.655100  1
  C  C784  1  0.006200  0.830900  0.844900  1
  C  C785  1  0.468200  0.374500  0.352900  1
  C  C786  1  0.468200  0.625500  0.147100  1
  C  C787  1  0.968200  0.874500  0.352900  1
  C  C788  1  0.968200  0.125500  0.147100  1
  C  C789  1  0.531800  0.625500  0.647100  1
  C  C790  1  0.531800  0.374500  0.852900  1
  C  C791  1  0.031800  0.125500  0.647100  1
  C  C792  1  0.031800  0.874500  0.852900  1
  C  C793  1  0.425500  0.423000  0.363600  1
  C  C794  1  0.425500  0.577000  0.136400  1
  C  C795  1  0.925500  0.923000  0.363600  1
  C  C796  1  0.925500  0.077000  0.136400  1
  C  C797  1  0.574500  0.577000  0.636400  1
  C  C798  1  0.574500  0.423000  0.863600  1
  C  C799  1  0.074500  0.077000  0.636400  1
  C  C800  1  0.074500  0.923000  0.863600  1
  C  C801  1  0.413800  0.447300  0.405700  1
  C  C802  1  0.413800  0.552700  0.094300  1
  C  C803  1  0.913800  0.947300  0.405700  1
  C  C804  1  0.913800  0.052700  0.094300  1
  C  C805  1  0.586200  0.552700  0.594300  1
  C  C806  1  0.586200  0.447300  0.905700  1
  C  C807  1  0.086200  0.052700  0.594300  1
  C  C808  1  0.086200  0.947300  0.905700  1
  C  C809  1  0.373100  0.494100  0.417810  1
  C  C810  1  0.373100  0.505900  0.082190  1
  C  C811  1  0.873100  0.994100  0.417810  1
  C  C812  1  0.873100  0.005900  0.082190  1
  C  C813  1  0.626900  0.505900  0.582190  1
  C  C814  1  0.626900  0.494100  0.917810  1
  C  C815  1  0.126900  0.005900  0.582190  1
  C  C816  1  0.126900  0.994100  0.917810  1
  C  C817  1  0.344000  0.516700  0.387700  1
  C  C818  1  0.344000  0.483300  0.112300  1
  C  C819  1  0.844000  0.016700  0.387700  1
  C  C820  1  0.844000  0.983300  0.112300  1
  C  C821  1  0.656000  0.483300  0.612300  1
  C  C822  1  0.656000  0.516700  0.887700  1
  C  C823  1  0.156000  0.983300  0.612300  1
  C  C824  1  0.156000  0.016700  0.887700  1
  C  C825  1  0.355700  0.492400  0.345600  1
  C  C826  1  0.355700  0.507600  0.154400  1
  C  C827  1  0.855700  0.992400  0.345600  1
  C  C828  1  0.855700  0.007600  0.154400  1
  C  C829  1  0.644300  0.507600  0.654400  1
  C  C830  1  0.644300  0.492400  0.845600  1
  C  C831  1  0.144300  0.007600  0.654400  1
  C  C832  1  0.144300  0.992400  0.845600  1
  C  C833  1  0.396500  0.445600  0.333510  1
  C  C834  1  0.396500  0.554400  0.166490  1
  C  C835  1  0.896500  0.945600  0.333510  1
  C  C836  1  0.896500  0.054400  0.166490  1
  C  C837  1  0.603500  0.554400  0.666490  1
  C  C838  1  0.603500  0.445600  0.833510  1
  C  C839  1  0.103500  0.054400  0.666490  1
  C  C840  1  0.103500  0.945600  0.833510  1
  C  C841  1  0.359100  0.521100  0.461000  1
  C  C842  1  0.359100  0.478900  0.039000  1
  C  C843  1  0.859100  0.021100  0.461000  1
  C  C844  1  0.859100  0.978900  0.039000  1
  C  C845  1  0.640900  0.478900  0.539000  1
  C  C846  1  0.640900  0.521100  0.961000  1
  C  C847  1  0.140900  0.978900  0.539000  1
  C  C848  1  0.140900  0.021100  0.961000  1
  C  C849  1  0.347700  0.537900  0.497480  1
  C  C850  1  0.347700  0.462100  0.002520  1
  C  C851  1  0.847700  0.037900  0.497480  1
  C  C852  1  0.847700  0.962100  0.002520  1
  C  C853  1  0.652300  0.462100  0.502520  1
  C  C854  1  0.652300  0.537900  0.997480  1
  C  C855  1  0.152300  0.962100  0.502520  1
  C  C856  1  0.152300  0.037900  0.997480  1
  C  C857  1  0.318400  0.555800  0.539250  1
  C  C858  1  0.318400  0.444200  0.960750  1
  C  C859  1  0.818400  0.055800  0.539250  1
  C  C860  1  0.818400  0.944200  0.960750  1
  C  C861  1  0.681600  0.444200  0.460750  1
  C  C862  1  0.681600  0.555800  0.039250  1
  C  C863  1  0.181600  0.944200  0.460750  1
  C  C864  1  0.181600  0.055800  0.039250  1
  C  C865  1  0.284800  0.518900  0.556800  1
  C  C866  1  0.284800  0.481100  0.943200  1
  C  C867  1  0.784800  0.018900  0.556800  1
  C  C868  1  0.784800  0.981100  0.943200  1
  C  C869  1  0.715200  0.481100  0.443200  1
  C  C870  1  0.715200  0.518900  0.056800  1
  C  C871  1  0.215200  0.981100  0.443200  1
  C  C872  1  0.215200  0.018900  0.056800  1
  C  C873  1  0.256000  0.535100  0.597000  1
  C  C874  1  0.256000  0.464900  0.903000  1
  C  C875  1  0.756000  0.035100  0.597000  1
  C  C876  1  0.756000  0.964900  0.903000  1
  C  C877  1  0.744000  0.464900  0.403000  1
  C  C878  1  0.744000  0.535100  0.097000  1
  C  C879  1  0.244000  0.964900  0.403000  1
  C  C880  1  0.244000  0.035100  0.097000  1
  C  C881  1  0.261000  0.588200  0.619700  1
  C  C882  1  0.261000  0.411800  0.880300  1
  C  C883  1  0.761000  0.088200  0.619700  1
  C  C884  1  0.761000  0.911800  0.880300  1
  C  C885  1  0.739000  0.411800  0.380300  1
  C  C886  1  0.739000  0.588200  0.119700  1
  C  C887  1  0.239000  0.911800  0.380300  1
  C  C888  1  0.239000  0.088200  0.119700  1
  C  C889  1  0.294700  0.625100  0.602200  1
  C  C890  1  0.294700  0.374900  0.897800  1
  C  C891  1  0.794700  0.125100  0.602200  1
  C  C892  1  0.794700  0.874900  0.897800  1
  C  C893  1  0.705300  0.374900  0.397800  1
  C  C894  1  0.705300  0.625100  0.102200  1
  C  C895  1  0.205300  0.874900  0.397800  1
  C  C896  1  0.205300  0.125100  0.102200  1
  C  C897  1  0.323400  0.608900  0.561900  1
  C  C898  1  0.323400  0.391100  0.938100  1
  C  C899  1  0.823400  0.108900  0.561900  1
  C  C900  1  0.823400  0.891100  0.938100  1
  C  C901  1  0.676600  0.391100  0.438100  1
  C  C902  1  0.676600  0.608900  0.061900  1
  C  C903  1  0.176600  0.891100  0.438100  1
  C  C904  1  0.176600  0.108900  0.061900  1
  C  C905  1  0.220600  0.492000  0.613100  1
  C  C906  1  0.220600  0.508000  0.886900  1
  C  C907  1  0.720600  0.992000  0.613100  1
  C  C908  1  0.720600  0.008000  0.886900  1
  C  C909  1  0.779400  0.508000  0.386900  1
  C  C910  1  0.779400  0.492000  0.113100  1
  C  C911  1  0.279400  0.008000  0.386900  1
  C  C912  1  0.279400  0.992000  0.113100  1
  C  C913  1  0.317400  0.526600  0.321800  1
  C  C914  1  0.317400  0.473400  0.178200  1
  C  C915  1  0.817400  0.026600  0.321800  1
  C  C916  1  0.817400  0.973400  0.178200  1
  C  C917  1  0.682600  0.473400  0.678200  1
  C  C918  1  0.682600  0.526600  0.821800  1
  C  C919  1  0.182600  0.973400  0.678200  1
  C  C920  1  0.182600  0.026600  0.821800  1
  C  C921  1  0.337300  0.603500  0.295800  1
  C  C922  1  0.337300  0.396500  0.204200  1
  C  C923  1  0.837300  0.103500  0.295800  1
  C  C924  1  0.837300  0.896500  0.204200  1
  C  C925  1  0.662700  0.396500  0.704200  1
  C  C926  1  0.662700  0.603500  0.795800  1
  C  C927  1  0.162700  0.896500  0.704200  1
  C  C928  1  0.162700  0.103500  0.795800  1
  C  C929  1  0.347800  0.663100  0.311000  1
  C  C930  1  0.347800  0.336900  0.189000  1
  C  C931  1  0.847800  0.163100  0.311000  1
  C  C932  1  0.847800  0.836900  0.189000  1
  C  C933  1  0.652200  0.336900  0.689000  1
  C  C934  1  0.652200  0.663100  0.811000  1
  C  C935  1  0.152200  0.836900  0.689000  1
  C  C936  1  0.152200  0.163100  0.811000  1
  C  C937  1  0.290200  0.686700  0.343500  1
  C  C938  1  0.290200  0.313300  0.156500  1
  C  C939  1  0.790200  0.186700  0.343500  1
  C  C940  1  0.790200  0.813300  0.156500  1
  C  C941  1  0.709800  0.313300  0.656500  1
  C  C942  1  0.709800  0.686700  0.843500  1
  C  C943  1  0.209800  0.813300  0.656500  1
  C  C944  1  0.209800  0.186700  0.843500  1
  C  C945  1  0.300500  0.746300  0.358600  1
  C  C946  1  0.300500  0.253700  0.141400  1
  C  C947  1  0.800500  0.246300  0.358600  1
  C  C948  1  0.800500  0.753700  0.141400  1
  C  C949  1  0.699500  0.253700  0.641400  1
  C  C950  1  0.699500  0.746300  0.858600  1
  C  C951  1  0.199500  0.753700  0.641400  1
  C  C952  1  0.199500  0.246300  0.858600  1
  C  C953  1  0.327000  0.761300  0.403300  1
  C  C954  1  0.327000  0.238700  0.096700  1
  C  C955  1  0.827000  0.261300  0.403300  1
  C  C956  1  0.827000  0.738700  0.096700  1
  C  C957  1  0.673000  0.238700  0.596700  1
  C  C958  1  0.673000  0.761300  0.903300  1
  C  C959  1  0.173000  0.738700  0.596700  1
  C  C960  1  0.173000  0.261300  0.903300  1
  C  C961  1  0.394000  0.728000  0.407100  1
  C  C962  1  0.394000  0.272000  0.092900  1
  C  C963  1  0.894000  0.228000  0.407100  1
  C  C964  1  0.894000  0.772000  0.092900  1
  C  C965  1  0.606000  0.272000  0.592900  1
  C  C966  1  0.606000  0.728000  0.907100  1
  C  C967  1  0.106000  0.772000  0.592900  1
  C  C968  1  0.106000  0.228000  0.907100  1
  C  C969  1  0.468400  0.056300  0.415000  1.0
  C  C970  1  0.468400  0.943700  0.085000  1.0
  C  C971  1  0.968400  0.556300  0.415000  1.0
  C  C972  1  0.968400  0.443700  0.085000  1.0
  C  C973  1  0.531600  0.943700  0.585000  1.0
  C  C974  1  0.531600  0.056300  0.915000  1.0
  C  C975  1  0.031600  0.443700  0.585000  1.0
  C  C976  1  0.031600  0.556300  0.915000  1.0
  C  C977  1  0.521900  0.044600  0.445330  1.0
  C  C978  1  0.521900  0.955400  0.054670  1.0
  C  C979  1  0.021900  0.544600  0.445330  1.0
  C  C980  1  0.021900  0.455400  0.054670  1.0
  C  C981  1  0.478100  0.955400  0.554670  1.0
  C  C982  1  0.478100  0.044600  0.945330  1.0
  C  C983  1  0.978100  0.455400  0.554670  1.0
  C  C984  1  0.978100  0.544600  0.945330  1.0
  C  C985  1  0.516100  0.073200  0.487010  1.0
  C  C986  1  0.516100  0.926800  0.012990  1.0
  C  C987  1  0.016100  0.573200  0.487010  1.0
  C  C988  1  0.016100  0.426800  0.012990  1.0
  C  C989  1  0.483900  0.926800  0.512990  1.0
  C  C990  1  0.483900  0.073200  0.987010  1.0
  C  C991  1  0.983900  0.426800  0.512990  1.0
  C  C992  1  0.983900  0.573200  0.987010  1.0
  C  C993  1  0.563000  0.061900  0.516630  1.0
  C  C994  1  0.563000  0.938100  0.983370  1.0
  C  C995  1  0.063000  0.561900  0.516630  1.0
  C  C996  1  0.063000  0.438100  0.983370  1.0
  C  C997  1  0.437000  0.938100  0.483370  1.0
  C  C998  1  0.437000  0.061900  0.016630  1.0
  C  C999  1  0.937000  0.438100  0.483370  1.0
  C  C1000  1  0.937000  0.561900  0.016630  1.0
  C  C1001  1  0.615800  0.021900  0.504570  1.0
  C  C1002  1  0.615800  0.978100  0.995430  1.0
  C  C1003  1  0.115800  0.521900  0.504570  1.0
  C  C1004  1  0.115800  0.478100  0.995430  1.0
  C  C1005  1  0.384200  0.978100  0.495430  1.0
  C  C1006  1  0.384200  0.021900  0.004570  1.0
  C  C1007  1  0.884200  0.478100  0.495430  1.0
  C  C1008  1  0.884200  0.521900  0.004570  1.0
  C  C1009  1  0.621600  0.993300  0.462890  1.0
  C  C1010  1  0.621600  0.006700  0.037110  1.0
  C  C1011  1  0.121600  0.493300  0.462890  1.0
  C  C1012  1  0.121600  0.506700  0.037110  1.0
  C  C1013  1  0.378400  0.006700  0.537110  1.0
  C  C1014  1  0.378400  0.993300  0.962890  1.0
  C  C1015  1  0.878400  0.506700  0.537110  1.0
  C  C1016  1  0.878400  0.493300  0.962890  1.0
  C  C1017  1  0.574600  0.004600  0.433270  1.0
  C  C1018  1  0.574600  0.995400  0.066730  1.0
  C  C1019  1  0.074600  0.504600  0.433270  1.0
  C  C1020  1  0.074600  0.495400  0.066730  1.0
  C  C1021  1  0.425400  0.995400  0.566730  1.0
  C  C1022  1  0.425400  0.004600  0.933270  1.0
  C  C1023  1  0.925400  0.495400  0.566730  1.0
  C  C1024  1  0.925400  0.504600  0.933270  1.0
  C  C1025  1  0.556800  0.091000  0.559950  1.0
  C  C1026  1  0.556800  0.909000  0.940050  1.0
  C  C1027  1  0.056800  0.591000  0.559950  1.0
  C  C1028  1  0.056800  0.409000  0.940050  1.0
  C  C1029  1  0.443200  0.909000  0.440050  1.0
  C  C1030  1  0.443200  0.091000  0.059950  1.0
  C  C1031  1  0.943200  0.409000  0.440050  1.0
  C  C1032  1  0.943200  0.591000  0.059950  1.0
  C  C1033  1  0.549400  0.116200  0.595600  1.0
  C  C1034  1  0.549400  0.883800  0.904400  1.0
  C  C1035  1  0.049400  0.616200  0.595600  1.0
  C  C1036  1  0.049400  0.383800  0.904400  1.0
  C  C1037  1  0.450600  0.883800  0.404400  1.0
  C  C1038  1  0.450600  0.116200  0.095600  1.0
  C  C1039  1  0.950600  0.383800  0.404400  1.0
  C  C1040  1  0.950600  0.616200  0.095600  1.0
  C  C1041  1  0.546900  0.146170  0.638840  1.0
  C  C1042  1  0.546900  0.853830  0.861160  1.0
  C  C1043  1  0.046900  0.646170  0.638840  1.0
  C  C1044  1  0.046900  0.353830  0.861160  1.0
  C  C1045  1  0.453100  0.853830  0.361160  1.0
  C  C1046  1  0.453100  0.146170  0.138840  1.0
  C  C1047  1  0.953100  0.353830  0.361160  1.0
  C  C1048  1  0.953100  0.646170  0.138840  1.0
  C  C1049  1  0.510100  0.194700  0.650410  1.0
  C  C1050  1  0.510100  0.805300  0.849590  1.0
  C  C1051  1  0.010100  0.694700  0.650410  1.0
  C  C1052  1  0.010100  0.305300  0.849590  1.0
  C  C1053  1  0.489900  0.805300  0.349590  1.0
  C  C1054  1  0.489900  0.194700  0.150410  1.0
  C  C1055  1  0.989900  0.305300  0.349590  1.0
  C  C1056  1  0.989900  0.694700  0.150410  1.0
  C  C1057  1  0.510900  0.224860  0.691830  1.0
  C  C1058  1  0.510900  0.775140  0.808170  1.0
  C  C1059  1  0.010900  0.724860  0.691830  1.0
  C  C1060  1  0.010900  0.275140  0.808170  1.0
  C  C1061  1  0.489100  0.775140  0.308170  1.0
  C  C1062  1  0.489100  0.224860  0.191830  1.0
  C  C1063  1  0.989100  0.275140  0.308170  1.0
  C  C1064  1  0.989100  0.724860  0.191830  1.0
  C  C1065  1  0.548600  0.206420  0.721670  1.0
  C  C1066  1  0.548600  0.793580  0.778330  1.0
  C  C1067  1  0.048600  0.706420  0.721670  1.0
  C  C1068  1  0.048600  0.293580  0.778330  1.0
  C  C1069  1  0.451400  0.793580  0.278330  1.0
  C  C1070  1  0.451400  0.206420  0.221670  1.0
  C  C1071  1  0.951400  0.293580  0.278330  1.0
  C  C1072  1  0.951400  0.706420  0.221670  1.0
  C  C1073  1  0.585400  0.157800  0.710100  1.0
  C  C1074  1  0.585400  0.842200  0.789900  1.0
  C  C1075  1  0.085400  0.657800  0.710100  1.0
  C  C1076  1  0.085400  0.342200  0.789900  1.0
  C  C1077  1  0.414600  0.842200  0.289900  1.0
  C  C1078  1  0.414600  0.157800  0.210100  1.0
  C  C1079  1  0.914600  0.342200  0.289900  1.0
  C  C1080  1  0.914600  0.657800  0.210100  1.0
  C  C1081  1  0.584500  0.127720  0.668680  1.0
  C  C1082  1  0.584500  0.872280  0.831320  1.0
  C  C1083  1  0.084500  0.627720  0.668680  1.0
  C  C1084  1  0.084500  0.372280  0.831320  1.0
  C  C1085  1  0.415500  0.872280  0.331320  1.0
  C  C1086  1  0.415500  0.127720  0.168680  1.0
  C  C1087  1  0.915500  0.372280  0.331320  1.0
  C  C1088  1  0.915500  0.627720  0.168680  1.0
  C  C1089  1  0.471200  0.274500  0.704900  1.0
  C  C1090  1  0.471200  0.725500  0.795100  1.0
  C  C1091  1  0.971200  0.774500  0.704900  1.0
  C  C1092  1  0.971200  0.225500  0.795100  1.0
  C  C1093  1  0.528800  0.725500  0.295100  1.0
  C  C1094  1  0.528800  0.274500  0.204900  1.0
  C  C1095  1  0.028800  0.225500  0.295100  1.0
  C  C1096  1  0.028800  0.774500  0.204900  1.0
  C  C1097  1  0.437000  0.315000  0.716300  1.0
  C  C1098  1  0.437000  0.685000  0.783700  1.0
  C  C1099  1  0.937000  0.815000  0.716300  1.0
  C  C1100  1  0.937000  0.185000  0.783700  1.0
  C  C1101  1  0.563000  0.685000  0.283700  1.0
  C  C1102  1  0.563000  0.315000  0.216300  1.0
  C  C1103  1  0.063000  0.185000  0.283700  1.0
  C  C1104  1  0.063000  0.815000  0.216300  1.0
  C  C1105  1  0.388900  0.360400  0.729490  1.0
  C  C1106  1  0.388900  0.639600  0.770510  1.0
  C  C1107  1  0.888900  0.860400  0.729490  1.0
  C  C1108  1  0.888900  0.139600  0.770510  1.0
  C  C1109  1  0.611100  0.639600  0.270510  1.0
  C  C1110  1  0.611100  0.360400  0.229490  1.0
  C  C1111  1  0.111100  0.139600  0.270510  1.0
  C  C1112  1  0.111100  0.860400  0.229490  1.0
  C  C1113  1  0.334800  0.368440  0.702080  1.0
  C  C1114  1  0.334800  0.631560  0.797920  1.0
  C  C1115  1  0.834800  0.868440  0.702080  1.0
  C  C1116  1  0.834800  0.131560  0.797920  1.0
  C  C1117  1  0.665200  0.631560  0.297920  1.0
  C  C1118  1  0.665200  0.368440  0.202080  1.0
  C  C1119  1  0.165200  0.131560  0.297920  1.0
  C  C1120  1  0.165200  0.868440  0.202080  1.0
  C  C1121  1  0.282300  0.408240  0.715590  1.0
  C  C1122  1  0.282300  0.591760  0.784410  1.0
  C  C1123  1  0.782300  0.908240  0.715590  1.0
  C  C1124  1  0.782300  0.091760  0.784410  1.0
  C  C1125  1  0.717700  0.591760  0.284410  1.0
  C  C1126  1  0.717700  0.408240  0.215590  1.0
  C  C1127  1  0.217700  0.091760  0.284410  1.0
  C  C1128  1  0.217700  0.908240  0.215590  1.0
  C  C1129  1  0.283800  0.439990  0.756510  1.0
  C  C1130  1  0.283800  0.560010  0.743490  1.0
  C  C1131  1  0.783800  0.939990  0.756510  1.0
  C  C1132  1  0.783800  0.060010  0.743490  1.0
  C  C1133  1  0.716200  0.560010  0.243490  1.0
  C  C1134  1  0.716200  0.439990  0.256510  1.0
  C  C1135  1  0.216200  0.060010  0.243490  1.0
  C  C1136  1  0.216200  0.939990  0.256510  1.0
  C  C1137  1  0.337800  0.431960  0.783920  1.0
  C  C1138  1  0.337800  0.568040  0.716080  1.0
  C  C1139  1  0.837800  0.931960  0.783920  1.0
  C  C1140  1  0.837800  0.068040  0.716080  1.0
  C  C1141  1  0.662200  0.568040  0.216080  1.0
  C  C1142  1  0.662200  0.431960  0.283920  1.0
  C  C1143  1  0.162200  0.068040  0.216080  1.0
  C  C1144  1  0.162200  0.931960  0.283920  1.0
  C  C1145  1  0.390400  0.392160  0.770410  1.0
  C  C1146  1  0.390400  0.607840  0.729590  1.0
  C  C1147  1  0.890400  0.892160  0.770410  1.0
  C  C1148  1  0.890400  0.107840  0.729590  1.0
  C  C1149  1  0.609600  0.607840  0.229590  1.0
  C  C1150  1  0.609600  0.392160  0.270410  1.0
  C  C1151  1  0.109600  0.107840  0.229590  1.0
  C  C1152  1  0.109600  0.892160  0.270410  1.0
  C  C1153  1  0.276300  0.084700  0.314000  1.0
  C  C1154  1  0.276300  0.915300  0.186000  1.0
  C  C1155  1  0.776300  0.584700  0.314000  1.0
  C  C1156  1  0.776300  0.415300  0.186000  1.0
  C  C1157  1  0.723700  0.915300  0.686000  1.0
  C  C1158  1  0.723700  0.084700  0.814000  1.0
  C  C1159  1  0.223700  0.415300  0.686000  1.0
  C  C1160  1  0.223700  0.584700  0.814000  1.0
  C  C1161  1  0.626600  0.136800  0.741700  1.0
  C  C1162  1  0.626600  0.863200  0.758300  1.0
  C  C1163  1  0.126600  0.636800  0.741700  1.0
  C  C1164  1  0.126600  0.363200  0.758300  1.0
  C  C1165  1  0.373400  0.863200  0.258300  1.0
  C  C1166  1  0.373400  0.136800  0.241700  1.0
  C  C1167  1  0.873400  0.363200  0.258300  1.0
  C  C1168  1  0.873400  0.636800  0.241700  1.0
  C  C1169  1  0.717000  0.204000  0.762400  1.0
  C  C1170  1  0.717000  0.796000  0.737600  1.0
  C  C1171  1  0.217000  0.704000  0.762400  1.0
  C  C1172  1  0.217000  0.296000  0.737600  1.0
  C  C1173  1  0.283000  0.796000  0.237600  1.0
  C  C1174  1  0.283000  0.204000  0.262400  1.0
  C  C1175  1  0.783000  0.296000  0.237600  1.0
  C  C1176  1  0.783000  0.704000  0.262400  1.0
  C  C1177  1  0.754400  0.250900  0.792100  1.0
  C  C1178  1  0.754400  0.749100  0.707900  1.0
  C  C1179  1  0.254400  0.750900  0.792100  1.0
  C  C1180  1  0.254400  0.249100  0.707900  1.0
  C  C1181  1  0.245600  0.749100  0.207900  1.0
  C  C1182  1  0.245600  0.250900  0.292100  1.0
  C  C1183  1  0.745600  0.249100  0.207900  1.0
  C  C1184  1  0.745600  0.750900  0.292100  1.0
  C  C1185  1  0.718000  0.262300  0.834500  1.0
  C  C1186  1  0.718000  0.737700  0.665500  1.0
  C  C1187  1  0.218000  0.762300  0.834500  1.0
  C  C1188  1  0.218000  0.237700  0.665500  1.0
  C  C1189  1  0.282000  0.737700  0.165500  1.0
  C  C1190  1  0.282000  0.262300  0.334500  1.0
  C  C1191  1  0.782000  0.237700  0.165500  1.0
  C  C1192  1  0.782000  0.762300  0.334500  1.0
  C  C1193  1  0.750400  0.312400  0.863000  1.0
  C  C1194  1  0.750400  0.687600  0.637000  1.0
  C  C1195  1  0.250400  0.812400  0.863000  1.0
  C  C1196  1  0.250400  0.187600  0.637000  1.0
  C  C1197  1  0.249600  0.687600  0.137000  1.0
  C  C1198  1  0.249600  0.312400  0.363000  1.0
  C  C1199  1  0.749600  0.187600  0.137000  1.0
  C  C1200  1  0.749600  0.812400  0.363000  1.0
  C  C1201  1  0.710600  0.325800  0.904400  1.0
  C  C1202  1  0.710600  0.674200  0.595600  1.0
  C  C1203  1  0.210600  0.825800  0.904400  1.0
  C  C1204  1  0.210600  0.174200  0.595600  1.0
  C  C1205  1  0.289400  0.674200  0.095600  1.0
  C  C1206  1  0.289400  0.325800  0.404400  1.0
  C  C1207  1  0.789400  0.174200  0.095600  1.0
  C  C1208  1  0.789400  0.825800  0.404400  1.0
  C  C1209  1  0.746500  0.373500  0.934000  1.0
  C  C1210  1  0.746500  0.626500  0.566000  1.0
  C  C1211  1  0.246500  0.873500  0.934000  1.0
  C  C1212  1  0.246500  0.126500  0.566000  1.0
  C  C1213  1  0.253500  0.626500  0.066000  1.0
  C  C1214  1  0.253500  0.373500  0.434000  1.0
  C  C1215  1  0.753500  0.126500  0.066000  1.0
  C  C1216  1  0.753500  0.873500  0.434000  1.0
  C  C1217  1  0.452500  0.143200  0.345500  1.0
  C  C1218  1  0.452500  0.856800  0.154500  1.0
  C  C1219  1  0.952500  0.643200  0.345500  1.0
  C  C1220  1  0.952500  0.356800  0.154500  1.0
  C  C1221  1  0.547500  0.856800  0.654500  1.0
  C  C1222  1  0.547500  0.143200  0.845500  1.0
  C  C1223  1  0.047500  0.356800  0.654500  1.0
  C  C1224  1  0.047500  0.643200  0.845500  1.0
  C  C1225  1  0.497000  0.185100  0.332500  1.0
  C  C1226  1  0.497000  0.814900  0.167500  1.0
  C  C1227  1  0.997000  0.685100  0.332500  1.0
  C  C1228  1  0.997000  0.314900  0.167500  1.0
  C  C1229  1  0.503000  0.814900  0.667500  1.0
  C  C1230  1  0.503000  0.185100  0.832500  1.0
  C  C1231  1  0.003000  0.314900  0.667500  1.0
  C  C1232  1  0.003000  0.685100  0.832500  1.0
  C  C1233  1  0.489100  0.239100  0.352200  1.0
  C  C1234  1  0.489100  0.760900  0.147800  1.0
  C  C1235  1  0.989100  0.739100  0.352200  1.0
  C  C1236  1  0.989100  0.260900  0.147800  1.0
  C  C1237  1  0.510900  0.760900  0.647800  1.0
  C  C1238  1  0.510900  0.239100  0.852200  1.0
  C  C1239  1  0.010900  0.260900  0.647800  1.0
  C  C1240  1  0.010900  0.739100  0.852200  1.0
  C  C1241  1  0.535200  0.276000  0.341500  1.0
  C  C1242  1  0.535200  0.724000  0.158500  1.0
  C  C1243  1  0.035200  0.776000  0.341500  1.0
  C  C1244  1  0.035200  0.224000  0.158500  1.0
  C  C1245  1  0.464800  0.724000  0.658500  1.0
  C  C1246  1  0.464800  0.276000  0.841500  1.0
  C  C1247  1  0.964800  0.224000  0.658500  1.0
  C  C1248  1  0.964800  0.776000  0.841500  1.0
  C  C1249  1  0.589400  0.259000  0.311200  1.0
  C  C1250  1  0.589400  0.741000  0.188800  1.0
  C  C1251  1  0.089400  0.759000  0.311200  1.0
  C  C1252  1  0.089400  0.241000  0.188800  1.0
  C  C1253  1  0.410600  0.741000  0.688800  1.0
  C  C1254  1  0.410600  0.259000  0.811200  1.0
  C  C1255  1  0.910600  0.241000  0.688800  1.0
  C  C1256  1  0.910600  0.759000  0.811200  1.0
  C  C1257  1  0.597300  0.205000  0.291500  1.0
  C  C1258  1  0.597300  0.795000  0.208500  1.0
  C  C1259  1  0.097300  0.705000  0.291500  1.0
  C  C1260  1  0.097300  0.295000  0.208500  1.0
  C  C1261  1  0.402700  0.795000  0.708500  1.0
  C  C1262  1  0.402700  0.205000  0.791500  1.0
  C  C1263  1  0.902700  0.295000  0.708500  1.0
  C  C1264  1  0.902700  0.705000  0.791500  1.0
  C  C1265  1  0.551100  0.168100  0.302200  1.0
  C  C1266  1  0.551100  0.831900  0.197800  1.0
  C  C1267  1  0.051100  0.668100  0.302200  1.0
  C  C1268  1  0.051100  0.331900  0.197800  1.0
  C  C1269  1  0.448900  0.831900  0.697800  1.0
  C  C1270  1  0.448900  0.168100  0.802200  1.0
  C  C1271  1  0.948900  0.331900  0.697800  1.0
  C  C1272  1  0.948900  0.668100  0.802200  1.0
  C  C1273  1  0.524600  0.331500  0.362800  1.0
  C  C1274  1  0.524600  0.668500  0.137200  1.0
  C  C1275  1  0.024600  0.831500  0.362800  1.0
  C  C1276  1  0.024600  0.168500  0.137200  1.0
  C  C1277  1  0.475400  0.668500  0.637200  1.0
  C  C1278  1  0.475400  0.331500  0.862800  1.0
  C  C1279  1  0.975400  0.168500  0.637200  1.0
  C  C1280  1  0.975400  0.831500  0.862800  1.0
  C  C1281  1  0.515100  0.378000  0.377000  1.0
  C  C1282  1  0.515100  0.622000  0.123000  1.0
  C  C1283  1  0.015100  0.878000  0.377000  1.0
  C  C1284  1  0.015100  0.122000  0.123000  1.0
  C  C1285  1  0.484900  0.622000  0.623000  1.0
  C  C1286  1  0.484900  0.378000  0.877000  1.0
  C  C1287  1  0.984900  0.122000  0.623000  1.0
  C  C1288  1  0.984900  0.878000  0.877000  1.0
  C  C1289  1  0.512400  0.433900  0.398500  1.0
  C  C1290  1  0.512400  0.566100  0.101500  1.0
  C  C1291  1  0.012400  0.933900  0.398500  1.0
  C  C1292  1  0.012400  0.066100  0.101500  1.0
  C  C1293  1  0.487600  0.566100  0.601500  1.0
  C  C1294  1  0.487600  0.433900  0.898500  1.0
  C  C1295  1  0.987600  0.066100  0.601500  1.0
  C  C1296  1  0.987600  0.933900  0.898500  1.0
  C  C1297  1  0.476300  0.452000  0.436600  1.0
  C  C1298  1  0.476300  0.548000  0.063400  1.0
  C  C1299  1  0.976300  0.952000  0.436600  1.0
  C  C1300  1  0.976300  0.048000  0.063400  1.0
  C  C1301  1  0.523700  0.548000  0.563400  1.0
  C  C1302  1  0.523700  0.452000  0.936600  1.0
  C  C1303  1  0.023700  0.048000  0.563400  1.0
  C  C1304  1  0.023700  0.952000  0.936600  1.0
  C  C1305  1  0.474600  0.506100  0.456660  1.0
  C  C1306  1  0.474600  0.493900  0.043340  1.0
  C  C1307  1  0.974600  0.006100  0.456660  1.0
  C  C1308  1  0.974600  0.993900  0.043340  1.0
  C  C1309  1  0.525400  0.493900  0.543340  1.0
  C  C1310  1  0.525400  0.506100  0.956660  1.0
  C  C1311  1  0.025400  0.993900  0.543340  1.0
  C  C1312  1  0.025400  0.006100  0.956660  1.0
  C  C1313  1  0.509000  0.542200  0.438600  1.0
  C  C1314  1  0.509000  0.457800  0.061400  1.0
  C  C1315  1  0.009000  0.042200  0.438600  1.0
  C  C1316  1  0.009000  0.957800  0.061400  1.0
  C  C1317  1  0.491000  0.457800  0.561400  1.0
  C  C1318  1  0.491000  0.542200  0.938600  1.0
  C  C1319  1  0.991000  0.957800  0.561400  1.0
  C  C1320  1  0.991000  0.042200  0.938600  1.0
  C  C1321  1  0.545100  0.524200  0.400500  1.0
  C  C1322  1  0.545100  0.475800  0.099500  1.0
  C  C1323  1  0.045100  0.024200  0.400500  1.0
  C  C1324  1  0.045100  0.975800  0.099500  1.0
  C  C1325  1  0.454900  0.475800  0.599500  1.0
  C  C1326  1  0.454900  0.524200  0.900500  1.0
  C  C1327  1  0.954900  0.975800  0.599500  1.0
  C  C1328  1  0.954900  0.024200  0.900500  1.0
  C  C1329  1  0.546800  0.470000  0.380440  1.0
  C  C1330  1  0.546800  0.530000  0.119560  1.0
  C  C1331  1  0.046800  0.970000  0.380440  1.0
  C  C1332  1  0.046800  0.030000  0.119560  1.0
  C  C1333  1  0.453200  0.530000  0.619560  1.0
  C  C1334  1  0.453200  0.470000  0.880440  1.0
  C  C1335  1  0.953200  0.030000  0.619560  1.0
  C  C1336  1  0.953200  0.970000  0.880440  1.0
  C  C1337  1  0.437400  0.525200  0.496200  1.0
  C  C1338  1  0.437400  0.474800  0.003800  1.0
  C  C1339  1  0.937400  0.025200  0.496200  1.0
  C  C1340  1  0.937400  0.974800  0.003800  1.0
  C  C1341  1  0.562600  0.474800  0.503800  1.0
  C  C1342  1  0.562600  0.525200  0.996200  1.0
  C  C1343  1  0.062600  0.974800  0.503800  1.0
  C  C1344  1  0.062600  0.025200  0.996200  1.0
  C  C1345  1  0.402000  0.538200  0.527500  1.0
  C  C1346  1  0.402000  0.461800  0.972500  1.0
  C  C1347  1  0.902000  0.038200  0.527500  1.0
  C  C1348  1  0.902000  0.961800  0.972500  1.0
  C  C1349  1  0.598000  0.461800  0.472500  1.0
  C  C1350  1  0.598000  0.538200  0.027500  1.0
  C  C1351  1  0.098000  0.961800  0.472500  1.0
  C  C1352  1  0.098000  0.038200  0.027500  1.0
  C  C1353  1  0.354400  0.555200  0.563340  1.0
  C  C1354  1  0.354400  0.444800  0.936660  1.0
  C  C1355  1  0.854400  0.055200  0.563340  1.0
  C  C1356  1  0.854400  0.944800  0.936660  1.0
  C  C1357  1  0.645600  0.444800  0.436660  1.0
  C  C1358  1  0.645600  0.555200  0.063340  1.0
  C  C1359  1  0.145600  0.944800  0.436660  1.0
  C  C1360  1  0.145600  0.055200  0.063340  1.0
  C  C1361  1  0.303800  0.519100  0.571500  1.0
  C  C1362  1  0.303800  0.480900  0.928500  1.0
  C  C1363  1  0.803800  0.019100  0.571500  1.0
  C  C1364  1  0.803800  0.980900  0.928500  1.0
  C  C1365  1  0.696200  0.480900  0.428500  1.0
  C  C1366  1  0.696200  0.519100  0.071500  1.0
  C  C1367  1  0.196200  0.980900  0.428500  1.0
  C  C1368  1  0.196200  0.019100  0.071500  1.0
  C  C1369  1  0.257200  0.534400  0.605900  1.0
  C  C1370  1  0.257200  0.465600  0.894100  1.0
  C  C1371  1  0.757200  0.034400  0.605900  1.0
  C  C1372  1  0.757200  0.965600  0.894100  1.0
  C  C1373  1  0.742800  0.465600  0.394100  1.0
  C  C1374  1  0.742800  0.534400  0.105900  1.0
  C  C1375  1  0.242800  0.965600  0.394100  1.0
  C  C1376  1  0.242800  0.034400  0.105900  1.0
  C  C1377  1  0.261200  0.585800  0.632100  1.0
  C  C1378  1  0.261200  0.414200  0.867900  1.0
  C  C1379  1  0.761200  0.085800  0.632100  1.0
  C  C1380  1  0.761200  0.914200  0.867900  1.0
  C  C1381  1  0.738800  0.414200  0.367900  1.0
  C  C1382  1  0.738800  0.585800  0.132100  1.0
  C  C1383  1  0.238800  0.914200  0.367900  1.0
  C  C1384  1  0.238800  0.085800  0.132100  1.0
  C  C1385  1  0.311800  0.621900  0.624000  1.0
  C  C1386  1  0.311800  0.378100  0.876000  1.0
  C  C1387  1  0.811800  0.121900  0.624000  1.0
  C  C1388  1  0.811800  0.878100  0.876000  1.0
  C  C1389  1  0.688200  0.378100  0.376000  1.0
  C  C1390  1  0.688200  0.621900  0.124000  1.0
  C  C1391  1  0.188200  0.878100  0.376000  1.0
  C  C1392  1  0.188200  0.121900  0.124000  1.0
  C  C1393  1  0.358400  0.606600  0.589600  1.0
  C  C1394  1  0.358400  0.393400  0.910400  1.0
  C  C1395  1  0.858400  0.106600  0.589600  1.0
  C  C1396  1  0.858400  0.893400  0.910400  1.0
  C  C1397  1  0.641600  0.393400  0.410400  1.0
  C  C1398  1  0.641600  0.606600  0.089600  1.0
  C  C1399  1  0.141600  0.893400  0.410400  1.0
  C  C1400  1  0.141600  0.106600  0.089600  1.0
  C  C1401  1  0.299000  0.002600  0.383300  1.0
  C  C1402  1  0.299000  0.997400  0.116700  1.0
  C  C1403  1  0.799000  0.502600  0.383300  1.0
  C  C1404  1  0.799000  0.497400  0.116700  1.0
  C  C1405  1  0.701000  0.997400  0.616700  1.0
  C  C1406  1  0.701000  0.002600  0.883300  1.0
  C  C1407  1  0.201000  0.497400  0.616700  1.0
  C  C1408  1  0.201000  0.502600  0.883300  1.0
  C  C1409  1  0.583800  0.560500  0.378600  1.0
  C  C1410  1  0.583800  0.439500  0.121400  1.0
  C  C1411  1  0.083800  0.060500  0.378600  1.0
  C  C1412  1  0.083800  0.939500  0.121400  1.0
  C  C1413  1  0.416200  0.439500  0.621400  1.0
  C  C1414  1  0.416200  0.560500  0.878600  1.0
  C  C1415  1  0.916200  0.939500  0.621400  1.0
  C  C1416  1  0.916200  0.060500  0.878600  1.0
  C  C1417  1  0.485500  0.587100  0.339800  1.0
  C  C1418  1  0.485500  0.412900  0.160200  1.0
  C  C1419  1  0.985500  0.087100  0.339800  1.0
  C  C1420  1  0.985500  0.912900  0.160200  1.0
  C  C1421  1  0.514500  0.412900  0.660200  1.0
  C  C1422  1  0.514500  0.587100  0.839800  1.0
  C  C1423  1  0.014500  0.912900  0.660200  1.0
  C  C1424  1  0.014500  0.087100  0.839800  1.0
  C  C1425  1  0.441200  0.577300  0.300200  1.0
  C  C1426  1  0.441200  0.422700  0.199800  1.0
  C  C1427  1  0.941200  0.077300  0.300200  1.0
  C  C1428  1  0.941200  0.922700  0.199800  1.0
  C  C1429  1  0.558800  0.422700  0.699800  1.0
  C  C1430  1  0.558800  0.577300  0.800200  1.0
  C  C1431  1  0.058800  0.922700  0.699800  1.0
  C  C1432  1  0.058800  0.077300  0.800200  1.0
  C  C1433  1  0.429100  0.628800  0.288600  1.0
  C  C1434  1  0.429100  0.371200  0.211400  1.0
  C  C1435  1  0.929100  0.128800  0.288600  1.0
  C  C1436  1  0.929100  0.871200  0.211400  1.0
  C  C1437  1  0.570900  0.371200  0.711400  1.0
  C  C1438  1  0.570900  0.628800  0.788600  1.0
  C  C1439  1  0.070900  0.871200  0.711400  1.0
  C  C1440  1  0.070900  0.128800  0.788600  1.0
  C  C1441  1  0.360300  0.624700  0.262200  1.0
  C  C1442  1  0.360300  0.375300  0.237800  1.0
  C  C1443  1  0.860300  0.124700  0.262200  1.0
  C  C1444  1  0.860300  0.875300  0.237800  1.0
  C  C1445  1  0.639700  0.375300  0.737800  1.0
  C  C1446  1  0.639700  0.624700  0.762200  1.0
  C  C1447  1  0.139700  0.875300  0.737800  1.0
  C  C1448  1  0.139700  0.124700  0.762200  1.0
  C  C1449  1  0.381400  0.619700  0.217300  1.0
  C  C1450  1  0.381400  0.380300  0.282700  1.0
  C  C1451  1  0.881400  0.119700  0.217300  1.0
  C  C1452  1  0.881400  0.880300  0.282700  1.0
  C  C1453  1  0.618600  0.380300  0.782700  1.0
  C  C1454  1  0.618600  0.619700  0.717300  1.0
  C  C1455  1  0.118600  0.880300  0.782700  1.0
  C  C1456  1  0.118600  0.119700  0.717300  1.0
  C  C1457  1  0.325000  0.648000  0.197400  1.0
  C  C1458  1  0.325000  0.352000  0.302600  1.0
  C  C1459  1  0.825000  0.148000  0.197400  1.0
  C  C1460  1  0.825000  0.852000  0.302600  1.0
  C  C1461  1  0.675000  0.352000  0.802600  1.0
  C  C1462  1  0.675000  0.648000  0.697400  1.0
  C  C1463  1  0.175000  0.852000  0.802600  1.0
  C  C1464  1  0.175000  0.148000  0.697400  1.0
  O  O1465  1  0.657400  0.179200  0.774600  1
  O  O1466  1  0.657400  0.820800  0.725400  1
  O  O1467  1  0.157400  0.679200  0.774600  1
  O  O1468  1  0.157400  0.320800  0.725400  1
  O  O1469  1  0.342600  0.820800  0.225400  1
  O  O1470  1  0.342600  0.179200  0.274600  1
  O  O1471  1  0.842600  0.320800  0.225400  1
  O  O1472  1  0.842600  0.679200  0.274600  1
  O  O1473  1  0.740500  0.199100  0.736400  1
  O  O1474  1  0.740500  0.800900  0.763600  1
  O  O1475  1  0.240500  0.699100  0.736400  1
  O  O1476  1  0.240500  0.300900  0.763600  1
  O  O1477  1  0.259500  0.800900  0.263600  1
  O  O1478  1  0.259500  0.199100  0.236400  1
  O  O1479  1  0.759500  0.300900  0.263600  1
  O  O1480  1  0.759500  0.699100  0.236400  1
  O  O1481  1  0.363300  0.569900  0.317200  1
  O  O1482  1  0.363300  0.430100  0.182800  1
  O  O1483  1  0.863300  0.069900  0.317200  1
  O  O1484  1  0.863300  0.930100  0.182800  1
  O  O1485  1  0.636700  0.430100  0.682800  1
  O  O1486  1  0.636700  0.569900  0.817200  1
  O  O1487  1  0.136700  0.930100  0.682800  1
  O  O1488  1  0.136700  0.069900  0.817200  1
  O  O1489  1  0.305300  0.581800  0.263800  1
  O  O1490  1  0.305300  0.418200  0.236200  1
  O  O1491  1  0.805300  0.081800  0.263800  1
  O  O1492  1  0.805300  0.918200  0.236200  1
  O  O1493  1  0.694700  0.418200  0.736200  1
  O  O1494  1  0.694700  0.581800  0.763800  1
  O  O1495  1  0.194700  0.918200  0.736200  1
  O  O1496  1  0.194700  0.081800  0.763800  1
  O  O1497  1  0.426100  0.096100  0.427420  1.0
  O  O1498  1  0.426100  0.903900  0.072580  1.0
  O  O1499  1  0.926100  0.596100  0.427420  1.0
  O  O1500  1  0.926100  0.403900  0.072580  1.0
  O  O1501  1  0.573900  0.903900  0.572580  1.0
  O  O1502  1  0.573900  0.096100  0.927420  1.0
  O  O1503  1  0.073900  0.403900  0.572580  1.0
  O  O1504  1  0.073900  0.596100  0.927420  1.0
  O  O1505  1  0.468700  0.025410  0.378060  1.0
  O  O1506  1  0.468700  0.974590  0.121940  1.0
  O  O1507  1  0.968700  0.525410  0.378060  1.0
  O  O1508  1  0.968700  0.474590  0.121940  1.0
  O  O1509  1  0.531300  0.974590  0.621940  1.0
  O  O1510  1  0.531300  0.025410  0.878060  1.0
  O  O1511  1  0.031300  0.474590  0.621940  1.0
  O  O1512  1  0.031300  0.525410  0.878060  1.0
  O  O1513  1  0.269400  0.111090  0.351490  1.0
  O  O1514  1  0.269400  0.888910  0.148510  1.0
  O  O1515  1  0.769400  0.611090  0.351490  1.0
  O  O1516  1  0.769400  0.388910  0.148510  1.0
  O  O1517  1  0.730600  0.888910  0.648510  1.0
  O  O1518  1  0.730600  0.111090  0.851490  1.0
  O  O1519  1  0.230600  0.388910  0.648510  1.0
  O  O1520  1  0.230600  0.611090  0.851490  1.0
  O  O1521  1  0.328000  0.052450  0.299090  1.0
  O  O1522  1  0.328000  0.947550  0.200910  1.0
  O  O1523  1  0.828000  0.552450  0.299090  1.0
  O  O1524  1  0.828000  0.447550  0.200910  1.0
  O  O1525  1  0.672000  0.947550  0.700910  1.0
  O  O1526  1  0.672000  0.052450  0.799090  1.0
  O  O1527  1  0.172000  0.447550  0.700910  1.0
  O  O1528  1  0.172000  0.552450  0.799090  1.0
  O  O1529  1  0.404800  0.160080  0.373960  1.0
  O  O1530  1  0.404800  0.839920  0.126040  1.0
  O  O1531  1  0.904800  0.660080  0.373960  1.0
  O  O1532  1  0.904800  0.339920  0.126040  1.0
  O  O1533  1  0.595200  0.839920  0.626040  1.0
  O  O1534  1  0.595200  0.160080  0.873960  1.0
  O  O1535  1  0.095200  0.339920  0.626040  1.0
  O  O1536  1  0.095200  0.660080  0.873960  1.0
  O  O1537  1  0.463800  0.094000  0.327250  1.0
  O  O1538  1  0.463800  0.906000  0.172750  1.0
  O  O1539  1  0.963800  0.594000  0.327250  1.0
  O  O1540  1  0.963800  0.406000  0.172750  1.0
  O  O1541  1  0.536200  0.906000  0.672750  1.0
  O  O1542  1  0.536200  0.094000  0.827250  1.0
  O  O1543  1  0.036200  0.406000  0.672750  1.0
  O  O1544  1  0.036200  0.594000  0.827250  1.0
  O  O1545  1  0.289300  0.052530  0.408500  1.0
  O  O1546  1  0.289300  0.947470  0.091500  1.0
  O  O1547  1  0.789300  0.552530  0.408500  1.0
  O  O1548  1  0.789300  0.447470  0.091500  1.0
  O  O1549  1  0.710700  0.947470  0.591500  1.0
  O  O1550  1  0.710700  0.052530  0.908500  1.0
  O  O1551  1  0.210700  0.447470  0.591500  1.0
  O  O1552  1  0.210700  0.552530  0.908500  1.0
  O  O1553  1  0.329200  0.989430  0.352250  1.0
  O  O1554  1  0.329200  0.010570  0.147750  1.0
  O  O1555  1  0.829200  0.489430  0.352250  1.0
  O  O1556  1  0.829200  0.510570  0.147750  1.0
  O  O1557  1  0.670800  0.010570  0.647750  1.0
  O  O1558  1  0.670800  0.989430  0.852250  1.0
  O  O1559  1  0.170800  0.510570  0.647750  1.0
  O  O1560  1  0.170800  0.489430  0.852250  1.0
  O  O1561  1  0.291800  0.171500  0.443920  1.0
  O  O1562  1  0.291800  0.828500  0.056080  1.0
  O  O1563  1  0.791800  0.671500  0.443920  1.0
  O  O1564  1  0.791800  0.328500  0.056080  1.0
  O  O1565  1  0.708200  0.828500  0.556080  1.0
  O  O1566  1  0.708200  0.171500  0.943920  1.0
  O  O1567  1  0.208200  0.328500  0.556080  1.0
  O  O1568  1  0.208200  0.671500  0.943920  1.0
  O  O1569  1  0.457400  0.976900  0.285250  1.0
  O  O1570  1  0.457400  0.023100  0.214750  1.0
  O  O1571  1  0.957400  0.476900  0.285250  1.0
  O  O1572  1  0.957400  0.523100  0.214750  1.0
  O  O1573  1  0.542600  0.023100  0.714750  1.0
  O  O1574  1  0.542600  0.976900  0.785250  1.0
  O  O1575  1  0.042600  0.523100  0.714750  1.0
  O  O1576  1  0.042600  0.476900  0.785250  1.0
  O  O1577  1  0.658200  0.179500  0.774100  1.0
  O  O1578  1  0.658200  0.820500  0.725900  1.0
  O  O1579  1  0.158200  0.679500  0.774100  1.0
  O  O1580  1  0.158200  0.320500  0.725900  1.0
  O  O1581  1  0.341800  0.820500  0.225900  1.0
  O  O1582  1  0.341800  0.179500  0.274100  1.0
  O  O1583  1  0.841800  0.320500  0.225900  1.0
  O  O1584  1  0.841800  0.679500  0.274100  1.0
  O  O1585  1  0.741300  0.191500  0.727100  1.0
  O  O1586  1  0.741300  0.808500  0.772900  1.0
  O  O1587  1  0.241300  0.691500  0.727100  1.0
  O  O1588  1  0.241300  0.308500  0.772900  1.0
  O  O1589  1  0.258700  0.808500  0.272900  1.0
  O  O1590  1  0.258700  0.191500  0.227100  1.0
  O  O1591  1  0.758700  0.308500  0.272900  1.0
  O  O1592  1  0.758700  0.691500  0.227100  1.0
  O  O1593  1  0.546900  0.557800  0.339600  1.0
  O  O1594  1  0.546900  0.442200  0.160400  1.0
  O  O1595  1  0.046900  0.057800  0.339600  1.0
  O  O1596  1  0.046900  0.942200  0.160400  1.0
  O  O1597  1  0.453100  0.442200  0.660400  1.0
  O  O1598  1  0.453100  0.557800  0.839600  1.0
  O  O1599  1  0.953100  0.942200  0.660400  1.0
  O  O1600  1  0.953100  0.057800  0.839600  1.0
  O  O1601  1  0.470700  0.619400  0.372100  1.0
  O  O1602  1  0.470700  0.380600  0.127900  1.0
  O  O1603  1  0.970700  0.119400  0.372100  1.0
  O  O1604  1  0.970700  0.880600  0.127900  1.0
  O  O1605  1  0.529300  0.380600  0.627900  1.0
  O  O1606  1  0.529300  0.619400  0.872100  1.0
  O  O1607  1  0.029300  0.880600  0.627900  1.0
  O  O1608  1  0.029300  0.119400  0.872100  1.0
