
#######################################################################
#
#                 Cambridge Crystallographic Data Centre
#                                CCDC 
#
#######################################################################
#
# If this CIF has been generated from an entry in the Cambridge 
# Structural Database, then it will include bibliographic, chemical, 
# crystal, experimental, refinement or atomic coordinate data resulting 
# from the CCDC's data processing and validation procedures.
#
#######################################################################

data_EQEVIG
_chemical_formula_moiety         'C104 H72 Cu4 O24 S2'
_chemical_name_systematic        
"tetrakis(\m~4~-3,3'-((5-(hydroxymethyl)-1,3-phenylene)diethyne-2,1-diyl)dibenzoato)-diaqua-bis(dimethylsulfoxide)-tetra-copper unknown solvate"
_symmetry_cell_setting           tetragonal
_symmetry_space_group_name_H-M   'I 4/m'
_symmetry_Int_Tables_number      87
_space_group_name_Hall           '-I 4'
loop_
_symmetry_equiv_pos_site_id
_symmetry_equiv_pos_as_xyz
1 x,y,z
2 -y,x,z
3 -x,-y,z
4 y,-x,z
5 1/2+x,1/2+y,1/2+z
6 1/2-y,1/2+x,1/2+z
7 1/2-x,1/2-y,1/2+z
8 1/2+y,1/2-x,1/2+z
9 -x,-y,-z
10 y,-x,-z
11 x,y,-z
12 -y,x,-z
13 1/2-x,1/2-y,1/2-z
14 1/2+y,1/2-x,1/2-z
15 1/2+x,1/2+y,1/2-z
16 1/2-y,1/2+x,1/2-z
_cell_length_a                   25.160(3)
_cell_length_b                   25.160(3)
_cell_length_c                   25.726(3)
_cell_angle_alpha                90
_cell_angle_beta                 90
_cell_angle_gamma                90
_cell_volume                     16285.2
_exptl_crystal_colour            blue
_exptl_crystal_description       needle
_cell_formula_units_Z            4
loop_
_atom_site_label
_atom_site_type_symbol
_atom_site_fract_x
_atom_site_fract_y
_atom_site_fract_z
Cu1 Cu 0.77815(3) -0.09097(3) 0.5000
Cu2 Cu 0.67599(3) -0.06921(3) 0.5000
S1 S 0.89367(9) -0.12963(10) 0.47124(12)
O1 O 0.76317(12) -0.14458(11) 0.44684(14)
O2 O 0.67701(12) -0.12359(12) 0.44696(15)
O3 O 0.42977(12) -0.36070(13) 0.19129(16)
H1 H 0.4242 -0.3800 0.1652
O4 O 0.69261(13) -0.01628(12) 0.44772(15)
O5 O 0.77802(13) -0.03585(12) 0.44620(15)
O6 O 0.59247(18) -0.0619(2) 0.5000
H2 H 0.5811 -0.0472 0.5276
O7 O 0.86133(18) -0.09662(19) 0.5000
C1 C 0.7164(2) -0.15040(19) 0.4308(2)
C2 C 0.70673(18) -0.18965(18) 0.3907(2)
C3 C 0.74629(19) -0.22219(19) 0.3704(2)
H3 H 0.7819 -0.2188 0.3822
C4 C 0.7332(2) -0.2607(2) 0.3319(3)
H4 H 0.7603 -0.2836 0.3193
C5 C 0.68381(19) -0.2656(2) 0.3127(2)
H5 H 0.6766 -0.2906 0.2859
C6 C 0.64261(19) -0.2334(2) 0.3327(2)
C7 C 0.65481(18) -0.19478(19) 0.3701(2)
H6 H 0.6276 -0.1715 0.3818
C8 C 0.5891(2) -0.2347(2) 0.3109(3)
C9 C 0.5436(2) -0.2337(2) 0.2981(3)
C10 C 0.49085(19) -0.2334(2) 0.2784(3)
C11 C 0.4746(2) -0.2700(2) 0.2424(3)
H7 H 0.4993 -0.2956 0.2300
C12 C 0.42347(19) -0.2706(2) 0.2239(2)
C13 C 0.38727(19) -0.2330(2) 0.2430(3)
H8 H 0.3521 -0.2326 0.2296
C14 C 0.40101(19) -0.1979(2) 0.2794(3)
C15 C 0.4534(2) -0.1968(2) 0.2981(2)
H9 H 0.4635 -0.1717 0.3238
C16 C 0.40756(19) -0.3098(2) 0.1824(2)
H10 H 0.4195 -0.2965 0.1481
H11 H 0.3683 -0.3128 0.1816
C17 C 0.3621(2) -0.1621(2) 0.3017(3)
C18 C 0.3289(2) -0.1335(2) 0.3172(3)
C19 C 0.28345(19) -0.10168(19) 0.3377(2)
C20 C 0.2316(2) -0.11217(19) 0.3201(3)
H12 H 0.2250 -0.1400 0.2960
C21 C 0.1915(2) -0.0821(2) 0.3379(3)
H13 H 0.1565 -0.0888 0.3258
C22 C 0.19948(19) -0.04233(19) 0.3729(3)
H14 H 0.1703 -0.0218 0.3849
C23 C 0.25087(19) -0.03189(18) 0.3909(2)
C24 C 0.29334(19) -0.06117(18) 0.3731(2)
H15 H 0.3284 -0.0539 0.3848
C25 C 0.7389(2) -0.01068(19) 0.4305(2)
C26 C 0.8854(3) -0.1961(3) 0.5000
C27 C 0.9612(3) -0.1196(3) 0.5000
Cu1B Cu 0.22185(3) 0.09097(3) 0.5000
Cu2B Cu 0.32401(3) 0.06921(3) 0.5000
S1J S 0.89367(9) -0.12963(10) 0.52876(12)
S1H S 0.10633(9) 0.12963(10) 0.52876(12)
S1B S 0.10633(9) 0.12963(10) 0.47124(12)
O1J O 0.76317(12) -0.14458(11) 0.55316(14)
O1H O 0.23683(12) 0.14458(11) 0.55316(14)
O1B O 0.23683(12) 0.14458(11) 0.44684(14)
O2J O 0.67701(12) -0.12359(12) 0.55304(15)
O2B O 0.32299(12) 0.12359(12) 0.44696(15)
O2H O 0.32299(12) 0.12359(12) 0.55304(15)
O3J O 0.42977(12) -0.36070(13) 0.80871(16)
O3B O 0.57023(12) 0.36070(13) 0.19129(16)
O3H O 0.57023(12) 0.36070(13) 0.80871(16)
H1J H 0.4242 -0.3800 0.8348
H1B H 0.5758 0.3800 0.1652
H1H H 0.5758 0.3800 0.8348
O4J O 0.69261(13) -0.01628(12) 0.55228(15)
O4B O 0.30739(13) 0.01628(12) 0.44772(15)
O4H O 0.30739(13) 0.01628(12) 0.55228(15)
O5J O 0.77802(13) -0.03585(12) 0.55380(15)
O5B O 0.22198(13) 0.03585(12) 0.44620(15)
O5H O 0.22198(13) 0.03585(12) 0.55380(15)
O6B O 0.40753(18) 0.0619(2) 0.5000
H2B H 0.4189 0.0472 0.5276
H2H H 0.4189 0.0472 0.4724
H2J H 0.5811 -0.0472 0.4724
O7B O 0.13867(18) 0.09662(19) 0.5000
C1J C 0.7164(2) -0.15040(19) 0.5692(2)
C1H C 0.2836(2) 0.15040(19) 0.5692(2)
C1B C 0.2836(2) 0.15040(19) 0.4308(2)
C2H C 0.29327(18) 0.18965(18) 0.6093(2)
C2J C 0.70673(18) -0.18965(18) 0.6093(2)
C2B C 0.29327(18) 0.18965(18) 0.3907(2)
C3H C 0.25371(19) 0.22219(19) 0.6296(2)
C3J C 0.74629(19) -0.22219(19) 0.6296(2)
C3B C 0.25371(19) 0.22219(19) 0.3704(2)
H3J H 0.7819 -0.2188 0.6178
H3B H 0.2181 0.2188 0.3822
H3H H 0.2181 0.2188 0.6178
C4H C 0.2668(2) 0.2607(2) 0.6681(3)
C4J C 0.7332(2) -0.2607(2) 0.6681(3)
C4B C 0.2668(2) 0.2607(2) 0.3319(3)
H4J H 0.7603 -0.2836 0.6807
H4B H 0.2397 0.2836 0.3193
H4H H 0.2397 0.2836 0.6807
C5H C 0.31619(19) 0.2656(2) 0.6873(2)
C5J C 0.68381(19) -0.2656(2) 0.6873(2)
C5B C 0.31619(19) 0.2656(2) 0.3127(2)
H5J H 0.6766 -0.2906 0.7141
H5B H 0.3234 0.2906 0.2859
H5H H 0.3234 0.2906 0.7141
C6H C 0.35739(19) 0.2334(2) 0.6673(2)
C6J C 0.64261(19) -0.2334(2) 0.6673(2)
C6B C 0.35739(19) 0.2334(2) 0.3327(2)
C7J C 0.65481(18) -0.19478(19) 0.6299(2)
C7B C 0.34519(18) 0.19478(19) 0.3701(2)
C7H C 0.34519(18) 0.19478(19) 0.6299(2)
H6J H 0.6276 -0.1715 0.6182
H6B H 0.3724 0.1715 0.3818
H6H H 0.3724 0.1715 0.6182
C8H C 0.4109(2) 0.2347(2) 0.6891(3)
C8J C 0.5891(2) -0.2347(2) 0.6891(3)
C8B C 0.4109(2) 0.2347(2) 0.3109(3)
C9H C 0.4564(2) 0.2337(2) 0.7019(3)
C9J C 0.5436(2) -0.2337(2) 0.7019(3)
C9B C 0.4564(2) 0.2337(2) 0.2981(3)
C10H C 0.50915(19) 0.2334(2) 0.7216(3)
C10J C 0.49085(19) -0.2334(2) 0.7216(3)
C10B C 0.50915(19) 0.2334(2) 0.2784(3)
C11H C 0.5254(2) 0.2700(2) 0.7576(3)
C11J C 0.4746(2) -0.2700(2) 0.7576(3)
C11B C 0.5254(2) 0.2700(2) 0.2424(3)
H7J H 0.4993 -0.2956 0.7700
H7B H 0.5007 0.2956 0.2300
H7H H 0.5007 0.2956 0.7700
C12H C 0.57653(19) 0.2706(2) 0.7761(2)
C12J C 0.42347(19) -0.2706(2) 0.7761(2)
C12B C 0.57653(19) 0.2706(2) 0.2239(2)
C13H C 0.61273(19) 0.2330(2) 0.7570(3)
C13J C 0.38727(19) -0.2330(2) 0.7570(3)
C13B C 0.61273(19) 0.2330(2) 0.2430(3)
H8J H 0.3521 -0.2326 0.7704
H8B H 0.6479 0.2326 0.2296
H8H H 0.6479 0.2326 0.7704
C14H C 0.59899(19) 0.1979(2) 0.7206(3)
C14J C 0.40101(19) -0.1979(2) 0.7206(3)
C14B C 0.59899(19) 0.1979(2) 0.2794(3)
C15J C 0.4534(2) -0.1968(2) 0.7019(2)
C15B C 0.5466(2) 0.1968(2) 0.2981(2)
C15H C 0.5466(2) 0.1968(2) 0.7019(2)
H9J H 0.4635 -0.1717 0.6762
H9B H 0.5365 0.1717 0.3238
H9H H 0.5365 0.1717 0.6762
C16J C 0.40756(19) -0.3098(2) 0.8176(2)
C16B C 0.59244(19) 0.3098(2) 0.1824(2)
C16H C 0.59244(19) 0.3098(2) 0.8176(2)
H10J H 0.4195 -0.2965 0.8519
H10B H 0.5805 0.2965 0.1481
H10H H 0.5805 0.2965 0.8519
H11J H 0.3683 -0.3128 0.8184
H11B H 0.6317 0.3128 0.1816
H11H H 0.6317 0.3128 0.8184
C17H C 0.6379(2) 0.1621(2) 0.6983(3)
C17J C 0.3621(2) -0.1621(2) 0.6983(3)
C17B C 0.6379(2) 0.1621(2) 0.3017(3)
C18H C 0.6711(2) 0.1335(2) 0.6828(3)
C18J C 0.3289(2) -0.1335(2) 0.6828(3)
C18B C 0.6711(2) 0.1335(2) 0.3172(3)
C19H C 0.71655(19) 0.10168(19) 0.6623(2)
C19J C 0.28345(19) -0.10168(19) 0.6623(2)
C19B C 0.71655(19) 0.10168(19) 0.3377(2)
C20H C 0.7684(2) 0.11217(19) 0.6799(3)
C20J C 0.2316(2) -0.11217(19) 0.6799(3)
C20B C 0.7684(2) 0.11217(19) 0.3201(3)
H12J H 0.2250 -0.1400 0.7040
H12B H 0.7750 0.1400 0.2960
H12H H 0.7750 0.1400 0.7040
C21H C 0.8085(2) 0.0821(2) 0.6621(3)
C21J C 0.1915(2) -0.0821(2) 0.6621(3)
C21B C 0.8085(2) 0.0821(2) 0.3379(3)
H13J H 0.1565 -0.0888 0.6742
H13B H 0.8435 0.0888 0.3258
H13H H 0.8435 0.0888 0.6742
C22H C 0.80052(19) 0.04233(19) 0.6271(3)
C22J C 0.19948(19) -0.04233(19) 0.6271(3)
C22B C 0.80052(19) 0.04233(19) 0.3729(3)
H14J H 0.1703 -0.0218 0.6151
H14B H 0.8297 0.0218 0.3849
H14H H 0.8297 0.0218 0.6151
C23H C 0.74913(19) 0.03189(18) 0.6091(2)
C23J C 0.25087(19) -0.03189(18) 0.6091(2)
C23B C 0.74913(19) 0.03189(18) 0.3909(2)
C24J C 0.29334(19) -0.06117(18) 0.6269(2)
C24B C 0.70666(19) 0.06117(18) 0.3731(2)
C24H C 0.70666(19) 0.06117(18) 0.6269(2)
H15J H 0.3284 -0.0539 0.6152
H15B H 0.6716 0.0539 0.3848
H15H H 0.6716 0.0539 0.6152
C25J C 0.7389(2) -0.01068(19) 0.5695(2)
C25B C 0.2611(2) 0.01068(19) 0.4305(2)
C25H C 0.2611(2) 0.01068(19) 0.5695(2)
C26B C 0.1146(3) 0.1961(3) 0.5000
C27B C 0.0388(3) 0.1196(3) 0.5000
loop_
_geom_bond_atom_site_label_1
_geom_bond_atom_site_label_2
_geom_bond_site_symmetry_1
_geom_bond_site_symmetry_2
Cu1 O1 1_555 1_555
Cu2 O2 1_555 1_555
S1 O7 1_555 1_555
O1 C1 1_555 1_555
O2 C1 1_555 1_555
O3 H1 1_555 1_555
O4 Cu2 1_555 1_555
O5 Cu1 1_555 1_555
O6 Cu2 1_555 1_555
H2 O6 1_555 1_555
O7 Cu1 1_555 1_555
C1 C2 1_555 1_555
C2 C3 1_555 1_555
C3 H3 1_555 1_555
C4 C3 1_555 1_555
H4 C4 1_555 1_555
C5 C4 1_555 1_555
H5 C5 1_555 1_555
C6 C5 1_555 1_555
C7 C2 1_555 1_555
H6 C7 1_555 1_555
C8 C6 1_555 1_555
C9 C8 1_555 1_555
C10 C9 1_555 1_555
C11 C10 1_555 1_555
H7 C11 1_555 1_555
C12 C11 1_555 1_555
C13 C12 1_555 1_555
H8 C13 1_555 1_555
C14 C13 1_555 1_555
C15 C10 1_555 1_555
H9 C15 1_555 1_555
C16 O3 1_555 1_555
H10 C16 1_555 1_555
H11 C16 1_555 1_555
C17 C14 1_555 1_555
C18 C17 1_555 1_555
C19 C18 1_555 1_555
C20 C19 1_555 1_555
H12 C20 1_555 1_555
C21 C20 1_555 1_555
H13 C21 1_555 1_555
C22 C21 1_555 1_555
H14 C22 1_555 1_555
C23 C22 1_555 1_555
C24 C19 1_555 1_555
H15 C24 1_555 1_555
C25 O4 1_555 1_555
C26 S1 1_555 1_555
C27 S1 1_555 1_555
Cu1B O1H 1_555 1_555
Cu2B O2B 1_555 1_555
S1J S1 1_555 1_555
S1H S1B 1_555 1_555
S1B O7B 1_555 1_555
O1J Cu1 1_555 1_555
O1H C1H 1_555 1_555
O1B Cu1B 1_555 1_555
O2J Cu2 1_555 1_555
O2B C1B 1_555 1_555
O2H Cu2B 1_555 1_555
O3J H1J 1_555 1_555
O3B H1B 1_555 1_555
O3H H1H 1_555 1_555
O4J Cu2 1_555 1_555
O4B Cu2B 1_555 1_555
O4H Cu2B 1_555 1_555
O5J Cu1 1_555 1_555
O5B Cu1B 1_555 1_555
O5H Cu1B 1_555 1_555
O6B Cu2B 1_555 1_555
H2B O6B 1_555 1_555
H2H O6B 1_555 1_555
H2J O6 1_555 1_555
O7B Cu1B 1_555 1_555
C1J O1J 1_555 1_555
C1H O2H 1_555 1_555
C1B O1B 1_555 1_555
C2H C1H 1_555 1_555
C2J C1J 1_555 1_555
C2B C1B 1_555 1_555
C3H C2H 1_555 1_555
C3J C2J 1_555 1_555
C3B C2B 1_555 1_555
H3J C3J 1_555 1_555
H3B C3B 1_555 1_555
H3H C3H 1_555 1_555
C4H C3H 1_555 1_555
C4J C3J 1_555 1_555
C4B C3B 1_555 1_555
H4J C4J 1_555 1_555
H4B C4B 1_555 1_555
H4H C4H 1_555 1_555
C5H C4H 1_555 1_555
C5J C4J 1_555 1_555
C5B C4B 1_555 1_555
H5J C5J 1_555 1_555
H5B C5B 1_555 1_555
H5H C5H 1_555 1_555
C6H C5H 1_555 1_555
C6J C5J 1_555 1_555
C6B C5B 1_555 1_555
C7J C2J 1_555 1_555
C7B C2B 1_555 1_555
C7H C2H 1_555 1_555
H6J C7J 1_555 1_555
H6B C7B 1_555 1_555
H6H C7H 1_555 1_555
C8H C6H 1_555 1_555
C8J C6J 1_555 1_555
C8B C6B 1_555 1_555
C9H C8H 1_555 1_555
C9J C8J 1_555 1_555
C9B C8B 1_555 1_555
C10H C9H 1_555 1_555
C10J C9J 1_555 1_555
C10B C9B 1_555 1_555
C11H C10H 1_555 1_555
C11J C10J 1_555 1_555
C11B C10B 1_555 1_555
H7J C11J 1_555 1_555
H7B C11B 1_555 1_555
H7H C11H 1_555 1_555
C12H C11H 1_555 1_555
C12J C11J 1_555 1_555
C12B C11B 1_555 1_555
C13H C12H 1_555 1_555
C13J C12J 1_555 1_555
C13B C12B 1_555 1_555
H8J C13J 1_555 1_555
H8B C13B 1_555 1_555
H8H C13H 1_555 1_555
C14H C13H 1_555 1_555
C14J C13J 1_555 1_555
C14B C13B 1_555 1_555
C15J C10J 1_555 1_555
C15B C10B 1_555 1_555
C15H C10H 1_555 1_555
H9J C15J 1_555 1_555
H9B C15B 1_555 1_555
H9H C15H 1_555 1_555
C16J O3J 1_555 1_555
C16B O3B 1_555 1_555
C16H O3H 1_555 1_555
H10J C16J 1_555 1_555
H10B C16B 1_555 1_555
H10H C16H 1_555 1_555
H11J C16J 1_555 1_555
H11B C16B 1_555 1_555
H11H C16H 1_555 1_555
C17H C14H 1_555 1_555
C17J C14J 1_555 1_555
C17B C14B 1_555 1_555
C18H C17H 1_555 1_555
C18J C17J 1_555 1_555
C18B C17B 1_555 1_555
C19H C18H 1_555 1_555
C19J C18J 1_555 1_555
C19B C18B 1_555 1_555
C20H C19H 1_555 1_555
C20J C19J 1_555 1_555
C20B C19B 1_555 1_555
H12J C20J 1_555 1_555
H12B C20B 1_555 1_555
H12H C20H 1_555 1_555
C21H C20H 1_555 1_555
C21J C20J 1_555 1_555
C21B C20B 1_555 1_555
H13J C21J 1_555 1_555
H13B C21B 1_555 1_555
H13H C21H 1_555 1_555
C22H C21H 1_555 1_555
C22J C21J 1_555 1_555
C22B C21B 1_555 1_555
H14J C22J 1_555 1_555
H14B C22B 1_555 1_555
H14H C22H 1_555 1_555
C23H C22H 1_555 1_555
C23J C22J 1_555 1_555
C23B C25 1_555 1_555
C24J C19J 1_555 1_555
C24B C19B 1_555 1_555
C24H C19H 1_555 1_555
H15J C24J 1_555 1_555
H15B C24B 1_555 1_555
H15H C24H 1_555 1_555
C25J O4J 1_555 1_555
C25B C23 1_555 1_555
C25H O4H 1_555 1_555
C26B S1H 1_555 1_555
C27B S1H 1_555 1_555
O5 C25 1_555 1_555
O7 S1J 1_555 1_555
C6 C7 1_555 1_555
C12 C16 1_555 1_555
C14 C15 1_555 1_555
C23 C24 1_555 1_555
C26 S1J 1_555 1_555
C27 S1J 1_555 1_555
S1H O7B 1_555 1_555
S1B C26B 1_555 1_555
S1B C27B 1_555 1_555
O2J C1J 1_555 1_555
O4B C25B 1_555 1_555
O5J C25J 1_555 1_555
O5B C25B 1_555 1_555
O5H C25H 1_555 1_555
C6H C7H 1_555 1_555
C6J C7J 1_555 1_555
C6B C7B 1_555 1_555
C12H C16H 1_555 1_555
C12J C16J 1_555 1_555
C12B C16B 1_555 1_555
C14H C15H 1_555 1_555
C14J C15J 1_555 1_555
C14B C15B 1_555 1_555
C22B C23B 1_555 1_555
C23H C24H 1_555 1_555
C23H C25J 1_555 1_555
C23J C24J 1_555 1_555
C23J C25H 1_555 1_555
C23B C24B 1_555 1_555

#END
