
#######################################################################
#
#                 Cambridge Crystallographic Data Centre
#                                CCDC 
#
#######################################################################
#
# If this CIF has been generated from an entry in the Cambridge 
# Structural Database, then it will include bibliographic, chemical, 
# crystal, experimental, refinement or atomic coordinate data resulting 
# from the CCDC's data processing and validation procedures.
#
#######################################################################

data_EQEWAZ
_chemical_formula_moiety         'C164 H181 Cu4 N3 O28,C5 H11 N1 O1'
_chemical_name_systematic        
"tetrakis(\m~4~-3,3'-((5-((dodecanoyloxy)methyl)-1,3-phenylene)diethyne-2,1-diyl)dibenzoato)-(methanol)-tris(N,N-diethylformamide)-tetra-copper N,N-diethylformamide unknown solvate"
_symmetry_cell_setting           monoclinic
_symmetry_space_group_name_H-M   'P 21/n'
_symmetry_Int_Tables_number      14
_space_group_name_Hall           '-P 2yn'
loop_
_symmetry_equiv_pos_site_id
_symmetry_equiv_pos_as_xyz
1 x,y,z
2 1/2-x,1/2+y,1/2-z
3 -x,-y,-z
4 1/2+x,1/2-y,1/2+z
_cell_length_a                   15.2237(9)
_cell_length_b                   28.9086(17)
_cell_length_c                   36.303(2)
_cell_angle_alpha                90
_cell_angle_beta                 100.6440(10)
_cell_angle_gamma                90
_cell_volume                     15701.9
_exptl_crystal_colour            blue
_exptl_crystal_description       prism
_cell_formula_units_Z            4
loop_
_atom_site_label
_atom_site_type_symbol
_atom_site_fract_x
_atom_site_fract_y
_atom_site_fract_z
Cu1 Cu -0.53813(7) 1.22772(3) 0.36787(3)
Cu2 Cu -0.56170(7) 1.18712(3) 0.43001(3)
Cu3 Cu -0.49416(6) 1.32432(3) 0.13220(3)
Cu4 Cu -0.46720(7) 1.36463(3) 0.07053(3)
O1 O -0.5556(4) 1.16724(19) 0.34378(14)
O2 O -0.5782(4) 1.1332(2) 0.39672(15)
O3 O -0.5088(4) 1.27059(19) 0.09917(15)
O4 O -0.4966(4) 1.30534(17) 0.04537(14)
O5 O -0.4122(4) 1.2105(2) 0.38726(16)
O6 O -0.4343(4) 1.1750(2) 0.44001(16)
O7 O -0.3648(4) 1.31319(18) 0.14261(14)
O8 O -0.3441(4) 1.34136(19) 0.08678(15)
O9 O -0.6852(4) 1.2061(2) 0.41410(16)
O10 O -0.6673(4) 1.2376(2) 0.35973(15)
O11 O -0.6199(4) 1.34131(18) 0.11442(14)
O12 O -0.5945(4) 1.37999(18) 0.06376(14)
O13 O -0.5363(4) 1.24735(19) 0.45414(15)
O14 O -0.5215(4) 1.28209(19) 0.39998(16)
O15 O -0.4762(4) 1.38599(17) 0.15542(15)
O16 O -0.4424(4) 1.41793(18) 0.10363(16)
C1 C -0.5678(5) 1.1323(3) 0.3634(2)
C2 C -0.5669(5) 1.0856(3) 0.3454(2)
C3 C -0.5747(6) 1.0467(3) 0.3671(2)
H1 H -0.5848 1.0497 0.3920
C4 C -0.5676(6) 1.0036(3) 0.3514(3)
H2 H -0.5724 0.9768 0.3661
C5 C -0.5538(6) 0.9983(3) 0.3157(2)
H3 H -0.5486 0.9682 0.3057
C6 C -0.5475(5) 1.0369(3) 0.2938(2)
C7 C -0.5544(5) 1.0812(3) 0.3086(2)
H4 H -0.5505 1.1078 0.2937
C8 C -0.5358(5) 1.0310(3) 0.2549(2)
C9 C -0.5285(5) 1.0224(3) 0.2239(2)
C10 C -0.5202(3) 1.0107(3) 0.1866(2)
C11 C -0.5150(3) 0.9649(3) 0.1755(2)
H5 H -0.5156 0.9411 0.1936
C12 C -0.5091(2) 0.9526(2) 0.1390(2)
C13 C -0.5085(3) 0.9882(3) 0.1131(2)
H6 H -0.5045 0.9807 0.0880
C14 C -0.5136(4) 1.0346(3) 0.1231(2)
C15 C -0.5193(3) 1.0453(3) 0.1596(2)
H7 H -0.5228 1.0768 0.1666
C16 C -0.5164(6) 1.0706(3) 0.0954(2)
C17 C -0.5168(6) 1.1016(3) 0.0736(2)
C18 C -0.5178(5) 1.1846(3) 0.0665(2)
H8 H -0.5222 1.1872 0.0922
C19 C -0.5158(6) 1.1414(3) 0.0505(2)
C20 C -0.5099(7) 1.1377(3) 0.0120(2)
H9 H -0.5079 1.1082 0.0007
C21 C -0.5071(8) 1.1771(3) -0.0086(3)
H10 H -0.5037 1.1746 -0.0344
C22 C -0.5090(7) 1.2207(3) 0.0074(2)
H11 H -0.5075 1.2476 -0.0076
C23 C -0.5132(6) 1.2250(3) 0.0451(2)
C24 C -0.5057(6) 1.2709(3) 0.0650(2)
C25 C -0.5036(4) 0.9026(2) 0.1276(3)
H12 H -0.4734 0.9002 0.1057
H13 H -0.4688 0.8845 0.1484
C26 C -0.3862(6) 1.1887(3) 0.4181(2)
C27 C -0.2878(5) 1.1789(3) 0.4275(2)
C28 C -0.2498(6) 1.1644(3) 0.4640(2)
H14 H -0.2856 1.1614 0.4827
C29 C -0.1599(6) 1.1545(3) 0.4721(2)
H15 H -0.1333 1.1459 0.4969
C30 C -0.1075(6) 1.1568(3) 0.4448(2)
H16 H -0.0457 1.1494 0.4508
C31 C -0.1453(6) 1.1698(3) 0.4088(2)
C32 C -0.2352(5) 1.1818(3) 0.4004(2)
H17 H -0.2607 1.1920 0.3759
C33 C -0.0941(6) 1.1705(3) 0.3794(2)
C34 C -0.0536(6) 1.1707(3) 0.3544(2)
C35 C -0.0054(5) 1.1720(3) 0.3238(2)
C36 C 0.0782(5) 1.1513(3) 0.3270(2)
H18 H 0.1036 1.1361 0.3497
C37 C 0.1244(5) 1.1523(3) 0.2983(2)
C38 C 0.0881(6) 1.1748(3) 0.2647(2)
H19 H 0.1203 1.1761 0.2447
C39 C 0.0028(5) 1.1957(3) 0.2612(2)
C40 C -0.0428(5) 1.1943(3) 0.2902(2)
H20 H -0.1000 1.2083 0.2876
C41 C -0.0348(6) 1.2193(3) 0.2272(2)
C42 C -0.0683(6) 1.2392(3) 0.1990(2)
C43 C -0.1910(6) 1.2798(3) 0.1583(2)
H21 H -0.2277 1.2751 0.1765
C44 C -0.1034(5) 1.2639(2) 0.1652(2)
C45 C -0.0496(6) 1.2692(3) 0.1382(2)
H22 H 0.0096 1.2572 0.1425
C46 C -0.0835(6) 1.2921(3) 0.1050(2)
H23 H -0.0473 1.2962 0.0866
C47 C -0.1700(6) 1.3089(3) 0.0987(2)
H24 H -0.1919 1.3251 0.0762
C48 C -0.2254(5) 1.3027(2) 0.1246(2)
C49 C -0.3188(6) 1.3200(3) 0.1178(2)
C50 C 0.2155(6) 1.1295(3) 0.3025(3)
H25 H 0.2609 1.1526 0.2988
H26 H 0.2328 1.1165 0.3281
C51 C -0.7125(6) 1.2275(3) 0.3846(2)
C52 C -0.8081(6) 1.2447(3) 0.3783(2)
C53 C -0.8562(6) 1.2402(3) 0.4067(2)
H27 H -0.8304 1.2249 0.4293
C54 C -0.9422(6) 1.2577(3) 0.4024(2)
H28 H -0.9750 1.2550 0.4222
C55 C -0.9801(6) 1.2790(3) 0.3695(2)
H29 H -1.0397 1.2903 0.3662
C56 C -0.9306(6) 1.2842(3) 0.3408(2)
C57 C -0.8454(5) 1.2664(3) 0.3452(2)
H30 H -0.8123 1.2690 0.3255
C58 C -0.9696(6) 1.3066(3) 0.3065(2)
C59 C -1.0005(5) 1.3256(3) 0.2775(2)
C60 C -1.0362(6) 1.3487(3) 0.2431(2)
C61 C -1.1240(6) 1.3649(3) 0.2375(2)
H31 H -1.1584 1.3617 0.2567
C62 C -1.1608(6) 1.3862(3) 0.2034(3)
C63 C -1.1122(6) 1.3905(3) 0.1761(2)
H32 H -1.1381 1.4050 0.1532
C64 C -1.0237(6) 1.3738(3) 0.1808(2)
C65 C -0.9871(5) 1.3527(3) 0.2150(2)
H33 H -0.9277 1.3411 0.2188
C66 C -0.9734(6) 1.3790(3) 0.1520(3)
C67 C -0.9317(6) 1.3837(3) 0.1271(2)
C68 C -0.7914(5) 1.3728(3) 0.1040(2)
H34 H -0.7687 1.3544 0.1253
C69 C -0.8802(5) 1.3905(3) 0.0990(2)
C70 C -0.9098(6) 1.4172(3) 0.0676(2)
H35 H -0.9686 1.4297 0.0638
C71 C -0.8565(6) 1.4262(3) 0.0418(2)
H36 H -0.8792 1.4444 0.0204
C72 C -0.7712(6) 1.4094(3) 0.0466(2)
H37 H -0.7345 1.4160 0.0288
C73 C -0.7389(5) 1.3825(2) 0.0781(2)
C74 C -0.6423(5) 1.3666(3) 0.0858(2)
C75 C -1.2556(6) 1.4031(4) 0.1977(3)
H38 H -1.2720 1.4178 0.1727
H39 H -1.2966 1.3768 0.1989
C76 C -0.5248(6) 1.2829(3) 0.4347(2)
C77 C -0.5118(6) 1.3287(3) 0.4540(2)
C78 C -0.5104(8) 1.3320(3) 0.4918(3)
H40 H -0.5172 1.3050 0.5060
C79 C -0.4993(9) 1.3744(4) 0.5091(3)
H41 H -0.4972 1.3767 0.5354
C80 C -0.4911(9) 1.4142(4) 0.4883(3)
H42 H -0.4852 1.4437 0.5002
C81 C -0.4914(7) 1.4107(3) 0.4500(3)
C82 C -0.5014(6) 1.3676(3) 0.4332(2)
H43 H -0.5011 1.3648 0.4072
C83 C -0.4866(7) 1.4504(3) 0.4272(3)
C84 C -0.4837(6) 1.4811(3) 0.4057(3)
C85 C -0.4836(3) 1.5190(3) 0.3790(3)
C86 C -0.4873(3) 1.5645(3) 0.3897(3)
H44 H -0.4900 1.5720 0.4149
C87 C -0.4870(2) 1.5995(2) 0.3636(3)
C88 C -0.4829(3) 1.5884(3) 0.3265(3)
H45 H -0.4827 1.6125 0.3087
C89 C -0.4792(4) 1.5427(3) 0.3154(3)
C90 C -0.4795(3) 1.5077(3) 0.3415(3)
H46 H -0.4769 1.4763 0.3341
C91 C -0.4719(5) 1.5314(3) 0.2778(3)
C92 C -0.4647(6) 1.5228(3) 0.2461(3)
C93 C -0.4611(5) 1.4724(3) 0.1918(2)
H47 H -0.4733 1.4461 0.2057
C94 C -0.4553(5) 1.5153(3) 0.2084(2)
C95 C -0.4392(6) 1.5537(3) 0.1868(3)
H48 H -0.4361 1.5836 0.1977
C96 C -0.4278(6) 1.5488(3) 0.1501(3)
H49 H -0.4170 1.5751 0.1359
C97 C -0.4323(6) 1.5049(3) 0.1340(3)
H50 H -0.4238 1.5012 0.1089
C98 C -0.4493(5) 1.4666(3) 0.1547(2)
C99 C -0.4573(5) 1.4200(2) 0.1365(2)
C100 C -0.4910(3) 1.64949(18) 0.3751(3)
H51 H -0.4522 1.6543 0.3999
H52 H -0.4691 1.6696 0.3567
O17 O -0.6025(5) 0.9023(3) 0.05929(18)
O18 O -0.5933(4) 0.8846(3) 0.11803(17)
C101 C -0.6406(3) 0.88663(18) 0.08282(16)
C102 C -0.7349(4) 0.8695(3) 0.0758(2)
H53 H -0.7386 0.8400 0.0618
H54 H -0.7740 0.8923 0.0604
C103 C -0.7667(5) 0.8622(3) 0.1124(3)
H57 H -0.8230 0.8442 0.1079
H58 H -0.7214 0.8445 0.1299
C104 C -0.7822(10) 0.9084(4) 0.1296(3)
H59 H -0.8083 0.9304 0.1096
H60 H -0.7245 0.9212 0.1426
C105 C -0.8448(8) 0.9026(5) 0.1570(3)
H61 H -0.8560 0.9330 0.1678
H62 H -0.9027 0.8901 0.1438
C106 C -0.8042(11) 0.8699(4) 0.1879(3)
H63 H -0.7843 0.8413 0.1770
H64 H -0.8496 0.8615 0.2031
C107 C -0.7256(8) 0.8928(5) 0.2126(3)
H65 H -0.6966 0.8707 0.2319
H66 H -0.6811 0.9022 0.1973
C108 C -0.7567(12) 0.9348(4) 0.2314(2)
H67 H -0.8146 0.9456 0.2168
H68 H -0.7127 0.9601 0.2320
C109 C -0.7673(18) 0.9227(3) 0.2708(4)
H69 H -0.7108 0.9095 0.2847
H70 H -0.8150 0.8993 0.2700
C110 C -0.7910(16) 0.9657(4) 0.2906(3)
H71 H -0.7440 0.9894 0.2908
H72 H -0.8482 0.9785 0.2770
C111 C -0.7993(17) 0.9538(4) 0.3303(3)
H73 H -0.7449 0.9374 0.3428
H74 H -0.8513 0.9332 0.3301
C112 C -0.8114(19) 0.9976(5) 0.3515(4)
H75 H -0.8118 0.9900 0.3778
H76 H -0.8683 1.0122 0.3404
H77 H -0.7621 1.0189 0.3501
O19 O 0.2114(4) 1.0926(2) 0.2747(2)
O20 O 0.2756(5) 1.1403(3) 0.2390(2)
C123 C 0.2420(6) 1.1028(4) 0.2434(3)
C124 C 0.2330(10) 1.0626(4) 0.21294(18)
H99 H 0.2782 1.0384 0.2215
H100 H 0.1731 1.0482 0.2104
C125 C 0.2458(10) 1.0807(3) 0.17529(18)
H101 H 0.3064 1.0941 0.1775
H102 H 0.2016 1.1054 0.1668
C126 C 0.2341(10) 1.0419(2) 0.14700(17)
H103 H 0.1754 1.0268 0.1463
H104 H 0.2814 1.0184 0.1544
C127 C 0.2392(10) 1.0608(2) 0.10867(17)
H105 H 0.1900 1.0831 0.1008
H106 H 0.2966 1.0773 0.1096
C128 C 0.2322(10) 1.0217(2) 0.08073(17)
H107 H 0.1735 1.0062 0.0788
H108 H 0.2795 0.9986 0.0893
C129 C 0.2421(10) 1.0403(2) 0.04283(18)
H109 H 0.1953 1.0637 0.0344
H110 H 0.3012 1.0553 0.0447
C130 C 0.2336(9) 1.0012(3) 0.01479(19)
H111 H 0.2756 0.9761 0.0246
H112 H 0.1721 0.9885 0.0108
C131 C 0.2541(10) 1.0186(2) -0.02190(19)
H113 H 0.3139 1.0334 -0.0176
H114 H 0.2094 1.0421 -0.0327
C132 C 0.2522(9) 0.9788(3) -0.04898(18)
H115 H 0.2974 0.9555 -0.0383
H116 H 0.1927 0.9639 -0.0531
C133 C 0.2718(7) 0.9963(3) -0.08582(18)
H117 H 0.2670 0.9705 -0.1040
H118 H 0.3334 1.0086 -0.0821
C134 C 0.2061(8) 1.0339(4) -0.1010(3)
H119 H 0.1585 1.0209 -0.1200
H120 H 0.2372 1.0584 -0.1122
H121 H 0.1801 1.0469 -0.0805
O21 O -1.2637(6) 1.4360(4) 0.2263(3)
O22 O -1.2080(6) 1.4875(3) 0.1902(3)
C135 C -1.2335(8) 1.4754(6) 0.2194(4)
C136 C -1.2280(9) 1.5083(3) 0.2499(3)
H122 H -1.2348 1.4972 0.2738
C137 C -1.2122(10) 1.5594(3) 0.2455(2)
H123 H -1.1552 1.5642 0.2366
H124 H -1.2611 1.5727 0.2266
C138 C -1.2086(10) 1.5835(3) 0.28263(17)
H125 H -1.2621 1.5754 0.2931
H126 H -1.1551 1.5732 0.3005
C139 C -1.2048(6) 1.6352(2) 0.27732(16)
H127 H -1.2657 1.6473 0.2679
H128 H -1.1672 1.6425 0.2585
C140 C -1.1662(6) 1.6581(3) 0.3141(2)
H129 H -1.1118 1.6414 0.3263
H130 H -1.1493 1.6904 0.3096
C141 C -1.2343(5) 1.6578(5) 0.3395(2)
H131 H -1.2540 1.6256 0.3428
H132 H -1.2873 1.6761 0.3281
C142 C -1.1938(5) 1.6781(5) 0.3772(2)
H133 H -1.1415 1.6594 0.3889
H134 H -1.1732 1.7100 0.3738
C143 C -1.2624(6) 1.6785(5) 0.4024(2)
H135 H -1.2813 1.6465 0.4065
H136 H -1.3158 1.6961 0.3902
C144 C -1.2231(7) 1.7006(5) 0.4395(2)
H137 H -1.1698 1.6828 0.4514
H138 H -1.2036 1.7324 0.4350
C145 C -1.2877(8) 1.7021(5) 0.4650(2)
H139 H -1.2975 1.6703 0.4736
H140 H -1.3455 1.7139 0.4513
C146 C -1.2557(8) 1.7325(5) 0.4986(2)
H141 H -1.3002 1.7325 0.5150
H142 H -1.2473 1.7641 0.4902
H143 H -1.1988 1.7206 0.5125
O23 O -0.5819(3) 1.6615(2) 0.3771(3)
O24 O -0.5334(6) 1.7122(6) 0.4203(5)
C147 C -0.5979(5) 1.6947(3) 0.4011(3)
C148 C -0.6930(5) 1.7070(7) 0.4020(6)
H144 H -0.7227 1.6806 0.4120
H145 H -0.7252 1.7133 0.3762
C149 C -0.6971(9) 1.7491(4) 0.4263(4)
H146 H -0.6360 1.7580 0.4386
H147 H -0.7238 1.7753 0.4105
C150 C -0.7529(9) 1.7385(8) 0.4556(4)
H148 H -0.8123 1.7269 0.4433
H149 H -0.7617 1.7671 0.4694
C151 C -0.7065(16) 1.7026(7) 0.4825(6)
H150 H -0.6410 1.7049 0.4841
H151 H -0.7257 1.6713 0.4733
C152 C -0.729(2) 1.7100(5) 0.5208(4)
H152 H -0.6828 1.7293 0.5362
H153 H -0.7872 1.7265 0.5183
C153 C -0.736(2) 1.6639(4) 0.5398(5)
H154 H -0.7812 1.6444 0.5241
H155 H -0.6773 1.6478 0.5428
C154 C -0.7606(18) 1.6713(6) 0.5777(6)
H156 H -0.8258 1.6763 0.5747
H157 H -0.7299 1.6992 0.5897
C155 C -0.7337(17) 1.6296(6) 0.6022(6)
H158 H -0.7612 1.6014 0.5895
H159 H -0.6679 1.6258 0.6065
C156 C -0.7640(19) 1.6356(5) 0.6392(5)
H160 H -0.7197 1.6544 0.6563
H161 H -0.8219 1.6522 0.6353
C157 C -0.7740(15) 1.5889(6) 0.6566(7)
H162 H -0.7723 1.5924 0.6838
H163 H -0.8323 1.5752 0.6452
C158 C -0.6993(18) 1.5574(7) 0.6501(11)
H164 H -0.7246 1.5290 0.6376
H165 H -0.6616 1.5495 0.6742
H166 H -0.6631 1.5731 0.6342
O27 O -0.5090(5) 1.2665(3) 0.3209(2)
N1 N -0.4036(6) 1.2996(3) 0.2908(3)
C171 C -0.4286(8) 1.2711(4) 0.3161(3)
H190 H -0.3837 1.2533 0.3313
C172 C -0.3106(8) 1.2996(4) 0.2849(3)
H191 H -0.2714 1.2867 0.3074
H192 H -0.2915 1.3319 0.2817
C173 C -0.2992(8) 1.2716(4) 0.2509(3)
H193 H -0.2367 1.2729 0.2478
H194 H -0.3377 1.2843 0.2286
H195 H -0.3160 1.2394 0.2544
C174 C -0.4668(8) 1.3298(4) 0.2674(3)
H196 H -0.5283 1.3183 0.2668
H197 H -0.4552 1.3293 0.2414
C175 C -0.4594(8) 1.3798(4) 0.2821(3)
H198 H -0.5027 1.3993 0.2658
H199 H -0.3988 1.3914 0.2823
H200 H -0.4718 1.3804 0.3077
O28 O -0.5856(4) 1.1498(2) 0.47886(15)
H201 H -0.6172 1.1253 0.4767
C176 C -0.5482(9) 1.1679(4) 0.5140(3)
H202 H -0.5643 1.1482 0.5337
H203 H -0.5710 1.1992 0.5164
H204 H -0.4830 1.1689 0.5166
O29 O -0.5237(5) 1.2871(2) 0.17978(19)
N2 N -0.6290(6) 1.2546(3) 0.2083(2)
C177 C -0.6001(7) 1.2855(4) 0.1871(3)
H205 H -0.6412 1.3087 0.1764
C178 C -0.5657(7) 1.2164(3) 0.2250(3)
H206 H -0.5053 1.2296 0.2333
H207 H -0.5860 1.2036 0.2473
C179 C -0.5608(7) 1.1793(3) 0.1984(3)
H208 H -0.5184 1.1557 0.2102
H209 H -0.5405 1.1918 0.1763
H210 H -0.6200 1.1653 0.1908
C180 C -0.7192(7) 1.2543(4) 0.2159(3)
H211 H -0.7455 1.2234 0.2091
H212 H -0.7549 1.2772 0.1991
C181 C -0.7295(7) 1.2644(4) 0.2543(3)
H213 H -0.7932 1.2643 0.2557
H214 H -0.7041 1.2949 0.2616
H215 H -0.6983 1.2408 0.2712
O30 O -0.4449(5) 1.4011(3) 0.0214(2)
N3 N -0.3704(7) 1.4147(4) -0.0240(3)
C182 C -0.3862(8) 1.3907(5) 0.0061(3)
H216 H -0.3493 1.3650 0.0149
C183 C -0.2932(8) 1.4055(4) -0.0377(3)
H217 H -0.2560 1.3831 -0.0210
H218 H -0.2583 1.4344 -0.0379
C184 C -0.3142(8) 1.3865(4) -0.0758(3)
H219 H -0.2586 1.3800 -0.0848
H220 H -0.3497 1.4091 -0.0925
H221 H -0.3485 1.3579 -0.0756
C185 C -0.4287(8) 1.4531(4) -0.0381(3)
H222 H -0.4886 1.4478 -0.0320
H223 H -0.4353 1.4545 -0.0657
C186 C -0.3932(8) 1.4988(4) -0.0218(3)
H224 H -0.4349 1.5235 -0.0317
H225 H -0.3348 1.5048 -0.0285
H226 H -0.3868 1.4977 0.0056
O31 O -0.0637(5) 0.5133(2) 0.0459(2)
N4 N -0.1635(6) 0.5258(3) 0.0847(3)
C187 C -0.1125(8) 0.5395(4) 0.0611(3)
H227 H -0.1126 0.5715 0.0552
C188 C -0.1598(8) 0.4771(3) 0.0973(3)
H228 H -0.1708 0.4758 0.1234
H229 H -0.0993 0.4646 0.0973
C189 C -0.2271(7) 0.4477(4) 0.0728(3)
H230 H -0.2224 0.4158 0.0821
H231 H -0.2160 0.4485 0.0471
H232 H -0.2873 0.4595 0.0733
C190 C -0.2246(8) 0.5570(4) 0.0999(3)
H233 H -0.2785 0.5397 0.1035
H234 H -0.2437 0.5824 0.0820
C191 C -0.1778(8) 0.5772(4) 0.1374(3)
H235 H -0.2187 0.5981 0.1472
H236 H -0.1246 0.5943 0.1338
H237 H -0.1602 0.5520 0.1553
H55? H -0.7402 0.8441 0.0923
H56? H -0.7515 0.8587 0.0505
C113? C -0.7976(4) 0.9072(5) 0.0837(4)
H78? H -0.7693 0.9378 0.0822
H79? H -0.8533 0.9062 0.0647
C114? C -0.8195(14) 0.9005(6) 0.1223(6)
H80? H -0.7939 0.8708 0.1330
H81? H -0.8851 0.8992 0.1205
C115? C -0.781(2) 0.9400(7) 0.1474(4)
H82? H -0.7160 0.9421 0.1482
H83? H -0.8090 0.9694 0.1374
C116? C -0.7991(18) 0.9320(8) 0.1865(4)
H84? H -0.8639 0.9273 0.1855
H85? H -0.7803 0.9595 0.2023
C117? C -0.748(2) 0.8900(8) 0.2035(5)
H86? H -0.6854 0.8919 0.1999
H87? H -0.7752 0.8617 0.1908
C118? C -0.751(2) 0.8876(6) 0.2448(5)
H88? H -0.7955 0.8642 0.2492
H89? H -0.6918 0.8781 0.2589
C119? C -0.776(3) 0.9343(6) 0.2584(5)
H90? H -0.7286 0.9570 0.2562
H91? H -0.8324 0.9450 0.2428
C120? C -0.787(3) 0.9308(6) 0.2988(6)
H92? H -0.7340 0.9153 0.3138
H93? H -0.8403 0.9121 0.3006
C121? C -0.797(3) 0.9786(7) 0.3143(6)
H94? H -0.8540 0.9924 0.3018
H95? H -0.7474 0.9987 0.3094
C122? C -0.795(4) 0.9757(10) 0.3560(6)
H96? H -0.7335 0.9805 0.3695
H97? H -0.8157 0.9451 0.3622
H98? H -0.8339 0.9996 0.3634
O25? O -0.5729(5) 1.6577(3) 0.3886(3)
O26? O -0.6283(8) 1.6916(6) 0.3361(4)
C159? C -0.6411(4) 1.6795(3) 0.3664(4)
C160? C -0.7257(5) 1.6870(4) 0.3810(7)
H167? H -0.7261 1.6667 0.4030
H168? H -0.7775 1.6786 0.3614
C161? C -0.7336(11) 1.7369(4) 0.3923(7)
H169? H -0.7335 1.7572 0.3703
H170? H -0.6819 1.7453 0.4119
C162? C -0.8193(11) 1.7437(6) 0.4070(5)
H171? H -0.8704 1.7455 0.3857
H172? H -0.8165 1.7730 0.4212
C163? C -0.8327(11) 1.7037(7) 0.4322(6)
H173? H -0.8756 1.7127 0.4484
H174? H -0.8578 1.6769 0.4168
C164? C -0.7444(13) 1.6905(7) 0.4562(4)
H175? H -0.7402 1.6565 0.4586
H176? H -0.6947 1.7014 0.4442
C165? C -0.7367(18) 1.7121(6) 0.4945(5)
H177? H -0.6774 1.7269 0.5019
H178? H -0.7830 1.7363 0.4939
C166? C -0.749(2) 1.6754(5) 0.5228(4)
H179? H -0.8000 1.6554 0.5125
H180? H -0.6944 1.6557 0.5281
C167? C -0.7642(16) 1.6979(6) 0.5585(5)
H181? H -0.7426 1.7303 0.5596
H182? H -0.8290 1.6984 0.5591
C168? C -0.7152(15) 1.6714(7) 0.5920(4)
H183? H -0.7097 1.6908 0.6148
H184? H -0.6543 1.6636 0.5880
C169? C -0.7656(17) 1.6276(8) 0.5971(8)
H185? H -0.7662 1.6070 0.5753
H186? H -0.8282 1.6352 0.5986
C170? C -0.721(2) 1.6033(8) 0.6325(7)
H187? H -0.7657 1.5847 0.6423
H188? H -0.6958 1.6264 0.6513
H189? H -0.6737 1.5831 0.6270
loop_
_geom_bond_atom_site_label_1
_geom_bond_atom_site_label_2
_geom_bond_site_symmetry_1
_geom_bond_site_symmetry_2
Cu1 O1 1_555 1_555
Cu2 O2 1_555 1_555
Cu3 O3 1_555 1_555
Cu4 O4 1_555 1_555
O1 C1 1_555 1_555
O2 C1 1_555 1_555
O3 C24 1_555 1_555
O4 C24 1_555 1_555
O5 Cu1 1_555 1_555
O6 Cu2 1_555 1_555
O7 Cu3 1_555 1_555
O8 Cu4 1_555 1_555
O9 Cu2 1_555 1_555
O10 Cu1 1_555 1_555
O11 Cu3 1_555 1_555
O12 Cu4 1_555 1_555
O13 Cu2 1_555 1_555
O14 Cu1 1_555 1_555
O15 Cu3 1_555 1_555
O16 Cu4 1_555 1_555
C1 C2 1_555 1_555
C2 C3 1_555 1_555
C3 H1 1_555 1_555
C4 C3 1_555 1_555
H2 C4 1_555 1_555
C5 C4 1_555 1_555
H3 C5 1_555 1_555
C6 C5 1_555 1_555
C7 C2 1_555 1_555
H4 C7 1_555 1_555
C8 C6 1_555 1_555
C9 C8 1_555 1_555
C10 C9 1_555 1_555
C11 C10 1_555 1_555
H5 C11 1_555 1_555
C12 C11 1_555 1_555
C13 C12 1_555 1_555
H6 C13 1_555 1_555
C14 C13 1_555 1_555
C15 C10 1_555 1_555
H7 C15 1_555 1_555
C16 C14 1_555 1_555
C17 C16 1_555 1_555
C18 H8 1_555 1_555
C19 C17 1_555 1_555
C20 C19 1_555 1_555
H9 C20 1_555 1_555
C21 C20 1_555 1_555
H10 C21 1_555 1_555
C22 C21 1_555 1_555
H11 C22 1_555 1_555
C23 C18 1_555 1_555
C24 C23 1_555 1_555
C25 C12 1_555 1_555
H12 C25 1_555 1_555
H13 C25 1_555 1_555
C26 O5 1_555 1_555
C27 C26 1_555 1_555
C28 C27 1_555 1_555
H14 C28 1_555 1_555
C29 C28 1_555 1_555
H15 C29 1_555 1_555
C30 C29 1_555 1_555
H16 C30 1_555 1_555
C31 C30 1_555 1_555
C32 C27 1_555 1_555
H17 C32 1_555 1_555
C33 C31 1_555 1_555
C34 C33 1_555 1_555
C35 C34 1_555 1_555
C36 C35 1_555 1_555
H18 C36 1_555 1_555
C37 C36 1_555 1_555
C38 C37 1_555 1_555
H19 C38 1_555 1_555
C39 C38 1_555 1_555
C40 C35 1_555 1_555
H20 C40 1_555 1_555
C41 C39 1_555 1_555
C42 C41 1_555 1_555
C43 H21 1_555 1_555
C44 C42 1_555 1_555
C45 C44 1_555 1_555
H22 C45 1_555 1_555
C46 C45 1_555 1_555
H23 C46 1_555 1_555
C47 C46 1_555 1_555
H24 C47 1_555 1_555
C48 C43 1_555 1_555
C49 O7 1_555 1_555
C50 C37 1_555 1_555
H25 C50 1_555 1_555
H26 C50 1_555 1_555
C51 O9 1_555 1_555
C52 C51 1_555 1_555
C53 C52 1_555 1_555
H27 C53 1_555 1_555
C54 C53 1_555 1_555
H28 C54 1_555 1_555
C55 C54 1_555 1_555
H29 C55 1_555 1_555
C56 C55 1_555 1_555
C57 C52 1_555 1_555
H30 C57 1_555 1_555
C58 C56 1_555 1_555
C59 C58 1_555 1_555
C60 C59 1_555 1_555
C61 C60 1_555 1_555
H31 C61 1_555 1_555
C62 C61 1_555 1_555
C63 C62 1_555 1_555
H32 C63 1_555 1_555
C64 C63 1_555 1_555
C65 C60 1_555 1_555
H33 C65 1_555 1_555
C66 C64 1_555 1_555
C67 C66 1_555 1_555
C68 H34 1_555 1_555
C69 C67 1_555 1_555
C70 C69 1_555 1_555
H35 C70 1_555 1_555
C71 C70 1_555 1_555
H36 C71 1_555 1_555
C72 C71 1_555 1_555
H37 C72 1_555 1_555
C73 C68 1_555 1_555
C74 O11 1_555 1_555
C75 C62 1_555 1_555
H38 C75 1_555 1_555
H39 C75 1_555 1_555
C76 O13 1_555 1_555
C77 C76 1_555 1_555
C78 C77 1_555 1_555
H40 C78 1_555 1_555
C79 C78 1_555 1_555
H41 C79 1_555 1_555
C80 C79 1_555 1_555
H42 C80 1_555 1_555
C81 C80 1_555 1_555
C82 C77 1_555 1_555
H43 C82 1_555 1_555
C83 C81 1_555 1_555
C84 C83 1_555 1_555
C85 C84 1_555 1_555
C86 C85 1_555 1_555
H44 C86 1_555 1_555
C87 C86 1_555 1_555
C88 C87 1_555 1_555
H45 C88 1_555 1_555
C89 C88 1_555 1_555
C90 C85 1_555 1_555
H46 C90 1_555 1_555
C91 C89 1_555 1_555
C92 C91 1_555 1_555
C93 H47 1_555 1_555
C94 C92 1_555 1_555
C95 C94 1_555 1_555
H48 C95 1_555 1_555
C96 C95 1_555 1_555
H49 C96 1_555 1_555
C97 C96 1_555 1_555
H50 C97 1_555 1_555
C98 C93 1_555 1_555
C99 O15 1_555 1_555
C100 C87 1_555 1_555
H51 C100 1_555 1_555
H52 C100 1_555 1_555
O17 C101 1_555 1_555
O18 C25 1_555 1_555
C101 O18 1_555 1_555
C102 C101 1_555 1_555
H53 C102 1_555 1_555
H54 C102 1_555 1_555
C103 C102 1_555 1_555
H57 C103 1_555 1_555
H58 C103 1_555 1_555
C104 C103 1_555 1_555
H59 C104 1_555 1_555
H60 C104 1_555 1_555
C105 C104 1_555 1_555
H61 C105 1_555 1_555
H62 C105 1_555 1_555
C106 C105 1_555 1_555
H63 C106 1_555 1_555
H64 C106 1_555 1_555
C107 C106 1_555 1_555
H65 C107 1_555 1_555
H66 C107 1_555 1_555
C108 C107 1_555 1_555
H67 C108 1_555 1_555
H68 C108 1_555 1_555
C109 C108 1_555 1_555
H69 C109 1_555 1_555
H70 C109 1_555 1_555
C110 C109 1_555 1_555
H71 C110 1_555 1_555
H72 C110 1_555 1_555
C111 C110 1_555 1_555
H73 C111 1_555 1_555
H74 C111 1_555 1_555
C112 C111 1_555 1_555
H75 C112 1_555 1_555
H76 C112 1_555 1_555
H77 C112 1_555 1_555
O19 C50 1_555 1_555
O20 C123 1_555 1_555
C123 O19 1_555 1_555
C124 C123 1_555 1_555
H99 C124 1_555 1_555
H100 C124 1_555 1_555
C125 C124 1_555 1_555
H101 C125 1_555 1_555
H102 C125 1_555 1_555
C126 C125 1_555 1_555
H103 C126 1_555 1_555
H104 C126 1_555 1_555
C127 C126 1_555 1_555
H105 C127 1_555 1_555
H106 C127 1_555 1_555
C128 C127 1_555 1_555
H107 C128 1_555 1_555
H108 C128 1_555 1_555
C129 C128 1_555 1_555
H109 C129 1_555 1_555
H110 C129 1_555 1_555
C130 C129 1_555 1_555
H111 C130 1_555 1_555
H112 C130 1_555 1_555
C131 C130 1_555 1_555
H113 C131 1_555 1_555
H114 C131 1_555 1_555
C132 C131 1_555 1_555
H115 C132 1_555 1_555
H116 C132 1_555 1_555
C133 C132 1_555 1_555
H117 C133 1_555 1_555
H118 C133 1_555 1_555
C134 C133 1_555 1_555
H119 C134 1_555 1_555
H120 C134 1_555 1_555
H121 C134 1_555 1_555
O21 C75 1_555 1_555
O22 C135 1_555 1_555
C135 O21 1_555 1_555
C136 C135 1_555 1_555
H122 C136 1_555 1_555
C137 C136 1_555 1_555
H123 C137 1_555 1_555
H124 C137 1_555 1_555
C138 C137 1_555 1_555
H125 C138 1_555 1_555
H126 C138 1_555 1_555
C139 C138 1_555 1_555
H127 C139 1_555 1_555
H128 C139 1_555 1_555
C140 C139 1_555 1_555
H129 C140 1_555 1_555
H130 C140 1_555 1_555
C141 C140 1_555 1_555
H131 C141 1_555 1_555
H132 C141 1_555 1_555
C142 C141 1_555 1_555
H133 C142 1_555 1_555
H134 C142 1_555 1_555
C143 C142 1_555 1_555
H135 C143 1_555 1_555
H136 C143 1_555 1_555
C144 C143 1_555 1_555
H137 C144 1_555 1_555
H138 C144 1_555 1_555
C145 C144 1_555 1_555
H139 C145 1_555 1_555
H140 C145 1_555 1_555
C146 C145 1_555 1_555
H141 C146 1_555 1_555
H142 C146 1_555 1_555
H143 C146 1_555 1_555
O23 C100 1_555 1_555
O24 C147 1_555 1_555
C147 O23 1_555 1_555
C148 C147 1_555 1_555
H144 C148 1_555 1_555
H145 C148 1_555 1_555
C149 C148 1_555 1_555
H146 C149 1_555 1_555
H147 C149 1_555 1_555
C150 C149 1_555 1_555
H148 C150 1_555 1_555
H149 C150 1_555 1_555
C151 C150 1_555 1_555
H150 C151 1_555 1_555
H151 C151 1_555 1_555
C152 C151 1_555 1_555
H152 C152 1_555 1_555
H153 C152 1_555 1_555
C153 C152 1_555 1_555
H154 C153 1_555 1_555
H155 C153 1_555 1_555
C154 C153 1_555 1_555
H156 C154 1_555 1_555
H157 C154 1_555 1_555
C155 C154 1_555 1_555
H158 C155 1_555 1_555
H159 C155 1_555 1_555
C156 C155 1_555 1_555
H160 C156 1_555 1_555
H161 C156 1_555 1_555
C157 C156 1_555 1_555
H162 C157 1_555 1_555
H163 C157 1_555 1_555
C158 C157 1_555 1_555
H164 C158 1_555 1_555
H165 C158 1_555 1_555
H166 C158 1_555 1_555
O27 Cu1 1_555 1_555
N1 C171 1_555 1_555
C171 O27 1_555 1_555
H190 C171 1_555 1_555
C172 N1 1_555 1_555
H191 C172 1_555 1_555
H192 C172 1_555 1_555
C173 C172 1_555 1_555
H193 C173 1_555 1_555
H194 C173 1_555 1_555
H195 C173 1_555 1_555
C174 N1 1_555 1_555
H196 C174 1_555 1_555
H197 C174 1_555 1_555
C175 C174 1_555 1_555
H198 C175 1_555 1_555
H199 C175 1_555 1_555
H200 C175 1_555 1_555
O28 Cu2 1_555 1_555
H201 O28 1_555 1_555
C176 O28 1_555 1_555
H202 C176 1_555 1_555
H203 C176 1_555 1_555
H204 C176 1_555 1_555
O29 Cu3 1_555 1_555
N2 C177 1_555 1_555
C177 O29 1_555 1_555
H205 C177 1_555 1_555
C178 N2 1_555 1_555
H206 C178 1_555 1_555
H207 C178 1_555 1_555
C179 C178 1_555 1_555
H208 C179 1_555 1_555
H209 C179 1_555 1_555
H210 C179 1_555 1_555
C180 N2 1_555 1_555
H211 C180 1_555 1_555
H212 C180 1_555 1_555
C181 C180 1_555 1_555
H213 C181 1_555 1_555
H214 C181 1_555 1_555
H215 C181 1_555 1_555
O30 Cu4 1_555 1_555
N3 C182 1_555 1_555
C182 O30 1_555 1_555
H216 C182 1_555 1_555
C183 N3 1_555 1_555
H217 C183 1_555 1_555
H218 C183 1_555 1_555
C184 C183 1_555 1_555
H219 C184 1_555 1_555
H220 C184 1_555 1_555
H221 C184 1_555 1_555
C185 N3 1_555 1_555
H222 C185 1_555 1_555
H223 C185 1_555 1_555
C186 C185 1_555 1_555
H224 C186 1_555 1_555
H225 C186 1_555 1_555
H226 C186 1_555 1_555
O31 C187 1_555 1_555
N4 C187 1_555 1_555
C187 H227 1_555 1_555
C188 N4 1_555 1_555
H228 C188 1_555 1_555
H229 C188 1_555 1_555
C189 C188 1_555 1_555
H230 C189 1_555 1_555
H231 C189 1_555 1_555
H232 C189 1_555 1_555
C190 N4 1_555 1_555
H233 C190 1_555 1_555
H234 C190 1_555 1_555
C191 C190 1_555 1_555
H235 C191 1_555 1_555
H236 C191 1_555 1_555
H237 C191 1_555 1_555
O6 C26 1_555 1_555
O8 C49 1_555 1_555
O10 C51 1_555 1_555
O12 C74 1_555 1_555
O14 C76 1_555 1_555
O16 C99 1_555 1_555
C6 C7 1_555 1_555
C14 C15 1_555 1_555
C18 C19 1_555 1_555
C22 C23 1_555 1_555
C31 C32 1_555 1_555
C39 C40 1_555 1_555
C43 C44 1_555 1_555
C47 C48 1_555 1_555
C48 C49 1_555 1_555
C56 C57 1_555 1_555
C64 C65 1_555 1_555
C68 C69 1_555 1_555
C72 C73 1_555 1_555
C73 C74 1_555 1_555
C81 C82 1_555 1_555
C89 C90 1_555 1_555
C93 C94 1_555 1_555
C97 C98 1_555 1_555
C98 C99 1_555 1_555

#END
