# generated using pymatgen
data_Cu4H237C191N4O31
_symmetry_space_group_name_H-M   'P 1'
_cell_length_a   15.22370000
_cell_length_b   28.90860000
_cell_length_c   36.30300000
_cell_angle_alpha   90.00000000
_cell_angle_beta   100.64400000
_cell_angle_gamma   90.00000000
_symmetry_Int_Tables_number   1
_chemical_formula_structural   Cu4H237C191N4O31
_chemical_formula_sum   'Cu16 H948 C764 N16 O124'
_cell_volume   15701.89968622
_cell_formula_units_Z   4
loop_
 _symmetry_equiv_pos_site_id
 _symmetry_equiv_pos_as_xyz
  1  'x, y, z'
loop_
 _atom_site_type_symbol
 _atom_site_label
 _atom_site_symmetry_multiplicity
 _atom_site_fract_x
 _atom_site_fract_y
 _atom_site_fract_z
 _atom_site_occupancy
  Cu  Cu1  1  0.461870  0.227720  0.367870  1
  Cu  Cu2  1  0.038130  0.727720  0.132130  1
  Cu  Cu3  1  0.538130  0.772280  0.632130  1
  Cu  Cu4  1  0.961870  0.272280  0.867870  1
  Cu  Cu5  1  0.438300  0.187120  0.430010  1
  Cu  Cu6  1  0.061700  0.687120  0.069990  1
  Cu  Cu7  1  0.561700  0.812880  0.569990  1
  Cu  Cu8  1  0.938300  0.312880  0.930010  1
  Cu  Cu9  1  0.505840  0.324320  0.132200  1
  Cu  Cu10  1  0.994160  0.824320  0.367800  1
  Cu  Cu11  1  0.494160  0.675680  0.867800  1
  Cu  Cu12  1  0.005840  0.175680  0.632200  1
  Cu  Cu13  1  0.532800  0.364630  0.070530  1
  Cu  Cu14  1  0.967200  0.864630  0.429470  1
  Cu  Cu15  1  0.467200  0.635370  0.929470  1
  Cu  Cu16  1  0.032800  0.135370  0.570530  1
  H  H17  1  0.415200  0.049700  0.392000  1
  H  H18  1  0.084800  0.549700  0.108000  1
  H  H19  1  0.584800  0.950300  0.608000  1
  H  H20  1  0.915200  0.450300  0.892000  1
  H  H21  1  0.427600  0.976800  0.366100  1
  H  H22  1  0.072400  0.476800  0.133900  1
  H  H23  1  0.572400  0.023200  0.633900  1
  H  H24  1  0.927600  0.523200  0.866100  1
  H  H25  1  0.451400  0.968200  0.305700  1
  H  H26  1  0.048600  0.468200  0.194300  1
  H  H27  1  0.548600  0.031800  0.694300  1
  H  H28  1  0.951400  0.531800  0.805700  1
  H  H29  1  0.449500  0.107800  0.293700  1
  H  H30  1  0.050500  0.607800  0.206300  1
  H  H31  1  0.550500  0.892200  0.706300  1
  H  H32  1  0.949500  0.392200  0.793700  1
  H  H33  1  0.484400  0.941100  0.193600  1
  H  H34  1  0.015600  0.441100  0.306400  1
  H  H35  1  0.515600  0.058900  0.806400  1
  H  H36  1  0.984400  0.558900  0.693600  1
  H  H37  1  0.495500  0.980700  0.088000  1
  H  H38  1  0.004500  0.480700  0.412000  1
  H  H39  1  0.504500  0.019300  0.912000  1
  H  H40  1  0.995500  0.519300  0.588000  1
  H  H41  1  0.477200  0.076800  0.166600  1
  H  H42  1  0.022800  0.576800  0.333400  1
  H  H43  1  0.522800  0.923200  0.833400  1
  H  H44  1  0.977200  0.423200  0.666600  1
  H  H45  1  0.477800  0.187200  0.092200  1
  H  H46  1  0.022200  0.687200  0.407800  1
  H  H47  1  0.522200  0.812800  0.907800  1
  H  H48  1  0.977800  0.312800  0.592200  1
  H  H49  1  0.492100  0.108200  0.000700  1
  H  H50  1  0.007900  0.608200  0.499300  1
  H  H51  1  0.507900  0.891800  0.999300  1
  H  H52  1  0.992100  0.391800  0.500700  1
  H  H53  1  0.496300  0.174600  0.965600  1
  H  H54  1  0.003700  0.674600  0.534400  1
  H  H55  1  0.503700  0.825400  0.034400  1
  H  H56  1  0.996300  0.325400  0.465600  1
  H  H57  1  0.492500  0.247600  0.992400  1
  H  H58  1  0.007500  0.747600  0.507600  1
  H  H59  1  0.507500  0.752400  0.007600  1
  H  H60  1  0.992500  0.252400  0.492400  1
  H  H61  1  0.526600  0.900200  0.105700  1
  H  H62  1  0.973400  0.400200  0.394300  1
  H  H63  1  0.473400  0.099800  0.894300  1
  H  H64  1  0.026600  0.599800  0.605700  1
  H  H65  1  0.531200  0.884500  0.148400  1
  H  H66  1  0.968800  0.384500  0.351600  1
  H  H67  1  0.468800  0.115500  0.851600  1
  H  H68  1  0.031200  0.615500  0.648400  1
  H  H69  1  0.714400  0.161400  0.482700  1
  H  H70  1  0.785600  0.661400  0.017300  1
  H  H71  1  0.285600  0.838600  0.517300  1
  H  H72  1  0.214400  0.338600  0.982700  1
  H  H73  1  0.866700  0.145900  0.496900  1
  H  H74  1  0.633300  0.645900  0.003100  1
  H  H75  1  0.133300  0.854100  0.503100  1
  H  H76  1  0.366700  0.354100  0.996900  1
  H  H77  1  0.954300  0.149400  0.450800  1
  H  H78  1  0.545700  0.649400  0.049200  1
  H  H79  1  0.045700  0.850600  0.549200  1
  H  H80  1  0.454300  0.350600  0.950800  1
  H  H81  1  0.739300  0.192000  0.375900  1
  H  H82  1  0.760700  0.692000  0.124100  1
  H  H83  1  0.260700  0.808000  0.624100  1
  H  H84  1  0.239300  0.308000  0.875900  1
  H  H85  1  0.103600  0.136100  0.349700  1
  H  H86  1  0.396400  0.636100  0.150300  1
  H  H87  1  0.896400  0.863900  0.650300  1
  H  H88  1  0.603600  0.363900  0.849700  1
  H  H89  1  0.120300  0.176100  0.244700  1
  H  H90  1  0.379700  0.676100  0.255300  1
  H  H91  1  0.879700  0.823900  0.755300  1
  H  H92  1  0.620300  0.323900  0.744700  1
  H  H93  1  0.900000  0.208300  0.287600  1
  H  H94  1  0.600000  0.708300  0.212400  1
  H  H95  1  0.100000  0.791700  0.712400  1
  H  H96  1  0.400000  0.291700  0.787600  1
  H  H97  1  0.772300  0.275100  0.176500  1
  H  H98  1  0.727700  0.775100  0.323500  1
  H  H99  1  0.227700  0.724900  0.823500  1
  H  H100  1  0.272300  0.224900  0.676500  1
  H  H101  1  0.009600  0.257200  0.142500  1
  H  H102  1  0.490400  0.757200  0.357500  1
  H  H103  1  0.990400  0.742800  0.857500  1
  H  H104  1  0.509600  0.242800  0.642500  1
  H  H105  1  0.952700  0.296200  0.086600  1
  H  H106  1  0.547300  0.796200  0.413400  1
  H  H107  1  0.047300  0.703800  0.913400  1
  H  H108  1  0.452700  0.203800  0.586600  1
  H  H109  1  0.808100  0.325100  0.076200  1
  H  H110  1  0.691900  0.825100  0.423800  1
  H  H111  1  0.191900  0.674900  0.923800  1
  H  H112  1  0.308100  0.174900  0.576200  1
  H  H113  1  0.260900  0.152600  0.298800  1
  H  H114  1  0.239100  0.652600  0.201200  1
  H  H115  1  0.739100  0.847400  0.701200  1
  H  H116  1  0.760900  0.347400  0.798800  1
  H  H117  1  0.232800  0.116500  0.328100  1
  H  H118  1  0.267200  0.616500  0.171900  1
  H  H119  1  0.767200  0.883500  0.671900  1
  H  H120  1  0.732800  0.383500  0.828100  1
  H  H121  1  0.169600  0.224900  0.429300  1
  H  H122  1  0.330400  0.724900  0.070700  1
  H  H123  1  0.830400  0.775100  0.570700  1
  H  H124  1  0.669600  0.275100  0.929300  1
  H  H125  1  0.025000  0.255000  0.422200  1
  H  H126  1  0.475000  0.755000  0.077800  1
  H  H127  1  0.975000  0.745000  0.577800  1
  H  H128  1  0.525000  0.245000  0.922200  1
  H  H129  1  0.960300  0.290300  0.366200  1
  H  H130  1  0.539700  0.790300  0.133800  1
  H  H131  1  0.039700  0.709700  0.633800  1
  H  H132  1  0.460300  0.209700  0.866200  1
  H  H133  1  0.187700  0.269000  0.325500  1
  H  H134  1  0.312300  0.769000  0.174500  1
  H  H135  1  0.812300  0.731000  0.674500  1
  H  H136  1  0.687700  0.231000  0.825500  1
  H  H137  1  0.841600  0.361700  0.256700  1
  H  H138  1  0.658400  0.861700  0.243300  1
  H  H139  1  0.158400  0.638300  0.743300  1
  H  H140  1  0.341600  0.138300  0.756700  1
  H  H141  1  0.861900  0.405000  0.153200  1
  H  H142  1  0.638100  0.905000  0.346800  1
  H  H143  1  0.138100  0.595000  0.846800  1
  H  H144  1  0.361900  0.095000  0.653200  1
  H  H145  1  0.072300  0.341100  0.218800  1
  H  H146  1  0.427700  0.841100  0.281200  1
  H  H147  1  0.927700  0.658900  0.781200  1
  H  H148  1  0.572300  0.158900  0.718800  1
  H  H149  1  0.231300  0.354400  0.125300  1
  H  H150  1  0.268700  0.854400  0.374700  1
  H  H151  1  0.768700  0.645600  0.874700  1
  H  H152  1  0.731300  0.145600  0.625300  1
  H  H153  1  0.031400  0.429700  0.063800  1
  H  H154  1  0.468600  0.929700  0.436200  1
  H  H155  1  0.968600  0.570300  0.936200  1
  H  H156  1  0.531400  0.070300  0.563800  1
  H  H157  1  0.120800  0.444400  0.020400  1
  H  H158  1  0.379200  0.944400  0.479600  1
  H  H159  1  0.879200  0.555600  0.979600  1
  H  H160  1  0.620800  0.055600  0.520400  1
  H  H161  1  0.265500  0.416000  0.028800  1
  H  H162  1  0.234500  0.916000  0.471200  1
  H  H163  1  0.734500  0.584000  0.971200  1
  H  H164  1  0.765500  0.084000  0.528800  1
  H  H165  1  0.728000  0.417800  0.172700  1
  H  H166  1  0.772000  0.917800  0.327300  1
  H  H167  1  0.272000  0.582200  0.827300  1
  H  H168  1  0.228000  0.082200  0.672700  1
  H  H169  1  0.703400  0.376800  0.198900  1
  H  H170  1  0.796600  0.876800  0.301100  1
  H  H171  1  0.296600  0.623200  0.801100  1
  H  H172  1  0.203400  0.123200  0.698900  1
  H  H173  1  0.482800  0.305000  0.506000  1
  H  H174  1  0.017200  0.805000  0.994000  1
  H  H175  1  0.517200  0.695000  0.494000  1
  H  H176  1  0.982800  0.195000  0.006000  1
  H  H177  1  0.502800  0.376700  0.535400  1
  H  H178  1  0.997200  0.876700  0.964600  1
  H  H179  1  0.497200  0.623300  0.464600  1
  H  H180  1  0.002800  0.123300  0.035400  1
  H  H181  1  0.514800  0.443700  0.500200  1
  H  H182  1  0.985200  0.943700  0.999800  1
  H  H183  1  0.485200  0.556300  0.499800  1
  H  H184  1  0.014800  0.056300  0.000200  1
  H  H185  1  0.498900  0.364800  0.407200  1
  H  H186  1  0.001100  0.864800  0.092800  1
  H  H187  1  0.501100  0.635200  0.592800  1
  H  H188  1  0.998900  0.135200  0.907200  1
  H  H189  1  0.510000  0.572000  0.414900  1
  H  H190  1  0.990000  0.072000  0.085100  1
  H  H191  1  0.490000  0.428000  0.585100  1
  H  H192  1  0.010000  0.928000  0.914900  1
  H  H193  1  0.517300  0.612500  0.308700  1
  H  H194  1  0.982700  0.112500  0.191300  1
  H  H195  1  0.482700  0.387500  0.691300  1
  H  H196  1  0.017300  0.887500  0.808700  1
  H  H197  1  0.523100  0.476300  0.334100  1
  H  H198  1  0.976900  0.976300  0.165900  1
  H  H199  1  0.476900  0.523700  0.665900  1
  H  H200  1  0.023100  0.023700  0.834100  1
  H  H201  1  0.526700  0.446100  0.205700  1
  H  H202  1  0.973300  0.946100  0.294300  1
  H  H203  1  0.473300  0.553900  0.794300  1
  H  H204  1  0.026700  0.053900  0.705700  1
  H  H205  1  0.563900  0.583600  0.197700  1
  H  H206  1  0.936100  0.083600  0.302300  1
  H  H207  1  0.436100  0.416400  0.802300  1
  H  H208  1  0.063900  0.916400  0.697700  1
  H  H209  1  0.583000  0.575100  0.135900  1
  H  H210  1  0.917000  0.075100  0.364100  1
  H  H211  1  0.417000  0.424900  0.864100  1
  H  H212  1  0.083000  0.924900  0.635900  1
  H  H213  1  0.576200  0.501200  0.108900  1
  H  H214  1  0.923800  0.001200  0.391100  1
  H  H215  1  0.423800  0.498800  0.891100  1
  H  H216  1  0.076200  0.998800  0.608900  1
  H  H217  1  0.547800  0.654300  0.399900  1
  H  H218  1  0.952200  0.154300  0.100100  1
  H  H219  1  0.452200  0.345700  0.600100  1
  H  H220  1  0.047800  0.845700  0.899900  1
  H  H221  1  0.530900  0.669600  0.356700  1
  H  H222  1  0.969100  0.169600  0.143300  1
  H  H223  1  0.469100  0.330400  0.643300  1
  H  H224  1  0.030900  0.830400  0.856700  1
  H  H225  1  0.261400  0.840000  0.061800  1
  H  H226  1  0.238600  0.340000  0.438200  1
  H  H227  1  0.738600  0.160000  0.938200  1
  H  H228  1  0.761400  0.660000  0.561800  1
  H  H229  1  0.226000  0.892300  0.060400  1
  H  H230  1  0.274000  0.392300  0.439600  1
  H  H231  1  0.774000  0.107700  0.939600  1
  H  H232  1  0.726000  0.607700  0.560400  1
  H  H233  1  0.177000  0.844200  0.107900  1
  H  H234  1  0.323000  0.344200  0.392100  1
  H  H235  1  0.823000  0.155800  0.892100  1
  H  H236  1  0.677000  0.655800  0.607900  1
  H  H237  1  0.278600  0.844500  0.129900  1
  H  H238  1  0.221400  0.344500  0.370100  1
  H  H239  1  0.721400  0.155500  0.870100  1
  H  H240  1  0.778600  0.655500  0.629900  1
  H  H241  1  0.191700  0.930400  0.109600  1
  H  H242  1  0.308300  0.430400  0.390400  1
  H  H243  1  0.808300  0.069600  0.890400  1
  H  H244  1  0.691700  0.569600  0.609600  1
  H  H245  1  0.275500  0.921200  0.142600  1
  H  H246  1  0.224500  0.421200  0.357400  1
  H  H247  1  0.724500  0.078800  0.857400  1
  H  H248  1  0.775500  0.578800  0.642600  1
  H  H249  1  0.144000  0.933000  0.167800  1
  H  H250  1  0.356000  0.433000  0.332200  1
  H  H251  1  0.856000  0.067000  0.832200  1
  H  H252  1  0.644000  0.567000  0.667800  1
  H  H253  1  0.097300  0.890100  0.143800  1
  H  H254  1  0.402700  0.390100  0.356200  1
  H  H255  1  0.902700  0.109900  0.856200  1
  H  H256  1  0.597300  0.609900  0.643800  1
  H  H257  1  0.215700  0.841300  0.177000  1
  H  H258  1  0.284300  0.341300  0.323000  1
  H  H259  1  0.784300  0.158700  0.823000  1
  H  H260  1  0.715700  0.658700  0.677000  1
  H  H261  1  0.150400  0.861500  0.203100  1
  H  H262  1  0.349600  0.361500  0.296900  1
  H  H263  1  0.849600  0.138500  0.796900  1
  H  H264  1  0.650400  0.638500  0.703100  1
  H  H265  1  0.303400  0.870700  0.231900  1
  H  H266  1  0.196600  0.370700  0.268100  1
  H  H267  1  0.696600  0.129300  0.768100  1
  H  H268  1  0.803400  0.629300  0.731900  1
  H  H269  1  0.318900  0.902200  0.197300  1
  H  H270  1  0.181100  0.402200  0.302700  1
  H  H271  1  0.681100  0.097800  0.802700  1
  H  H272  1  0.818900  0.597800  0.697300  1
  H  H273  1  0.185400  0.945600  0.216800  1
  H  H274  1  0.314600  0.445600  0.283200  1
  H  H275  1  0.814600  0.054400  0.783200  1
  H  H276  1  0.685400  0.554400  0.716800  1
  H  H277  1  0.287300  0.960100  0.232000  1
  H  H278  1  0.212700  0.460100  0.268000  1
  H  H279  1  0.712700  0.039900  0.768000  1
  H  H280  1  0.787300  0.539900  0.732000  1
  H  H281  1  0.289200  0.909500  0.284700  1
  H  H282  1  0.210800  0.409500  0.215300  1
  H  H283  1  0.710800  0.090500  0.715300  1
  H  H284  1  0.789200  0.590500  0.784700  1
  H  H285  1  0.185000  0.899300  0.270000  1
  H  H286  1  0.315000  0.399300  0.230000  1
  H  H287  1  0.815000  0.100700  0.730000  1
  H  H288  1  0.685000  0.600700  0.770000  1
  H  H289  1  0.256000  0.989400  0.290800  1
  H  H290  1  0.244000  0.489400  0.209200  1
  H  H291  1  0.744000  0.010600  0.709200  1
  H  H292  1  0.756000  0.510600  0.790800  1
  H  H293  1  0.151800  0.978500  0.277000  1
  H  H294  1  0.348200  0.478500  0.223000  1
  H  H295  1  0.848200  0.021500  0.723000  1
  H  H296  1  0.651800  0.521500  0.777000  1
  H  H297  1  0.255100  0.937400  0.342800  1
  H  H298  1  0.244900  0.437400  0.157200  1
  H  H299  1  0.744900  0.062600  0.657200  1
  H  H300  1  0.755100  0.562600  0.842800  1
  H  H301  1  0.148700  0.933200  0.330100  1
  H  H302  1  0.351300  0.433200  0.169900  1
  H  H303  1  0.851300  0.066800  0.669900  1
  H  H304  1  0.648700  0.566800  0.830100  1
  H  H305  1  0.188200  0.990000  0.377800  1
  H  H306  1  0.311800  0.490000  0.122200  1
  H  H307  1  0.811800  0.010000  0.622200  1
  H  H308  1  0.688200  0.510000  0.877800  1
  H  H309  1  0.131700  0.012200  0.340400  1
  H  H310  1  0.368300  0.512200  0.159600  1
  H  H311  1  0.868300  0.987800  0.659600  1
  H  H312  1  0.631700  0.487800  0.840400  1
  H  H313  1  0.237900  0.018900  0.350100  1
  H  H314  1  0.262100  0.518900  0.149900  1
  H  H315  1  0.762100  0.981100  0.649900  1
  H  H316  1  0.737900  0.481100  0.850100  1
  H  H317  1  0.278200  0.038400  0.221500  1
  H  H318  1  0.221800  0.538400  0.278500  1
  H  H319  1  0.721800  0.961600  0.778500  1
  H  H320  1  0.778200  0.461600  0.721500  1
  H  H321  1  0.173100  0.048200  0.210400  1
  H  H322  1  0.326900  0.548200  0.289600  1
  H  H323  1  0.826900  0.951800  0.789600  1
  H  H324  1  0.673100  0.451800  0.710400  1
  H  H325  1  0.306400  0.094100  0.177500  1
  H  H326  1  0.193600  0.594100  0.322500  1
  H  H327  1  0.693600  0.905900  0.822500  1
  H  H328  1  0.806400  0.405900  0.677500  1
  H  H329  1  0.201600  0.105400  0.166800  1
  H  H330  1  0.298400  0.605400  0.333200  1
  H  H331  1  0.798400  0.894600  0.833200  1
  H  H332  1  0.701600  0.394600  0.666800  1
  H  H333  1  0.175400  0.026800  0.146300  1
  H  H334  1  0.324600  0.526800  0.353700  1
  H  H335  1  0.824600  0.973200  0.853700  1
  H  H336  1  0.675400  0.473200  0.646300  1
  H  H337  1  0.281400  0.018400  0.154400  1
  H  H338  1  0.218600  0.518400  0.345600  1
  H  H339  1  0.718600  0.981600  0.845600  1
  H  H340  1  0.781400  0.481600  0.654400  1
  H  H341  1  0.190000  0.083100  0.100800  1
  H  H342  1  0.310000  0.583100  0.399200  1
  H  H343  1  0.810000  0.916900  0.899200  1
  H  H344  1  0.690000  0.416900  0.600800  1
  H  H345  1  0.296600  0.077300  0.109600  1
  H  H346  1  0.203400  0.577300  0.390400  1
  H  H347  1  0.703400  0.922700  0.890400  1
  H  H348  1  0.796600  0.422700  0.609600  1
  H  H349  1  0.173500  0.006200  0.078800  1
  H  H350  1  0.326500  0.506200  0.421200  1
  H  H351  1  0.826500  0.993800  0.921200  1
  H  H352  1  0.673500  0.493800  0.578800  1
  H  H353  1  0.279500  0.998600  0.089300  1
  H  H354  1  0.220500  0.498600  0.410700  1
  H  H355  1  0.720500  0.001400  0.910700  1
  H  H356  1  0.779500  0.501400  0.589300  1
  H  H357  1  0.195300  0.063700  0.034400  1
  H  H358  1  0.304700  0.563700  0.465600  1
  H  H359  1  0.804700  0.936300  0.965600  1
  H  H360  1  0.695300  0.436300  0.534400  1
  H  H361  1  0.301200  0.055300  0.044700  1
  H  H362  1  0.198800  0.555300  0.455300  1
  H  H363  1  0.698800  0.944700  0.955300  1
  H  H364  1  0.801200  0.444700  0.544700  1
  H  H365  1  0.275600  0.976100  0.024600  1
  H  H366  1  0.224400  0.476100  0.475400  1
  H  H367  1  0.724400  0.023900  0.975400  1
  H  H368  1  0.775600  0.523900  0.524600  1
  H  H369  1  0.172100  0.988500  0.010800  1
  H  H370  1  0.327900  0.488500  0.489200  1
  H  H371  1  0.827900  0.011500  0.989200  1
  H  H372  1  0.672100  0.511500  0.510800  1
  H  H373  1  0.313900  0.033400  0.982400  1
  H  H374  1  0.186100  0.533400  0.517600  1
  H  H375  1  0.686100  0.966600  0.017600  1
  H  H376  1  0.813900  0.466600  0.482400  1
  H  H377  1  0.209400  0.042100  0.967300  1
  H  H378  1  0.290600  0.542100  0.532700  1
  H  H379  1  0.790600  0.957900  0.032700  1
  H  H380  1  0.709400  0.457900  0.467300  1
  H  H381  1  0.297400  0.955500  0.961700  1
  H  H382  1  0.202600  0.455500  0.538300  1
  H  H383  1  0.702600  0.044500  0.038300  1
  H  H384  1  0.797400  0.544500  0.461700  1
  H  H385  1  0.192700  0.963900  0.946900  1
  H  H386  1  0.307300  0.463900  0.553100  1
  H  H387  1  0.807300  0.036100  0.053100  1
  H  H388  1  0.692700  0.536100  0.446900  1
  H  H389  1  0.267000  0.970500  0.896000  1
  H  H390  1  0.233000  0.470500  0.604000  1
  H  H391  1  0.733000  0.029500  0.104000  1
  H  H392  1  0.767000  0.529500  0.396000  1
  H  H393  1  0.333400  0.008600  0.917900  1
  H  H394  1  0.166600  0.508600  0.582100  1
  H  H395  1  0.666600  0.991400  0.082100  1
  H  H396  1  0.833400  0.491400  0.417900  1
  H  H397  1  0.158500  0.020900  0.880000  1
  H  H398  1  0.341500  0.520900  0.620000  1
  H  H399  1  0.841500  0.979100  0.120000  1
  H  H400  1  0.658500  0.479100  0.380000  1
  H  H401  1  0.237200  0.058400  0.887800  1
  H  H402  1  0.262800  0.558400  0.612200  1
  H  H403  1  0.762800  0.941600  0.112200  1
  H  H404  1  0.737200  0.441600  0.387800  1
  H  H405  1  0.180100  0.046900  0.919500  1
  H  H406  1  0.319900  0.546900  0.580500  1
  H  H407  1  0.819900  0.953100  0.080500  1
  H  H408  1  0.680100  0.453100  0.419500  1
  H  H409  1  0.765200  0.497200  0.273800  1
  H  H410  1  0.734800  0.997200  0.226200  1
  H  H411  1  0.234800  0.502800  0.726200  1
  H  H412  1  0.265200  0.002800  0.773800  1
  H  H413  1  0.844800  0.564200  0.236600  1
  H  H414  1  0.655200  0.064200  0.263400  1
  H  H415  1  0.155200  0.435800  0.763400  1
  H  H416  1  0.344800  0.935800  0.736600  1
  H  H417  1  0.738900  0.572700  0.226600  1
  H  H418  1  0.761100  0.072700  0.273400  1
  H  H419  1  0.261100  0.427300  0.773400  1
  H  H420  1  0.238900  0.927300  0.726600  1
  H  H421  1  0.737900  0.575400  0.293100  1
  H  H422  1  0.762100  0.075400  0.206900  1
  H  H423  1  0.262100  0.424600  0.706900  1
  H  H424  1  0.237900  0.924600  0.793100  1
  H  H425  1  0.844900  0.573200  0.300500  1
  H  H426  1  0.655100  0.073200  0.199500  1
  H  H427  1  0.155100  0.426800  0.699500  1
  H  H428  1  0.344900  0.926800  0.800500  1
  H  H429  1  0.734300  0.647300  0.267900  1
  H  H430  1  0.765700  0.147300  0.232100  1
  H  H431  1  0.265700  0.352700  0.732100  1
  H  H432  1  0.234300  0.852700  0.767900  1
  H  H433  1  0.832800  0.642500  0.258500  1
  H  H434  1  0.667200  0.142500  0.241500  1
  H  H435  1  0.167200  0.357500  0.741500  1
  H  H436  1  0.332800  0.857500  0.758500  1
  H  H437  1  0.888200  0.641400  0.326300  1
  H  H438  1  0.611800  0.141400  0.173700  1
  H  H439  1  0.111800  0.358600  0.673700  1
  H  H440  1  0.388200  0.858600  0.826300  1
  H  H441  1  0.850700  0.690400  0.309600  1
  H  H442  1  0.649300  0.190400  0.190400  1
  H  H443  1  0.149300  0.309600  0.690400  1
  H  H444  1  0.350700  0.809600  0.809600  1
  H  H445  1  0.746000  0.625600  0.342800  1
  H  H446  1  0.754000  0.125600  0.157200  1
  H  H447  1  0.254000  0.374400  0.657200  1
  H  H448  1  0.246000  0.874400  0.842800  1
  H  H449  1  0.712700  0.676100  0.328100  1
  H  H450  1  0.787300  0.176100  0.171900  1
  H  H451  1  0.287300  0.323900  0.671900  1
  H  H452  1  0.212700  0.823900  0.828100  1
  H  H453  1  0.858500  0.659400  0.388900  1
  H  H454  1  0.641500  0.159400  0.111100  1
  H  H455  1  0.141500  0.340600  0.611100  1
  H  H456  1  0.358500  0.840600  0.888900  1
  H  H457  1  0.826800  0.710000  0.373800  1
  H  H458  1  0.673200  0.210000  0.126200  1
  H  H459  1  0.173200  0.290000  0.626200  1
  H  H460  1  0.326800  0.790000  0.873800  1
  H  H461  1  0.718700  0.646500  0.406500  1
  H  H462  1  0.781300  0.146500  0.093500  1
  H  H463  1  0.281300  0.353500  0.593500  1
  H  H464  1  0.218700  0.853500  0.906500  1
  H  H465  1  0.684200  0.696100  0.390200  1
  H  H466  1  0.815800  0.196100  0.109800  1
  H  H467  1  0.315800  0.303900  0.609800  1
  H  H468  1  0.184200  0.803900  0.890200  1
  H  H469  1  0.830200  0.682800  0.451400  1
  H  H470  1  0.669800  0.182800  0.048600  1
  H  H471  1  0.169800  0.317200  0.548600  1
  H  H472  1  0.330200  0.817200  0.951400  1
  H  H473  1  0.796400  0.732400  0.435000  1
  H  H474  1  0.703600  0.232400  0.065000  1
  H  H475  1  0.203600  0.267600  0.565000  1
  H  H476  1  0.296400  0.767600  0.935000  1
  H  H477  1  0.702500  0.670300  0.473600  1
  H  H478  1  0.797500  0.170300  0.026400  1
  H  H479  1  0.297500  0.329700  0.526400  1
  H  H480  1  0.202500  0.829700  0.973600  1
  H  H481  1  0.654500  0.713900  0.451300  1
  H  H482  1  0.845500  0.213900  0.048700  1
  H  H483  1  0.345500  0.286100  0.548700  1
  H  H484  1  0.154500  0.786100  0.951300  1
  H  H485  1  0.699800  0.732500  0.515000  1
  H  H486  1  0.800200  0.232500  0.985000  1
  H  H487  1  0.300200  0.267500  0.485000  1
  H  H488  1  0.199800  0.767500  0.015000  1
  H  H489  1  0.752700  0.764100  0.490200  1
  H  H490  1  0.747300  0.264100  0.009800  1
  H  H491  1  0.247300  0.235900  0.509800  1
  H  H492  1  0.252700  0.735900  0.990200  1
  H  H493  1  0.801200  0.720600  0.512500  1
  H  H494  1  0.698800  0.220600  0.987500  1
  H  H495  1  0.198800  0.279400  0.487500  1
  H  H496  1  0.301200  0.779400  0.012500  1
  H  H497  1  0.277300  0.680600  0.412000  1
  H  H498  1  0.222700  0.180600  0.088000  1
  H  H499  1  0.722700  0.319400  0.588000  1
  H  H500  1  0.777300  0.819400  0.912000  1
  H  H501  1  0.274800  0.713300  0.376200  1
  H  H502  1  0.225200  0.213300  0.123800  1
  H  H503  1  0.725200  0.286700  0.623800  1
  H  H504  1  0.774800  0.786700  0.876200  1
  H  H505  1  0.364000  0.758000  0.438600  1
  H  H506  1  0.136000  0.258000  0.061400  1
  H  H507  1  0.636000  0.242000  0.561400  1
  H  H508  1  0.864000  0.742000  0.938600  1
  H  H509  1  0.276200  0.775300  0.410500  1
  H  H510  1  0.223800  0.275300  0.089500  1
  H  H511  1  0.723800  0.224700  0.589500  1
  H  H512  1  0.776200  0.724700  0.910500  1
  H  H513  1  0.187700  0.726900  0.443300  1
  H  H514  1  0.312300  0.226900  0.056700  1
  H  H515  1  0.812300  0.273100  0.556700  1
  H  H516  1  0.687700  0.773100  0.943300  1
  H  H517  1  0.238300  0.767100  0.469400  1
  H  H518  1  0.261700  0.267100  0.030600  1
  H  H519  1  0.761700  0.232900  0.530600  1
  H  H520  1  0.738300  0.732900  0.969400  1
  H  H521  1  0.359000  0.704900  0.484100  1
  H  H522  1  0.141000  0.204900  0.015900  1
  H  H523  1  0.641000  0.295100  0.515900  1
  H  H524  1  0.859000  0.795100  0.984100  1
  H  H525  1  0.274300  0.671300  0.473300  1
  H  H526  1  0.225700  0.171300  0.026700  1
  H  H527  1  0.725700  0.328700  0.526700  1
  H  H528  1  0.774300  0.828700  0.973300  1
  H  H529  1  0.317200  0.729300  0.536200  1
  H  H530  1  0.182800  0.229300  0.963800  1
  H  H531  1  0.682800  0.270700  0.463800  1
  H  H532  1  0.817200  0.770700  0.036200  1
  H  H533  1  0.212800  0.726500  0.518300  1
  H  H534  1  0.287200  0.226500  0.981700  1
  H  H535  1  0.787200  0.273500  0.481700  1
  H  H536  1  0.712800  0.773500  0.018300  1
  H  H537  1  0.218800  0.644400  0.524100  1
  H  H538  1  0.281200  0.144400  0.975900  1
  H  H539  1  0.781200  0.355600  0.475900  1
  H  H540  1  0.718800  0.855600  0.024100  1
  H  H541  1  0.322700  0.647800  0.542800  1
  H  H542  1  0.177300  0.147800  0.957200  1
  H  H543  1  0.677300  0.352200  0.457200  1
  H  H544  1  0.822700  0.852200  0.042800  1
  H  H545  1  0.174200  0.676300  0.574700  1
  H  H546  1  0.325800  0.176300  0.925300  1
  H  H547  1  0.825800  0.323700  0.425300  1
  H  H548  1  0.674200  0.823700  0.074700  1
  H  H549  1  0.270100  0.699200  0.589700  1
  H  H550  1  0.229900  0.199200  0.910300  1
  H  H551  1  0.729900  0.300800  0.410300  1
  H  H552  1  0.770100  0.800800  0.089700  1
  H  H553  1  0.238800  0.601400  0.589500  1
  H  H554  1  0.261200  0.101400  0.910500  1
  H  H555  1  0.761200  0.398600  0.410500  1
  H  H556  1  0.738800  0.898600  0.089500  1
  H  H557  1  0.332100  0.625800  0.606500  1
  H  H558  1  0.167900  0.125800  0.893500  1
  H  H559  1  0.667900  0.374200  0.393500  1
  H  H560  1  0.832100  0.874200  0.106500  1
  H  H561  1  0.280300  0.654400  0.656300  1
  H  H562  1  0.219700  0.154400  0.843700  1
  H  H563  1  0.719700  0.345600  0.343700  1
  H  H564  1  0.780300  0.845600  0.156300  1
  H  H565  1  0.178100  0.652200  0.635300  1
  H  H566  1  0.321900  0.152200  0.864700  1
  H  H567  1  0.821900  0.347800  0.364700  1
  H  H568  1  0.678100  0.847800  0.135300  1
  H  H569  1  0.227700  0.592400  0.683800  1
  H  H570  1  0.272300  0.092400  0.816200  1
  H  H571  1  0.772300  0.407600  0.316200  1
  H  H572  1  0.727700  0.907600  0.183800  1
  H  H573  1  0.167700  0.575200  0.645200  1
  H  H574  1  0.332300  0.075200  0.854800  1
  H  H575  1  0.832300  0.424800  0.354800  1
  H  H576  1  0.667700  0.924800  0.145200  1
  H  H577  1  0.275400  0.529000  0.637600  1
  H  H578  1  0.224600  0.029000  0.862400  1
  H  H579  1  0.724600  0.471000  0.362400  1
  H  H580  1  0.775400  0.971000  0.137600  1
  H  H581  1  0.338400  0.549500  0.674200  1
  H  H582  1  0.161600  0.049500  0.825800  1
  H  H583  1  0.661600  0.450500  0.325800  1
  H  H584  1  0.838400  0.950500  0.174200  1
  H  H585  1  0.336900  0.573100  0.634200  1
  H  H586  1  0.163100  0.073100  0.865800  1
  H  H587  1  0.663100  0.426900  0.365800  1
  H  H588  1  0.836900  0.926900  0.134200  1
  H  H589  1  0.616300  0.253300  0.331300  1
  H  H590  1  0.883700  0.753300  0.168700  1
  H  H591  1  0.383700  0.746700  0.668700  1
  H  H592  1  0.116300  0.246700  0.831300  1
  H  H593  1  0.728600  0.286700  0.307400  1
  H  H594  1  0.771400  0.786700  0.192600  1
  H  H595  1  0.271400  0.713300  0.692600  1
  H  H596  1  0.228600  0.213300  0.807400  1
  H  H597  1  0.708500  0.331900  0.281700  1
  H  H598  1  0.791500  0.831900  0.218300  1
  H  H599  1  0.291500  0.668100  0.718300  1
  H  H600  1  0.208500  0.168100  0.781700  1
  H  H601  1  0.763300  0.272900  0.247800  1
  H  H602  1  0.736700  0.772900  0.252200  1
  H  H603  1  0.236700  0.727100  0.752200  1
  H  H604  1  0.263300  0.227100  0.747800  1
  H  H605  1  0.662300  0.284300  0.228600  1
  H  H606  1  0.837700  0.784300  0.271400  1
  H  H607  1  0.337700  0.715700  0.771400  1
  H  H608  1  0.162300  0.215700  0.728600  1
  H  H609  1  0.684000  0.239400  0.254400  1
  H  H610  1  0.816000  0.739400  0.245600  1
  H  H611  1  0.316000  0.760600  0.745600  1
  H  H612  1  0.184000  0.260600  0.754400  1
  H  H613  1  0.471700  0.318300  0.266800  1
  H  H614  1  0.028300  0.818300  0.233200  1
  H  H615  1  0.528300  0.681700  0.733200  1
  H  H616  1  0.971700  0.181700  0.766800  1
  H  H617  1  0.544800  0.329300  0.241400  1
  H  H618  1  0.955200  0.829300  0.258600  1
  H  H619  1  0.455200  0.670700  0.758600  1
  H  H620  1  0.044800  0.170700  0.741400  1
  H  H621  1  0.497300  0.399300  0.265800  1
  H  H622  1  0.002700  0.899300  0.234200  1
  H  H623  1  0.502700  0.600700  0.734200  1
  H  H624  1  0.997300  0.100700  0.765800  1
  H  H625  1  0.601200  0.391400  0.282300  1
  H  H626  1  0.898800  0.891400  0.217700  1
  H  H627  1  0.398800  0.608600  0.717700  1
  H  H628  1  0.101200  0.108600  0.782300  1
  H  H629  1  0.528200  0.380400  0.307700  1
  H  H630  1  0.971800  0.880400  0.192300  1
  H  H631  1  0.471800  0.619600  0.692300  1
  H  H632  1  0.028200  0.119600  0.807700  1
  H  H633  1  0.382800  0.125300  0.476700  1
  H  H634  1  0.117200  0.625300  0.023300  1
  H  H635  1  0.617200  0.874700  0.523300  1
  H  H636  1  0.882800  0.374700  0.976700  1
  H  H637  1  0.435700  0.148200  0.533700  1
  H  H638  1  0.064300  0.648200  0.966300  1
  H  H639  1  0.564300  0.851800  0.466300  1
  H  H640  1  0.935700  0.351800  0.033700  1
  H  H641  1  0.429000  0.199200  0.516400  1
  H  H642  1  0.071000  0.699200  0.983600  1
  H  H643  1  0.571000  0.800800  0.483600  1
  H  H644  1  0.929000  0.300800  0.016400  1
  H  H645  1  0.517000  0.168900  0.516600  1
  H  H646  1  0.983000  0.668900  0.983400  1
  H  H647  1  0.483000  0.831100  0.483400  1
  H  H648  1  0.017000  0.331100  0.016600  1
  H  H649  1  0.358800  0.308700  0.176400  1
  H  H650  1  0.141200  0.808700  0.323600  1
  H  H651  1  0.641200  0.691300  0.823600  1
  H  H652  1  0.858800  0.191300  0.676400  1
  H  H653  1  0.494700  0.229600  0.233300  1
  H  H654  1  0.005300  0.729600  0.266700  1
  H  H655  1  0.505300  0.770400  0.766700  1
  H  H656  1  0.994700  0.270400  0.733300  1
  H  H657  1  0.414000  0.203600  0.247300  1
  H  H658  1  0.086000  0.703600  0.252700  1
  H  H659  1  0.586000  0.796400  0.752700  1
  H  H660  1  0.914000  0.296400  0.747300  1
  H  H661  1  0.481600  0.155700  0.210200  1
  H  H662  1  0.018400  0.655700  0.289800  1
  H  H663  1  0.518400  0.844300  0.789800  1
  H  H664  1  0.981600  0.344300  0.710200  1
  H  H665  1  0.459500  0.191800  0.176300  1
  H  H666  1  0.040500  0.691800  0.323700  1
  H  H667  1  0.540500  0.808200  0.823700  1
  H  H668  1  0.959500  0.308200  0.676300  1
  H  H669  1  0.380000  0.165300  0.190800  1
  H  H670  1  0.120000  0.665300  0.309200  1
  H  H671  1  0.620000  0.834700  0.809200  1
  H  H672  1  0.880000  0.334700  0.690800  1
  H  H673  1  0.254500  0.223400  0.209100  1
  H  H674  1  0.245500  0.723400  0.290900  1
  H  H675  1  0.745500  0.776600  0.790900  1
  H  H676  1  0.754500  0.276600  0.709100  1
  H  H677  1  0.245100  0.277200  0.199100  1
  H  H678  1  0.254900  0.777200  0.300900  1
  H  H679  1  0.754900  0.722800  0.800900  1
  H  H680  1  0.745100  0.222800  0.699100  1
  H  H681  1  0.206800  0.264300  0.255700  1
  H  H682  1  0.293200  0.764300  0.244300  1
  H  H683  1  0.793200  0.735700  0.744300  1
  H  H684  1  0.706800  0.235700  0.755700  1
  H  H685  1  0.295900  0.294900  0.261600  1
  H  H686  1  0.204100  0.794900  0.238400  1
  H  H687  1  0.704100  0.705100  0.738400  1
  H  H688  1  0.795900  0.205100  0.761600  1
  H  H689  1  0.301700  0.240800  0.271200  1
  H  H690  1  0.198300  0.740800  0.228800  1
  H  H691  1  0.698300  0.759200  0.728800  1
  H  H692  1  0.801700  0.259200  0.771200  1
  H  H693  1  0.650700  0.365000  0.014900  1
  H  H694  1  0.849300  0.865000  0.485100  1
  H  H695  1  0.349300  0.635000  0.985100  1
  H  H696  1  0.150700  0.135000  0.514900  1
  H  H697  1  0.744000  0.383100  0.979000  1
  H  H698  1  0.756000  0.883100  0.521000  1
  H  H699  1  0.256000  0.616900  0.021000  1
  H  H700  1  0.244000  0.116900  0.479000  1
  H  H701  1  0.741700  0.434400  0.962100  1
  H  H702  1  0.758300  0.934400  0.537900  1
  H  H703  1  0.258300  0.565600  0.037900  1
  H  H704  1  0.241700  0.065600  0.462100  1
  H  H705  1  0.741400  0.380000  0.915200  1
  H  H706  1  0.758600  0.880000  0.584800  1
  H  H707  1  0.258600  0.620000  0.084800  1
  H  H708  1  0.241400  0.120000  0.415200  1
  H  H709  1  0.650300  0.409100  0.907500  1
  H  H710  1  0.849700  0.909100  0.592500  1
  H  H711  1  0.349700  0.590900  0.092500  1
  H  H712  1  0.150300  0.090900  0.407500  1
  H  H713  1  0.651500  0.357900  0.924400  1
  H  H714  1  0.848500  0.857900  0.575600  1
  H  H715  1  0.348500  0.642100  0.075600  1
  H  H716  1  0.151500  0.142100  0.424400  1
  H  H717  1  0.511400  0.447800  0.968000  1
  H  H718  1  0.988600  0.947800  0.532000  1
  H  H719  1  0.488600  0.552200  0.032000  1
  H  H720  1  0.011400  0.052200  0.468000  1
  H  H721  1  0.564700  0.454500  0.934300  1
  H  H722  1  0.935300  0.954500  0.565700  1
  H  H723  1  0.435300  0.545500  0.065700  1
  H  H724  1  0.064700  0.045500  0.434300  1
  H  H725  1  0.565100  0.523500  0.968300  1
  H  H726  1  0.934900  0.023500  0.531700  1
  H  H727  1  0.434900  0.476500  0.031700  1
  H  H728  1  0.065100  0.976500  0.468300  1
  H  H729  1  0.665200  0.504800  0.971500  1
  H  H730  1  0.834800  0.004800  0.528500  1
  H  H731  1  0.334800  0.495200  0.028500  1
  H  H732  1  0.165200  0.995200  0.471500  1
  H  H733  1  0.613200  0.497700  0.005600  1
  H  H734  1  0.886800  0.997700  0.494400  1
  H  H735  1  0.386800  0.502300  0.994400  1
  H  H736  1  0.113200  0.002300  0.505600  1
  H  H737  1  0.887400  0.571500  0.055200  1
  H  H738  1  0.612600  0.071500  0.444800  1
  H  H739  1  0.112600  0.428500  0.944800  1
  H  H740  1  0.387400  0.928500  0.555200  1
  H  H741  1  0.829200  0.475800  0.123400  1
  H  H742  1  0.670800  0.975800  0.376600  1
  H  H743  1  0.170800  0.524200  0.876600  1
  H  H744  1  0.329200  0.024200  0.623400  1
  H  H745  1  0.900700  0.464600  0.097300  1
  H  H746  1  0.599300  0.964600  0.402700  1
  H  H747  1  0.099300  0.535400  0.902700  1
  H  H748  1  0.400700  0.035400  0.597300  1
  H  H749  1  0.777600  0.415800  0.082100  1
  H  H750  1  0.722400  0.915800  0.417900  1
  H  H751  1  0.222400  0.584200  0.917900  1
  H  H752  1  0.277600  0.084200  0.582100  1
  H  H753  1  0.784000  0.448500  0.047100  1
  H  H754  1  0.716000  0.948500  0.452900  1
  H  H755  1  0.216000  0.551500  0.952900  1
  H  H756  1  0.284000  0.051500  0.547100  1
  H  H757  1  0.712700  0.459500  0.073300  1
  H  H758  1  0.787300  0.959500  0.426700  1
  H  H759  1  0.287300  0.540500  0.926700  1
  H  H760  1  0.212700  0.040500  0.573300  1
  H  H761  1  0.721500  0.539700  0.103500  1
  H  H762  1  0.778500  0.039700  0.396500  1
  H  H763  1  0.278500  0.460300  0.896500  1
  H  H764  1  0.221500  0.960300  0.603500  1
  H  H765  1  0.756300  0.582400  0.082000  1
  H  H766  1  0.743700  0.082400  0.418000  1
  H  H767  1  0.243700  0.417600  0.918000  1
  H  H768  1  0.256300  0.917600  0.582000  1
  H  H769  1  0.781300  0.598100  0.147200  1
  H  H770  1  0.718700  0.098100  0.352800  1
  H  H771  1  0.218700  0.401900  0.852800  1
  H  H772  1  0.281300  0.901900  0.647200  1
  H  H773  1  0.875400  0.594300  0.133800  1
  H  H774  1  0.624600  0.094300  0.366200  1
  H  H775  1  0.124600  0.405700  0.866200  1
  H  H776  1  0.375400  0.905700  0.633800  1
  H  H777  1  0.839800  0.552000  0.155300  1
  H  H778  1  0.660200  0.052000  0.344700  1
  H  H779  1  0.160200  0.448000  0.844700  1
  H  H780  1  0.339800  0.948000  0.655300  1
  H  H781  1  0.259800  0.844100  0.092300  1
  H  H782  1  0.240200  0.344100  0.407700  1
  H  H783  1  0.740200  0.155900  0.907700  1
  H  H784  1  0.759800  0.655900  0.592300  1
  H  H785  1  0.248500  0.858700  0.050500  1
  H  H786  1  0.251500  0.358700  0.449500  1
  H  H787  1  0.751500  0.141300  0.949500  1
  H  H788  1  0.748500  0.641300  0.550500  1
  H  H789  1  0.230700  0.937800  0.082200  1
  H  H790  1  0.269300  0.437800  0.417800  1
  H  H791  1  0.769300  0.062200  0.917800  1
  H  H792  1  0.730700  0.562200  0.582200  1
  H  H793  1  0.146700  0.906200  0.064700  1
  H  H794  1  0.353300  0.406200  0.435300  1
  H  H795  1  0.853300  0.093800  0.935300  1
  H  H796  1  0.646700  0.593800  0.564700  1
  H  H797  1  0.206100  0.870800  0.133000  1
  H  H798  1  0.293900  0.370800  0.367000  1
  H  H799  1  0.793900  0.129200  0.867000  1
  H  H800  1  0.706100  0.629200  0.633000  1
  H  H801  1  0.114900  0.899200  0.120500  1
  H  H802  1  0.385100  0.399200  0.379500  1
  H  H803  1  0.885100  0.100800  0.879500  1
  H  H804  1  0.614900  0.600800  0.620500  1
  H  H805  1  0.284000  0.942100  0.148200  1
  H  H806  1  0.216000  0.442100  0.351800  1
  H  H807  1  0.716000  0.057900  0.851800  1
  H  H808  1  0.784000  0.557900  0.648200  1
  H  H809  1  0.191000  0.969400  0.137400  1
  H  H810  1  0.309000  0.469400  0.362600  1
  H  H811  1  0.809000  0.030600  0.862600  1
  H  H812  1  0.691000  0.530600  0.637400  1
  H  H813  1  0.136100  0.927300  0.185500  1
  H  H814  1  0.363900  0.427300  0.314500  1
  H  H815  1  0.863900  0.072700  0.814500  1
  H  H816  1  0.636100  0.572700  0.685500  1
  H  H817  1  0.219700  0.959500  0.202300  1
  H  H818  1  0.280300  0.459500  0.297700  1
  H  H819  1  0.780300  0.040500  0.797700  1
  H  H820  1  0.719700  0.540500  0.702300  1
  H  H821  1  0.314600  0.891900  0.199900  1
  H  H822  1  0.185400  0.391900  0.300100  1
  H  H823  1  0.685400  0.108100  0.800100  1
  H  H824  1  0.814600  0.608100  0.699900  1
  H  H825  1  0.224800  0.861700  0.190800  1
  H  H826  1  0.275200  0.361700  0.309200  1
  H  H827  1  0.775200  0.138300  0.809200  1
  H  H828  1  0.724800  0.638300  0.690800  1
  H  H829  1  0.204500  0.864200  0.249200  1
  H  H830  1  0.295500  0.364200  0.250800  1
  H  H831  1  0.795500  0.135800  0.750800  1
  H  H832  1  0.704500  0.635800  0.749200  1
  H  H833  1  0.308200  0.878100  0.258900  1
  H  H834  1  0.191800  0.378100  0.241100  1
  H  H835  1  0.691800  0.121900  0.741100  1
  H  H836  1  0.808200  0.621900  0.758900  1
  H  H837  1  0.271400  0.957000  0.256200  1
  H  H838  1  0.228600  0.457000  0.243800  1
  H  H839  1  0.728600  0.043000  0.743800  1
  H  H840  1  0.771400  0.543000  0.756200  1
  H  H841  1  0.167600  0.945000  0.242800  1
  H  H842  1  0.332400  0.445000  0.257200  1
  H  H843  1  0.832400  0.055000  0.757200  1
  H  H844  1  0.667600  0.555000  0.742800  1
  H  H845  1  0.266000  0.915300  0.313800  1
  H  H846  1  0.234000  0.415300  0.186200  1
  H  H847  1  0.734000  0.084700  0.686200  1
  H  H848  1  0.766000  0.584700  0.813800  1
  H  H849  1  0.159700  0.912100  0.300600  1
  H  H850  1  0.340300  0.412100  0.199400  1
  H  H851  1  0.840300  0.087900  0.699400  1
  H  H852  1  0.659700  0.587900  0.800600  1
  H  H853  1  0.146000  0.992400  0.301800  1
  H  H854  1  0.354000  0.492400  0.198200  1
  H  H855  1  0.854000  0.007600  0.698200  1
  H  H856  1  0.646000  0.507600  0.801800  1
  H  H857  1  0.252600  0.998700  0.309400  1
  H  H858  1  0.247400  0.498700  0.190600  1
  H  H859  1  0.747400  0.001300  0.690600  1
  H  H860  1  0.752600  0.501300  0.809400  1
  H  H861  1  0.266500  0.980500  0.369500  1
  H  H862  1  0.233500  0.480500  0.130500  1
  H  H863  1  0.733500  0.019500  0.630500  1
  H  H864  1  0.766500  0.519500  0.869500  1
  H  H865  1  0.184300  0.945100  0.362200  1
  H  H866  1  0.315700  0.445100  0.137800  1
  H  H867  1  0.815700  0.054900  0.637800  1
  H  H868  1  0.684300  0.554900  0.862200  1
  H  H869  1  0.166100  0.999600  0.363400  1
  H  H870  1  0.333900  0.499600  0.136600  1
  H  H871  1  0.833900  0.000400  0.636600  1
  H  H872  1  0.666100  0.500400  0.863400  1
  H  H873  1  0.273900  0.666700  0.403000  1
  H  H874  1  0.226100  0.166700  0.097000  1
  H  H875  1  0.726100  0.333300  0.597000  1
  H  H876  1  0.773900  0.833300  0.903000  1
  H  H877  1  0.222500  0.678600  0.361400  1
  H  H878  1  0.277500  0.178600  0.138600  1
  H  H879  1  0.777500  0.321400  0.638600  1
  H  H880  1  0.722500  0.821400  0.861400  1
  H  H881  1  0.266500  0.757200  0.370300  1
  H  H882  1  0.233500  0.257200  0.129700  1
  H  H883  1  0.733500  0.242800  0.629700  1
  H  H884  1  0.766500  0.742800  0.870300  1
  H  H885  1  0.318100  0.745300  0.411900  1
  H  H886  1  0.181900  0.245300  0.088100  1
  H  H887  1  0.681900  0.254700  0.588100  1
  H  H888  1  0.818100  0.754700  0.911900  1
  H  H889  1  0.129600  0.745500  0.385700  1
  H  H890  1  0.370400  0.245500  0.114300  1
  H  H891  1  0.870400  0.254500  0.614300  1
  H  H892  1  0.629600  0.754500  0.885700  1
  H  H893  1  0.183500  0.773000  0.421200  1
  H  H894  1  0.316500  0.273000  0.078800  1
  H  H895  1  0.816500  0.227000  0.578800  1
  H  H896  1  0.683500  0.727000  0.921200  1
  H  H897  1  0.124400  0.712700  0.448400  1
  H  H898  1  0.375600  0.212700  0.051600  1
  H  H899  1  0.875600  0.287300  0.551600  1
  H  H900  1  0.624400  0.787300  0.948400  1
  H  H901  1  0.142200  0.676900  0.416800  1
  H  H902  1  0.357800  0.176900  0.083200  1
  H  H903  1  0.857800  0.323100  0.583200  1
  H  H904  1  0.642200  0.823100  0.916800  1
  H  H905  1  0.259800  0.656500  0.458600  1
  H  H906  1  0.240200  0.156500  0.041400  1
  H  H907  1  0.740200  0.343500  0.541400  1
  H  H908  1  0.759800  0.843500  0.958600  1
  H  H909  1  0.305300  0.701400  0.444200  1
  H  H910  1  0.194700  0.201400  0.055800  1
  H  H911  1  0.694700  0.298600  0.555800  1
  H  H912  1  0.805300  0.798600  0.944200  1
  H  H913  1  0.322600  0.726900  0.501900  1
  H  H914  1  0.177400  0.226900  0.998100  1
  H  H915  1  0.677400  0.273100  0.498100  1
  H  H916  1  0.822600  0.773100  0.001900  1
  H  H917  1  0.217000  0.736300  0.493900  1
  H  H918  1  0.283000  0.236300  0.006100  1
  H  H919  1  0.783000  0.263700  0.506100  1
  H  H920  1  0.717000  0.763700  0.993900  1
  H  H921  1  0.200000  0.655400  0.512500  1
  H  H922  1  0.300000  0.155400  0.987500  1
  H  H923  1  0.800000  0.344600  0.487500  1
  H  H924  1  0.700000  0.844600  0.012500  1
  H  H925  1  0.305600  0.655700  0.528100  1
  H  H926  1  0.194400  0.155700  0.971900  1
  H  H927  1  0.694400  0.344300  0.471900  1
  H  H928  1  0.805600  0.844300  0.028100  1
  H  H929  1  0.257400  0.730300  0.559600  1
  H  H930  1  0.242600  0.230300  0.940400  1
  H  H931  1  0.742600  0.269700  0.440400  1
  H  H932  1  0.757400  0.769700  0.059600  1
  H  H933  1  0.171000  0.698400  0.559100  1
  H  H934  1  0.329000  0.198400  0.940900  1
  H  H935  1  0.829000  0.301600  0.440900  1
  H  H936  1  0.671000  0.801600  0.059100  1
  H  H937  1  0.290300  0.690800  0.614800  1
  H  H938  1  0.209700  0.190800  0.885200  1
  H  H939  1  0.709700  0.309200  0.385200  1
  H  H940  1  0.790300  0.809200  0.114800  1
  H  H941  1  0.345700  0.663600  0.588000  1
  H  H942  1  0.154300  0.163600  0.912000  1
  H  H943  1  0.654300  0.336400  0.412000  1
  H  H944  1  0.845700  0.836400  0.088000  1
  H  H945  1  0.233800  0.607000  0.575300  1
  H  H946  1  0.266200  0.107000  0.924700  1
  H  H947  1  0.766200  0.393000  0.424700  1
  H  H948  1  0.733800  0.893000  0.075300  1
  H  H949  1  0.171800  0.635200  0.598600  1
  H  H950  1  0.328200  0.135200  0.901400  1
  H  H951  1  0.828200  0.364800  0.401400  1
  H  H952  1  0.671800  0.864800  0.098600  1
  H  H953  1  0.234300  0.584700  0.642300  1
  H  H954  1  0.265700  0.084700  0.857700  1
  H  H955  1  0.765700  0.415300  0.357700  1
  H  H956  1  0.734300  0.915300  0.142300  1
  H  H957  1  0.304200  0.626400  0.651300  1
  H  H958  1  0.195800  0.126400  0.848700  1
  H  H959  1  0.695800  0.373600  0.348700  1
  H  H960  1  0.804200  0.873600  0.151300  1
  H  H961  1  0.326300  0.583100  0.627000  1
  H  H962  1  0.173700  0.083100  0.873000  1
  H  H963  1  0.673700  0.416900  0.373000  1
  H  H964  1  0.826300  0.916900  0.127000  1
  C  C965  1  0.432200  0.132300  0.363400  1
  C  C966  1  0.067800  0.632300  0.136600  1
  C  C967  1  0.567800  0.867700  0.636600  1
  C  C968  1  0.932200  0.367700  0.863400  1
  C  C969  1  0.433100  0.085600  0.345400  1
  C  C970  1  0.066900  0.585600  0.154600  1
  C  C971  1  0.566900  0.914400  0.654600  1
  C  C972  1  0.933100  0.414400  0.845400  1
  C  C973  1  0.425300  0.046700  0.367100  1
  C  C974  1  0.074700  0.546700  0.132900  1
  C  C975  1  0.574700  0.953300  0.632900  1
  C  C976  1  0.925300  0.453300  0.867100  1
  C  C977  1  0.432400  0.003600  0.351400  1
  C  C978  1  0.067600  0.503600  0.148600  1
  C  C979  1  0.567600  0.996400  0.648600  1
  C  C980  1  0.932400  0.496400  0.851400  1
  C  C981  1  0.446200  0.998300  0.315700  1
  C  C982  1  0.053800  0.498300  0.184300  1
  C  C983  1  0.553800  0.001700  0.684300  1
  C  C984  1  0.946200  0.501700  0.815700  1
  C  C985  1  0.452500  0.036900  0.293800  1
  C  C986  1  0.047500  0.536900  0.206200  1
  C  C987  1  0.547500  0.963100  0.706200  1
  C  C988  1  0.952500  0.463100  0.793800  1
  C  C989  1  0.445600  0.081200  0.308600  1
  C  C990  1  0.054400  0.581200  0.191400  1
  C  C991  1  0.554400  0.918800  0.691400  1
  C  C992  1  0.945600  0.418800  0.808600  1
  C  C993  1  0.464200  0.031000  0.254900  1
  C  C994  1  0.035800  0.531000  0.245100  1
  C  C995  1  0.535800  0.969000  0.745100  1
  C  C996  1  0.964200  0.469000  0.754900  1
  C  C997  1  0.471500  0.022400  0.223900  1
  C  C998  1  0.028500  0.522400  0.276100  1
  C  C999  1  0.528500  0.977600  0.776100  1
  C  C1000  1  0.971500  0.477600  0.723900  1
  C  C1001  1  0.479800  0.010700  0.186600  1
  C  C1002  1  0.020200  0.510700  0.313400  1
  C  C1003  1  0.520200  0.989300  0.813400  1
  C  C1004  1  0.979800  0.489300  0.686600  1
  C  C1005  1  0.485000  0.964900  0.175500  1
  C  C1006  1  0.015000  0.464900  0.324500  1
  C  C1007  1  0.515000  0.035100  0.824500  1
  C  C1008  1  0.985000  0.535100  0.675500  1
  C  C1009  1  0.490900  0.952600  0.139000  1
  C  C1010  1  0.009100  0.452600  0.361000  1
  C  C1011  1  0.509100  0.047400  0.861000  1
  C  C1012  1  0.990900  0.547400  0.639000  1
  C  C1013  1  0.491500  0.988200  0.113100  1
  C  C1014  1  0.008500  0.488200  0.386900  1
  C  C1015  1  0.508500  0.011800  0.886900  1
  C  C1016  1  0.991500  0.511800  0.613100  1
  C  C1017  1  0.486400  0.034600  0.123100  1
  C  C1018  1  0.013600  0.534600  0.376900  1
  C  C1019  1  0.513600  0.965400  0.876900  1
  C  C1020  1  0.986400  0.465400  0.623100  1
  C  C1021  1  0.480700  0.045300  0.159600  1
  C  C1022  1  0.019300  0.545300  0.340400  1
  C  C1023  1  0.519300  0.954700  0.840400  1
  C  C1024  1  0.980700  0.454700  0.659600  1
  C  C1025  1  0.483600  0.070600  0.095400  1
  C  C1026  1  0.016400  0.570600  0.404600  1
  C  C1027  1  0.516400  0.929400  0.904600  1
  C  C1028  1  0.983600  0.429400  0.595400  1
  C  C1029  1  0.483200  0.101600  0.073600  1
  C  C1030  1  0.016800  0.601600  0.426400  1
  C  C1031  1  0.516800  0.898400  0.926400  1
  C  C1032  1  0.983200  0.398400  0.573600  1
  C  C1033  1  0.482200  0.184600  0.066500  1
  C  C1034  1  0.017800  0.684600  0.433500  1
  C  C1035  1  0.517800  0.815400  0.933500  1
  C  C1036  1  0.982200  0.315400  0.566500  1
  C  C1037  1  0.484200  0.141400  0.050500  1
  C  C1038  1  0.015800  0.641400  0.449500  1
  C  C1039  1  0.515800  0.858600  0.949500  1
  C  C1040  1  0.984200  0.358600  0.550500  1
  C  C1041  1  0.490100  0.137700  0.012000  1
  C  C1042  1  0.009900  0.637700  0.488000  1
  C  C1043  1  0.509900  0.862300  0.988000  1
  C  C1044  1  0.990100  0.362300  0.512000  1
  C  C1045  1  0.492900  0.177100  0.991400  1
  C  C1046  1  0.007100  0.677100  0.508600  1
  C  C1047  1  0.507100  0.822900  0.008600  1
  C  C1048  1  0.992900  0.322900  0.491400  1
  C  C1049  1  0.491000  0.220700  0.007400  1
  C  C1050  1  0.009000  0.720700  0.492600  1
  C  C1051  1  0.509000  0.779300  0.992600  1
  C  C1052  1  0.991000  0.279300  0.507400  1
  C  C1053  1  0.486800  0.225000  0.045100  1
  C  C1054  1  0.013200  0.725000  0.454900  1
  C  C1055  1  0.513200  0.775000  0.954900  1
  C  C1056  1  0.986800  0.275000  0.545100  1
  C  C1057  1  0.494300  0.270900  0.065000  1
  C  C1058  1  0.005700  0.770900  0.435000  1
  C  C1059  1  0.505700  0.729100  0.935000  1
  C  C1060  1  0.994300  0.229100  0.565000  1
  C  C1061  1  0.496400  0.902600  0.127600  1
  C  C1062  1  0.003600  0.402600  0.372400  1
  C  C1063  1  0.503600  0.097400  0.872400  1
  C  C1064  1  0.996400  0.597400  0.627600  1
  C  C1065  1  0.613800  0.188700  0.418100  1
  C  C1066  1  0.886200  0.688700  0.081900  1
  C  C1067  1  0.386200  0.811300  0.581900  1
  C  C1068  1  0.113800  0.311300  0.918100  1
  C  C1069  1  0.712200  0.178900  0.427500  1
  C  C1070  1  0.787800  0.678900  0.072500  1
  C  C1071  1  0.287800  0.821100  0.572500  1
  C  C1072  1  0.212200  0.321100  0.927500  1
  C  C1073  1  0.750200  0.164400  0.464000  1
  C  C1074  1  0.749800  0.664400  0.036000  1
  C  C1075  1  0.249800  0.835600  0.536000  1
  C  C1076  1  0.250200  0.335600  0.964000  1
  C  C1077  1  0.840100  0.154500  0.472100  1
  C  C1078  1  0.659900  0.654500  0.027900  1
  C  C1079  1  0.159900  0.845500  0.527900  1
  C  C1080  1  0.340100  0.345500  0.972100  1
  C  C1081  1  0.892500  0.156800  0.444800  1
  C  C1082  1  0.607500  0.656800  0.055200  1
  C  C1083  1  0.107500  0.843200  0.555200  1
  C  C1084  1  0.392500  0.343200  0.944800  1
  C  C1085  1  0.854700  0.169800  0.408800  1
  C  C1086  1  0.645300  0.669800  0.091200  1
  C  C1087  1  0.145300  0.830200  0.591200  1
  C  C1088  1  0.354700  0.330200  0.908800  1
  C  C1089  1  0.764800  0.181800  0.400400  1
  C  C1090  1  0.735200  0.681800  0.099600  1
  C  C1091  1  0.235200  0.818200  0.599600  1
  C  C1092  1  0.264800  0.318200  0.900400  1
  C  C1093  1  0.905900  0.170500  0.379400  1
  C  C1094  1  0.594100  0.670500  0.120600  1
  C  C1095  1  0.094100  0.829500  0.620600  1
  C  C1096  1  0.405900  0.329500  0.879400  1
  C  C1097  1  0.946400  0.170700  0.354400  1
  C  C1098  1  0.553600  0.670700  0.145600  1
  C  C1099  1  0.053600  0.829300  0.645600  1
  C  C1100  1  0.446400  0.329300  0.854400  1
  C  C1101  1  0.994600  0.172000  0.323800  1
  C  C1102  1  0.505400  0.672000  0.176200  1
  C  C1103  1  0.005400  0.828000  0.676200  1
  C  C1104  1  0.494600  0.328000  0.823800  1
  C  C1105  1  0.078200  0.151300  0.327000  1
  C  C1106  1  0.421800  0.651300  0.173000  1
  C  C1107  1  0.921800  0.848700  0.673000  1
  C  C1108  1  0.578200  0.348700  0.827000  1
  C  C1109  1  0.124400  0.152300  0.298300  1
  C  C1110  1  0.375600  0.652300  0.201700  1
  C  C1111  1  0.875600  0.847700  0.701700  1
  C  C1112  1  0.624400  0.347700  0.798300  1
  C  C1113  1  0.088100  0.174800  0.264700  1
  C  C1114  1  0.411900  0.674800  0.235300  1
  C  C1115  1  0.911900  0.825200  0.735300  1
  C  C1116  1  0.588100  0.325200  0.764700  1
  C  C1117  1  0.002800  0.195700  0.261200  1
  C  C1118  1  0.497200  0.695700  0.238800  1
  C  C1119  1  0.997200  0.804300  0.738800  1
  C  C1120  1  0.502800  0.304300  0.761200  1
  C  C1121  1  0.957200  0.194300  0.290200  1
  C  C1122  1  0.542800  0.694300  0.209800  1
  C  C1123  1  0.042800  0.805700  0.709800  1
  C  C1124  1  0.457200  0.305700  0.790200  1
  C  C1125  1  0.965200  0.219300  0.227200  1
  C  C1126  1  0.534800  0.719300  0.272800  1
  C  C1127  1  0.034800  0.780700  0.772800  1
  C  C1128  1  0.465200  0.280700  0.727200  1
  C  C1129  1  0.931700  0.239200  0.199000  1
  C  C1130  1  0.568300  0.739200  0.301000  1
  C  C1131  1  0.068300  0.760800  0.801000  1
  C  C1132  1  0.431700  0.260800  0.699000  1
  C  C1133  1  0.809000  0.279800  0.158300  1
  C  C1134  1  0.691000  0.779800  0.341700  1
  C  C1135  1  0.191000  0.720200  0.841700  1
  C  C1136  1  0.309000  0.220200  0.658300  1
  C  C1137  1  0.896600  0.263900  0.165200  1
  C  C1138  1  0.603400  0.763900  0.334800  1
  C  C1139  1  0.103400  0.736100  0.834800  1
  C  C1140  1  0.396600  0.236100  0.665200  1
  C  C1141  1  0.950400  0.269200  0.138200  1
  C  C1142  1  0.549600  0.769200  0.361800  1
  C  C1143  1  0.049600  0.730800  0.861800  1
  C  C1144  1  0.450400  0.230800  0.638200  1
  C  C1145  1  0.916500  0.292100  0.105000  1
  C  C1146  1  0.583500  0.792100  0.395000  1
  C  C1147  1  0.083500  0.707900  0.895000  1
  C  C1148  1  0.416500  0.207900  0.605000  1
  C  C1149  1  0.830000  0.308900  0.098700  1
  C  C1150  1  0.670000  0.808900  0.401300  1
  C  C1151  1  0.170000  0.691100  0.901300  1
  C  C1152  1  0.330000  0.191100  0.598700  1
  C  C1153  1  0.774600  0.302700  0.124600  1
  C  C1154  1  0.725400  0.802700  0.375400  1
  C  C1155  1  0.225400  0.697300  0.875400  1
  C  C1156  1  0.274600  0.197300  0.624600  1
  C  C1157  1  0.681200  0.320000  0.117800  1
  C  C1158  1  0.818800  0.820000  0.382200  1
  C  C1159  1  0.318800  0.680000  0.882200  1
  C  C1160  1  0.181200  0.180000  0.617800  1
  C  C1161  1  0.215500  0.129500  0.302500  1
  C  C1162  1  0.284500  0.629500  0.197500  1
  C  C1163  1  0.784500  0.870500  0.697500  1
  C  C1164  1  0.715500  0.370500  0.802500  1
  C  C1165  1  0.287500  0.227500  0.384600  1
  C  C1166  1  0.212500  0.727500  0.115400  1
  C  C1167  1  0.712500  0.772500  0.615400  1
  C  C1168  1  0.787500  0.272500  0.884600  1
  C  C1169  1  0.191900  0.244700  0.378300  1
  C  C1170  1  0.308100  0.744700  0.121700  1
  C  C1171  1  0.808100  0.755300  0.621700  1
  C  C1172  1  0.691900  0.255300  0.878300  1
  C  C1173  1  0.143800  0.240200  0.406700  1
  C  C1174  1  0.356200  0.740200  0.093300  1
  C  C1175  1  0.856200  0.759800  0.593300  1
  C  C1176  1  0.643800  0.259800  0.906700  1
  C  C1177  1  0.057800  0.257700  0.402400  1
  C  C1178  1  0.442200  0.757700  0.097600  1
  C  C1179  1  0.942200  0.742300  0.597600  1
  C  C1180  1  0.557800  0.242300  0.902400  1
  C  C1181  1  0.019900  0.279000  0.369500  1
  C  C1182  1  0.480100  0.779000  0.130500  1
  C  C1183  1  0.980100  0.721000  0.630500  1
  C  C1184  1  0.519900  0.221000  0.869500  1
  C  C1185  1  0.069400  0.284200  0.340800  1
  C  C1186  1  0.430600  0.784200  0.159200  1
  C  C1187  1  0.930600  0.715800  0.659200  1
  C  C1188  1  0.569400  0.215800  0.840800  1
  C  C1189  1  0.154600  0.266400  0.345200  1
  C  C1190  1  0.345400  0.766400  0.154800  1
  C  C1191  1  0.845400  0.733600  0.654800  1
  C  C1192  1  0.654600  0.233600  0.845200  1
  C  C1193  1  0.030400  0.306600  0.306500  1
  C  C1194  1  0.469600  0.806600  0.193500  1
  C  C1195  1  0.969600  0.693400  0.693500  1
  C  C1196  1  0.530400  0.193400  0.806500  1
  C  C1197  1  0.999500  0.325600  0.277500  1
  C  C1198  1  0.500500  0.825600  0.222500  1
  C  C1199  1  0.000500  0.674400  0.722500  1
  C  C1200  1  0.499500  0.174400  0.777500  1
  C  C1201  1  0.963800  0.348700  0.243100  1
  C  C1202  1  0.536200  0.848700  0.256900  1
  C  C1203  1  0.036200  0.651300  0.756900  1
  C  C1204  1  0.463800  0.151300  0.743100  1
  C  C1205  1  0.876000  0.364900  0.237500  1
  C  C1206  1  0.624000  0.864900  0.262500  1
  C  C1207  1  0.124000  0.635100  0.762500  1
  C  C1208  1  0.376000  0.135100  0.737500  1
  C  C1209  1  0.839200  0.386200  0.203400  1
  C  C1210  1  0.660800  0.886200  0.296600  1
  C  C1211  1  0.160800  0.613800  0.796600  1
  C  C1212  1  0.339200  0.113800  0.703400  1
  C  C1213  1  0.887800  0.390500  0.176100  1
  C  C1214  1  0.612200  0.890500  0.323900  1
  C  C1215  1  0.112200  0.609500  0.823900  1
  C  C1216  1  0.387800  0.109500  0.676100  1
  C  C1217  1  0.976300  0.373800  0.180800  1
  C  C1218  1  0.523700  0.873800  0.319200  1
  C  C1219  1  0.023700  0.626200  0.819200  1
  C  C1220  1  0.476300  0.126200  0.680800  1
  C  C1221  1  0.012900  0.352700  0.215000  1
  C  C1222  1  0.487100  0.852700  0.285000  1
  C  C1223  1  0.987100  0.647300  0.785000  1
  C  C1224  1  0.512900  0.147300  0.715000  1
  C  C1225  1  0.026600  0.379000  0.152000  1
  C  C1226  1  0.473400  0.879000  0.348000  1
  C  C1227  1  0.973400  0.621000  0.848000  1
  C  C1228  1  0.526600  0.121000  0.652000  1
  C  C1229  1  0.068300  0.383700  0.127100  1
  C  C1230  1  0.431700  0.883700  0.372900  1
  C  C1231  1  0.931700  0.616300  0.872900  1
  C  C1232  1  0.568300  0.116300  0.627100  1
  C  C1233  1  0.208600  0.372800  0.104000  1
  C  C1234  1  0.291400  0.872800  0.396000  1
  C  C1235  1  0.791400  0.627200  0.896000  1
  C  C1236  1  0.708600  0.127200  0.604000  1
  C  C1237  1  0.119800  0.390500  0.099000  1
  C  C1238  1  0.380200  0.890500  0.401000  1
  C  C1239  1  0.880200  0.609500  0.901000  1
  C  C1240  1  0.619800  0.109500  0.599000  1
  C  C1241  1  0.090200  0.417200  0.067600  1
  C  C1242  1  0.409800  0.917200  0.432400  1
  C  C1243  1  0.909800  0.582800  0.932400  1
  C  C1244  1  0.590200  0.082800  0.567600  1
  C  C1245  1  0.143500  0.426200  0.041800  1
  C  C1246  1  0.356500  0.926200  0.458200  1
  C  C1247  1  0.856500  0.573800  0.958200  1
  C  C1248  1  0.643500  0.073800  0.541800  1
  C  C1249  1  0.228800  0.409400  0.046600  1
  C  C1250  1  0.271200  0.909400  0.453400  1
  C  C1251  1  0.771200  0.590600  0.953400  1
  C  C1252  1  0.728800  0.090600  0.546600  1
  C  C1253  1  0.261100  0.382500  0.078100  1
  C  C1254  1  0.238900  0.882500  0.421900  1
  C  C1255  1  0.738900  0.617500  0.921900  1
  C  C1256  1  0.761100  0.117500  0.578100  1
  C  C1257  1  0.357700  0.366600  0.085800  1
  C  C1258  1  0.142300  0.866600  0.414200  1
  C  C1259  1  0.642300  0.633400  0.914200  1
  C  C1260  1  0.857700  0.133400  0.585800  1
  C  C1261  1  0.744400  0.403100  0.197700  1
  C  C1262  1  0.755600  0.903100  0.302300  1
  C  C1263  1  0.255600  0.596900  0.802300  1
  C  C1264  1  0.244400  0.096900  0.697700  1
  C  C1265  1  0.475200  0.282900  0.434700  1
  C  C1266  1  0.024800  0.782900  0.065300  1
  C  C1267  1  0.524800  0.717100  0.565300  1
  C  C1268  1  0.975200  0.217100  0.934700  1
  C  C1269  1  0.488200  0.328700  0.454000  1
  C  C1270  1  0.011800  0.828700  0.046000  1
  C  C1271  1  0.511800  0.671300  0.546000  1
  C  C1272  1  0.988200  0.171300  0.954000  1
  C  C1273  1  0.489600  0.332000  0.491800  1
  C  C1274  1  0.010400  0.832000  0.008200  1
  C  C1275  1  0.510400  0.668000  0.508200  1
  C  C1276  1  0.989600  0.168000  0.991800  1
  C  C1277  1  0.500700  0.374400  0.509100  1
  C  C1278  1  0.999300  0.874400  0.990900  1
  C  C1279  1  0.499300  0.625600  0.490900  1
  C  C1280  1  0.000700  0.125600  0.009100  1
  C  C1281  1  0.508900  0.414200  0.488300  1
  C  C1282  1  0.991100  0.914200  0.011700  1
  C  C1283  1  0.491100  0.585800  0.511700  1
  C  C1284  1  0.008900  0.085800  0.988300  1
  C  C1285  1  0.508600  0.410700  0.450000  1
  C  C1286  1  0.991400  0.910700  0.050000  1
  C  C1287  1  0.491400  0.589300  0.550000  1
  C  C1288  1  0.008600  0.089300  0.950000  1
  C  C1289  1  0.498600  0.367600  0.433200  1
  C  C1290  1  0.001400  0.867600  0.066800  1
  C  C1291  1  0.501400  0.632400  0.566800  1
  C  C1292  1  0.998600  0.132400  0.933200  1
  C  C1293  1  0.513400  0.450400  0.427200  1
  C  C1294  1  0.986600  0.950400  0.072800  1
  C  C1295  1  0.486600  0.549600  0.572800  1
  C  C1296  1  0.013400  0.049600  0.927200  1
  C  C1297  1  0.516300  0.481100  0.405700  1
  C  C1298  1  0.983700  0.981100  0.094300  1
  C  C1299  1  0.483700  0.518900  0.594300  1
  C  C1300  1  0.016300  0.018900  0.905700  1
  C  C1301  1  0.516400  0.519000  0.379000  1
  C  C1302  1  0.983600  0.019000  0.121000  1
  C  C1303  1  0.483600  0.481000  0.621000  1
  C  C1304  1  0.016400  0.981000  0.879000  1
  C  C1305  1  0.512700  0.564500  0.389700  1
  C  C1306  1  0.987300  0.064500  0.110300  1
  C  C1307  1  0.487300  0.435500  0.610300  1
  C  C1308  1  0.012700  0.935500  0.889700  1
  C  C1309  1  0.513000  0.599500  0.363600  1
  C  C1310  1  0.987000  0.099500  0.136400  1
  C  C1311  1  0.487000  0.400500  0.636400  1
  C  C1312  1  0.013000  0.900500  0.863600  1
  C  C1313  1  0.517100  0.588400  0.326500  1
  C  C1314  1  0.982900  0.088400  0.173500  1
  C  C1315  1  0.482900  0.411600  0.673500  1
  C  C1316  1  0.017100  0.911600  0.826500  1
  C  C1317  1  0.520800  0.542700  0.315400  1
  C  C1318  1  0.979200  0.042700  0.184600  1
  C  C1319  1  0.479200  0.457300  0.684600  1
  C  C1320  1  0.020800  0.957300  0.815400  1
  C  C1321  1  0.520500  0.507700  0.341500  1
  C  C1322  1  0.979500  0.007700  0.158500  1
  C  C1323  1  0.479500  0.492300  0.658500  1
  C  C1324  1  0.020500  0.992300  0.841500  1
  C  C1325  1  0.528100  0.531400  0.277800  1
  C  C1326  1  0.971900  0.031400  0.222200  1
  C  C1327  1  0.471900  0.468600  0.722200  1
  C  C1328  1  0.028100  0.968600  0.777800  1
  C  C1329  1  0.535300  0.522800  0.246100  1
  C  C1330  1  0.964700  0.022800  0.253900  1
  C  C1331  1  0.464700  0.477200  0.753900  1
  C  C1332  1  0.035300  0.977200  0.746100  1
  C  C1333  1  0.538900  0.472400  0.191800  1
  C  C1334  1  0.961100  0.972400  0.308200  1
  C  C1335  1  0.461100  0.527600  0.808200  1
  C  C1336  1  0.038900  0.027600  0.691800  1
  C  C1337  1  0.544700  0.515300  0.208400  1
  C  C1338  1  0.955300  0.015300  0.291600  1
  C  C1339  1  0.455300  0.484700  0.791600  1
  C  C1340  1  0.044700  0.984700  0.708400  1
  C  C1341  1  0.560800  0.553700  0.186800  1
  C  C1342  1  0.939200  0.053700  0.313200  1
  C  C1343  1  0.439200  0.446300  0.813200  1
  C  C1344  1  0.060800  0.946300  0.686800  1
  C  C1345  1  0.572200  0.548800  0.150100  1
  C  C1346  1  0.927800  0.048800  0.349900  1
  C  C1347  1  0.427800  0.451200  0.849900  1
  C  C1348  1  0.072200  0.951200  0.650100  1
  C  C1349  1  0.567700  0.504900  0.134000  1
  C  C1350  1  0.932300  0.004900  0.366000  1
  C  C1351  1  0.432300  0.495100  0.866000  1
  C  C1352  1  0.067700  0.995100  0.634000  1
  C  C1353  1  0.550700  0.466600  0.154700  1
  C  C1354  1  0.949300  0.966600  0.345300  1
  C  C1355  1  0.449300  0.533400  0.845300  1
  C  C1356  1  0.050700  0.033400  0.654700  1
  C  C1357  1  0.542700  0.420000  0.136500  1
  C  C1358  1  0.957300  0.920000  0.363500  1
  C  C1359  1  0.457300  0.580000  0.863500  1
  C  C1360  1  0.042700  0.080000  0.636500  1
  C  C1361  1  0.509000  0.649490  0.375100  1
  C  C1362  1  0.991000  0.149490  0.124900  1
  C  C1363  1  0.491000  0.350510  0.624900  1
  C  C1364  1  0.009000  0.850510  0.875100  1
  C  C1365  1  0.359400  0.886630  0.082820  1
  C  C1366  1  0.140600  0.386630  0.417180  1
  C  C1367  1  0.640600  0.113370  0.917180  1
  C  C1368  1  0.859400  0.613370  0.582820  1
  C  C1369  1  0.265100  0.869500  0.075800  1
  C  C1370  1  0.234900  0.369500  0.424200  1
  C  C1371  1  0.734900  0.130500  0.924200  1
  C  C1372  1  0.765100  0.630500  0.575800  1
  C  C1373  1  0.233300  0.862200  0.112400  1
  C  C1374  1  0.266700  0.362200  0.387600  1
  C  C1375  1  0.766700  0.137800  0.887600  1
  C  C1376  1  0.733300  0.637800  0.612400  1
  C  C1377  1  0.217800  0.908400  0.129600  1
  C  C1378  1  0.282200  0.408400  0.370400  1
  C  C1379  1  0.782200  0.091600  0.870400  1
  C  C1380  1  0.717800  0.591600  0.629600  1
  C  C1381  1  0.155200  0.902600  0.157000  1
  C  C1382  1  0.344800  0.402600  0.343000  1
  C  C1383  1  0.844800  0.097400  0.843000  1
  C  C1384  1  0.655200  0.597400  0.657000  1
  C  C1385  1  0.195800  0.869900  0.187900  1
  C  C1386  1  0.304200  0.369900  0.312100  1
  C  C1387  1  0.804200  0.130100  0.812100  1
  C  C1388  1  0.695800  0.630100  0.687900  1
  C  C1389  1  0.274400  0.892800  0.212600  1
  C  C1390  1  0.225600  0.392800  0.287400  1
  C  C1391  1  0.725600  0.107200  0.787400  1
  C  C1392  1  0.774400  0.607200  0.712600  1
  C  C1393  1  0.243300  0.934800  0.231400  1
  C  C1394  1  0.256700  0.434800  0.268600  1
  C  C1395  1  0.756700  0.065200  0.768600  1
  C  C1396  1  0.743300  0.565200  0.731400  1
  C  C1397  1  0.232700  0.922700  0.270800  1
  C  C1398  1  0.267300  0.422700  0.229200  1
  C  C1399  1  0.767300  0.077300  0.729200  1
  C  C1400  1  0.732700  0.577300  0.770800  1
  C  C1401  1  0.209000  0.965700  0.290600  1
  C  C1402  1  0.291000  0.465700  0.209400  1
  C  C1403  1  0.791000  0.034300  0.709400  1
  C  C1404  1  0.709000  0.534300  0.790600  1
  C  C1405  1  0.200700  0.953800  0.330300  1
  C  C1406  1  0.299300  0.453800  0.169700  1
  C  C1407  1  0.799300  0.046200  0.669700  1
  C  C1408  1  0.700700  0.546200  0.830300  1
  C  C1409  1  0.188600  0.997600  0.351500  1
  C  C1410  1  0.311400  0.497600  0.148500  1
  C  C1411  1  0.811400  0.002400  0.648500  1
  C  C1412  1  0.688600  0.502400  0.851500  1
  C  C1413  1  0.242000  0.102800  0.243400  1
  C  C1414  1  0.258000  0.602800  0.256600  1
  C  C1415  1  0.758000  0.897200  0.756600  1
  C  C1416  1  0.742000  0.397200  0.743400  1
  C  C1417  1  0.233000  0.062600  0.212940  1
  C  C1418  1  0.267000  0.562600  0.287060  1
  C  C1419  1  0.767000  0.937400  0.787060  1
  C  C1420  1  0.733000  0.437400  0.712940  1
  C  C1421  1  0.245800  0.080700  0.175290  1
  C  C1422  1  0.254200  0.580700  0.324710  1
  C  C1423  1  0.754200  0.919300  0.824710  1
  C  C1424  1  0.745800  0.419300  0.675290  1
  C  C1425  1  0.234100  0.041900  0.147000  1
  C  C1426  1  0.265900  0.541900  0.353000  1
  C  C1427  1  0.765900  0.958100  0.853000  1
  C  C1428  1  0.734100  0.458100  0.647000  1
  C  C1429  1  0.239200  0.060800  0.108670  1
  C  C1430  1  0.260800  0.560800  0.391330  1
  C  C1431  1  0.760800  0.939200  0.891330  1
  C  C1432  1  0.739200  0.439200  0.608670  1
  C  C1433  1  0.232200  0.021700  0.080730  1
  C  C1434  1  0.267800  0.521700  0.419270  1
  C  C1435  1  0.767800  0.978300  0.919270  1
  C  C1436  1  0.732200  0.478300  0.580730  1
  C  C1437  1  0.242100  0.040300  0.042830  1
  C  C1438  1  0.257900  0.540300  0.457170  1
  C  C1439  1  0.757900  0.959700  0.957170  1
  C  C1440  1  0.742100  0.459700  0.542830  1
  C  C1441  1  0.233600  0.001200  0.014790  1
  C  C1442  1  0.266400  0.501200  0.485210  1
  C  C1443  1  0.766400  0.998800  0.985210  1
  C  C1444  1  0.733600  0.498800  0.514790  1
  C  C1445  1  0.254100  0.018600  0.978100  1
  C  C1446  1  0.245900  0.518600  0.521900  1
  C  C1447  1  0.745900  0.981400  0.021900  1
  C  C1448  1  0.754100  0.481400  0.478100  1
  C  C1449  1  0.252200  0.978800  0.951020  1
  C  C1450  1  0.247800  0.478800  0.548980  1
  C  C1451  1  0.747800  0.021200  0.048980  1
  C  C1452  1  0.752200  0.521200  0.451020  1
  C  C1453  1  0.271800  0.996300  0.914180  1
  C  C1454  1  0.228200  0.496300  0.585820  1
  C  C1455  1  0.728200  0.003700  0.085820  1
  C  C1456  1  0.771800  0.503700  0.414180  1
  C  C1457  1  0.206100  0.033900  0.899000  1
  C  C1458  1  0.293900  0.533900  0.601000  1
  C  C1459  1  0.793900  0.966100  0.101000  1
  C  C1460  1  0.706100  0.466100  0.399000  1
  C  C1461  1  0.766500  0.475400  0.219400  1
  C  C1462  1  0.733500  0.975400  0.280600  1
  C  C1463  1  0.233500  0.524600  0.780600  1
  C  C1464  1  0.266500  0.024600  0.719400  1
  C  C1465  1  0.772000  0.508300  0.249900  1
  C  C1466  1  0.728000  0.008300  0.250100  1
  C  C1467  1  0.228000  0.491700  0.750100  1
  C  C1468  1  0.272000  0.991700  0.749900  1
  C  C1469  1  0.787800  0.559400  0.245500  1
  C  C1470  1  0.712200  0.059400  0.254500  1
  C  C1471  1  0.212200  0.440600  0.754500  1
  C  C1472  1  0.287800  0.940600  0.745500  1
  C  C1473  1  0.791400  0.583500  0.282630  1
  C  C1474  1  0.708600  0.083500  0.217370  1
  C  C1475  1  0.208600  0.416500  0.717370  1
  C  C1476  1  0.291400  0.916500  0.782630  1
  C  C1477  1  0.795200  0.635200  0.277320  1
  C  C1478  1  0.704800  0.135200  0.222680  1
  C  C1479  1  0.204800  0.364800  0.722680  1
  C  C1480  1  0.295200  0.864800  0.777320  1
  C  C1481  1  0.833800  0.658100  0.314100  1
  C  C1482  1  0.666200  0.158100  0.185900  1
  C  C1483  1  0.166200  0.341900  0.685900  1
  C  C1484  1  0.333800  0.841900  0.814100  1
  C  C1485  1  0.765700  0.657800  0.339500  1
  C  C1486  1  0.734300  0.157800  0.160500  1
  C  C1487  1  0.234300  0.342200  0.660500  1
  C  C1488  1  0.265700  0.842200  0.839500  1
  C  C1489  1  0.806200  0.678100  0.377200  1
  C  C1490  1  0.693800  0.178100  0.122800  1
  C  C1491  1  0.193800  0.321900  0.622800  1
  C  C1492  1  0.306200  0.821900  0.877200  1
  C  C1493  1  0.737600  0.678500  0.402400  1
  C  C1494  1  0.762400  0.178500  0.097600  1
  C  C1495  1  0.262400  0.321500  0.597600  1
  C  C1496  1  0.237600  0.821500  0.902400  1
  C  C1497  1  0.776900  0.700600  0.439500  1
  C  C1498  1  0.723100  0.200600  0.060500  1
  C  C1499  1  0.223100  0.299400  0.560500  1
  C  C1500  1  0.276900  0.799400  0.939500  1
  C  C1501  1  0.712300  0.702100  0.465000  1
  C  C1502  1  0.787700  0.202100  0.035000  1
  C  C1503  1  0.287700  0.297900  0.535000  1
  C  C1504  1  0.212300  0.797900  0.965000  1
  C  C1505  1  0.744300  0.732500  0.498600  1
  C  C1506  1  0.755700  0.232500  0.001400  1
  C  C1507  1  0.255700  0.267500  0.501400  1
  C  C1508  1  0.244300  0.767500  0.998600  1
  C  C1509  1  0.402100  0.694700  0.401100  1
  C  C1510  1  0.097900  0.194700  0.098900  1
  C  C1511  1  0.597900  0.305300  0.598900  1
  C  C1512  1  0.902100  0.805300  0.901100  1
  C  C1513  1  0.307000  0.707000  0.402000  1
  C  C1514  1  0.193000  0.207000  0.098000  1
  C  C1515  1  0.693000  0.293000  0.598000  1
  C  C1516  1  0.807000  0.793000  0.902000  1
  C  C1517  1  0.302900  0.749100  0.426300  1
  C  C1518  1  0.197100  0.249100  0.073700  1
  C  C1519  1  0.697100  0.250900  0.573700  1
  C  C1520  1  0.802900  0.750900  0.926300  1
  C  C1521  1  0.247100  0.738500  0.455600  1
  C  C1522  1  0.252900  0.238500  0.044400  1
  C  C1523  1  0.752900  0.261500  0.544400  1
  C  C1524  1  0.747100  0.761500  0.955600  1
  C  C1525  1  0.293500  0.702600  0.482500  1
  C  C1526  1  0.206500  0.202600  0.017500  1
  C  C1527  1  0.706500  0.297400  0.517500  1
  C  C1528  1  0.793500  0.797400  0.982500  1
  C  C1529  1  0.271000  0.710000  0.520800  1
  C  C1530  1  0.229000  0.210000  0.979200  1
  C  C1531  1  0.729000  0.290000  0.479200  1
  C  C1532  1  0.771000  0.790000  0.020800  1
  C  C1533  1  0.264000  0.663900  0.539800  1
  C  C1534  1  0.236000  0.163900  0.960200  1
  C  C1535  1  0.736000  0.336100  0.460200  1
  C  C1536  1  0.764000  0.836100  0.039800  1
  C  C1537  1  0.239400  0.671300  0.577700  1
  C  C1538  1  0.260600  0.171300  0.922300  1
  C  C1539  1  0.760600  0.328700  0.422300  1
  C  C1540  1  0.739400  0.828700  0.077700  1
  C  C1541  1  0.266300  0.629600  0.602200  1
  C  C1542  1  0.233700  0.129600  0.897800  1
  C  C1543  1  0.733700  0.370400  0.397800  1
  C  C1544  1  0.766300  0.870400  0.102200  1
  C  C1545  1  0.236000  0.635600  0.639200  1
  C  C1546  1  0.264000  0.135600  0.860800  1
  C  C1547  1  0.764000  0.364400  0.360800  1
  C  C1548  1  0.736000  0.864400  0.139200  1
  C  C1549  1  0.226000  0.588900  0.656600  1
  C  C1550  1  0.274000  0.088900  0.843400  1
  C  C1551  1  0.774000  0.411100  0.343400  1
  C  C1552  1  0.726000  0.911100  0.156600  1
  C  C1553  1  0.300700  0.557400  0.650100  1
  C  C1554  1  0.199300  0.057400  0.849900  1
  C  C1555  1  0.699300  0.442600  0.349900  1
  C  C1556  1  0.800700  0.942600  0.150100  1
  C  C1557  1  0.571400  0.271100  0.316100  1
  C  C1558  1  0.928600  0.771100  0.183900  1
  C  C1559  1  0.428600  0.728900  0.683900  1
  C  C1560  1  0.071400  0.228900  0.816100  1
  C  C1561  1  0.689400  0.299600  0.284900  1
  C  C1562  1  0.810600  0.799600  0.215100  1
  C  C1563  1  0.310600  0.700400  0.715100  1
  C  C1564  1  0.189400  0.200400  0.784900  1
  C  C1565  1  0.700800  0.271600  0.250900  1
  C  C1566  1  0.799200  0.771600  0.249100  1
  C  C1567  1  0.299200  0.728400  0.749100  1
  C  C1568  1  0.200800  0.228400  0.750900  1
  C  C1569  1  0.533200  0.329800  0.267400  1
  C  C1570  1  0.966800  0.829800  0.232600  1
  C  C1571  1  0.466800  0.670200  0.732600  1
  C  C1572  1  0.033200  0.170200  0.767400  1
  C  C1573  1  0.540600  0.379800  0.282100  1
  C  C1574  1  0.959400  0.879800  0.217900  1
  C  C1575  1  0.459400  0.620200  0.717900  1
  C  C1576  1  0.040600  0.120200  0.782100  1
  C  C1577  1  0.451800  0.167900  0.514000  1
  C  C1578  1  0.048200  0.667900  0.986000  1
  C  C1579  1  0.548200  0.832100  0.486000  1
  C  C1580  1  0.951800  0.332100  0.014000  1
  C  C1581  1  0.399900  0.285500  0.187100  1
  C  C1582  1  0.100100  0.785500  0.312900  1
  C  C1583  1  0.600100  0.714500  0.812900  1
  C  C1584  1  0.899900  0.214500  0.687100  1
  C  C1585  1  0.434300  0.216400  0.225000  1
  C  C1586  1  0.065700  0.716400  0.275000  1
  C  C1587  1  0.565700  0.783600  0.775000  1
  C  C1588  1  0.934300  0.283600  0.725000  1
  C  C1589  1  0.439200  0.179300  0.198400  1
  C  C1590  1  0.060800  0.679300  0.301600  1
  C  C1591  1  0.560800  0.820700  0.801600  1
  C  C1592  1  0.939200  0.320700  0.698400  1
  C  C1593  1  0.280800  0.254300  0.215900  1
  C  C1594  1  0.219200  0.754300  0.284100  1
  C  C1595  1  0.719200  0.745700  0.784100  1
  C  C1596  1  0.780800  0.245700  0.715900  1
  C  C1597  1  0.270500  0.264400  0.254300  1
  C  C1598  1  0.229500  0.764400  0.245700  1
  C  C1599  1  0.729500  0.735600  0.745700  1
  C  C1600  1  0.770500  0.235600  0.754300  1
  C  C1601  1  0.613800  0.390700  0.006100  1
  C  C1602  1  0.886200  0.890700  0.493900  1
  C  C1603  1  0.386200  0.609300  0.993900  1
  C  C1604  1  0.113800  0.109300  0.506100  1
  C  C1605  1  0.706800  0.405500  0.962300  1
  C  C1606  1  0.793200  0.905500  0.537700  1
  C  C1607  1  0.293200  0.594500  0.037700  1
  C  C1608  1  0.206800  0.094500  0.462300  1
  C  C1609  1  0.685800  0.386500  0.924200  1
  C  C1610  1  0.814200  0.886500  0.575800  1
  C  C1611  1  0.314200  0.613500  0.075800  1
  C  C1612  1  0.185800  0.113500  0.424200  1
  C  C1613  1  0.571300  0.453100  0.961900  1
  C  C1614  1  0.928700  0.953100  0.538100  1
  C  C1615  1  0.428700  0.546900  0.038100  1
  C  C1616  1  0.071300  0.046900  0.461900  1
  C  C1617  1  0.606800  0.498800  0.978200  1
  C  C1618  1  0.893200  0.998800  0.521800  1
  C  C1619  1  0.393200  0.501200  0.021800  1
  C  C1620  1  0.106800  0.001200  0.478200  1
  C  C1621  1  0.887500  0.539500  0.061100  1
  C  C1622  1  0.612500  0.039500  0.438900  1
  C  C1623  1  0.112500  0.460500  0.938900  1
  C  C1624  1  0.387500  0.960500  0.561100  1
  C  C1625  1  0.840200  0.477100  0.097300  1
  C  C1626  1  0.659800  0.977100  0.402700  1
  C  C1627  1  0.159800  0.522900  0.902700  1
  C  C1628  1  0.340200  0.022900  0.597300  1
  C  C1629  1  0.772900  0.447700  0.072800  1
  C  C1630  1  0.727100  0.947700  0.427200  1
  C  C1631  1  0.227100  0.552300  0.927200  1
  C  C1632  1  0.272900  0.052300  0.572800  1
  C  C1633  1  0.775400  0.557000  0.099900  1
  C  C1634  1  0.724600  0.057000  0.400100  1
  C  C1635  1  0.224600  0.443000  0.900100  1
  C  C1636  1  0.275400  0.943000  0.599900  1
  C  C1637  1  0.822200  0.577200  0.137400  1
  C  C1638  1  0.677800  0.077200  0.362600  1
  C  C1639  1  0.177800  0.422800  0.862600  1
  C  C1640  1  0.322200  0.922800  0.637400  1
  C  C1641  1  0.202400  0.907200  0.083700  1
  C  C1642  1  0.297600  0.407200  0.416300  1
  C  C1643  1  0.797600  0.092800  0.916300  1
  C  C1644  1  0.702400  0.592800  0.583700  1
  C  C1645  1  0.180500  0.900500  0.122300  1
  C  C1646  1  0.319500  0.400500  0.377700  1
  C  C1647  1  0.819500  0.099500  0.877700  1
  C  C1648  1  0.680500  0.599500  0.622300  1
  C  C1649  1  0.219000  0.940000  0.147400  1
  C  C1650  1  0.281000  0.440000  0.352600  1
  C  C1651  1  0.781000  0.060000  0.852600  1
  C  C1652  1  0.719000  0.560000  0.647400  1
  C  C1653  1  0.200900  0.932000  0.186500  1
  C  C1654  1  0.299100  0.432000  0.313500  1
  C  C1655  1  0.799100  0.068000  0.813500  1
  C  C1656  1  0.700900  0.568000  0.686500  1
  C  C1657  1  0.252000  0.890000  0.203500  1
  C  C1658  1  0.248000  0.390000  0.296500  1
  C  C1659  1  0.748000  0.110000  0.796500  1
  C  C1660  1  0.752000  0.610000  0.703500  1
  C  C1661  1  0.249000  0.887600  0.244800  1
  C  C1662  1  0.251000  0.387600  0.255200  1
  C  C1663  1  0.751000  0.112400  0.755200  1
  C  C1664  1  0.749000  0.612400  0.744800  1
  C  C1665  1  0.224000  0.934300  0.258400  1
  C  C1666  1  0.276000  0.434300  0.241600  1
  C  C1667  1  0.776000  0.065700  0.741600  1
  C  C1668  1  0.724000  0.565700  0.758400  1
  C  C1669  1  0.213000  0.930800  0.298800  1
  C  C1670  1  0.287000  0.430800  0.201200  1
  C  C1671  1  0.787000  0.069200  0.701200  1
  C  C1672  1  0.713000  0.569200  0.798800  1
  C  C1673  1  0.203000  0.978600  0.314300  1
  C  C1674  1  0.297000  0.478600  0.185700  1
  C  C1675  1  0.797000  0.021400  0.685700  1
  C  C1676  1  0.703000  0.521400  0.814300  1
  C  C1677  1  0.205000  0.975700  0.356000  1
  C  C1678  1  0.295000  0.475700  0.144000  1
  C  C1679  1  0.795000  0.024300  0.644000  1
  C  C1680  1  0.705000  0.524300  0.856000  1
  C  C1681  1  0.358900  0.679500  0.366400  1
  C  C1682  1  0.141100  0.179500  0.133600  1
  C  C1683  1  0.641100  0.320500  0.633600  1
  C  C1684  1  0.858900  0.820500  0.866400  1
  C  C1685  1  0.274300  0.687000  0.381000  1
  C  C1686  1  0.225700  0.187000  0.119000  1
  C  C1687  1  0.725700  0.313000  0.619000  1
  C  C1688  1  0.774300  0.813000  0.881000  1
  C  C1689  1  0.266400  0.736900  0.392300  1
  C  C1690  1  0.233600  0.236900  0.107700  1
  C  C1691  1  0.733600  0.263100  0.607700  1
  C  C1692  1  0.766400  0.763100  0.892300  1
  C  C1693  1  0.180700  0.743700  0.407000  1
  C  C1694  1  0.319300  0.243700  0.093000  1
  C  C1695  1  0.819300  0.256300  0.593000  1
  C  C1696  1  0.680700  0.756300  0.907000  1
  C  C1697  1  0.167300  0.703700  0.432200  1
  C  C1698  1  0.332700  0.203700  0.067800  1
  C  C1699  1  0.832700  0.296300  0.567800  1
  C  C1700  1  0.667300  0.796300  0.932200  1
  C  C1701  1  0.255600  0.690500  0.456200  1
  C  C1702  1  0.244400  0.190500  0.043800  1
  C  C1703  1  0.744400  0.309500  0.543800  1
  C  C1704  1  0.755600  0.809500  0.956200  1
  C  C1705  1  0.263300  0.712100  0.494500  1
  C  C1706  1  0.236700  0.212100  0.005500  1
  C  C1707  1  0.736700  0.287900  0.505500  1
  C  C1708  1  0.763300  0.787900  0.994500  1
  C  C1709  1  0.251000  0.675400  0.522800  1
  C  C1710  1  0.249000  0.175400  0.977200  1
  C  C1711  1  0.749000  0.324600  0.477200  1
  C  C1712  1  0.751000  0.824600  0.022800  1
  C  C1713  1  0.235800  0.697900  0.558500  1
  C  C1714  1  0.264200  0.197900  0.941500  1
  C  C1715  1  0.764200  0.302100  0.441500  1
  C  C1716  1  0.735800  0.802100  0.058500  1
  C  C1717  1  0.284800  0.671400  0.592000  1
  C  C1718  1  0.215200  0.171400  0.908000  1
  C  C1719  1  0.715200  0.328600  0.408000  1
  C  C1720  1  0.784800  0.828600  0.092000  1
  C  C1721  1  0.234400  0.627600  0.597100  1
  C  C1722  1  0.265600  0.127600  0.902900  1
  C  C1723  1  0.765600  0.372400  0.402900  1
  C  C1724  1  0.734400  0.872400  0.097100  1
  C  C1725  1  0.279000  0.603300  0.632500  1
  C  C1726  1  0.221000  0.103300  0.867500  1
  C  C1727  1  0.721000  0.396700  0.367500  1
  C  C1728  1  0.779000  0.896700  0.132500  1
  N  N1729  1  0.596400  0.299600  0.290800  1
  N  N1730  1  0.903600  0.799600  0.209200  1
  N  N1731  1  0.403600  0.700400  0.709200  1
  N  N1732  1  0.096400  0.200400  0.790800  1
  N  N1733  1  0.371000  0.254600  0.208300  1
  N  N1734  1  0.129000  0.754600  0.291700  1
  N  N1735  1  0.629000  0.745400  0.791700  1
  N  N1736  1  0.871000  0.245400  0.708300  1
  N  N1737  1  0.629600  0.414700  0.976000  1
  N  N1738  1  0.870400  0.914700  0.524000  1
  N  N1739  1  0.370400  0.585300  0.024000  1
  N  N1740  1  0.129600  0.085300  0.476000  1
  N  N1741  1  0.836500  0.525800  0.084700  1
  N  N1742  1  0.663500  0.025800  0.415300  1
  N  N1743  1  0.163500  0.474200  0.915300  1
  N  N1744  1  0.336500  0.974200  0.584700  1
  O  O1745  1  0.444400  0.167240  0.343780  1
  O  O1746  1  0.055600  0.667240  0.156220  1
  O  O1747  1  0.555600  0.832760  0.656220  1
  O  O1748  1  0.944400  0.332760  0.843780  1
  O  O1749  1  0.421800  0.133200  0.396720  1
  O  O1750  1  0.078200  0.633200  0.103280  1
  O  O1751  1  0.578200  0.866800  0.603280  1
  O  O1752  1  0.921800  0.366800  0.896720  1
  O  O1753  1  0.491200  0.270590  0.099170  1
  O  O1754  1  0.008800  0.770590  0.400830  1
  O  O1755  1  0.508800  0.729410  0.900830  1
  O  O1756  1  0.991200  0.229410  0.599170  1
  O  O1757  1  0.503400  0.305340  0.045370  1
  O  O1758  1  0.996600  0.805340  0.454630  1
  O  O1759  1  0.496600  0.694660  0.954630  1
  O  O1760  1  0.003400  0.194660  0.545370  1
  O  O1761  1  0.587800  0.210500  0.387260  1
  O  O1762  1  0.912200  0.710500  0.112740  1
  O  O1763  1  0.412200  0.789500  0.612740  1
  O  O1764  1  0.087800  0.289500  0.887260  1
  O  O1765  1  0.565700  0.175000  0.440010  1
  O  O1766  1  0.934300  0.675000  0.059990  1
  O  O1767  1  0.434300  0.825000  0.559990  1
  O  O1768  1  0.065700  0.325000  0.940010  1
  O  O1769  1  0.635200  0.313190  0.142610  1
  O  O1770  1  0.864800  0.813190  0.357390  1
  O  O1771  1  0.364800  0.686810  0.857390  1
  O  O1772  1  0.135200  0.186810  0.642610  1
  O  O1773  1  0.655900  0.341360  0.086780  1
  O  O1774  1  0.844100  0.841360  0.413220  1
  O  O1775  1  0.344100  0.658640  0.913220  1
  O  O1776  1  0.155900  0.158640  0.586780  1
  O  O1777  1  0.314800  0.206100  0.414100  1
  O  O1778  1  0.185200  0.706100  0.085900  1
  O  O1779  1  0.685200  0.793900  0.585900  1
  O  O1780  1  0.814800  0.293900  0.914100  1
  O  O1781  1  0.332700  0.237600  0.359730  1
  O  O1782  1  0.167300  0.737600  0.140270  1
  O  O1783  1  0.667300  0.762400  0.640270  1
  O  O1784  1  0.832700  0.262400  0.859730  1
  O  O1785  1  0.380100  0.341310  0.114420  1
  O  O1786  1  0.119900  0.841310  0.385580  1
  O  O1787  1  0.619900  0.658690  0.885580  1
  O  O1788  1  0.880100  0.158690  0.614420  1
  O  O1789  1  0.405500  0.379990  0.063760  1
  O  O1790  1  0.094500  0.879990  0.436240  1
  O  O1791  1  0.594500  0.620010  0.936240  1
  O  O1792  1  0.905500  0.120010  0.563760  1
  O  O1793  1  0.463700  0.247350  0.454140  1
  O  O1794  1  0.036300  0.747350  0.045860  1
  O  O1795  1  0.536300  0.752650  0.545860  1
  O  O1796  1  0.963700  0.252650  0.954140  1
  O  O1797  1  0.478500  0.282090  0.399980  1
  O  O1798  1  0.021500  0.782090  0.100020  1
  O  O1799  1  0.521500  0.717910  0.600020  1
  O  O1800  1  0.978500  0.217910  0.899980  1
  O  O1801  1  0.523800  0.385990  0.155420  1
  O  O1802  1  0.976200  0.885990  0.344580  1
  O  O1803  1  0.476200  0.614010  0.844580  1
  O  O1804  1  0.023800  0.114010  0.655420  1
  O  O1805  1  0.557600  0.417930  0.103630  1
  O  O1806  1  0.942400  0.917930  0.396370  1
  O  O1807  1  0.442400  0.582070  0.896370  1
  O  O1808  1  0.057600  0.082070  0.603630  1
  O  O1809  1  0.397500  0.902300  0.059290  1
  O  O1810  1  0.102500  0.402300  0.440710  1
  O  O1811  1  0.602500  0.097700  0.940710  1
  O  O1812  1  0.897500  0.597700  0.559290  1
  O  O1813  1  0.406700  0.884600  0.118030  1
  O  O1814  1  0.093300  0.384600  0.381970  1
  O  O1815  1  0.593300  0.115400  0.881970  1
  O  O1816  1  0.906700  0.615400  0.618030  1
  O  O1817  1  0.211400  0.092600  0.274700  1
  O  O1818  1  0.288600  0.592600  0.225300  1
  O  O1819  1  0.788600  0.907400  0.725300  1
  O  O1820  1  0.711400  0.407400  0.774700  1
  O  O1821  1  0.275600  0.140300  0.239000  1
  O  O1822  1  0.224400  0.640300  0.261000  1
  O  O1823  1  0.724400  0.859700  0.761000  1
  O  O1824  1  0.775600  0.359700  0.739000  1
  O  O1825  1  0.736300  0.436000  0.226300  1
  O  O1826  1  0.763700  0.936000  0.273700  1
  O  O1827  1  0.263700  0.564000  0.773700  1
  O  O1828  1  0.236300  0.064000  0.726300  1
  O  O1829  1  0.792000  0.487500  0.190200  1
  O  O1830  1  0.708000  0.987500  0.309800  1
  O  O1831  1  0.208000  0.512500  0.809800  1
  O  O1832  1  0.292000  0.012500  0.690200  1
  O  O1833  1  0.418100  0.661500  0.377100  1
  O  O1834  1  0.081900  0.161500  0.122900  1
  O  O1835  1  0.581900  0.338500  0.622900  1
  O  O1836  1  0.918100  0.838500  0.877100  1
  O  O1837  1  0.466600  0.712200  0.420300  1
  O  O1838  1  0.033400  0.212200  0.079700  1
  O  O1839  1  0.533400  0.287800  0.579700  1
  O  O1840  1  0.966600  0.787800  0.920300  1
  O  O1841  1  0.491000  0.266500  0.320900  1
  O  O1842  1  0.009000  0.766500  0.179100  1
  O  O1843  1  0.509000  0.733500  0.679100  1
  O  O1844  1  0.991000  0.233500  0.820900  1
  O  O1845  1  0.414400  0.149800  0.478860  1
  O  O1846  1  0.085600  0.649800  0.021140  1
  O  O1847  1  0.585600  0.850200  0.521140  1
  O  O1848  1  0.914400  0.350200  0.978860  1
  O  O1849  1  0.476300  0.287100  0.179780  1
  O  O1850  1  0.023700  0.787100  0.320220  1
  O  O1851  1  0.523700  0.712900  0.820220  1
  O  O1852  1  0.976300  0.212900  0.679780  1
  O  O1853  1  0.555100  0.401100  0.021400  1
  O  O1854  1  0.944900  0.901100  0.478600  1
  O  O1855  1  0.444900  0.598900  0.978600  1
  O  O1856  1  0.055100  0.098900  0.521400  1
  O  O1857  1  0.936300  0.513300  0.045900  1
  O  O1858  1  0.563700  0.013300  0.454100  1
  O  O1859  1  0.063700  0.486700  0.954100  1
  O  O1860  1  0.436300  0.986700  0.545900  1
  O  O1861  1  0.427100  0.657700  0.388600  1
  O  O1862  1  0.072900  0.157700  0.111400  1
  O  O1863  1  0.572900  0.342300  0.611400  1
  O  O1864  1  0.927100  0.842300  0.888600  1
  O  O1865  1  0.371700  0.691600  0.336100  1
  O  O1866  1  0.128300  0.191600  0.163900  1
  O  O1867  1  0.628300  0.308400  0.663900  1
  O  O1868  1  0.871700  0.808400  0.836100  1
