
#######################################################################
#
#                 Cambridge Crystallographic Data Centre
#                                CCDC 
#
#######################################################################
#
# If this CIF has been generated from an entry in the Cambridge 
# Structural Database, then it will include bibliographic, chemical, 
# crystal, experimental, refinement or atomic coordinate data resulting 
# from the CCDC's data processing and validation procedures.
#
#######################################################################

data_ESEYIK
_chemical_formula_moiety         'C28 H40 Ag2 N4 O2 Si4 2+,2(Cl1 O4 1-)'
_chemical_name_systematic        
"bis(\m~2~-1,3-bis(4-Pyridyl)tetramethyldisiloxane-N,N')-di-silver(i) diperchlorate"
_symmetry_cell_setting           monoclinic
_symmetry_space_group_name_H-M   'C 2/c'
_symmetry_Int_Tables_number      15
_space_group_name_Hall           '-C 2yn'
loop_
_symmetry_equiv_pos_site_id
_symmetry_equiv_pos_as_xyz
1 x,y,z
2 1/2+x,1/2+y,z
3 -x,y,1/2-z
4 1/2-x,1/2+y,1/2-z
5 -x,-y,-z
6 1/2-x,1/2-y,-z
7 x,-y,1/2+z
8 1/2+x,1/2-y,1/2+z
_cell_length_a                   22.638(13)
_cell_length_b                   14.478(8)
_cell_length_c                   15.369(9)
_cell_angle_alpha                90
_cell_angle_beta                 125.024(10)
_cell_angle_gamma                90
_cell_volume                     4125.05
_exptl_crystal_colour            colorless
_exptl_crystal_description       needle
_cell_formula_units_Z            4
loop_
_atom_site_label
_atom_site_type_symbol
_atom_site_fract_x
_atom_site_fract_y
_atom_site_fract_z
Ag1 Ag 0.27190(4) 0.63724(6) 0.50041(5)
Si1 Si 0.11421(16) 0.6622(2) -0.03524(18)
Si2 Si 0.06855(17) 0.86722(19) -0.03790(19)
O1 O 0.1034(4) 0.7749(5) -0.0512(5)
N1 N 0.2277(4) 0.6312(5) 0.3331(5)
N2 N 0.3259(4) 0.6264(5) 0.6714(5)
C1 C 0.2618(6) 0.6677(8) 0.2939(7)
H1 H 0.3098 0.6907 0.3429
C2 C 0.2319(6) 0.6743(8) 0.1869(7)
H2 H 0.2592 0.7008 0.1632
C3 C 0.1618(6) 0.6426(6) 0.1127(7)
C4 C 0.1282(5) 0.6022(8) 0.1531(7)
H3 H 0.0808 0.5765 0.1061
C5 C 0.1626(6) 0.5979(7) 0.2637(7)
H4 H 0.1374 0.5694 0.2899
C6 C 0.2943(5) 0.5852(8) 0.7123(7)
H5 H 0.2482 0.5562 0.6653
C7 C 0.3260(5) 0.5831(8) 0.8200(7)
H6 H 0.3010 0.5536 0.8460
C8 C 0.1073(5) 0.8777(6) 0.1080(6)
C9 C 0.0767(6) 0.8421(7) 0.1548(7)
H7 H 0.0293 0.8161 0.1100
C10 C 0.3906(6) 0.6589(7) 0.7382(7)
H8 H 0.4161 0.6845 0.7111
C11 C 0.1758(7) 0.6302(8) -0.0751(8)
H9 H 0.2202 0.6641 -0.0324
H10 H 0.1531 0.6451 -0.1486
H11 H 0.1858 0.5652 -0.0646
C12 C 0.0262(6) 0.6071(9) -0.1102(8)
H12 H 0.0032 0.6177 -0.1847
H13 H -0.0029 0.6325 -0.0891
H14 H 0.0319 0.5418 -0.0965
C13 C 0.0966(7) 0.9673(9) -0.0795(7)
H15 H 0.1483 0.9695 -0.0386
H16 H 0.0789 1.0229 -0.0681
H17 H 0.0773 0.9618 -0.1536
C14 C -0.0302(7) 0.8628(7) -0.1164(8)
H18 H -0.0448 0.8105 -0.0947
H19 H -0.0493 0.8572 -0.1903
H20 H -0.0481 0.9184 -0.1051
Ag1E Ag 0.22810(4) 0.86276(6) 0.49959(5)
Si1E Si 0.38579(16) 0.8378(2) 1.03524(18)
Si2E Si 0.43145(17) 0.63278(19) 1.03790(19)
O1E O 0.3966(4) 0.7251(5) 1.0512(5)
N1E N 0.2723(4) 0.8688(5) 0.6669(5)
N2E N 0.1741(4) 0.8736(5) 0.3286(5)
C1E C 0.2382(6) 0.8323(8) 0.7061(7)
H1E H 0.1902 0.8093 0.6571
C2E C 0.2681(6) 0.8257(8) 0.8131(7)
H2E H 0.2408 0.7992 0.8368
C3E C 0.3382(6) 0.8574(6) 0.8873(7)
C4E C 0.3718(5) 0.8978(8) 0.8469(7)
H3E H 0.4192 0.9235 0.8939
C5E C 0.3374(6) 0.9021(7) 0.7363(7)
H4E H 0.3626 0.9306 0.7101
C6E C 0.2057(5) 0.9148(8) 0.2877(7)
H5E H 0.2518 0.9438 0.3347
C7E C 0.1740(5) 0.9169(8) 0.1800(7)
H6E H 0.1990 0.9464 0.1540
C8E C 0.3927(5) 0.6223(6) 0.8920(6)
C9E C 0.4233(6) 0.6579(7) 0.8452(7)
H7E H 0.4707 0.6839 0.8900
C10E C 0.1094(6) 0.8411(7) 0.2618(7)
H8E H 0.0839 0.8155 0.2889
C11E C 0.3242(7) 0.8698(8) 1.0751(8)
H9E H 0.2798 0.8359 1.0324
H10E H 0.3469 0.8549 1.1486
H11E H 0.3142 0.9348 1.0646
C12E C 0.4738(6) 0.8929(9) 1.1102(8)
H12E H 0.4968 0.8823 1.1847
H13E H 0.5029 0.8675 1.0891
H14E H 0.4681 0.9582 1.0965
C13E C 0.4034(7) 0.5327(9) 1.0795(7)
H15E H 0.3517 0.5305 1.0386
H16E H 0.4211 0.4771 1.0681
H17E H 0.4227 0.5382 1.1536
C14E C 0.5302(7) 0.6372(7) 1.1164(8)
H18E H 0.5448 0.6895 1.0947
H19E H 0.5493 0.6428 1.1903
H20E H 0.5481 0.5816 1.1051
Cl1 Cl 0.40316(17) 0.8368(3) 0.5308(3)
O2 O 0.3845(7) 0.7437(7) 0.5330(7)
O3 O 0.3922(10) 0.8432(9) 0.4312(13)
O4 O 0.3588(5) 0.9001(10) 0.5352(7)
O5 O 0.4741(6) 0.8438(11) 0.6161(16)
loop_
_geom_bond_atom_site_label_1
_geom_bond_atom_site_label_2
_geom_bond_site_symmetry_1
_geom_bond_site_symmetry_2
Ag1 N1 1_555 1_555
Si1 O1 1_555 1_555
Si2 O1 1_555 1_555
N1 C1 1_555 1_555
N2 Ag1 1_555 1_555
C1 H1 1_555 1_555
C2 C1 1_555 1_555
H2 C2 1_555 1_555
C3 Si1 1_555 1_555
C4 C3 1_555 1_555
H3 C4 1_555 1_555
C5 N1 1_555 1_555
H4 C5 1_555 1_555
C6 N2 1_555 1_555
H5 C6 1_555 1_555
C7 C6 1_555 1_555
H6 C7 1_555 1_555
C8 Si2 1_555 1_555
C9 C8 1_555 1_555
H7 C9 1_555 1_555
C10 N2 1_555 1_555
H8 C10 1_555 1_555
C11 Si1 1_555 1_555
H9 C11 1_555 1_555
H10 C11 1_555 1_555
H11 C11 1_555 1_555
C12 Si1 1_555 1_555
H12 C12 1_555 1_555
H13 C12 1_555 1_555
H14 C12 1_555 1_555
C13 Si2 1_555 1_555
H15 C13 1_555 1_555
H16 C13 1_555 1_555
H17 C13 1_555 1_555
C14 Si2 1_555 1_555
H18 C14 1_555 1_555
H19 C14 1_555 1_555
H20 C14 1_555 1_555
Cl1 O2 1_555 1_555
O3 Cl1 1_555 1_555
O4 Cl1 1_555 1_555
O5 Cl1 1_555 1_555
Ag1E N1E 1_555 1_555
Si1E O1E 1_555 1_555
Si2E O1E 1_555 1_555
N1E C1E 1_555 1_555
N2E Ag1E 1_555 1_555
C1E H1E 1_555 1_555
C2E C1E 1_555 1_555
H2E C2E 1_555 1_555
C3E Si1E 1_555 1_555
C4E C3E 1_555 1_555
H3E C4E 1_555 1_555
C5E N1E 1_555 1_555
H4E C5E 1_555 1_555
C6E N2E 1_555 1_555
H5E C6E 1_555 1_555
C7E C8 1_555 1_555
H6E C7E 1_555 1_555
C8E C7 1_555 1_555
C9E C10 1_555 1_555
H7E C9E 1_555 1_555
C10E C9 1_555 1_555
H8E C10E 1_555 1_555
C11E Si1E 1_555 1_555
H9E C11E 1_555 1_555
H10E C11E 1_555 1_555
H11E C11E 1_555 1_555
C12E Si1E 1_555 1_555
H12E C12E 1_555 1_555
H13E C12E 1_555 1_555
H14E C12E 1_555 1_555
C13E Si2E 1_555 1_555
H15E C13E 1_555 1_555
H16E C13E 1_555 1_555
H17E C13E 1_555 1_555
C14E Si2E 1_555 1_555
H18E C14E 1_555 1_555
H19E C14E 1_555 1_555
H20E C14E 1_555 1_555
C2 C3 1_555 1_555
C4 C5 1_555 1_555
Si2E C8E 1_555 1_555
N2E C10E 1_555 1_555
C2E C3E 1_555 1_555
C4E C5E 1_555 1_555
C6E C7E 1_555 1_555
C8E C9E 1_555 1_555

#END
