
#######################################################################
#
#                 Cambridge Crystallographic Data Centre
#                                CCDC 
#
#######################################################################
#
# If this CIF has been generated from an entry in the Cambridge 
# Structural Database, then it will include bibliographic, chemical, 
# crystal, experimental, refinement or atomic coordinate data resulting 
# from the CCDC's data processing and validation procedures.
#
#######################################################################

data_ESEYOQ
_chemical_formula_moiety         'C28 H40 Ag2 N4 O2 Si4 2+,2(F6 P1 1-)'
_chemical_name_systematic        
"bis(\m~2~-1,3-bis(4-Pyridyl)tetramethyldisiloxane-N,N')-di-silver(i) bis(hexafluorophosphate)"
_symmetry_cell_setting           monoclinic
_symmetry_space_group_name_H-M   'C 2/c'
_symmetry_Int_Tables_number      15
_space_group_name_Hall           '-C 2yn'
loop_
_symmetry_equiv_pos_site_id
_symmetry_equiv_pos_as_xyz
1 x,y,z
2 1/2+x,1/2+y,z
3 -x,y,1/2-z
4 1/2-x,1/2+y,1/2-z
5 -x,-y,-z
6 1/2-x,1/2-y,-z
7 x,-y,1/2+z
8 1/2+x,1/2-y,1/2+z
_cell_length_a                   19.647(5)
_cell_length_b                   8.933(3)
_cell_length_c                   25.427(5)
_cell_angle_alpha                90
_cell_angle_beta                 107.01(3)
_cell_angle_gamma                90
_cell_volume                     4267.39
_cell_formula_units_Z            4
loop_
_atom_site_label
_atom_site_type_symbol
_atom_site_fract_x
_atom_site_fract_y
_atom_site_fract_z
Ag1 Ag 0.70546(7) 0.41873(18) 0.96502(5)
Si1 Si 0.8651(2) 0.2257(6) 0.77056(16)
Si2 Si 0.9534(2) -0.0419(6) 0.83580(17)
O1 O 0.9221(7) 0.0993(18) 0.7967(5)
N1 N 0.7571(7) 0.3628(15) 0.9052(5)
N2 N 0.6466(7) 0.4701(16) 1.0201(5)
C1 C 0.8167(10) 0.4248(19) 0.9033(6)
H1 H 0.8372 0.4967 0.9297
C2 C 0.8514(8) 0.3902(18) 0.8646(6)
H2 H 0.8937 0.4376 0.8650
C3 C 0.8208(6) 0.2813(16) 0.8244(5)
C4 C 0.7602(7) 0.2202(18) 0.8280(6)
H3 H 0.7385 0.1468 0.8027
C5 C 0.7287(8) 0.2611(19) 0.8675(7)
H4 H 0.6861 0.2159 0.8676
C6 C 0.7984(10) 0.162(3) 0.7087(7)
H5 H 0.8212 0.1339 0.6815
H6 H 0.7650 0.2408 0.6946
H7 H 0.7738 0.0766 0.7174
C7 C 0.9111(13) 0.390(3) 0.7525(9)
H8 H 0.9468 0.4252 0.7847
H9 H 0.8771 0.4686 0.7386
H10 H 0.9332 0.3625 0.7249
C8 C 0.5950(8) 0.387(2) 1.0254(6)
H11 H 0.5808 0.3062 1.0014
C9 C 0.5594(8) 0.410(2) 1.0651(6)
H12 H 0.5211 0.3504 1.0658
C10 C 0.9181(8) -0.0236(17) 0.8971(5)
C11 C 0.8651(8) -0.116(2) 0.9047(6)
H13 H 0.8503 -0.1986 0.8821
C12 C 0.6652(10) 0.585(2) 1.0549(8)
H14 H 0.7013 0.6474 1.0513
C13 C 1.0510(8) -0.030(2) 0.8565(8)
H15 H 1.0659 0.0621 0.8761
H16 H 1.0709 -0.1129 0.8799
H17 H 1.0672 -0.0323 0.8244
C14 C 0.9241(10) -0.217(3) 0.7998(7)
H18 H 0.9423 -0.2244 0.7687
H19 H 0.9414 -0.2995 0.8242
H20 H 0.8730 -0.2198 0.7873
C9E C 0.9406(8) 0.090(2) 0.9349(6)
C8E C 0.9050(8) 0.113(2) 0.9746(6)
N2E N 0.8534(7) 0.0299(16) 0.9799(5)
Ag1E Ag 0.79454(7) 0.08127(18) 1.03498(5)
N1E N 0.7429(7) 0.1372(15) 1.0948(5)
C1E C 0.6833(10) 0.0752(19) 1.0967(6)
H1E H 0.6628 0.0033 1.0703
C2E C 0.6486(8) 0.1098(18) 1.1354(6)
H2E H 0.6063 0.0624 1.1350
C3E C 0.6792(6) 0.2187(16) 1.1756(5)
Si1E Si 0.6349(2) 0.2743(6) 1.22944(16)
O1E O 0.5779(7) 0.4007(18) 1.2033(5)
Si2E Si 0.5466(2) 0.5419(6) 1.16420(17)
C10E C 0.5819(8) 0.5236(17) 1.1029(5)
C11E C 0.6349(8) 0.616(2) 1.0953(6)
H13E H 0.6497 0.6986 1.1179
C13E C 0.4490(8) 0.530(2) 1.1435(8)
H15E H 0.4341 0.4379 1.1239
H16E H 0.4291 0.6129 1.1201
H17E H 0.4328 0.5323 1.1756
C14E C 0.5759(10) 0.717(3) 1.2002(7)
H18E H 0.5577 0.7244 1.2313
H19E H 0.5586 0.7995 1.1758
H20E H 0.6270 0.7198 1.2127
C6E C 0.7016(10) 0.338(3) 1.2913(7)
H5E H 0.6788 0.3661 1.3185
H6E H 0.7350 0.2592 1.3054
H7E H 0.7262 0.4234 1.2826
C7E C 0.5889(13) 0.110(3) 1.2475(9)
H8E H 0.5532 0.0748 1.2153
H9E H 0.6229 0.0314 1.2614
H10E H 0.5668 0.1375 1.2751
C4E C 0.7398(7) 0.2798(18) 1.1720(6)
H3E H 0.7615 0.3532 1.1973
C5E C 0.7713(8) 0.2389(19) 1.1325(7)
H4E H 0.8139 0.2841 1.1324
C12E C 0.8348(10) -0.085(2) 0.9451(8)
H14E H 0.7987 -0.1474 0.9487
H11E H 0.9192 0.1938 0.9986
H12E H 0.9789 0.1496 0.9342
P1 P 0.8997(3) 0.5424(7) 1.0735(2)
F1 F 0.8519(11) 0.565(3) 1.1095(8)
F2 F 0.9563(10) 0.642(3) 1.1077(8)
F3 F 0.8540(11) 0.4075(19) 1.0461(7)
F4 F 0.9428(18) 0.433(3) 1.1112(15)
F5 F 0.8465(19) 0.646(4) 1.0398(15)
F6 F 0.9300(13) 0.557(4) 1.0277(9)
loop_
_geom_bond_atom_site_label_1
_geom_bond_atom_site_label_2
_geom_bond_site_symmetry_1
_geom_bond_site_symmetry_2
Ag1 N1 1_555 1_555
Si1 O1 1_555 1_555
Si2 O1 1_555 1_555
N1 C1 1_555 1_555
N2 Ag1 1_555 1_555
C1 H1 1_555 1_555
C2 C1 1_555 1_555
H2 C2 1_555 1_555
C3 Si1 1_555 1_555
C4 C3 1_555 1_555
H3 C4 1_555 1_555
C5 N1 1_555 1_555
H4 C5 1_555 1_555
C6 Si1 1_555 1_555
H5 C6 1_555 1_555
H6 C6 1_555 1_555
H7 C6 1_555 1_555
C7 Si1 1_555 1_555
H8 C7 1_555 1_555
H9 C7 1_555 1_555
H10 C7 1_555 1_555
C8 N2 1_555 1_555
H11 C8 1_555 1_555
C9 C8 1_555 1_555
H12 C9 1_555 1_555
C10 Si2 1_555 1_555
C11 C10 1_555 1_555
H13 C11 1_555 1_555
C12 N2 1_555 1_555
H14 C12 1_555 1_555
C13 Si2 1_555 1_555
H15 C13 1_555 1_555
H16 C13 1_555 1_555
H17 C13 1_555 1_555
C14 Si2 1_555 1_555
H18 C14 1_555 1_555
H19 C14 1_555 1_555
H20 C14 1_555 1_555
P1 F1 1_555 1_555
F2 P1 1_555 1_555
F3 P1 1_555 1_555
F4 P1 1_555 1_555
F5 P1 1_555 1_555
F6 P1 1_555 1_555
C9E C10 1_555 1_555
C8E C9E 1_555 1_555
N2E C8E 1_555 1_555
Ag1E N2E 1_555 1_555
N1E Ag1E 1_555 1_555
C1E N1E 1_555 1_555
H1E C1E 1_555 1_555
C2E C1E 1_555 1_555
H2E C2E 1_555 1_555
C3E C2E 1_555 1_555
Si1E C3E 1_555 1_555
O1E Si1E 1_555 1_555
Si2E O1E 1_555 1_555
C10E C9 1_555 1_555
C11E C12 1_555 1_555
H13E C11E 1_555 1_555
C13E Si2E 1_555 1_555
H15E C13E 1_555 1_555
H16E C13E 1_555 1_555
H17E C13E 1_555 1_555
C14E Si2E 1_555 1_555
H18E C14E 1_555 1_555
H19E C14E 1_555 1_555
H20E C14E 1_555 1_555
C6E Si1E 1_555 1_555
H5E C6E 1_555 1_555
H6E C6E 1_555 1_555
H7E C6E 1_555 1_555
C7E Si1E 1_555 1_555
H8E C7E 1_555 1_555
H9E C7E 1_555 1_555
H10E C7E 1_555 1_555
C4E C3E 1_555 1_555
H3E C4E 1_555 1_555
C5E N1E 1_555 1_555
H4E C5E 1_555 1_555
C12E C11 1_555 1_555
H14E C12E 1_555 1_555
H11E C8E 1_555 1_555
H12E C9E 1_555 1_555
C2 C3 1_555 1_555
C4 C5 1_555 1_555
N2E C12E 1_555 1_555
Si2E C10E 1_555 1_555
C10E C11E 1_555 1_555
C4E C5E 1_555 1_555

#END
