
#######################################################################
#
#                 Cambridge Crystallographic Data Centre
#                                CCDC 
#
#######################################################################
#
# If this CIF has been generated from an entry in the Cambridge 
# Structural Database, then it will include bibliographic, chemical, 
# crystal, experimental, refinement or atomic coordinate data resulting 
# from the CCDC's data processing and validation procedures.
#
#######################################################################

data_ESEYEG
_chemical_formula_moiety         'C28 H40 Ag2 N4 O2 Si4 2+,2(N1 O3 1-)'
_chemical_name_systematic        
"bis(\m~2~-1,3-bis(4-Pyridyl)tetramethyldisiloxane-N,N')-di-silver(i) dinitrate"
_symmetry_cell_setting           monoclinic
_symmetry_space_group_name_H-M   'C 2/c'
_symmetry_Int_Tables_number      15
_space_group_name_Hall           '-C 2yn'
loop_
_symmetry_equiv_pos_site_id
_symmetry_equiv_pos_as_xyz
1 x,y,z
2 1/2+x,1/2+y,z
3 -x,y,1/2-z
4 1/2-x,1/2+y,1/2-z
5 -x,-y,-z
6 1/2-x,1/2-y,-z
7 x,-y,1/2+z
8 1/2+x,1/2-y,1/2+z
_cell_length_a                   21.894(2)
_cell_length_b                   14.2244(15)
_cell_length_c                   15.8191(18)
_cell_angle_alpha                90
_cell_angle_beta                 128.902(2)
_cell_angle_gamma                90
_cell_volume                     3833.93
_exptl_crystal_colour            colorless
_exptl_crystal_description       block
_cell_formula_units_Z            4
loop_
_atom_site_label
_atom_site_type_symbol
_atom_site_fract_x
_atom_site_fract_y
_atom_site_fract_z
Ag1 Ag 0.26522(3) 0.63966(3) 0.50172(4)
Si1 Si 0.11288(9) 0.65961(10) -0.03031(12)
Si2 Si 0.06518(8) 0.86837(10) -0.04133(12)
O1 O 0.1027(2) 0.7735(2) -0.0503(3)
N1 N 0.2209(3) 0.6319(3) 0.3344(4)
N2 N 0.3212(3) 0.6242(3) 0.6727(4)
C1 C 0.2616(3) 0.6690(4) 0.3057(5)
H1 H 0.3133 0.6930 0.3616
C2 C 0.2328(3) 0.6741(4) 0.2000(4)
H2 H 0.2643 0.7015 0.1835
C3 C 0.1584(3) 0.6399(3) 0.1164(4)
C4 C 0.1181(3) 0.5989(4) 0.1480(5)
H3 H 0.0674 0.5714 0.0942
C5 C 0.1497(3) 0.5972(4) 0.2556(5)
H4 H 0.1196 0.5701 0.2747
C6 C 0.2846(3) 0.5865(4) 0.7074(5)
H5 H 0.2334 0.5600 0.6549
C7 C 0.3175(3) 0.5842(4) 0.8155(4)
H6 H 0.2887 0.5569 0.8365
C8 C 0.1080(3) 0.8788(3) 0.1054(4)
C9 C 0.0707(3) 0.8409(4) 0.1432(5)
H7 H 0.0188 0.8153 0.0926
C10 C 0.3928(4) 0.6603(4) 0.7478(5)
H8 H 0.4198 0.6883 0.7243
C11 C 0.1804(3) 0.6213(4) -0.0554(5)
H9 H 0.2281 0.6571 -0.0107
H10 H 0.1563 0.6310 -0.1305
H11 H 0.1921 0.5557 -0.0381
C12 C 0.0175(3) 0.5982(4) -0.1168(4)
H12 H -0.0064 0.6080 -0.1919
H13 H -0.0162 0.6225 -0.1027
H14 H 0.0256 0.5321 -0.1010
C13 C 0.0975(3) 0.9690(4) -0.0782(5)
H15 H 0.1538 0.9695 -0.0324
H16 H 0.0796 1.0264 -0.0686
H17 H 0.0761 0.9633 -0.1527
C14 C -0.0424(3) 0.8581(4) -0.1293(5)
H18 H -0.0562 0.8053 -0.1067
H19 H -0.0632 0.8493 -0.2032
H20 H -0.0640 0.9144 -0.1240
C7E C 0.1825(3) 0.9158(4) 0.1845(4)
C6E C 0.2154(3) 0.9135(4) 0.2926(5)
N2E N 0.1788(3) 0.8758(3) 0.3273(4)
Ag1E Ag 0.23478(3) 0.86034(3) 0.49828(4)
N1E N 0.2791(3) 0.8681(3) 0.6656(4)
C1E C 0.2384(3) 0.8310(4) 0.6943(5)
H1E H 0.1867 0.8070 0.6384
C2E C 0.2672(3) 0.8259(4) 0.8000(4)
H2E H 0.2357 0.7985 0.8165
C3E C 0.3416(3) 0.8601(3) 0.8836(4)
Si1E Si 0.38712(9) 0.84039(10) 1.03031(12)
O1E O 0.3973(2) 0.7265(2) 1.0503(3)
Si2E Si 0.43482(8) 0.63163(10) 1.04133(12)
C8E C 0.3920(3) 0.6212(3) 0.8946(4)
C9E C 0.4293(3) 0.6591(4) 0.8568(5)
H7E H 0.4812 0.6847 0.9074
C13E C 0.4025(3) 0.5310(4) 1.0782(5)
H15E H 0.3462 0.5305 1.0324
H16E H 0.4204 0.4736 1.0686
H17E H 0.4239 0.5367 1.1527
C14E C 0.5424(3) 0.6419(4) 1.1293(5)
H18E H 0.5562 0.6947 1.1067
H19E H 0.5632 0.6507 1.2032
H20E H 0.5640 0.5856 1.1240
C11E C 0.3196(3) 0.8787(4) 1.0554(5)
H9E H 0.2719 0.8429 1.0107
H10E H 0.3437 0.8690 1.1305
H11E H 0.3079 0.9443 1.0381
C12E C 0.4825(3) 0.9018(4) 1.1168(4)
H12E H 0.5064 0.8920 1.1919
H13E H 0.5162 0.8775 1.1027
H14E H 0.4744 0.9679 1.1010
C4E C 0.3819(3) 0.9011(4) 0.8520(5)
H3E H 0.4326 0.9286 0.9058
C5E C 0.3503(3) 0.9028(4) 0.7444(5)
H4E H 0.3804 0.9299 0.7253
C10E C 0.1072(4) 0.8397(4) 0.2522(5)
H8E H 0.0802 0.8117 0.2757
H5E H 0.2666 0.9400 0.3451
H6E H 0.2113 0.9431 0.1635
N3 N 0.3984(3) 0.8300(4) 0.5355(5)
O2 O 0.3907(3) 0.7500(4) 0.5561(4)
O3 O 0.3761(3) 0.8981(4) 0.5557(5)
O4 O 0.4226(3) 0.8383(4) 0.4857(5)
loop_
_geom_bond_atom_site_label_1
_geom_bond_atom_site_label_2
_geom_bond_site_symmetry_1
_geom_bond_site_symmetry_2
Ag1 N1 1_555 1_555
Si1 O1 1_555 1_555
Si2 O1 1_555 1_555
N1 C1 1_555 1_555
N2 Ag1 1_555 1_555
C1 H1 1_555 1_555
C2 C1 1_555 1_555
H2 C2 1_555 1_555
C3 Si1 1_555 1_555
C4 C3 1_555 1_555
H3 C4 1_555 1_555
C5 N1 1_555 1_555
H4 C5 1_555 1_555
C6 N2 1_555 1_555
H5 C6 1_555 1_555
C7 C6 1_555 1_555
H6 C7 1_555 1_555
C8 Si2 1_555 1_555
C9 C8 1_555 1_555
H7 C9 1_555 1_555
C10 N2 1_555 1_555
H8 C10 1_555 1_555
C11 Si1 1_555 1_555
H9 C11 1_555 1_555
H10 C11 1_555 1_555
H11 C11 1_555 1_555
C12 Si1 1_555 1_555
H12 C12 1_555 1_555
H13 C12 1_555 1_555
H14 C12 1_555 1_555
C13 Si2 1_555 1_555
H15 C13 1_555 1_555
H16 C13 1_555 1_555
H17 C13 1_555 1_555
C14 Si2 1_555 1_555
H18 C14 1_555 1_555
H19 C14 1_555 1_555
H20 C14 1_555 1_555
N3 O2 1_555 1_555
O3 N3 1_555 1_555
O4 N3 1_555 1_555
C7E C8 1_555 1_555
C6E C7E 1_555 1_555
N2E C6E 1_555 1_555
Ag1E N2E 1_555 1_555
N1E Ag1E 1_555 1_555
C1E N1E 1_555 1_555
H1E C1E 1_555 1_555
C2E C1E 1_555 1_555
H2E C2E 1_555 1_555
C3E C2E 1_555 1_555
Si1E C3E 1_555 1_555
O1E Si1E 1_555 1_555
Si2E O1E 1_555 1_555
C8E C7 1_555 1_555
C9E C10 1_555 1_555
H7E C9E 1_555 1_555
C13E Si2E 1_555 1_555
H15E C13E 1_555 1_555
H16E C13E 1_555 1_555
H17E C13E 1_555 1_555
C14E Si2E 1_555 1_555
H18E C14E 1_555 1_555
H19E C14E 1_555 1_555
H20E C14E 1_555 1_555
C11E Si1E 1_555 1_555
H9E C11E 1_555 1_555
H10E C11E 1_555 1_555
H11E C11E 1_555 1_555
C12E Si1E 1_555 1_555
H12E C12E 1_555 1_555
H13E C12E 1_555 1_555
H14E C12E 1_555 1_555
C4E C3E 1_555 1_555
H3E C4E 1_555 1_555
C5E N1E 1_555 1_555
H4E C5E 1_555 1_555
C10E C9 1_555 1_555
H8E C10E 1_555 1_555
H5E C6E 1_555 1_555
H6E C7E 1_555 1_555
C2 C3 1_555 1_555
C4 C5 1_555 1_555
N2E C10E 1_555 1_555
Si2E C8E 1_555 1_555
C8E C9E 1_555 1_555
C4E C5E 1_555 1_555

#END
