
#######################################################################
#
#                 Cambridge Crystallographic Data Centre
#                                CCDC 
#
#######################################################################
#
# If this CIF has been generated from an entry in the Cambridge 
# Structural Database, then it will include bibliographic, chemical, 
# crystal, experimental, refinement or atomic coordinate data resulting 
# from the CCDC's data processing and validation procedures.
#
#######################################################################

data_ESEYIK01
_chemical_formula_moiety         'C28 H40 Ag2 N4 O2 Si4 2+,2(Cl1 O4 1-)'
_chemical_name_systematic        
"bis(\m~2~-1,3-bis(4-Pyridyl)tetramethyldisiloxane-N,N')-di-silver diperchlorate"
_symmetry_cell_setting           triclinic
_symmetry_space_group_name_H-M   'P -1'
_symmetry_Int_Tables_number      2
_space_group_name_Hall           '-P 1'
loop_
_symmetry_equiv_pos_site_id
_symmetry_equiv_pos_as_xyz
1 x,y,z
2 -x,-y,-z
_cell_length_a                   10.5618(13)
_cell_length_b                   14.2385(18)
_cell_length_c                   14.5539(18)
_cell_angle_alpha                71.593(2)
_cell_angle_beta                 84.042(3)
_cell_angle_gamma                81.304(2)
_cell_volume                     2049.16
_exptl_crystal_colour            colorless
_exptl_crystal_description       plate
_cell_formula_units_Z            2
loop_
_atom_site_label
_atom_site_type_symbol
_atom_site_fract_x
_atom_site_fract_y
_atom_site_fract_z
Ag1 Ag 0.36414(5) 0.51703(3) 0.61542(4)
Si1 Si 0.13521(16) 0.10974(12) 0.56786(12)
Si2 Si 0.30320(15) 0.10710(11) 0.37869(11)
O1 O 0.2405(4) 0.0766(3) 0.4901(3)
N1 N 0.2850(5) 0.3903(4) 0.6031(3)
N2 N 0.4629(5) 0.6322(4) 0.6351(3)
C1 C 0.3570(6) 0.3036(5) 0.6150(4)
H1 H 0.4452 0.2984 0.6288
C2 C 0.3122(6) 0.2202(4) 0.6087(4)
H2 H 0.3684 0.1584 0.6213
C3 C 0.1879(5) 0.2233(4) 0.5847(4)
C4 C 0.1145(6) 0.3142(5) 0.5720(5)
H3 H 0.0267 0.3219 0.5562
C5 C 0.1639(6) 0.3947(4) 0.5814(5)
H4 H 0.1088 0.4567 0.5720
C6 C 0.4076(6) 0.7243(5) 0.6181(5)
H5 H 0.3185 0.7383 0.6044
C7 C 0.4708(5) 0.8021(4) 0.6186(4)
H6 H 0.4243 0.8677 0.6071
C8 C 0.3998(5) 0.2128(4) 0.3646(4)
C9 C 0.3427(6) 0.3111(4) 0.3465(4)
H7 H 0.2536 0.3279 0.3330
C10 C 0.5868(6) 0.6160(4) 0.6523(5)
H8 H 0.6295 0.5492 0.6645
C11 C 0.1495(7) 0.0046(5) 0.6832(5)
H9 H 0.2360 -0.0070 0.7029
H10 H 0.1282 -0.0545 0.6733
H11 H 0.0918 0.0213 0.7327
C12 C -0.0289(6) 0.1361(5) 0.5265(5)
H12 H -0.0532 0.0770 0.5184
H13 H -0.0321 0.1884 0.4656
H14 H -0.0871 0.1567 0.5737
C13 C 0.4112(6) -0.0019(4) 0.3618(5)
H15 H 0.4772 -0.0205 0.4072
H16 H 0.4497 0.0149 0.2969
H17 H 0.3629 -0.0567 0.3725
C14 C 0.1741(5) 0.1469(5) 0.2935(4)
H18 H 0.1201 0.2035 0.3043
H19 H 0.1241 0.0931 0.3037
H20 H 0.2109 0.1648 0.2282
Ag1A Ag 0.63586(5) 0.48297(3) 0.38458(4)
Si1A Si 0.86479(16) 0.89026(12) 0.43214(12)
Si2A Si 0.69680(15) 0.89290(11) 0.62131(11)
O1A O 0.7595(4) 0.9234(3) 0.5099(3)
N1A N 0.7150(5) 0.6097(4) 0.3969(3)
N2A N 0.5371(5) 0.3678(4) 0.3649(3)
C1A C 0.6430(6) 0.6964(5) 0.3850(4)
H1A H 0.5548 0.7016 0.3712
C2A C 0.6878(6) 0.7798(4) 0.3913(4)
H2A H 0.6316 0.8416 0.3787
C3A C 0.8121(5) 0.7767(4) 0.4153(4)
C4A C 0.8855(6) 0.6858(5) 0.4280(5)
H3A H 0.9733 0.6781 0.4438
C5A C 0.8361(6) 0.6053(4) 0.4186(5)
H4A H 0.8912 0.5433 0.4280
C6A C 0.5924(6) 0.2757(5) 0.3819(5)
H5A H 0.6815 0.2617 0.3956
C7A C 0.5292(5) 0.1979(4) 0.3814(4)
H6A H 0.5757 0.1323 0.3929
C8A C 0.6002(5) 0.7872(4) 0.6354(4)
C9A C 0.6573(6) 0.6889(4) 0.6535(4)
H7A H 0.7464 0.6721 0.6670
C10A C 0.4132(6) 0.3840(4) 0.3477(5)
H8A H 0.3705 0.4508 0.3355
C11A C 0.8505(7) 0.9954(5) 0.3168(5)
H9A H 0.7640 1.0070 0.2971
H10A H 0.8718 1.0545 0.3267
H11A H 0.9082 0.9787 0.2673
C12A C 1.0289(6) 0.8639(5) 0.4735(5)
H12A H 1.0532 0.9230 0.4816
H13A H 1.0321 0.8116 0.5344
H14A H 1.0871 0.8433 0.4263
C13A C 0.5888(6) 1.0019(4) 0.6382(5)
H15A H 0.5228 1.0205 0.5928
H16A H 0.5503 0.9851 0.7031
H17A H 0.6371 1.0567 0.6275
C14A C 0.8259(5) 0.8531(5) 0.7065(4)
H18A H 0.8799 0.7965 0.6957
H19A H 0.8759 0.9069 0.6963
H20A H 0.7891 0.8352 0.7718
Ag2 Ag 0.86498(5) 0.58205(4) 0.02087(4)
Si3 Si 0.50275(18) 0.24772(14) -0.03537(14)
Si4 Si 0.7427(2) 0.08699(13) -0.04031(14)
O2 O 0.6057(4) 0.1560(3) -0.0482(4)
N3 N 0.7387(5) 0.4853(4) 0.0009(4)
N4 N 0.9702(5) 0.6968(4) 0.0277(4)
C15 C 0.7356(6) 0.4695(4) -0.0833(5)
H21 H 0.7849 0.5073 -0.1380
C16 C 0.6655(6) 0.4018(4) -0.0966(4)
H22 H 0.6674 0.3928 -0.1593
C17 C 0.5917(6) 0.3462(4) -0.0199(4)
C18 C 0.5942(6) 0.3653(5) 0.0676(5)
H23 H 0.5434 0.3302 0.1228
C19 C 0.6669(6) 0.4326(5) 0.0772(5)
H24 H 0.6674 0.4430 0.1392
C20 C 0.9892(7) 0.7119(5) 0.1107(5)
H25 H 0.9467 0.6740 0.1691
C21 C 1.0661(7) 0.7786(5) 0.1173(5)
H26 H 1.0742 0.7877 0.1789
C22 C 0.8670(6) 0.1665(4) -0.0341(5)
C23 C 0.8892(6) 0.1813(4) 0.0507(5)
H27 H 0.8485 0.1438 0.1103
C24 C 1.0312(6) 0.7511(4) -0.0527(5)
H28 H 1.0189 0.7425 -0.1139
C25 C 0.3962(8) 0.2029(6) 0.0730(5)
H29 H 0.3505 0.1528 0.0651
H30 H 0.3361 0.2577 0.0816
H31 H 0.4463 0.1749 0.1289
C26 C 0.4110(7) 0.2986(5) -0.1452(5)
H32 H 0.3658 0.2479 -0.1523
H33 H 0.4687 0.3201 -0.2009
H34 H 0.3505 0.3543 -0.1394
C27 C 0.7748(9) 0.0455(6) -0.1481(5)
H35 H 0.7771 0.1025 -0.2049
H36 H 0.7081 0.0081 -0.1519
H37 H 0.8559 0.0040 -0.1441
C28 C 0.7376(9) -0.0205(5) 0.0686(6)
H38 H 0.7185 0.0021 0.1246
H39 H 0.8193 -0.0613 0.0740
H40 H 0.6722 -0.0589 0.0644
Ag2A Ag 1.13502(5) 0.41795(4) -0.02087(4)
Si3A Si 1.49725(18) 0.75228(14) 0.03537(14)
Si4A Si 1.2573(2) 0.91301(13) 0.04031(14)
O2A O 1.3943(4) 0.8440(3) 0.0482(4)
N3A N 1.2613(5) 0.5147(4) -0.0009(4)
N4A N 1.0298(5) 0.3032(4) -0.0277(4)
C15A C 1.2644(6) 0.5305(4) 0.0833(5)
H21A H 1.2151 0.4927 0.1380
C16A C 1.3345(6) 0.5982(4) 0.0966(4)
H22A H 1.3326 0.6072 0.1593
C17A C 1.4083(6) 0.6538(4) 0.0199(4)
C18A C 1.4058(6) 0.6347(5) -0.0676(5)
H23A H 1.4566 0.6698 -0.1228
C19A C 1.3331(6) 0.5674(5) -0.0772(5)
H24A H 1.3326 0.5570 -0.1392
C20A C 1.0108(7) 0.2881(5) -0.1107(5)
H25A H 1.0533 0.3260 -0.1691
C21A C 0.9339(7) 0.2214(5) -0.1173(5)
H26A H 0.9258 0.2123 -0.1789
C22A C 1.1330(6) 0.8335(4) 0.0341(5)
C23A C 1.1108(6) 0.8187(4) -0.0507(5)
H27A H 1.1515 0.8562 -0.1103
C24A C 0.9688(6) 0.2489(4) 0.0527(5)
H28A H 0.9811 0.2575 0.1139
C25A C 1.6038(8) 0.7971(6) -0.0730(5)
H29A H 1.6495 0.8472 -0.0651
H30A H 1.6639 0.7423 -0.0816
H31A H 1.5537 0.8251 -0.1289
C26A C 1.5890(7) 0.7014(5) 0.1452(5)
H32A H 1.6342 0.7521 0.1523
H33A H 1.5313 0.6799 0.2009
H34A H 1.6495 0.6457 0.1394
C27A C 1.2252(9) 0.9545(6) 0.1481(5)
H35A H 1.2229 0.8975 0.2049
H36A H 1.2919 0.9919 0.1519
H37A H 1.1441 0.9960 0.1441
C28A C 1.2624(9) 1.0205(5) -0.0686(6)
H38A H 1.2815 0.9979 -0.1246
H39A H 1.1807 1.0613 -0.0740
H40A H 1.3278 1.0589 -0.0644
Cl1 Cl 0.06191(16) 0.59055(13) 0.75108(12)
O3 O -0.0141(6) 0.5936(6) 0.6784(5)
O4 O -0.0142(5) 0.5876(4) 0.8368(4)
O5 O 0.1577(5) 0.5049(4) 0.7691(4)
O6 O 0.1245(6) 0.6780(4) 0.7272(5)
Cl2 Cl 0.27527(18) 0.66154(16) 0.37559(16)
O7 O 0.3082(10) 0.7571(6) 0.3514(9)
O8 O 0.1938(8) 0.6483(12) 0.3210(6)
O9 O 0.2150(6) 0.6419(4) 0.4683(4)
O10 O 0.3879(5) 0.5990(5) 0.3747(7)
loop_
_geom_bond_atom_site_label_1
_geom_bond_atom_site_label_2
_geom_bond_site_symmetry_1
_geom_bond_site_symmetry_2
Ag1 N1 1_555 1_555
Si1 O1 1_555 1_555
Si2 O1 1_555 1_555
N1 C1 1_555 1_555
N2 Ag1 1_555 1_555
C1 H1 1_555 1_555
C2 C1 1_555 1_555
H2 C2 1_555 1_555
C3 Si1 1_555 1_555
C4 C3 1_555 1_555
H3 C4 1_555 1_555
C5 N1 1_555 1_555
H4 C5 1_555 1_555
C6 N2 1_555 1_555
H5 C6 1_555 1_555
C7 C6 1_555 1_555
H6 C7 1_555 1_555
C8 Si2 1_555 1_555
C9 C8 1_555 1_555
H7 C9 1_555 1_555
C10 N2 1_555 1_555
H8 C10 1_555 1_555
C11 Si1 1_555 1_555
H9 C11 1_555 1_555
H10 C11 1_555 1_555
H11 C11 1_555 1_555
C12 Si1 1_555 1_555
H12 C12 1_555 1_555
H13 C12 1_555 1_555
H14 C12 1_555 1_555
C13 Si2 1_555 1_555
H15 C13 1_555 1_555
H16 C13 1_555 1_555
H17 C13 1_555 1_555
C14 Si2 1_555 1_555
H18 C14 1_555 1_555
H19 C14 1_555 1_555
H20 C14 1_555 1_555
Ag2 N3 1_555 1_555
Si3 O2 1_555 1_555
Si4 O2 1_555 1_555
N3 C15 1_555 1_555
N4 Ag2 1_555 1_555
C15 H21 1_555 1_555
C16 C15 1_555 1_555
H22 C16 1_555 1_555
C17 Si3 1_555 1_555
C18 C17 1_555 1_555
H23 C18 1_555 1_555
C19 N3 1_555 1_555
H24 C19 1_555 1_555
C20 N4 1_555 1_555
H25 C20 1_555 1_555
C21 C20 1_555 1_555
H26 C21 1_555 1_555
C22 Si4 1_555 1_555
C23 C22 1_555 1_555
H27 C23 1_555 1_555
C24 N4 1_555 1_555
H28 C24 1_555 1_555
C25 Si3 1_555 1_555
H29 C25 1_555 1_555
H30 C25 1_555 1_555
H31 C25 1_555 1_555
C26 Si3 1_555 1_555
H32 C26 1_555 1_555
H33 C26 1_555 1_555
H34 C26 1_555 1_555
C27 Si4 1_555 1_555
H35 C27 1_555 1_555
H36 C27 1_555 1_555
H37 C27 1_555 1_555
C28 Si4 1_555 1_555
H38 C28 1_555 1_555
H39 C28 1_555 1_555
H40 C28 1_555 1_555
Cl1 O3 1_555 1_555
O4 Cl1 1_555 1_555
O5 Cl1 1_555 1_555
O6 Cl1 1_555 1_555
Cl2 O7 1_555 1_555
O8 Cl2 1_555 1_555
O9 Cl2 1_555 1_555
O10 Cl2 1_555 1_555
Ag1A N1A 1_555 1_555
Si1A O1A 1_555 1_555
Si2A O1A 1_555 1_555
N1A C1A 1_555 1_555
N2A Ag1A 1_555 1_555
C1A H1A 1_555 1_555
C2A C1A 1_555 1_555
H2A C2A 1_555 1_555
C3A Si1A 1_555 1_555
C4A C3A 1_555 1_555
H3A C4A 1_555 1_555
C5A N1A 1_555 1_555
H4A C5A 1_555 1_555
C6A N2A 1_555 1_555
H5A C6A 1_555 1_555
C7A C8 1_555 1_555
H6A C7A 1_555 1_555
C8A C7 1_555 1_555
C9A C10 1_555 1_555
H7A C9A 1_555 1_555
C10A C9 1_555 1_555
H8A C10A 1_555 1_555
C11A Si1A 1_555 1_555
H9A C11A 1_555 1_555
H10A C11A 1_555 1_555
H11A C11A 1_555 1_555
C12A Si1A 1_555 1_555
H12A C12A 1_555 1_555
H13A C12A 1_555 1_555
H14A C12A 1_555 1_555
C13A Si2A 1_555 1_555
H15A C13A 1_555 1_555
H16A C13A 1_555 1_555
H17A C13A 1_555 1_555
C14A Si2A 1_555 1_555
H18A C14A 1_555 1_555
H19A C14A 1_555 1_555
H20A C14A 1_555 1_555
Ag2A N3A 1_555 1_555
Si3A O2A 1_555 1_555
Si4A O2A 1_555 1_555
N3A C15A 1_555 1_555
N4A Ag2A 1_555 1_555
C15A H21A 1_555 1_555
C16A C15A 1_555 1_555
H22A C16A 1_555 1_555
C17A Si3A 1_555 1_555
C18A C17A 1_555 1_555
H23A C18A 1_555 1_555
C19A N3A 1_555 1_555
H24A C19A 1_555 1_555
C20A N4A 1_555 1_555
H25A C20A 1_555 1_555
C21A C22 1_555 1_555
H26A C21A 1_555 1_555
C22A C21 1_555 1_555
C23A C24 1_555 1_555
H27A C23A 1_555 1_555
C24A C23 1_555 1_555
H28A C24A 1_555 1_555
C25A Si3A 1_555 1_555
H29A C25A 1_555 1_555
H30A C25A 1_555 1_555
H31A C25A 1_555 1_555
C26A Si3A 1_555 1_555
H32A C26A 1_555 1_555
H33A C26A 1_555 1_555
H34A C26A 1_555 1_555
C27A Si4A 1_555 1_555
H35A C27A 1_555 1_555
H36A C27A 1_555 1_555
H37A C27A 1_555 1_555
C28A Si4A 1_555 1_555
H38A C28A 1_555 1_555
H39A C28A 1_555 1_555
H40A C28A 1_555 1_555
C2 C3 1_555 1_555
C4 C5 1_555 1_555
C16 C17 1_555 1_555
C18 C19 1_555 1_555
Si2A C8A 1_555 1_555
N2A C10A 1_555 1_555
C2A C3A 1_555 1_555
C4A C5A 1_555 1_555
C6A C7A 1_555 1_555
C8A C9A 1_555 1_555
Si4A C22A 1_555 1_555
N4A C24A 1_555 1_555
C16A C17A 1_555 1_555
C18A C19A 1_555 1_555
C20A C21A 1_555 1_555
C22A C23A 1_555 1_555

#END
