
#######################################################################
#
#                 Cambridge Crystallographic Data Centre
#                                CCDC 
#
#######################################################################
#
# If this CIF has been generated from an entry in the Cambridge 
# Structural Database, then it will include bibliographic, chemical, 
# crystal, experimental, refinement or atomic coordinate data resulting 
# from the CCDC's data processing and validation procedures.
#
#######################################################################

data_EVEBEO
_chemical_formula_moiety         
'C228 H156 Fe4 N24 8+,2(C6 H14 O1),8(F6 Sb1 1-),7(C2 H3 N1)'
_chemical_name_systematic        
"hexakis(\m-N,N'-(anthracene-1,5-diyldi-4,1-phenylene)bis(1-(pyridin-2-yl)methanimine))-tetra-iron octakis(hexafluoroantimonate) diisopropyl ether acetonitrile solvate"
_symmetry_cell_setting           triclinic
_symmetry_space_group_name_H-M   'P -1'
_symmetry_Int_Tables_number      2
_space_group_name_Hall           '-P 1'
loop_
_symmetry_equiv_pos_site_id
_symmetry_equiv_pos_as_xyz
1 x,y,z
2 -x,-y,-z
_cell_length_a                   22.5576(4)
_cell_length_b                   25.9536(4)
_cell_length_c                   26.6117(4)
_cell_angle_alpha                102.0110(10)
_cell_angle_beta                 93.5620(10)
_cell_angle_gamma                100.8430(10)
_cell_volume                     14883.3
_exptl_crystal_colour            purple
_exptl_crystal_description       block
_cell_formula_units_Z            2
loop_
_atom_site_label
_atom_site_type_symbol
_atom_site_fract_x
_atom_site_fract_y
_atom_site_fract_z
Fe1 Fe 0.08654(4) 0.16812(4) 0.31767(3)
Fe2 Fe 0.46302(6) 0.74470(4) 0.75761(5)
Fe3 Fe 0.74561(4) 0.17703(4) 0.68921(4)
Fe4 Fe 0.08124(4) 0.20017(4) 0.95837(3)
N1 N 0.0072(2) 0.1170(2) 0.3064(2)
N2 N 0.0488(2) 0.2003(2) 0.3799(2)
N3 N 0.4990(3) 0.6958(2) 0.7080(2)
N4 N 0.5498(3) 0.7813(2) 0.7746(2)
C1 C -0.0126(3) 0.0722(3) 0.2689(3)
H1 H 0.0139 0.0625 0.2439
C2 C -0.0693(3) 0.0398(3) 0.2650(3)
H2 H -0.0814 0.0087 0.2377
C3 C -0.1082(4) 0.0528(4) 0.3011(4)
H3 H -0.1478 0.0314 0.2987
C4 C -0.0885(4) 0.0983(4) 0.3417(4)
H4 H -0.1135 0.1074 0.3682
C5 C -0.0316(3) 0.1293(3) 0.3419(3)
C6 C -0.0064(3) 0.1777(3) 0.3811(3)
H5 H -0.0300 0.1922 0.4067
C7 C 0.0731(3) 0.2496(2) 0.4166(2)
C8 C 0.0477(3) 0.2939(3) 0.4153(3)
H6 H 0.0149 0.2915 0.3901
C9 C 0.0706(4) 0.3421(3) 0.4512(3)
H7 H 0.0530 0.3725 0.4506
C10 C 0.1190(3) 0.3465(3) 0.4880(3)
C11 C 0.1429(3) 0.3014(2) 0.4882(2)
H8 H 0.1755 0.3034 0.5134
C12 C 0.1205(3) 0.2532(3) 0.4527(2)
H9 H 0.1381 0.2228 0.4533
C13 C 0.1416(3) 0.3982(3) 0.5272(3)
C14 C 0.1019(4) 0.4194(3) 0.5579(4)
H10 H 0.0600 0.4029 0.5520
C15 C 0.1224(4) 0.4658(4) 0.5984(4)
H11 H 0.0946 0.4791 0.6206
C16 C 0.1811(4) 0.4909(4) 0.6055(4)
H12 H 0.1938 0.5227 0.6319
C17 C 0.2247(3) 0.4715(3) 0.5746(3)
C18 C 0.2853(3) 0.4973(3) 0.5818(3)
H13 H 0.2982 0.5288 0.6085
C19 C 0.3283(3) 0.4782(3) 0.5510(3)
C20 C 0.3919(3) 0.5021(2) 0.5602(2)
C21 C 0.4314(3) 0.4780(3) 0.5314(3)
H14 H 0.4739 0.4911 0.5400
C22 C 0.4102(3) 0.4339(3) 0.4886(3)
H15 H 0.4386 0.4190 0.4682
C23 C 0.3509(3) 0.4129(3) 0.4767(3)
H16 H 0.3376 0.3850 0.4466
C24 C 0.3068(3) 0.4318(2) 0.5088(2)
C25 C 0.2472(3) 0.4071(3) 0.5016(3)
H17 H 0.2339 0.3771 0.4733
C26 C 0.2040(3) 0.4240(3) 0.5343(3)
C27 C 0.4164(3) 0.5518(2) 0.6009(3)
C28 C 0.4561(4) 0.5512(3) 0.6427(3)
H18 H 0.4651 0.5180 0.6472
C29 C 0.4822(4) 0.5977(3) 0.6772(3)
H19 H 0.5099 0.5968 0.7052
C30 C 0.4687(3) 0.6467(2) 0.6719(3)
C31 C 0.4293(3) 0.6478(3) 0.6315(3)
H20 H 0.4201 0.6811 0.6275
C32 C 0.4023(4) 0.6003(2) 0.5959(3)
H21 H 0.3742 0.6013 0.5682
C33 C 0.5570(3) 0.7075(3) 0.7097(3)
H22 H 0.5787 0.6861 0.6874
C34 C 0.5875(3) 0.7550(2) 0.7475(3)
C35 C 0.6503(3) 0.7721(3) 0.7555(3)
H23 H 0.6758 0.7533 0.7349
C36 C 0.6748(4) 0.8171(3) 0.7941(3)
H24 H 0.7175 0.8292 0.8012
C37 C 0.6372(4) 0.8433(3) 0.8215(3)
H25 H 0.6535 0.8749 0.8474
C38 C 0.5744(4) 0.8249(3) 0.8122(3)
H26 H 0.5487 0.8433 0.8328
N5 N 0.0541(2) 0.2196(2) 0.2839(2)
N6 N 0.1606(2) 0.2271(2) 0.32948(18)
N7 N 0.6619(2) 0.1354(2) 0.69037(19)
N8 N 0.7599(2) 0.1474(2) 0.7507(2)
C39 C -0.0006(3) 0.2134(3) 0.2584(3)
H27 H -0.0285 0.1800 0.2534
C40 C -0.0174(4) 0.2544(3) 0.2392(3)
H28 H -0.0560 0.2480 0.2200
C41 C 0.0200(4) 0.3043(3) 0.2472(3)
H29 H 0.0071 0.3331 0.2357
C42 C 0.0770(3) 0.3108(3) 0.2726(3)
H30 H 0.1052 0.3441 0.2781
C43 C 0.0924(3) 0.2674(3) 0.2899(2)
C44 C 0.1515(3) 0.2690(3) 0.3149(2)
H31 H 0.1827 0.3004 0.3204
C45 C 0.2199(2) 0.2290(2) 0.3533(2)
C46 C 0.2550(3) 0.1931(2) 0.3321(2)
H32 H 0.2394 0.1662 0.3017
C47 C 0.3124(3) 0.1966(2) 0.3550(2)
H33 H 0.3365 0.1727 0.3393
C48 C 0.3362(3) 0.2344(2) 0.4011(2)
C49 C 0.2994(3) 0.2697(3) 0.4218(3)
H34 H 0.3137 0.2953 0.4533
C50 C 0.2429(3) 0.2681(3) 0.3977(2)
H35 H 0.2199 0.2938 0.4115
C51 C 0.3977(3) 0.2399(2) 0.4265(2)
C52 C 0.4385(3) 0.2875(3) 0.4326(3)
H36 H 0.4277 0.3149 0.4174
C53 C 0.4967(3) 0.2973(3) 0.4610(3)
H37 H 0.5244 0.3305 0.4637
C54 C 0.5125(3) 0.2598(3) 0.4840(3)
H38 H 0.5517 0.2668 0.5022
C55 C 0.4719(3) 0.2097(3) 0.4820(3)
C56 C 0.4844(3) 0.1728(3) 0.5092(3)
H39 H 0.5222 0.1807 0.5300
C57 C 0.4445(3) 0.1247(2) 0.5079(2)
C58 C 0.4553(3) 0.0871(3) 0.5396(3)
C59 C 0.4149(3) 0.0404(3) 0.5352(3)
H40 H 0.4226 0.0160 0.5558
C60 C 0.3604(3) 0.0270(3) 0.4999(3)
H41 H 0.3330 -0.0064 0.4965
C61 C 0.3487(3) 0.0619(3) 0.4718(3)
H42 H 0.3124 0.0527 0.4489
C62 C 0.3886(3) 0.1122(2) 0.4749(2)
C63 C 0.3744(3) 0.1495(2) 0.4482(3)
H43 H 0.3369 0.1412 0.4271
C64 C 0.4139(3) 0.1993(2) 0.4513(2)
C65 C 0.5109(3) 0.1016(3) 0.5777(2)
C66 C 0.5640(3) 0.0841(4) 0.5670(3)
H44 H 0.5663 0.0636 0.5334
C67 C 0.6139(3) 0.0952(4) 0.6034(3)
H45 H 0.6498 0.0829 0.5945
C68 C 0.6112(3) 0.1242(2) 0.6522(2)
C69 C 0.5586(3) 0.1418(3) 0.6638(3)
H46 H 0.5560 0.1612 0.6978
C70 C 0.5090(3) 0.1315(4) 0.6265(3)
H47 H 0.4738 0.1453 0.6348
C71 C 0.6549(3) 0.1183(3) 0.7318(2)
H48 H 0.6160 0.1015 0.7386
C72 C 0.7079(3) 0.1255(2) 0.7678(2)
C73 C 0.7074(3) 0.1095(3) 0.8141(2)
H49 H 0.6701 0.0946 0.8253
C74 C 0.7616(3) 0.1154(3) 0.8441(3)
H50 H 0.7622 0.1051 0.8764
C75 C 0.8143(3) 0.1365(4) 0.8261(3)
H51 H 0.8524 0.1404 0.8454
C76 C 0.8117(3) 0.1521(3) 0.7800(3)
H52 H 0.8486 0.1670 0.7683
N9 N 0.1152(2) 0.1303(2) 0.25480(18)
N10 N 0.1257(2) 0.11727(19) 0.34766(17)
N11 N 0.0655(2) 0.2587(2) 0.92594(18)
N12 N 0.0589(2) 0.2486(2) 1.01881(19)
C77 C 0.1120(3) 0.1408(3) 0.2077(2)
H53 H 0.0935 0.1695 0.2023
C78 C 0.1346(3) 0.1115(3) 0.1668(2)
H54 H 0.1312 0.1201 0.1339
C79 C 0.1618(3) 0.0700(3) 0.1732(2)
H55 H 0.1779 0.0500 0.1451
C80 C 0.1654(3) 0.0578(3) 0.2222(2)
H56 H 0.1827 0.0286 0.2280
C81 C 0.1431(3) 0.0896(2) 0.2617(2)
C82 C 0.1469(3) 0.0841(2) 0.3149(2)
H57 H 0.1644 0.0567 0.3249
C83 C 0.1350(3) 0.1160(2) 0.4014(2)
C84 C 0.0863(3) 0.1066(3) 0.4296(2)
H58 H 0.0460 0.0999 0.4135
C85 C 0.0967(4) 0.1068(4) 0.4812(3)
H59 H 0.0628 0.1002 0.5002
C86 C 0.1541(3) 0.1164(3) 0.5065(2)
C87 C 0.2030(3) 0.1243(3) 0.4772(2)
H60 H 0.2434 0.1299 0.4930
C88 C 0.1928(3) 0.1240(3) 0.4252(2)
H61 H 0.2263 0.1294 0.4057
C89 C 0.1653(4) 0.1170(3) 0.5624(2)
C90 C 0.1900(5) 0.0776(4) 0.5781(3)
H62 H 0.2048 0.0527 0.5531
C91 C 0.1939(7) 0.0729(4) 0.6309(3)
H63 H 0.2109 0.0452 0.6406
C92 C 0.1733(6) 0.1084(4) 0.6665(3)
H64 H 0.1751 0.1045 0.7012
C93 C 0.1491(5) 0.1512(3) 0.6542(3)
C94 C 0.1329(4) 0.1901(3) 0.6915(2)
H65 H 0.1336 0.1857 0.7260
C95 C 0.1156(3) 0.2355(2) 0.6805(2)
C96 C 0.1031(3) 0.2785(2) 0.7200(2)
C97 C 0.0946(4) 0.3249(3) 0.7072(3)
H66 H 0.0886 0.3538 0.7335
C98 C 0.0944(4) 0.3311(3) 0.6551(3)
H67 H 0.0885 0.3640 0.6474
C99 C 0.1025(4) 0.2908(3) 0.6168(3)
H68 H 0.1001 0.2948 0.5821
C100 C 0.1146(3) 0.2419(2) 0.6279(2)
C101 C 0.1272(3) 0.2016(3) 0.5896(2)
H69 H 0.1236 0.2049 0.5547
C102 C 0.1448(4) 0.1563(3) 0.6009(2)
C103 C 0.0955(3) 0.2717(2) 0.7738(2)
C104 C 0.0514(3) 0.2307(3) 0.7825(2)
H70 H 0.0280 0.2052 0.7540
C105 C 0.0409(3) 0.2262(3) 0.8323(2)
H71 H 0.0109 0.1976 0.8379
C106 C 0.0746(3) 0.2638(2) 0.8741(2)
C107 C 0.1179(3) 0.3055(3) 0.8660(2)
H72 H 0.1406 0.3312 0.8946
C108 C 0.1287(3) 0.3101(3) 0.8154(2)
H73 H 0.1582 0.3390 0.8098
C109 C 0.0491(3) 0.2979(3) 0.9554(2)
H74 H 0.0414 0.3282 0.9433
C110 C 0.0429(3) 0.2936(3) 1.0084(2)
C111 C 0.0234(4) 0.3308(3) 1.0453(3)
H75 H 0.0143 0.3628 1.0376
C112 C 0.0176(5) 0.3202(4) 1.0940(3)
H76 H 0.0036 0.3445 1.1201
C113 C 0.0324(4) 0.2742(3) 1.1037(3)
H77 H 0.0285 0.2663 1.1368
C114 C 0.0529(3) 0.2392(3) 1.0659(2)
H78 H 0.0631 0.2076 1.0734
N13 N 0.4363(4) 0.7951(3) 0.8135(3)
N14 N 0.4719(3) 0.7070(2) 0.8141(2)
N15 N 0.7297(2) 0.2022(2) 0.6262(2)
N16 N 0.7664(2) 0.1182(2) 0.6386(2)
C115 C 0.4155(6) 0.8394(4) 0.8103(4)
H79 H 0.4130 0.8497 0.7781
C116 C 0.3976(7) 0.8705(5) 0.8532(5)
H80 H 0.3825 0.9015 0.8501
C117 C 0.4014(7) 0.8570(5) 0.9001(5)
H81 H 0.3902 0.8792 0.9296
C118 C 0.4219(6) 0.8105(4) 0.9043(4)
H82 H 0.4239 0.7995 0.9361
C119 C 0.4392(4) 0.7807(3) 0.8594(3)
C120 C 0.4603(4) 0.7314(3) 0.8579(3)
H83 H 0.4653 0.7178 0.8881
C121 C 0.4921(3) 0.6564(3) 0.8109(3)
C122 C 0.4489(4) 0.6096(3) 0.8070(4)
H84 H 0.4070 0.6105 0.8070
C123 C 0.4681(4) 0.5614(3) 0.8032(4)
H85 H 0.4388 0.5293 0.8004
C124 C 0.5281(3) 0.5588(3) 0.8032(3)
C125 C 0.5708(3) 0.6061(3) 0.8061(3)
H86 H 0.6125 0.6050 0.8044
C126 C 0.5525(3) 0.6544(3) 0.8114(3)
H87 H 0.5820 0.6868 0.8155
C127 C 0.5479(4) 0.5065(3) 0.8018(3)
C128 C 0.5411(6) 0.4848(4) 0.8442(4)
H88 H 0.5236 0.5024 0.8728
C129 C 0.5598(6) 0.4361(4) 0.8458(4)
H89 H 0.5560 0.4220 0.8759
C130 C 0.5833(5) 0.4091(4) 0.8050(4)
H90 H 0.5962 0.3768 0.8073
C131 C 0.5888(4) 0.4286(3) 0.7585(3)
C132 C 0.6089(4) 0.4011(3) 0.7154(3)
H91 H 0.6205 0.3680 0.7167
C133 C 0.6131(4) 0.4191(3) 0.6693(3)
C134 C 0.6347(4) 0.3912(3) 0.6244(3)
C135 C 0.6323(7) 0.4087(4) 0.5790(4)
H92 H 0.6429 0.3880 0.5484
C136 C 0.6135(7) 0.4585(4) 0.5782(4)
H93 H 0.6143 0.4712 0.5472
C137 C 0.5945(5) 0.4881(4) 0.6206(3)
H94 H 0.5827 0.5211 0.6193
C138 C 0.5929(4) 0.4683(3) 0.6674(3)
C139 C 0.5734(4) 0.4965(3) 0.7110(3)
H95 H 0.5617 0.5296 0.7097
C140 C 0.5700(4) 0.4786(3) 0.7574(3)
C141 C 0.6570(4) 0.3410(3) 0.6251(4)
C142 C 0.7174(5) 0.3448(4) 0.6438(7)
H96 H 0.7432 0.3793 0.6557
C143 C 0.7402(4) 0.2995(3) 0.6453(6)
H97 H 0.7801 0.3030 0.6611
C144 C 0.7052(3) 0.2488(3) 0.6239(3)
C145 C 0.6451(3) 0.2454(3) 0.6069(3)
H98 H 0.6193 0.2110 0.5944
C146 C 0.6221(3) 0.2907(3) 0.6077(3)
H99 H 0.5806 0.2870 0.5959
C147 C 0.7431(4) 0.1745(3) 0.5848(3)
H100 H 0.7382 0.1843 0.5526
C148 C 0.7665(4) 0.1267(3) 0.5895(2)
C149 C 0.7867(5) 0.0928(4) 0.5495(3)
H101 H 0.7884 0.1006 0.5162
C150 C 0.8041(5) 0.0476(3) 0.5594(3)
H102 H 0.8160 0.0226 0.5324
C151 C 0.8041(4) 0.0389(3) 0.6083(3)
H103 H 0.8178 0.0086 0.6158
C152 C 0.7841(3) 0.0743(3) 0.6468(3)
H104 H 0.7830 0.0669 0.6803
N17 N 0.4490(3) 0.7840(2) 0.7025(3)
N18 N 0.3765(3) 0.7110(2) 0.7343(3)
N19 N 0.1701(2) 0.2319(2) 0.97691(19)
N20 N 0.1039(2) 0.1464(2) 0.9958(2)
C153 C 0.4891(4) 0.8179(3) 0.6841(3)
H105 H 0.5298 0.8279 0.7000
C154 C 0.4738(4) 0.8391(3) 0.6428(4)
H106 H 0.5041 0.8619 0.6296
C155 C 0.4147(4) 0.8274(4) 0.6208(4)
H107 H 0.4030 0.8433 0.5937
C156 C 0.3731(4) 0.7917(4) 0.6392(4)
H108 H 0.3323 0.7815 0.6239
C157 C 0.3911(3) 0.7706(3) 0.6805(3)
C158 C 0.3521(4) 0.7313(3) 0.7013(4)
H109 H 0.3098 0.7211 0.6906
C159 C 0.3387(3) 0.6684(3) 0.7524(3)
C160 C 0.3195(4) 0.6787(3) 0.8014(3)
H110 H 0.3308 0.7138 0.8231
C161 C 0.2837(4) 0.6376(3) 0.8187(3)
H111 H 0.2710 0.6445 0.8524
C162 C 0.2663(3) 0.5867(3) 0.7870(3)
C163 C 0.2872(4) 0.5771(3) 0.7386(3)
H112 H 0.2760 0.5421 0.7167
C164 C 0.3241(5) 0.6175(3) 0.7215(4)
H113 H 0.3392 0.6100 0.6888
C165 C 0.2263(3) 0.5415(3) 0.8031(3)
C166 C 0.1677(3) 0.5249(3) 0.7813(4)
H114 H 0.1535 0.5414 0.7555
C167 C 0.1272(4) 0.4829(3) 0.7968(4)
H115 H 0.0861 0.4724 0.7821
C168 C 0.1475(3) 0.4581(3) 0.8324(3)
H116 H 0.1201 0.4303 0.8422
C169 C 0.2085(3) 0.4723(3) 0.8554(3)
C170 C 0.2300(3) 0.4444(3) 0.8885(3)
H117 H 0.2032 0.4151 0.8965
C171 C 0.2899(3) 0.4577(4) 0.9108(4)
C172 C 0.3140(4) 0.4265(4) 0.9423(4)
C173 C 0.3740(4) 0.4397(6) 0.9608(6)
H118 H 0.3905 0.4181 0.9806
C174 C 0.4121(5) 0.4863(6) 0.9503(7)
H119 H 0.4536 0.4956 0.9639
C175 C 0.3908(4) 0.5175(6) 0.9216(6)
H120 H 0.4169 0.5487 0.9162
C176 C 0.3290(4) 0.5038(4) 0.8994(4)
C177 C 0.3073(4) 0.5311(4) 0.8660(4)
H121 H 0.3337 0.5612 0.8590
C178 C 0.2483(3) 0.5165(3) 0.8420(3)
C179 C 0.2757(3) 0.3762(3) 0.9522(3)
C180 C 0.2294(3) 0.3776(3) 0.9840(3)
H122 H 0.2216 0.4114 1.0006
C181 C 0.1944(3) 0.3307(3) 0.9922(3)
H123 H 0.1626 0.3326 1.0138
C182 C 0.2058(3) 0.2811(3) 0.9686(3)
C183 C 0.2524(3) 0.2786(3) 0.9377(3)
H124 H 0.2612 0.2449 0.9220
C184 C 0.2864(4) 0.3267(3) 0.9297(4)
H125 H 0.3181 0.3250 0.9078
C185 C 0.1985(3) 0.2013(3) 0.9972(3)
H126 H 0.2413 0.2109 1.0055
C186 C 0.1645(3) 0.1528(3) 1.0069(3)
C187 C 0.1906(3) 0.1149(3) 1.0255(3)
H127 H 0.2333 0.1201 1.0328
C188 C 0.1525(3) 0.0695(3) 1.0331(3)
H128 H 0.1689 0.0424 1.0446
C189 C 0.0912(3) 0.0637(3) 1.0240(3)
H129 H 0.0648 0.0329 1.0298
C190 C 0.0678(3) 0.1030(3) 1.0060(2)
H130 H 0.0250 0.0992 1.0008
N21 N 0.8298(2) 0.2202(2) 0.6984(2)
N22 N 0.7348(2) 0.2416(2) 0.7402(2)
N23 N 0.0913(2) 0.1466(2) 0.89466(19)
N24 N -0.0039(2) 0.1581(2) 0.94147(19)
C191 C 0.8776(3) 0.2078(3) 0.6744(3)
H131 H 0.8729 0.1752 0.6491
C192 C 0.9350(4) 0.2433(4) 0.6867(5)
H132 H 0.9673 0.2358 0.6671
C193 C 0.9448(5) 0.2879(5) 0.7261(6)
H133 H 0.9843 0.3096 0.7366
C194 C 0.8951(4) 0.3004(5) 0.7501(6)
H134 H 0.8995 0.3318 0.7770
C195 C 0.8389(3) 0.2668(3) 0.7345(4)
C196 C 0.7847(3) 0.2760(3) 0.7585(5)
H135 H 0.7858 0.3059 0.7863
C197 C 0.6835(3) 0.2494(3) 0.7685(2)
C198 C 0.6871(3) 0.2489(3) 0.8204(3)
H136 H 0.7234 0.2443 0.8374
C199 C 0.6375(3) 0.2549(3) 0.8472(3)
H137 H 0.6399 0.2541 0.8828
C200 C 0.5845(3) 0.2622(3) 0.8235(3)
C201 C 0.5824(3) 0.2641(3) 0.7716(3)
H138 H 0.5469 0.2703 0.7547
C202 C 0.6314(3) 0.2572(3) 0.7442(3)
H139 H 0.6291 0.2578 0.7086
C203 C 0.5311(3) 0.2678(3) 0.8524(3)
C204 C 0.5377(4) 0.3065(3) 0.8975(3)
H140 H 0.5757 0.3306 0.9083
C205 C 0.4889(4) 0.3113(4) 0.9282(3)
H141 H 0.4943 0.3389 0.9588
C206 C 0.4347(4) 0.2766(3) 0.9138(3)
H142 H 0.4025 0.2805 0.9347
C207 C 0.4244(3) 0.2347(3) 0.8684(3)
C208 C 0.3708(3) 0.1982(3) 0.8540(3)
H143 H 0.3390 0.2011 0.8755
C209 C 0.3601(3) 0.1571(3) 0.8097(3)
C210 C 0.3032(3) 0.1186(3) 0.7940(3)
C211 C 0.2998(4) 0.0764(4) 0.7535(3)
H144 H 0.2626 0.0509 0.7438
C212 C 0.3504(4) 0.0689(4) 0.7249(4)
H145 H 0.3470 0.0381 0.6976
C213 C 0.4032(3) 0.1060(4) 0.7371(3)
H146 H 0.4362 0.1016 0.7172
C214 C 0.4101(3) 0.1521(3) 0.7800(3)
C215 C 0.4646(3) 0.1868(3) 0.7937(3)
H147 H 0.4971 0.1816 0.7734
C216 C 0.4744(3) 0.2302(3) 0.8371(3)
C217 C 0.2494(3) 0.1257(3) 0.8217(3)
C218 C 0.2244(3) 0.1715(3) 0.8216(3)
H148 H 0.2430 0.1978 0.8043
C219 C 0.1739(3) 0.1788(3) 0.8460(3)
H149 H 0.1582 0.2103 0.8462
C220 C 0.1457(3) 0.1395(3) 0.8707(2)
C221 C 0.1687(3) 0.0950(3) 0.8710(3)
H150 H 0.1494 0.0686 0.8878
C222 C 0.2207(4) 0.0877(3) 0.8466(3)
H151 H 0.2364 0.0563 0.8471
C223 C 0.0449(3) 0.1079(3) 0.8796(2)
H152 H 0.0463 0.0776 0.8530
C224 C -0.0097(3) 0.1124(3) 0.9050(2)
C225 C -0.0626(3) 0.0731(3) 0.8932(3)
H153 H -0.0654 0.0414 0.8670
C226 C -0.1116(3) 0.0813(3) 0.9210(3)
H154 H -0.1478 0.0544 0.9155
C227 C -0.1069(3) 0.1287(3) 0.9565(3)
H155 H -0.1405 0.1356 0.9746
C228 C -0.0523(3) 0.1672(3) 0.9661(2)
H156 H -0.0496 0.2003 0.9905
Sb1 Sb 0.06917(3) -0.08178(2) 0.89020(2)
F1 F -0.0020(4) -0.1338(3) 0.8862(3)
F2 F 0.0822(5) -0.1126(4) 0.8231(3)
F3 F 0.1353(5) -0.0264(4) 0.8943(5)
F4 F 0.0206(6) -0.0397(5) 0.8657(6)
F5 F 0.0562(4) -0.0529(3) 0.9579(3)
F6 F 0.1164(6) -0.1211(6) 0.9171(4)
Sb2 Sb 0.67078(2) -0.03968(2) 0.70682(2)
F7 F 0.6957(3) -0.0879(2) 0.7430(2)
F8 F 0.6044(2) -0.0935(2) 0.6738(2)
F9 F 0.7179(2) -0.06449(19) 0.65475(19)
F10 F 0.7402(2) 0.01263(18) 0.73860(19)
F11 F 0.6249(3) -0.0122(3) 0.7573(3)
F12 F 0.6499(3) 0.0077(2) 0.6682(3)
Sb3 Sb 0.95426(2) 0.06823(2) 0.73013(2)
F13 F 0.9619(2) 0.02514(18) 0.77771(16)
F14 F 0.9583(3) 0.0100(2) 0.67684(19)
F15 F 1.0386(2) 0.0918(2) 0.7408(3)
F16 F 0.9455(4) 0.1123(3) 0.6848(3)
F17 F 0.9454(2) 0.12382(19) 0.7843(2)
F18 F 0.8695(2) 0.04286(19) 0.7235(2)
Sb4 Sb 0.27336(3) 0.91922(3) 0.60309(3)
F19 F 0.2822(7) 0.8641(5) 0.6355(6)
F20 F 0.1960(4) 0.8826(4) 0.5757(4)
F21 F 0.3031(4) 0.8836(4) 0.5450(4)
F22 F 0.2605(5) 0.9728(4) 0.5690(3)
F23 F 0.2438(3) 0.9568(3) 0.6614(3)
F24 F 0.3521(4) 0.9581(5) 0.6258(4)
Sb5 Sb 0.60305(4) 0.84062(4) 0.97600(4)
F25 F 0.6670(4) 0.8793(5) 0.9503(4)
F26 F 0.5561(4) 0.8751(5) 0.9388(6)
F27 F 0.5865(7) 0.7856(4) 0.9162(5)
F28 F 0.5333(5) 0.8038(9) 0.9994(9)
F29 F 0.6130(11) 0.8913(7) 1.0334(6)
F30 F 0.6516(4) 0.8057(4) 1.0086(4)
Sb6 Sb 0.21324(3) 0.27604(3) 0.16233(2)
F31 F 0.1343(3) 0.2338(3) 0.1538(3)
F32 F 0.2245(2) 0.2554(3) 0.2250(2)
F33 F 0.2417(5) 0.2174(3) 0.1278(3)
F34 F 0.2008(3) 0.2963(3) 0.0992(2)
F35 F 0.2913(3) 0.3178(3) 0.1749(3)
F36 F 0.1819(4) 0.3333(3) 0.1965(3)
Sb7 Sb -0.13592(4) 0.29887(3) 0.93115(3)
F37 F -0.2037(6) 0.2423(5) 0.9093(7)
F38 F -0.1222(6) 0.2727(5) 0.9941(5)
F39 F -0.0873(5) 0.2536(5) 0.9056(6)
F40 F -0.1502(6) 0.3252(9) 0.8725(4)
F41 F -0.0699(5) 0.3535(4) 0.9555(5)
F42 F -0.1851(5) 0.3416(5) 0.9643(5)
N25 N 0.5480(8) 0.0905(7) 0.8157(7)
C229 C 0.5056(10) 0.0775(10) 0.8354(10)
C230 C 0.4501(12) 0.0636(13) 0.8603(13)
H157 H 0.4425 0.0245 0.8573
H158 H 0.4157 0.0729 0.8425
H159 H 0.4552 0.0820 0.8968
N26 N 0.7426(4) -0.0059(4) 0.9017(5)
C231 C 0.6922(4) -0.0074(4) 0.8954(5)
C232 C 0.6284(5) -0.0068(7) 0.8856(7)
H160 H 0.6244 0.0264 0.8749
H161 H 0.6087 -0.0085 0.9171
H162 H 0.6092 -0.0379 0.8580
N27 N 0.5387(5) 0.6124(5) 0.9457(5)
C233 C 0.5832(5) 0.6409(5) 0.9413(4)
C234 C 0.6400(5) 0.6741(5) 0.9371(5)
H163 H 0.6329 0.7067 0.9266
H164 H 0.6614 0.6543 0.9111
H165 H 0.6648 0.6842 0.9705
N28 N -0.1034(13) 0.3274(11) 0.1792(12)
C235 C -0.1157(14) 0.3513(12) 0.1405(13)
C236 C -0.1317(14) 0.3791(13) 0.1037(13)
H166 H -0.1451 0.4115 0.1209
H167 H -0.1649 0.3558 0.0789
H168 H -0.0965 0.3893 0.0854
N29 N -0.0051(17) 0.4618(17) 0.0864(15)
C237 C 0.0135(15) 0.5060(14) 0.1144(13)
C238 C 0.0326(12) 0.5694(10) 0.1460(11)
H169 H 0.0086 0.5751 0.1754
H170 H 0.0248 0.5928 0.1229
H171 H 0.0759 0.5780 0.1586
N30 N 0.1852(7) 0.4001(6) 0.3711(6)
C239 C 0.1885(9) 0.4424(7) 0.3957(7)
C240 C 0.1812(15) 0.4938(9) 0.4288(11)
H172 H 0.1645 0.5151 0.4073
H173 H 0.2208 0.5139 0.4464
H174 H 0.1535 0.4863 0.4545
N31 N 0.4394(15) 0.9431(13) 0.7465(12)
C241 C 0.4713(14) 0.9665(12) 0.7223(11)
C242 C 0.4917(9) 0.9968(8) 0.6841(8)
H175 H 0.5105 0.9746 0.6579
H176 H 0.5214 1.0294 0.7012
H177 H 0.4569 1.0069 0.6676
O1 O 0.2198(8) 0.5126(6) 1.1262(7)
C243 C 0.2148(8) 0.4632(6) 1.1448(8)
H178 H 0.2114 0.4720 1.1828
C244 C 0.1554(7) 0.4291(6) 1.1179(7)
H179 H 0.1240 0.4309 1.1417
H180 H 0.1598 0.3916 1.1069
H181 H 0.1437 0.4423 1.0877
C245 C 0.2699(7) 0.4399(7) 1.1359(7)
H182 H 0.2744 0.4319 1.0989
H183 H 0.2656 0.4066 1.1485
H184 H 0.3059 0.4657 1.1546
C246 C 0.2581(13) 0.5596(9) 1.1637(10)
H185 H 0.2950 0.5500 1.1790
C247 C 0.2181(17) 0.5778(14) 1.2048(12)
H186 H 0.2414 0.6088 1.2305
H187 H 0.1831 0.5880 1.1888
H188 H 0.2040 0.5483 1.2218
C248 C 0.2743(11) 0.5981(9) 1.1298(10)
H189 H 0.3001 0.6315 1.1502
H190 H 0.2964 0.5820 1.1021
H191 H 0.2373 0.6060 1.1147
O2 O 0.3386(12) 0.3776(9) 0.7392(10)
C249 C 0.3308(16) 0.3611(13) 0.7871(11)
C250 C 0.3879(17) 0.3815(15) 0.8225(13)
C251 C 0.313(2) 0.3015(12) 0.7802(17)
C252 C 0.3176(13) 0.4256(11) 0.7327(13)
C253 C 0.2517(12) 0.4126(16) 0.7098(15)
C254 C 0.3568(15) 0.4506(14) 0.6976(14)
C255? C -0.128(2) 0.331(2) 0.2169(17)
C256? C -0.159(2) 0.329(2) 0.2623(16)
H192? H -0.1563 0.3653 0.2832
H193? H -0.1404 0.3076 0.2828
H194? H -0.2019 0.3117 0.2518
C257? C -0.136(2) 0.406(2) 0.087(2)
H195? H -0.1522 0.4274 0.1154
H196? H -0.1429 0.3683 0.0901
H197? H -0.1560 0.4079 0.0540
C258? C -0.071(2) 0.427(2) 0.089(2)
N32? N -0.020(2) 0.451(2) 0.101(2)
O3? O 0.326(2) 0.353(2) 0.7055(17)
C259? C 0.267(2) 0.362(2) 0.6906(18)
H198? H 0.2370 0.3288 0.6906
C260? C 0.265(3) 0.369(3) 0.6358(18)
H199? H 0.2246 0.3754 0.6253
H200? H 0.2961 0.3997 0.6331
H201? H 0.2714 0.3362 0.6130
C261? C 0.246(2) 0.407(3) 0.724(2)
H202? H 0.2056 0.4092 0.7101
H203? H 0.2439 0.4002 0.7591
H204? H 0.2745 0.4410 0.7260
C262? C 0.343(2) 0.349(2) 0.7574(18)
H205? H 0.3075 0.3328 0.7734
C263? C 0.390(3) 0.314(3) 0.754(3)
H206? H 0.4031 0.3101 0.7882
H207? H 0.3724 0.2784 0.7317
H208? H 0.4252 0.3308 0.7386
C264? C 0.371(3) 0.405(2) 0.787(3)
H209? H 0.3835 0.4044 0.8227
H210? H 0.4060 0.4197 0.7708
H211? H 0.3405 0.4276 0.7868
N33? N 0.244(3) 0.250(3) 0.653(2)
C265? C 0.267(3) 0.254(2) 0.695(2)
C266? C 0.308(3) 0.283(3) 0.742(2)
H212? H 0.2841 0.2963 0.7697
H213? H 0.3362 0.3129 0.7344
H214? H 0.3303 0.2576 0.7530
O4? O 0.3452(16) 0.2618(12) 0.6250(11)
C267? C 0.312(2) 0.2119(14) 0.6352(15)
H215? H 0.2696 0.2039 0.6178
C268? C 0.342(3) 0.1665(15) 0.6155(19)
H216? H 0.3187 0.1334 0.6227
H217? H 0.3431 0.1621 0.5781
H218? H 0.3832 0.1741 0.6326
C269? C 0.310(3) 0.218(2) 0.6919(16)
H219? H 0.2873 0.1843 0.6987
H220? H 0.3511 0.2261 0.7092
H221? H 0.2892 0.2473 0.7051
C270? C 0.335(2) 0.2651(17) 0.5713(13)
H222? H 0.2999 0.2829 0.5695
C271? C 0.3858(17) 0.301(2) 0.5574(13)
H223? H 0.3930 0.3364 0.5819
H224? H 0.4224 0.2862 0.5585
H225? H 0.3762 0.3060 0.5224
C272? C 0.314(3) 0.211(2) 0.543(2)
H226? H 0.2800 0.1933 0.5583
H227? H 0.3008 0.2108 0.5068
H228? H 0.3471 0.1910 0.5429
H229? H 0.2981 0.3777 0.8036
H230? H 0.3824 0.3702 0.8551
H231? H 0.4209 0.3669 0.8064
H232? H 0.3979 0.4209 0.8292
H233? H 0.3080 0.2926 0.8140
H234? H 0.2740 0.2883 0.7582
H235? H 0.3440 0.2845 0.7639
H236? H 0.3220 0.4514 0.7670
H237? H 0.2391 0.4459 0.7060
H238? H 0.2473 0.3879 0.6758
H239? H 0.2261 0.3956 0.7327
H240? H 0.3437 0.4833 0.6924
H241? H 0.3991 0.4600 0.7129
H242? H 0.3533 0.4251 0.6642
O5? O 0.356(3) 0.2847(19) 0.697(2)
C273? C 0.351(3) 0.231(2) 0.707(3)
H243? H 0.3406 0.2328 0.7436
C274? C 0.303(3) 0.192(3) 0.671(4)
H244? H 0.2999 0.1565 0.6791
H245? H 0.2637 0.2031 0.6749
H246? H 0.3128 0.1903 0.6356
C275? C 0.413(3) 0.219(3) 0.702(2)
H247? H 0.4124 0.1830 0.7091
H248? H 0.4234 0.2193 0.6673
H249? H 0.4424 0.2458 0.7275
H250? H 0.3074 0.3119 0.7533
H251? H 0.3825 0.3815 0.8017
H252? H 0.4059 0.3262 0.7936
H253? H 0.4290 0.3690 0.7600
H254? H 0.3139 0.3965 0.7321
H255? H 0.3571 0.3799 0.6887
H256? H 0.2881 0.3483 0.6830
C276? C 0.343(3) 0.327(2) 0.736(2)
C277? C 0.394(4) 0.353(3) 0.776(3)
C278? C 0.324(5) 0.366(3) 0.708(4)
loop_
_geom_bond_atom_site_label_1
_geom_bond_atom_site_label_2
_geom_bond_site_symmetry_1
_geom_bond_site_symmetry_2
Fe1 N1 1_555 1_555
Fe2 N3 1_555 1_555
Fe3 N7 1_555 1_555
Fe4 N11 1_555 1_555
N1 C1 1_555 1_555
N2 Fe1 1_555 1_555
N3 C30 1_555 1_555
N4 Fe2 1_555 1_555
C1 H1 1_555 1_555
C2 C1 1_555 1_555
H2 C2 1_555 1_555
C3 C2 1_555 1_555
H3 C3 1_555 1_555
C4 C3 1_555 1_555
H4 C4 1_555 1_555
C5 N1 1_555 1_555
C6 N2 1_555 1_555
H5 C6 1_555 1_555
C7 N2 1_555 1_555
C8 C7 1_555 1_555
H6 C8 1_555 1_555
C9 C8 1_555 1_555
H7 C9 1_555 1_555
C10 C9 1_555 1_555
C11 C10 1_555 1_555
H8 C11 1_555 1_555
C12 C7 1_555 1_555
H9 C12 1_555 1_555
C13 C10 1_555 1_555
C14 C13 1_555 1_555
H10 C14 1_555 1_555
C15 C14 1_555 1_555
H11 C15 1_555 1_555
C16 C15 1_555 1_555
H12 C16 1_555 1_555
C17 C16 1_555 1_555
C18 C17 1_555 1_555
H13 C18 1_555 1_555
C19 C18 1_555 1_555
C20 C19 1_555 1_555
C21 C20 1_555 1_555
H14 C21 1_555 1_555
C22 C21 1_555 1_555
H15 C22 1_555 1_555
C23 C22 1_555 1_555
H16 C23 1_555 1_555
C24 C19 1_555 1_555
C25 C24 1_555 1_555
H17 C25 1_555 1_555
C26 C13 1_555 1_555
C27 C20 1_555 1_555
C28 C27 1_555 1_555
H18 C28 1_555 1_555
C29 C28 1_555 1_555
H19 C29 1_555 1_555
C30 C29 1_555 1_555
C31 C30 1_555 1_555
H20 C31 1_555 1_555
C32 C27 1_555 1_555
H21 C32 1_555 1_555
C33 N3 1_555 1_555
H22 C33 1_555 1_555
C34 N4 1_555 1_555
C35 C34 1_555 1_555
H23 C35 1_555 1_555
C36 C35 1_555 1_555
H24 C36 1_555 1_555
C37 C36 1_555 1_555
H25 C37 1_555 1_555
C38 N4 1_555 1_555
H26 C38 1_555 1_555
N5 Fe1 1_555 1_555
N6 Fe1 1_555 1_555
N7 C68 1_555 1_555
N8 Fe3 1_555 1_555
C39 N5 1_555 1_555
H27 C39 1_555 1_555
C40 C39 1_555 1_555
H28 C40 1_555 1_555
C41 C40 1_555 1_555
H29 C41 1_555 1_555
C42 C41 1_555 1_555
H30 C42 1_555 1_555
C43 N5 1_555 1_555
C44 N6 1_555 1_555
H31 C44 1_555 1_555
C45 N6 1_555 1_555
C46 C45 1_555 1_555
H32 C46 1_555 1_555
C47 C46 1_555 1_555
H33 C47 1_555 1_555
C48 C47 1_555 1_555
C49 C48 1_555 1_555
H34 C49 1_555 1_555
C50 C45 1_555 1_555
H35 C50 1_555 1_555
C51 C48 1_555 1_555
C52 C51 1_555 1_555
H36 C52 1_555 1_555
C53 C52 1_555 1_555
H37 C53 1_555 1_555
C54 C53 1_555 1_555
H38 C54 1_555 1_555
C55 C54 1_555 1_555
C56 C55 1_555 1_555
H39 C56 1_555 1_555
C57 C56 1_555 1_555
C58 C57 1_555 1_555
C59 C58 1_555 1_555
H40 C59 1_555 1_555
C60 C59 1_555 1_555
H41 C60 1_555 1_555
C61 C60 1_555 1_555
H42 C61 1_555 1_555
C62 C57 1_555 1_555
C63 C62 1_555 1_555
H43 C63 1_555 1_555
C64 C51 1_555 1_555
C65 C58 1_555 1_555
C66 C65 1_555 1_555
H44 C66 1_555 1_555
C67 C66 1_555 1_555
H45 C67 1_555 1_555
C68 C67 1_555 1_555
C69 C68 1_555 1_555
H46 C69 1_555 1_555
C70 C65 1_555 1_555
H47 C70 1_555 1_555
C71 N7 1_555 1_555
H48 C71 1_555 1_555
C72 N8 1_555 1_555
C73 C72 1_555 1_555
H49 C73 1_555 1_555
C74 C73 1_555 1_555
H50 C74 1_555 1_555
C75 C74 1_555 1_555
H51 C75 1_555 1_555
C76 N8 1_555 1_555
H52 C76 1_555 1_555
N9 Fe1 1_555 1_555
N10 Fe1 1_555 1_555
N11 C106 1_555 1_555
N12 Fe4 1_555 1_555
C77 N9 1_555 1_555
H53 C77 1_555 1_555
C78 C77 1_555 1_555
H54 C78 1_555 1_555
C79 C78 1_555 1_555
H55 C79 1_555 1_555
C80 C79 1_555 1_555
H56 C80 1_555 1_555
C81 N9 1_555 1_555
C82 N10 1_555 1_555
H57 C82 1_555 1_555
C83 N10 1_555 1_555
C84 C83 1_555 1_555
H58 C84 1_555 1_555
C85 C84 1_555 1_555
H59 C85 1_555 1_555
C86 C85 1_555 1_555
C87 C86 1_555 1_555
H60 C87 1_555 1_555
C88 C83 1_555 1_555
H61 C88 1_555 1_555
C89 C86 1_555 1_555
C90 C89 1_555 1_555
H62 C90 1_555 1_555
C91 C90 1_555 1_555
H63 C91 1_555 1_555
C92 C91 1_555 1_555
H64 C92 1_555 1_555
C93 C92 1_555 1_555
C94 C93 1_555 1_555
H65 C94 1_555 1_555
C95 C94 1_555 1_555
C96 C95 1_555 1_555
C97 C96 1_555 1_555
H66 C97 1_555 1_555
C98 C97 1_555 1_555
H67 C98 1_555 1_555
C99 C98 1_555 1_555
H68 C99 1_555 1_555
C100 C95 1_555 1_555
C101 C100 1_555 1_555
H69 C101 1_555 1_555
C102 C89 1_555 1_555
C103 C96 1_555 1_555
C104 C103 1_555 1_555
H70 C104 1_555 1_555
C105 C104 1_555 1_555
H71 C105 1_555 1_555
C106 C105 1_555 1_555
C107 C106 1_555 1_555
H72 C107 1_555 1_555
C108 C103 1_555 1_555
H73 C108 1_555 1_555
C109 N11 1_555 1_555
H74 C109 1_555 1_555
C110 N12 1_555 1_555
C111 C110 1_555 1_555
H75 C111 1_555 1_555
C112 C111 1_555 1_555
H76 C112 1_555 1_555
C113 C112 1_555 1_555
H77 C113 1_555 1_555
C114 N12 1_555 1_555
H78 C114 1_555 1_555
N13 Fe2 1_555 1_555
N14 Fe2 1_555 1_555
N15 Fe3 1_555 1_555
N16 Fe3 1_555 1_555
C115 N13 1_555 1_555
H79 C115 1_555 1_555
C116 C115 1_555 1_555
H80 C116 1_555 1_555
C117 C116 1_555 1_555
H81 C117 1_555 1_555
C118 C117 1_555 1_555
H82 C118 1_555 1_555
C119 N13 1_555 1_555
C120 N14 1_555 1_555
H83 C120 1_555 1_555
C121 N14 1_555 1_555
C122 C121 1_555 1_555
H84 C122 1_555 1_555
C123 C122 1_555 1_555
H85 C123 1_555 1_555
C124 C123 1_555 1_555
C125 C124 1_555 1_555
H86 C125 1_555 1_555
C126 C121 1_555 1_555
H87 C126 1_555 1_555
C127 C124 1_555 1_555
C128 C127 1_555 1_555
H88 C128 1_555 1_555
C129 C128 1_555 1_555
H89 C129 1_555 1_555
C130 C129 1_555 1_555
H90 C130 1_555 1_555
C131 C130 1_555 1_555
C132 C131 1_555 1_555
H91 C132 1_555 1_555
C133 C132 1_555 1_555
C134 C133 1_555 1_555
C135 C134 1_555 1_555
H92 C135 1_555 1_555
C136 C135 1_555 1_555
H93 C136 1_555 1_555
C137 C136 1_555 1_555
H94 C137 1_555 1_555
C138 C133 1_555 1_555
C139 C138 1_555 1_555
H95 C139 1_555 1_555
C140 C127 1_555 1_555
C141 C134 1_555 1_555
C142 C141 1_555 1_555
H96 C142 1_555 1_555
C143 C142 1_555 1_555
H97 C143 1_555 1_555
C144 N15 1_555 1_555
C145 C144 1_555 1_555
H98 C145 1_555 1_555
C146 C141 1_555 1_555
H99 C146 1_555 1_555
C147 N15 1_555 1_555
H100 C147 1_555 1_555
C148 N16 1_555 1_555
C149 C148 1_555 1_555
H101 C149 1_555 1_555
C150 C149 1_555 1_555
H102 C150 1_555 1_555
C151 C150 1_555 1_555
H103 C151 1_555 1_555
C152 N16 1_555 1_555
H104 C152 1_555 1_555
N17 Fe2 1_555 1_555
N18 Fe2 1_555 1_555
N19 Fe4 1_555 1_555
N20 Fe4 1_555 1_555
C153 N17 1_555 1_555
H105 C153 1_555 1_555
C154 C153 1_555 1_555
H106 C154 1_555 1_555
C155 C154 1_555 1_555
H107 C155 1_555 1_555
C156 C155 1_555 1_555
H108 C156 1_555 1_555
C157 N17 1_555 1_555
C158 N18 1_555 1_555
H109 C158 1_555 1_555
C159 N18 1_555 1_555
C160 C159 1_555 1_555
H110 C160 1_555 1_555
C161 C160 1_555 1_555
H111 C161 1_555 1_555
C162 C161 1_555 1_555
C163 C162 1_555 1_555
H112 C163 1_555 1_555
C164 C159 1_555 1_555
H113 C164 1_555 1_555
C165 C162 1_555 1_555
C166 C165 1_555 1_555
H114 C166 1_555 1_555
C167 C166 1_555 1_555
H115 C167 1_555 1_555
C168 C167 1_555 1_555
H116 C168 1_555 1_555
C169 C168 1_555 1_555
C170 C169 1_555 1_555
H117 C170 1_555 1_555
C171 C170 1_555 1_555
C172 C171 1_555 1_555
C173 C172 1_555 1_555
H118 C173 1_555 1_555
C174 C173 1_555 1_555
H119 C174 1_555 1_555
C175 C174 1_555 1_555
H120 C175 1_555 1_555
C176 C171 1_555 1_555
C177 C176 1_555 1_555
H121 C177 1_555 1_555
C178 C165 1_555 1_555
C179 C172 1_555 1_555
C180 C179 1_555 1_555
H122 C180 1_555 1_555
C181 C180 1_555 1_555
H123 C181 1_555 1_555
C182 N19 1_555 1_555
C183 C182 1_555 1_555
H124 C183 1_555 1_555
C184 C179 1_555 1_555
H125 C184 1_555 1_555
C185 N19 1_555 1_555
H126 C185 1_555 1_555
C186 N20 1_555 1_555
C187 C186 1_555 1_555
H127 C187 1_555 1_555
C188 C187 1_555 1_555
H128 C188 1_555 1_555
C189 C188 1_555 1_555
H129 C189 1_555 1_555
C190 N20 1_555 1_555
H130 C190 1_555 1_555
N21 Fe3 1_555 1_555
N22 Fe3 1_555 1_555
N23 Fe4 1_555 1_555
N24 Fe4 1_555 1_555
C191 N21 1_555 1_555
H131 C191 1_555 1_555
C192 C191 1_555 1_555
H132 C192 1_555 1_555
C193 C192 1_555 1_555
H133 C193 1_555 1_555
C194 C193 1_555 1_555
H134 C194 1_555 1_555
C195 N21 1_555 1_555
C196 N22 1_555 1_555
H135 C196 1_555 1_555
C197 N22 1_555 1_555
C198 C197 1_555 1_555
H136 C198 1_555 1_555
C199 C198 1_555 1_555
H137 C199 1_555 1_555
C200 C199 1_555 1_555
C201 C200 1_555 1_555
H138 C201 1_555 1_555
C202 C197 1_555 1_555
H139 C202 1_555 1_555
C203 C200 1_555 1_555
C204 C203 1_555 1_555
H140 C204 1_555 1_555
C205 C204 1_555 1_555
H141 C205 1_555 1_555
C206 C205 1_555 1_555
H142 C206 1_555 1_555
C207 C206 1_555 1_555
C208 C207 1_555 1_555
H143 C208 1_555 1_555
C209 C208 1_555 1_555
C210 C209 1_555 1_555
C211 C210 1_555 1_555
H144 C211 1_555 1_555
C212 C211 1_555 1_555
H145 C212 1_555 1_555
C213 C212 1_555 1_555
H146 C213 1_555 1_555
C214 C209 1_555 1_555
C215 C214 1_555 1_555
H147 C215 1_555 1_555
C216 C203 1_555 1_555
C217 C210 1_555 1_555
C218 C217 1_555 1_555
H148 C218 1_555 1_555
C219 C218 1_555 1_555
H149 C219 1_555 1_555
C220 N23 1_555 1_555
C221 C220 1_555 1_555
H150 C221 1_555 1_555
C222 C217 1_555 1_555
H151 C222 1_555 1_555
C223 N23 1_555 1_555
H152 C223 1_555 1_555
C224 N24 1_555 1_555
C225 C224 1_555 1_555
H153 C225 1_555 1_555
C226 C225 1_555 1_555
H154 C226 1_555 1_555
C227 C226 1_555 1_555
H155 C227 1_555 1_555
C228 N24 1_555 1_555
H156 C228 1_555 1_555
Sb1 F1 1_555 1_555
F2 Sb1 1_555 1_555
F3 Sb1 1_555 1_555
F4 Sb1 1_555 1_555
F5 Sb1 1_555 1_555
F6 Sb1 1_555 1_555
Sb2 F7 1_555 1_555
F8 Sb2 1_555 1_555
F9 Sb2 1_555 1_555
F10 Sb2 1_555 1_555
F11 Sb2 1_555 1_555
F12 Sb2 1_555 1_555
Sb3 F13 1_555 1_555
F14 Sb3 1_555 1_555
F15 Sb3 1_555 1_555
F16 Sb3 1_555 1_555
F17 Sb3 1_555 1_555
F18 Sb3 1_555 1_555
Sb4 F19 1_555 1_555
F20 Sb4 1_555 1_555
F21 Sb4 1_555 1_555
F22 Sb4 1_555 1_555
F23 Sb4 1_555 1_555
F24 Sb4 1_555 1_555
Sb5 F25 1_555 1_555
F26 Sb5 1_555 1_555
F27 Sb5 1_555 1_555
F28 Sb5 1_555 1_555
F29 Sb5 1_555 1_555
F30 Sb5 1_555 1_555
Sb6 F31 1_555 1_555
F32 Sb6 1_555 1_555
F33 Sb6 1_555 1_555
F34 Sb6 1_555 1_555
F35 Sb6 1_555 1_555
F36 Sb6 1_555 1_555
Sb7 F37 1_555 1_555
F38 Sb7 1_555 1_555
F39 Sb7 1_555 1_555
F40 Sb7 1_555 1_555
F41 Sb7 1_555 1_555
F42 Sb7 1_555 1_555
N25 C229 1_555 1_555
C229 C230 1_555 1_555
C230 H157 1_555 1_555
H158 C230 1_555 1_555
H159 C230 1_555 1_555
N26 C231 1_555 1_555
C231 C232 1_555 1_555
C232 H160 1_555 1_555
H161 C232 1_555 1_555
H162 C232 1_555 1_555
N27 C233 1_555 1_555
C233 C234 1_555 1_555
C234 H163 1_555 1_555
H164 C234 1_555 1_555
H165 C234 1_555 1_555
N28 C235 1_555 1_555
C235 C236 1_555 1_555
C236 H166 1_555 1_555
H167 C236 1_555 1_555
H168 C236 1_555 1_555
N29 C237 1_555 1_555
C237 C238 1_555 1_555
C238 H169 1_555 1_555
H170 C238 1_555 1_555
H171 C238 1_555 1_555
N30 C239 1_555 1_555
C239 C240 1_555 1_555
C240 H172 1_555 1_555
H173 C240 1_555 1_555
H174 C240 1_555 1_555
N31 C241 1_555 1_555
C241 C242 1_555 1_555
C242 H175 1_555 1_555
H176 C242 1_555 1_555
H177 C242 1_555 1_555
O1 C243 1_555 1_555
C243 H178 1_555 1_555
C244 C243 1_555 1_555
H179 C244 1_555 1_555
H180 C244 1_555 1_555
H181 C244 1_555 1_555
C245 C243 1_555 1_555
H182 C245 1_555 1_555
H183 C245 1_555 1_555
H184 C245 1_555 1_555
C246 O1 1_555 1_555
H185 C246 1_555 1_555
C247 C246 1_555 1_555
H186 C247 1_555 1_555
H187 C247 1_555 1_555
H188 C247 1_555 1_555
C248 C246 1_555 1_555
H189 C248 1_555 1_555
H190 C248 1_555 1_555
H191 C248 1_555 1_555
O2 C249 1_555 1_555
C249 C250 1_555 1_555
C251 C249 1_555 1_555
C252 O2 1_555 1_555
C253 C252 1_555 1_555
C254 C252 1_555 1_555
C4 C5 1_555 1_555
C5 C6 1_555 1_555
C11 C12 1_555 1_555
C17 C26 1_555 1_555
C23 C24 1_555 1_555
C25 C26 1_555 1_555
C31 C32 1_555 1_555
C33 C34 1_555 1_555
C37 C38 1_555 1_555
C42 C43 1_555 1_555
C43 C44 1_555 1_555
C49 C50 1_555 1_555
C55 C64 1_555 1_555
C61 C62 1_555 1_555
C63 C64 1_555 1_555
C69 C70 1_555 1_555
C71 C72 1_555 1_555
C75 C76 1_555 1_555
C80 C81 1_555 1_555
C81 C82 1_555 1_555
C87 C88 1_555 1_555
C93 C102 1_555 1_555
C99 C100 1_555 1_555
C101 C102 1_555 1_555
C107 C108 1_555 1_555
C109 C110 1_555 1_555
C113 C114 1_555 1_555
C118 C119 1_555 1_555
C119 C120 1_555 1_555
C125 C126 1_555 1_555
C131 C140 1_555 1_555
C137 C138 1_555 1_555
C139 C140 1_555 1_555
C143 C144 1_555 1_555
C145 C146 1_555 1_555
C147 C148 1_555 1_555
C151 C152 1_555 1_555
C156 C157 1_555 1_555
C157 C158 1_555 1_555
C163 C164 1_555 1_555
C169 C178 1_555 1_555
C175 C176 1_555 1_555
C177 C178 1_555 1_555
C181 C182 1_555 1_555
C183 C184 1_555 1_555
C185 C186 1_555 1_555
C189 C190 1_555 1_555
C194 C195 1_555 1_555
C195 C196 1_555 1_555
C201 C202 1_555 1_555
C207 C216 1_555 1_555
C213 C214 1_555 1_555
C215 C216 1_555 1_555
C219 C220 1_555 1_555
C221 C222 1_555 1_555
C223 C224 1_555 1_555
C227 C228 1_555 1_555

#END
