
#######################################################################
#
#                 Cambridge Crystallographic Data Centre
#                                CCDC 
#
#######################################################################
#
# If this CIF has been generated from an entry in the Cambridge 
# Structural Database, then it will include bibliographic, chemical, 
# crystal, experimental, refinement or atomic coordinate data resulting 
# from the CCDC's data processing and validation procedures.
#
#######################################################################

data_EVEBOY
_chemical_formula_moiety         
'C264 H156 Fe4 N48 8+,3(C2 H3 N1),8(Cl1 O4 1-),C60'
_chemical_name_systematic        
'hexakis(\m-3,10-bis(4-((pyridin-2-ylmethylene)amino)phenyl)tetracyclo[6.6.2.0^2,7^.0^9,14^]hexadeca-2,4,6,9,11,13-hexaene-15,15,16,16-tetracarbonitrile)-tetra-iron(ii) C60fullerene clathrate octakis(perchlorate) acetonitrile solvate'
_symmetry_cell_setting           rhombohedral
_symmetry_space_group_name_H-M   'R -3'
_symmetry_Int_Tables_number      148
_space_group_name_Hall           '-R 3'
loop_
_symmetry_equiv_pos_site_id
_symmetry_equiv_pos_as_xyz
1 x,y,z
2 -y,x-y,z
3 -x+y,-x,z
4 2/3+x,1/3+y,1/3+z
5 2/3-y,1/3+x-y,1/3+z
6 2/3-x+y,1/3-x,1/3+z
7 1/3+x,2/3+y,2/3+z
8 1/3-y,2/3+x-y,2/3+z
9 1/3-x+y,2/3-x,2/3+z
10 -x,-y,-z
11 y,-x+y,-z
12 x-y,x,-z
13 1/3-x,2/3-y,2/3-z
14 1/3+y,2/3-x+y,2/3-z
15 1/3+x-y,2/3+x,2/3-z
16 2/3-x,1/3-y,1/3-z
17 2/3+y,1/3-x+y,1/3-z
18 2/3+x-y,1/3+x,1/3-z
_cell_length_a                   26.1142(13)
_cell_length_b                   26.1142(13)
_cell_length_c                   110.422(6)
_cell_angle_alpha                90
_cell_angle_beta                 90
_cell_angle_gamma                120
_cell_volume                     65213.8
_exptl_crystal_colour            purple
_exptl_crystal_description       block
_cell_formula_units_Z            6
loop_
_atom_site_label
_atom_site_type_symbol
_atom_site_fract_x
_atom_site_fract_y
_atom_site_fract_z
Cl1 Cl 0.7589(3) 0.6932(5) 0.34191(8)
O1 O 0.7161(6) 0.6749(6) 0.34963(12)
O2 O 0.7938(9) 0.6697(9) 0.34347(19)
O3 O 0.7416(10) 0.6810(10) 0.33036(18)
O4 O 0.7927(14) 0.7550(9) 0.3432(3)
Cl2 Cl 0.5027(3) 0.0861(3) 0.40536(6)
O5 O 0.5609(7) 0.1054(13) 0.4080(2)
O6 O 0.4715(11) 0.0268(6) 0.4078(2)
O7 O 0.4996(12) 0.0953(12) 0.39335(13)
O8 O 0.4845(11) 0.1160(11) 0.4126(2)
Cl3 Cl 0.1840(6) 0.2351(5) 0.42739(11)
O9 O 0.1717(14) 0.2076(13) 0.4167(2)
O10 O 0.2388(11) 0.2488(13) 0.4319(3)
O11 O 0.1427(11) 0.1976(12) 0.4351(2)
O12 O 0.1839(12) 0.2878(11) 0.4262(2)
N17 N 0.5105(10) 0.6511(11) 0.3124(2)
C89 C 0.4975(12) 0.6273(13) 0.3217(3)
C90 C 0.4774(10) 0.5924(10) 0.3328(2)
H53 H 0.4341 0.5688 0.3328
H54 H 0.4906 0.6189 0.3398
H55 H 0.4940 0.5661 0.3332
Fe1 Fe 0.35779(9) 0.27390(8) 0.38000(2)
Fe2 Fe 0.3333 0.6667 0.51583(4)
N1 N 0.4134(4) 0.2519(4) 0.38707(9)
N2 N 0.4268(4) 0.3539(4) 0.38229(9)
N3 N 0.7009(4) 1.0086(4) 0.37116(9)
N4 N 0.7300(4) 1.1104(4) 0.36346(9)
N5 N 0.5805(5) 0.5659(5) 0.35430(11)
N6 N 0.7086(5) 0.6537(5) 0.38188(12)
N7 N 0.6148(5) 0.7092(5) 0.34174(10)
N8 N 0.7452(4) 0.7948(4) 0.36980(11)
C1 C 0.4050(5) 0.1981(4) 0.38976(12)
H1 H 0.3676 0.1646 0.3879
C2 C 0.4473(6) 0.1885(5) 0.39503(13)
H2 H 0.4383 0.1494 0.3970
C3 C 0.5034(6) 0.2362(5) 0.39743(14)
H3 H 0.5339 0.2308 0.4007
C4 C 0.5126(5) 0.2919(5) 0.39477(13)
H4 H 0.5498 0.3259 0.3964
C5 C 0.4672(4) 0.2980(4) 0.38972(10)
C6 C 0.4728(5) 0.3553(4) 0.38681(11)
H5 H 0.5085 0.3914 0.3882
C7 C 0.4325(4) 0.4094(4) 0.37912(10)
C8 C 0.4332(4) 0.4245(4) 0.36701(10)
H6 H 0.4275 0.3970 0.3608
C9 C 0.4423(4) 0.4801(4) 0.36415(9)
H7 H 0.4431 0.4905 0.3559
C10 C 0.4503(4) 0.5209(3) 0.37301(9)
C11 C 0.4478(4) 0.5041(4) 0.38505(9)
H8 H 0.4521 0.5310 0.3913
C12 C 0.4391(4) 0.4488(4) 0.38818(9)
H9 H 0.4377 0.4381 0.3965
C13 C 0.4633(4) 0.5816(3) 0.36953(8)
C14 C 0.4226(4) 0.5896(4) 0.36274(9)
H10 H 0.3853 0.5564 0.3608
C15 C 0.4358(4) 0.6449(4) 0.35883(10)
H11 H 0.4074 0.6496 0.3543
C16 C 0.4904(4) 0.6938(4) 0.36143(9)
H12 H 0.4999 0.7317 0.3585
C17 C 0.5312(4) 0.6871(4) 0.36831(8)
C18 C 0.5937(4) 0.7349(5) 0.37110(9)
H13 H 0.6023 0.7749 0.3683
C19 C 0.6030(4) 0.7323(4) 0.38452(8)
C20 C 0.6272(4) 0.7819(4) 0.39212(10)
C21 C 0.6338(5) 0.7743(5) 0.40441(10)
H14 H 0.6491 0.8074 0.4097
C22 C 0.6185(5) 0.7193(5) 0.40898(10)
H15 H 0.6237 0.7149 0.4174
C23 C 0.5955(4) 0.6703(5) 0.40133(10)
H16 H 0.5852 0.6325 0.4045
C24 C 0.5877(4) 0.6767(4) 0.38912(9)
C25 C 0.5655(4) 0.6279(5) 0.37968(9)
H17 H 0.5525 0.5878 0.3831
C26 C 0.5179(4) 0.6314(4) 0.37249(8)
C27 C 0.6194(4) 0.6503(4) 0.37045(10)
C28 C 0.6358(4) 0.7145(4) 0.36501(10)
C29 C 0.5999(5) 0.6041(5) 0.36098(11)
C30 C 0.6707(5) 0.6524(5) 0.37659(11)
C31 C 0.6277(5) 0.7109(5) 0.35170(11)
C32 C 0.6980(4) 0.7594(5) 0.36738(11)
C33 C 0.6458(4) 0.8418(3) 0.38703(9)
C34 C 0.6054(4) 0.8561(4) 0.38242(10)
H18 H 0.5645 0.8276 0.3829
C35 C 0.6219(4) 0.9103(4) 0.37714(10)
H19 H 0.5930 0.9189 0.3741
C36 C 0.6820(4) 0.9519(4) 0.37645(9)
C37 C 0.7226(4) 0.9386(4) 0.38122(10)
H20 H 0.7634 0.9676 0.3809
C38 C 0.7060(4) 0.8844(4) 0.38643(10)
H21 H 0.7350 0.8762 0.3896
C39 C 0.6999(5) 1.0108(4) 0.35943(11)
H22 H 0.6889 0.9774 0.3544
C40 C 0.7173(5) 1.0701(4) 0.35463(9)
C41 C 0.7175(7) 1.0814(5) 0.34245(10)
H23 H 0.7074 1.0511 0.3366
C42 C 0.7329(8) 1.1384(6) 0.33893(12)
H24 H 0.7339 1.1480 0.3306
C43 C 0.7468(8) 1.1807(6) 0.34778(14)
H25 H 0.7575 1.2200 0.3456
C44 C 0.7448(7) 1.1650(5) 0.35979(13)
H26 H 0.7546 1.1946 0.3658
N9 N 0.2927(4) 0.1923(4) 0.37943(9)
N10 N 0.3249(5) 0.2722(4) 0.39599(9)
N11 N 0.3574(5) 0.6181(5) 0.50646(9)
N12 N 0.4042(6) 0.6840(6) 0.52537(12)
N13 N 0.2141(9) 0.2691(9) 0.4628(2)
N14 N 0.3869(9) 0.3214(8) 0.44876(15)
N15 N 0.2786(11) 0.3767(9) 0.48666(17)
N16 N 0.4526(8) 0.4270(10) 0.47266(18)
C45 C 0.2801(6) 0.1509(5) 0.37113(10)
H27 H 0.3043 0.1615 0.3641
C46 C 0.2341(6) 0.0933(5) 0.37202(13)
H28 H 0.2256 0.0658 0.3656
C47 C 0.2007(6) 0.0768(5) 0.38257(14)
H29 H 0.1694 0.0373 0.3836
C48 C 0.2134(6) 0.1186(5) 0.39153(12)
H30 H 0.1909 0.1085 0.3988
C49 C 0.2599(5) 0.1755(4) 0.38967(10)
C50 C 0.2782(6) 0.2219(5) 0.39892(11)
H31 H 0.2579 0.2160 0.4064
C51 C 0.3432(5) 0.3176(4) 0.40485(9)
C52 C 0.3119(5) 0.3471(5) 0.40705(10)
H32 H 0.2770 0.3368 0.4026
C53 C 0.3312(5) 0.3910(4) 0.41570(10)
H33 H 0.3090 0.4101 0.4172
C54 C 0.3828(5) 0.4078(4) 0.42227(9)
C55 C 0.4145(5) 0.3790(4) 0.41988(10)
H34 H 0.4503 0.3904 0.4241
C56 C 0.3947(5) 0.3341(5) 0.41142(10)
H35 H 0.4164 0.3143 0.4101
C57 C 0.4033(5) 0.4524(4) 0.43225(9)
C58 C 0.4594(5) 0.5028(5) 0.43143(11)
H36 H 0.4824 0.5088 0.4243
C59 C 0.4823(5) 0.5443(5) 0.44074(12)
H37 H 0.5199 0.5790 0.4399
C60 C 0.4495(5) 0.5343(5) 0.45117(11)
H38 H 0.4652 0.5618 0.4576
C61 C 0.3938(5) 0.4844(5) 0.45233(10)
C62 C 0.3548(5) 0.4670(6) 0.46327(12)
H39 H 0.3713 0.4975 0.4698
C63 C 0.2937(5) 0.4534(5) 0.45913(11)
C64 C 0.2604(5) 0.4764(5) 0.46452(9)
C65 C 0.2043(6) 0.4596(6) 0.45996(12)
H40 H 0.1813 0.4742 0.4637
C66 C 0.1820(6) 0.4223(6) 0.45020(12)
H41 H 0.1445 0.4126 0.4470
C67 C 0.2140(6) 0.3988(5) 0.44500(11)
H42 H 0.1979 0.3725 0.4383
C68 C 0.2696(5) 0.4136(5) 0.44946(11)
C69 C 0.3086(5) 0.3911(5) 0.44495(13)
H43 H 0.2920 0.3646 0.4377
C70 C 0.3699(5) 0.4437(5) 0.44274(10)
C71 C 0.3166(7) 0.3585(6) 0.45652(14)
C72 C 0.3460(7) 0.4057(7) 0.46743(13)
C73 C 0.2588(7) 0.3065(8) 0.45957(18)
C74 C 0.3551(8) 0.3352(8) 0.45262(17)
C75 C 0.3085(8) 0.3860(8) 0.47843(17)
C76 C 0.4043(7) 0.4146(8) 0.47121(18)
C77 C 0.2830(5) 0.5159(5) 0.47530(9)
C78 C 0.3351(5) 0.5702(5) 0.47453(10)
H44 H 0.3540 0.5837 0.4669
C79 C 0.3598(5) 0.6046(5) 0.48474(11)
H45 H 0.3954 0.6416 0.4842
C80 C 0.3317(5) 0.5845(5) 0.49583(10)
C81 C 0.2797(5) 0.5310(6) 0.49673(10)
H46 H 0.2607 0.5178 0.5044
C82 C 0.2554(5) 0.4970(5) 0.48651(11)
H47 H 0.2195 0.4604 0.4871
C83 C 0.4043(6) 0.6188(6) 0.51062(12)
H48 H 0.4202 0.5971 0.5068
C84 C 0.4316(6) 0.6549(6) 0.52144(11)
C85 C 0.4819(7) 0.6597(8) 0.52682(15)
H49 H 0.4994 0.6378 0.5239
C86 C 0.5057(7) 0.6976(8) 0.53657(16)
H50 H 0.5409 0.7030 0.5403
C87 C 0.4784(9) 0.7273(9) 0.54085(16)
H51 H 0.4938 0.7527 0.5477
C88 C 0.4281(8) 0.7195(8) 0.53501(15)
H52 H 0.4095 0.7403 0.5380
Fe1A Fe 0.72610(8) 1.08389(12) 0.38000(2)
N1A N 0.7481(4) 1.1615(6) 0.38707(9)
N2A N 0.6461(4) 1.0729(6) 0.38229(9)
N3A N -0.0086(4) 0.6923(6) 0.37116(9)
N4A N -0.1104(4) 0.6196(6) 0.36346(9)
N5A N 0.4341(5) 1.0146(7) 0.35430(11)
N6A N 0.3463(5) 1.0549(7) 0.38188(12)
N7A N 0.2908(5) 0.9056(7) 0.34174(10)
N8A N 0.2052(4) 0.9504(6) 0.36980(11)
C1A C 0.8019(4) 1.2069(6) 0.38976(12)
H1A H 0.8354 1.2030 0.3879
C2A C 0.8115(5) 1.2588(8) 0.39503(13)
H2A H 0.8506 1.2889 0.3970
C3A C 0.7638(5) 1.2672(8) 0.39743(14)
H3A H 0.7692 1.3031 0.4007
C4A C 0.7081(5) 1.2207(7) 0.39477(13)
H4A H 0.6741 1.2239 0.3964
C5A C 0.7020(4) 1.1692(6) 0.38972(10)
C6A C 0.6447(4) 1.1175(6) 0.38681(11)
H5A H 0.6086 1.1171 0.3882
C7A C 0.5906(4) 1.0231(6) 0.37912(10)
C8A C 0.5755(4) 1.0087(6) 0.36701(10)
H6A H 0.6030 1.0305 0.3608
C9A C 0.5199(4) 0.9622(6) 0.36415(9)
H7A H 0.5095 0.9526 0.3559
C10A C 0.4791(3) 0.9294(5) 0.37301(9)
C11A C 0.4959(4) 0.9437(6) 0.38505(9)
H8A H 0.4690 0.9211 0.3913
C12A C 0.5512(4) 0.9903(6) 0.38818(9)
H9A H 0.5619 0.9996 0.3965
C13A C 0.4184(3) 0.8817(5) 0.36953(8)
C14A C 0.4104(4) 0.8330(6) 0.36274(9)
H10A H 0.4436 0.8289 0.3608
C15A C 0.3551(4) 0.7909(6) 0.35883(10)
H11A H 0.3504 0.7578 0.3543
C16A C 0.3062(4) 0.7966(6) 0.36143(9)
H12A H 0.2683 0.7682 0.3585
C17A C 0.3129(4) 0.8441(6) 0.36831(8)
C18A C 0.2651(5) 0.8588(6) 0.37110(9)
H13A H 0.2251 0.8274 0.3683
C19A C 0.2677(4) 0.8707(6) 0.38452(8)
C20A C 0.2181(4) 0.8453(6) 0.39212(10)
C21A C 0.2257(5) 0.8595(7) 0.40441(10)
H14A H 0.1926 0.8417 0.4097
C22A C 0.2807(5) 0.8992(7) 0.40898(10)
H15A H 0.2851 0.9088 0.4174
C23A C 0.3297(5) 0.9252(6) 0.40133(10)
H16A H 0.3675 0.9527 0.4045
C24A C 0.3233(4) 0.9110(6) 0.38912(9)
C25A C 0.3721(5) 0.9376(6) 0.37968(9)
H17A H 0.4122 0.9647 0.3831
C26A C 0.3686(4) 0.8865(6) 0.37249(8)
C27A C 0.3497(4) 0.9691(6) 0.37045(10)
C28A C 0.2855(4) 0.9213(6) 0.36501(10)
C29A C 0.3959(5) 0.9958(7) 0.36098(11)
C30A C 0.3476(5) 1.0183(7) 0.37659(11)
C31A C 0.2891(5) 0.9168(7) 0.35170(11)
C32A C 0.2406(5) 0.9386(6) 0.36738(11)
C33A C 0.1582(3) 0.8040(5) 0.38703(9)
C34A C 0.1439(4) 0.7493(6) 0.38242(10)
H18A H 0.1724 0.7369 0.3829
C35A C 0.0897(4) 0.7116(6) 0.37714(10)
H19A H 0.0811 0.6741 0.3741
C36A C 0.0481(4) 0.7301(6) 0.37645(9)
C37A C 0.0614(4) 0.7840(6) 0.38122(10)
H20A H 0.0324 0.7958 0.3809
C38A C 0.1156(4) 0.8216(6) 0.38643(10)
H21A H 0.1238 0.8588 0.3896
C39A C -0.0108(4) 0.6891(6) 0.35943(11)
H22A H 0.0226 0.7115 0.3544
C40A C -0.0701(4) 0.6472(6) 0.35463(9)
C41A C -0.0814(5) 0.6361(9) 0.34245(10)
H23A H -0.0511 0.6563 0.3366
C42A C -0.1384(6) 0.5945(10) 0.33893(12)
H24A H -0.1480 0.5859 0.3306
C43A C -0.1807(6) 0.5661(10) 0.34778(14)
H25A H -0.2200 0.5375 0.3456
C44A C -0.1650(5) 0.5798(9) 0.35979(13)
H26A H -0.1946 0.5600 0.3658
N9A N 0.8077(4) 1.1004(6) 0.37943(9)
N10A N 0.7278(4) 1.0527(6) 0.39599(9)
N11A N 0.3819(5) 0.7393(7) 0.50646(9)
N12A N 0.3160(6) 0.7202(8) 0.52537(12)
N13A N 0.7309(9) 0.9450(13) 0.4628(2)
N14A N 0.6786(8) 1.0655(12) 0.44876(15)
N15A N 0.6233(9) 0.9019(14) 0.48666(17)
N16A N 0.5730(10) 1.0256(13) 0.47266(18)
C45A C 0.8491(5) 1.1292(8) 0.37113(10)
H27A H 0.8385 1.1428 0.3641
C46A C 0.9067(5) 1.1408(8) 0.37202(13)
H28A H 0.9342 1.1598 0.3656
C47A C 0.9232(5) 1.1239(8) 0.38257(14)
H29A H 0.9627 1.1321 0.3836
C48A C 0.8814(5) 1.0948(8) 0.39153(12)
H30A H 0.8915 1.0824 0.3988
C49A C 0.8245(4) 1.0844(6) 0.38967(10)
C50A C 0.7781(5) 1.0563(8) 0.39892(11)
H31A H 0.7840 1.0419 0.4064
C51A C 0.6824(4) 1.0256(6) 0.40485(9)
C52A C 0.6529(5) 0.9648(7) 0.40705(10)
H32A H 0.6632 0.9402 0.4026
C53A C 0.6090(4) 0.9402(6) 0.41570(10)
H33A H 0.5899 0.8989 0.4172
C54A C 0.5922(4) 0.9750(6) 0.42227(9)
C55A C 0.6210(4) 1.0355(6) 0.41988(10)
H34A H 0.6096 1.0599 0.4241
C56A C 0.6659(5) 1.0606(7) 0.41142(10)
H35A H 0.6857 1.1021 0.4101
C57A C 0.5476(4) 0.9509(6) 0.43225(9)
C58A C 0.4972(5) 0.9566(7) 0.43143(11)
H36A H 0.4912 0.9736 0.4243
C59A C 0.4557(5) 0.9380(7) 0.44074(12)
H37A H 0.4210 0.9409 0.4399
C60A C 0.4657(5) 0.9152(7) 0.45117(11)
H38A H 0.4382 0.9034 0.4576
C61A C 0.5156(5) 0.9094(7) 0.45233(10)
C62A C 0.5330(6) 0.8878(8) 0.46327(12)
H39A H 0.5025 0.8738 0.4698
C63A C 0.5466(5) 0.8403(7) 0.45913(11)
C64A C 0.5236(5) 0.7840(7) 0.46452(9)
C65A C 0.5404(6) 0.7447(8) 0.45996(12)
H40A H 0.5258 0.7071 0.4637
C66A C 0.5777(6) 0.7597(8) 0.45020(12)
H41A H 0.5874 0.7319 0.4470
C67A C 0.6012(5) 0.8152(8) 0.44500(11)
H42A H 0.6275 0.8254 0.4383
C68A C 0.5864(5) 0.8560(7) 0.44946(11)
C69A C 0.6089(5) 0.9175(7) 0.44495(13)
H43A H 0.6354 0.9274 0.4377
C70A C 0.5563(5) 0.9262(7) 0.44274(10)
C71A C 0.6415(6) 0.9581(9) 0.45652(14)
C72A C 0.5943(7) 0.9403(10) 0.46743(13)
C73A C 0.6935(8) 0.9523(11) 0.45957(18)
C74A C 0.6648(8) 1.0199(11) 0.45262(17)
C75A C 0.6140(8) 0.9225(11) 0.47843(17)
C76A C 0.5854(8) 0.9897(11) 0.47121(18)
C77A C 0.4841(5) 0.7671(7) 0.47530(9)
C78A C 0.4298(5) 0.7649(7) 0.47453(10)
H44A H 0.4163 0.7703 0.4669
C79A C 0.3954(5) 0.7552(7) 0.48474(11)
H45A H 0.3584 0.7538 0.4842
C80A C 0.4155(5) 0.7472(7) 0.49583(10)
C81A C 0.4690(6) 0.7487(8) 0.49673(10)
H46A H 0.4822 0.7429 0.5044
C82A C 0.5030(5) 0.7584(7) 0.48651(11)
H47A H 0.5396 0.7591 0.4871
C83A C 0.3812(6) 0.7855(8) 0.51062(12)
H48A H 0.4029 0.8231 0.5068
C84A C 0.3451(6) 0.7767(8) 0.52144(11)
C85A C 0.3403(8) 0.8222(11) 0.52682(15)
H49A H 0.3622 0.8616 0.5239
C86A C 0.3024(8) 0.8081(11) 0.53657(16)
H50A H 0.2970 0.8379 0.5403
C87A C 0.2727(9) 0.7511(13) 0.54085(16)
H51A H 0.2473 0.7411 0.5477
C88A C 0.2805(8) 0.7086(11) 0.53501(15)
H52A H 0.2597 0.6692 0.5380
Fe1B Fe -0.08389(12) 0.64221(9) 0.38000(2)
N1B N -0.1615(6) 0.5866(4) 0.38707(9)
N2B N -0.0729(6) 0.5732(4) 0.38229(9)
N3B N 0.3077(6) 0.2991(4) 0.37116(9)
N4B N 0.3804(6) 0.2700(4) 0.36346(9)
N5B N -0.0146(7) 0.4195(5) 0.35430(11)
N6B N -0.0549(7) 0.2914(5) 0.38188(12)
N7B N 0.0944(7) 0.3852(5) 0.34174(10)
N8B N 0.0496(6) 0.2548(4) 0.36980(11)
C1B C -0.2069(6) 0.5950(5) 0.38976(12)
H1B H -0.2030 0.6324 0.3879
C2B C -0.2588(8) 0.5527(6) 0.39503(13)
H2B H -0.2889 0.5617 0.3970
C3B C -0.2672(8) 0.4966(6) 0.39743(14)
H3B H -0.3031 0.4661 0.4007
C4B C -0.2207(7) 0.4874(5) 0.39477(13)
H4B H -0.2239 0.4502 0.3964
C5B C -0.1692(6) 0.5328(4) 0.38972(10)
C6B C -0.1175(6) 0.5272(5) 0.38681(11)
H5B H -0.1171 0.4915 0.3882
C7B C -0.0231(6) 0.5675(4) 0.37912(10)
C8B C -0.0087(6) 0.5668(4) 0.36701(10)
H6B H -0.0305 0.5725 0.3608
C9B C 0.0378(6) 0.5577(4) 0.36415(9)
H7B H 0.0474 0.5569 0.3559
C10B C 0.0706(5) 0.5497(4) 0.37301(9)
C11B C 0.0563(6) 0.5522(4) 0.38505(9)
H8B H 0.0789 0.5479 0.3913
C12B C 0.0097(6) 0.5609(4) 0.38818(9)
H9B H 0.0004 0.5623 0.3965
C13B C 0.1183(5) 0.5367(4) 0.36953(8)
C14B C 0.1670(6) 0.5774(4) 0.36274(9)
H10B H 0.1711 0.6147 0.3608
C15B C 0.2091(6) 0.5642(4) 0.35883(10)
H11B H 0.2422 0.5926 0.3543
C16B C 0.2034(6) 0.5096(4) 0.36143(9)
H12B H 0.2318 0.5001 0.3585
C17B C 0.1559(6) 0.4688(4) 0.36831(8)
C18B C 0.1412(6) 0.4063(4) 0.37110(9)
H13B H 0.1726 0.3977 0.3683
C19B C 0.1293(6) 0.3970(4) 0.38452(8)
C20B C 0.1547(6) 0.3728(4) 0.39212(10)
C21B C 0.1405(7) 0.3662(5) 0.40441(10)
H14B H 0.1583 0.3509 0.4097
C22B C 0.1008(7) 0.3815(5) 0.40898(10)
H15B H 0.0912 0.3763 0.4174
C23B C 0.0748(6) 0.4045(4) 0.40133(10)
H16B H 0.0473 0.4148 0.4045
C24B C 0.0890(6) 0.4123(4) 0.38912(9)
C25B C 0.0624(6) 0.4345(4) 0.37968(9)
H17B H 0.0353 0.4475 0.3831
C26B C 0.1135(6) 0.4821(4) 0.37249(8)
C27B C 0.0309(6) 0.3806(4) 0.37045(10)
C28B C 0.0787(6) 0.3642(4) 0.36501(10)
C29B C 0.0042(7) 0.4001(5) 0.36098(11)
C30B C -0.0183(7) 0.3293(5) 0.37659(11)
C31B C 0.0832(7) 0.3723(5) 0.35170(11)
C32B C 0.0614(6) 0.3020(4) 0.36738(11)
C33B C 0.1960(5) 0.3542(4) 0.38703(9)
C34B C 0.2507(6) 0.3946(4) 0.38242(10)
H18B H 0.2631 0.4355 0.3829
C35B C 0.2884(6) 0.3781(4) 0.37714(10)
H19B H 0.3259 0.4070 0.3741
C36B C 0.2699(6) 0.3180(4) 0.37645(9)
C37B C 0.2160(6) 0.2774(4) 0.38122(10)
H20B H 0.2042 0.2366 0.3809
C38B C 0.1784(6) 0.2940(4) 0.38643(10)
H21B H 0.1412 0.2650 0.3896
C39B C 0.3109(6) 0.3001(5) 0.35943(11)
H22B H 0.2885 0.3111 0.3544
C40B C 0.3528(6) 0.2827(5) 0.35463(9)
C41B C 0.3639(9) 0.2825(7) 0.34245(10)
H23B H 0.3437 0.2926 0.3366
C42B C 0.4055(10) 0.2671(8) 0.33893(12)
H24B H 0.4141 0.2661 0.3306
C43B C 0.4339(10) 0.2532(8) 0.34778(14)
H25B H 0.4625 0.2425 0.3456
C44B C 0.4202(9) 0.2552(7) 0.35979(13)
H26B H 0.4400 0.2454 0.3658
N9B N -0.1004(6) 0.7073(4) 0.37943(9)
N10B N -0.0527(6) 0.6751(5) 0.39599(9)
N11B N 0.2607(7) 0.6426(5) 0.50646(9)
N12B N 0.2798(8) 0.5958(6) 0.52537(12)
N13B N 0.0550(13) 0.7859(9) 0.4628(2)
N14B N -0.0655(12) 0.6131(9) 0.44876(15)
N15B N 0.0981(14) 0.7214(11) 0.48666(17)
N16B N -0.0256(13) 0.5474(8) 0.47266(18)
C45B C -0.1292(8) 0.7199(6) 0.37113(10)
H27B H -0.1428 0.6957 0.3641
C46B C -0.1408(8) 0.7659(6) 0.37202(13)
H28B H -0.1598 0.7744 0.3656
C47B C -0.1239(8) 0.7993(6) 0.38257(14)
H29B H -0.1321 0.8306 0.3836
C48B C -0.0948(8) 0.7866(6) 0.39153(12)
H30B H -0.0824 0.8091 0.3988
C49B C -0.0844(6) 0.7401(5) 0.38967(10)
C50B C -0.0563(8) 0.7218(6) 0.39892(11)
H31B H -0.0419 0.7421 0.4064
C51B C -0.0256(6) 0.6568(5) 0.40485(9)
C52B C 0.0352(7) 0.6881(5) 0.40705(10)
H32B H 0.0598 0.7230 0.4026
C53B C 0.0598(6) 0.6688(5) 0.41570(10)
H33B H 0.1011 0.6910 0.4172
C54B C 0.0250(6) 0.6172(5) 0.42227(9)
C55B C -0.0355(6) 0.5855(5) 0.41988(10)
H34B H -0.0599 0.5497 0.4241
C56B C -0.0606(7) 0.6053(5) 0.41142(10)
H35B H -0.1021 0.5836 0.4101
C57B C 0.0491(6) 0.5967(5) 0.43225(9)
C58B C 0.0434(7) 0.5406(5) 0.43143(11)
H36B H 0.0264 0.5176 0.4243
C59B C 0.0620(7) 0.5177(5) 0.44074(12)
H37B H 0.0591 0.4801 0.4399
C60B C 0.0848(7) 0.5505(5) 0.45117(11)
H38B H 0.0966 0.5348 0.4576
C61B C 0.0906(7) 0.6062(5) 0.45233(10)
C62B C 0.1122(8) 0.6452(5) 0.46327(12)
H39B H 0.1262 0.6287 0.4698
C63B C 0.1597(7) 0.7063(5) 0.45913(11)
C64B C 0.2160(7) 0.7396(5) 0.46452(9)
C65B C 0.2553(8) 0.7957(6) 0.45996(12)
H40B H 0.2929 0.8187 0.4637
C66B C 0.2403(8) 0.8180(6) 0.45020(12)
H41B H 0.2681 0.8555 0.4470
C67B C 0.1848(8) 0.7860(6) 0.44500(11)
H42B H 0.1746 0.8021 0.4383
C68B C 0.1440(7) 0.7304(5) 0.44946(11)
C69B C 0.0825(7) 0.6914(5) 0.44495(13)
H43B H 0.0726 0.7080 0.4377
C70B C 0.0738(7) 0.6301(5) 0.44274(10)
C71B C 0.0419(9) 0.6834(7) 0.45652(14)
C72B C 0.0597(10) 0.6540(7) 0.46743(13)
C73B C 0.0477(11) 0.7412(7) 0.45957(18)
C74B C -0.0199(11) 0.6449(8) 0.45262(17)
C75B C 0.0775(11) 0.6915(8) 0.47843(17)
C76B C 0.0103(11) 0.5957(7) 0.47121(18)
C77B C 0.2329(7) 0.7170(5) 0.47530(9)
C78B C 0.2351(7) 0.6649(5) 0.47453(10)
H44B H 0.2297 0.6460 0.4669
C79B C 0.2448(7) 0.6402(5) 0.48474(11)
H45B H 0.2462 0.6046 0.4842
C80B C 0.2528(7) 0.6683(5) 0.49583(10)
C81B C 0.2513(8) 0.7203(5) 0.49673(10)
H46B H 0.2571 0.7393 0.5044
C82B C 0.2416(7) 0.7446(5) 0.48651(11)
H47B H 0.2409 0.7805 0.4871
C83B C 0.2145(8) 0.5957(6) 0.51062(12)
H48B H 0.1769 0.5798 0.5068
C84B C 0.2233(8) 0.5684(6) 0.52144(11)
C85B C 0.1778(11) 0.5181(7) 0.52682(15)
H49B H 0.1384 0.5006 0.5239
C86B C 0.1919(11) 0.4943(7) 0.53657(16)
H50B H 0.1621 0.4591 0.5403
C87B C 0.2489(13) 0.5216(9) 0.54085(16)
H51B H 0.2589 0.5062 0.5477
C88B C 0.2914(11) 0.5719(8) 0.53501(15)
H52B H 0.3308 0.5905 0.5380
loop_
_geom_bond_atom_site_label_1
_geom_bond_atom_site_label_2
_geom_bond_site_symmetry_1
_geom_bond_site_symmetry_2
Fe1 N1 1_555 1_555
Fe2 N11 1_555 1_555
N1 C1 1_555 1_555
N2 Fe1 1_555 1_555
N3 C36 1_555 1_555
N4 C40 1_555 1_555
N5 C29 1_555 1_555
N6 C30 1_555 1_555
N7 C31 1_555 1_555
N8 C32 1_555 1_555
C1 H1 1_555 1_555
C2 C1 1_555 1_555
H2 C2 1_555 1_555
C3 C2 1_555 1_555
H3 C3 1_555 1_555
C4 C3 1_555 1_555
H4 C4 1_555 1_555
C5 N1 1_555 1_555
C6 N2 1_555 1_555
H5 C6 1_555 1_555
C7 N2 1_555 1_555
C8 C7 1_555 1_555
H6 C8 1_555 1_555
C9 C8 1_555 1_555
H7 C9 1_555 1_555
C10 C9 1_555 1_555
C11 C10 1_555 1_555
H8 C11 1_555 1_555
C12 C7 1_555 1_555
H9 C12 1_555 1_555
C13 C10 1_555 1_555
C14 C13 1_555 1_555
H10 C14 1_555 1_555
C15 C14 1_555 1_555
H11 C15 1_555 1_555
C16 C15 1_555 1_555
H12 C16 1_555 1_555
C17 C16 1_555 1_555
C18 C17 1_555 1_555
H13 C18 1_555 1_555
C19 C18 1_555 1_555
C20 C19 1_555 1_555
C21 C20 1_555 1_555
H14 C21 1_555 1_555
C22 C21 1_555 1_555
H15 C22 1_555 1_555
C23 C22 1_555 1_555
H16 C23 1_555 1_555
C24 C19 1_555 1_555
C25 C24 1_555 1_555
H17 C25 1_555 1_555
C26 C13 1_555 1_555
C27 C25 1_555 1_555
C28 C18 1_555 1_555
C29 C27 1_555 1_555
C30 C27 1_555 1_555
C31 C28 1_555 1_555
C32 C28 1_555 1_555
C33 C20 1_555 1_555
C34 C33 1_555 1_555
H18 C34 1_555 1_555
C35 C34 1_555 1_555
H19 C35 1_555 1_555
C36 C35 1_555 1_555
C37 C36 1_555 1_555
H20 C37 1_555 1_555
C38 C33 1_555 1_555
H21 C38 1_555 1_555
C39 N3 1_555 1_555
H22 C39 1_555 1_555
C40 C39 1_555 1_555
C41 C40 1_555 1_555
H23 C41 1_555 1_555
C42 C41 1_555 1_555
H24 C42 1_555 1_555
C43 C42 1_555 1_555
H25 C43 1_555 1_555
C44 N4 1_555 1_555
H26 C44 1_555 1_555
N9 Fe1 1_555 1_555
N10 Fe1 1_555 1_555
N11 C80 1_555 1_555
N12 Fe2 1_555 1_555
N13 C73 1_555 1_555
N14 C74 1_555 1_555
N15 C75 1_555 1_555
N16 C76 1_555 1_555
C45 N9 1_555 1_555
H27 C45 1_555 1_555
C46 C45 1_555 1_555
H28 C46 1_555 1_555
C47 C46 1_555 1_555
H29 C47 1_555 1_555
C48 C47 1_555 1_555
H30 C48 1_555 1_555
C49 N9 1_555 1_555
C50 N10 1_555 1_555
H31 C50 1_555 1_555
C51 N10 1_555 1_555
C52 C51 1_555 1_555
H32 C52 1_555 1_555
C53 C52 1_555 1_555
H33 C53 1_555 1_555
C54 C53 1_555 1_555
C55 C54 1_555 1_555
H34 C55 1_555 1_555
C56 C51 1_555 1_555
H35 C56 1_555 1_555
C57 C54 1_555 1_555
C58 C57 1_555 1_555
H36 C58 1_555 1_555
C59 C58 1_555 1_555
H37 C59 1_555 1_555
C60 C59 1_555 1_555
H38 C60 1_555 1_555
C61 C60 1_555 1_555
C62 C61 1_555 1_555
H39 C62 1_555 1_555
C63 C62 1_555 1_555
C64 C63 1_555 1_555
C65 C64 1_555 1_555
H40 C65 1_555 1_555
C66 C65 1_555 1_555
H41 C66 1_555 1_555
C67 C66 1_555 1_555
H42 C67 1_555 1_555
C68 C63 1_555 1_555
C69 C68 1_555 1_555
H43 C69 1_555 1_555
C70 C57 1_555 1_555
C71 C69 1_555 1_555
C72 C62 1_555 1_555
C73 C71 1_555 1_555
C74 C71 1_555 1_555
C75 C72 1_555 1_555
C76 C72 1_555 1_555
C77 C64 1_555 1_555
C78 C77 1_555 1_555
H44 C78 1_555 1_555
C79 C78 1_555 1_555
H45 C79 1_555 1_555
C80 C79 1_555 1_555
C81 C80 1_555 1_555
H46 C81 1_555 1_555
C82 C77 1_555 1_555
H47 C82 1_555 1_555
C83 N11 1_555 1_555
H48 C83 1_555 1_555
C84 N12 1_555 1_555
C85 C84 1_555 1_555
H49 C85 1_555 1_555
C86 C85 1_555 1_555
H50 C86 1_555 1_555
C87 C86 1_555 1_555
H51 C87 1_555 1_555
C88 N12 1_555 1_555
H52 C88 1_555 1_555
Cl1 O1 1_555 1_555
O2 Cl1 1_555 1_555
O3 Cl1 1_555 1_555
O4 Cl1 1_555 1_555
Cl2 O5 1_555 1_555
O6 Cl2 1_555 1_555
O7 Cl2 1_555 1_555
O8 Cl2 1_555 1_555
Cl3 O9 1_555 1_555
O10 Cl3 1_555 1_555
O11 Cl3 1_555 1_555
O12 Cl3 1_555 1_555
N17 C89 1_555 1_555
C89 C90 1_555 1_555
C90 H53 1_555 1_555
H54 C90 1_555 1_555
H55 C90 1_555 1_555
Fe1A N3 1_555 1_555
N1A Fe1A 1_555 1_555
N2A Fe1A 1_555 1_555
N3A C36A 1_555 1_555
N4A C40A 1_555 1_555
N5A C29A 1_555 1_555
N6A C30A 1_555 1_555
N7A C31A 1_555 1_555
N8A C32A 1_555 1_555
C1A N1A 1_555 1_555
H1A C1A 1_555 1_555
C2A C1A 1_555 1_555
H2A C2A 1_555 1_555
C3A C2A 1_555 1_555
H3A C3A 1_555 1_555
C4A C3A 1_555 1_555
H4A C4A 1_555 1_555
C5A N1A 1_555 1_555
C6A N2A 1_555 1_555
H5A C6A 1_555 1_555
C7A N2A 1_555 1_555
C8A C7A 1_555 1_555
H6A C8A 1_555 1_555
C9A C8A 1_555 1_555
H7A C9A 1_555 1_555
C10A C9A 1_555 1_555
C11A C10A 1_555 1_555
H8A C11A 1_555 1_555
C12A C7A 1_555 1_555
H9A C12A 1_555 1_555
C13A C10A 1_555 1_555
C14A C13A 1_555 1_555
H10A C14A 1_555 1_555
C15A C14A 1_555 1_555
H11A C15A 1_555 1_555
C16A C15A 1_555 1_555
H12A C16A 1_555 1_555
C17A C16A 1_555 1_555
C18A C17A 1_555 1_555
H13A C18A 1_555 1_555
C19A C18A 1_555 1_555
C20A C19A 1_555 1_555
C21A C20A 1_555 1_555
H14A C21A 1_555 1_555
C22A C21A 1_555 1_555
H15A C22A 1_555 1_555
C23A C22A 1_555 1_555
H16A C23A 1_555 1_555
C24A C19A 1_555 1_555
C25A C24A 1_555 1_555
H17A C25A 1_555 1_555
C26A C13A 1_555 1_555
C27A C25A 1_555 1_555
C28A C18A 1_555 1_555
C29A C27A 1_555 1_555
C30A C27A 1_555 1_555
C31A C28A 1_555 1_555
C32A C28A 1_555 1_555
C33A C20A 1_555 1_555
C34A C33A 1_555 1_555
H18A C34A 1_555 1_555
C35A C34A 1_555 1_555
H19A C35A 1_555 1_555
C36A C35A 1_555 1_555
C37A C36A 1_555 1_555
H20A C37A 1_555 1_555
C38A C33A 1_555 1_555
H21A C38A 1_555 1_555
C39A N3A 1_555 1_555
H22A C39A 1_555 1_555
C40A C39A 1_555 1_555
C41A C40A 1_555 1_555
H23A C41A 1_555 1_555
C42A C41A 1_555 1_555
H24A C42A 1_555 1_555
C43A C42A 1_555 1_555
H25A C43A 1_555 1_555
C44A N4A 1_555 1_555
H26A C44A 1_555 1_555
N9A Fe1A 1_555 1_555
N10A Fe1A 1_555 1_555
N11A Fe2 1_555 1_555
N12A Fe2 1_555 1_555
N13A C73A 1_555 1_555
N14A C74A 1_555 1_555
N15A C75A 1_555 1_555
N16A C76A 1_555 1_555
C45A N9A 1_555 1_555
H27A C45A 1_555 1_555
C46A C45A 1_555 1_555
H28A C46A 1_555 1_555
C47A C46A 1_555 1_555
H29A C47A 1_555 1_555
C48A C47A 1_555 1_555
H30A C48A 1_555 1_555
C49A N9A 1_555 1_555
C50A N10A 1_555 1_555
H31A C50A 1_555 1_555
C51A N10A 1_555 1_555
C52A C51A 1_555 1_555
H32A C52A 1_555 1_555
C53A C52A 1_555 1_555
H33A C53A 1_555 1_555
C54A C53A 1_555 1_555
C55A C54A 1_555 1_555
H34A C55A 1_555 1_555
C56A C51A 1_555 1_555
H35A C56A 1_555 1_555
C57A C54A 1_555 1_555
C58A C57A 1_555 1_555
H36A C58A 1_555 1_555
C59A C58A 1_555 1_555
H37A C59A 1_555 1_555
C60A C59A 1_555 1_555
H38A C60A 1_555 1_555
C61A C60A 1_555 1_555
C62A C61A 1_555 1_555
H39A C62A 1_555 1_555
C63A C62A 1_555 1_555
C64A C63A 1_555 1_555
C65A C64A 1_555 1_555
H40A C65A 1_555 1_555
C66A C65A 1_555 1_555
H41A C66A 1_555 1_555
C67A C66A 1_555 1_555
H42A C67A 1_555 1_555
C68A C63A 1_555 1_555
C69A C68A 1_555 1_555
H43A C69A 1_555 1_555
C70A C57A 1_555 1_555
C71A C69A 1_555 1_555
C72A C62A 1_555 1_555
C73A C71A 1_555 1_555
C74A C71A 1_555 1_555
C75A C72A 1_555 1_555
C76A C72A 1_555 1_555
C77A C64A 1_555 1_555
C78A C77A 1_555 1_555
H44A C78A 1_555 1_555
C79A C78A 1_555 1_555
H45A C79A 1_555 1_555
C80A N11A 1_555 1_555
C81A C80A 1_555 1_555
H46A C81A 1_555 1_555
C82A C77A 1_555 1_555
H47A C82A 1_555 1_555
C83A N11A 1_555 1_555
H48A C83A 1_555 1_555
C84A N12A 1_555 1_555
C85A C84A 1_555 1_555
H49A C85A 1_555 1_555
C86A C85A 1_555 1_555
H50A C86A 1_555 1_555
C87A C86A 1_555 1_555
H51A C87A 1_555 1_555
C88A N12A 1_555 1_555
H52A C88A 1_555 1_555
Fe1B N3A 1_555 1_555
N1B Fe1B 1_555 1_555
N2B Fe1B 1_555 1_555
N3B Fe1 1_555 1_555
N4B Fe1 1_555 1_555
N5B C29B 1_555 1_555
N6B C30B 1_555 1_555
N7B C31B 1_555 1_555
N8B C32B 1_555 1_555
C1B N1B 1_555 1_555
H1B C1B 1_555 1_555
C2B C1B 1_555 1_555
H2B C2B 1_555 1_555
C3B C2B 1_555 1_555
H3B C3B 1_555 1_555
C4B C3B 1_555 1_555
H4B C4B 1_555 1_555
C5B N1B 1_555 1_555
C6B N2B 1_555 1_555
H5B C6B 1_555 1_555
C7B N2B 1_555 1_555
C8B C7B 1_555 1_555
H6B C8B 1_555 1_555
C9B C8B 1_555 1_555
H7B C9B 1_555 1_555
C10B C9B 1_555 1_555
C11B C10B 1_555 1_555
H8B C11B 1_555 1_555
C12B C7B 1_555 1_555
H9B C12B 1_555 1_555
C13B C10B 1_555 1_555
C14B C13B 1_555 1_555
H10B C14B 1_555 1_555
C15B C14B 1_555 1_555
H11B C15B 1_555 1_555
C16B C15B 1_555 1_555
H12B C16B 1_555 1_555
C17B C16B 1_555 1_555
C18B C17B 1_555 1_555
H13B C18B 1_555 1_555
C19B C18B 1_555 1_555
C20B C19B 1_555 1_555
C21B C20B 1_555 1_555
H14B C21B 1_555 1_555
C22B C21B 1_555 1_555
H15B C22B 1_555 1_555
C23B C22B 1_555 1_555
H16B C23B 1_555 1_555
C24B C19B 1_555 1_555
C25B C24B 1_555 1_555
H17B C25B 1_555 1_555
C26B C13B 1_555 1_555
C27B C25B 1_555 1_555
C28B C18B 1_555 1_555
C29B C27B 1_555 1_555
C30B C27B 1_555 1_555
C31B C28B 1_555 1_555
C32B C28B 1_555 1_555
C33B C20B 1_555 1_555
C34B C33B 1_555 1_555
H18B C34B 1_555 1_555
C35B C34B 1_555 1_555
H19B C35B 1_555 1_555
C36B N3B 1_555 1_555
C37B C36B 1_555 1_555
H20B C37B 1_555 1_555
C38B C33B 1_555 1_555
H21B C38B 1_555 1_555
C39B N3B 1_555 1_555
H22B C39B 1_555 1_555
C40B N4B 1_555 1_555
C41B C40B 1_555 1_555
H23B C41B 1_555 1_555
C42B C41B 1_555 1_555
H24B C42B 1_555 1_555
C43B C42B 1_555 1_555
H25B C43B 1_555 1_555
C44B N4B 1_555 1_555
H26B C44B 1_555 1_555
N9B Fe1B 1_555 1_555
N10B Fe1B 1_555 1_555
N11B Fe2 1_555 1_555
N12B Fe2 1_555 1_555
N13B C73B 1_555 1_555
N14B C74B 1_555 1_555
N15B C75B 1_555 1_555
N16B C76B 1_555 1_555
C45B N9B 1_555 1_555
H27B C45B 1_555 1_555
C46B C45B 1_555 1_555
H28B C46B 1_555 1_555
C47B C46B 1_555 1_555
H29B C47B 1_555 1_555
C48B C47B 1_555 1_555
H30B C48B 1_555 1_555
C49B N9B 1_555 1_555
C50B N10B 1_555 1_555
H31B C50B 1_555 1_555
C51B N10B 1_555 1_555
C52B C51B 1_555 1_555
H32B C52B 1_555 1_555
C53B C52B 1_555 1_555
H33B C53B 1_555 1_555
C54B C53B 1_555 1_555
C55B C54B 1_555 1_555
H34B C55B 1_555 1_555
C56B C51B 1_555 1_555
H35B C56B 1_555 1_555
C57B C54B 1_555 1_555
C58B C57B 1_555 1_555
H36B C58B 1_555 1_555
C59B C58B 1_555 1_555
H37B C59B 1_555 1_555
C60B C59B 1_555 1_555
H38B C60B 1_555 1_555
C61B C60B 1_555 1_555
C62B C61B 1_555 1_555
H39B C62B 1_555 1_555
C63B C62B 1_555 1_555
C64B C63B 1_555 1_555
C65B C64B 1_555 1_555
H40B C65B 1_555 1_555
C66B C65B 1_555 1_555
H41B C66B 1_555 1_555
C67B C66B 1_555 1_555
H42B C67B 1_555 1_555
C68B C63B 1_555 1_555
C69B C68B 1_555 1_555
H43B C69B 1_555 1_555
C70B C57B 1_555 1_555
C71B C69B 1_555 1_555
C72B C62B 1_555 1_555
C73B C71B 1_555 1_555
C74B C71B 1_555 1_555
C75B C72B 1_555 1_555
C76B C72B 1_555 1_555
C77B C64B 1_555 1_555
C78B C77B 1_555 1_555
H44B C78B 1_555 1_555
C79B C78B 1_555 1_555
H45B C79B 1_555 1_555
C80B N11B 1_555 1_555
C81B C80B 1_555 1_555
H46B C81B 1_555 1_555
C82B C77B 1_555 1_555
H47B C82B 1_555 1_555
C83B N11B 1_555 1_555
H48B C83B 1_555 1_555
C84B N12B 1_555 1_555
C85B C84B 1_555 1_555
H49B C85B 1_555 1_555
C86B C85B 1_555 1_555
H50B C86B 1_555 1_555
C87B C86B 1_555 1_555
H51B C87B 1_555 1_555
C88B N12B 1_555 1_555
H52B C88B 1_555 1_555
N4 Fe1A 1_555 1_555
C4 C5 1_555 1_555
C5 C6 1_555 1_555
C11 C12 1_555 1_555
C17 C26 1_555 1_555
C23 C24 1_555 1_555
C25 C26 1_555 1_555
C27 C28 1_555 1_555
C37 C38 1_555 1_555
C43 C44 1_555 1_555
C48 C49 1_555 1_555
C49 C50 1_555 1_555
C55 C56 1_555 1_555
C61 C70 1_555 1_555
C67 C68 1_555 1_555
C69 C70 1_555 1_555
C71 C72 1_555 1_555
C81 C82 1_555 1_555
C83 C84 1_555 1_555
C87 C88 1_555 1_555
N4A Fe1B 1_555 1_555
C4A C5A 1_555 1_555
C5A C6A 1_555 1_555
C11A C12A 1_555 1_555
C17A C26A 1_555 1_555
C23A C24A 1_555 1_555
C25A C26A 1_555 1_555
C27A C28A 1_555 1_555
C37A C38A 1_555 1_555
C43A C44A 1_555 1_555
C48A C49A 1_555 1_555
C49A C50A 1_555 1_555
C55A C56A 1_555 1_555
C61A C70A 1_555 1_555
C67A C68A 1_555 1_555
C69A C70A 1_555 1_555
C71A C72A 1_555 1_555
C79A C80A 1_555 1_555
C81A C82A 1_555 1_555
C83A C84A 1_555 1_555
C87A C88A 1_555 1_555
C4B C5B 1_555 1_555
C5B C6B 1_555 1_555
C11B C12B 1_555 1_555
C17B C26B 1_555 1_555
C23B C24B 1_555 1_555
C25B C26B 1_555 1_555
C27B C28B 1_555 1_555
C35B C36B 1_555 1_555
C37B C38B 1_555 1_555
C39B C40B 1_555 1_555
C43B C44B 1_555 1_555
C48B C49B 1_555 1_555
C49B C50B 1_555 1_555
C55B C56B 1_555 1_555
C61B C70B 1_555 1_555
C67B C68B 1_555 1_555
C69B C70B 1_555 1_555
C71B C72B 1_555 1_555
C79B C80B 1_555 1_555
C81B C82B 1_555 1_555
C83B C84B 1_555 1_555
C87B C88B 1_555 1_555

#END
