# generated using pymatgen
data_Fe8Sb15H384C640(N28F57)2
_symmetry_space_group_name_H-M   'P 1'
_cell_length_a   21.88740000
_cell_length_b   27.42610000
_cell_length_c   30.80880000
_cell_angle_alpha   64.66600000
_cell_angle_beta   87.26900000
_cell_angle_gamma   79.93700000
_symmetry_Int_Tables_number   1
_chemical_formula_structural   Fe8Sb15H384C640(N28F57)2
_chemical_formula_sum   'Fe8 Sb15 H384 C640 N56 F114'
_cell_volume   16450.70148516
_cell_formula_units_Z   1
loop_
 _symmetry_equiv_pos_site_id
 _symmetry_equiv_pos_as_xyz
  1  'x, y, z'
loop_
 _atom_site_type_symbol
 _atom_site_label
 _atom_site_symmetry_multiplicity
 _atom_site_fract_x
 _atom_site_fract_y
 _atom_site_fract_z
 _atom_site_occupancy
  Fe  Fe1  1  0.801140  0.253140  0.013920  1
  Fe  Fe2  1  0.198860  0.746860  0.986080  1
  Fe  Fe3  1  0.169070  0.262290  0.363450  1
  Fe  Fe4  1  0.830930  0.737710  0.636550  1
  Fe  Fe5  1  0.560780  0.811590  0.142200  1
  Fe  Fe6  1  0.439220  0.188410  0.857800  1
  Fe  Fe7  1  0.907890  0.179150  0.618910  1
  Fe  Fe8  1  0.092110  0.820850  0.381090  1
  Sb  Sb9  1  0.925100  0.084380  0.240170  1
  Sb  Sb10  1  0.074900  0.915620  0.759830  1
  Sb  Sb11  1  0.259800  0.758250  0.225390  1
  Sb  Sb12  1  0.740200  0.241750  0.774610  1
  Sb  Sb13  1  0.539320  0.059160  0.058730  1
  Sb  Sb14  1  0.460680  0.940840  0.941270  1
  Sb  Sb15  1  0.692970  0.949580  0.327400  1
  Sb  Sb16  1  0.307030  0.050420  0.672600  1
  Sb  Sb17  1  0.000000  0.000000  0.500000  1
  Sb  Sb18  1  0.605440  0.095390  0.721910  1
  Sb  Sb19  1  0.394560  0.904610  0.278090  1
  Sb  Sb20  1  0.235900  0.763700  0.208000  1
  Sb  Sb21  1  0.764100  0.236300  0.792000  1
  Sb  Sb22  1  0.569100  0.061400  0.054600  1
  Sb  Sb23  1  0.430900  0.938600  0.945400  1
  H  H24  1  0.925200  0.244500  0.960000  1
  H  H25  1  0.074800  0.755500  0.040000  1
  H  H26  1  0.016400  0.184000  0.978500  1
  H  H27  1  0.983600  0.816000  0.021500  1
  H  H28  1  0.031900  0.106800  0.051700  1
  H  H29  1  0.968100  0.893200  0.948300  1
  H  H30  1  0.950500  0.091000  0.107100  1
  H  H31  1  0.049500  0.909000  0.892900  1
  H  H32  1  0.837700  0.125800  0.125700  1
  H  H33  1  0.162300  0.874200  0.874300  1
  H  H34  1  0.713900  0.134300  0.095500  1
  H  H35  1  0.286100  0.865700  0.904500  1
  H  H36  1  0.628200  0.122900  0.143000  1
  H  H37  1  0.371800  0.877100  0.857000  1
  H  H38  1  0.660400  0.241800  0.177100  1
  H  H39  1  0.339600  0.758200  0.822900  1
  H  H40  1  0.748000  0.250700  0.131500  1
  H  H41  1  0.252000  0.749300  0.868500  1
  H  H42  1  0.619300  0.099300  0.244900  1
  H  H43  1  0.380700  0.900700  0.755100  1
  H  H44  1  0.538500  0.082600  0.297900  1
  H  H45  1  0.461500  0.917400  0.702100  1
  H  H46  1  0.455800  0.150700  0.288700  1
  H  H47  1  0.544200  0.849300  0.711300  1
  H  H48  1  0.394000  0.238600  0.236500  1
  H  H49  1  0.606000  0.761400  0.763500  1
  H  H50  1  0.333333  0.417200  0.119800  1
  H  H51  1  0.666667  0.582800  0.880200  1
  H  H52  1  0.407600  0.428000  0.061100  1
  H  H53  1  0.592400  0.572000  0.938900  1
  H  H54  1  0.488900  0.359200  0.070000  1
  H  H55  1  0.511100  0.640800  0.930000  1
  H  H56  1  0.549400  0.268900  0.122900  1
  H  H57  1  0.450600  0.731100  0.877100  1
  H  H58  1  0.283200  0.274500  0.196100  1
  H  H59  1  0.716800  0.725500  0.803900  1
  H  H60  1  0.205700  0.269500  0.249300  1
  H  H61  1  0.794300  0.730500  0.750700  1
  H  H62  1  0.257000  0.392300  0.269600  1
  H  H63  1  0.743000  0.607700  0.730400  1
  H  H64  1  0.338400  0.394200  0.217400  1
  H  H65  1  0.661600  0.605800  0.782600  1
  H  H66  1  0.138400  0.402500  0.265500  1
  H  H67  1  0.861600  0.597500  0.734500  1
  H  H68  1  0.044400  0.444100  0.302000  1
  H  H69  1  0.955600  0.555900  0.698000  1
  H  H70  1  0.972600  0.428200  0.363300  1
  H  H71  1  0.027400  0.571800  0.636700  1
  H  H72  1  0.986400  0.344600  0.429400  1
  H  H73  1  0.013600  0.655400  0.570600  1
  H  H74  1  0.061400  0.273300  0.430400  1
  H  H75  1  0.938600  0.726700  0.569600  1
  H  H76  1  0.829000  0.152500  0.989000  1
  H  H77  1  0.171000  0.847500  0.011000  1
  H  H78  1  0.769500  0.104900  0.967100  1
  H  H79  1  0.230500  0.895100  0.032900  1
  H  H80  1  0.661200  0.128600  0.962300  1
  H  H81  1  0.338800  0.871400  0.037700  1
  H  H82  1  0.614300  0.204200  0.976900  1
  H  H83  1  0.385700  0.795800  0.023100  1
  H  H84  1  0.629200  0.284100  0.997400  1
  H  H85  1  0.370800  0.715900  0.002600  1
  H  H86  1  0.743900  0.390000  0.967800  1
  H  H87  1  0.256100  0.610000  0.032200  1
  H  H88  1  0.704700  0.468000  0.977900  1
  H  H89  1  0.295300  0.532000  0.022100  1
  H  H90  1  0.593600  0.381900  0.080800  1
  H  H91  1  0.406400  0.618100  0.919200  1
  H  H92  1  0.631500  0.305900  0.067000  1
  H  H93  1  0.368500  0.694100  0.933000  1
  H  H94  1  0.529700  0.471700  0.035200  1
  H  H95  1  0.470300  0.528300  0.964800  1
  H  H96  1  0.479000  0.552400  0.039700  1
  H  H97  1  0.521000  0.447600  0.960300  1
  H  H98  1  0.537200  0.609500  0.048900  1
  H  H99  1  0.462800  0.390500  0.951100  1
  H  H100  1  0.635300  0.624000  0.070500  1
  H  H101  1  0.364700  0.376000  0.929500  1
  H  H102  1  0.842900  0.611000  0.107700  1
  H  H103  1  0.157100  0.389000  0.892300  1
  H  H104  1  0.895000  0.544300  0.084000  1
  H  H105  1  0.105000  0.455700  0.916000  1
  H  H106  1  0.840600  0.495400  0.060000  1
  H  H107  1  0.159400  0.504600  0.940000  1
  H  H108  1  0.740300  0.474100  0.047000  1
  H  H109  1  0.259700  0.525900  0.953000  1
  H  H110  1  0.768300  0.709300  0.066500  1
  H  H111  1  0.231700  0.290700  0.933500  1
  H  H112  1  0.721900  0.771700  0.093900  1
  H  H113  1  0.278100  0.228300  0.906100  1
  H  H114  1  0.627300  0.660300  0.189500  1
  H  H115  1  0.372700  0.339700  0.810500  1
  H  H116  1  0.675400  0.597100  0.161700  1
  H  H117  1  0.324600  0.402900  0.838300  1
  H  H118  1  0.722700  0.758800  0.192200  1
  H  H119  1  0.277300  0.241200  0.807800  1
  H  H120  1  0.730600  0.822200  0.235500  1
  H  H121  1  0.269400  0.177800  0.764500  1
  H  H122  1  0.676900  0.892400  0.254200  1
  H  H123  1  0.323100  0.107600  0.745800  1
  H  H124  1  0.576600  0.929900  0.227500  1
  H  H125  1  0.423400  0.070100  0.772500  1
  H  H126  1  0.527300  0.904100  0.177000  1
  H  H127  1  0.472700  0.095900  0.823000  1
  H  H128  1  0.107400  0.158100  0.416200  1
  H  H129  1  0.892600  0.841900  0.583800  1
  H  H130  1  0.114500  0.089200  0.492600  1
  H  H131  1  0.885500  0.910800  0.507400  1
  H  H132  1  0.172600  0.092100  0.552200  1
  H  H133  1  0.827400  0.907900  0.447800  1
  H  H134  1  0.224000  0.168500  0.533100  1
  H  H135  1  0.776000  0.831500  0.466900  1
  H  H136  1  0.244300  0.261800  0.468600  1
  H  H137  1  0.755700  0.738200  0.531400  1
  H  H138  1  0.163300  0.377900  0.398400  1
  H  H139  1  0.836700  0.622100  0.601600  1
  H  H140  1  0.200400  0.458100  0.379400  1
  H  H141  1  0.799600  0.541900  0.620600  1
  H  H142  1  0.358500  0.394600  0.337800  1
  H  H143  1  0.641500  0.605400  0.662200  1
  H  H144  1  0.326100  0.310400  0.366700  1
  H  H145  1  0.673900  0.689600  0.633300  1
  H  H146  1  0.304300  0.484700  0.407800  1
  H  H147  1  0.695700  0.515300  0.592200  1
  H  H148  1  0.348900  0.563000  0.390500  1
  H  H149  1  0.651100  0.437000  0.609500  1
  H  H150  1  0.377400  0.613500  0.313700  1
  H  H151  1  0.622600  0.386500  0.686300  1
  H  H152  1  0.388900  0.627500  0.230100  1
  H  H153  1  0.611100  0.372500  0.769900  1
  H  H154  1  0.396700  0.606800  0.086600  1
  H  H155  1  0.603300  0.393200  0.913400  1
  H  H156  1  0.338100  0.537300  0.102100  1
  H  H157  1  0.661900  0.462700  0.897900  1
  H  H158  1  0.297400  0.494300  0.176100  1
  H  H159  1  0.702600  0.505700  0.823900  1
  H  H160  1  0.289900  0.478600  0.260300  1
  H  H161  1  0.710100  0.521400  0.739700  1
  H  H162  1  0.356700  0.712900  0.144800  1
  H  H163  1  0.643300  0.287100  0.855200  1
  H  H164  1  0.416500  0.779500  0.124200  1
  H  H165  1  0.583500  0.220500  0.875800  1
  H  H166  1  0.561200  0.680000  0.103800  1
  H  H167  1  0.438800  0.320000  0.896200  1
  H  H168  1  0.501200  0.611300  0.126900  1
  H  H169  1  0.498800  0.388700  0.873100  1
  H  H170  1  0.551100  0.779600  0.037500  1
  H  H171  1  0.448900  0.220400  0.962500  1
  H  H172  1  0.620500  0.846300  0.978800  1
  H  H173  1  0.379500  0.153700  0.021200  1
  H  H174  1  0.682600  0.912000  0.966800  1
  H  H175  1  0.317400  0.088000  0.033200  1
  H  H176  1  0.688400  0.943200  0.024500  1
  H  H177  1  0.311600  0.056800  0.975500  1
  H  H178  1  0.638000  0.906100  0.097100  1
  H  H179  1  0.362000  0.093900  0.902900  1
  H  H180  1  0.043900  0.163300  0.655000  1
  H  H181  1  0.956100  0.836700  0.345000  1
  H  H182  1  0.134100  0.103800  0.660400  1
  H  H183  1  0.865900  0.896200  0.339600  1
  H  H184  1  0.135600  0.034000  0.638100  1
  H  H185  1  0.864400  0.966000  0.361900  1
  H  H186  1  0.044700  0.027700  0.604900  1
  H  H187  1  0.955300  0.972300  0.395100  1
  H  H188  1  0.927400  0.069000  0.578900  1
  H  H189  1  0.072600  0.931000  0.421100  1
  H  H190  1  0.792300  0.090000  0.633700  1
  H  H191  1  0.207700  0.910000  0.366300  1
  H  H192  1  0.691800  0.107400  0.604700  1
  H  H193  1  0.308200  0.892600  0.395300  1
  H  H194  1  0.745700  0.197000  0.470600  1
  H  H195  1  0.254300  0.803000  0.529400  1
  H  H196  1  0.847300  0.174700  0.500000  1
  H  H197  1  0.152700  0.825300  0.500000  1
  H  H198  1  0.622700  0.186100  0.586200  1
  H  H199  1  0.377300  0.813900  0.413800  1
  H  H200  1  0.516600  0.219200  0.575200  1
  H  H201  1  0.483400  0.780800  0.424800  1
  H  H202  1  0.466200  0.233400  0.505100  1
  H  H203  1  0.533800  0.766600  0.494900  1
  H  H204  1  0.471700  0.232800  0.425000  1
  H  H205  1  0.528300  0.767200  0.575000  1
  H  H206  1  0.492600  0.074000  0.395500  1
  H  H207  1  0.507400  0.926000  0.604500  1
  H  H208  1  0.597700  0.041000  0.405700  1
  H  H209  1  0.402300  0.959000  0.594300  1
  H  H210  1  0.664200  0.085400  0.426500  1
  H  H211  1  0.335800  0.914600  0.573500  1
  H  H212  1  0.680600  0.164600  0.442100  1
  H  H213  1  0.319400  0.835400  0.557900  1
  H  H214  1  0.395500  0.098700  0.448500  1
  H  H215  1  0.604500  0.901300  0.551500  1
  H  H216  1  0.291100  0.134100  0.433900  1
  H  H217  1  0.708900  0.865900  0.566100  1
  H  H218  1  0.330600  0.253600  0.312600  1
  H  H219  1  0.669400  0.746400  0.687400  1
  H  H220  1  0.434500  0.224000  0.332900  1
  H  H221  1  0.565500  0.776000  0.667100  1
  H  H222  1  0.245400  0.150900  0.333900  1
  H  H223  1  0.754600  0.849100  0.666100  1
  H  H224  1  0.152200  0.138800  0.292400  1
  H  H225  1  0.847800  0.861200  0.707600  1
  H  H226  1  0.045500  0.165700  0.269200  1
  H  H227  1  0.954500  0.834300  0.730800  1
  H  H228  1  0.988900  0.236900  0.285300  1
  H  H229  1  0.011100  0.763100  0.714700  1
  H  H230  1  0.037300  0.277500  0.323600  1
  H  H231  1  0.962700  0.722500  0.676400  1
  H  H232  1  0.920600  0.187800  0.716100  1
  H  H233  1  0.079400  0.812200  0.283900  1
  H  H234  1  0.944500  0.253500  0.737600  1
  H  H235  1  0.055500  0.746500  0.262400  1
  H  H236  1  0.979400  0.329600  0.681000  1
  H  H237  1  0.020600  0.670400  0.319000  1
  H  H238  1  0.984700  0.342700  0.600500  1
  H  H239  1  0.015300  0.657300  0.399500  1
  H  H240  1  0.967200  0.305600  0.538300  1
  H  H241  1  0.032800  0.694400  0.461700  1
  H  H242  1  0.005000  0.177300  0.522600  1
  H  H243  1  0.995000  0.822700  0.477400  1
  H  H244  1  0.993200  0.173300  0.450200  1
  H  H245  1  0.006800  0.826700  0.549800  1
  H  H246  1  0.849500  0.299600  0.412600  1
  H  H247  1  0.150500  0.700400  0.587400  1
  H  H248  1  0.863300  0.304100  0.484500  1
  H  H249  1  0.136700  0.695900  0.515500  1
  H  H250  1  0.926900  0.136600  0.428400  1
  H  H251  1  0.073100  0.863400  0.571600  1
  H  H252  1  0.906300  0.102400  0.373500  1
  H  H253  1  0.093700  0.897600  0.626500  1
  H  H254  1  0.867600  0.163500  0.296500  1
  H  H255  1  0.132400  0.836500  0.703500  1
  H  H256  1  0.832400  0.258400  0.236600  1
  H  H257  1  0.167600  0.741600  0.763400  1
  H  H258  1  0.958600  0.390300  0.146500  1
  H  H259  1  0.041400  0.609700  0.853500  1
  H  H260  1  0.988600  0.417900  0.202200  1
  H  H261  1  0.011400  0.582100  0.797800  1
  H  H262  1  0.943900  0.391100  0.277300  1
  H  H263  1  0.056100  0.608900  0.722700  1
  H  H264  1  0.874800  0.331700  0.338000  1
  H  H265  1  0.125200  0.668300  0.662000  1
  H  H266  1  0.834200  0.399500  0.113100  1
  H  H267  1  0.165800  0.600500  0.886900  1
  H  H268  1  0.808300  0.385800  0.048100  1
  H  H269  1  0.191700  0.614200  0.951900  1
  H  H270  1  0.891200  0.230200  0.112700  1
  H  H271  1  0.108800  0.769800  0.887300  1
  H  H272  1  0.917400  0.243700  0.178200  1
  H  H273  1  0.082600  0.756300  0.821800  1
  H  H274  1  0.889500  0.363700  0.991900  1
  H  H275  1  0.110500  0.636300  0.008100  1
  H  H276  1  0.885100  0.408600  0.897800  1
  H  H277  1  0.114900  0.591400  0.102200  1
  H  H278  1  0.845700  0.410600  0.826900  1
  H  H279  1  0.154300  0.589400  0.173100  1
  H  H280  1  0.786300  0.344400  0.833700  1
  H  H281  1  0.213700  0.655600  0.166300  1
  H  H282  1  0.769900  0.277900  0.908800  1
  H  H283  1  0.230100  0.722100  0.091200  1
  H  H284  1  0.955300  0.070000  0.707000  1
  H  H285  1  0.044700  0.930000  0.293000  1
  H  H286  1  0.913500  0.018500  0.778800  1
  H  H287  1  0.086500  0.981500  0.221200  1
  H  H288  1  0.815400  0.042300  0.796700  1
  H  H289  1  0.184600  0.957700  0.203300  1
  H  H290  1  0.752000  0.122100  0.741400  1
  H  H291  1  0.248000  0.877900  0.258600  1
  H  H292  1  0.750400  0.209800  0.658800  1
  H  H293  1  0.249600  0.790200  0.341200  1
  H  H294  1  0.746700  0.243000  0.545600  1
  H  H295  1  0.253300  0.757000  0.454400  1
  H  H296  1  0.722300  0.325100  0.479100  1
  H  H297  1  0.277700  0.674900  0.520900  1
  H  H298  1  0.804800  0.397700  0.546100  1
  H  H299  1  0.195200  0.602300  0.453900  1
  H  H300  1  0.830500  0.314100  0.610600  1
  H  H301  1  0.169500  0.685900  0.389400  1
  H  H302  1  0.852600  0.427100  0.468000  1
  H  H303  1  0.147400  0.572900  0.532000  1
  H  H304  1  0.856400  0.509500  0.401100  1
  H  H305  1  0.143600  0.490500  0.598900  1
  H  H306  1  0.775400  0.548400  0.344700  1
  H  H307  1  0.224600  0.451600  0.655300  1
  H  H308  1  0.665600  0.553100  0.323400  1
  H  H309  1  0.334400  0.446900  0.676600  1
  H  H310  1  0.472700  0.597500  0.387100  1
  H  H311  1  0.527300  0.402500  0.612900  1
  H  H312  1  0.467800  0.519000  0.456900  1
  H  H313  1  0.532200  0.481000  0.543100  1
  H  H314  1  0.546100  0.443500  0.477800  1
  H  H315  1  0.453900  0.556500  0.522200  1
  H  H316  1  0.645600  0.396700  0.458600  1
  H  H317  1  0.354400  0.603300  0.541400  1
  H  H318  1  0.621000  0.654300  0.333700  1
  H  H319  1  0.379000  0.345700  0.666300  1
  H  H320  1  0.601700  0.737500  0.265600  1
  H  H321  1  0.398300  0.262500  0.734400  1
  H  H322  1  0.473400  0.682200  0.219500  1
  H  H323  1  0.526600  0.317800  0.780500  1
  H  H324  1  0.495000  0.599000  0.285900  1
  H  H325  1  0.505000  0.401000  0.714100  1
  H  H326  1  0.432500  0.782800  0.226000  1
  H  H327  1  0.567500  0.217200  0.774000  1
  H  H328  1  0.350400  0.869500  0.177000  1
  H  H329  1  0.649600  0.130500  0.823000  1
  H  H330  1  0.327000  0.953000  0.108000  1
  H  H331  1  0.673000  0.047000  0.892000  1
  H  H332  1  0.401800  0.977500  0.049500  1
  H  H333  1  0.598200  0.022500  0.950500  1
  H  H334  1  0.499900  0.923500  0.063900  1
  H  H335  1  0.500100  0.076500  0.936100  1
  H  H336  1  0.755400  0.973000  0.610800  1
  H  H337  1  0.244600  0.027000  0.389200  1
  H  H338  1  0.858400  0.964000  0.587200  1
  H  H339  1  0.141600  0.036000  0.412800  1
  H  H340  1  0.938800  0.958800  0.637200  1
  H  H341  1  0.061200  0.041200  0.362800  1
  H  H342  1  0.916200  0.962600  0.710800  1
  H  H343  1  0.083800  0.037400  0.289200  1
  H  H344  1  0.813100  0.971700  0.734400  1
  H  H345  1  0.186900  0.028300  0.265600  1
  H  H346  1  0.732700  0.976900  0.684300  1
  H  H347  1  0.267300  0.023100  0.315700  1
  H  H348  1  0.820300  0.088900  0.441100  1
  H  H349  1  0.179700  0.911100  0.558900  1
  H  H350  1  0.780700  0.048100  0.517900  1
  H  H351  1  0.219300  0.951900  0.482100  1
  H  H352  1  0.725300  0.976200  0.536900  1
  H  H353  1  0.274700  0.023800  0.463100  1
  H  H354  1  0.709500  0.945200  0.479000  1
  H  H355  1  0.290500  0.054800  0.521000  1
  H  H356  1  0.749100  0.986000  0.402300  1
  H  H357  1  0.250900  0.014000  0.597700  1
  H  H358  1  0.804500  0.057800  0.383300  1
  H  H359  1  0.195500  0.942200  0.616700  1
  H  H360  1  0.448000  0.417800  0.501900  1
  H  H361  1  0.552000  0.582200  0.498100  1
  H  H362  1  0.440500  0.362500  0.462600  1
  H  H363  1  0.559500  0.637500  0.537400  1
  H  H364  1  0.346900  0.332800  0.461600  1
  H  H365  1  0.653100  0.667200  0.538400  1
  H  H366  1  0.260800  0.358400  0.499900  1
  H  H367  1  0.739200  0.641600  0.500100  1
  H  H368  1  0.268300  0.413700  0.539200  1
  H  H369  1  0.731700  0.586300  0.460800  1
  H  H370  1  0.361900  0.443400  0.540300  1
  H  H371  1  0.638100  0.556600  0.459700  1
  H  H372  1  0.491000  0.293900  0.593700  1
  H  H373  1  0.509000  0.706100  0.406300  1
  H  H374  1  0.550600  0.349700  0.534200  1
  H  H375  1  0.449400  0.650300  0.465800  1
  H  H376  1  0.645800  0.363000  0.554900  1
  H  H377  1  0.354200  0.637000  0.445100  1
  H  H378  1  0.681500  0.320400  0.635100  1
  H  H379  1  0.318500  0.679600  0.364900  1
  H  H380  1  0.621900  0.264600  0.694700  1
  H  H381  1  0.378100  0.735400  0.305300  1
  H  H382  1  0.526600  0.251300  0.674000  1
  H  H383  1  0.473400  0.748700  0.326000  1
  H  H384  1  0.699600  0.673200  0.920300  1
  H  H385  1  0.300400  0.326800  0.079700  1
  H  H386  1  0.755700  0.704300  0.918500  1
  H  H387  1  0.244300  0.295700  0.081500  1
  H  H388  1  0.693400  0.737500  0.887100  1
  H  H389  1  0.306600  0.262500  0.112900  1
  H  H390  1  0.365100  0.070900  0.530900  1
  H  H391  1  0.634900  0.929100  0.469100  1
  H  H392  1  0.394700  0.068400  0.578500  1
  H  H393  1  0.605300  0.931600  0.421500  1
  H  H394  1  0.436100  0.077700  0.532200  1
  H  H395  1  0.563900  0.922300  0.467800  1
  H  H396  1  0.839600  0.038200  0.491600  1
  H  H397  1  0.160400  0.961800  0.508400  1
  H  H398  1  0.786000  0.079500  0.501800  1
  H  H399  1  0.214000  0.920500  0.498200  1
  H  H400  1  0.786700  0.075500  0.451500  1
  H  H401  1  0.213300  0.924500  0.548500  1
  H  H402  1  0.686000  0.120200  0.312800  1
  H  H403  1  0.314000  0.879800  0.687200  1
  H  H404  1  0.737900  0.097700  0.284400  1
  H  H405  1  0.262100  0.902300  0.715600  1
  H  H406  1  0.748300  0.145800  0.298000  1
  H  H407  1  0.251700  0.854200  0.702000  1
  C  C408  1  0.930700  0.213700  0.990400  1
  C  C409  1  0.069300  0.786300  0.009600  1
  C  C410  1  0.984400  0.177600  0.001200  1
  C  C411  1  0.015600  0.822400  0.998800  1
  C  C412  1  0.993700  0.131700  0.044400  1
  C  C413  1  0.006300  0.868300  0.955600  1
  C  C414  1  0.946100  0.122500  0.077100  1
  C  C415  1  0.053900  0.877500  0.922900  1
  C  C416  1  0.892400  0.160900  0.064400  1
  C  C417  1  0.107600  0.839100  0.935600  1
  C  C418  1  0.839300  0.156900  0.096000  1
  C  C419  1  0.160700  0.843100  0.904000  1
  C  C420  1  0.739800  0.193200  0.109800  1
  C  C421  1  0.260200  0.806800  0.890200  1
  C  C422  1  0.703400  0.155900  0.112800  1
  C  C423  1  0.296600  0.844100  0.887200  1
  C  C424  1  0.652300  0.149600  0.140500  1
  C  C425  1  0.347700  0.850400  0.859500  1
  C  C426  1  0.634700  0.181900  0.165400  1
  C  C427  1  0.365300  0.818100  0.834600  1
  C  C428  1  0.671200  0.219000  0.160900  1
  C  C429  1  0.328800  0.781000  0.839100  1
  C  C430  1  0.723400  0.224500  0.133600  1
  C  C431  1  0.276600  0.775500  0.866400  1
  C  C432  1  0.581300  0.173300  0.197700  1
  C  C433  1  0.418700  0.826700  0.802300  1
  C  C434  1  0.583500  0.126800  0.238200  1
  C  C435  1  0.416500  0.873200  0.761800  1
  C  C436  1  0.535800  0.117100  0.270900  1
  C  C437  1  0.464200  0.882900  0.729100  1
  C  C438  1  0.485800  0.156400  0.264500  1
  C  C439  1  0.514200  0.843600  0.735500  1
  C  C440  1  0.477700  0.205400  0.222500  1
  C  C441  1  0.522300  0.794600  0.777500  1
  C  C442  1  0.426000  0.245300  0.213700  1
  C  C443  1  0.574000  0.754700  0.786300  1
  C  C444  1  0.418500  0.295500  0.172700  1
  C  C445  1  0.581500  0.704500  0.827300  1
  C  C446  1  0.368200  0.339800  0.164500  1
  C  C447  1  0.631800  0.660200  0.835500  1
  C  C448  1  0.366100  0.387700  0.124200  1
  C  C449  1  0.633900  0.612300  0.875800  1
  C  C450  1  0.411100  0.394400  0.089200  1
  C  C451  1  0.588900  0.605600  0.910800  1
  C  C452  1  0.459300  0.354000  0.094500  1
  C  C453  1  0.540700  0.646000  0.905500  1
  C  C454  1  0.465800  0.303000  0.137100  1
  C  C455  1  0.534200  0.697000  0.862900  1
  C  C456  1  0.518000  0.262800  0.146100  1
  C  C457  1  0.482000  0.737200  0.853900  1
  C  C458  1  0.526400  0.213900  0.187800  1
  C  C459  1  0.473600  0.786100  0.812200  1
  C  C460  1  0.318700  0.335000  0.201100  1
  C  C461  1  0.681300  0.665000  0.798900  1
  C  C462  1  0.278600  0.298300  0.211500  1
  C  C463  1  0.721400  0.701700  0.788500  1
  C  C464  1  0.232800  0.295200  0.243100  1
  C  C465  1  0.767200  0.704800  0.756900  1
  C  C466  1  0.224700  0.328900  0.266700  1
  C  C467  1  0.775300  0.671100  0.733300  1
  C  C468  1  0.263100  0.367100  0.255500  1
  C  C469  1  0.736900  0.632900  0.744500  1
  C  C470  1  0.310800  0.368900  0.223600  1
  C  C471  1  0.689200  0.631100  0.776400  1
  C  C472  1  0.137700  0.369500  0.293700  1
  C  C473  1  0.862300  0.630500  0.706300  1
  C  C474  1  0.092600  0.365600  0.330100  1
  C  C475  1  0.907400  0.634400  0.669900  1
  C  C476  1  0.047000  0.408900  0.328200  1
  C  C477  1  0.953000  0.591100  0.671800  1
  C  C478  1  0.005700  0.400000  0.364800  1
  C  C479  1  0.994300  0.600000  0.635200  1
  C  C480  1  0.012900  0.350400  0.402900  1
  C  C481  1  0.987100  0.649600  0.597100  1
  C  C482  1  0.058400  0.308100  0.403800  1
  C  C483  1  0.941600  0.691900  0.596200  1
  C  C484  1  0.785200  0.163600  0.985800  1
  C  C485  1  0.214800  0.836400  0.014200  1
  C  C486  1  0.750000  0.134800  0.973500  1
  C  C487  1  0.250000  0.865200  0.026500  1
  C  C488  1  0.685900  0.149000  0.970300  1
  C  C489  1  0.314100  0.851000  0.029700  1
  C  C490  1  0.658100  0.193400  0.978900  1
  C  C491  1  0.341900  0.806600  0.021100  1
  C  C492  1  0.696200  0.221700  0.990600  1
  C  C493  1  0.303800  0.778300  0.009400  1
  C  C494  1  0.672300  0.270000  0.999000  1
  C  C495  1  0.327700  0.730000  0.001000  1
  C  C496  1  0.690600  0.340700  0.016400  1
  C  C497  1  0.309400  0.659300  0.983600  1
  C  C498  1  0.712500  0.388800  0.990400  1
  C  C499  1  0.287500  0.611200  0.009600  1
  C  C500  1  0.689900  0.434900  0.996700  1
  C  C501  1  0.310100  0.565100  0.003300  1
  C  C502  1  0.644400  0.433400  0.031200  1
  C  C503  1  0.355600  0.566600  0.968800  1
  C  C504  1  0.623900  0.384400  0.057200  1
  C  C505  1  0.376100  0.615600  0.942800  1
  C  C506  1  0.646800  0.339100  0.049100  1
  C  C507  1  0.353200  0.660900  0.950900  1
  C  C508  1  0.617400  0.482900  0.038400  1
  C  C509  1  0.382600  0.517100  0.961600  1
  C  C510  1  0.553900  0.495900  0.038000  1
  C  C511  1  0.446100  0.504100  0.962000  1
  C  C512  1  0.523100  0.543600  0.041700  1
  C  C513  1  0.476900  0.456400  0.958300  1
  C  C514  1  0.557700  0.576400  0.048000  1
  C  C515  1  0.442300  0.423600  0.952000  1
  C  C516  1  0.623000  0.563500  0.053400  1
  C  C517  1  0.377000  0.436500  0.946600  1
  C  C518  1  0.656600  0.592800  0.066800  1
  C  C519  1  0.343400  0.407200  0.933200  1
  C  C520  1  0.720800  0.578800  0.075300  1
  C  C521  1  0.279200  0.421200  0.924700  1
  C  C522  1  0.756100  0.605900  0.093100  1
  C  C523  1  0.243900  0.394100  0.906900  1
  C  C524  1  0.819500  0.592500  0.096200  1
  C  C525  1  0.180500  0.407500  0.903800  1
  C  C526  1  0.850900  0.551800  0.082800  1
  C  C527  1  0.149100  0.448200  0.917200  1
  C  C528  1  0.818800  0.523400  0.068000  1
  C  C529  1  0.181200  0.476600  0.932000  1
  C  C530  1  0.751900  0.535200  0.064400  1
  C  C531  1  0.248100  0.464800  0.935600  1
  C  C532  1  0.718600  0.504400  0.052000  1
  C  C533  1  0.281400  0.495600  0.948000  1
  C  C534  1  0.654200  0.516400  0.046600  1
  C  C535  1  0.345800  0.483600  0.953400  1
  C  C536  1  0.724300  0.647200  0.110600  1
  C  C537  1  0.275700  0.352800  0.889400  1
  C  C538  1  0.739200  0.699300  0.091400  1
  C  C539  1  0.260800  0.300700  0.908600  1
  C  C540  1  0.712200  0.735800  0.108100  1
  C  C541  1  0.287800  0.264200  0.891900  1
  C  C542  1  0.671000  0.722600  0.145200  1
  C  C543  1  0.329000  0.277400  0.854800  1
  C  C544  1  0.656300  0.670400  0.164600  1
  C  C545  1  0.343700  0.329600  0.835400  1
  C  C546  1  0.684300  0.633300  0.147500  1
  C  C547  1  0.315700  0.366700  0.852500  1
  C  C548  1  0.680700  0.776500  0.184800  1
  C  C549  1  0.319300  0.223500  0.815200  1
  C  C550  1  0.655600  0.820400  0.197900  1
  C  C551  1  0.344400  0.179600  0.802100  1
  C  C552  1  0.688700  0.838100  0.225000  1
  C  C553  1  0.311300  0.161900  0.775000  1
  C  C554  1  0.657100  0.879600  0.235400  1
  C  C555  1  0.342900  0.120400  0.764600  1
  C  C556  1  0.598100  0.902200  0.219000  1
  C  C557  1  0.401900  0.097800  0.781000  1
  C  C558  1  0.567700  0.885800  0.189900  1
  C  C559  1  0.432300  0.114200  0.810100  1
  C  C560  1  0.131300  0.160100  0.440200  1
  C  C561  1  0.868700  0.839900  0.559800  1
  C  C562  1  0.135500  0.119200  0.485400  1
  C  C563  1  0.864500  0.880800  0.514600  1
  C  C564  1  0.169500  0.120900  0.520600  1
  C  C565  1  0.830500  0.879100  0.479400  1
  C  C566  1  0.200200  0.165900  0.509500  1
  C  C567  1  0.799800  0.834100  0.490500  1
  C  C568  1  0.194100  0.205700  0.463200  1
  C  C569  1  0.805900  0.794300  0.536800  1
  C  C570  1  0.222900  0.253700  0.447000  1
  C  C571  1  0.777100  0.746300  0.553000  1
  C  C572  1  0.242000  0.335800  0.385400  1
  C  C573  1  0.758000  0.664200  0.614600  1
  C  C574  1  0.204500  0.380600  0.387700  1
  C  C575  1  0.795500  0.619400  0.612300  1
  C  C576  1  0.225600  0.428900  0.374800  1
  C  C577  1  0.774400  0.571100  0.625200  1
  C  C578  1  0.283900  0.435500  0.355200  1
  C  C579  1  0.716100  0.564500  0.644800  1
  C  C580  1  0.319000  0.391100  0.351800  1
  C  C581  1  0.681000  0.608900  0.648200  1
  C  C582  1  0.299300  0.341000  0.368000  1
  C  C583  1  0.700700  0.659000  0.632000  1
  C  C584  1  0.308000  0.487300  0.341500  1
  C  C585  1  0.692000  0.512700  0.658500  1
  C  C586  1  0.316600  0.504900  0.375900  1
  C  C587  1  0.683400  0.495100  0.624100  1
  C  C588  1  0.343100  0.552200  0.365700  1
  C  C589  1  0.656900  0.447800  0.634300  1
  C  C590  1  0.359900  0.581800  0.320200  1
  C  C591  1  0.640100  0.418200  0.679800  1
  C  C592  1  0.352400  0.567200  0.282200  1
  C  C593  1  0.647600  0.432800  0.717800  1
  C  C594  1  0.370200  0.596500  0.236500  1
  C  C595  1  0.629800  0.403500  0.763500  1
  C  C596  1  0.362000  0.582700  0.198400  1
  C  C597  1  0.638000  0.417300  0.801600  1
  C  C598  1  0.386000  0.609900  0.151100  1
  C  C599  1  0.614000  0.390100  0.848900  1
  C  C600  1  0.378600  0.590900  0.117000  1
  C  C601  1  0.621400  0.409100  0.883000  1
  C  C602  1  0.344400  0.548100  0.126800  1
  C  C603  1  0.655600  0.451900  0.873200  1
  C  C604  1  0.320600  0.522600  0.170400  1
  C  C605  1  0.679400  0.477400  0.829600  1
  C  C606  1  0.330300  0.537800  0.208200  1
  C  C607  1  0.669700  0.462200  0.791800  1
  C  C608  1  0.311500  0.507800  0.254700  1
  C  C609  1  0.688500  0.492200  0.745300  1
  C  C610  1  0.323400  0.519400  0.293200  1
  C  C611  1  0.676600  0.480600  0.706800  1
  C  C612  1  0.423500  0.654700  0.138900  1
  C  C613  1  0.576500  0.345300  0.861100  1
  C  C614  1  0.399000  0.705500  0.137300  1
  C  C615  1  0.601000  0.294500  0.862700  1
  C  C616  1  0.434500  0.744900  0.125200  1
  C  C617  1  0.565500  0.255100  0.874800  1
  C  C618  1  0.496500  0.736100  0.114300  1
  C  C619  1  0.503500  0.263900  0.885700  1
  C  C620  1  0.519900  0.686400  0.113500  1
  C  C621  1  0.480100  0.313600  0.886500  1
  C  C622  1  0.483800  0.645700  0.126500  1
  C  C623  1  0.516200  0.354300  0.873500  1
  C  C624  1  0.558400  0.794400  0.059300  1
  C  C625  1  0.441600  0.205600  0.940700  1
  C  C626  1  0.596200  0.836500  0.046800  1
  C  C627  1  0.403800  0.163500  0.953200  1
  C  C628  1  0.625200  0.858300  0.003000  1
  C  C629  1  0.374800  0.141700  0.997000  1
  C  C630  1  0.660800  0.897400  0.995800  1
  C  C631  1  0.339200  0.102600  0.004200  1
  C  C632  1  0.664800  0.915200  0.030000  1
  C  C633  1  0.335200  0.084800  0.970000  1
  C  C634  1  0.634700  0.892900  0.073500  1
  C  C635  1  0.365300  0.107100  0.926500  1
  C  C636  1  0.043600  0.135700  0.644200  1
  C  C637  1  0.956400  0.864300  0.355800  1
  C  C638  1  0.097200  0.099800  0.648000  1
  C  C639  1  0.902800  0.900200  0.352000  1
  C  C640  1  0.098500  0.059400  0.634700  1
  C  C641  1  0.901500  0.940600  0.365300  1
  C  C642  1  0.044700  0.055400  0.615600  1
  C  C643  1  0.955300  0.944600  0.384400  1
  C  C644  1  0.990900  0.091900  0.612100  1
  C  C645  1  0.009100  0.908100  0.387900  1
  C  C646  1  0.932700  0.094500  0.591200  1
  C  C647  1  0.067300  0.905500  0.408800  1
  C  C648  1  0.827700  0.136700  0.569400  1
  C  C649  1  0.172300  0.863300  0.430600  1
  C  C650  1  0.782100  0.113300  0.600800  1
  C  C651  1  0.217900  0.886700  0.399200  1
  C  C652  1  0.722600  0.124400  0.583500  1
  C  C653  1  0.277400  0.875600  0.416500  1
  C  C654  1  0.705100  0.160400  0.534800  1
  C  C655  1  0.294900  0.839600  0.465200  1
  C  C656  1  0.754100  0.176700  0.504200  1
  C  C657  1  0.245900  0.823300  0.495800  1
  C  C658  1  0.814600  0.164100  0.521700  1
  C  C659  1  0.185400  0.835900  0.478300  1
  C  C660  1  0.638800  0.180000  0.522600  1
  C  C661  1  0.361200  0.820000  0.477400  1
  C  C662  1  0.602600  0.191900  0.557200  1
  C  C663  1  0.397400  0.808100  0.442800  1
  C  C664  1  0.539100  0.211800  0.551000  1
  C  C665  1  0.460900  0.788200  0.449000  1
  C  C666  1  0.509700  0.220700  0.509600  1
  C  C667  1  0.490300  0.779300  0.490400  1
  C  C668  1  0.544200  0.210900  0.473700  1
  C  C669  1  0.455800  0.789100  0.526300  1
  C  C670  1  0.517600  0.220100  0.427000  1
  C  C671  1  0.482400  0.779900  0.573000  1
  C  C672  1  0.533600  0.167600  0.419700  1
  C  C673  1  0.466400  0.832400  0.580300  1
  C  C674  1  0.493800  0.141500  0.407000  1
  C  C675  1  0.506200  0.858500  0.593000  1
  C  C676  1  0.519200  0.093500  0.403000  1
  C  C677  1  0.480800  0.906500  0.597000  1
  C  C678  1  0.581600  0.073400  0.409500  1
  C  C679  1  0.418400  0.926600  0.590500  1
  C  C680  1  0.621000  0.099600  0.421600  1
  C  C681  1  0.379000  0.900400  0.578400  1
  C  C682  1  0.597300  0.146900  0.426400  1
  C  C683  1  0.402700  0.853100  0.573600  1
  C  C684  1  0.635600  0.181400  0.436700  1
  C  C685  1  0.364400  0.818600  0.563300  1
  C  C686  1  0.608700  0.191100  0.479900  1
  C  C687  1  0.391300  0.808900  0.520100  1
  C  C688  1  0.426000  0.162800  0.396300  1
  C  C689  1  0.574000  0.837200  0.603700  1
  C  C690  1  0.382500  0.133200  0.422300  1
  C  C691  1  0.617500  0.866800  0.577700  1
  C  C692  1  0.320300  0.152100  0.411600  1
  C  C693  1  0.679700  0.847900  0.588400  1
  C  C694  1  0.299600  0.195700  0.370100  1
  C  C695  1  0.700400  0.804300  0.629900  1
  C  C696  1  0.343100  0.222300  0.341800  1
  C  C697  1  0.656900  0.777700  0.658200  1
  C  C698  1  0.405200  0.205200  0.354500  1
  C  C699  1  0.594800  0.794800  0.645500  1
  C  C700  1  0.217600  0.179900  0.337000  1
  C  C701  1  0.782400  0.820100  0.663000  1
  C  C702  1  0.152300  0.192100  0.321600  1
  C  C703  1  0.847700  0.807900  0.678400  1
  C  C704  1  0.127200  0.167000  0.298700  1
  C  C705  1  0.872800  0.833000  0.701300  1
  C  C706  1  0.064600  0.182800  0.284700  1
  C  C707  1  0.935400  0.817200  0.715300  1
  C  C708  1  0.031700  0.224400  0.294400  1
  C  C709  1  0.968300  0.775600  0.705600  1
  C  C710  1  0.061000  0.248500  0.317700  1
  C  C711  1  0.939000  0.751500  0.682300  1
  C  C712  1  0.933100  0.219800  0.691900  1
  C  C713  1  0.066900  0.780200  0.308100  1
  C  C714  1  0.948100  0.258500  0.705100  1
  C  C715  1  0.051900  0.741500  0.294900  1
  C  C716  1  0.967900  0.303300  0.671900  1
  C  C717  1  0.032100  0.696700  0.328100  1
  C  C718  1  0.971400  0.311100  0.624500  1
  C  C719  1  0.028600  0.688900  0.375500  1
  C  C720  1  0.954800  0.271100  0.612900  1
  C  C721  1  0.045200  0.728900  0.387100  1
  C  C722  1  0.954100  0.275700  0.564700  1
  C  C723  1  0.045900  0.724300  0.435300  1
  C  C724  1  0.932000  0.239500  0.511800  1
  C  C725  1  0.068000  0.760500  0.488200  1
  C  C726  1  0.972400  0.201300  0.500700  1
  C  C727  1  0.027600  0.798700  0.499300  1
  C  C728  1  0.964600  0.198600  0.457800  1
  C  C729  1  0.035400  0.801400  0.542200  1
  C  C730  1  0.915500  0.232300  0.424600  1
  C  C731  1  0.084500  0.767700  0.575400  1
  C  C732  1  0.880000  0.273200  0.435300  1
  C  C733  1  0.120000  0.726800  0.564700  1
  C  C734  1  0.888400  0.276000  0.478200  1
  C  C735  1  0.111600  0.724000  0.521800  1
  C  C736  1  0.901400  0.218300  0.385200  1
  C  C737  1  0.098600  0.781700  0.614800  1
  C  C738  1  0.911300  0.161600  0.397000  1
  C  C739  1  0.088700  0.838400  0.603000  1
  C  C740  1  0.899000  0.140800  0.364300  1
  C  C741  1  0.101000  0.859200  0.635700  1
  C  C742  1  0.876400  0.176600  0.319100  1
  C  C743  1  0.123600  0.823400  0.680900  1
  C  C744  1  0.866700  0.232500  0.306700  1
  C  C745  1  0.133300  0.767500  0.693300  1
  C  C746  1  0.839700  0.275200  0.258600  1
  C  C747  1  0.160300  0.724800  0.741400  1
  C  C748  1  0.882300  0.317100  0.236900  1
  C  C749  1  0.117700  0.682900  0.763100  1
  C  C750  1  0.903400  0.337000  0.190400  1
  C  C751  1  0.096600  0.663000  0.809600  1
  C  C752  1  0.943000  0.375900  0.178000  1
  C  C753  1  0.057000  0.624100  0.822000  1
  C  C754  1  0.959600  0.393500  0.210800  1
  C  C755  1  0.040400  0.606500  0.789200  1
  C  C756  1  0.934900  0.376400  0.255900  1
  C  C757  1  0.065100  0.623600  0.744100  1
  C  C758  1  0.896900  0.337500  0.269200  1
  C  C759  1  0.103100  0.662500  0.730800  1
  C  C760  1  0.863200  0.316400  0.316000  1
  C  C761  1  0.136800  0.683600  0.684000  1
  C  C762  1  0.877800  0.253800  0.339300  1
  C  C763  1  0.122200  0.746200  0.660700  1
  C  C764  1  0.883100  0.323400  0.151700  1
  C  C765  1  0.116900  0.676600  0.848300  1
  C  C766  1  0.848100  0.364900  0.112700  1
  C  C767  1  0.151900  0.635100  0.887300  1
  C  C768  1  0.833200  0.357000  0.073700  1
  C  C769  1  0.166800  0.643000  0.926300  1
  C  C770  1  0.853700  0.308300  0.071300  1
  C  C771  1  0.146300  0.691700  0.928700  1
  C  C772  1  0.881800  0.265900  0.111600  1
  C  C773  1  0.118200  0.734100  0.888400  1
  C  C774  1  0.896800  0.273900  0.151000  1
  C  C775  1  0.103200  0.726100  0.849000  1
  C  C776  1  0.864300  0.340000  0.989500  1
  C  C777  1  0.135700  0.660000  0.010500  1
  C  C778  1  0.848100  0.342500  0.942600  1
  C  C779  1  0.151900  0.657500  0.057400  1
  C  C780  1  0.860900  0.382400  0.899300  1
  C  C781  1  0.139100  0.617600  0.100700  1
  C  C782  1  0.837800  0.383500  0.857600  1
  C  C783  1  0.162200  0.616500  0.142400  1
  C  C784  1  0.803000  0.344300  0.861700  1
  C  C785  1  0.197000  0.655700  0.138300  1
  C  C786  1  0.792800  0.305200  0.906500  1
  C  C787  1  0.207200  0.694800  0.093500  1
  C  C788  1  0.913800  0.081500  0.713600  1
  C  C789  1  0.086200  0.918500  0.286400  1
  C  C790  1  0.888700  0.050700  0.756200  1
  C  C791  1  0.111300  0.949300  0.243800  1
  C  C792  1  0.831300  0.064600  0.766900  1
  C  C793  1  0.168700  0.935400  0.233100  1
  C  C794  1  0.793800  0.111600  0.734600  1
  C  C795  1  0.206200  0.888400  0.265400  1
  C  C796  1  0.820900  0.142700  0.691800  1
  C  C797  1  0.179100  0.857300  0.308200  1
  C  C798  1  0.791600  0.193800  0.655600  1
  C  C799  1  0.208400  0.806200  0.344400  1
  C  C800  1  0.796400  0.270400  0.581800  1
  C  C801  1  0.203600  0.729600  0.418200  1
  C  C802  1  0.760800  0.274500  0.544100  1
  C  C803  1  0.239200  0.725500  0.455900  1
  C  C804  1  0.746000  0.323000  0.505100  1
  C  C805  1  0.254000  0.677000  0.494900  1
  C  C806  1  0.765900  0.370800  0.503100  1
  C  C807  1  0.234100  0.629200  0.496900  1
  C  C808  1  0.795200  0.365900  0.544600  1
  C  C809  1  0.204800  0.634100  0.455400  1
  C  C810  1  0.810200  0.316500  0.582900  1
  C  C811  1  0.189800  0.683500  0.417100  1
  C  C812  1  0.763200  0.420800  0.457500  1
  C  C813  1  0.236800  0.579200  0.542500  1
  C  C814  1  0.817300  0.444600  0.446900  1
  C  C815  1  0.182700  0.555400  0.553100  1
  C  C816  1  0.820400  0.493100  0.406200  1
  C  C817  1  0.179600  0.506900  0.593800  1
  C  C818  1  0.772000  0.517000  0.373700  1
  C  C819  1  0.228000  0.483000  0.626300  1
  C  C820  1  0.717700  0.495000  0.383400  1
  C  C821  1  0.282300  0.505000  0.616600  1
  C  C822  1  0.661000  0.518000  0.351600  1
  C  C823  1  0.339000  0.482000  0.648400  1
  C  C824  1  0.605000  0.525300  0.380100  1
  C  C825  1  0.395000  0.474700  0.619900  1
  C  C826  1  0.557000  0.570500  0.365700  1
  C  C827  1  0.443000  0.429500  0.634300  1
  C  C828  1  0.505600  0.567200  0.395600  1
  C  C829  1  0.494400  0.432800  0.604400  1
  C  C830  1  0.502600  0.520400  0.437000  1
  C  C831  1  0.497400  0.479600  0.563000  1
  C  C832  1  0.549100  0.475900  0.449600  1
  C  C833  1  0.450900  0.524100  0.550400  1
  C  C834  1  0.599900  0.478300  0.421500  1
  C  C835  1  0.400100  0.521700  0.578500  1
  C  C836  1  0.649600  0.429200  0.427800  1
  C  C837  1  0.350400  0.570800  0.572200  1
  C  C838  1  0.713500  0.446900  0.424700  1
  C  C839  1  0.286500  0.553100  0.575300  1
  C  C840  1  0.554200  0.620200  0.319100  1
  C  C841  1  0.445800  0.379800  0.680900  1
  C  C842  1  0.588900  0.660600  0.311200  1
  C  C843  1  0.411100  0.339400  0.688800  1
  C  C844  1  0.577400  0.710100  0.270800  1
  C  C845  1  0.422600  0.289900  0.729200  1
  C  C846  1  0.530600  0.719700  0.238000  1
  C  C847  1  0.469400  0.280300  0.762000  1
  C  C848  1  0.502300  0.677700  0.243500  1
  C  C849  1  0.497700  0.322300  0.756500  1
  C  C850  1  0.514800  0.628200  0.283500  1
  C  C851  1  0.485200  0.371800  0.716500  1
  C  C852  1  0.458700  0.797500  0.199700  1
  C  C853  1  0.541300  0.202500  0.800300  1
  C  C854  1  0.438300  0.850100  0.158700  1
  C  C855  1  0.561700  0.149900  0.841300  1
  C  C856  1  0.380500  0.881300  0.153200  1
  C  C857  1  0.619500  0.118700  0.846800  1
  C  C858  1  0.366400  0.930300  0.112300  1
  C  C859  1  0.633600  0.069700  0.887700  1
  C  C860  1  0.410700  0.945100  0.078500  1
  C  C861  1  0.589300  0.054900  0.921500  1
  C  C862  1  0.468800  0.912100  0.086900  1
  C  C863  1  0.531200  0.087900  0.913100  1
  C  C864  1  0.551300  0.264800  0.386400  1
  C  C865  1  0.448700  0.735200  0.613600  1
  C  C866  1  0.624100  0.239800  0.390400  1
  C  C867  1  0.375900  0.760200  0.609600  1
  C  C868  1  0.519400  0.279400  0.339200  1
  C  C869  1  0.480600  0.720600  0.660800  1
  C  C870  1  0.544200  0.262400  0.306000  1
  C  C871  1  0.455800  0.737600  0.694000  1
  C  C872  1  0.610100  0.239300  0.308300  1
  C  C873  1  0.389900  0.760700  0.691700  1
  C  C874  1  0.647900  0.233700  0.345200  1
  C  C875  1  0.352100  0.766300  0.654800  1
  C  C876  1  0.707900  0.248300  0.335200  1
  C  C877  1  0.292100  0.751700  0.664800  1
  C  C878  1  0.690300  0.273000  0.250800  1
  C  C879  1  0.309700  0.727000  0.749200  1
  C  C880  1  0.631300  0.259300  0.260000  1
  C  C881  1  0.368700  0.740700  0.740000  1
  C  C882  1  0.579200  0.293700  0.227400  1
  C  C883  1  0.420800  0.706300  0.772600  1
  C  C884  1  0.589400  0.340900  0.186500  1
  C  C885  1  0.410600  0.659100  0.813500  1
  C  C886  1  0.651700  0.354400  0.177200  1
  C  C887  1  0.348300  0.645600  0.822800  1
  C  C888  1  0.700300  0.321400  0.208700  1
  C  C889  1  0.299700  0.678600  0.791300  1
  C  C890  1  0.745200  0.345300  0.220800  1
  C  C891  1  0.254800  0.654700  0.779200  1
  C  C892  1  0.741200  0.402000  0.201900  1
  C  C893  1  0.258800  0.598000  0.798100  1
  C  C894  1  0.689400  0.436600  0.169500  1
  C  C895  1  0.310600  0.563400  0.830500  1
  C  C896  1  0.646300  0.413600  0.157600  1
  C  C897  1  0.353700  0.586400  0.842400  1
  C  C898  1  0.579400  0.436000  0.154800  1
  C  C899  1  0.420600  0.564000  0.845200  1
  C  C900  1  0.561400  0.481000  0.164400  1
  C  C901  1  0.438600  0.519000  0.835600  1
  C  C902  1  0.607300  0.505800  0.176700  1
  C  C903  1  0.392700  0.494200  0.823300  1
  C  C904  1  0.668400  0.483500  0.179900  1
  C  C905  1  0.331600  0.516500  0.820100  1
  C  C906  1  0.708900  0.477000  0.219300  1
  C  C907  1  0.291100  0.523000  0.780700  1
  C  C908  1  0.683800  0.493000  0.254100  1
  C  C909  1  0.316200  0.507000  0.745900  1
  C  C910  1  0.618600  0.516200  0.251700  1
  C  C911  1  0.381400  0.483800  0.748300  1
  C  C912  1  0.518800  0.508400  0.223300  1
  C  C913  1  0.481200  0.491600  0.776700  1
  C  C914  1  0.498700  0.490000  0.269900  1
  C  C915  1  0.501300  0.510000  0.730100  1
  C  C916  1  0.537400  0.484200  0.308000  1
  C  C917  1  0.462600  0.515800  0.692000  1
  C  C918  1  0.595400  0.497400  0.299200  1
  C  C919  1  0.404600  0.502600  0.700800  1
  C  C920  1  0.545700  0.390900  0.172800  1
  C  C921  1  0.454300  0.609100  0.827200  1
  C  C922  1  0.650100  0.471800  0.335000  1
  C  C923  1  0.349900  0.528200  0.665000  1
  C  C924  1  0.639400  0.418400  0.382600  1
  C  C925  1  0.360600  0.581600  0.617400  1
  C  C926  1  0.575900  0.402300  0.382500  1
  C  C927  1  0.424100  0.597700  0.617500  1
  C  C928  1  0.527400  0.435600  0.351200  1
  C  C929  1  0.472600  0.564400  0.648800  1
  C  C930  1  0.483100  0.411100  0.337900  1
  C  C931  1  0.516900  0.588900  0.662100  1
  C  C932  1  0.488600  0.355000  0.357000  1
  C  C933  1  0.511400  0.645000  0.643000  1
  C  C934  1  0.538000  0.319500  0.390100  1
  C  C935  1  0.462000  0.680500  0.609900  1
  C  C936  1  0.580700  0.343600  0.400700  1
  C  C937  1  0.419300  0.656400  0.599300  1
  C  C938  1  0.647800  0.322300  0.402500  1
  C  C939  1  0.352200  0.677700  0.597500  1
  C  C940  1  0.666400  0.275900  0.393500  1
  C  C941  1  0.333600  0.724100  0.606500  1
  C  C942  1  0.719300  0.275200  0.365000  1
  C  C943  1  0.280700  0.724800  0.635000  1
  C  C944  1  0.581300  0.522000  0.214200  1
  C  C945  1  0.418700  0.478000  0.785800  1
  C  C946  1  0.731900  0.364400  0.358100  1
  C  C947  1  0.268100  0.635600  0.641900  1
  C  C948  1  0.680200  0.365500  0.385900  1
  C  C949  1  0.319800  0.634500  0.614100  1
  C  C950  1  0.742800  0.413300  0.315700  1
  C  C951  1  0.257200  0.586700  0.684300  1
  C  C952  1  0.702600  0.461800  0.303500  1
  C  C953  1  0.297400  0.538200  0.696500  1
  C  C954  1  0.753200  0.427100  0.233000  1
  C  C955  1  0.246800  0.572900  0.767000  1
  C  C956  1  0.770200  0.396800  0.279800  1
  C  C957  1  0.229800  0.603200  0.720200  1
  C  C958  1  0.791600  0.332800  0.302900  1
  C  C959  1  0.208400  0.667200  0.697100  1
  C  C960  1  0.777400  0.306800  0.268900  1
  C  C961  1  0.222600  0.693200  0.731100  1
  C  C962  1  0.729600  0.266300  0.289100  1
  C  C963  1  0.270400  0.733700  0.710900  1
  C  C964  1  0.451600  0.421100  0.258500  1
  C  C965  1  0.548400  0.578900  0.741500  1
  C  C966  1  0.457700  0.361100  0.277600  1
  C  C967  1  0.542300  0.638900  0.722400  1
  C  C968  1  0.483100  0.345200  0.241900  1
  C  C969  1  0.516900  0.654800  0.758100  1
  C  C970  1  0.473300  0.440200  0.209300  1
  C  C971  1  0.526700  0.559800  0.790700  1
  C  C972  1  0.493200  0.393400  0.199300  1
  C  C973  1  0.506800  0.606600  0.800700  1
  C  C974  1  0.507100  0.483600  0.193200  1
  C  C975  1  0.492900  0.516400  0.806800  1
  C  C976  1  0.527100  0.296100  0.255400  1
  C  C977  1  0.472900  0.703900  0.744600  1
  C  C978  1  0.477500  0.329200  0.326200  1
  C  C979  1  0.522500  0.670800  0.673800  1
  C  C980  1  0.464500  0.445900  0.287900  1
  C  C981  1  0.535500  0.554100  0.712100  1
  C  C982  1  0.753300  0.317700  0.348500  1
  C  C983  1  0.246700  0.682300  0.651500  1
  C  C984  1  0.788000  0.970900  0.631100  1
  C  C985  1  0.212000  0.029100  0.368900  1
  C  C986  1  0.849200  0.965500  0.617100  1
  C  C987  1  0.150800  0.034500  0.382900  1
  C  C988  1  0.897000  0.962400  0.646800  1
  C  C989  1  0.103000  0.037600  0.353200  1
  C  C990  1  0.883500  0.964700  0.690500  1
  C  C991  1  0.116500  0.035300  0.309500  1
  C  C992  1  0.822300  0.970100  0.704500  1
  C  C993  1  0.177700  0.029900  0.295500  1
  C  C994  1  0.774600  0.973200  0.674800  1
  C  C995  1  0.225400  0.026800  0.325200  1
  C  C996  1  0.797800  0.059700  0.448800  1
  C  C997  1  0.202200  0.940300  0.551200  1
  C  C998  1  0.774300  0.035500  0.494400  1
  C  C999  1  0.225700  0.964500  0.505600  1
  C  C1000  1  0.741400  0.992800  0.505700  1
  C  C1001  1  0.258600  0.007200  0.494300  1
  C  C1002  1  0.732000  0.974400  0.471400  1
  C  C1003  1  0.268000  0.025600  0.528600  1
  C  C1004  1  0.755500  0.998600  0.425800  1
  C  C1005  1  0.244500  0.001400  0.574200  1
  C  C1006  1  0.788400  0.041300  0.414500  1
  C  C1007  1  0.211600  0.958700  0.585500  1
  C  C1008  1  0.410000  0.405800  0.501500  1
  C  C1009  1  0.590000  0.594200  0.498500  1
  C  C1010  1  0.405600  0.372900  0.478100  1
  C  C1011  1  0.594400  0.627100  0.521900  1
  C  C1012  1  0.350000  0.355300  0.477500  1
  C  C1013  1  0.650000  0.644700  0.522500  1
  C  C1014  1  0.298800  0.370400  0.500300  1
  C  C1015  1  0.701200  0.629600  0.499700  1
  C  C1016  1  0.303200  0.403300  0.523700  1
  C  C1017  1  0.696800  0.596700  0.476300  1
  C  C1018  1  0.358800  0.421000  0.524300  1
  C  C1019  1  0.641200  0.579000  0.475700  1
  C  C1020  1  0.529600  0.299300  0.602100  1
  C  C1021  1  0.470400  0.700700  0.397900  1
  C  C1022  1  0.565000  0.332400  0.566800  1
  C  C1023  1  0.435000  0.667600  0.433200  1
  C  C1024  1  0.621600  0.340300  0.579100  1
  C  C1025  1  0.378400  0.659700  0.420900  1
  C  C1026  1  0.642800  0.315000  0.626700  1
  C  C1027  1  0.357200  0.685000  0.373300  1
  C  C1028  1  0.607400  0.281900  0.662100  1
  C  C1029  1  0.392600  0.718100  0.337900  1
  C  C1030  1  0.550800  0.274000  0.649800  1
  C  C1031  1  0.449200  0.726000  0.350200  1
  C  C1032  1  0.710000  0.708000  0.917500  1
  C  C1033  1  0.290000  0.292000  0.082500  1
  C  C1034  1  0.685000  0.719000  0.957400  1
  C  C1035  1  0.315000  0.281000  0.042600  1
  C  C1036  1  0.375000  0.144700  0.524000  1
  C  C1037  1  0.625000  0.855300  0.476000  1
  C  C1038  1  0.394000  0.085500  0.543000  1
  C  C1039  1  0.606000  0.914500  0.457000  1
  C  C1040  1  0.757600  0.011900  0.505800  1
  C  C1041  1  0.242400  0.988100  0.494200  1
  C  C1042  1  0.795600  0.054800  0.486100  1
  C  C1043  1  0.204400  0.945200  0.513900  1
  C  C1044  1  0.760400  0.071800  0.354000  1
  C  C1045  1  0.239600  0.928200  0.646000  1
  C  C1046  1  0.730700  0.112200  0.308600  1
  C  C1047  1  0.269300  0.887800  0.691400  1
  N  N1048  1  0.883900  0.206500  0.022500  1
  N  N1049  1  0.116100  0.793500  0.977500  1
  N  N1050  1  0.794600  0.198700  0.080700  1
  N  N1051  1  0.205400  0.801300  0.919300  1
  N  N1052  1  0.177600  0.325000  0.301900  1
  N  N1053  1  0.822400  0.675000  0.698100  1
  N  N1054  1  0.098400  0.314800  0.368200  1
  N  N1055  1  0.901600  0.685200  0.631800  1
  N  N1056  1  0.759200  0.207800  0.993800  1
  N  N1057  1  0.240800  0.792200  0.006200  1
  N  N1058  1  0.714400  0.292000  0.008700  1
  N  N1059  1  0.285600  0.708000  0.991300  1
  N  N1060  1  0.642900  0.762300  0.162300  1
  N  N1061  1  0.357100  0.237700  0.837700  1
  N  N1062  1  0.595800  0.843900  0.180200  1
  N  N1063  1  0.404200  0.156100  0.819800  1
  N  N1064  1  0.160400  0.203500  0.428700  1
  N  N1065  1  0.839600  0.796500  0.571300  1
  N  N1066  1  0.217800  0.285200  0.401200  1
  N  N1067  1  0.782200  0.714800  0.598800  1
  N  N1068  1  0.534800  0.777600  0.101600  1
  N  N1069  1  0.465200  0.222400  0.898400  1
  N  N1070  1  0.601400  0.853200  0.082400  1
  N  N1071  1  0.398600  0.146800  0.917600  1
  N  N1072  1  0.990800  0.133200  0.625700  1
  N  N1073  1  0.009200  0.866800  0.374300  1
  N  N1074  1  0.888100  0.132100  0.589700  1
  N  N1075  1  0.111900  0.867900  0.410300  1
  N  N1076  1  0.235900  0.209400  0.354700  1
  N  N1077  1  0.764100  0.790600  0.645300  1
  N  N1078  1  0.119700  0.232800  0.331900  1
  N  N1079  1  0.880300  0.767200  0.668100  1
  N  N1080  1  0.935400  0.225100  0.646200  1
  N  N1081  1  0.064600  0.774900  0.353800  1
  N  N1082  1  0.934500  0.236300  0.559700  1
  N  N1083  1  0.065500  0.763700  0.440300  1
  N  N1084  1  0.842600  0.304200  0.027400  1
  N  N1085  1  0.157400  0.695800  0.972600  1
  N  N1086  1  0.813500  0.304300  0.946600  1
  N  N1087  1  0.186500  0.695700  0.053400  1
  N  N1088  1  0.880400  0.127200  0.681400  1
  N  N1089  1  0.119600  0.872800  0.318600  1
  N  N1090  1  0.822900  0.217200  0.619000  1
  N  N1091  1  0.177100  0.782800  0.381000  1
  N  N1092  1  0.513000  0.772300  0.198500  1
  N  N1093  1  0.487000  0.227700  0.801500  1
  N  N1094  1  0.482400  0.865200  0.125800  1
  N  N1095  1  0.517600  0.134800  0.874200  1
  N  N1096  1  0.661000  0.732700  0.985400  1
  N  N1097  1  0.339000  0.267300  0.014600  1
  N  N1098  1  0.367900  0.191900  0.501500  1
  N  N1099  1  0.632100  0.808100  0.498500  1
  N  N1100  1  0.724400  0.981000  0.514100  1
  N  N1101  1  0.275600  0.019000  0.485900  1
  N  N1102  1  0.778900  0.033900  0.389900  1
  N  N1103  1  0.221100  0.966100  0.610100  1
  F  F1104  1  0.939800  0.111600  0.178300  1
  F  F1105  1  0.060200  0.888400  0.821700  1
  F  F1106  1  0.877000  0.041800  0.233600  1
  F  F1107  1  0.123000  0.958200  0.766400  1
  F  F1108  1  0.915200  0.067600  0.302400  1
  F  F1109  1  0.084800  0.932400  0.697600  1
  F  F1110  1  0.967600  0.132100  0.244900  1
  F  F1111  1  0.032400  0.867900  0.755100  1
  F  F1112  1  0.991100  0.034500  0.252000  1
  F  F1113  1  0.008900  0.965500  0.748000  1
  F  F1114  1  0.855200  0.136900  0.227400  1
  F  F1115  1  0.144800  0.863100  0.772600  1
  F  F1116  1  0.238800  0.701800  0.216400  1
  F  F1117  1  0.761200  0.298200  0.783600  1
  F  F1118  1  0.339600  0.720800  0.236100  1
  F  F1119  1  0.660400  0.279200  0.763900  1
  F  F1120  1  0.288900  0.811400  0.236500  1
  F  F1121  1  0.711100  0.188600  0.763500  1
  F  F1122  1  0.180500  0.797600  0.217400  1
  F  F1123  1  0.819500  0.202400  0.782600  1
  F  F1124  1  0.245800  0.723100  0.289900  1
  F  F1125  1  0.754200  0.276900  0.710100  1
  F  F1126  1  0.272700  0.793800  0.161900  1
  F  F1127  1  0.727300  0.206200  0.838100  1
  F  F1128  1  0.556400  0.988600  0.108100  1
  F  F1129  1  0.443600  0.011400  0.891900  1
  F  F1130  1  0.589400  0.080100  0.089900  1
  F  F1131  1  0.410600  0.919900  0.910100  1
  F  F1132  1  0.492200  0.039000  0.023100  1
  F  F1133  1  0.507800  0.961000  0.976900  1
  F  F1134  1  0.534600  0.126400  0.008700  1
  F  F1135  1  0.465400  0.873600  0.991300  1
  F  F1136  1  0.616900  0.038000  0.032400  1
  F  F1137  1  0.383100  0.962000  0.967600  1
  F  F1138  1  0.469600  0.074000  0.093100  1
  F  F1139  1  0.530400  0.926000  0.906900  1
  F  F1140  1  0.640200  0.998900  0.343600  1
  F  F1141  1  0.359800  0.001100  0.656400  1
  F  F1142  1  0.632700  0.972600  0.280200  1
  F  F1143  1  0.367300  0.027400  0.719800  1
  F  F1144  1  0.747800  0.906700  0.304500  1
  F  F1145  1  0.252200  0.093300  0.695500  1
  F  F1146  1  0.742600  0.919800  0.382500  1
  F  F1147  1  0.257400  0.080200  0.617500  1
  F  F1148  1  0.726800  0.011500  0.292000  1
  F  F1149  1  0.273200  0.988500  0.708000  1
  F  F1150  1  0.641800  0.897800  0.353300  1
  F  F1151  1  0.358200  0.102200  0.646700  1
  F  F1152  1  0.661000  0.052300  0.771400  1
  F  F1153  1  0.339000  0.947700  0.228600  1
  F  F1154  1  0.653300  0.138600  0.683000  1
  F  F1155  1  0.346700  0.861400  0.317000  1
  F  F1156  1  0.542700  0.119700  0.683400  1
  F  F1157  1  0.457300  0.880300  0.316600  1
  F  F1158  1  0.560000  0.052000  0.758000  1
  F  F1159  1  0.440000  0.948000  0.242000  1
  F  F1160  1  0.570500  0.139600  0.737800  1
  F  F1161  1  0.429500  0.860400  0.262200  1
  F  F1162  1  0.635900  0.045700  0.696200  1
  F  F1163  1  0.364100  0.954300  0.303800  1
  F  F1164  1  0.986400  0.093900  0.203500  1
  F  F1165  1  0.013600  0.906100  0.796500  1
  F  F1166  1  0.883700  0.064600  0.203300  1
  F  F1167  1  0.116300  0.935400  0.796700  1
  F  F1168  1  0.879700  0.068000  0.292500  1
  F  F1169  1  0.120300  0.932000  0.707500  1
  F  F1170  1  0.968800  0.108800  0.272100  1
  F  F1171  1  0.031200  0.891200  0.727900  1
  F  F1172  1  0.972200  0.014300  0.268600  1
  F  F1173  1  0.027800  0.985700  0.731400  1
  F  F1174  1  0.879200  0.149900  0.212000  1
  F  F1175  1  0.120800  0.850100  0.788000  1
  F  F1176  1  0.246800  0.688500  0.232800  1
  F  F1177  1  0.753200  0.311500  0.767200  1
  F  F1178  1  0.321300  0.754900  0.211400  1
  F  F1179  1  0.678700  0.245100  0.788600  1
  F  F1180  1  0.238900  0.835900  0.187200  1
  F  F1181  1  0.761100  0.164100  0.812800  1
  F  F1182  1  0.151000  0.773500  0.203900  1
  F  F1183  1  0.849000  0.226500  0.796100  1
  F  F1184  1  0.227400  0.754900  0.270600  1
  F  F1185  1  0.772600  0.245100  0.729400  1
  F  F1186  1  0.243100  0.767800  0.147800  1
  F  F1187  1  0.756900  0.232200  0.852200  1
  F  F1188  1  0.598100  0.996300  0.109800  1
  F  F1189  1  0.401900  0.003700  0.890200  1
  F  F1190  1  0.626800  0.089200  0.074500  1
  F  F1191  1  0.373200  0.910800  0.925500  1
  F  F1192  1  0.526300  0.025700  0.031900  1
  F  F1193  1  0.473700  0.974300  0.968100  1
  F  F1194  1  0.560500  0.120600  0.996300  1
  F  F1195  1  0.439500  0.879400  0.003700  1
  F  F1196  1  0.650200  0.035900  0.030800  1
  F  F1197  1  0.349800  0.964100  0.969200  1
  F  F1198  1  0.503200  0.083200  0.087200  1
  F  F1199  1  0.496800  0.916800  0.912800  1
  F  F1200  1  0.659000  0.013800  0.330800  1
  F  F1201  1  0.341000  0.986200  0.669200  1
  F  F1202  1  0.662500  0.984600  0.265200  1
  F  F1203  1  0.337500  0.015400  0.734800  1
  F  F1204  1  0.735600  0.888300  0.321200  1
  F  F1205  1  0.264400  0.111700  0.678800  1
  F  F1206  1  0.709000  0.909900  0.392500  1
  F  F1207  1  0.291000  0.090100  0.607500  1
  F  F1208  1  0.758700  0.987300  0.306800  1
  F  F1209  1  0.241300  0.012700  0.693200  1
  F  F1210  1  0.615900  0.930000  0.330200  1
  F  F1211  1  0.384100  0.070000  0.669800  1
  F  F1212  1  0.058600  0.950700  0.486700  1.0
  F  F1213  1  0.941400  0.049300  0.513300  1.0
  F  F1214  1  0.049400  0.988200  0.552000  1.0
  F  F1215  1  0.950600  0.011800  0.448000  1.0
  F  F1216  1  0.036400  0.058100  0.462000  1.0
  F  F1217  1  0.963600  0.941900  0.538000  1.0
