
#######################################################################
#
#                 Cambridge Crystallographic Data Centre
#                                CCDC 
#
#######################################################################
#
# If this CIF has been generated from an entry in the Cambridge 
# Structural Database, then it will include bibliographic, chemical, 
# crystal, experimental, refinement or atomic coordinate data resulting 
# from the CCDC's data processing and validation procedures.
#
#######################################################################

data_EVEBIS
_chemical_formula_moiety         
'C288 H156 Fe4 N24 8+,3.5(C6 H6),8(F6 Sb1 1-),2(C2 H3 N1)'
_chemical_name_systematic        
"(C60fullerene tris(\m-N,N'-(anthracene-1,5-diyldi-4,1-phenylene)bis(1-(pyridin-2-yl)methanimine)))-tris(\m-N,N'-(anthracene-1,5-diyldi-4,1-phenylene)bis(1-(pyridin-2-yl)methanimine))-tetra-iron octakis(hexafluoroantimonate) benzene acetonitrile solvate"
_symmetry_cell_setting           triclinic
_symmetry_space_group_name_H-M   'P -1'
_symmetry_Int_Tables_number      2
_space_group_name_Hall           '-P 1'
loop_
_symmetry_equiv_pos_site_id
_symmetry_equiv_pos_as_xyz
1 x,y,z
2 -x,-y,-z
_cell_length_a                   21.8874(8)
_cell_length_b                   27.4261(9)
_cell_length_c                   30.8088(9)
_cell_angle_alpha                64.666(2)
_cell_angle_beta                 87.269(2)
_cell_angle_gamma                79.937(2)
_cell_volume                     16450.7
_exptl_crystal_colour            purple
_exptl_crystal_description       block
_cell_formula_units_Z            2
loop_
_atom_site_label
_atom_site_type_symbol
_atom_site_fract_x
_atom_site_fract_y
_atom_site_fract_z
Fe1 Fe 0.80114(8) 0.25314(7) 0.01392(6)
Fe2 Fe 0.16907(6) 0.26229(6) 0.36345(6)
Fe3 Fe 0.56078(8) 0.81159(5) 0.14220(5)
Fe4 Fe 0.90789(7) 0.17915(6) 0.61891(5)
N1 N 0.8839(4) 0.2065(4) 0.0225(3)
N2 N 0.7946(3) 0.1987(3) 0.0807(3)
N3 N 0.1776(3) 0.3250(3) 0.3019(3)
N4 N 0.0984(3) 0.3148(3) 0.3682(3)
C1 C 0.9307(6) 0.2137(6) -0.0096(5)
H1 H 0.9252 0.2445 -0.0400
C2 C 0.9844(7) 0.1776(7) 0.0012(6)
H2 H 1.0164 0.1840 -0.0215
C3 C 0.9937(7) 0.1317(7) 0.0444(6)
H3 H 1.0319 0.1068 0.0517
C4 C 0.9461(6) 0.1225(7) 0.0771(5)
H4 H 0.9505 0.0910 0.1071
C5 C 0.8924(5) 0.1609(5) 0.0644(4)
C6 C 0.8393(5) 0.1569(5) 0.0960(4)
H5 H 0.8377 0.1258 0.1257
C7 C 0.7398(4) 0.1932(4) 0.1098(3)
C8 C 0.7034(5) 0.1559(5) 0.1128(4)
H6 H 0.7139 0.1343 0.0955
C9 C 0.6523(5) 0.1496(5) 0.1405(4)
H7 H 0.6282 0.1229 0.1430
C10 C 0.6347(4) 0.1819(4) 0.1654(4)
C11 C 0.6712(5) 0.2190(5) 0.1609(4)
H8 H 0.6604 0.2418 0.1771
C12 C 0.7234(5) 0.2245(5) 0.1336(4)
H9 H 0.7480 0.2507 0.1315
C13 C 0.5813(4) 0.1733(4) 0.1977(3)
C14 C 0.5835(6) 0.1268(5) 0.2382(4)
H10 H 0.6193 0.0993 0.2449
C15 C 0.5358(6) 0.1171(5) 0.2709(5)
H11 H 0.5385 0.0826 0.2979
C16 C 0.4858(6) 0.1564(5) 0.2645(4)
H12 H 0.4558 0.1507 0.2887
C17 C 0.4777(4) 0.2054(4) 0.2225(3)
C18 C 0.4260(4) 0.2453(4) 0.2137(3)
H13 H 0.3940 0.2386 0.2365
C19 C 0.4185(4) 0.2955(4) 0.1727(3)
C20 C 0.3682(4) 0.3398(4) 0.1645(3)
C21 C 0.3661(4) 0.3877(4) 0.1242(3)
H14 H 0.3333 0.4172 0.1198
C22 C 0.4111(4) 0.3944(4) 0.0892(3)
H15 H 0.4076 0.4280 0.0611
C23 C 0.4593(4) 0.3540(4) 0.0945(3)
H16 H 0.4889 0.3592 0.0700
C24 C 0.4658(4) 0.3030(3) 0.1371(3)
C25 C 0.5180(4) 0.2628(3) 0.1461(3)
H17 H 0.5494 0.2689 0.1229
C26 C 0.5264(4) 0.2139(4) 0.1878(3)
C27 C 0.3187(4) 0.3350(4) 0.2011(3)
C28 C 0.2786(4) 0.2983(4) 0.2115(3)
H18 H 0.2832 0.2745 0.1961
C29 C 0.2328(4) 0.2952(4) 0.2431(3)
H19 H 0.2057 0.2695 0.2493
C30 C 0.2247(4) 0.3289(4) 0.2667(3)
C31 C 0.2631(4) 0.3671(4) 0.2555(3)
H20 H 0.2570 0.3923 0.2696
C32 C 0.3108(4) 0.3689(4) 0.2236(3)
H21 H 0.3384 0.3942 0.2174
C33 C 0.1377(4) 0.3695(4) 0.2937(4)
H22 H 0.1384 0.4025 0.2655
C34 C 0.0926(4) 0.3656(4) 0.3301(4)
C35 C 0.0470(4) 0.4089(4) 0.3282(4)
H23 H 0.0444 0.4441 0.3020
C36 C 0.0057(5) 0.4000(5) 0.3648(4)
H24 H -0.0274 0.4282 0.3633
C37 C 0.0129(5) 0.3504(5) 0.4029(4)
H25 H -0.0136 0.3446 0.4294
C38 C 0.0584(4) 0.3081(4) 0.4038(4)
H26 H 0.0614 0.2733 0.4304
N5 N 0.7592(4) 0.2078(3) -0.0062(3)
N6 N 0.7144(4) 0.2920(3) 0.0087(3)
N7 N 0.6429(4) 0.7623(3) 0.1623(3)
N8 N 0.5958(5) 0.8439(3) 0.1802(3)
C39 C 0.7852(6) 0.1636(5) -0.0142(4)
H27 H 0.8290 0.1525 -0.0110
C40 C 0.7500(6) 0.1348(5) -0.0265(5)
H28 H 0.7695 0.1049 -0.0329
C41 C 0.6859(6) 0.1490(5) -0.0297(5)
H29 H 0.6612 0.1286 -0.0377
C42 C 0.6581(6) 0.1934(4) -0.0211(4)
H30 H 0.6143 0.2042 -0.0231
C43 C 0.6962(5) 0.2217(4) -0.0094(4)
C44 C 0.6723(5) 0.2700(4) -0.0010(4)
H31 H 0.6292 0.2841 -0.0026
C45 C 0.6906(4) 0.3407(4) 0.0164(3)
C46 C 0.7125(5) 0.3888(3) -0.0096(3)
H32 H 0.7439 0.3900 -0.0322
C47 C 0.6899(4) 0.4349(4) -0.0033(3)
H33 H 0.7047 0.4680 -0.0221
C48 C 0.6444(4) 0.4334(3) 0.0312(3)
C49 C 0.6239(5) 0.3844(4) 0.0572(3)
H34 H 0.5936 0.3819 0.0808
C50 C 0.6468(4) 0.3391(4) 0.0491(3)
H35 H 0.6315 0.3059 0.0670
C51 C 0.6174(4) 0.4829(3) 0.0384(3)
C52 C 0.5539(4) 0.4959(4) 0.0380(3)
H36 H 0.5297 0.4717 0.0352
C53 C 0.5231(5) 0.5436(4) 0.0417(3)
H37 H 0.4790 0.5524 0.0397
C54 C 0.5577(4) 0.5764(4) 0.0480(3)
H38 H 0.5372 0.6095 0.0489
C55 C 0.6230(4) 0.5635(3) 0.0534(3)
C56 C 0.6566(4) 0.5928(4) 0.0668(4)
H39 H 0.6353 0.6240 0.0705
C57 C 0.7208(4) 0.5788(4) 0.0753(4)
C58 C 0.7561(4) 0.6059(4) 0.0931(4)
C59 C 0.8195(5) 0.5925(5) 0.0962(5)
H40 H 0.8429 0.6110 0.1077
C60 C 0.8509(5) 0.5518(5) 0.0828(6)
H41 H 0.8950 0.5443 0.0840
C61 C 0.8188(4) 0.5234(5) 0.0680(5)
H42 H 0.8406 0.4954 0.0600
C62 C 0.7519(4) 0.5352(4) 0.0644(4)
C63 C 0.7186(4) 0.5044(4) 0.0520(3)
H43 H 0.7403 0.4741 0.0470
C64 C 0.6542(4) 0.5164(3) 0.0466(3)
C65 C 0.7243(5) 0.6472(4) 0.1106(4)
C66 C 0.7392(6) 0.6993(4) 0.0914(4)
H44 H 0.7683 0.7093 0.0665
C67 C 0.7122(6) 0.7358(4) 0.1081(4)
H45 H 0.7219 0.7717 0.0939
C68 C 0.6710(5) 0.7226(3) 0.1452(4)
C69 C 0.6563(5) 0.6704(3) 0.1646(4)
H46 H 0.6273 0.6603 0.1895
C70 C 0.6843(5) 0.6333(4) 0.1475(4)
H47 H 0.6754 0.5971 0.1617
C71 C 0.6807(6) 0.7765(4) 0.1848(4)
H48 H 0.7227 0.7588 0.1922
C72 C 0.6556(6) 0.8204(5) 0.1979(4)
C73 C 0.6887(7) 0.8381(6) 0.2250(6)
H49 H 0.7306 0.8222 0.2355
C74 C 0.6571(8) 0.8796(7) 0.2354(6)
H50 H 0.6769 0.8924 0.2542
C75 C 0.5981(8) 0.9022(6) 0.2190(6)
H51 H 0.5766 0.9299 0.2275
C76 C 0.5677(6) 0.8858(4) 0.1899(4)
H52 H 0.5273 0.9041 0.1770
N9 N 0.1604(3) 0.2035(3) 0.4287(3)
N10 N 0.2178(3) 0.2852(3) 0.4012(3)
N11 N 0.5348(4) 0.7776(3) 0.1016(3)
N12 N 0.6014(4) 0.8532(3) 0.0824(3)
C77 C 0.1313(4) 0.1601(3) 0.4402(4)
H53 H 0.1074 0.1581 0.4162
C78 C 0.1355(5) 0.1192(4) 0.4854(4)
H54 H 0.1145 0.0892 0.4926
C79 C 0.1695(6) 0.1209(5) 0.5206(5)
H55 H 0.1726 0.0921 0.5522
C80 C 0.2002(6) 0.1659(5) 0.5095(5)
H56 H 0.2240 0.1685 0.5331
C81 C 0.1941(5) 0.2057(4) 0.4632(4)
C82 C 0.2229(5) 0.2537(4) 0.4470(4)
H57 H 0.2443 0.2618 0.4686
C83 C 0.2420(4) 0.3358(3) 0.3854(3)
C84 C 0.2045(5) 0.3806(4) 0.3877(4)
H58 H 0.1633 0.3779 0.3984
C85 C 0.2256(4) 0.4289(4) 0.3748(4)
H59 H 0.2004 0.4581 0.3794
C86 C 0.2839(4) 0.4355(3) 0.3552(3)
C87 C 0.3190(4) 0.3911(4) 0.3518(4)
H60 H 0.3585 0.3946 0.3378
C88 C 0.2993(4) 0.3410(4) 0.3680(4)
H61 H 0.3261 0.3104 0.3667
C89 C 0.3080(4) 0.4873(4) 0.3415(3)
C90 C 0.3166(6) 0.5049(4) 0.3759(4)
H62 H 0.3043 0.4847 0.4078
C91 C 0.3431(7) 0.5522(5) 0.3657(4)
H63 H 0.3489 0.5630 0.3905
C92 C 0.3599(6) 0.5818(5) 0.3202(3)
H64 H 0.3774 0.6135 0.3137
C93 C 0.3524(4) 0.5672(3) 0.2822(3)
C94 C 0.3702(4) 0.5965(4) 0.2365(3)
H65 H 0.3889 0.6275 0.2301
C95 C 0.3620(4) 0.5827(3) 0.1984(3)
C96 C 0.3860(4) 0.6099(3) 0.1511(3)
C97 C 0.3786(5) 0.5909(4) 0.1170(4)
H66 H 0.3967 0.6068 0.0866
C98 C 0.3444(5) 0.5481(4) 0.1268(3)
H67 H 0.3381 0.5373 0.1021
C99 C 0.3206(5) 0.5226(4) 0.1704(3)
H68 H 0.2974 0.4943 0.1761
C100 C 0.3303(4) 0.5378(3) 0.2082(3)
C101 C 0.3115(4) 0.5078(3) 0.2547(3)
H69 H 0.2899 0.4786 0.2603
C102 C 0.3234(4) 0.5194(3) 0.2932(3)
C103 C 0.4235(4) 0.6547(3) 0.1389(3)
C104 C 0.3990(4) 0.7055(3) 0.1373(3)
H70 H 0.3567 0.7129 0.1448
C105 C 0.4345(4) 0.7449(3) 0.1252(3)
H71 H 0.4165 0.7795 0.1242
C106 C 0.4965(4) 0.7361(3) 0.1143(3)
C107 C 0.5199(4) 0.6864(3) 0.1135(4)
H72 H 0.5612 0.6800 0.1038
C108 C 0.4838(4) 0.6457(3) 0.1265(3)
H73 H 0.5012 0.6113 0.1269
C109 C 0.5584(5) 0.7944(4) 0.0593(3)
H74 H 0.5511 0.7796 0.0375
C110 C 0.5962(5) 0.8365(4) 0.0468(4)
C111 C 0.6252(6) 0.8583(5) 0.0030(4)
H75 H 0.6205 0.8463 -0.0212
C112 C 0.6608(6) 0.8974(5) -0.0042(4)
H76 H 0.6826 0.9120 -0.0332
C113 C 0.6648(6) 0.9152(5) 0.0300(4)
H77 H 0.6884 0.9432 0.0245
C114 C 0.6347(5) 0.8929(4) 0.0735(4)
H78 H 0.6380 0.9061 0.0971
N13 N 0.9908(4) 0.1332(3) 0.6257(3)
N14 N 0.8881(3) 0.1321(3) 0.5897(3)
N15 N 0.2359(3) 0.2094(3) 0.3547(3)
N16 N 0.1197(3) 0.2328(3) 0.3319(3)
C115 C 1.0436(5) 0.1357(5) 0.6442(4)
H79 H 1.0439 0.1633 0.6550
C116 C 1.0972(5) 0.0998(5) 0.6480(5)
H80 H 1.1341 0.1038 0.6604
C117 C 1.0985(5) 0.0594(5) 0.6347(5)
H81 H 1.1356 0.0340 0.6381
C118 C 1.0447(4) 0.0554(4) 0.6156(4)
H82 H 1.0447 0.0277 0.6049
C119 C 0.9909(4) 0.0919(4) 0.6121(3)
C120 C 0.9327(4) 0.0945(4) 0.5912(3)
H83 H 0.9274 0.0690 0.5789
C121 C 0.8277(4) 0.1367(3) 0.5694(3)
C122 C 0.7821(4) 0.1133(4) 0.6008(3)
H84 H 0.7923 0.0900 0.6337
C123 C 0.7226(4) 0.1244(4) 0.5835(3)
H85 H 0.6918 0.1074 0.6047
C124 C 0.7051(4) 0.1604(3) 0.5348(3)
C125 C 0.7541(4) 0.1767(3) 0.5042(3)
H86 H 0.7457 0.1970 0.4706
C126 C 0.8146(4) 0.1641(3) 0.5217(3)
H87 H 0.8473 0.1747 0.5000
C127 C 0.6388(4) 0.1800(3) 0.5226(3)
C128 C 0.6026(4) 0.1919(4) 0.5572(3)
H88 H 0.6227 0.1861 0.5862
C129 C 0.5391(4) 0.2118(4) 0.5510(4)
H89 H 0.5166 0.2192 0.5752
C130 C 0.5097(4) 0.2207(4) 0.5096(3)
H90 H 0.4662 0.2334 0.5051
C131 C 0.5442(4) 0.2109(3) 0.4737(3)
C132 C 0.5176(4) 0.2201(3) 0.4270(3)
H91 H 0.4717 0.2328 0.4250
C133 C 0.5336(3) 0.1676(3) 0.4197(3)
C134 C 0.4938(3) 0.1415(3) 0.4070(3)
C135 C 0.5192(4) 0.0935(4) 0.4030(4)
H92 H 0.4926 0.0740 0.3955
C136 C 0.5816(4) 0.0734(4) 0.4095(4)
H93 H 0.5977 0.0410 0.4057
C137 C 0.6210(4) 0.0996(3) 0.4216(3)
H94 H 0.6642 0.0854 0.4265
C138 C 0.5973(3) 0.1469(3) 0.4264(3)
C139 C 0.6356(4) 0.1814(3) 0.4367(3)
H95 H 0.6806 0.1646 0.4421
C140 C 0.6087(3) 0.1911(3) 0.4799(3)
C141 C 0.4260(4) 0.1628(4) 0.3963(3)
C142 C 0.3825(4) 0.1332(6) 0.4223(5)
H96 H 0.3955 0.0987 0.4485
C143 C 0.3203(5) 0.1521(6) 0.4116(5)
H97 H 0.2911 0.1341 0.4339
C144 C 0.2996(4) 0.1957(4) 0.3701(4)
C145 C 0.3431(4) 0.2223(5) 0.3418(4)
H98 H 0.3306 0.2536 0.3126
C146 C 0.4052(4) 0.2052(5) 0.3545(4)
H99 H 0.4345 0.2240 0.3329
C147 C 0.2176(4) 0.1799(4) 0.3370(4)
H100 H 0.2454 0.1509 0.3339
C148 C 0.1523(4) 0.1921(4) 0.3216(4)
C149 C 0.1272(4) 0.1670(5) 0.2987(5)
H101 H 0.1522 0.1388 0.2924
C150 C 0.0646(4) 0.1828(5) 0.2847(5)
H102 H 0.0455 0.1657 0.2692
C151 C 0.0317(5) 0.2244(5) 0.2944(5)
H103 H -0.0111 0.2369 0.2853
C152 C 0.0610(4) 0.2485(4) 0.3177(5)
H104 H 0.0373 0.2775 0.3236
N17 N 0.9354(4) 0.2251(4) 0.6462(3)
N18 N 0.9345(4) 0.2363(3) 0.5597(3)
N19 N 0.8426(4) 0.3042(3) 0.0274(3)
N20 N 0.8135(4) 0.3043(4) -0.0534(3)
C153 C 0.9331(6) 0.2198(5) 0.6919(4)
H105 H 0.9206 0.1878 0.7161
C154 C 0.9481(7) 0.2585(6) 0.7051(5)
H106 H 0.9445 0.2535 0.7376
C155 C 0.9679(8) 0.3033(6) 0.6719(5)
H107 H 0.9794 0.3296 0.6810
C156 C 0.9714(6) 0.3111(5) 0.6245(4)
H108 H 0.9847 0.3427 0.6005
C157 C 0.9548(5) 0.2711(4) 0.6129(4)
C158 C 0.9541(5) 0.2757(4) 0.5647(4)
H109 H 0.9672 0.3056 0.5383
C159 C 0.9320(4) 0.2395(4) 0.5118(3)
C160 C 0.9724(4) 0.2013(4) 0.5007(3)
H110 H 1.0050 0.1773 0.5226
C161 C 0.9646(4) 0.1986(3) 0.4578(3)
H111 H 0.9932 0.1733 0.4502
C162 C 0.9155(3) 0.2323(3) 0.4246(3)
C163 C 0.8800(4) 0.2732(3) 0.4353(3)
H112 H 0.8495 0.2996 0.4126
C164 C 0.8884(4) 0.2760(4) 0.4782(3)
H113 H 0.8633 0.3041 0.4845
C165 C 0.9014(4) 0.2183(3) 0.3852(3)
C166 C 0.9113(4) 0.1616(3) 0.3970(3)
H114 H 0.9269 0.1366 0.4284
C167 C 0.8990(4) 0.1408(4) 0.3643(3)
H115 H 0.9063 0.1024 0.3735
C168 C 0.8764(4) 0.1766(3) 0.3191(3)
H116 H 0.8676 0.1635 0.2965
C169 C 0.8667(3) 0.2325(3) 0.3067(3)
C170 C 0.8397(3) 0.2752(3) 0.2586(3)
H117 H 0.8324 0.2584 0.2366
C171 C 0.8823(4) 0.3171(3) 0.2369(3)
C172 C 0.9034(4) 0.3370(4) 0.1904(3)
C173 C 0.9430(5) 0.3759(4) 0.1780(3)
H118 H 0.9586 0.3903 0.1465
C174 C 0.9596(5) 0.3935(5) 0.2108(3)
H119 H 0.9886 0.4179 0.2022
C175 C 0.9349(4) 0.3764(4) 0.2559(3)
H120 H 0.9439 0.3911 0.2773
C176 C 0.8969(4) 0.3375(3) 0.2692(3)
C177 C 0.8632(3) 0.3164(3) 0.3160(3)
H121 H 0.8748 0.3317 0.3380
C178 C 0.8778(3) 0.2538(3) 0.3393(3)
C179 C 0.8831(4) 0.3234(4) 0.1517(3)
C180 C 0.8481(6) 0.3649(5) 0.1127(4)
H122 H 0.8342 0.3995 0.1131
C181 C 0.8332(6) 0.3570(5) 0.0737(4)
H123 H 0.8083 0.3858 0.0481
C182 C 0.8537(5) 0.3083(4) 0.0713(3)
C183 C 0.8818(5) 0.2659(4) 0.1116(4)
H124 H 0.8912 0.2302 0.1127
C184 C 0.8968(5) 0.2739(4) 0.1510(4)
H125 H 0.9174 0.2437 0.1782
C185 C 0.8643(5) 0.3400(5) -0.0105(3)
H126 H 0.8895 0.3637 -0.0081
C186 C 0.8481(6) 0.3425(5) -0.0574(4)
C187 C 0.8609(7) 0.3824(6) -0.1007(4)
H127 H 0.8851 0.4086 -0.1022
C188 C 0.8378(7) 0.3835(6) -0.1424(4)
H128 H 0.8457 0.4106 -0.1731
C189 C 0.8030(7) 0.3443(6) -0.1383(4)
H129 H 0.7863 0.3444 -0.1663
C190 C 0.7928(5) 0.3052(5) -0.0935(4)
H130 H 0.7699 0.2779 -0.0912
N21 N 0.8804(4) 0.1272(3) 0.6814(3)
N22 N 0.8229(4) 0.2172(3) 0.6190(3)
N23 N 0.5130(4) 0.7723(3) 0.1985(3)
N24 N 0.4824(4) 0.8652(3) 0.1258(3)
C191 C 0.9138(6) 0.0815(4) 0.7136(4)
H131 H 0.9553 0.0700 0.7070
C192 C 0.8887(7) 0.0507(6) 0.7562(4)
H132 H 0.9135 0.0185 0.7788
C193 C 0.8313(7) 0.0646(6) 0.7669(5)
H133 H 0.8154 0.0423 0.7967
C194 C 0.7938(7) 0.1116(5) 0.7346(4)
H134 H 0.7520 0.1221 0.7414
C195 C 0.8209(5) 0.1427(4) 0.6918(3)
C196 C 0.7916(5) 0.1938(4) 0.6556(3)
H135 H 0.7504 0.2098 0.6588
C197 C 0.7964(4) 0.2704(3) 0.5818(3)
C198 C 0.7608(4) 0.2745(3) 0.5441(3)
H136 H 0.7467 0.2430 0.5456
C199 C 0.7460(4) 0.3230(3) 0.5051(3)
H137 H 0.7223 0.3251 0.4791
C200 C 0.7659(4) 0.3708(3) 0.5031(3)
C201 C 0.7952(5) 0.3659(4) 0.5446(4)
H138 H 0.8048 0.3977 0.5461
C202 C 0.8102(5) 0.3165(4) 0.5829(4)
H139 H 0.8305 0.3141 0.6106
C203 C 0.7632(4) 0.4208(4) 0.4575(3)
C204 C 0.8173(5) 0.4446(4) 0.4469(4)
H140 H 0.8526 0.4271 0.4680
C205 C 0.8204(6) 0.4931(5) 0.4062(5)
H141 H 0.8564 0.5095 0.4011
C206 C 0.7720(4) 0.5170(4) 0.3737(4)
H142 H 0.7754 0.5484 0.3447
C207 C 0.7177(4) 0.4950(3) 0.3834(3)
C208 C 0.6610(4) 0.5180(3) 0.3516(3)
H143 H 0.6656 0.5531 0.3234
C209 C 0.6050(4) 0.5253(3) 0.3801(3)
C210 C 0.5570(4) 0.5705(3) 0.3657(3)
C211 C 0.5056(4) 0.5672(3) 0.3956(3)
H144 H 0.4727 0.5975 0.3871
C212 C 0.5026(4) 0.5204(3) 0.4370(3)
H145 H 0.4678 0.5190 0.4569
C213 C 0.5491(4) 0.4759(3) 0.4496(3)
H146 H 0.5461 0.4435 0.4778
C214 C 0.5999(4) 0.4783(3) 0.4215(3)
C215 C 0.6496(4) 0.4292(3) 0.4278(3)
H147 H 0.6456 0.3967 0.4586
C216 C 0.7135(4) 0.4469(3) 0.4247(3)
C217 C 0.5542(4) 0.6202(3) 0.3191(3)
C218 C 0.5889(7) 0.6606(4) 0.3112(4)
H148 H 0.6210 0.6543 0.3337
C219 C 0.5774(7) 0.7101(4) 0.2708(4)
H149 H 0.6017 0.7375 0.2656
C220 C 0.5306(5) 0.7197(3) 0.2380(3)
C221 C 0.5023(6) 0.6777(4) 0.2435(4)
H150 H 0.4734 0.6822 0.2195
C222 C 0.5148(6) 0.6282(4) 0.2835(4)
H151 H 0.4950 0.5990 0.2859
C223 C 0.4587(5) 0.7975(3) 0.1997(3)
H152 H 0.4325 0.7828 0.2260
C224 C 0.4383(5) 0.8501(4) 0.1587(4)
C225 C 0.3805(5) 0.8813(4) 0.1532(4)
H153 H 0.3504 0.8695 0.1770
C226 C 0.3664(6) 0.9303(4) 0.1123(4)
H154 H 0.3270 0.9530 0.1080
C227 C 0.4107(5) 0.9451(4) 0.0785(4)
H155 H 0.4018 0.9775 0.0495
C228 C 0.4688(5) 0.9121(4) 0.0869(3)
H156 H 0.4999 0.9235 0.0639
C229 C 0.5513(4) 0.2648(3) 0.3864(3)
C230 C 0.6241(3) 0.2398(3) 0.3904(3)
C231 C 0.5194(4) 0.2794(3) 0.3392(3)
C232 C 0.5442(4) 0.2624(3) 0.3060(3)
C233 C 0.6101(4) 0.2393(3) 0.3083(3)
C234 C 0.6479(3) 0.2337(3) 0.3452(3)
C235 C 0.7079(3) 0.2483(3) 0.3352(3)
C236 C 0.6903(4) 0.2730(3) 0.2508(3)
C237 C 0.6313(4) 0.2593(4) 0.2600(3)
C238 C 0.5792(4) 0.2937(4) 0.2274(3)
C239 C 0.5894(4) 0.3409(4) 0.1865(3)
C240 C 0.6517(4) 0.3544(4) 0.1772(3)
C241 C 0.7003(4) 0.3214(3) 0.2087(3)
C242 C 0.7452(4) 0.3453(3) 0.2208(3)
C243 C 0.7412(4) 0.4020(3) 0.2019(3)
C244 C 0.6894(4) 0.4366(4) 0.1695(3)
C245 C 0.6463(4) 0.4136(4) 0.1576(3)
C246 C 0.5794(4) 0.4360(4) 0.1548(3)
C247 C 0.5614(4) 0.4810(4) 0.1644(3)
C248 C 0.6073(4) 0.5058(3) 0.1767(3)
C249 C 0.6684(4) 0.4835(4) 0.1799(3)
C250 C 0.7089(4) 0.4770(3) 0.2193(3)
C251 C 0.6838(4) 0.4930(3) 0.2541(3)
C252 C 0.6186(4) 0.5162(3) 0.2517(3)
C253 C 0.5188(4) 0.5084(4) 0.2233(3)
C254 C 0.4987(4) 0.4900(3) 0.2699(3)
C255 C 0.5374(4) 0.4842(3) 0.3080(3)
C256 C 0.5954(4) 0.4974(3) 0.2992(3)
C257 C 0.5457(4) 0.3909(4) 0.1728(3)
C258 C 0.6501(4) 0.4718(3) 0.3350(3)
C259 C 0.6394(4) 0.4184(3) 0.3826(3)
C260 C 0.5759(4) 0.4023(3) 0.3825(3)
C261 C 0.5274(4) 0.4356(3) 0.3512(3)
C262 C 0.4831(4) 0.4111(3) 0.3379(3)
C263 C 0.4886(4) 0.3550(3) 0.3570(3)
C264 C 0.5380(4) 0.3195(3) 0.3901(3)
C265 C 0.5807(4) 0.3436(3) 0.4007(3)
C266 C 0.6478(4) 0.3223(3) 0.4025(3)
C267 C 0.6664(3) 0.2759(3) 0.3935(3)
C268 C 0.7193(3) 0.2752(3) 0.3650(3)
C269 C 0.5813(4) 0.5220(3) 0.2142(3)
C270 C 0.7319(4) 0.3644(3) 0.3581(3)
C271 C 0.6802(4) 0.3655(3) 0.3859(3)
C272 C 0.7428(4) 0.4133(3) 0.3157(3)
C273 C 0.7026(4) 0.4618(3) 0.3035(3)
C274 C 0.7532(4) 0.4271(3) 0.2330(3)
C275 C 0.7702(4) 0.3968(3) 0.2798(3)
C276 C 0.7916(4) 0.3328(3) 0.3029(3)
C277 C 0.7774(4) 0.3068(3) 0.2689(3)
C278 C 0.7296(3) 0.2663(3) 0.2891(3)
C279 C 0.4516(4) 0.4211(4) 0.2585(3)
C280 C 0.4577(4) 0.3611(4) 0.2776(3)
C281 C 0.4831(4) 0.3452(4) 0.2419(3)
C282 C 0.4733(4) 0.4402(4) 0.2093(3)
C283 C 0.4932(4) 0.3934(4) 0.1993(3)
C284 C 0.5071(4) 0.4836(4) 0.1932(3)
C285 C 0.5271(4) 0.2961(4) 0.2554(3)
C286 C 0.4775(4) 0.3292(3) 0.3262(3)
C287 C 0.4645(4) 0.4459(4) 0.2879(4)
C288 C 0.7533(3) 0.3177(3) 0.3485(3)
Sb1 Sb 0.92510(7) 0.08438(6) 0.24017(5)
F1 F 0.9398(9) 0.1116(8) 0.1783(5)
F2 F 0.8770(9) 0.0418(9) 0.2336(10)
F3 F 0.9152(12) 0.0676(10) 0.3024(5)
F4 F 0.9676(7) 0.1321(6) 0.2449(7)
F5 F 0.9911(8) 0.0345(7) 0.2520(7)
F6 F 0.8552(7) 0.1369(8) 0.2274(8)
Sb2 Sb 0.2598(3) 0.75825(14) 0.22539(16)
F7 F 0.2388(10) 0.7018(7) 0.2164(6)
F8 F 0.3396(5) 0.7208(6) 0.2361(5)
F9 F 0.2889(6) 0.8114(5) 0.2365(5)
F10 F 0.1805(6) 0.7976(6) 0.2174(5)
F11 F 0.2458(6) 0.7231(6) 0.2899(4)
F12 F 0.2727(8) 0.7938(6) 0.1619(4)
Sb3 Sb 0.53932(16) 0.05916(12) 0.05873(13)
F13 F 0.5564(9) -0.0114(6) 0.1081(5)
F14 F 0.5894(12) 0.0801(9) 0.0899(8)
F15 F 0.4922(8) 0.0390(6) 0.0231(5)
F16 F 0.5346(8) 0.1264(5) 0.0087(5)
F17 F 0.6169(10) 0.0380(7) 0.0324(6)
F18 F 0.4696(13) 0.0740(10) 0.0931(8)
Sb4 Sb 0.69297(11) -0.05042(10) 0.32740(9)
F19 F 0.6402(9) -0.0011(9) 0.3436(8)
F20 F 0.6327(14) -0.0274(13) 0.2802(10)
F21 F 0.7478(11) -0.0933(13) 0.3045(11)
F22 F 0.7426(12) -0.0802(10) 0.3825(7)
F23 F 0.7268(18) 0.0115(11) 0.2920(11)
F24 F 0.6418(17) -0.1022(14) 0.3533(13)
Sb5 Sb 0.0000 0.0000 0.5000
F25 F 0.0586(4) -0.0493(3) 0.4867(3)
F26 F 0.0494(4) -0.0118(3) 0.5520(3)
F27 F 0.0364(4) 0.0581(3) 0.4620(3)
F25A F -0.0586(4) 0.0493(3) 0.5133(3)
F26A F -0.0494(4) 0.0118(3) 0.4480(3)
F27A F -0.0364(4) -0.0581(3) 0.5380(3)
Sb6 Sb 0.60544(17) 0.09539(14) 0.72191(12)
F28 F 0.6610(18) 0.0523(16) 0.7714(12)
F29 F 0.6533(10) 0.1386(8) 0.6830(8)
F30 F 0.5427(15) 0.1197(13) 0.6834(13)
F31 F 0.5600(16) 0.0520(16) 0.7580(12)
F32 F 0.5705(15) 0.1396(14) 0.7378(11)
F33 F 0.6359(15) 0.0457(11) 0.6962(12)
C289 C 0.7880(5) -0.0291(4) 0.6311(4)
H157 H 0.7554 -0.0270 0.6108
C290 C 0.8492(6) -0.0345(4) 0.6171(3)
H158 H 0.8584 -0.0360 0.5872
C291 C 0.8970(4) -0.0376(4) 0.6468(5)
H159 H 0.9388 -0.0412 0.6372
C292 C 0.8835(5) -0.0353(4) 0.6905(4)
H160 H 0.9162 -0.0374 0.7108
C293 C 0.8223(6) -0.0299(4) 0.7045(3)
H161 H 0.8131 -0.0283 0.7344
C294 C 0.7746(4) -0.0268(4) 0.6748(4)
H162 H 0.7327 -0.0231 0.6843
C295 C 0.7978(10) 0.0597(8) 0.4488(10)
H163 H 0.8203 0.0889 0.4411
C296 C 0.7743(14) 0.0355(12) 0.4944(9)
H164 H 0.7807 0.0481 0.5179
C297 C 0.7414(14) -0.0072(12) 0.5057(7)
H165 H 0.7253 -0.0238 0.5369
C298 C 0.7320(10) -0.0256(8) 0.4714(9)
H166 H 0.7095 -0.0548 0.4790
C299 C 0.7555(10) -0.0014(9) 0.4258(8)
H167 H 0.7491 -0.0140 0.4023
C300 C 0.7884(10) 0.0413(9) 0.4145(7)
H168 H 0.8045 0.0578 0.3833
C301 C 0.4100(8) 0.4058(8) 0.5015(7)
H169 H 0.4480 0.4178 0.5019
C302 C 0.4056(8) 0.3729(8) 0.4781(6)
H170 H 0.4405 0.3625 0.4626
C303 C 0.3500(11) 0.3553(7) 0.4775(6)
H171 H 0.3469 0.3328 0.4616
C304 C 0.2988(8) 0.3704(8) 0.5003(8)
H172 H 0.2608 0.3584 0.4999
C305 C 0.3032(9) 0.4033(9) 0.5237(7)
H173 H 0.2683 0.4137 0.5392
C306 C 0.3588(12) 0.4210(7) 0.5243(7)
H174 H 0.3619 0.4434 0.5403
C307 C 0.5296(5) 0.2993(5) 0.6021(5)
H175 H 0.4910 0.2939 0.5937
C308 C 0.5650(5) 0.3324(5) 0.5668(3)
H176 H 0.5506 0.3497 0.5342
C309 C 0.6216(5) 0.3403(4) 0.5791(4)
H177 H 0.6458 0.3630 0.5549
C310 C 0.6428(4) 0.3150(5) 0.6267(4)
H178 H 0.6815 0.3204 0.6351
C311 C 0.6074(6) 0.2819(5) 0.6621(3)
H179 H 0.6219 0.2646 0.6947
C312 C 0.5508(6) 0.2740(5) 0.6498(4)
H180 H 0.5266 0.2513 0.6740
N25 N 0.661(2) 0.7327(18) -0.0146(15)
C313 C 0.710(2) 0.708(2) -0.0825(17)
H181 H 0.6996 0.6732 -0.0797
H182 H 0.7557 0.7043 -0.0815
H183 H 0.6934 0.7375 -0.1129
C314 C 0.685(3) 0.719(3) -0.0426(19)
N26 N 0.3679(17) 0.1919(17) 0.5015(14)
C315 C 0.375(3) 0.1447(18) 0.524(2)
C316 C 0.394(3) 0.0855(17) 0.543(2)
H184 H 0.3651 0.0709 0.5309
H185 H 0.3947 0.0684 0.5785
H186 H 0.4361 0.0777 0.5322
loop_
_geom_bond_atom_site_label_1
_geom_bond_atom_site_label_2
_geom_bond_site_symmetry_1
_geom_bond_site_symmetry_2
Fe1 N1 1_555 1_555
Fe2 N3 1_555 1_555
Fe3 N7 1_555 1_555
Fe4 N13 1_555 1_555
N1 C1 1_555 1_555
N2 Fe1 1_555 1_555
N3 C30 1_555 1_555
N4 Fe2 1_555 1_555
C1 H1 1_555 1_555
C2 C1 1_555 1_555
H2 C2 1_555 1_555
C3 C2 1_555 1_555
H3 C3 1_555 1_555
C4 C3 1_555 1_555
H4 C4 1_555 1_555
C5 N1 1_555 1_555
C6 N2 1_555 1_555
H5 C6 1_555 1_555
C7 N2 1_555 1_555
C8 C7 1_555 1_555
H6 C8 1_555 1_555
C9 C8 1_555 1_555
H7 C9 1_555 1_555
C10 C9 1_555 1_555
C11 C10 1_555 1_555
H8 C11 1_555 1_555
C12 C7 1_555 1_555
H9 C12 1_555 1_555
C13 C10 1_555 1_555
C14 C13 1_555 1_555
H10 C14 1_555 1_555
C15 C14 1_555 1_555
H11 C15 1_555 1_555
C16 C15 1_555 1_555
H12 C16 1_555 1_555
C17 C16 1_555 1_555
C18 C17 1_555 1_555
H13 C18 1_555 1_555
C19 C18 1_555 1_555
C20 C19 1_555 1_555
C21 C20 1_555 1_555
H14 C21 1_555 1_555
C22 C21 1_555 1_555
H15 C22 1_555 1_555
C23 C22 1_555 1_555
H16 C23 1_555 1_555
C24 C19 1_555 1_555
C25 C24 1_555 1_555
H17 C25 1_555 1_555
C26 C13 1_555 1_555
C27 C20 1_555 1_555
C28 C27 1_555 1_555
H18 C28 1_555 1_555
C29 C28 1_555 1_555
H19 C29 1_555 1_555
C30 C29 1_555 1_555
C31 C30 1_555 1_555
H20 C31 1_555 1_555
C32 C27 1_555 1_555
H21 C32 1_555 1_555
C33 N3 1_555 1_555
H22 C33 1_555 1_555
C34 N4 1_555 1_555
C35 C34 1_555 1_555
H23 C35 1_555 1_555
C36 C35 1_555 1_555
H24 C36 1_555 1_555
C37 C36 1_555 1_555
H25 C37 1_555 1_555
C38 N4 1_555 1_555
H26 C38 1_555 1_555
N5 Fe1 1_555 1_555
N6 Fe1 1_555 1_555
N7 C68 1_555 1_555
N8 Fe3 1_555 1_555
C39 N5 1_555 1_555
H27 C39 1_555 1_555
C40 C39 1_555 1_555
H28 C40 1_555 1_555
C41 C40 1_555 1_555
H29 C41 1_555 1_555
C42 C41 1_555 1_555
H30 C42 1_555 1_555
C43 N5 1_555 1_555
C44 N6 1_555 1_555
H31 C44 1_555 1_555
C45 N6 1_555 1_555
C46 C45 1_555 1_555
H32 C46 1_555 1_555
C47 C46 1_555 1_555
H33 C47 1_555 1_555
C48 C47 1_555 1_555
C49 C48 1_555 1_555
H34 C49 1_555 1_555
C50 C45 1_555 1_555
H35 C50 1_555 1_555
C51 C48 1_555 1_555
C52 C51 1_555 1_555
H36 C52 1_555 1_555
C53 C52 1_555 1_555
H37 C53 1_555 1_555
C54 C53 1_555 1_555
H38 C54 1_555 1_555
C55 C54 1_555 1_555
C56 C55 1_555 1_555
H39 C56 1_555 1_555
C57 C56 1_555 1_555
C58 C57 1_555 1_555
C59 C58 1_555 1_555
H40 C59 1_555 1_555
C60 C59 1_555 1_555
H41 C60 1_555 1_555
C61 C60 1_555 1_555
H42 C61 1_555 1_555
C62 C57 1_555 1_555
C63 C62 1_555 1_555
H43 C63 1_555 1_555
C64 C51 1_555 1_555
C65 C58 1_555 1_555
C66 C65 1_555 1_555
H44 C66 1_555 1_555
C67 C66 1_555 1_555
H45 C67 1_555 1_555
C68 C67 1_555 1_555
C69 C68 1_555 1_555
H46 C69 1_555 1_555
C70 C65 1_555 1_555
H47 C70 1_555 1_555
C71 N7 1_555 1_555
H48 C71 1_555 1_555
C72 N8 1_555 1_555
C73 C72 1_555 1_555
H49 C73 1_555 1_555
C74 C73 1_555 1_555
H50 C74 1_555 1_555
C75 C74 1_555 1_555
H51 C75 1_555 1_555
C76 N8 1_555 1_555
H52 C76 1_555 1_555
N9 Fe2 1_555 1_555
N10 Fe2 1_555 1_555
N11 Fe3 1_555 1_555
N12 Fe3 1_555 1_555
C77 N9 1_555 1_555
H53 C77 1_555 1_555
C78 C77 1_555 1_555
H54 C78 1_555 1_555
C79 C78 1_555 1_555
H55 C79 1_555 1_555
C80 C79 1_555 1_555
H56 C80 1_555 1_555
C81 N9 1_555 1_555
C82 N10 1_555 1_555
H57 C82 1_555 1_555
C83 N10 1_555 1_555
C84 C83 1_555 1_555
H58 C84 1_555 1_555
C85 C84 1_555 1_555
H59 C85 1_555 1_555
C86 C85 1_555 1_555
C87 C86 1_555 1_555
H60 C87 1_555 1_555
C88 C83 1_555 1_555
H61 C88 1_555 1_555
C89 C86 1_555 1_555
C90 C89 1_555 1_555
H62 C90 1_555 1_555
C91 C90 1_555 1_555
H63 C91 1_555 1_555
C92 C91 1_555 1_555
H64 C92 1_555 1_555
C93 C92 1_555 1_555
C94 C93 1_555 1_555
H65 C94 1_555 1_555
C95 C94 1_555 1_555
C96 C95 1_555 1_555
C97 C96 1_555 1_555
H66 C97 1_555 1_555
C98 C97 1_555 1_555
H67 C98 1_555 1_555
C99 C98 1_555 1_555
H68 C99 1_555 1_555
C100 C95 1_555 1_555
C101 C100 1_555 1_555
H69 C101 1_555 1_555
C102 C89 1_555 1_555
C103 C96 1_555 1_555
C104 C103 1_555 1_555
H70 C104 1_555 1_555
C105 C104 1_555 1_555
H71 C105 1_555 1_555
C106 N11 1_555 1_555
C107 C106 1_555 1_555
H72 C107 1_555 1_555
C108 C103 1_555 1_555
H73 C108 1_555 1_555
C109 N11 1_555 1_555
H74 C109 1_555 1_555
C110 N12 1_555 1_555
C111 C110 1_555 1_555
H75 C111 1_555 1_555
C112 C111 1_555 1_555
H76 C112 1_555 1_555
C113 C112 1_555 1_555
H77 C113 1_555 1_555
C114 N12 1_555 1_555
H78 C114 1_555 1_555
N13 C115 1_555 1_555
N14 Fe4 1_555 1_555
N15 Fe2 1_555 1_555
N16 Fe2 1_555 1_555
C115 H79 1_555 1_555
C116 C115 1_555 1_555
H80 C116 1_555 1_555
C117 C116 1_555 1_555
H81 C117 1_555 1_555
C118 C117 1_555 1_555
H82 C118 1_555 1_555
C119 N13 1_555 1_555
C120 N14 1_555 1_555
H83 C120 1_555 1_555
C121 N14 1_555 1_555
C122 C121 1_555 1_555
H84 C122 1_555 1_555
C123 C122 1_555 1_555
H85 C123 1_555 1_555
C124 C123 1_555 1_555
C125 C124 1_555 1_555
H86 C125 1_555 1_555
C126 C121 1_555 1_555
H87 C126 1_555 1_555
C127 C124 1_555 1_555
C128 C127 1_555 1_555
H88 C128 1_555 1_555
C129 C128 1_555 1_555
H89 C129 1_555 1_555
C130 C129 1_555 1_555
H90 C130 1_555 1_555
C131 C130 1_555 1_555
C132 C131 1_555 1_555
H91 C132 1_555 1_555
C133 C132 1_555 1_555
C134 C133 1_555 1_555
C135 C134 1_555 1_555
H92 C135 1_555 1_555
C136 C135 1_555 1_555
H93 C136 1_555 1_555
C137 C136 1_555 1_555
H94 C137 1_555 1_555
C138 C133 1_555 1_555
C139 C138 1_555 1_555
H95 C139 1_555 1_555
C140 C127 1_555 1_555
C141 C134 1_555 1_555
C142 C141 1_555 1_555
H96 C142 1_555 1_555
C143 C142 1_555 1_555
H97 C143 1_555 1_555
C144 N15 1_555 1_555
C145 C144 1_555 1_555
H98 C145 1_555 1_555
C146 C141 1_555 1_555
H99 C146 1_555 1_555
C147 N15 1_555 1_555
H100 C147 1_555 1_555
C148 N16 1_555 1_555
C149 C148 1_555 1_555
H101 C149 1_555 1_555
C150 C149 1_555 1_555
H102 C150 1_555 1_555
C151 C150 1_555 1_555
H103 C151 1_555 1_555
C152 N16 1_555 1_555
H104 C152 1_555 1_555
N17 Fe4 1_555 1_555
N18 Fe4 1_555 1_555
N19 Fe1 1_555 1_555
N20 Fe1 1_555 1_555
C153 N17 1_555 1_555
H105 C153 1_555 1_555
C154 C153 1_555 1_555
H106 C154 1_555 1_555
C155 C154 1_555 1_555
H107 C155 1_555 1_555
C156 C155 1_555 1_555
H108 C156 1_555 1_555
C157 N17 1_555 1_555
C158 N18 1_555 1_555
H109 C158 1_555 1_555
C159 N18 1_555 1_555
C160 C159 1_555 1_555
H110 C160 1_555 1_555
C161 C160 1_555 1_555
H111 C161 1_555 1_555
C162 C161 1_555 1_555
C163 C162 1_555 1_555
H112 C163 1_555 1_555
C164 C159 1_555 1_555
H113 C164 1_555 1_555
C165 C162 1_555 1_555
C166 C165 1_555 1_555
H114 C166 1_555 1_555
C167 C166 1_555 1_555
H115 C167 1_555 1_555
C168 C167 1_555 1_555
H116 C168 1_555 1_555
C169 C168 1_555 1_555
C170 C169 1_555 1_555
H117 C170 1_555 1_555
C171 C170 1_555 1_555
C172 C171 1_555 1_555
C173 C172 1_555 1_555
H118 C173 1_555 1_555
C174 C173 1_555 1_555
H119 C174 1_555 1_555
C175 C174 1_555 1_555
H120 C175 1_555 1_555
C176 C171 1_555 1_555
C177 C176 1_555 1_555
H121 C177 1_555 1_555
C178 C165 1_555 1_555
C179 C172 1_555 1_555
C180 C179 1_555 1_555
H122 C180 1_555 1_555
C181 C180 1_555 1_555
H123 C181 1_555 1_555
C182 N19 1_555 1_555
C183 C182 1_555 1_555
H124 C183 1_555 1_555
C184 C179 1_555 1_555
H125 C184 1_555 1_555
C185 N19 1_555 1_555
H126 C185 1_555 1_555
C186 N20 1_555 1_555
C187 C186 1_555 1_555
H127 C187 1_555 1_555
C188 C187 1_555 1_555
H128 C188 1_555 1_555
C189 C188 1_555 1_555
H129 C189 1_555 1_555
C190 N20 1_555 1_555
H130 C190 1_555 1_555
N21 Fe4 1_555 1_555
N22 Fe4 1_555 1_555
N23 Fe3 1_555 1_555
N24 Fe3 1_555 1_555
C191 N21 1_555 1_555
H131 C191 1_555 1_555
C192 C191 1_555 1_555
H132 C192 1_555 1_555
C193 C192 1_555 1_555
H133 C193 1_555 1_555
C194 C193 1_555 1_555
H134 C194 1_555 1_555
C195 N21 1_555 1_555
C196 N22 1_555 1_555
H135 C196 1_555 1_555
C197 N22 1_555 1_555
C198 C197 1_555 1_555
H136 C198 1_555 1_555
C199 C198 1_555 1_555
H137 C199 1_555 1_555
C200 C199 1_555 1_555
C201 C200 1_555 1_555
H138 C201 1_555 1_555
C202 C197 1_555 1_555
H139 C202 1_555 1_555
C203 C200 1_555 1_555
C204 C203 1_555 1_555
H140 C204 1_555 1_555
C205 C204 1_555 1_555
H141 C205 1_555 1_555
C206 C205 1_555 1_555
H142 C206 1_555 1_555
C207 C206 1_555 1_555
C208 C207 1_555 1_555
H143 C208 1_555 1_555
C209 C208 1_555 1_555
C210 C209 1_555 1_555
C211 C210 1_555 1_555
H144 C211 1_555 1_555
C212 C211 1_555 1_555
H145 C212 1_555 1_555
C213 C212 1_555 1_555
H146 C213 1_555 1_555
C214 C209 1_555 1_555
C215 C214 1_555 1_555
H147 C215 1_555 1_555
C216 C203 1_555 1_555
C217 C210 1_555 1_555
C218 C217 1_555 1_555
H148 C218 1_555 1_555
C219 C218 1_555 1_555
H149 C219 1_555 1_555
C220 N23 1_555 1_555
C221 C220 1_555 1_555
H150 C221 1_555 1_555
C222 C217 1_555 1_555
H151 C222 1_555 1_555
C223 N23 1_555 1_555
H152 C223 1_555 1_555
C224 N24 1_555 1_555
C225 C224 1_555 1_555
H153 C225 1_555 1_555
C226 C225 1_555 1_555
H154 C226 1_555 1_555
C227 C226 1_555 1_555
H155 C227 1_555 1_555
C228 N24 1_555 1_555
H156 C228 1_555 1_555
C229 C132 1_555 1_555
C230 C139 1_555 1_555
C231 C229 1_555 1_555
C232 C231 1_555 1_555
C233 C232 1_555 1_555
C234 C230 1_555 1_555
C235 C234 1_555 1_555
C236 C237 1_555 1_555
C237 C233 1_555 1_555
C238 C237 1_555 1_555
C239 C238 1_555 1_555
C240 C239 1_555 1_555
C241 C236 1_555 1_555
C242 C241 1_555 1_555
C243 C242 1_555 1_555
C244 C243 1_555 1_555
C245 C240 1_555 1_555
C246 C245 1_555 1_555
C247 C246 1_555 1_555
C248 C247 1_555 1_555
C249 C244 1_555 1_555
C250 C249 1_555 1_555
C251 C250 1_555 1_555
C252 C251 1_555 1_555
C253 C254 1_555 1_555
C254 C255 1_555 1_555
C255 C256 1_555 1_555
C256 C252 1_555 1_555
C257 C239 1_555 1_555
C258 C208 1_555 1_555
C259 C215 1_555 1_555
C260 C259 1_555 1_555
C261 C255 1_555 1_555
C262 C261 1_555 1_555
C263 C262 1_555 1_555
C264 C229 1_555 1_555
C265 C260 1_555 1_555
C266 C265 1_555 1_555
C267 C230 1_555 1_555
C268 C235 1_555 1_555
C269 C248 1_555 1_555
C270 C271 1_555 1_555
C271 C259 1_555 1_555
C272 C270 1_555 1_555
C273 C251 1_555 1_555
C274 C243 1_555 1_555
C275 C272 1_555 1_555
C276 C177 1_555 1_555
C277 C170 1_555 1_555
C278 C235 1_555 1_555
C279 C280 1_555 1_555
C280 C281 1_555 1_555
C281 C283 1_555 1_555
C282 C279 1_555 1_555
C283 C257 1_555 1_555
C284 C247 1_555 1_555
C285 C232 1_555 1_555
C286 C231 1_555 1_555
C287 C254 1_555 1_555
C288 C268 1_555 1_555
Sb1 F1 1_555 1_555
F2 Sb1 1_555 1_555
F3 Sb1 1_555 1_555
F4 Sb1 1_555 1_555
F5 Sb1 1_555 1_555
F6 Sb1 1_555 1_555
Sb2 F7 1_555 1_555
F8 Sb2 1_555 1_555
F9 Sb2 1_555 1_555
F10 Sb2 1_555 1_555
F11 Sb2 1_555 1_555
F12 Sb2 1_555 1_555
Sb3 F13 1_555 1_555
F14 Sb3 1_555 1_555
F15 Sb3 1_555 1_555
F16 Sb3 1_555 1_555
F17 Sb3 1_555 1_555
F18 Sb3 1_555 1_555
Sb4 F19 1_555 1_555
F20 Sb4 1_555 1_555
F21 Sb4 1_555 1_555
F22 Sb4 1_555 1_555
F23 Sb4 1_555 1_555
F24 Sb4 1_555 1_555
Sb5 F25 1_555 1_555
F26 Sb5 1_555 1_555
F27 Sb5 1_555 1_555
Sb6 F28 1_555 1_555
F29 Sb6 1_555 1_555
F30 Sb6 1_555 1_555
F31 Sb6 1_555 1_555
F32 Sb6 1_555 1_555
F33 Sb6 1_555 1_555
C289 H157 1_555 1_555
C290 C289 1_555 1_555
H158 C290 1_555 1_555
C291 C290 1_555 1_555
H159 C291 1_555 1_555
C292 C291 1_555 1_555
H160 C292 1_555 1_555
C293 C292 1_555 1_555
H161 C293 1_555 1_555
C294 C289 1_555 1_555
H162 C294 1_555 1_555
C295 H163 1_555 1_555
C296 C295 1_555 1_555
H164 C296 1_555 1_555
C297 C296 1_555 1_555
H165 C297 1_555 1_555
C298 C297 1_555 1_555
H166 C298 1_555 1_555
C299 C298 1_555 1_555
H167 C299 1_555 1_555
C300 C295 1_555 1_555
H168 C300 1_555 1_555
C301 H169 1_555 1_555
C302 C301 1_555 1_555
H170 C302 1_555 1_555
C303 C302 1_555 1_555
H171 C303 1_555 1_555
C304 C303 1_555 1_555
H172 C304 1_555 1_555
C305 C304 1_555 1_555
H173 C305 1_555 1_555
C306 C301 1_555 1_555
H174 C306 1_555 1_555
C307 H175 1_555 1_555
C308 C307 1_555 1_555
H176 C308 1_555 1_555
C309 C308 1_555 1_555
H177 C309 1_555 1_555
C310 C309 1_555 1_555
H178 C310 1_555 1_555
C311 C310 1_555 1_555
H179 C311 1_555 1_555
C312 C307 1_555 1_555
H180 C312 1_555 1_555
N25 C314 1_555 1_555
C313 H181 1_555 1_555
H182 C313 1_555 1_555
H183 C313 1_555 1_555
C314 C313 1_555 1_555
N26 C315 1_555 1_555
C315 C316 1_555 1_555
C316 H184 1_555 1_555
H185 C316 1_555 1_555
H186 C316 1_555 1_555
F25A Sb5 1_555 1_555
F26A Sb5 1_555 1_555
F27A Sb5 1_555 1_555
C4 C5 1_555 1_555
C5 C6 1_555 1_555
C11 C12 1_555 1_555
C17 C26 1_555 1_555
C23 C24 1_555 1_555
C25 C26 1_555 1_555
C31 C32 1_555 1_555
C33 C34 1_555 1_555
C37 C38 1_555 1_555
C42 C43 1_555 1_555
C43 C44 1_555 1_555
C49 C50 1_555 1_555
C55 C64 1_555 1_555
C61 C62 1_555 1_555
C63 C64 1_555 1_555
C69 C70 1_555 1_555
C71 C72 1_555 1_555
C75 C76 1_555 1_555
C80 C81 1_555 1_555
C81 C82 1_555 1_555
C87 C88 1_555 1_555
C93 C102 1_555 1_555
C99 C100 1_555 1_555
C101 C102 1_555 1_555
C105 C106 1_555 1_555
C107 C108 1_555 1_555
C109 C110 1_555 1_555
C113 C114 1_555 1_555
C118 C119 1_555 1_555
C119 C120 1_555 1_555
C125 C126 1_555 1_555
C131 C140 1_555 1_555
C137 C138 1_555 1_555
C139 C140 1_555 1_555
C143 C144 1_555 1_555
C145 C146 1_555 1_555
C147 C148 1_555 1_555
C151 C152 1_555 1_555
C156 C157 1_555 1_555
C157 C158 1_555 1_555
C163 C164 1_555 1_555
C169 C178 1_555 1_555
C175 C176 1_555 1_555
C177 C178 1_555 1_555
C181 C182 1_555 1_555
C183 C184 1_555 1_555
C185 C186 1_555 1_555
C189 C190 1_555 1_555
C194 C195 1_555 1_555
C195 C196 1_555 1_555
C201 C202 1_555 1_555
C207 C216 1_555 1_555
C213 C214 1_555 1_555
C215 C216 1_555 1_555
C219 C220 1_555 1_555
C221 C222 1_555 1_555
C223 C224 1_555 1_555
C227 C228 1_555 1_555
C229 C230 1_555 1_555
C233 C234 1_555 1_555
C236 C278 1_555 1_555
C238 C285 1_555 1_555
C240 C241 1_555 1_555
C242 C277 1_555 1_555
C244 C245 1_555 1_555
C246 C257 1_555 1_555
C248 C249 1_555 1_555
C250 C274 1_555 1_555
C252 C269 1_555 1_555
C253 C269 1_555 1_555
C253 C284 1_555 1_555
C256 C258 1_555 1_555
C258 C259 1_555 1_555
C258 C273 1_555 1_555
C260 C261 1_555 1_555
C262 C287 1_555 1_555
C263 C264 1_555 1_555
C263 C286 1_555 1_555
C264 C265 1_555 1_555
C266 C267 1_555 1_555
C266 C271 1_555 1_555
C267 C268 1_555 1_555
C270 C288 1_555 1_555
C272 C273 1_555 1_555
C274 C275 1_555 1_555
C275 C276 1_555 1_555
C276 C277 1_555 1_555
C276 C288 1_555 1_555
C277 C278 1_555 1_555
C279 C287 1_555 1_555
C280 C286 1_555 1_555
C281 C285 1_555 1_555
C282 C283 1_555 1_555
C282 C284 1_555 1_555
C293 C294 1_555 1_555
C299 C300 1_555 1_555
C305 C306 1_555 1_555
C311 C312 1_555 1_555

#END
