# generated using pymatgen
data_Fe4Sb7H256C278N33O5F42
_symmetry_space_group_name_H-M   'P 1'
_cell_length_a   22.55760000
_cell_length_b   25.95360000
_cell_length_c   26.61170000
_cell_angle_alpha   102.01100000
_cell_angle_beta   93.56200000
_cell_angle_gamma   100.84300000
_symmetry_Int_Tables_number   1
_chemical_formula_structural   Fe4Sb7H256C278N33O5F42
_chemical_formula_sum   'Fe8 Sb14 H512 C556 N66 O10 F84'
_cell_volume   14883.29216135
_cell_formula_units_Z   2
loop_
 _symmetry_equiv_pos_site_id
 _symmetry_equiv_pos_as_xyz
  1  'x, y, z'
loop_
 _atom_site_type_symbol
 _atom_site_label
 _atom_site_symmetry_multiplicity
 _atom_site_fract_x
 _atom_site_fract_y
 _atom_site_fract_z
 _atom_site_occupancy
  Fe  Fe1  1  0.086540  0.168120  0.317670  1
  Fe  Fe2  1  0.913460  0.831880  0.682330  1
  Fe  Fe3  1  0.463020  0.744700  0.757610  1
  Fe  Fe4  1  0.536980  0.255300  0.242390  1
  Fe  Fe5  1  0.745610  0.177030  0.689210  1
  Fe  Fe6  1  0.254390  0.822970  0.310790  1
  Fe  Fe7  1  0.081240  0.200170  0.958370  1
  Fe  Fe8  1  0.918760  0.799830  0.041630  1
  Sb  Sb9  1  0.069170  0.918220  0.890200  1
  Sb  Sb10  1  0.930830  0.081780  0.109800  1
  Sb  Sb11  1  0.670780  0.960320  0.706820  1
  Sb  Sb12  1  0.329220  0.039680  0.293180  1
  Sb  Sb13  1  0.954260  0.068230  0.730130  1
  Sb  Sb14  1  0.045740  0.931770  0.269870  1
  Sb  Sb15  1  0.273360  0.919220  0.603090  1
  Sb  Sb16  1  0.726640  0.080780  0.396910  1
  Sb  Sb17  1  0.603050  0.840620  0.976000  1
  Sb  Sb18  1  0.396950  0.159380  0.024000  1
  Sb  Sb19  1  0.213240  0.276040  0.162330  1
  Sb  Sb20  1  0.786760  0.723960  0.837670  1
  Sb  Sb21  1  0.864080  0.298870  0.931150  1
  Sb  Sb22  1  0.135920  0.701130  0.068850  1
  H  H23  1  0.013900  0.062500  0.243900  1
  H  H24  1  0.986100  0.937500  0.756100  1
  H  H25  1  0.918600  0.008700  0.237700  1
  H  H26  1  0.081400  0.991300  0.762300  1
  H  H27  1  0.852200  0.031400  0.298700  1
  H  H28  1  0.147800  0.968600  0.701300  1
  H  H29  1  0.886500  0.107400  0.368200  1
  H  H30  1  0.113500  0.892600  0.631800  1
  H  H31  1  0.970000  0.192200  0.406700  1
  H  H32  1  0.030000  0.807800  0.593300  1
  H  H33  1  0.014900  0.291500  0.390100  1
  H  H34  1  0.985100  0.708500  0.609900  1
  H  H35  1  0.053000  0.372500  0.450600  1
  H  H36  1  0.947000  0.627500  0.549400  1
  H  H37  1  0.175500  0.303400  0.513400  1
  H  H38  1  0.824500  0.696600  0.486600  1
  H  H39  1  0.138100  0.222800  0.453300  1
  H  H40  1  0.861900  0.777200  0.546700  1
  H  H41  1  0.060000  0.402900  0.552000  1
  H  H42  1  0.940000  0.597100  0.448000  1
  H  H43  1  0.094600  0.479100  0.620600  1
  H  H44  1  0.905400  0.520900  0.379400  1
  H  H45  1  0.193800  0.522700  0.631900  1
  H  H46  1  0.806200  0.477300  0.368100  1
  H  H47  1  0.298200  0.528800  0.608500  1
  H  H48  1  0.701800  0.471200  0.391500  1
  H  H49  1  0.473900  0.491100  0.540000  1
  H  H50  1  0.526100  0.508900  0.460000  1
  H  H51  1  0.438600  0.419000  0.468200  1
  H  H52  1  0.561400  0.581000  0.531800  1
  H  H53  1  0.337600  0.385000  0.446600  1
  H  H54  1  0.662400  0.615000  0.553400  1
  H  H55  1  0.233900  0.377100  0.473300  1
  H  H56  1  0.766100  0.622900  0.526700  1
  H  H57  1  0.465100  0.518000  0.647200  1
  H  H58  1  0.534900  0.482000  0.352800  1
  H  H59  1  0.509900  0.596800  0.705200  1
  H  H60  1  0.490100  0.403200  0.294800  1
  H  H61  1  0.420100  0.681100  0.627500  1
  H  H62  1  0.579900  0.318900  0.372500  1
  H  H63  1  0.374200  0.601300  0.568200  1
  H  H64  1  0.625800  0.398700  0.431800  1
  H  H65  1  0.578700  0.686100  0.687400  1
  H  H66  1  0.421300  0.313900  0.312600  1
  H  H67  1  0.675800  0.753300  0.734900  1
  H  H68  1  0.324200  0.246700  0.265100  1
  H  H69  1  0.717500  0.829200  0.801200  1
  H  H70  1  0.282500  0.170800  0.198800  1
  H  H71  1  0.653500  0.874900  0.847400  1
  H  H72  1  0.346500  0.125100  0.152600  1
  H  H73  1  0.548700  0.843300  0.832800  1
  H  H74  1  0.451300  0.156700  0.167200  1
  H  H75  1  0.971500  0.180000  0.253400  1
  H  H76  1  0.028500  0.820000  0.746600  1
  H  H77  1  0.944000  0.248000  0.220000  1
  H  H78  1  0.056000  0.752000  0.780000  1
  H  H79  1  0.007100  0.333100  0.235700  1
  H  H80  1  0.992900  0.666900  0.764300  1
  H  H81  1  0.105200  0.344100  0.278100  1
  H  H82  1  0.894800  0.655900  0.721900  1
  H  H83  1  0.182700  0.300400  0.320400  1
  H  H84  1  0.817300  0.699600  0.679600  1
  H  H85  1  0.239400  0.166200  0.301700  1
  H  H86  1  0.760600  0.833800  0.698300  1
  H  H87  1  0.336500  0.172700  0.339300  1
  H  H88  1  0.663500  0.827300  0.660700  1
  H  H89  1  0.313700  0.295300  0.453300  1
  H  H90  1  0.686300  0.704700  0.546700  1
  H  H91  1  0.219900  0.293800  0.411500  1
  H  H92  1  0.780100  0.706200  0.588500  1
  H  H93  1  0.427700  0.314900  0.417400  1
  H  H94  1  0.572300  0.685100  0.582600  1
  H  H95  1  0.524400  0.330500  0.463700  1
  H  H96  1  0.475600  0.669500  0.536300  1
  H  H97  1  0.551700  0.266800  0.502200  1
  H  H98  1  0.448300  0.733200  0.497800  1
  H  H99  1  0.522200  0.180700  0.530000  1
  H  H100  1  0.477800  0.819300  0.470000  1
  H  H101  1  0.422600  0.016000  0.555800  1
  H  H102  1  0.577400  0.984000  0.444200  1
  H  H103  1  0.333000  0.993600  0.496500  1
  H  H104  1  0.667000  0.006400  0.503500  1
  H  H105  1  0.312400  0.052700  0.448900  1
  H  H106  1  0.687600  0.947300  0.551100  1
  H  H107  1  0.336900  0.141200  0.427100  1
  H  H108  1  0.663100  0.858800  0.572900  1
  H  H109  1  0.566300  0.063600  0.533400  1
  H  H110  1  0.433700  0.936400  0.466600  1
  H  H111  1  0.649800  0.082900  0.594500  1
  H  H112  1  0.350200  0.917100  0.405500  1
  H  H113  1  0.556000  0.161200  0.697800  1
  H  H114  1  0.444000  0.838800  0.302200  1
  H  H115  1  0.473800  0.145300  0.634800  1
  H  H116  1  0.526200  0.854700  0.365200  1
  H  H117  1  0.616000  0.101500  0.738600  1
  H  H118  1  0.384000  0.898500  0.261400  1
  H  H119  1  0.670100  0.094600  0.825300  1
  H  H120  1  0.329900  0.905400  0.174700  1
  H  H121  1  0.762200  0.105100  0.876400  1
  H  H122  1  0.237800  0.894900  0.123600  1
  H  H123  1  0.852400  0.140400  0.845400  1
  H  H124  1  0.147600  0.859600  0.154600  1
  H  H125  1  0.848600  0.167000  0.768300  1
  H  H126  1  0.151400  0.833000  0.231700  1
  H  H127  1  0.093500  0.169500  0.202300  1
  H  H128  1  0.906500  0.830500  0.797700  1
  H  H129  1  0.131200  0.120100  0.133900  1
  H  H130  1  0.868800  0.879900  0.866100  1
  H  H131  1  0.177900  0.050000  0.145100  1
  H  H132  1  0.822100  0.950000  0.854900  1
  H  H133  1  0.182700  0.028600  0.228000  1
  H  H134  1  0.817300  0.971400  0.772000  1
  H  H135  1  0.164400  0.056700  0.324900  1
  H  H136  1  0.835600  0.943300  0.675100  1
  H  H137  1  0.046000  0.099900  0.413500  1
  H  H138  1  0.954000  0.900100  0.586500  1
  H  H139  1  0.062800  0.100200  0.500200  1
  H  H140  1  0.937200  0.899800  0.499800  1
  H  H141  1  0.243400  0.129900  0.493000  1
  H  H142  1  0.756600  0.870100  0.507000  1
  H  H143  1  0.226300  0.129400  0.405700  1
  H  H144  1  0.773700  0.870600  0.594300  1
  H  H145  1  0.204800  0.052700  0.553100  1
  H  H146  1  0.795200  0.947300  0.446900  1
  H  H147  1  0.210900  0.045200  0.640600  1
  H  H148  1  0.789100  0.954800  0.359400  1
  H  H149  1  0.175100  0.104500  0.701200  1
  H  H150  1  0.824900  0.895500  0.298800  1
  H  H151  1  0.133600  0.185700  0.726000  1
  H  H152  1  0.866400  0.814300  0.274000  1
  H  H153  1  0.088600  0.353800  0.733500  1
  H  H154  1  0.911400  0.646200  0.266500  1
  H  H155  1  0.088500  0.364000  0.647400  1
  H  H156  1  0.911500  0.636000  0.352600  1
  H  H157  1  0.100100  0.294800  0.582100  1
  H  H158  1  0.899900  0.705200  0.417900  1
  H  H159  1  0.123600  0.204900  0.554700  1
  H  H160  1  0.876400  0.795100  0.445300  1
  H  H161  1  0.028000  0.205200  0.754000  1
  H  H162  1  0.972000  0.794800  0.246000  1
  H  H163  1  0.010900  0.197600  0.837900  1
  H  H164  1  0.989100  0.802400  0.162100  1
  H  H165  1  0.140600  0.331200  0.894600  1
  H  H166  1  0.859400  0.668800  0.105400  1
  H  H167  1  0.158200  0.339000  0.809800  1
  H  H168  1  0.841800  0.661000  0.190200  1
  H  H169  1  0.041400  0.328200  0.943300  1
  H  H170  1  0.958600  0.671800  0.056700  1
  H  H171  1  0.014300  0.362800  0.037600  1
  H  H172  1  0.985700  0.637200  0.962400  1
  H  H173  1  0.003600  0.344500  0.120100  1
  H  H174  1  0.996400  0.655500  0.879900  1
  H  H175  1  0.028500  0.266300  0.136800  1
  H  H176  1  0.971500  0.733700  0.863200  1
  H  H177  1  0.063100  0.207600  0.073400  1
  H  H178  1  0.936900  0.792400  0.926600  1
  H  H179  1  0.413000  0.849700  0.778100  1
  H  H180  1  0.587000  0.150300  0.221900  1
  H  H181  1  0.382500  0.901500  0.850100  1
  H  H182  1  0.617500  0.098500  0.149900  1
  H  H183  1  0.390200  0.879200  0.929600  1
  H  H184  1  0.609800  0.120800  0.070400  1
  H  H185  1  0.423900  0.799500  0.936100  1
  H  H186  1  0.576100  0.200500  0.063900  1
  H  H187  1  0.465300  0.717800  0.888100  1
  H  H188  1  0.534700  0.282200  0.111900  1
  H  H189  1  0.407000  0.610500  0.807000  1
  H  H190  1  0.593000  0.389500  0.193000  1
  H  H191  1  0.438800  0.529300  0.800400  1
  H  H192  1  0.561200  0.470700  0.199600  1
  H  H193  1  0.612500  0.605000  0.804400  1
  H  H194  1  0.387500  0.395000  0.195600  1
  H  H195  1  0.582000  0.686800  0.815500  1
  H  H196  1  0.418000  0.313200  0.184500  1
  H  H197  1  0.523600  0.502400  0.872800  1
  H  H198  1  0.476400  0.497600  0.127200  1
  H  H199  1  0.556000  0.422000  0.875900  1
  H  H200  1  0.444000  0.578000  0.124100  1
  H  H201  1  0.596200  0.376800  0.807300  1
  H  H202  1  0.403800  0.623200  0.192700  1
  H  H203  1  0.620500  0.368000  0.716700  1
  H  H204  1  0.379500  0.632000  0.283300  1
  H  H205  1  0.642900  0.388000  0.548400  1
  H  H206  1  0.357100  0.612000  0.451600  1
  H  H207  1  0.614300  0.471200  0.547200  1
  H  H208  1  0.385700  0.528800  0.452800  1
  H  H209  1  0.582700  0.521100  0.619300  1
  H  H210  1  0.417300  0.478900  0.380700  1
  H  H211  1  0.561700  0.529600  0.709700  1
  H  H212  1  0.438300  0.470400  0.290300  1
  H  H213  1  0.743200  0.379300  0.655700  1
  H  H214  1  0.256800  0.620700  0.344300  1
  H  H215  1  0.780100  0.303000  0.661100  1
  H  H216  1  0.219900  0.697000  0.338900  1
  H  H217  1  0.619300  0.211000  0.594400  1
  H  H218  1  0.380700  0.789000  0.405600  1
  H  H219  1  0.580600  0.287000  0.595900  1
  H  H220  1  0.419400  0.713000  0.404100  1
  H  H221  1  0.738200  0.184300  0.552600  1
  H  H222  1  0.261800  0.815700  0.447400  1
  H  H223  1  0.788400  0.100600  0.516200  1
  H  H224  1  0.211600  0.899400  0.483800  1
  H  H225  1  0.816000  0.022600  0.532400  1
  H  H226  1  0.184000  0.977400  0.467600  1
  H  H227  1  0.817800  0.008600  0.615800  1
  H  H228  1  0.182200  0.991400  0.384200  1
  H  H229  1  0.783000  0.066900  0.680300  1
  H  H230  1  0.217000  0.933100  0.319700  1
  H  H231  1  0.529800  0.827900  0.700000  1
  H  H232  1  0.470200  0.172100  0.300000  1
  H  H233  1  0.504100  0.861900  0.629600  1
  H  H234  1  0.495900  0.138100  0.370400  1
  H  H235  1  0.403000  0.843300  0.593700  1
  H  H236  1  0.597000  0.156700  0.406300  1
  H  H237  1  0.332300  0.781500  0.623900  1
  H  H238  1  0.667700  0.218500  0.376100  1
  H  H239  1  0.309800  0.721100  0.690600  1
  H  H240  1  0.690200  0.278900  0.309400  1
  H  H241  1  0.330800  0.713800  0.823100  1
  H  H242  1  0.669200  0.286200  0.176900  1
  H  H243  1  0.271000  0.644500  0.852400  1
  H  H244  1  0.729000  0.355500  0.147600  1
  H  H245  1  0.276000  0.542100  0.716700  1
  H  H246  1  0.724000  0.457900  0.283300  1
  H  H247  1  0.339200  0.610000  0.688800  1
  H  H248  1  0.660800  0.390000  0.311200  1
  H  H249  1  0.153500  0.541400  0.755500  1
  H  H250  1  0.846500  0.458600  0.244500  1
  H  H251  1  0.086100  0.472400  0.782100  1
  H  H252  1  0.913900  0.527600  0.217900  1
  H  H253  1  0.120100  0.430300  0.842200  1
  H  H254  1  0.879900  0.569700  0.157800  1
  H  H255  1  0.203200  0.415100  0.896500  1
  H  H256  1  0.796800  0.584900  0.103500  1
  H  H257  1  0.390500  0.418100  0.980600  1
  H  H258  1  0.609500  0.581900  0.019400  1
  H  H259  1  0.453600  0.495600  0.963900  1
  H  H260  1  0.546400  0.504400  0.036100  1
  H  H261  1  0.416900  0.548700  0.916200  1
  H  H262  1  0.583100  0.451300  0.083800  1
  H  H263  1  0.333700  0.561200  0.859000  1
  H  H264  1  0.666300  0.438800  0.141000  1
  H  H265  1  0.221600  0.411400  0.000600  1
  H  H266  1  0.778400  0.588600  0.999400  1
  H  H267  1  0.162600  0.332600  0.013800  1
  H  H268  1  0.837400  0.667400  0.986200  1
  H  H269  1  0.261200  0.244900  0.922000  1
  H  H270  1  0.738800  0.755100  0.078000  1
  H  H271  1  0.318100  0.325000  0.907800  1
  H  H272  1  0.681900  0.675000  0.092200  1
  H  H273  1  0.241300  0.210900  0.005500  1
  H  H274  1  0.758700  0.789100  0.994500  1
  H  H275  1  0.233300  0.120100  0.032800  1
  H  H276  1  0.766700  0.879900  0.967200  1
  H  H277  1  0.168900  0.042400  0.044600  1
  H  H278  1  0.831100  0.957600  0.955400  1
  H  H279  1  0.064800  0.032900  0.029800  1
  H  H280  1  0.935200  0.967100  0.970200  1
  H  H281  1  0.025000  0.099200  0.000800  1
  H  H282  1  0.975000  0.900800  0.999200  1
  H  H283  1  0.872900  0.175200  0.649100  1
  H  H284  1  0.127100  0.824800  0.350900  1
  H  H285  1  0.967300  0.235800  0.667100  1
  H  H286  1  0.032700  0.764200  0.332900  1
  H  H287  1  0.984300  0.309600  0.736600  1
  H  H288  1  0.015700  0.690400  0.263400  1
  H  H289  1  0.899500  0.331800  0.777000  1
  H  H290  1  0.100500  0.668200  0.223000  1
  H  H291  1  0.785800  0.305900  0.786300  1
  H  H292  1  0.214200  0.694100  0.213700  1
  H  H293  1  0.723400  0.244300  0.837400  1
  H  H294  1  0.276600  0.755700  0.162600  1
  H  H295  1  0.639900  0.254100  0.882800  1
  H  H296  1  0.360100  0.745900  0.117200  1
  H  H297  1  0.546900  0.270300  0.754700  1
  H  H298  1  0.453100  0.729700  0.245300  1
  H  H299  1  0.629100  0.257800  0.708600  1
  H  H300  1  0.370900  0.742200  0.291400  1
  H  H301  1  0.575700  0.330600  0.908300  1
  H  H302  1  0.424300  0.669400  0.091700  1
  H  H303  1  0.494300  0.338900  0.958800  1
  H  H304  1  0.505700  0.661100  0.041200  1
  H  H305  1  0.402500  0.280500  0.934700  1
  H  H306  1  0.597500  0.719500  0.065300  1
  H  H307  1  0.339000  0.201100  0.875500  1
  H  H308  1  0.661000  0.798900  0.124500  1
  H  H309  1  0.262600  0.050900  0.743800  1
  H  H310  1  0.737400  0.949100  0.256200  1
  H  H311  1  0.347000  0.038100  0.697600  1
  H  H312  1  0.653000  0.961900  0.302400  1
  H  H313  1  0.436200  0.101600  0.717200  1
  H  H314  1  0.563800  0.898400  0.282800  1
  H  H315  1  0.497100  0.181600  0.773400  1
  H  H316  1  0.502900  0.818400  0.226600  1
  H  H317  1  0.243000  0.197800  0.804300  1
  H  H318  1  0.757000  0.802200  0.195700  1
  H  H319  1  0.158200  0.210300  0.846200  1
  H  H320  1  0.841800  0.789700  0.153800  1
  H  H321  1  0.149400  0.068600  0.887800  1
  H  H322  1  0.850600  0.931400  0.112200  1
  H  H323  1  0.236400  0.056300  0.847100  1
  H  H324  1  0.763600  0.943700  0.152900  1
  H  H325  1  0.046300  0.077600  0.853000  1
  H  H326  1  0.953700  0.922400  0.147000  1
  H  H327  1  0.934600  0.041400  0.867000  1
  H  H328  1  0.065400  0.958600  0.133000  1
  H  H329  1  0.852200  0.054400  0.915500  1
  H  H330  1  0.147800  0.945600  0.084500  1
  H  H331  1  0.859500  0.135600  0.974600  1
  H  H332  1  0.140500  0.864400  0.025400  1
  H  H333  1  0.950400  0.200300  0.990500  1
  H  H334  1  0.049600  0.799700  0.009500  1
  H  H335  1  0.442500  0.024500  0.857300  1
  H  H336  1  0.557500  0.975500  0.142700  1
  H  H337  1  0.415700  0.072900  0.842500  1
  H  H338  1  0.584300  0.927100  0.157500  1
  H  H339  1  0.455200  0.082000  0.896800  1
  H  H340  1  0.544800  0.918000  0.103200  1
  H  H341  1  0.624400  0.026400  0.874900  1
  H  H342  1  0.375600  0.973600  0.125100  1
  H  H343  1  0.608700  0.991500  0.917100  1
  H  H344  1  0.391300  0.008500  0.082900  1
  H  H345  1  0.609200  0.962100  0.858000  1
  H  H346  1  0.390800  0.037900  0.142000  1
  H  H347  1  0.632900  0.706700  0.926600  1
  H  H348  1  0.367100  0.293300  0.073400  1
  H  H349  1  0.661400  0.654300  0.911100  1
  H  H350  1  0.338600  0.345700  0.088900  1
  H  H351  1  0.664800  0.684200  0.970500  1
  H  H352  1  0.335200  0.315800  0.029500  1
  H  H353  1  0.854900  0.411500  0.120900  1
  H  H354  1  0.145100  0.588500  0.879100  1
  H  H355  1  0.835100  0.355800  0.078900  1
  H  H356  1  0.164900  0.644200  0.921100  1
  H  H357  1  0.903500  0.389300  0.085400  1
  H  H358  1  0.096500  0.610700  0.914600  1
  H  H359  1  0.008600  0.575100  0.175400  1
  H  H360  1  0.991400  0.424900  0.824600  1
  H  H361  1  0.024800  0.592800  0.122900  1
  H  H362  1  0.975200  0.407200  0.877100  1
  H  H363  1  0.075900  0.578000  0.158600  1
  H  H364  1  0.924100  0.422000  0.841400  1
  H  H365  1  0.164500  0.515100  0.407300  1
  H  H366  1  0.835500  0.484900  0.592700  1
  H  H367  1  0.220800  0.513900  0.446400  1
  H  H368  1  0.779200  0.486100  0.553600  1
  H  H369  1  0.153500  0.486300  0.454500  1
  H  H370  1  0.846500  0.513700  0.545500  1
  H  H371  1  0.510500  0.974600  0.657900  1
  H  H372  1  0.489500  0.025400  0.342100  1
  H  H373  1  0.521400  0.029400  0.701200  1
  H  H374  1  0.478600  0.970600  0.298800  1
  H  H375  1  0.456900  0.006900  0.667600  1
  H  H376  1  0.543100  0.993100  0.332400  1
  H  H377  1  0.211400  0.472000  0.182800  1
  H  H378  1  0.788600  0.528000  0.817200  1
  H  H379  1  0.124000  0.430900  0.141700  1
  H  H380  1  0.876000  0.569100  0.858300  1
  H  H381  1  0.159800  0.391600  0.106900  1
  H  H382  1  0.840200  0.608400  0.893100  1
  H  H383  1  0.143700  0.442300  0.087700  1
  H  H384  1  0.856300  0.557700  0.912300  1
  H  H385  1  0.274400  0.431900  0.098900  1
  H  H386  1  0.725600  0.568100  0.901100  1
  H  H387  1  0.265600  0.406600  0.148500  1
  H  H388  1  0.734400  0.593400  0.851500  1
  H  H389  1  0.305900  0.465700  0.154600  1
  H  H390  1  0.694100  0.534300  0.845400  1
  H  H391  1  0.295000  0.550000  0.179000  1
  H  H392  1  0.705000  0.450000  0.821000  1
  H  H393  1  0.241400  0.608800  0.230500  1
  H  H394  1  0.758600  0.391200  0.769500  1
  H  H395  1  0.183100  0.588000  0.188800  1
  H  H396  1  0.816900  0.412000  0.811200  1
  H  H397  1  0.204000  0.548300  0.221800  1
  H  H398  1  0.796000  0.451700  0.778200  1
  H  H399  1  0.300100  0.631500  0.150200  1
  H  H400  1  0.699900  0.368500  0.849800  1
  H  H401  1  0.296400  0.582000  0.102100  1
  H  H402  1  0.703600  0.418000  0.897900  1
  H  H403  1  0.237300  0.606000  0.114700  1
  H  H404  1  0.762700  0.394000  0.885300  1
  H  H405  1  0.843700  0.365300  0.283200  1
  H  H406  1  0.156300  0.634700  0.716800  1
  H  H407  1  0.859600  0.307600  0.282800  1
  H  H408  1  0.140400  0.692400  0.717200  1
  H  H409  1  0.798100  0.311700  0.251800  1
  H  H410  1  0.201900  0.688300  0.748200  1
  H  H411  1  0.847800  0.427400  0.115400  1
  H  H412  1  0.152200  0.572600  0.884600  1
  H  H413  1  0.857100  0.368300  0.090100  1
  H  H414  1  0.142900  0.631700  0.909900  1
  H  H415  1  0.844000  0.407900  0.054000  1
  H  H416  1  0.156000  0.592100  0.946000  1
  H  H417  1  0.237000  0.328800  0.690600  1
  H  H418  1  0.763000  0.671200  0.309400  1
  H  H419  1  0.224600  0.375400  0.625300  1
  H  H420  1  0.775400  0.624600  0.374700  1
  H  H421  1  0.296100  0.399700  0.633100  1
  H  H422  1  0.703900  0.600300  0.366900  1
  H  H423  1  0.271400  0.336200  0.613000  1
  H  H424  1  0.728600  0.663800  0.387000  1
  H  H425  1  0.205600  0.409200  0.710100  1
  H  H426  1  0.794400  0.590800  0.289900  1
  H  H427  1  0.243900  0.400200  0.759100  1
  H  H428  1  0.756100  0.599800  0.240900  1
  H  H429  1  0.274500  0.441000  0.726000  1
  H  H430  1  0.725500  0.559000  0.274000  1
  H  H431  1  0.307500  0.332800  0.773400  1
  H  H432  1  0.692500  0.667200  0.226600  1
  H  H433  1  0.403100  0.310100  0.788200  1
  H  H434  1  0.596900  0.689900  0.211800  1
  H  H435  1  0.372400  0.278400  0.731700  1
  H  H436  1  0.627600  0.721600  0.268300  1
  H  H437  1  0.425200  0.330800  0.738600  1
  H  H438  1  0.574800  0.669200  0.261400  1
  H  H439  1  0.383500  0.404400  0.822700  1
  H  H440  1  0.616500  0.595600  0.177300  1
  H  H441  1  0.406000  0.419700  0.770800  1
  H  H442  1  0.594000  0.580300  0.229200  1
  H  H443  1  0.340500  0.427600  0.786800  1
  H  H444  1  0.659500  0.572400  0.213200  1
  H  H445  1  0.284100  0.296300  0.769700  1
  H  H446  1  0.715900  0.703700  0.230300  1
  H  H447  1  0.336200  0.312900  0.734400  1
  H  H448  1  0.663800  0.687100  0.265600  1
  H  H449  1  0.330300  0.257600  0.753000  1
  H  H450  1  0.669700  0.742400  0.247000  1
  H  H451  1  0.269600  0.203900  0.617800  1
  H  H452  1  0.730400  0.796100  0.382200  1
  H  H453  1  0.318700  0.133400  0.622700  1
  H  H454  1  0.681300  0.866600  0.377300  1
  H  H455  1  0.343100  0.162100  0.578100  1
  H  H456  1  0.656900  0.837900  0.421900  1
  H  H457  1  0.383200  0.174100  0.632600  1
  H  H458  1  0.616800  0.825900  0.367400  1
  H  H459  1  0.287300  0.184300  0.698700  1
  H  H460  1  0.712700  0.815700  0.301300  1
  H  H461  1  0.351100  0.226100  0.709200  1
  H  H462  1  0.648900  0.773900  0.290800  1
  H  H463  1  0.289200  0.247300  0.705100  1
  H  H464  1  0.710800  0.752700  0.294900  1
  H  H465  1  0.299900  0.282900  0.569500  1
  H  H466  1  0.700100  0.717100  0.430500  1
  H  H467  1  0.393000  0.336400  0.581900  1
  H  H468  1  0.607000  0.663600  0.418100  1
  H  H469  1  0.422400  0.286200  0.558500  1
  H  H470  1  0.577600  0.713800  0.441500  1
  H  H471  1  0.376200  0.306000  0.522400  1
  H  H472  1  0.623800  0.694000  0.477600  1
  H  H473  1  0.280000  0.193300  0.558300  1
  H  H474  1  0.720000  0.806700  0.441700  1
  H  H475  1  0.300800  0.210800  0.506800  1
  H  H476  1  0.699200  0.789200  0.493200  1
  H  H477  1  0.347100  0.191000  0.542900  1
  H  H478  1  0.652900  0.809000  0.457100  1
  H  H479  1  0.298100  0.377700  0.803600  1
  H  H480  1  0.701900  0.622300  0.196400  1
  H  H481  1  0.382400  0.370200  0.855100  1
  H  H482  1  0.617600  0.629800  0.144900  1
  H  H483  1  0.420900  0.366900  0.806400  1
  H  H484  1  0.579100  0.633100  0.193600  1
  H  H485  1  0.397900  0.420900  0.829200  1
  H  H486  1  0.602100  0.579100  0.170800  1
  H  H487  1  0.308000  0.292600  0.814000  1
  H  H488  1  0.692000  0.707400  0.186000  1
  H  H489  1  0.274000  0.288300  0.758200  1
  H  H490  1  0.726000  0.711700  0.241800  1
  H  H491  1  0.344000  0.284500  0.763900  1
  H  H492  1  0.656000  0.715500  0.236100  1
  H  H493  1  0.322000  0.451400  0.767000  1
  H  H494  1  0.678000  0.548600  0.233000  1
  H  H495  1  0.239100  0.445900  0.706000  1
  H  H496  1  0.760900  0.554100  0.294000  1
  H  H497  1  0.247300  0.387900  0.675800  1
  H  H498  1  0.752700  0.612100  0.324200  1
  H  H499  1  0.226100  0.395600  0.732700  1
  H  H500  1  0.773900  0.604400  0.267300  1
  H  H501  1  0.343700  0.483300  0.692400  1
  H  H502  1  0.656300  0.516700  0.307600  1
  H  H503  1  0.399100  0.460000  0.712900  1
  H  H504  1  0.600900  0.540000  0.287100  1
  H  H505  1  0.353300  0.425100  0.664200  1
  H  H506  1  0.646700  0.574900  0.335800  1
  H  H507  1  0.340600  0.232800  0.743600  1
  H  H508  1  0.659400  0.767200  0.256400  1
  H  H509  1  0.299900  0.156500  0.679100  1
  H  H510  1  0.700100  0.843500  0.320900  1
  H  H511  1  0.263700  0.203100  0.674900  1
  H  H512  1  0.736300  0.796900  0.325100  1
  H  H513  1  0.312800  0.190300  0.635600  1
  H  H514  1  0.687200  0.809700  0.364400  1
  H  H515  1  0.412400  0.183000  0.709100  1
  H  H516  1  0.587600  0.817000  0.290900  1
  H  H517  1  0.423400  0.219300  0.667300  1
  H  H518  1  0.576600  0.780700  0.332700  1
  H  H519  1  0.442400  0.245800  0.727500  1
  H  H520  1  0.557600  0.754200  0.272500  1
  H  H521  1  0.307400  0.311900  0.753300  1
  H  H522  1  0.692600  0.688100  0.246700  1
  H  H523  1  0.382500  0.381500  0.801700  1
  H  H524  1  0.617500  0.618500  0.198300  1
  H  H525  1  0.405900  0.326200  0.793600  1
  H  H526  1  0.594100  0.673800  0.206400  1
  H  H527  1  0.429000  0.369000  0.760000  1
  H  H528  1  0.571000  0.631000  0.240000  1
  H  H529  1  0.313900  0.396500  0.732100  1
  H  H530  1  0.686100  0.603500  0.267900  1
  H  H531  1  0.357100  0.379900  0.688700  1
  H  H532  1  0.642900  0.620100  0.311300  1
  H  H533  1  0.288100  0.348300  0.683000  1
  H  H534  1  0.711900  0.651700  0.317000  1
  C  C535  1  0.987400  0.072200  0.268900  1
  C  C536  1  0.012600  0.927800  0.731100  1
  C  C537  1  0.930700  0.039800  0.265000  1
  C  C538  1  0.069300  0.960200  0.735000  1
  C  C539  1  0.891800  0.052800  0.301100  1
  C  C540  1  0.108200  0.947200  0.698900  1
  C  C541  1  0.911500  0.098300  0.341700  1
  C  C542  1  0.088500  0.901700  0.658300  1
  C  C543  1  0.968400  0.129300  0.341900  1
  C  C544  1  0.031600  0.870700  0.658100  1
  C  C545  1  0.993600  0.177700  0.381100  1
  C  C546  1  0.006400  0.822300  0.618900  1
  C  C547  1  0.073100  0.249600  0.416600  1
  C  C548  1  0.926900  0.750400  0.583400  1
  C  C549  1  0.047700  0.293900  0.415300  1
  C  C550  1  0.952300  0.706100  0.584700  1
  C  C551  1  0.070600  0.342100  0.451200  1
  C  C552  1  0.929400  0.657900  0.548800  1
  C  C553  1  0.119000  0.346500  0.488000  1
  C  C554  1  0.881000  0.653500  0.512000  1
  C  C555  1  0.142900  0.301400  0.488200  1
  C  C556  1  0.857100  0.698600  0.511800  1
  C  C557  1  0.120500  0.253200  0.452700  1
  C  C558  1  0.879500  0.746800  0.547300  1
  C  C559  1  0.141600  0.398200  0.527200  1
  C  C560  1  0.858400  0.601800  0.472800  1
  C  C561  1  0.101900  0.419400  0.557900  1
  C  C562  1  0.898100  0.580600  0.442100  1
  C  C563  1  0.122400  0.465800  0.598400  1
  C  C564  1  0.877600  0.534200  0.401600  1
  C  C565  1  0.181100  0.490900  0.605500  1
  C  C566  1  0.818900  0.509100  0.394500  1
  C  C567  1  0.224700  0.471500  0.574600  1
  C  C568  1  0.775300  0.528500  0.425400  1
  C  C569  1  0.285300  0.497300  0.581800  1
  C  C570  1  0.714700  0.502700  0.418200  1
  C  C571  1  0.328300  0.478200  0.551000  1
  C  C572  1  0.671700  0.521800  0.449000  1
  C  C573  1  0.391900  0.502100  0.560200  1
  C  C574  1  0.608100  0.497900  0.439800  1
  C  C575  1  0.431400  0.478000  0.531400  1
  C  C576  1  0.568600  0.522000  0.468600  1
  C  C577  1  0.410200  0.433900  0.488600  1
  C  C578  1  0.589800  0.566100  0.511400  1
  C  C579  1  0.350900  0.412900  0.476700  1
  C  C580  1  0.649100  0.587100  0.523300  1
  C  C581  1  0.306800  0.431800  0.508800  1
  C  C582  1  0.693200  0.568200  0.491200  1
  C  C583  1  0.247200  0.407100  0.501600  1
  C  C584  1  0.752800  0.592900  0.498400  1
  C  C585  1  0.204000  0.424000  0.534300  1
  C  C586  1  0.796000  0.576000  0.465700  1
  C  C587  1  0.416400  0.551800  0.600900  1
  C  C588  1  0.583600  0.448200  0.399100  1
  C  C589  1  0.456100  0.551200  0.642700  1
  C  C590  1  0.543900  0.448800  0.357300  1
  C  C591  1  0.482200  0.597700  0.677200  1
  C  C592  1  0.517800  0.402300  0.322800  1
  C  C593  1  0.468700  0.646700  0.671900  1
  C  C594  1  0.531300  0.353300  0.328100  1
  C  C595  1  0.429300  0.647800  0.631500  1
  C  C596  1  0.570700  0.352200  0.368500  1
  C  C597  1  0.402300  0.600300  0.595900  1
  C  C598  1  0.597700  0.399700  0.404100  1
  C  C599  1  0.557000  0.707500  0.709700  1
  C  C600  1  0.443000  0.292500  0.290300  1
  C  C601  1  0.587500  0.755000  0.747500  1
  C  C602  1  0.412500  0.245000  0.252500  1
  C  C603  1  0.650300  0.772100  0.755500  1
  C  C604  1  0.349700  0.227900  0.244500  1
  C  C605  1  0.674800  0.817100  0.794100  1
  C  C606  1  0.325200  0.182900  0.205900  1
  C  C607  1  0.637200  0.843300  0.821500  1
  C  C608  1  0.362800  0.156700  0.178500  1
  C  C609  1  0.574400  0.824900  0.812200  1
  C  C610  1  0.425600  0.175100  0.187800  1
  C  C611  1  0.999400  0.213400  0.258400  1
  C  C612  1  0.000600  0.786600  0.741600  1
  C  C613  1  0.982600  0.254400  0.239200  1
  C  C614  1  0.017400  0.745600  0.760800  1
  C  C615  1  0.020000  0.304300  0.247200  1
  C  C616  1  0.980000  0.695700  0.752800  1
  C  C617  1  0.077000  0.310800  0.272600  1
  C  C618  1  0.923000  0.689200  0.727400  1
  C  C619  1  0.092400  0.267400  0.289900  1
  C  C620  1  0.907600  0.732600  0.710100  1
  C  C621  1  0.151500  0.269000  0.314900  1
  C  C622  1  0.848500  0.731000  0.685100  1
  C  C623  1  0.219900  0.229000  0.353300  1
  C  C624  1  0.780100  0.771000  0.646700  1
  C  C625  1  0.255000  0.193100  0.332100  1
  C  C626  1  0.745000  0.806900  0.667900  1
  C  C627  1  0.312400  0.196600  0.355000  1
  C  C628  1  0.687600  0.803400  0.645000  1
  C  C629  1  0.336200  0.234400  0.401100  1
  C  C630  1  0.663800  0.765600  0.598900  1
  C  C631  1  0.299400  0.269700  0.421800  1
  C  C632  1  0.700600  0.730300  0.578200  1
  C  C633  1  0.242900  0.268100  0.397700  1
  C  C634  1  0.757100  0.731900  0.602300  1
  C  C635  1  0.397700  0.239900  0.426500  1
  C  C636  1  0.602300  0.760100  0.573500  1
  C  C637  1  0.438500  0.287500  0.432600  1
  C  C638  1  0.561500  0.712500  0.567400  1
  C  C639  1  0.496700  0.297300  0.461000  1
  C  C640  1  0.503300  0.702700  0.539000  1
  C  C641  1  0.512500  0.259800  0.484000  1
  C  C642  1  0.487500  0.740200  0.516000  1
  C  C643  1  0.471900  0.209700  0.482000  1
  C  C644  1  0.528100  0.790300  0.518000  1
  C  C645  1  0.484400  0.172800  0.509200  1
  C  C646  1  0.515600  0.827200  0.490800  1
  C  C647  1  0.444500  0.124700  0.507900  1
  C  C648  1  0.555500  0.875300  0.492100  1
  C  C649  1  0.455300  0.087100  0.539600  1
  C  C650  1  0.544700  0.912900  0.460400  1
  C  C651  1  0.414900  0.040400  0.535200  1
  C  C652  1  0.585100  0.959600  0.464800  1
  C  C653  1  0.360400  0.027000  0.499900  1
  C  C654  1  0.639600  0.973000  0.500100  1
  C  C655  1  0.348700  0.061900  0.471800  1
  C  C656  1  0.651300  0.938100  0.528200  1
  C  C657  1  0.388600  0.112200  0.474900  1
  C  C658  1  0.611400  0.887800  0.525100  1
  C  C659  1  0.374400  0.149500  0.448200  1
  C  C660  1  0.625600  0.850500  0.551800  1
  C  C661  1  0.413900  0.199300  0.451300  1
  C  C662  1  0.586100  0.800700  0.548700  1
  C  C663  1  0.510900  0.101600  0.577700  1
  C  C664  1  0.489100  0.898400  0.422300  1
  C  C665  1  0.564000  0.084100  0.567000  1
  C  C666  1  0.436000  0.915900  0.433000  1
  C  C667  1  0.613900  0.095200  0.603400  1
  C  C668  1  0.386100  0.904800  0.396600  1
  C  C669  1  0.611200  0.124200  0.652200  1
  C  C670  1  0.388800  0.875800  0.347800  1
  C  C671  1  0.558600  0.141800  0.663800  1
  C  C672  1  0.441400  0.858200  0.336200  1
  C  C673  1  0.509000  0.131500  0.626500  1
  C  C674  1  0.491000  0.868500  0.373500  1
  C  C675  1  0.654900  0.118300  0.731800  1
  C  C676  1  0.345100  0.881700  0.268200  1
  C  C677  1  0.707900  0.125500  0.767800  1
  C  C678  1  0.292100  0.874500  0.232200  1
  C  C679  1  0.707400  0.109500  0.814100  1
  C  C680  1  0.292600  0.890500  0.185900  1
  C  C681  1  0.761600  0.115400  0.844100  1
  C  C682  1  0.238400  0.884600  0.155900  1
  C  C683  1  0.814300  0.136500  0.826100  1
  C  C684  1  0.185700  0.863500  0.173900  1
  C  C685  1  0.811700  0.152100  0.780000  1
  C  C686  1  0.188300  0.847900  0.220000  1
  C  C687  1  0.112000  0.140800  0.207700  1
  C  C688  1  0.888000  0.859200  0.792300  1
  C  C689  1  0.134600  0.111500  0.166800  1
  C  C690  1  0.865400  0.888500  0.833200  1
  C  C691  1  0.161800  0.070000  0.173200  1
  C  C692  1  0.838200  0.930000  0.826800  1
  C  C693  1  0.165400  0.057800  0.222200  1
  C  C694  1  0.834600  0.942200  0.777800  1
  C  C695  1  0.143100  0.089600  0.261700  1
  C  C696  1  0.856900  0.910400  0.738300  1
  C  C697  1  0.146900  0.084100  0.314900  1
  C  C698  1  0.853100  0.915900  0.685100  1
  C  C699  1  0.135000  0.116000  0.401400  1
  C  C700  1  0.865000  0.884000  0.598600  1
  C  C701  1  0.086300  0.106600  0.429600  1
  C  C702  1  0.913700  0.893400  0.570400  1
  C  C703  1  0.096700  0.106800  0.481200  1
  C  C704  1  0.903300  0.893200  0.518800  1
  C  C705  1  0.154100  0.116400  0.506500  1
  C  C706  1  0.845900  0.883600  0.493500  1
  C  C707  1  0.203000  0.124300  0.477200  1
  C  C708  1  0.797000  0.875700  0.522800  1
  C  C709  1  0.192800  0.124000  0.425200  1
  C  C710  1  0.807200  0.876000  0.574800  1
  C  C711  1  0.165300  0.117000  0.562400  1
  C  C712  1  0.834700  0.883000  0.437600  1
  C  C713  1  0.190000  0.077600  0.578100  1
  C  C714  1  0.810000  0.922400  0.421900  1
  C  C715  1  0.193900  0.072900  0.630900  1
  C  C716  1  0.806100  0.927100  0.369100  1
  C  C717  1  0.173300  0.108400  0.666500  1
  C  C718  1  0.826700  0.891600  0.333500  1
  C  C719  1  0.149100  0.151200  0.654200  1
  C  C720  1  0.850900  0.848800  0.345800  1
  C  C721  1  0.132900  0.190100  0.691500  1
  C  C722  1  0.867100  0.809900  0.308500  1
  C  C723  1  0.115600  0.235500  0.680500  1
  C  C724  1  0.884400  0.764500  0.319500  1
  C  C725  1  0.103100  0.278500  0.720000  1
  C  C726  1  0.896900  0.721500  0.280000  1
  C  C727  1  0.094600  0.324900  0.707200  1
  C  C728  1  0.905400  0.675100  0.292800  1
  C  C729  1  0.094400  0.331100  0.655100  1
  C  C730  1  0.905600  0.668900  0.344900  1
  C  C731  1  0.102500  0.290800  0.616800  1
  C  C732  1  0.897500  0.709200  0.383200  1
  C  C733  1  0.114600  0.241900  0.627900  1
  C  C734  1  0.885400  0.758100  0.372100  1
  C  C735  1  0.127200  0.201600  0.589600  1
  C  C736  1  0.872800  0.798400  0.410400  1
  C  C737  1  0.144800  0.156300  0.600900  1
  C  C738  1  0.855200  0.843700  0.399100  1
  C  C739  1  0.095500  0.271700  0.773800  1
  C  C740  1  0.904500  0.728300  0.226200  1
  C  C741  1  0.051400  0.230700  0.782500  1
  C  C742  1  0.948600  0.769300  0.217500  1
  C  C743  1  0.040900  0.226200  0.832300  1
  C  C744  1  0.959100  0.773800  0.167700  1
  C  C745  1  0.074600  0.263800  0.874100  1
  C  C746  1  0.925400  0.736200  0.125900  1
  C  C747  1  0.117900  0.305500  0.866000  1
  C  C748  1  0.882100  0.694500  0.134000  1
  C  C749  1  0.128700  0.310100  0.815400  1
  C  C750  1  0.871300  0.689900  0.184600  1
  C  C751  1  0.049100  0.297900  0.955400  1
  C  C752  1  0.950900  0.702100  0.044600  1
  C  C753  1  0.042900  0.293600  0.008400  1
  C  C754  1  0.957100  0.706400  0.991600  1
  C  C755  1  0.023400  0.330800  0.045300  1
  C  C756  1  0.976600  0.669200  0.954700  1
  C  C757  1  0.017600  0.320200  0.094000  1
  C  C758  1  0.982400  0.679800  0.906000  1
  C  C759  1  0.032400  0.274200  0.103700  1
  C  C760  1  0.967600  0.725800  0.896300  1
  C  C761  1  0.052900  0.239200  0.065900  1
  C  C762  1  0.947100  0.760800  0.934100  1
  C  C763  1  0.415500  0.839400  0.810300  1
  C  C764  1  0.584500  0.160600  0.189700  1
  C  C765  1  0.397600  0.870500  0.853200  1
  C  C766  1  0.602400  0.129500  0.146800  1
  C  C767  1  0.401400  0.857000  0.900100  1
  C  C768  1  0.598600  0.143000  0.099900  1
  C  C769  1  0.421900  0.810500  0.904300  1
  C  C770  1  0.578100  0.189500  0.095700  1
  C  C771  1  0.439200  0.780700  0.859400  1
  C  C772  1  0.560800  0.219300  0.140600  1
  C  C773  1  0.460300  0.731400  0.857900  1
  C  C774  1  0.539700  0.268600  0.142100  1
  C  C775  1  0.492100  0.656400  0.810900  1
  C  C776  1  0.507900  0.343600  0.189100  1
  C  C777  1  0.448900  0.609600  0.807000  1
  C  C778  1  0.551100  0.390400  0.193000  1
  C  C779  1  0.468100  0.561400  0.803200  1
  C  C780  1  0.531900  0.438600  0.196800  1
  C  C781  1  0.528100  0.558800  0.803200  1
  C  C782  1  0.471900  0.441200  0.196800  1
  C  C783  1  0.570800  0.606100  0.806100  1
  C  C784  1  0.429200  0.393900  0.193900  1
  C  C785  1  0.552500  0.654400  0.811400  1
  C  C786  1  0.447500  0.345600  0.188600  1
  C  C787  1  0.547900  0.506500  0.801800  1
  C  C788  1  0.452100  0.493500  0.198200  1
  C  C789  1  0.541100  0.484800  0.844200  1
  C  C790  1  0.458900  0.515200  0.155800  1
  C  C791  1  0.559800  0.436100  0.845800  1
  C  C792  1  0.440200  0.563900  0.154200  1
  C  C793  1  0.583300  0.409100  0.805000  1
  C  C794  1  0.416700  0.590900  0.195000  1
  C  C795  1  0.588800  0.428600  0.758500  1
  C  C796  1  0.411200  0.571400  0.241500  1
  C  C797  1  0.608900  0.401100  0.715400  1
  C  C798  1  0.391100  0.598900  0.284600  1
  C  C799  1  0.613100  0.419100  0.669300  1
  C  C800  1  0.386900  0.580900  0.330700  1
  C  C801  1  0.634700  0.391200  0.624400  1
  C  C802  1  0.365300  0.608800  0.375600  1
  C  C803  1  0.632300  0.408700  0.579000  1
  C  C804  1  0.367700  0.591300  0.421000  1
  C  C805  1  0.613500  0.458500  0.578200  1
  C  C806  1  0.386500  0.541500  0.421800  1
  C  C807  1  0.594500  0.488100  0.620600  1
  C  C808  1  0.405500  0.511900  0.379400  1
  C  C809  1  0.592900  0.468300  0.667400  1
  C  C810  1  0.407100  0.531700  0.332600  1
  C  C811  1  0.573400  0.496500  0.711000  1
  C  C812  1  0.426600  0.503500  0.289000  1
  C  C813  1  0.570000  0.478600  0.757400  1
  C  C814  1  0.430000  0.521400  0.242600  1
  C  C815  1  0.657000  0.341000  0.625100  1
  C  C816  1  0.343000  0.659000  0.374900  1
  C  C817  1  0.717400  0.344800  0.643800  1
  C  C818  1  0.282600  0.655200  0.356200  1
  C  C819  1  0.740200  0.299500  0.645300  1
  C  C820  1  0.259800  0.700500  0.354700  1
  C  C821  1  0.705200  0.248800  0.623900  1
  C  C822  1  0.294800  0.751200  0.376100  1
  C  C823  1  0.645100  0.245400  0.606900  1
  C  C824  1  0.354900  0.754600  0.393100  1
  C  C825  1  0.622100  0.290700  0.607700  1
  C  C826  1  0.377900  0.709300  0.392300  1
  C  C827  1  0.743100  0.174500  0.584800  1
  C  C828  1  0.256900  0.825500  0.415200  1
  C  C829  1  0.766500  0.126700  0.589500  1
  C  C830  1  0.233500  0.873300  0.410500  1
  C  C831  1  0.786700  0.092800  0.549500  1
  C  C832  1  0.213300  0.907200  0.450500  1
  C  C833  1  0.804100  0.047600  0.559400  1
  C  C834  1  0.195900  0.952400  0.440600  1
  C  C835  1  0.804100  0.038900  0.608300  1
  C  C836  1  0.195900  0.961100  0.391700  1
  C  C837  1  0.784100  0.074300  0.646800  1
  C  C838  1  0.215900  0.925700  0.353200  1
  C  C839  1  0.489100  0.817900  0.684100  1
  C  C840  1  0.510900  0.182100  0.315900  1
  C  C841  1  0.473800  0.839100  0.642800  1
  C  C842  1  0.526200  0.160900  0.357200  1
  C  C843  1  0.414700  0.827400  0.620800  1
  C  C844  1  0.585300  0.172600  0.379200  1
  C  C845  1  0.373100  0.791700  0.639200  1
  C  C846  1  0.626900  0.208300  0.360800  1
  C  C847  1  0.391100  0.770600  0.680500  1
  C  C848  1  0.608900  0.229400  0.319500  1
  C  C849  1  0.352100  0.731300  0.701300  1
  C  C850  1  0.647900  0.268700  0.298700  1
  C  C851  1  0.338700  0.668400  0.752400  1
  C  C852  1  0.661300  0.331600  0.247600  1
  C  C853  1  0.319500  0.678700  0.801400  1
  C  C854  1  0.680500  0.321300  0.198600  1
  C  C855  1  0.283700  0.637600  0.818700  1
  C  C856  1  0.716300  0.362400  0.181300  1
  C  C857  1  0.266300  0.586700  0.787000  1
  C  C858  1  0.733700  0.413300  0.213000  1
  C  C859  1  0.287200  0.577100  0.738600  1
  C  C860  1  0.712800  0.422900  0.261400  1
  C  C861  1  0.324100  0.617500  0.721500  1
  C  C862  1  0.675900  0.382500  0.278500  1
  C  C863  1  0.226300  0.541500  0.803100  1
  C  C864  1  0.773700  0.458500  0.196900  1
  C  C865  1  0.167700  0.524900  0.781300  1
  C  C866  1  0.832300  0.475100  0.218700  1
  C  C867  1  0.127200  0.482900  0.796800  1
  C  C868  1  0.872800  0.517100  0.203200  1
  C  C869  1  0.147500  0.458100  0.832400  1
  C  C870  1  0.852500  0.541900  0.167600  1
  C  C871  1  0.208500  0.472300  0.855400  1
  C  C872  1  0.791500  0.527700  0.144600  1
  C  C873  1  0.230000  0.444400  0.888500  1
  C  C874  1  0.770000  0.555600  0.111500  1
  C  C875  1  0.289900  0.457700  0.910800  1
  C  C876  1  0.710100  0.542300  0.089200  1
  C  C877  1  0.314000  0.426500  0.942300  1
  C  C878  1  0.686000  0.573500  0.057700  1
  C  C879  1  0.374000  0.439700  0.960800  1
  C  C880  1  0.626000  0.560300  0.039200  1
  C  C881  1  0.412100  0.486300  0.950300  1
  C  C882  1  0.587900  0.513700  0.049700  1
  C  C883  1  0.390800  0.517500  0.921600  1
  C  C884  1  0.609200  0.482500  0.078400  1
  C  C885  1  0.329000  0.503800  0.899400  1
  C  C886  1  0.671000  0.496200  0.100600  1
  C  C887  1  0.307300  0.531100  0.866000  1
  C  C888  1  0.692700  0.468900  0.134000  1
  C  C889  1  0.248300  0.516500  0.842000  1
  C  C890  1  0.751700  0.483500  0.158000  1
  C  C891  1  0.275700  0.376200  0.952200  1
  C  C892  1  0.724300  0.623800  0.047800  1
  C  C893  1  0.229400  0.377600  0.984000  1
  C  C894  1  0.770600  0.622400  0.016000  1
  C  C895  1  0.194400  0.330700  0.992200  1
  C  C896  1  0.805600  0.669300  0.007800  1
  C  C897  1  0.205800  0.281100  0.968600  1
  C  C898  1  0.794200  0.718900  0.031400  1
  C  C899  1  0.252400  0.278600  0.937700  1
  C  C900  1  0.747600  0.721400  0.062300  1
  C  C901  1  0.286400  0.326700  0.929700  1
  C  C902  1  0.713600  0.673300  0.070300  1
  C  C903  1  0.198500  0.201300  0.997200  1
  C  C904  1  0.801500  0.798700  0.002800  1
  C  C905  1  0.164500  0.152800  0.006900  1
  C  C906  1  0.835500  0.847200  0.993100  1
  C  C907  1  0.190600  0.114900  0.025500  1
  C  C908  1  0.809400  0.885100  0.974500  1
  C  C909  1  0.152500  0.069500  0.033100  1
  C  C910  1  0.847500  0.930500  0.966900  1
  C  C911  1  0.091200  0.063700  0.024000  1
  C  C912  1  0.908800  0.936300  0.976000  1
  C  C913  1  0.067800  0.103000  0.006000  1
  C  C914  1  0.932200  0.897000  0.994000  1
  C  C915  1  0.877600  0.207800  0.674400  1
  C  C916  1  0.122400  0.792200  0.325600  1
  C  C917  1  0.935000  0.243300  0.686700  1
  C  C918  1  0.065000  0.756700  0.313300  1
  C  C919  1  0.944800  0.287900  0.726100  1
  C  C920  1  0.055200  0.712100  0.273900  1
  C  C921  1  0.895100  0.300400  0.750100  1
  C  C922  1  0.104900  0.699600  0.249900  1
  C  C923  1  0.838900  0.266800  0.734500  1
  C  C924  1  0.161100  0.733200  0.265500  1
  C  C925  1  0.784700  0.276000  0.758500  1
  C  C926  1  0.215300  0.724000  0.241500  1
  C  C927  1  0.683500  0.249400  0.768500  1
  C  C928  1  0.316500  0.750600  0.231500  1
  C  C929  1  0.687100  0.248900  0.820400  1
  C  C930  1  0.312900  0.751100  0.179600  1
  C  C931  1  0.637500  0.254900  0.847200  1
  C  C932  1  0.362500  0.745100  0.152800  1
  C  C933  1  0.584500  0.262200  0.823500  1
  C  C934  1  0.415500  0.737800  0.176500  1
  C  C935  1  0.582400  0.264100  0.771600  1
  C  C936  1  0.417600  0.735900  0.228400  1
  C  C937  1  0.631400  0.257200  0.744200  1
  C  C938  1  0.368600  0.742800  0.255800  1
  C  C939  1  0.531100  0.267800  0.852400  1
  C  C940  1  0.468900  0.732200  0.147600  1
  C  C941  1  0.537700  0.306500  0.897500  1
  C  C942  1  0.462300  0.693500  0.102500  1
  C  C943  1  0.488900  0.311300  0.928200  1
  C  C944  1  0.511100  0.688700  0.071800  1
  C  C945  1  0.434700  0.276600  0.913800  1
  C  C946  1  0.565300  0.723400  0.086200  1
  C  C947  1  0.424400  0.234700  0.868400  1
  C  C948  1  0.575600  0.765300  0.131600  1
  C  C949  1  0.370800  0.198200  0.854000  1
  C  C950  1  0.629200  0.801800  0.146000  1
  C  C951  1  0.360100  0.157100  0.809700  1
  C  C952  1  0.639900  0.842900  0.190300  1
  C  C953  1  0.303200  0.118600  0.794000  1
  C  C954  1  0.696800  0.881400  0.206000  1
  C  C955  1  0.299800  0.076400  0.753500  1
  C  C956  1  0.700200  0.923600  0.246500  1
  C  C957  1  0.350400  0.068900  0.724900  1
  C  C958  1  0.649600  0.931100  0.275100  1
  C  C959  1  0.403200  0.106000  0.737100  1
  C  C960  1  0.596800  0.894000  0.262900  1
  C  C961  1  0.410100  0.152100  0.780000  1
  C  C962  1  0.589900  0.847900  0.220000  1
  C  C963  1  0.464600  0.186800  0.793700  1
  C  C964  1  0.535400  0.813200  0.206300  1
  C  C965  1  0.474400  0.230200  0.837100  1
  C  C966  1  0.525600  0.769800  0.162900  1
  C  C967  1  0.249400  0.125700  0.821700  1
  C  C968  1  0.750600  0.874300  0.178300  1
  C  C969  1  0.224400  0.171500  0.821600  1
  C  C970  1  0.775600  0.828500  0.178400  1
  C  C971  1  0.173900  0.178800  0.846000  1
  C  C972  1  0.826100  0.821200  0.154000  1
  C  C973  1  0.145700  0.139500  0.870700  1
  C  C974  1  0.854300  0.860500  0.129300  1
  C  C975  1  0.168700  0.095000  0.871000  1
  C  C976  1  0.831300  0.905000  0.129000  1
  C  C977  1  0.220700  0.087700  0.846600  1
  C  C978  1  0.779300  0.912300  0.153400  1
  C  C979  1  0.044900  0.107900  0.879600  1
  C  C980  1  0.955100  0.892100  0.120400  1
  C  C981  1  0.990300  0.112400  0.905000  1
  C  C982  1  0.009700  0.887600  0.095000  1
  C  C983  1  0.937400  0.073100  0.893200  1
  C  C984  1  0.062600  0.926900  0.106800  1
  C  C985  1  0.888400  0.081300  0.921000  1
  C  C986  1  0.111600  0.918700  0.079000  1
  C  C987  1  0.893100  0.128700  0.956500  1
  C  C988  1  0.106900  0.871300  0.043500  1
  C  C989  1  0.947700  0.167200  0.966100  1
  C  C990  1  0.052300  0.832800  0.033900  1
  C  C991  1  0.505600  0.077500  0.835400  1
  C  C992  1  0.494400  0.922500  0.164600  1
  C  C993  1  0.450100  0.063600  0.860300  1
  C  C994  1  0.549900  0.936400  0.139700  1
  C  C995  1  0.692200  0.992600  0.895400  1
  C  C996  1  0.307800  0.007400  0.104600  1
  C  C997  1  0.628400  0.993200  0.885600  1
  C  C998  1  0.371600  0.006800  0.114400  1
  C  C999  1  0.583200  0.640900  0.941300  1
  C  C1000  1  0.416800  0.359100  0.058700  1
  C  C1001  1  0.640000  0.674100  0.937100  1
  C  C1002  1  0.360000  0.325900  0.062900  1
  C  C1003  1  0.884300  0.351300  0.140500  1
  C  C1004  1  0.115700  0.648700  0.859500  1
  C  C1005  1  0.868300  0.379100  0.103700  1
  C  C1006  1  0.131700  0.620900  0.896300  1
  C  C1007  1  0.013500  0.506000  0.114400  1
  C  C1008  1  0.986500  0.494000  0.885600  1
  C  C1009  1  0.032600  0.569400  0.146000  1
  C  C1010  1  0.967400  0.430600  0.854000  1
  C  C1011  1  0.188500  0.442400  0.395700  1
  C  C1012  1  0.811500  0.557600  0.604300  1
  C  C1013  1  0.181200  0.493800  0.428800  1
  C  C1014  1  0.818800  0.506200  0.571200  1
  C  C1015  1  0.471300  0.966500  0.722300  1
  C  C1016  1  0.528700  0.033500  0.277700  1
  C  C1017  1  0.491700  0.996800  0.684100  1
  C  C1018  1  0.508300  0.003200  0.315900  1
  C  C1019  1  0.214800  0.463200  0.144800  1
  C  C1020  1  0.785200  0.536800  0.855200  1
  C  C1021  1  0.155400  0.429100  0.117900  1
  C  C1022  1  0.844600  0.570900  0.882100  1
  C  C1023  1  0.269900  0.439900  0.135900  1
  C  C1024  1  0.730100  0.560100  0.864100  1
  C  C1025  1  0.258100  0.559600  0.163700  1
  C  C1026  1  0.741900  0.440400  0.836300  1
  C  C1027  1  0.218100  0.577800  0.204800  1
  C  C1028  1  0.781900  0.422200  0.795200  1
  C  C1029  1  0.274300  0.598100  0.129800  1
  C  C1030  1  0.725700  0.401900  0.870200  1
  C  C1031  1  0.330800  0.361100  0.787100  1
  C  C1032  1  0.669200  0.638900  0.212900  1
  C  C1033  1  0.387900  0.381500  0.822500  1
  C  C1034  1  0.612100  0.618500  0.177500  1
  C  C1035  1  0.313000  0.301500  0.780200  1
  C  C1036  1  0.687000  0.698500  0.219800  1
  C  C1037  1  0.317600  0.425600  0.732700  1
  C  C1038  1  0.682400  0.574400  0.267300  1
  C  C1039  1  0.251700  0.412600  0.709800  1
  C  C1040  1  0.748300  0.587400  0.290200  1
  C  C1041  1  0.356800  0.450600  0.697600  1
  C  C1042  1  0.643200  0.549400  0.302400  1
  C  C1043  1  0.872000  0.331000  0.216900  1
  C  C1044  1  0.128000  0.669000  0.783100  1
  C  C1045  1  0.841000  0.329000  0.262300  1
  C  C1046  1  0.159000  0.671000  0.737700  1
  C  C1047  1  0.864000  0.406000  0.087000  1
  C  C1048  1  0.136000  0.594000  0.913000  1
  C  C1049  1  0.929000  0.427000  0.089000  1
  C  C1050  1  0.071000  0.573000  0.911000  1
  C  C1051  1  0.267000  0.362000  0.690600  1
  C  C1052  1  0.733000  0.638000  0.309400  1
  C  C1053  1  0.265000  0.369000  0.635800  1
  C  C1054  1  0.735000  0.631000  0.364200  1
  C  C1055  1  0.246000  0.407000  0.724000  1
  C  C1056  1  0.754000  0.593000  0.276000  1
  C  C1057  1  0.343000  0.349000  0.757400  1
  C  C1058  1  0.657000  0.651000  0.242600  1
  C  C1059  1  0.390000  0.314000  0.754000  1
  C  C1060  1  0.610000  0.686000  0.246000  1
  C  C1061  1  0.371000  0.405000  0.787000  1
  C  C1062  1  0.629000  0.595000  0.213000  1
  C  C1063  1  0.267000  0.254000  0.695000  1
  C  C1064  1  0.733000  0.746000  0.305000  1
  C  C1065  1  0.308000  0.283000  0.742000  1
  C  C1066  1  0.692000  0.717000  0.258000  1
  C  C1067  1  0.312000  0.211900  0.635200  1
  C  C1068  1  0.688000  0.788100  0.364800  1
  C  C1069  1  0.342000  0.166500  0.615500  1
  C  C1070  1  0.658000  0.833500  0.384500  1
  C  C1071  1  0.310000  0.218000  0.691900  1
  C  C1072  1  0.690000  0.782000  0.308100  1
  C  C1073  1  0.335000  0.265100  0.571300  1
  C  C1074  1  0.665000  0.734900  0.428700  1
  C  C1075  1  0.385800  0.301000  0.557400  1
  C  C1076  1  0.614200  0.699000  0.442600  1
  C  C1077  1  0.314000  0.211000  0.543000  1
  C  C1078  1  0.686000  0.789000  0.457000  1
  C  C1079  1  0.351000  0.231000  0.707000  1
  C  C1080  1  0.649000  0.769000  0.293000  1
  C  C1081  1  0.303000  0.192000  0.671000  1
  C  C1082  1  0.697000  0.808000  0.329000  1
  C  C1083  1  0.413000  0.219000  0.702000  1
  C  C1084  1  0.587000  0.781000  0.298000  1
  C  C1085  1  0.343000  0.327000  0.736000  1
  C  C1086  1  0.657000  0.673000  0.264000  1
  C  C1087  1  0.394000  0.353000  0.776000  1
  C  C1088  1  0.606000  0.647000  0.224000  1
  C  C1089  1  0.324000  0.366000  0.708000  1
  C  C1090  1  0.676000  0.634000  0.292000  1
  N  N1091  1  0.007200  0.117000  0.306400  1
  N  N1092  1  0.992800  0.883000  0.693600  1
  N  N1093  1  0.048800  0.200300  0.379900  1
  N  N1094  1  0.951200  0.799700  0.620100  1
  N  N1095  1  0.499000  0.695800  0.708000  1
  N  N1096  1  0.501000  0.304200  0.292000  1
  N  N1097  1  0.549800  0.781300  0.774600  1
  N  N1098  1  0.450200  0.218700  0.225400  1
  N  N1099  1  0.054100  0.219600  0.283900  1
  N  N1100  1  0.945900  0.780400  0.716100  1
  N  N1101  1  0.160600  0.227100  0.329480  1
  N  N1102  1  0.839400  0.772900  0.670520  1
  N  N1103  1  0.661900  0.135400  0.690370  1
  N  N1104  1  0.338100  0.864600  0.309630  1
  N  N1105  1  0.759900  0.147400  0.750700  1
  N  N1106  1  0.240100  0.852600  0.249300  1
  N  N1107  1  0.115200  0.130300  0.254800  1
  N  N1108  1  0.884800  0.869700  0.745200  1
  N  N1109  1  0.125700  0.117270  0.347660  1
  N  N1110  1  0.874300  0.882730  0.652340  1
  N  N1111  1  0.065500  0.258700  0.925940  1
  N  N1112  1  0.934500  0.741300  0.074060  1
  N  N1113  1  0.058900  0.248600  0.018810  1
  N  N1114  1  0.941100  0.751400  0.981190  1
  N  N1115  1  0.436300  0.795100  0.813500  1
  N  N1116  1  0.563700  0.204900  0.186500  1
  N  N1117  1  0.471900  0.707000  0.814100  1
  N  N1118  1  0.528100  0.293000  0.185900  1
  N  N1119  1  0.729700  0.202200  0.626200  1
  N  N1120  1  0.270300  0.797800  0.373800  1
  N  N1121  1  0.766400  0.118200  0.638600  1
  N  N1122  1  0.233600  0.881800  0.361400  1
  N  N1123  1  0.449000  0.784000  0.702500  1
  N  N1124  1  0.551000  0.216000  0.297500  1
  N  N1125  1  0.376500  0.711000  0.734300  1
  N  N1126  1  0.623500  0.289000  0.265700  1
  N  N1127  1  0.170100  0.231900  0.976910  1
  N  N1128  1  0.829900  0.768100  0.023090  1
  N  N1129  1  0.103900  0.146400  0.995800  1
  N  N1130  1  0.896100  0.853600  0.004200  1
  N  N1131  1  0.829800  0.220200  0.698400  1
  N  N1132  1  0.170200  0.779800  0.301600  1
  N  N1133  1  0.734800  0.241600  0.740200  1
  N  N1134  1  0.265200  0.758400  0.259800  1
  N  N1135  1  0.091300  0.146600  0.894660  1
  N  N1136  1  0.908700  0.853400  0.105340  1
  N  N1137  1  0.996100  0.158100  0.941470  1
  N  N1138  1  0.003900  0.841900  0.058530  1
  N  N1139  1  0.548000  0.090500  0.815700  1
  N  N1140  1  0.452000  0.909500  0.184300  1
  N  N1141  1  0.742600  0.994100  0.901700  1
  N  N1142  1  0.257400  0.005900  0.098300  1
  N  N1143  1  0.538700  0.612400  0.945700  1
  N  N1144  1  0.461300  0.387600  0.054300  1
  N  N1145  1  0.896600  0.327400  0.179200  1
  N  N1146  1  0.103400  0.672600  0.820800  1
  N  N1147  1  0.994900  0.461800  0.086400  1
  N  N1148  1  0.005100  0.538200  0.913600  1
  N  N1149  1  0.185200  0.400100  0.371100  1
  N  N1150  1  0.814800  0.599900  0.628900  1
  N  N1151  1  0.439400  0.943100  0.746500  1
  N  N1152  1  0.560600  0.056900  0.253500  1
  N  N1153  1  0.980000  0.451000  0.101000  1
  N  N1154  1  0.020000  0.549000  0.899000  1
  N  N1155  1  0.244000  0.250000  0.653000  1
  N  N1156  1  0.756000  0.750000  0.347000  1
  O  O1157  1  0.219800  0.512600  0.126200  1
  O  O1158  1  0.780200  0.487400  0.873800  1
  O  O1159  1  0.338600  0.377600  0.739200  1
  O  O1160  1  0.661400  0.622400  0.260800  1
  O  O1161  1  0.326000  0.353000  0.705500  1
  O  O1162  1  0.674000  0.647000  0.294500  1
  O  O1163  1  0.345200  0.261800  0.625000  1
  O  O1164  1  0.654800  0.738200  0.375000  1
  O  O1165  1  0.356000  0.284700  0.697000  1
  O  O1166  1  0.644000  0.715300  0.303000  1
  F  F1167  1  0.998000  0.866200  0.886200  1
  F  F1168  1  0.002000  0.133800  0.113800  1
  F  F1169  1  0.082200  0.887400  0.823100  1
  F  F1170  1  0.917800  0.112600  0.176900  1
  F  F1171  1  0.135300  0.973600  0.894300  1
  F  F1172  1  0.864700  0.026400  0.105700  1
  F  F1173  1  0.020600  0.960300  0.865700  1
  F  F1174  1  0.979400  0.039700  0.134300  1
  F  F1175  1  0.056200  0.947100  0.957900  1
  F  F1176  1  0.943800  0.052900  0.042100  1
  F  F1177  1  0.116400  0.878900  0.917100  1
  F  F1178  1  0.883600  0.121100  0.082900  1
  F  F1179  1  0.695700  0.912100  0.743000  1
  F  F1180  1  0.304300  0.087900  0.257000  1
  F  F1181  1  0.604400  0.906500  0.673800  1
  F  F1182  1  0.395600  0.093500  0.326200  1
  F  F1183  1  0.717900  0.935510  0.654750  1
  F  F1184  1  0.282100  0.064490  0.345250  1
  F  F1185  1  0.740200  0.012630  0.738600  1
  F  F1186  1  0.259800  0.987370  0.261400  1
  F  F1187  1  0.624900  0.987800  0.757300  1
  F  F1188  1  0.375100  0.012200  0.242700  1
  F  F1189  1  0.649900  0.007700  0.668200  1
  F  F1190  1  0.350100  0.992300  0.331800  1
  F  F1191  1  0.961900  0.025140  0.777710  1
  F  F1192  1  0.038100  0.974860  0.222290  1
  F  F1193  1  0.958300  0.010000  0.676840  1
  F  F1194  1  0.041700  0.990000  0.323160  1
  F  F1195  1  0.038600  0.091800  0.740800  1
  F  F1196  1  0.961400  0.908200  0.259200  1
  F  F1197  1  0.945500  0.112300  0.684800  1
  F  F1198  1  0.054500  0.887700  0.315200  1
  F  F1199  1  0.945400  0.123820  0.784300  1
  F  F1200  1  0.054600  0.876180  0.215700  1
  F  F1201  1  0.869500  0.042860  0.723500  1
  F  F1202  1  0.130500  0.957140  0.276500  1
  F  F1203  1  0.282200  0.864100  0.635500  1
  F  F1204  1  0.717800  0.135900  0.364500  1
  F  F1205  1  0.196000  0.882600  0.575700  1
  F  F1206  1  0.804000  0.117400  0.424300  1
  F  F1207  1  0.303100  0.883600  0.545000  1
  F  F1208  1  0.696900  0.116400  0.455000  1
  F  F1209  1  0.260500  0.972800  0.569000  1
  F  F1210  1  0.739500  0.027200  0.431000  1
  F  F1211  1  0.243800  0.956800  0.661400  1
  F  F1212  1  0.756200  0.043200  0.338600  1
  F  F1213  1  0.352100  0.958100  0.625800  1
  F  F1214  1  0.647900  0.041900  0.374200  1
  F  F1215  1  0.667000  0.879300  0.950300  1
  F  F1216  1  0.333000  0.120700  0.049700  1
  F  F1217  1  0.556100  0.875100  0.938800  1
  F  F1218  1  0.443900  0.124900  0.061200  1
  F  F1219  1  0.586500  0.785600  0.916200  1
  F  F1220  1  0.413500  0.214400  0.083800  1
  F  F1221  1  0.533300  0.803800  0.999400  1
  F  F1222  1  0.466700  0.196200  0.000600  1
  F  F1223  1  0.613000  0.891300  0.033400  1
  F  F1224  1  0.387000  0.108700  0.966600  1
  F  F1225  1  0.651600  0.805700  0.008600  1
  F  F1226  1  0.348400  0.194300  0.991400  1
  F  F1227  1  0.134300  0.233800  0.153800  1
  F  F1228  1  0.865700  0.766200  0.846200  1
  F  F1229  1  0.224500  0.255400  0.225000  1
  F  F1230  1  0.775500  0.744600  0.775000  1
  F  F1231  1  0.241700  0.217400  0.127800  1
  F  F1232  1  0.758300  0.782600  0.872200  1
  F  F1233  1  0.200800  0.296300  0.099200  1
  F  F1234  1  0.799200  0.703700  0.900800  1
  F  F1235  1  0.291300  0.317800  0.174900  1
  F  F1236  1  0.708700  0.682200  0.825100  1
  F  F1237  1  0.181900  0.333333  0.196500  1
  F  F1238  1  0.818100  0.666667  0.803500  1
  F  F1239  1  0.796300  0.242300  0.909300  1
  F  F1240  1  0.203700  0.757700  0.090700  1
  F  F1241  1  0.877800  0.272700  0.994100  1
  F  F1242  1  0.122200  0.727300  0.005900  1
  F  F1243  1  0.912700  0.253600  0.905600  1
  F  F1244  1  0.087300  0.746400  0.094400  1
  F  F1245  1  0.849800  0.325200  0.872500  1
  F  F1246  1  0.150200  0.674800  0.127500  1
  F  F1247  1  0.930100  0.353500  0.955500  1
  F  F1248  1  0.069900  0.646500  0.044500  1
  F  F1249  1  0.814900  0.341600  0.964300  1
  F  F1250  1  0.185100  0.658400  0.035700  1
