# generated using pymatgen
data_Fe4H165C450N51(Cl3O16)3
_symmetry_space_group_name_H-M   'P 1'
_cell_length_a   26.11420000
_cell_length_b   26.11420000
_cell_length_c   110.42200000
_cell_angle_alpha   90.00000000
_cell_angle_beta   90.00000000
_cell_angle_gamma   120.00000000
_symmetry_Int_Tables_number   1
_chemical_formula_structural   Fe4H165C450N51(Cl3O16)3
_chemical_formula_sum   'Fe24 H990 C2700 N306 Cl54 O288'
_cell_volume   65213.82781588
_cell_formula_units_Z   6
loop_
 _symmetry_equiv_pos_site_id
 _symmetry_equiv_pos_as_xyz
  1  'x, y, z'
loop_
 _atom_site_type_symbol
 _atom_site_label
 _atom_site_symmetry_multiplicity
 _atom_site_fract_x
 _atom_site_fract_y
 _atom_site_fract_z
 _atom_site_occupancy
  Fe  Fe1  1  0.666667  0.333333  0.484170  1
  Fe  Fe2  1  0.000000  0.000000  0.150837  1
  Fe  Fe3  1  0.333333  0.666667  0.817503  1
  Fe  Fe4  1  0.333333  0.666667  0.515830  1
  Fe  Fe5  1  0.000000  0.000000  0.849163  1
  Fe  Fe6  1  0.666667  0.333333  0.182497  1
  Fe  Fe7  1  0.642210  0.916110  0.620000  1.0
  Fe  Fe8  1  0.273900  0.357790  0.620000  1.0
  Fe  Fe9  1  0.083890  0.726100  0.620000  1.0
  Fe  Fe10  1  0.975543  0.582777  0.286667  1.0
  Fe  Fe11  1  0.607233  0.024457  0.286667  1.0
  Fe  Fe12  1  0.417223  0.392767  0.286667  1.0
  Fe  Fe13  1  0.308877  0.249443  0.953333  1.0
  Fe  Fe14  1  0.940567  0.691123  0.953333  1.0
  Fe  Fe15  1  0.750557  0.059433  0.953333  1.0
  Fe  Fe16  1  0.357790  0.083890  0.380000  1.0
  Fe  Fe17  1  0.726100  0.642210  0.380000  1.0
  Fe  Fe18  1  0.916110  0.273900  0.380000  1.0
  Fe  Fe19  1  0.024457  0.417223  0.713333  1.0
  Fe  Fe20  1  0.392767  0.975543  0.713333  1.0
  Fe  Fe21  1  0.582777  0.607233  0.713333  1.0
  Fe  Fe22  1  0.691123  0.750557  0.046667  1.0
  Fe  Fe23  1  0.059433  0.308877  0.046667  1.0
  Fe  Fe24  1  0.249443  0.940567  0.046667  1.0
  H  H25  1  0.565900  0.134700  0.667200  1
  H  H26  1  0.568800  0.434100  0.667200  1
  H  H27  1  0.865300  0.431200  0.667200  1
  H  H28  1  0.899233  0.801367  0.333867  1
  H  H29  1  0.902133  0.100767  0.333867  1
  H  H30  1  0.198633  0.097867  0.333867  1
  H  H31  1  0.232567  0.468033  0.000533  1
  H  H32  1  0.235467  0.767433  0.000533  1
  H  H33  1  0.531967  0.764533  0.000533  1
  H  H34  1  0.434100  0.865300  0.332800  1
  H  H35  1  0.431200  0.565900  0.332800  1
  H  H36  1  0.134700  0.568800  0.332800  1
  H  H37  1  0.100767  0.198633  0.666133  1
  H  H38  1  0.097867  0.899233  0.666133  1
  H  H39  1  0.801367  0.902133  0.666133  1
  H  H40  1  0.767433  0.531967  0.999467  1
  H  H41  1  0.764533  0.232567  0.999467  1
  H  H42  1  0.468033  0.235467  0.999467  1
  H  H43  1  0.509400  0.128300  0.660200  1
  H  H44  1  0.618900  0.490600  0.660200  1
  H  H45  1  0.871700  0.381100  0.660200  1
  H  H46  1  0.842733  0.794967  0.326867  1
  H  H47  1  0.952233  0.157267  0.326867  1
  H  H48  1  0.205033  0.047767  0.326867  1
  H  H49  1  0.176067  0.461633  0.993533  1
  H  H50  1  0.285567  0.823933  0.993533  1
  H  H51  1  0.538367  0.714433  0.993533  1
  H  H52  1  0.490600  0.871700  0.339800  1
  H  H53  1  0.381100  0.509400  0.339800  1
  H  H54  1  0.128300  0.618900  0.339800  1
  H  H55  1  0.157267  0.205033  0.673133  1
  H  H56  1  0.047767  0.842733  0.673133  1
  H  H57  1  0.794967  0.952233  0.673133  1
  H  H58  1  0.823933  0.538367  0.006467  1
  H  H59  1  0.714433  0.176067  0.006467  1
  H  H60  1  0.461633  0.285567  0.006467  1
  H  H61  1  0.506000  0.072100  0.666800  1
  H  H62  1  0.566100  0.494000  0.666800  1
  H  H63  1  0.927900  0.433900  0.666800  1
  H  H64  1  0.839333  0.738767  0.333467  1
  H  H65  1  0.899433  0.160667  0.333467  1
  H  H66  1  0.261233  0.100567  0.333467  1
  H  H67  1  0.172667  0.405433  0.000133  1
  H  H68  1  0.232767  0.827333  0.000133  1
  H  H69  1  0.594567  0.767233  0.000133  1
  H  H70  1  0.494000  0.927900  0.333200  1
  H  H71  1  0.433900  0.506000  0.333200  1
  H  H72  1  0.072100  0.566100  0.333200  1
  H  H73  1  0.160667  0.261233  0.666533  1
  H  H74  1  0.100567  0.839333  0.666533  1
  H  H75  1  0.738767  0.899433  0.666533  1
  H  H76  1  0.827333  0.594567  0.999867  1
  H  H77  1  0.767233  0.172667  0.999867  1
  H  H78  1  0.405433  0.232767  0.999867  1
  H  H79  1  0.632400  0.797000  0.612100  1.0
  H  H80  1  0.164600  0.367600  0.612100  1.0
  H  H81  1  0.203000  0.835400  0.612100  1.0
  H  H82  1  0.965733  0.463667  0.278767  1.0
  H  H83  1  0.497933  0.034267  0.278767  1.0
  H  H84  1  0.536333  0.502067  0.278767  1.0
  H  H85  1  0.299067  0.130333  0.945433  1.0
  H  H86  1  0.831267  0.700933  0.945433  1.0
  H  H87  1  0.869667  0.168733  0.945433  1.0
  H  H88  1  0.367600  0.203000  0.387900  1.0
  H  H89  1  0.835400  0.632400  0.387900  1.0
  H  H90  1  0.797000  0.164600  0.387900  1.0
  H  H91  1  0.034267  0.536333  0.721233  1.0
  H  H92  1  0.502067  0.965733  0.721233  1.0
  H  H93  1  0.463667  0.497933  0.721233  1.0
  H  H94  1  0.700933  0.869667  0.054567  1.0
  H  H95  1  0.168733  0.299067  0.054567  1.0
  H  H96  1  0.130333  0.831267  0.054567  1.0
  H  H97  1  0.561700  0.711100  0.603000  1.0
  H  H98  1  0.149400  0.438300  0.603000  1.0
  H  H99  1  0.288900  0.850600  0.603000  1.0
  H  H100  1  0.895033  0.377767  0.269667  1.0
  H  H101  1  0.482733  0.104967  0.269667  1.0
  H  H102  1  0.622233  0.517267  0.269667  1.0
  H  H103  1  0.228367  0.044433  0.936333  1.0
  H  H104  1  0.816067  0.771633  0.936333  1.0
  H  H105  1  0.955567  0.183933  0.936333  1.0
  H  H106  1  0.438300  0.288900  0.397000  1.0
  H  H107  1  0.850600  0.561700  0.397000  1.0
  H  H108  1  0.711100  0.149400  0.397000  1.0
  H  H109  1  0.104967  0.622233  0.730333  1.0
  H  H110  1  0.517267  0.895033  0.730333  1.0
  H  H111  1  0.377767  0.482733  0.730333  1.0
  H  H112  1  0.771633  0.955567  0.063667  1.0
  H  H113  1  0.183933  0.228367  0.063667  1.0
  H  H114  1  0.044433  0.816067  0.063667  1.0
  H  H115  1  0.466100  0.696900  0.599300  1.0
  H  H116  1  0.230800  0.533900  0.599300  1.0
  H  H117  1  0.303100  0.769200  0.599300  1.0
  H  H118  1  0.799433  0.363567  0.265967  1.0
  H  H119  1  0.564133  0.200567  0.265967  1.0
  H  H120  1  0.636433  0.435867  0.265967  1.0
  H  H121  1  0.132767  0.030233  0.932633  1.0
  H  H122  1  0.897467  0.867233  0.932633  1.0
  H  H123  1  0.969767  0.102533  0.932633  1.0
  H  H124  1  0.533900  0.303100  0.400700  1.0
  H  H125  1  0.769200  0.466100  0.400700  1.0
  H  H126  1  0.696900  0.230800  0.400700  1.0
  H  H127  1  0.200567  0.636433  0.734033  1.0
  H  H128  1  0.435867  0.799433  0.734033  1.0
  H  H129  1  0.363567  0.564133  0.734033  1.0
  H  H130  1  0.867233  0.969767  0.067367  1.0
  H  H131  1  0.102533  0.132767  0.067367  1.0
  H  H132  1  0.030233  0.897467  0.067367  1.0
  H  H133  1  0.450200  0.776100  0.603600  1.0
  H  H134  1  0.325900  0.549800  0.603600  1.0
  H  H135  1  0.223900  0.674100  0.603600  1.0
  H  H136  1  0.783533  0.442767  0.270267  1.0
  H  H137  1  0.659233  0.216467  0.270267  1.0
  H  H138  1  0.557233  0.340767  0.270267  1.0
  H  H139  1  0.116867  0.109433  0.936933  1.0
  H  H140  1  0.992567  0.883133  0.936933  1.0
  H  H141  1  0.890567  0.007433  0.936933  1.0
  H  H142  1  0.549800  0.223900  0.396400  1.0
  H  H143  1  0.674100  0.450200  0.396400  1.0
  H  H144  1  0.776100  0.325900  0.396400  1.0
  H  H145  1  0.216467  0.557233  0.729733  1.0
  H  H146  1  0.340767  0.783533  0.729733  1.0
  H  H147  1  0.442767  0.659233  0.729733  1.0
  H  H148  1  0.883133  0.890567  0.063067  1.0
  H  H149  1  0.007433  0.116867  0.063067  1.0
  H  H150  1  0.109433  0.992567  0.063067  1.0
  H  H151  1  0.491500  0.882900  0.611800  1.0
  H  H152  1  0.391400  0.508500  0.611800  1.0
  H  H153  1  0.117100  0.608600  0.611800  1.0
  H  H154  1  0.824833  0.549567  0.278467  1.0
  H  H155  1  0.724733  0.175167  0.278467  1.0
  H  H156  1  0.450433  0.275267  0.278467  1.0
  H  H157  1  0.158167  0.216233  0.945133  1.0
  H  H158  1  0.058067  0.841833  0.945133  1.0
  H  H159  1  0.783767  0.941933  0.945133  1.0
  H  H160  1  0.508500  0.117100  0.388200  1.0
  H  H161  1  0.608600  0.491500  0.388200  1.0
  H  H162  1  0.882900  0.391400  0.388200  1.0
  H  H163  1  0.175167  0.450433  0.721533  1.0
  H  H164  1  0.275267  0.824833  0.721533  1.0
  H  H165  1  0.549567  0.724733  0.721533  1.0
  H  H166  1  0.841833  0.783767  0.054867  1.0
  H  H167  1  0.941933  0.158167  0.054867  1.0
  H  H168  1  0.216233  0.058067  0.054867  1.0
  H  H169  1  0.572500  0.969500  0.639200  1.0
  H  H170  1  0.397000  0.427500  0.639200  1.0
  H  H171  1  0.030500  0.603000  0.639200  1.0
  H  H172  1  0.905833  0.636167  0.305867  1.0
  H  H173  1  0.730333  0.094167  0.305867  1.0
  H  H174  1  0.363833  0.269667  0.305867  1.0
  H  H175  1  0.239167  0.302833  0.972533  1.0
  H  H176  1  0.063667  0.760833  0.972533  1.0
  H  H177  1  0.697167  0.936333  0.972533  1.0
  H  H178  1  0.427500  0.030500  0.360800  1.0
  H  H179  1  0.603000  0.572500  0.360800  1.0
  H  H180  1  0.969500  0.397000  0.360800  1.0
  H  H181  1  0.094167  0.363833  0.694133  1.0
  H  H182  1  0.269667  0.905833  0.694133  1.0
  H  H183  1  0.636167  0.730333  0.694133  1.0
  H  H184  1  0.760833  0.697167  0.027467  1.0
  H  H185  1  0.936333  0.239167  0.027467  1.0
  H  H186  1  0.302833  0.063667  0.027467  1.0
  H  H187  1  0.556900  0.047400  0.644100  1.0
  H  H188  1  0.490500  0.443100  0.644100  1.0
  H  H189  1  0.952600  0.509500  0.644100  1.0
  H  H190  1  0.890233  0.714067  0.310767  1.0
  H  H191  1  0.823833  0.109767  0.310767  1.0
  H  H192  1  0.285933  0.176167  0.310767  1.0
  H  H193  1  0.223567  0.380733  0.977433  1.0
  H  H194  1  0.157167  0.776433  0.977433  1.0
  H  H195  1  0.619267  0.842833  0.977433  1.0
  H  H196  1  0.443100  0.952600  0.355900  1.0
  H  H197  1  0.509500  0.556900  0.355900  1.0
  H  H198  1  0.047400  0.490500  0.355900  1.0
  H  H199  1  0.109767  0.285933  0.689233  1.0
  H  H200  1  0.176167  0.890233  0.689233  1.0
  H  H201  1  0.714067  0.823833  0.689233  1.0
  H  H202  1  0.776433  0.619267  0.022567  1.0
  H  H203  1  0.842833  0.223567  0.022567  1.0
  H  H204  1  0.380733  0.157167  0.022567  1.0
  H  H205  1  0.547900  0.078900  0.608700  1.0
  H  H206  1  0.531000  0.452100  0.608700  1.0
  H  H207  1  0.921100  0.469000  0.608700  1.0
  H  H208  1  0.881233  0.745567  0.275367  1.0
  H  H209  1  0.864333  0.118767  0.275367  1.0
  H  H210  1  0.254433  0.135667  0.275367  1.0
  H  H211  1  0.214567  0.412233  0.942033  1.0
  H  H212  1  0.197667  0.785433  0.942033  1.0
  H  H213  1  0.587767  0.802333  0.942033  1.0
  H  H214  1  0.452100  0.921100  0.391300  1.0
  H  H215  1  0.469000  0.547900  0.391300  1.0
  H  H216  1  0.078900  0.531000  0.391300  1.0
  H  H217  1  0.118767  0.254433  0.724633  1.0
  H  H218  1  0.135667  0.881233  0.724633  1.0
  H  H219  1  0.745567  0.864333  0.724633  1.0
  H  H220  1  0.785433  0.587767  0.057967  1.0
  H  H221  1  0.802333  0.214567  0.057967  1.0
  H  H222  1  0.412233  0.197667  0.057967  1.0
  H  H223  1  0.562300  0.000400  0.603500  1.0
  H  H224  1  0.438100  0.437700  0.603500  1.0
  H  H225  1  0.999600  0.561900  0.603500  1.0
  H  H226  1  0.895633  0.667067  0.270167  1.0
  H  H227  1  0.771433  0.104367  0.270167  1.0
  H  H228  1  0.332933  0.228567  0.270167  1.0
  H  H229  1  0.228967  0.333733  0.936833  1.0
  H  H230  1  0.104767  0.771033  0.936833  1.0
  H  H231  1  0.666267  0.895233  0.936833  1.0
  H  H232  1  0.437700  0.999600  0.396500  1.0
  H  H233  1  0.561900  0.562300  0.396500  1.0
  H  H234  1  0.000400  0.438100  0.396500  1.0
  H  H235  1  0.104367  0.332933  0.729833  1.0
  H  H236  1  0.228567  0.895633  0.729833  1.0
  H  H237  1  0.667067  0.771433  0.729833  1.0
  H  H238  1  0.771033  0.666267  0.063167  1.0
  H  H239  1  0.895233  0.228967  0.063167  1.0
  H  H240  1  0.333733  0.104767  0.063167  1.0
  H  H241  1  0.614700  0.171100  0.639200  1.0
  H  H242  1  0.556400  0.385300  0.639200  1.0
  H  H243  1  0.828900  0.443600  0.639200  1.0
  H  H244  1  0.948033  0.837767  0.305867  1.0
  H  H245  1  0.889733  0.051967  0.305867  1.0
  H  H246  1  0.162233  0.110267  0.305867  1.0
  H  H247  1  0.281367  0.504433  0.972533  1.0
  H  H248  1  0.223067  0.718633  0.972533  1.0
  H  H249  1  0.495567  0.776933  0.972533  1.0
  H  H250  1  0.385300  0.828900  0.360800  1.0
  H  H251  1  0.443600  0.614700  0.360800  1.0
  H  H252  1  0.171100  0.556400  0.360800  1.0
  H  H253  1  0.051967  0.162233  0.694133  1.0
  H  H254  1  0.110267  0.948033  0.694133  1.0
  H  H255  1  0.837767  0.889733  0.694133  1.0
  H  H256  1  0.718633  0.495567  0.027467  1.0
  H  H257  1  0.776933  0.281367  0.027467  1.0
  H  H258  1  0.504433  0.223067  0.027467  1.0
  H  H259  1  0.592600  0.242200  0.645700  1.0
  H  H260  1  0.649600  0.407400  0.645700  1.0
  H  H261  1  0.757800  0.350400  0.645700  1.0
  H  H262  1  0.925933  0.908867  0.312367  1.0
  H  H263  1  0.982933  0.074067  0.312367  1.0
  H  H264  1  0.091133  0.017067  0.312367  1.0
  H  H265  1  0.259267  0.575533  0.979033  1.0
  H  H266  1  0.316267  0.740733  0.979033  1.0
  H  H267  1  0.424467  0.683733  0.979033  1.0
  H  H268  1  0.407400  0.757800  0.354300  1.0
  H  H269  1  0.350400  0.592600  0.354300  1.0
  H  H270  1  0.242200  0.649600  0.354300  1.0
  H  H271  1  0.074067  0.091133  0.687633  1.0
  H  H272  1  0.017067  0.925933  0.687633  1.0
  H  H273  1  0.908867  0.982933  0.687633  1.0
  H  H274  1  0.740733  0.424467  0.020967  1.0
  H  H275  1  0.683733  0.259267  0.020967  1.0
  H  H276  1  0.575533  0.316267  0.020967  1.0
  H  H277  1  0.500100  0.231800  0.641500  1.0
  H  H278  1  0.731700  0.499900  0.641500  1.0
  H  H279  1  0.768200  0.268300  0.641500  1.0
  H  H280  1  0.833433  0.898467  0.308167  1.0
  H  H281  1  0.065033  0.166567  0.308167  1.0
  H  H282  1  0.101533  0.934967  0.308167  1.0
  H  H283  1  0.166767  0.565133  0.974833  1.0
  H  H284  1  0.398367  0.833233  0.974833  1.0
  H  H285  1  0.434867  0.601633  0.974833  1.0
  H  H286  1  0.499900  0.768200  0.358500  1.0
  H  H287  1  0.268300  0.500100  0.358500  1.0
  H  H288  1  0.231800  0.731700  0.358500  1.0
  H  H289  1  0.166567  0.101533  0.691833  1.0
  H  H290  1  0.934967  0.833433  0.691833  1.0
  H  H291  1  0.898467  0.065033  0.691833  1.0
  H  H292  1  0.833233  0.434867  0.025167  1.0
  H  H293  1  0.601633  0.166767  0.025167  1.0
  H  H294  1  0.565133  0.398367  0.025167  1.0
  H  H295  1  0.397700  0.172600  0.631700  1.0
  H  H296  1  0.774900  0.602300  0.631700  1.0
  H  H297  1  0.827400  0.225100  0.631700  1.0
  H  H298  1  0.731033  0.839267  0.298367  1.0
  H  H299  1  0.108233  0.268967  0.298367  1.0
  H  H300  1  0.160733  0.891767  0.298367  1.0
  H  H301  1  0.064367  0.505933  0.965033  1.0
  H  H302  1  0.441567  0.935633  0.965033  1.0
  H  H303  1  0.494067  0.558433  0.965033  1.0
  H  H304  1  0.602300  0.827400  0.368300  1.0
  H  H305  1  0.225100  0.397700  0.368300  1.0
  H  H306  1  0.172600  0.774900  0.368300  1.0
  H  H307  1  0.268967  0.160733  0.701633  1.0
  H  H308  1  0.891767  0.731033  0.701633  1.0
  H  H309  1  0.839267  0.108233  0.701633  1.0
  H  H310  1  0.935633  0.494067  0.034967  1.0
  H  H311  1  0.558433  0.064367  0.034967  1.0
  H  H312  1  0.505933  0.441567  0.034967  1.0
  H  H313  1  0.350900  0.158300  0.590300  1.0
  H  H314  1  0.807400  0.649100  0.590300  1.0
  H  H315  1  0.841700  0.192600  0.590300  1.0
  H  H316  1  0.684233  0.824967  0.256967  1.0
  H  H317  1  0.140733  0.315767  0.256967  1.0
  H  H318  1  0.175033  0.859267  0.256967  1.0
  H  H319  1  0.017567  0.491633  0.923633  1.0
  H  H320  1  0.474067  0.982433  0.923633  1.0
  H  H321  1  0.508367  0.525933  0.923633  1.0
  H  H322  1  0.649100  0.841700  0.409700  1.0
  H  H323  1  0.192600  0.350900  0.409700  1.0
  H  H324  1  0.158300  0.807400  0.409700  1.0
  H  H325  1  0.315767  0.175033  0.743033  1.0
  H  H326  1  0.859267  0.684233  0.743033  1.0
  H  H327  1  0.824967  0.140733  0.743033  1.0
  H  H328  1  0.982433  0.508367  0.076367  1.0
  H  H329  1  0.525933  0.017567  0.076367  1.0
  H  H330  1  0.491633  0.474067  0.076367  1.0
  H  H331  1  0.376300  0.091200  0.582600  1.0
  H  H332  1  0.714900  0.623700  0.582600  1.0
  H  H333  1  0.908800  0.285100  0.582600  1.0
  H  H334  1  0.709633  0.757867  0.249267  1.0
  H  H335  1  0.048233  0.290367  0.249267  1.0
  H  H336  1  0.242133  0.951767  0.249267  1.0
  H  H337  1  0.042967  0.424533  0.915933  1.0
  H  H338  1  0.381567  0.957033  0.915933  1.0
  H  H339  1  0.575467  0.618433  0.915933  1.0
  H  H340  1  0.623700  0.908800  0.417400  1.0
  H  H341  1  0.285100  0.376300  0.417400  1.0
  H  H342  1  0.091200  0.714900  0.417400  1.0
  H  H343  1  0.290367  0.242133  0.750733  1.0
  H  H344  1  0.951767  0.709633  0.750733  1.0
  H  H345  1  0.757867  0.048233  0.750733  1.0
  H  H346  1  0.957033  0.575467  0.084067  1.0
  H  H347  1  0.618433  0.042967  0.084067  1.0
  H  H348  1  0.424533  0.381567  0.084067  1.0
  H  H349  1  0.414800  0.047300  0.595500  1.0
  H  H350  1  0.632500  0.585200  0.595500  1.0
  H  H351  1  0.952700  0.367500  0.595500  1.0
  H  H352  1  0.748133  0.713967  0.262167  1.0
  H  H353  1  0.965833  0.251867  0.262167  1.0
  H  H354  1  0.286033  0.034167  0.262167  1.0
  H  H355  1  0.081467  0.380633  0.928833  1.0
  H  H356  1  0.299167  0.918533  0.928833  1.0
  H  H357  1  0.619367  0.700833  0.928833  1.0
  H  H358  1  0.585200  0.952700  0.404500  1.0
  H  H359  1  0.367500  0.414800  0.404500  1.0
  H  H360  1  0.047300  0.632500  0.404500  1.0
  H  H361  1  0.251867  0.286033  0.737833  1.0
  H  H362  1  0.034167  0.748133  0.737833  1.0
  H  H363  1  0.713967  0.965833  0.737833  1.0
  H  H364  1  0.918533  0.619367  0.071167  1.0
  H  H365  1  0.700833  0.081467  0.071167  1.0
  H  H366  1  0.380633  0.299167  0.071167  1.0
  H  H367  1  0.447500  0.035300  0.616900  1.0
  H  H368  1  0.587800  0.552500  0.616900  1.0
  H  H369  1  0.964700  0.412200  0.616900  1.0
  H  H370  1  0.780833  0.701967  0.283567  1.0
  H  H371  1  0.921133  0.219167  0.283567  1.0
  H  H372  1  0.298033  0.078867  0.283567  1.0
  H  H373  1  0.114167  0.368633  0.950233  1.0
  H  H374  1  0.254467  0.885833  0.950233  1.0
  H  H375  1  0.631367  0.745533  0.950233  1.0
  H  H376  1  0.552500  0.964700  0.383100  1.0
  H  H377  1  0.412200  0.447500  0.383100  1.0
  H  H378  1  0.035300  0.587800  0.383100  1.0
  H  H379  1  0.219167  0.298033  0.716433  1.0
  H  H380  1  0.078867  0.780833  0.716433  1.0
  H  H381  1  0.701967  0.921133  0.716433  1.0
  H  H382  1  0.885833  0.631367  0.049767  1.0
  H  H383  1  0.745533  0.114167  0.049767  1.0
  H  H384  1  0.368633  0.254467  0.049767  1.0
  H  H385  1  0.435500  0.263100  0.617100  1.0
  H  H386  1  0.827600  0.564500  0.617100  1.0
  H  H387  1  0.736900  0.172400  0.617100  1.0
  H  H388  1  0.768833  0.929767  0.283767  1.0
  H  H389  1  0.160933  0.231167  0.283767  1.0
  H  H390  1  0.070233  0.839067  0.283767  1.0
  H  H391  1  0.102167  0.596433  0.950433  1.0
  H  H392  1  0.494267  0.897833  0.950433  1.0
  H  H393  1  0.403567  0.505733  0.950433  1.0
  H  H394  1  0.564500  0.736900  0.382900  1.0
  H  H395  1  0.172400  0.435500  0.382900  1.0
  H  H396  1  0.263100  0.827600  0.382900  1.0
  H  H397  1  0.231167  0.070233  0.716233  1.0
  H  H398  1  0.839067  0.768833  0.716233  1.0
  H  H399  1  0.929767  0.160933  0.716233  1.0
  H  H400  1  0.897833  0.403567  0.049567  1.0
  H  H401  1  0.505733  0.102167  0.049567  1.0
  H  H402  1  0.596433  0.494267  0.049567  1.0
  H  H403  1  0.407000  0.325900  0.625900  1.0
  H  H404  1  0.918900  0.593000  0.625900  1.0
  H  H405  1  0.674100  0.081100  0.625900  1.0
  H  H406  1  0.740333  0.992567  0.292567  1.0
  H  H407  1  0.252233  0.259667  0.292567  1.0
  H  H408  1  0.007433  0.747767  0.292567  1.0
  H  H409  1  0.073667  0.659233  0.959233  1.0
  H  H410  1  0.585567  0.926333  0.959233  1.0
  H  H411  1  0.340767  0.414433  0.959233  1.0
  H  H412  1  0.593000  0.674100  0.374100  1.0
  H  H413  1  0.081100  0.407000  0.374100  1.0
  H  H414  1  0.325900  0.918900  0.374100  1.0
  H  H415  1  0.259667  0.007433  0.707433  1.0
  H  H416  1  0.747767  0.740333  0.707433  1.0
  H  H417  1  0.992567  0.252233  0.707433  1.0
  H  H418  1  0.926333  0.340767  0.040767  1.0
  H  H419  1  0.414433  0.073667  0.040767  1.0
  H  H420  1  0.659233  0.585567  0.040767  1.0
  H  H421  1  0.236600  0.204200  0.619100  1.0
  H  H422  1  0.967600  0.763400  0.619100  1.0
  H  H423  1  0.795800  0.032400  0.619100  1.0
  H  H424  1  0.569933  0.870867  0.285767  1.0
  H  H425  1  0.300933  0.430067  0.285767  1.0
  H  H426  1  0.129133  0.699067  0.285767  1.0
  H  H427  1  0.903267  0.537533  0.952433  1.0
  H  H428  1  0.634267  0.096733  0.952433  1.0
  H  H429  1  0.462467  0.365733  0.952433  1.0
  H  H430  1  0.763400  0.795800  0.380900  1.0
  H  H431  1  0.032400  0.236600  0.380900  1.0
  H  H432  1  0.204200  0.967600  0.380900  1.0
  H  H433  1  0.430067  0.129133  0.714233  1.0
  H  H434  1  0.699067  0.569933  0.714233  1.0
  H  H435  1  0.870867  0.300933  0.714233  1.0
  H  H436  1  0.096733  0.462467  0.047567  1.0
  H  H437  1  0.365733  0.903267  0.047567  1.0
  H  H438  1  0.537533  0.634267  0.047567  1.0
  H  H439  1  0.265000  0.141200  0.610400  1.0
  H  H440  1  0.876200  0.735000  0.610400  1.0
  H  H441  1  0.858800  0.123800  0.610400  1.0
  H  H442  1  0.598333  0.807867  0.277067  1.0
  H  H443  1  0.209533  0.401667  0.277067  1.0
  H  H444  1  0.192133  0.790467  0.277067  1.0
  H  H445  1  0.931667  0.474533  0.943733  1.0
  H  H446  1  0.542867  0.068333  0.943733  1.0
  H  H447  1  0.525467  0.457133  0.943733  1.0
  H  H448  1  0.735000  0.858800  0.389600  1.0
  H  H449  1  0.123800  0.265000  0.389600  1.0
  H  H450  1  0.141200  0.876200  0.389600  1.0
  H  H451  1  0.401667  0.192133  0.722933  1.0
  H  H452  1  0.790467  0.598333  0.722933  1.0
  H  H453  1  0.807867  0.209533  0.722933  1.0
  H  H454  1  0.068333  0.525467  0.056267  1.0
  H  H455  1  0.457133  0.931667  0.056267  1.0
  H  H456  1  0.474533  0.542867  0.056267  1.0
  H  H457  1  0.311100  0.288500  0.645600  1.0
  H  H458  1  0.977400  0.688900  0.645600  1.0
  H  H459  1  0.711500  0.022600  0.645600  1.0
  H  H460  1  0.644433  0.955167  0.312267  1.0
  H  H461  1  0.310733  0.355567  0.312267  1.0
  H  H462  1  0.044833  0.689267  0.312267  1.0
  H  H463  1  0.977767  0.621833  0.978933  1.0
  H  H464  1  0.644067  0.022233  0.978933  1.0
  H  H465  1  0.378167  0.355933  0.978933  1.0
  H  H466  1  0.688900  0.711500  0.354400  1.0
  H  H467  1  0.022600  0.311100  0.354400  1.0
  H  H468  1  0.288500  0.977400  0.354400  1.0
  H  H469  1  0.355567  0.044833  0.687733  1.0
  H  H470  1  0.689267  0.644433  0.687733  1.0
  H  H471  1  0.955167  0.310733  0.687733  1.0
  H  H472  1  0.022233  0.378167  0.021067  1.0
  H  H473  1  0.355933  0.977767  0.021067  1.0
  H  H474  1  0.621833  0.644067  0.021067  1.0
  H  H475  1  0.292600  0.343700  0.663400  1.0
  H  H476  1  0.051100  0.707400  0.663400  1.0
  H  H477  1  0.656300  0.948900  0.663400  1.0
  H  H478  1  0.625933  0.010367  0.330067  1.0
  H  H479  1  0.384433  0.374067  0.330067  1.0
  H  H480  1  0.989633  0.615567  0.330067  1.0
  H  H481  1  0.959267  0.677033  0.996733  1.0
  H  H482  1  0.717767  0.040733  0.996733  1.0
  H  H483  1  0.322967  0.282233  0.996733  1.0
  H  H484  1  0.707400  0.656300  0.336600  1.0
  H  H485  1  0.948900  0.292600  0.336600  1.0
  H  H486  1  0.343700  0.051100  0.336600  1.0
  H  H487  1  0.374067  0.989633  0.669933  1.0
  H  H488  1  0.615567  0.625933  0.669933  1.0
  H  H489  1  0.010367  0.384433  0.669933  1.0
  H  H490  1  0.040733  0.322967  0.003267  1.0
  H  H491  1  0.282233  0.959267  0.003267  1.0
  H  H492  1  0.677033  0.717767  0.003267  1.0
  H  H493  1  0.266100  0.414100  0.669400  1.0
  H  H494  1  0.148000  0.733900  0.669400  1.0
  H  H495  1  0.585900  0.852000  0.669400  1.0
  H  H496  1  0.599433  0.080767  0.336067  1.0
  H  H497  1  0.481333  0.400567  0.336067  1.0
  H  H498  1  0.919233  0.518667  0.336067  1.0
  H  H499  1  0.932767  0.747433  0.002733  1.0
  H  H500  1  0.814667  0.067233  0.002733  1.0
  H  H501  1  0.252567  0.185333  0.002733  1.0
  H  H502  1  0.733900  0.585900  0.330600  1.0
  H  H503  1  0.852000  0.266100  0.330600  1.0
  H  H504  1  0.414100  0.148000  0.330600  1.0
  H  H505  1  0.400567  0.919233  0.663933  1.0
  H  H506  1  0.518667  0.599433  0.663933  1.0
  H  H507  1  0.080767  0.481333  0.663933  1.0
  H  H508  1  0.067233  0.252567  0.997267  1.0
  H  H509  1  0.185333  0.932767  0.997267  1.0
  H  H510  1  0.747433  0.814667  0.997267  1.0
  H  H511  1  0.242500  0.462500  0.654400  1.0
  H  H512  1  0.220000  0.757500  0.654400  1.0
  H  H513  1  0.537500  0.780000  0.654400  1.0
  H  H514  1  0.575833  0.129167  0.321067  1.0
  H  H515  1  0.553333  0.424167  0.321067  1.0
  H  H516  1  0.870833  0.446667  0.321067  1.0
  H  H517  1  0.909167  0.795833  0.987733  1.0
  H  H518  1  0.886667  0.090833  0.987733  1.0
  H  H519  1  0.204167  0.113333  0.987733  1.0
  H  H520  1  0.757500  0.537500  0.345600  1.0
  H  H521  1  0.780000  0.242500  0.345600  1.0
  H  H522  1  0.462500  0.220000  0.345600  1.0
  H  H523  1  0.424167  0.870833  0.678933  1.0
  H  H524  1  0.446667  0.575833  0.678933  1.0
  H  H525  1  0.129167  0.553333  0.678933  1.0
  H  H526  1  0.090833  0.204167  0.012267  1.0
  H  H527  1  0.113333  0.909167  0.012267  1.0
  H  H528  1  0.795833  0.886667  0.012267  1.0
  H  H529  1  0.245400  0.440000  0.634200  1.0
  H  H530  1  0.194600  0.754600  0.634200  1.0
  H  H531  1  0.560000  0.805400  0.634200  1.0
  H  H532  1  0.578733  0.106667  0.300867  1.0
  H  H533  1  0.527933  0.421267  0.300867  1.0
  H  H534  1  0.893333  0.472067  0.300867  1.0
  H  H535  1  0.912067  0.773333  0.967533  1.0
  H  H536  1  0.861267  0.087933  0.967533  1.0
  H  H537  1  0.226667  0.138733  0.967533  1.0
  H  H538  1  0.754600  0.560000  0.365800  1.0
  H  H539  1  0.805400  0.245400  0.365800  1.0
  H  H540  1  0.440000  0.194600  0.365800  1.0
  H  H541  1  0.421267  0.893333  0.699133  1.0
  H  H542  1  0.472067  0.578733  0.699133  1.0
  H  H543  1  0.106667  0.527933  0.699133  1.0
  H  H544  1  0.087933  0.226667  0.032467  1.0
  H  H545  1  0.138733  0.912067  0.032467  1.0
  H  H546  1  0.773333  0.861267  0.032467  1.0
  H  H547  1  0.695700  0.857200  0.635900  1.0
  H  H548  1  0.161500  0.304300  0.635900  1.0
  H  H549  1  0.142800  0.838500  0.635900  1.0
  H  H550  1  0.029033  0.523867  0.302567  1.0
  H  H551  1  0.494833  0.970967  0.302567  1.0
  H  H552  1  0.476133  0.505167  0.302567  1.0
  H  H553  1  0.362367  0.190533  0.969233  1.0
  H  H554  1  0.828167  0.637633  0.969233  1.0
  H  H555  1  0.809467  0.171833  0.969233  1.0
  H  H556  1  0.304300  0.142800  0.364100  1.0
  H  H557  1  0.838500  0.695700  0.364100  1.0
  H  H558  1  0.857200  0.161500  0.364100  1.0
  H  H559  1  0.970967  0.476133  0.697433  1.0
  H  H560  1  0.505167  0.029033  0.697433  1.0
  H  H561  1  0.523867  0.494833  0.697433  1.0
  H  H562  1  0.637633  0.809467  0.030767  1.0
  H  H563  1  0.171833  0.362367  0.030767  1.0
  H  H564  1  0.190533  0.828167  0.030767  1.0
  H  H565  1  0.774400  0.840200  0.634400  1.0
  H  H566  1  0.065800  0.225600  0.634400  1.0
  H  H567  1  0.159800  0.934200  0.634400  1.0
  H  H568  1  0.107733  0.506867  0.301067  1.0
  H  H569  1  0.399133  0.892267  0.301067  1.0
  H  H570  1  0.493133  0.600867  0.301067  1.0
  H  H571  1  0.441067  0.173533  0.967733  1.0
  H  H572  1  0.732467  0.558933  0.967733  1.0
  H  H573  1  0.826467  0.267533  0.967733  1.0
  H  H574  1  0.225600  0.159800  0.365600  1.0
  H  H575  1  0.934200  0.774400  0.365600  1.0
  H  H576  1  0.840200  0.065800  0.365600  1.0
  H  H577  1  0.892267  0.493133  0.698933  1.0
  H  H578  1  0.600867  0.107733  0.698933  1.0
  H  H579  1  0.506867  0.399133  0.698933  1.0
  H  H580  1  0.558933  0.826467  0.032267  1.0
  H  H581  1  0.267533  0.441067  0.032267  1.0
  H  H582  1  0.173533  0.732467  0.032267  1.0
  H  H583  1  0.830600  0.867900  0.616400  1.0
  H  H584  1  0.037300  0.169400  0.616400  1.0
  H  H585  1  0.132100  0.962700  0.616400  1.0
  H  H586  1  0.163933  0.534567  0.283067  1.0
  H  H587  1  0.370633  0.836067  0.283067  1.0
  H  H588  1  0.465433  0.629367  0.283067  1.0
  H  H589  1  0.497267  0.201233  0.949733  1.0
  H  H590  1  0.703967  0.502733  0.949733  1.0
  H  H591  1  0.798767  0.296033  0.949733  1.0
  H  H592  1  0.169400  0.132100  0.383600  1.0
  H  H593  1  0.962700  0.830600  0.383600  1.0
  H  H594  1  0.867900  0.037300  0.383600  1.0
  H  H595  1  0.836067  0.465433  0.716933  1.0
  H  H596  1  0.629367  0.163933  0.716933  1.0
  H  H597  1  0.534567  0.370633  0.716933  1.0
  H  H598  1  0.502733  0.798767  0.050267  1.0
  H  H599  1  0.296033  0.497267  0.050267  1.0
  H  H600  1  0.201233  0.703967  0.050267  1.0
  H  H601  1  0.809100  0.917600  0.601200  1.0
  H  H602  1  0.108500  0.190900  0.601200  1.0
  H  H603  1  0.082400  0.891500  0.601200  1.0
  H  H604  1  0.142433  0.584267  0.267867  1.0
  H  H605  1  0.441833  0.857567  0.267867  1.0
  H  H606  1  0.415733  0.558167  0.267867  1.0
  H  H607  1  0.475767  0.250933  0.934533  1.0
  H  H608  1  0.775167  0.524233  0.934533  1.0
  H  H609  1  0.749067  0.224833  0.934533  1.0
  H  H610  1  0.190900  0.082400  0.398800  1.0
  H  H611  1  0.891500  0.809100  0.398800  1.0
  H  H612  1  0.917600  0.108500  0.398800  1.0
  H  H613  1  0.857567  0.415733  0.732133  1.0
  H  H614  1  0.558167  0.142433  0.732133  1.0
  H  H615  1  0.584267  0.441833  0.732133  1.0
  H  H616  1  0.524233  0.749067  0.065467  1.0
  H  H617  1  0.224833  0.475767  0.065467  1.0
  H  H618  1  0.250933  0.775167  0.065467  1.0
  H  H619  1  0.742100  0.958100  0.593600  1.0
  H  H620  1  0.216000  0.257900  0.593600  1.0
  H  H621  1  0.041900  0.784000  0.593600  1.0
  H  H622  1  0.075433  0.624767  0.260267  1.0
  H  H623  1  0.549333  0.924567  0.260267  1.0
  H  H624  1  0.375233  0.450667  0.260267  1.0
  H  H625  1  0.408767  0.291433  0.926933  1.0
  H  H626  1  0.882667  0.591233  0.926933  1.0
  H  H627  1  0.708567  0.117333  0.926933  1.0
  H  H628  1  0.257900  0.041900  0.406400  1.0
  H  H629  1  0.784000  0.742100  0.406400  1.0
  H  H630  1  0.958100  0.216000  0.406400  1.0
  H  H631  1  0.924567  0.375233  0.739733  1.0
  H  H632  1  0.450667  0.075433  0.739733  1.0
  H  H633  1  0.624767  0.549333  0.739733  1.0
  H  H634  1  0.591233  0.708567  0.073067  1.0
  H  H635  1  0.117333  0.408767  0.073067  1.0
  H  H636  1  0.291433  0.882667  0.073067  1.0
  H  H637  1  0.723000  0.059800  0.597400  1.0
  H  H638  1  0.336800  0.277000  0.597400  1.0
  H  H639  1  0.940200  0.663200  0.597400  1.0
  H  H640  1  0.056333  0.726467  0.264067  1.0
  H  H641  1  0.670133  0.943667  0.264067  1.0
  H  H642  1  0.273533  0.329867  0.264067  1.0
  H  H643  1  0.389667  0.393133  0.930733  1.0
  H  H644  1  0.003467  0.610333  0.930733  1.0
  H  H645  1  0.606867  0.996533  0.930733  1.0
  H  H646  1  0.277000  0.940200  0.402600  1.0
  H  H647  1  0.663200  0.723000  0.402600  1.0
  H  H648  1  0.059800  0.336800  0.402600  1.0
  H  H649  1  0.943667  0.273533  0.735933  1.0
  H  H650  1  0.329867  0.056333  0.735933  1.0
  H  H651  1  0.726467  0.670133  0.735933  1.0
  H  H652  1  0.610333  0.606867  0.069267  1.0
  H  H653  1  0.996533  0.389667  0.069267  1.0
  H  H654  1  0.393133  0.003467  0.069267  1.0
  H  H655  1  0.691000  0.101100  0.582800  1.0
  H  H656  1  0.410100  0.309000  0.582800  1.0
  H  H657  1  0.898900  0.589900  0.582800  1.0
  H  H658  1  0.024333  0.767767  0.249467  1.0
  H  H659  1  0.743433  0.975667  0.249467  1.0
  H  H660  1  0.232233  0.256567  0.249467  1.0
  H  H661  1  0.357667  0.434433  0.916133  1.0
  H  H662  1  0.076767  0.642333  0.916133  1.0
  H  H663  1  0.565567  0.923233  0.916133  1.0
  H  H664  1  0.309000  0.898900  0.417200  1.0
  H  H665  1  0.589900  0.691000  0.417200  1.0
  H  H666  1  0.101100  0.410100  0.417200  1.0
  H  H667  1  0.975667  0.232233  0.750533  1.0
  H  H668  1  0.256567  0.024333  0.750533  1.0
  H  H669  1  0.767767  0.743433  0.750533  1.0
  H  H670  1  0.642333  0.565567  0.083867  1.0
  H  H671  1  0.923233  0.357667  0.083867  1.0
  H  H672  1  0.434433  0.076767  0.083867  1.0
  H  H673  1  0.549700  0.940100  0.575900  1.0
  H  H674  1  0.390400  0.450300  0.575900  1.0
  H  H675  1  0.059900  0.609600  0.575900  1.0
  H  H676  1  0.883033  0.606767  0.242567  1.0
  H  H677  1  0.723733  0.116967  0.242567  1.0
  H  H678  1  0.393233  0.276267  0.242567  1.0
  H  H679  1  0.216367  0.273433  0.909233  1.0
  H  H680  1  0.057067  0.783633  0.909233  1.0
  H  H681  1  0.726567  0.942933  0.909233  1.0
  H  H682  1  0.450300  0.059900  0.424100  1.0
  H  H683  1  0.609600  0.549700  0.424100  1.0
  H  H684  1  0.940100  0.390400  0.424100  1.0
  H  H685  1  0.116967  0.393233  0.757433  1.0
  H  H686  1  0.276267  0.883033  0.757433  1.0
  H  H687  1  0.606767  0.723733  0.757433  1.0
  H  H688  1  0.783633  0.726567  0.090767  1.0
  H  H689  1  0.942933  0.216367  0.090767  1.0
  H  H690  1  0.273433  0.057067  0.090767  1.0
  H  H691  1  0.583600  0.897900  0.589900  1.0
  H  H692  1  0.314300  0.416400  0.589900  1.0
  H  H693  1  0.102100  0.685700  0.589900  1.0
  H  H694  1  0.916933  0.564567  0.256567  1.0
  H  H695  1  0.647633  0.083067  0.256567  1.0
  H  H696  1  0.435433  0.352367  0.256567  1.0
  H  H697  1  0.250267  0.231233  0.923233  1.0
  H  H698  1  0.980967  0.749733  0.923233  1.0
  H  H699  1  0.768767  0.019033  0.923233  1.0
  H  H700  1  0.416400  0.102100  0.410100  1.0
  H  H701  1  0.685700  0.583600  0.410100  1.0
  H  H702  1  0.897900  0.314300  0.410100  1.0
  H  H703  1  0.083067  0.435433  0.743433  1.0
  H  H704  1  0.352367  0.916933  0.743433  1.0
  H  H705  1  0.564567  0.647633  0.743433  1.0
  H  H706  1  0.749733  0.768767  0.076767  1.0
  H  H707  1  0.019033  0.250267  0.076767  1.0
  H  H708  1  0.231233  0.980967  0.076767  1.0
  H  H709  1  0.517600  0.026400  0.575700  1.0
  H  H710  1  0.508800  0.482400  0.575700  1.0
  H  H711  1  0.973600  0.491200  0.575700  1.0
  H  H712  1  0.850933  0.693067  0.242367  1.0
  H  H713  1  0.842133  0.149067  0.242367  1.0
  H  H714  1  0.306933  0.157867  0.242367  1.0
  H  H715  1  0.184267  0.359733  0.909033  1.0
  H  H716  1  0.175467  0.815733  0.909033  1.0
  H  H717  1  0.640267  0.824533  0.909033  1.0
  H  H718  1  0.482400  0.973600  0.424300  1.0
  H  H719  1  0.491200  0.517600  0.424300  1.0
  H  H720  1  0.026400  0.508800  0.424300  1.0
  H  H721  1  0.149067  0.306933  0.757633  1.0
  H  H722  1  0.157867  0.850933  0.757633  1.0
  H  H723  1  0.693067  0.842133  0.757633  1.0
  H  H724  1  0.815733  0.640267  0.090967  1.0
  H  H725  1  0.824533  0.184267  0.090967  1.0
  H  H726  1  0.359733  0.175467  0.090967  1.0
  H  H727  1  0.480100  0.059100  0.560100  1.0
  H  H728  1  0.579000  0.519900  0.560100  1.0
  H  H729  1  0.940900  0.421000  0.560100  1.0
  H  H730  1  0.813433  0.725767  0.226767  1.0
  H  H731  1  0.912333  0.186567  0.226767  1.0
  H  H732  1  0.274233  0.087667  0.226767  1.0
  H  H733  1  0.146767  0.392433  0.893433  1.0
  H  H734  1  0.245667  0.853233  0.893433  1.0
  H  H735  1  0.607567  0.754333  0.893433  1.0
  H  H736  1  0.519900  0.940900  0.439900  1.0
  H  H737  1  0.421000  0.480100  0.439900  1.0
  H  H738  1  0.059100  0.579000  0.439900  1.0
  H  H739  1  0.186567  0.274233  0.773233  1.0
  H  H740  1  0.087667  0.813433  0.773233  1.0
  H  H741  1  0.725767  0.912333  0.773233  1.0
  H  H742  1  0.853233  0.607567  0.106567  1.0
  H  H743  1  0.754333  0.146767  0.106567  1.0
  H  H744  1  0.392433  0.245667  0.106567  1.0
  H  H745  1  0.534800  0.096600  0.542400  1.0
  H  H746  1  0.561800  0.465200  0.542400  1.0
  H  H747  1  0.903400  0.438200  0.542400  1.0
  H  H748  1  0.868133  0.763267  0.209067  1.0
  H  H749  1  0.895133  0.131867  0.209067  1.0
  H  H750  1  0.236733  0.104867  0.209067  1.0
  H  H751  1  0.201467  0.429933  0.875733  1.0
  H  H752  1  0.228467  0.798533  0.875733  1.0
  H  H753  1  0.570067  0.771533  0.875733  1.0
  H  H754  1  0.465200  0.903400  0.457600  1.0
  H  H755  1  0.438200  0.534800  0.457600  1.0
  H  H756  1  0.096600  0.561800  0.457600  1.0
  H  H757  1  0.131867  0.236733  0.790933  1.0
  H  H758  1  0.104867  0.868133  0.790933  1.0
  H  H759  1  0.763267  0.895133  0.790933  1.0
  H  H760  1  0.798533  0.570067  0.124267  1.0
  H  H761  1  0.771533  0.201467  0.124267  1.0
  H  H762  1  0.429933  0.228467  0.124267  1.0
  H  H763  1  0.628700  0.126200  0.530200  1.0
  H  H764  1  0.497500  0.371300  0.530200  1.0
  H  H765  1  0.873800  0.502500  0.530200  1.0
  H  H766  1  0.962033  0.792867  0.196867  1.0
  H  H767  1  0.830833  0.037967  0.196867  1.0
  H  H768  1  0.207133  0.169167  0.196867  1.0
  H  H769  1  0.295367  0.459533  0.863533  1.0
  H  H770  1  0.164167  0.704633  0.863533  1.0
  H  H771  1  0.540467  0.835833  0.863533  1.0
  H  H772  1  0.371300  0.873800  0.469800  1.0
  H  H773  1  0.502500  0.628700  0.469800  1.0
  H  H774  1  0.126200  0.497500  0.469800  1.0
  H  H775  1  0.037967  0.207133  0.803133  1.0
  H  H776  1  0.169167  0.962033  0.803133  1.0
  H  H777  1  0.792867  0.830833  0.803133  1.0
  H  H778  1  0.704633  0.540467  0.136467  1.0
  H  H779  1  0.835833  0.295367  0.136467  1.0
  H  H780  1  0.459533  0.164167  0.136467  1.0
  H  H781  1  0.818700  0.292900  0.536300  1.0
  H  H782  1  0.474200  0.181300  0.536300  1.0
  H  H783  1  0.707100  0.525800  0.536300  1.0
  H  H784  1  0.152033  0.959567  0.202967  1.0
  H  H785  1  0.807533  0.847967  0.202967  1.0
  H  H786  1  0.040433  0.192467  0.202967  1.0
  H  H787  1  0.485367  0.626233  0.869633  1.0
  H  H788  1  0.140867  0.514633  0.869633  1.0
  H  H789  1  0.373767  0.859133  0.869633  1.0
  H  H790  1  0.181300  0.707100  0.463700  1.0
  H  H791  1  0.525800  0.818700  0.463700  1.0
  H  H792  1  0.292900  0.474200  0.463700  1.0
  H  H793  1  0.847967  0.040433  0.797033  1.0
  H  H794  1  0.192467  0.152033  0.797033  1.0
  H  H795  1  0.959567  0.807533  0.797033  1.0
  H  H796  1  0.514633  0.373767  0.130367  1.0
  H  H797  1  0.859133  0.485367  0.130367  1.0
  H  H798  1  0.626233  0.140867  0.130367  1.0
  H  H799  1  0.855500  0.268100  0.553000  1.0
  H  H800  1  0.412600  0.144500  0.553000  1.0
  H  H801  1  0.731900  0.587400  0.553000  1.0
  H  H802  1  0.188833  0.934767  0.219667  1.0
  H  H803  1  0.745933  0.811167  0.219667  1.0
  H  H804  1  0.065233  0.254067  0.219667  1.0
  H  H805  1  0.522167  0.601433  0.886333  1.0
  H  H806  1  0.079267  0.477833  0.886333  1.0
  H  H807  1  0.398567  0.920733  0.886333  1.0
  H  H808  1  0.144500  0.731900  0.447000  1.0
  H  H809  1  0.587400  0.855500  0.447000  1.0
  H  H810  1  0.268100  0.412600  0.447000  1.0
  H  H811  1  0.811167  0.065233  0.780333  1.0
  H  H812  1  0.254067  0.188833  0.780333  1.0
  H  H813  1  0.934767  0.745933  0.780333  1.0
  H  H814  1  0.477833  0.398567  0.113667  1.0
  H  H815  1  0.920733  0.522167  0.113667  1.0
  H  H816  1  0.601433  0.079267  0.113667  1.0
  H  H817  1  0.802100  0.174600  0.561700  1.0
  H  H818  1  0.372500  0.197900  0.561700  1.0
  H  H819  1  0.825400  0.627500  0.561700  1.0
  H  H820  1  0.135433  0.841267  0.228367  1.0
  H  H821  1  0.705833  0.864567  0.228367  1.0
  H  H822  1  0.158733  0.294167  0.228367  1.0
  H  H823  1  0.468767  0.507933  0.895033  1.0
  H  H824  1  0.039167  0.531233  0.895033  1.0
  H  H825  1  0.492067  0.960833  0.895033  1.0
  H  H826  1  0.197900  0.825400  0.438300  1.0
  H  H827  1  0.627500  0.802100  0.438300  1.0
  H  H828  1  0.174600  0.372500  0.438300  1.0
  H  H829  1  0.864567  0.158733  0.771633  1.0
  H  H830  1  0.294167  0.135433  0.771633  1.0
  H  H831  1  0.841267  0.705833  0.771633  1.0
  H  H832  1  0.531233  0.492067  0.104967  1.0
  H  H833  1  0.960833  0.468767  0.104967  1.0
  H  H834  1  0.507933  0.039167  0.104967  1.0
  H  H835  1  0.708000  0.072600  0.562300  1.0
  H  H836  1  0.364600  0.292000  0.562300  1.0
  H  H837  1  0.927400  0.635400  0.562300  1.0
  H  H838  1  0.041333  0.739267  0.228967  1.0
  H  H839  1  0.697933  0.958667  0.228967  1.0
  H  H840  1  0.260733  0.302067  0.228967  1.0
  H  H841  1  0.374667  0.405933  0.895633  1.0
  H  H842  1  0.031267  0.625333  0.895633  1.0
  H  H843  1  0.594067  0.968733  0.895633  1.0
  H  H844  1  0.292000  0.927400  0.437700  1.0
  H  H845  1  0.635400  0.708000  0.437700  1.0
  H  H846  1  0.072600  0.364600  0.437700  1.0
  H  H847  1  0.958667  0.260733  0.771033  1.0
  H  H848  1  0.302067  0.041333  0.771033  1.0
  H  H849  1  0.739267  0.697933  0.771033  1.0
  H  H850  1  0.625333  0.594067  0.104367  1.0
  H  H851  1  0.968733  0.374667  0.104367  1.0
  H  H852  1  0.405933  0.031267  0.104367  1.0
  H  H853  1  0.646000  0.229700  0.533100  1.0
  H  H854  1  0.583700  0.354000  0.533100  1.0
  H  H855  1  0.770300  0.416300  0.533100  1.0
  H  H856  1  0.979333  0.896367  0.199767  1.0
  H  H857  1  0.917033  0.020667  0.199767  1.0
  H  H858  1  0.103633  0.082967  0.199767  1.0
  H  H859  1  0.312667  0.563033  0.866433  1.0
  H  H860  1  0.250367  0.687333  0.866433  1.0
  H  H861  1  0.436967  0.749633  0.866433  1.0
  H  H862  1  0.354000  0.770300  0.466900  1.0
  H  H863  1  0.416300  0.646000  0.466900  1.0
  H  H864  1  0.229700  0.583700  0.466900  1.0
  H  H865  1  0.020667  0.103633  0.800233  1.0
  H  H866  1  0.082967  0.979333  0.800233  1.0
  H  H867  1  0.896367  0.917033  0.800233  1.0
  H  H868  1  0.687333  0.436967  0.133567  1.0
  H  H869  1  0.749633  0.312667  0.133567  1.0
  H  H870  1  0.563033  0.250367  0.133567  1.0
  H  H871  1  0.604600  0.246200  0.515800  1.0
  H  H872  1  0.641600  0.395400  0.515800  1.0
  H  H873  1  0.753800  0.358400  0.515800  1.0
  H  H874  1  0.937933  0.912867  0.182467  1.0
  H  H875  1  0.974933  0.062067  0.182467  1.0
  H  H876  1  0.087133  0.025067  0.182467  1.0
  H  H877  1  0.271267  0.579533  0.849133  1.0
  H  H878  1  0.308267  0.728733  0.849133  1.0
  H  H879  1  0.420467  0.691733  0.849133  1.0
  H  H880  1  0.395400  0.753800  0.484200  1.0
  H  H881  1  0.358400  0.604600  0.484200  1.0
  H  H882  1  0.246200  0.641600  0.484200  1.0
  H  H883  1  0.062067  0.087133  0.817533  1.0
  H  H884  1  0.025067  0.937933  0.817533  1.0
  H  H885  1  0.912867  0.974933  0.817533  1.0
  H  H886  1  0.728733  0.420467  0.150867  1.0
  H  H887  1  0.691733  0.271267  0.150867  1.0
  H  H888  1  0.579533  0.308267  0.150867  1.0
  H  H889  1  0.739300  0.257100  0.495600  1.0
  H  H890  1  0.517800  0.260700  0.495600  1.0
  H  H891  1  0.742900  0.482200  0.495600  1.0
  H  H892  1  0.072633  0.923767  0.162267  1.0
  H  H893  1  0.851133  0.927367  0.162267  1.0
  H  H894  1  0.076233  0.148867  0.162267  1.0
  H  H895  1  0.405967  0.590433  0.828933  1.0
  H  H896  1  0.184467  0.594033  0.828933  1.0
  H  H897  1  0.409567  0.815533  0.828933  1.0
  H  H898  1  0.260700  0.742900  0.504400  1.0
  H  H899  1  0.482200  0.739300  0.504400  1.0
  H  H900  1  0.257100  0.517800  0.504400  1.0
  H  H901  1  0.927367  0.076233  0.837733  1.0
  H  H902  1  0.148867  0.072633  0.837733  1.0
  H  H903  1  0.923767  0.851133  0.837733  1.0
  H  H904  1  0.594033  0.409567  0.171067  1.0
  H  H905  1  0.815533  0.405967  0.171067  1.0
  H  H906  1  0.590433  0.184467  0.171067  1.0
  H  H907  1  0.780500  0.240900  0.512900  1.0
  H  H908  1  0.460400  0.219500  0.512900  1.0
  H  H909  1  0.759100  0.539600  0.512900  1.0
  H  H910  1  0.113833  0.907567  0.179567  1.0
  H  H911  1  0.793733  0.886167  0.179567  1.0
  H  H912  1  0.092433  0.206267  0.179567  1.0
  H  H913  1  0.447167  0.574233  0.846233  1.0
  H  H914  1  0.127067  0.552833  0.846233  1.0
  H  H915  1  0.425767  0.872933  0.846233  1.0
  H  H916  1  0.219500  0.759100  0.487100  1.0
  H  H917  1  0.539600  0.780500  0.487100  1.0
  H  H918  1  0.240900  0.460400  0.487100  1.0
  H  H919  1  0.886167  0.092433  0.820433  1.0
  H  H920  1  0.206267  0.113833  0.820433  1.0
  H  H921  1  0.907567  0.793733  0.820433  1.0
  H  H922  1  0.552833  0.425767  0.153767  1.0
  H  H923  1  0.872933  0.447167  0.153767  1.0
  H  H924  1  0.574233  0.127067  0.153767  1.0
  H  H925  1  0.579800  0.176900  0.493200  1.0
  H  H926  1  0.597100  0.420200  0.493200  1.0
  H  H927  1  0.823100  0.402900  0.493200  1.0
  H  H928  1  0.913133  0.843567  0.159867  1.0
  H  H929  1  0.930433  0.086867  0.159867  1.0
  H  H930  1  0.156433  0.069567  0.159867  1.0
  H  H931  1  0.246467  0.510233  0.826533  1.0
  H  H932  1  0.263767  0.753533  0.826533  1.0
  H  H933  1  0.489767  0.736233  0.826533  1.0
  H  H934  1  0.420200  0.823100  0.506800  1.0
  H  H935  1  0.402900  0.579800  0.506800  1.0
  H  H936  1  0.176900  0.597100  0.506800  1.0
  H  H937  1  0.086867  0.156433  0.840133  1.0
  H  H938  1  0.069567  0.913133  0.840133  1.0
  H  H939  1  0.843567  0.930433  0.840133  1.0
  H  H940  1  0.753533  0.489767  0.173467  1.0
  H  H941  1  0.736233  0.246467  0.173467  1.0
  H  H942  1  0.510233  0.263767  0.173467  1.0
  H  H943  1  0.500600  0.138400  0.476100  1.0
  H  H944  1  0.637800  0.499400  0.476100  1.0
  H  H945  1  0.861600  0.362200  0.476100  1.0
  H  H946  1  0.833933  0.805067  0.142767  1.0
  H  H947  1  0.971133  0.166067  0.142767  1.0
  H  H948  1  0.194933  0.028867  0.142767  1.0
  H  H949  1  0.167267  0.471733  0.809433  1.0
  H  H950  1  0.304467  0.832733  0.809433  1.0
  H  H951  1  0.528267  0.695533  0.809433  1.0
  H  H952  1  0.499400  0.861600  0.523900  1.0
  H  H953  1  0.362200  0.500600  0.523900  1.0
  H  H954  1  0.138400  0.637800  0.523900  1.0
  H  H955  1  0.166067  0.194933  0.857233  1.0
  H  H956  1  0.028867  0.833933  0.857233  1.0
  H  H957  1  0.805067  0.971133  0.857233  1.0
  H  H958  1  0.832733  0.528267  0.190567  1.0
  H  H959  1  0.695533  0.167267  0.190567  1.0
  H  H960  1  0.471733  0.304467  0.190567  1.0
  H  H961  1  0.459100  0.162100  0.459700  1.0
  H  H962  1  0.703000  0.540900  0.459700  1.0
  H  H963  1  0.837900  0.297000  0.459700  1.0
  H  H964  1  0.792433  0.828767  0.126367  1.0
  H  H965  1  0.036333  0.207567  0.126367  1.0
  H  H966  1  0.171233  0.963667  0.126367  1.0
  H  H967  1  0.125767  0.495433  0.793033  1.0
  H  H968  1  0.369667  0.874233  0.793033  1.0
  H  H969  1  0.504567  0.630333  0.793033  1.0
  H  H970  1  0.540900  0.837900  0.540300  1.0
  H  H971  1  0.297000  0.459100  0.540300  1.0
  H  H972  1  0.162100  0.703000  0.540300  1.0
  H  H973  1  0.207567  0.171233  0.873633  1.0
  H  H974  1  0.963667  0.792433  0.873633  1.0
  H  H975  1  0.828767  0.036333  0.873633  1.0
  H  H976  1  0.874233  0.504567  0.206967  1.0
  H  H977  1  0.630333  0.125767  0.206967  1.0
  H  H978  1  0.495433  0.369667  0.206967  1.0
  H  H979  1  0.506200  0.258900  0.452300  1.0
  H  H980  1  0.752700  0.493800  0.452300  1.0
  H  H981  1  0.741100  0.247300  0.452300  1.0
  H  H982  1  0.839533  0.925567  0.118967  1.0
  H  H983  1  0.086033  0.160467  0.118967  1.0
  H  H984  1  0.074433  0.913967  0.118967  1.0
  H  H985  1  0.172867  0.592233  0.785633  1.0
  H  H986  1  0.419367  0.827133  0.785633  1.0
  H  H987  1  0.407767  0.580633  0.785633  1.0
  H  H988  1  0.493800  0.741100  0.547700  1.0
  H  H989  1  0.247300  0.506200  0.547700  1.0
  H  H990  1  0.258900  0.752700  0.547700  1.0
  H  H991  1  0.160467  0.074433  0.881033  1.0
  H  H992  1  0.913967  0.839533  0.881033  1.0
  H  H993  1  0.925567  0.086033  0.881033  1.0
  H  H994  1  0.827133  0.407767  0.214367  1.0
  H  H995  1  0.580633  0.172867  0.214367  1.0
  H  H996  1  0.592233  0.419367  0.214367  1.0
  H  H997  1  0.590500  0.330800  0.462000  1.0
  H  H998  1  0.740300  0.409500  0.462000  1.0
  H  H999  1  0.669200  0.259700  0.462000  1.0
  H  H1000  1  0.923833  0.997467  0.128667  1.0
  H  H1001  1  0.073633  0.076167  0.128667  1.0
  H  H1002  1  0.002533  0.926367  0.128667  1.0
  H  H1003  1  0.257167  0.664133  0.795333  1.0
  H  H1004  1  0.406967  0.742833  0.795333  1.0
  H  H1005  1  0.335867  0.593033  0.795333  1.0
  H  H1006  1  0.409500  0.669200  0.538000  1.0
  H  H1007  1  0.259700  0.590500  0.538000  1.0
  H  H1008  1  0.330800  0.740300  0.538000  1.0
  H  H1009  1  0.076167  0.002533  0.871333  1.0
  H  H1010  1  0.926367  0.923833  0.871333  1.0
  H  H1011  1  0.997467  0.073633  0.871333  1.0
  H  H1012  1  0.742833  0.335867  0.204667  1.0
  H  H1013  1  0.593033  0.257167  0.204667  1.0
  H  H1014  1  0.664133  0.406967  0.204667  1.0
  C  C1015  1  0.502500  0.129800  0.678300  1
  C  C1016  1  0.627300  0.497500  0.678300  1
  C  C1017  1  0.870200  0.372700  0.678300  1
  C  C1018  1  0.835833  0.796467  0.344967  1
  C  C1019  1  0.960633  0.164167  0.344967  1
  C  C1020  1  0.203533  0.039367  0.344967  1
  C  C1021  1  0.169167  0.463133  0.011633  1
  C  C1022  1  0.293967  0.830833  0.011633  1
  C  C1023  1  0.536867  0.706033  0.011633  1
  C  C1024  1  0.497500  0.870200  0.321700  1
  C  C1025  1  0.372700  0.502500  0.321700  1
  C  C1026  1  0.129800  0.627300  0.321700  1
  C  C1027  1  0.164167  0.203533  0.655033  1
  C  C1028  1  0.039367  0.835833  0.655033  1
  C  C1029  1  0.796467  0.960633  0.655033  1
  C  C1030  1  0.830833  0.536867  0.988367  1
  C  C1031  1  0.706033  0.169167  0.988367  1
  C  C1032  1  0.463133  0.293967  0.988367  1
  C  C1033  1  0.522600  0.115000  0.667200  1
  C  C1034  1  0.592400  0.477400  0.667200  1
  C  C1035  1  0.885000  0.407600  0.667200  1
  C  C1036  1  0.855933  0.781667  0.333867  1
  C  C1037  1  0.925733  0.144067  0.333867  1
  C  C1038  1  0.218333  0.074267  0.333867  1
  C  C1039  1  0.189267  0.448333  0.000533  1
  C  C1040  1  0.259067  0.810733  0.000533  1
  C  C1041  1  0.551667  0.740933  0.000533  1
  C  C1042  1  0.477400  0.885000  0.332800  1
  C  C1043  1  0.407600  0.522600  0.332800  1
  C  C1044  1  0.115000  0.592400  0.332800  1
  C  C1045  1  0.144067  0.218333  0.666133  1
  C  C1046  1  0.074267  0.855933  0.666133  1
  C  C1047  1  0.781667  0.925733  0.666133  1
  C  C1048  1  0.810733  0.551667  0.999467  1
  C  C1049  1  0.740933  0.189267  0.999467  1
  C  C1050  1  0.448333  0.259067  0.999467  1
  C  C1051  1  0.555600  0.186300  0.592680  1
  C  C1052  1  0.630700  0.444400  0.592680  1
  C  C1053  1  0.813700  0.369300  0.592680  1
  C  C1054  1  0.888933  0.852967  0.259347  1
  C  C1055  1  0.964033  0.111067  0.259347  1
  C  C1056  1  0.147033  0.035967  0.259347  1
  C  C1057  1  0.222267  0.519633  0.926013  1
  C  C1058  1  0.297367  0.777733  0.926013  1
  C  C1059  1  0.480367  0.702633  0.926013  1
  C  C1060  1  0.444400  0.813700  0.407320  1
  C  C1061  1  0.369300  0.555600  0.407320  1
  C  C1062  1  0.186300  0.630700  0.407320  1
  C  C1063  1  0.111067  0.147033  0.740653  1
  C  C1064  1  0.035967  0.888933  0.740653  1
  C  C1065  1  0.852967  0.964033  0.740653  1
  C  C1066  1  0.777733  0.480367  0.073987  1
  C  C1067  1  0.702633  0.222267  0.073987  1
  C  C1068  1  0.519633  0.297367  0.073987  1
  C  C1069  1  0.602200  0.195200  0.600580  1
  C  C1070  1  0.593000  0.397800  0.600580  1
  C  C1071  1  0.804800  0.407000  0.600580  1
  C  C1072  1  0.935533  0.861867  0.267247  1
  C  C1073  1  0.926333  0.064467  0.267247  1
  C  C1074  1  0.138133  0.073667  0.267247  1
  C  C1075  1  0.268867  0.528533  0.933913  1
  C  C1076  1  0.259667  0.731133  0.933913  1
  C  C1077  1  0.471467  0.740333  0.933913  1
  C  C1078  1  0.397800  0.804800  0.399420  1
  C  C1079  1  0.407000  0.602200  0.399420  1
  C  C1080  1  0.195200  0.593000  0.399420  1
  C  C1081  1  0.064467  0.138133  0.732753  1
  C  C1082  1  0.073667  0.935533  0.732753  1
  C  C1083  1  0.861867  0.926333  0.732753  1
  C  C1084  1  0.731133  0.471467  0.066087  1
  C  C1085  1  0.740333  0.268867  0.066087  1
  C  C1086  1  0.528533  0.259667  0.066087  1
  C  C1087  1  0.656100  0.199800  0.595910  1
  C  C1088  1  0.543700  0.343900  0.595910  1
  C  C1089  1  0.800200  0.456300  0.595910  1
  C  C1090  1  0.989433  0.866467  0.262577  1
  C  C1091  1  0.877033  0.010567  0.262577  1
  C  C1092  1  0.133533  0.122967  0.262577  1
  C  C1093  1  0.322767  0.533133  0.929243  1
  C  C1094  1  0.210367  0.677233  0.929243  1
  C  C1095  1  0.466867  0.789633  0.929243  1
  C  C1096  1  0.343900  0.800200  0.404090  1
  C  C1097  1  0.456300  0.656100  0.404090  1
  C  C1098  1  0.199800  0.543700  0.404090  1
  C  C1099  1  0.010567  0.133533  0.737423  1
  C  C1100  1  0.122967  0.989433  0.737423  1
  C  C1101  1  0.866467  0.877033  0.737423  1
  C  C1102  1  0.677233  0.466867  0.070757  1
  C  C1103  1  0.789633  0.322767  0.070757  1
  C  C1104  1  0.533133  0.210367  0.070757  1
  C  C1105  1  0.661200  0.195300  0.583350  1
  C  C1106  1  0.534100  0.338800  0.583350  1
  C  C1107  1  0.804700  0.465900  0.583350  1
  C  C1108  1  0.994533  0.861967  0.250017  1
  C  C1109  1  0.867433  0.005467  0.250017  1
  C  C1110  1  0.138033  0.132567  0.250017  1
  C  C1111  1  0.327867  0.528633  0.916683  1
  C  C1112  1  0.200767  0.672133  0.916683  1
  C  C1113  1  0.471367  0.799233  0.916683  1
  C  C1114  1  0.338800  0.804700  0.416650  1
  C  C1115  1  0.465900  0.661200  0.416650  1
  C  C1116  1  0.195300  0.534100  0.416650  1
  C  C1117  1  0.005467  0.138033  0.749983  1
  C  C1118  1  0.132567  0.994533  0.749983  1
  C  C1119  1  0.861967  0.867433  0.749983  1
  C  C1120  1  0.672133  0.471367  0.083317  1
  C  C1121  1  0.799233  0.327867  0.083317  1
  C  C1122  1  0.528633  0.200767  0.083317  1
  C  C1123  1  0.613300  0.187200  0.575250  1
  C  C1124  1  0.573900  0.386700  0.575250  1
  C  C1125  1  0.812800  0.426100  0.575250  1
  C  C1126  1  0.946633  0.853867  0.241917  1
  C  C1127  1  0.907233  0.053367  0.241917  1
  C  C1128  1  0.146133  0.092767  0.241917  1
  C  C1129  1  0.279967  0.520533  0.908583  1
  C  C1130  1  0.240567  0.720033  0.908583  1
  C  C1131  1  0.479467  0.759433  0.908583  1
  C  C1132  1  0.386700  0.812800  0.424750  1
  C  C1133  1  0.426100  0.613300  0.424750  1
  C  C1134  1  0.187200  0.573900  0.424750  1
  C  C1135  1  0.053367  0.146133  0.758083  1
  C  C1136  1  0.092767  0.946633  0.758083  1
  C  C1137  1  0.853867  0.907233  0.758083  1
  C  C1138  1  0.720033  0.479467  0.091417  1
  C  C1139  1  0.759433  0.279967  0.091417  1
  C  C1140  1  0.520533  0.240567  0.091417  1
  C  C1141  1  0.563100  0.183500  0.579830  1
  C  C1142  1  0.620400  0.436900  0.579830  1
  C  C1143  1  0.816500  0.379600  0.579830  1
  C  C1144  1  0.896433  0.850167  0.246497  1
  C  C1145  1  0.953733  0.103567  0.246497  1
  C  C1146  1  0.149833  0.046267  0.246497  1
  C  C1147  1  0.229767  0.516833  0.913163  1
  C  C1148  1  0.287067  0.770233  0.913163  1
  C  C1149  1  0.483167  0.712933  0.913163  1
  C  C1150  1  0.436900  0.816500  0.420170  1
  C  C1151  1  0.379600  0.563100  0.420170  1
  C  C1152  1  0.183500  0.620400  0.420170  1
  C  C1153  1  0.103567  0.149833  0.753503  1
  C  C1154  1  0.046267  0.896433  0.753503  1
  C  C1155  1  0.850167  0.953733  0.753503  1
  C  C1156  1  0.770233  0.483167  0.086837  1
  C  C1157  1  0.712933  0.229767  0.086837  1
  C  C1158  1  0.516833  0.287067  0.086837  1
  C  C1159  1  0.673200  0.471400  0.588240  1
  C  C1160  1  0.798200  0.326800  0.588240  1
  C  C1161  1  0.528600  0.201800  0.588240  1
  C  C1162  1  0.006533  0.138067  0.254907  1
  C  C1163  1  0.131533  0.993467  0.254907  1
  C  C1164  1  0.861933  0.868467  0.254907  1
  C  C1165  1  0.339867  0.804733  0.921573  1
  C  C1166  1  0.464867  0.660133  0.921573  1
  C  C1167  1  0.195267  0.535133  0.921573  1
  C  C1168  1  0.326800  0.528600  0.411760  1
  C  C1169  1  0.201800  0.673200  0.411760  1
  C  C1170  1  0.471400  0.798200  0.411760  1
  C  C1171  1  0.993467  0.861933  0.745093  1
  C  C1172  1  0.868467  0.006533  0.745093  1
  C  C1173  1  0.138067  0.131533  0.745093  1
  C  C1174  1  0.660133  0.195267  0.078427  1
  C  C1175  1  0.535133  0.339867  0.078427  1
  C  C1176  1  0.804733  0.464867  0.078427  1
  C  C1177  1  0.718000  0.479000  0.596320  1
  C  C1178  1  0.761000  0.282000  0.596320  1
  C  C1179  1  0.521000  0.239000  0.596320  1
  C  C1180  1  0.051333  0.145667  0.262987  1
  C  C1181  1  0.094333  0.948667  0.262987  1
  C  C1182  1  0.854333  0.905667  0.262987  1
  C  C1183  1  0.384667  0.812333  0.929653  1
  C  C1184  1  0.427667  0.615333  0.929653  1
  C  C1185  1  0.187667  0.572333  0.929653  1
  C  C1186  1  0.282000  0.521000  0.403680  1
  C  C1187  1  0.239000  0.718000  0.403680  1
  C  C1188  1  0.479000  0.761000  0.403680  1
  C  C1189  1  0.948667  0.854333  0.737013  1
  C  C1190  1  0.905667  0.051333  0.737013  1
  C  C1191  1  0.145667  0.094333  0.737013  1
  C  C1192  1  0.615333  0.187667  0.070347  1
  C  C1193  1  0.572333  0.384667  0.070347  1
  C  C1194  1  0.812333  0.427667  0.070347  1
  C  C1195  1  0.769700  0.483700  0.591680  1
  C  C1196  1  0.714000  0.230300  0.591680  1
  C  C1197  1  0.516300  0.286000  0.591680  1
  C  C1198  1  0.103033  0.150367  0.258347  1
  C  C1199  1  0.047333  0.896967  0.258347  1
  C  C1200  1  0.849633  0.952667  0.258347  1
  C  C1201  1  0.436367  0.817033  0.925013  1
  C  C1202  1  0.380667  0.563633  0.925013  1
  C  C1203  1  0.182967  0.619333  0.925013  1
  C  C1204  1  0.230300  0.516300  0.408320  1
  C  C1205  1  0.286000  0.769700  0.408320  1
  C  C1206  1  0.483700  0.714000  0.408320  1
  C  C1207  1  0.896967  0.849633  0.741653  1
  C  C1208  1  0.952667  0.103033  0.741653  1
  C  C1209  1  0.150367  0.047333  0.741653  1
  C  C1210  1  0.563633  0.182967  0.074987  1
  C  C1211  1  0.619333  0.436367  0.074987  1
  C  C1212  1  0.817033  0.380667  0.074987  1
  C  C1213  1  0.775800  0.479700  0.578680  1
  C  C1214  1  0.703900  0.224200  0.578680  1
  C  C1215  1  0.520300  0.296100  0.578680  1
  C  C1216  1  0.109133  0.146367  0.245347  1
  C  C1217  1  0.037233  0.890867  0.245347  1
  C  C1218  1  0.853633  0.962767  0.245347  1
  C  C1219  1  0.442467  0.813033  0.912013  1
  C  C1220  1  0.370567  0.557533  0.912013  1
  C  C1221  1  0.186967  0.629433  0.912013  1
  C  C1222  1  0.224200  0.520300  0.421320  1
  C  C1223  1  0.296100  0.775800  0.421320  1
  C  C1224  1  0.479700  0.703900  0.421320  1
  C  C1225  1  0.890867  0.853633  0.754653  1
  C  C1226  1  0.962767  0.109133  0.754653  1
  C  C1227  1  0.146367  0.037233  0.754653  1
  C  C1228  1  0.557533  0.186967  0.087987  1
  C  C1229  1  0.629433  0.442467  0.087987  1
  C  C1230  1  0.813033  0.370567  0.087987  1
  C  C1231  1  0.731500  0.472000  0.570790  1
  C  C1232  1  0.740500  0.268500  0.570790  1
  C  C1233  1  0.528000  0.259500  0.570790  1
  C  C1234  1  0.064833  0.138667  0.237457  1
  C  C1235  1  0.073833  0.935167  0.237457  1
  C  C1236  1  0.861333  0.926167  0.237457  1
  C  C1237  1  0.398167  0.805333  0.904123  1
  C  C1238  1  0.407167  0.601833  0.904123  1
  C  C1239  1  0.194667  0.592833  0.904123  1
  C  C1240  1  0.268500  0.528000  0.429210  1
  C  C1241  1  0.259500  0.731500  0.429210  1
  C  C1242  1  0.472000  0.740500  0.429210  1
  C  C1243  1  0.935167  0.861333  0.762543  1
  C  C1244  1  0.926167  0.064833  0.762543  1
  C  C1245  1  0.138667  0.073833  0.762543  1
  C  C1246  1  0.601833  0.194667  0.095877  1
  C  C1247  1  0.592833  0.398167  0.095877  1
  C  C1248  1  0.805333  0.407167  0.095877  1
  C  C1249  1  0.678100  0.467900  0.575850  1
  C  C1250  1  0.789800  0.321900  0.575850  1
  C  C1251  1  0.532100  0.210200  0.575850  1
  C  C1252  1  0.011433  0.134567  0.242517  1
  C  C1253  1  0.123133  0.988567  0.242517  1
  C  C1254  1  0.865433  0.876867  0.242517  1
  C  C1255  1  0.344767  0.801233  0.909183  1
  C  C1256  1  0.456467  0.655233  0.909183  1
  C  C1257  1  0.198767  0.543533  0.909183  1
  C  C1258  1  0.321900  0.532100  0.424150  1
  C  C1259  1  0.210200  0.678100  0.424150  1
  C  C1260  1  0.467900  0.789800  0.424150  1
  C  C1261  1  0.988567  0.865433  0.757483  1
  C  C1262  1  0.876867  0.011433  0.757483  1
  C  C1263  1  0.134567  0.123133  0.757483  1
  C  C1264  1  0.655233  0.198767  0.090817  1
  C  C1265  1  0.543533  0.344767  0.090817  1
  C  C1266  1  0.801233  0.456467  0.090817  1
  C  C1267  1  0.764800  0.277300  0.584230  1
  C  C1268  1  0.512500  0.235200  0.584230  1
  C  C1269  1  0.722700  0.487500  0.584230  1
  C  C1270  1  0.098133  0.943967  0.250897  1
  C  C1271  1  0.845833  0.901867  0.250897  1
  C  C1272  1  0.056033  0.154167  0.250897  1
  C  C1273  1  0.431467  0.610633  0.917563  1
  C  C1274  1  0.179167  0.568533  0.917563  1
  C  C1275  1  0.389367  0.820833  0.917563  1
  C  C1276  1  0.235200  0.722700  0.415770  1
  C  C1277  1  0.487500  0.764800  0.415770  1
  C  C1278  1  0.277300  0.512500  0.415770  1
  C  C1279  1  0.901867  0.056033  0.749103  1
  C  C1280  1  0.154167  0.098133  0.749103  1
  C  C1281  1  0.943967  0.845833  0.749103  1
  C  C1282  1  0.568533  0.389367  0.082437  1
  C  C1283  1  0.820833  0.431467  0.082437  1
  C  C1284  1  0.610633  0.179167  0.082437  1
  C  C1285  1  0.716000  0.431900  0.560720  1
  C  C1286  1  0.715900  0.284000  0.560720  1
  C  C1287  1  0.568100  0.284100  0.560720  1
  C  C1288  1  0.049333  0.098567  0.227387  1
  C  C1289  1  0.049233  0.950667  0.227387  1
  C  C1290  1  0.901433  0.950767  0.227387  1
  C  C1291  1  0.382667  0.765233  0.894053  1
  C  C1292  1  0.382567  0.617333  0.894053  1
  C  C1293  1  0.234767  0.617433  0.894053  1
  C  C1294  1  0.284000  0.568100  0.439280  1
  C  C1295  1  0.284100  0.716000  0.439280  1
  C  C1296  1  0.431900  0.715900  0.439280  1
  C  C1297  1  0.950667  0.901433  0.772613  1
  C  C1298  1  0.950767  0.049333  0.772613  1
  C  C1299  1  0.098567  0.049233  0.772613  1
  C  C1300  1  0.617333  0.234767  0.105947  1
  C  C1301  1  0.617433  0.382667  0.105947  1
  C  C1302  1  0.765233  0.382567  0.105947  1
  C  C1303  1  0.560700  0.245600  0.563560  1
  C  C1304  1  0.684900  0.439300  0.563560  1
  C  C1305  1  0.754400  0.315100  0.563560  1
  C  C1306  1  0.894033  0.912267  0.230227  1
  C  C1307  1  0.018233  0.105967  0.230227  1
  C  C1308  1  0.087733  0.981767  0.230227  1
  C  C1309  1  0.227367  0.578933  0.896893  1
  C  C1310  1  0.351567  0.772633  0.896893  1
  C  C1311  1  0.421067  0.648433  0.896893  1
  C  C1312  1  0.439300  0.754400  0.436440  1
  C  C1313  1  0.315100  0.560700  0.436440  1
  C  C1314  1  0.245600  0.684900  0.436440  1
  C  C1315  1  0.105967  0.087733  0.769773  1
  C  C1316  1  0.981767  0.894033  0.769773  1
  C  C1317  1  0.912267  0.018233  0.769773  1
  C  C1318  1  0.772633  0.421067  0.103107  1
  C  C1319  1  0.648433  0.227367  0.103107  1
  C  C1320  1  0.578933  0.351567  0.103107  1
  C  C1321  1  0.680600  0.264300  0.612070  1
  C  C1322  1  0.583700  0.319400  0.612070  1
  C  C1323  1  0.735700  0.416300  0.612070  1
  C  C1324  1  0.013933  0.930967  0.278737  1
  C  C1325  1  0.917033  0.986067  0.278737  1
  C  C1326  1  0.069033  0.082967  0.278737  1
  C  C1327  1  0.347267  0.597633  0.945403  1
  C  C1328  1  0.250367  0.652733  0.945403  1
  C  C1329  1  0.402367  0.749633  0.945403  1
  C  C1330  1  0.319400  0.735700  0.387930  1
  C  C1331  1  0.416300  0.680600  0.387930  1
  C  C1332  1  0.264300  0.583700  0.387930  1
  C  C1333  1  0.986067  0.069033  0.721263  1
  C  C1334  1  0.082967  0.013933  0.721263  1
  C  C1335  1  0.930967  0.917033  0.721263  1
  C  C1336  1  0.652733  0.402367  0.054597  1
  C  C1337  1  0.749633  0.347267  0.054597  1
  C  C1338  1  0.597633  0.250367  0.054597  1
  C  C1339  1  0.618600  0.235900  0.610620  1
  C  C1340  1  0.617300  0.381400  0.610620  1
  C  C1341  1  0.764100  0.382700  0.610620  1
  C  C1342  1  0.951933  0.902567  0.277287  1
  C  C1343  1  0.950633  0.048067  0.277287  1
  C  C1344  1  0.097433  0.049367  0.277287  1
  C  C1345  1  0.285267  0.569233  0.943953  1
  C  C1346  1  0.283967  0.714733  0.943953  1
  C  C1347  1  0.430767  0.716033  0.943953  1
  C  C1348  1  0.381400  0.764100  0.389380  1
  C  C1349  1  0.382700  0.618600  0.389380  1
  C  C1350  1  0.235900  0.617300  0.389380  1
  C  C1351  1  0.048067  0.097433  0.722713  1
  C  C1352  1  0.049367  0.951933  0.722713  1
  C  C1353  1  0.902567  0.950633  0.722713  1
  C  C1354  1  0.714733  0.430767  0.056047  1
  C  C1355  1  0.716033  0.285267  0.056047  1
  C  C1356  1  0.569233  0.283967  0.056047  1
  C  C1357  1  0.771600  0.419200  0.608060  1
  C  C1358  1  0.647600  0.228400  0.608060  1
  C  C1359  1  0.580800  0.352400  0.608060  1
  C  C1360  1  0.104933  0.085867  0.274727  1
  C  C1361  1  0.980933  0.895067  0.274727  1
  C  C1362  1  0.914133  0.019067  0.274727  1
  C  C1363  1  0.438267  0.752533  0.941393  1
  C  C1364  1  0.314267  0.561733  0.941393  1
  C  C1365  1  0.247467  0.685733  0.941393  1
  C  C1366  1  0.228400  0.580800  0.391940  1
  C  C1367  1  0.352400  0.771600  0.391940  1
  C  C1368  1  0.419200  0.647600  0.391940  1
  C  C1369  1  0.895067  0.914133  0.725273  1
  C  C1370  1  0.019067  0.104933  0.725273  1
  C  C1371  1  0.085867  0.980933  0.725273  1
  C  C1372  1  0.561733  0.247467  0.058607  1
  C  C1373  1  0.685733  0.438267  0.058607  1
  C  C1374  1  0.752533  0.314267  0.058607  1
  C  C1375  1  0.543600  0.314700  0.602920  1
  C  C1376  1  0.771100  0.456400  0.602920  1
  C  C1377  1  0.685300  0.228900  0.602920  1
  C  C1378  1  0.876933  0.981367  0.269587  1
  C  C1379  1  0.104433  0.123067  0.269587  1
  C  C1380  1  0.018633  0.895567  0.269587  1
  C  C1381  1  0.210267  0.648033  0.936253  1
  C  C1382  1  0.437767  0.789733  0.936253  1
  C  C1383  1  0.351967  0.562233  0.936253  1
  C  C1384  1  0.456400  0.685300  0.397080  1
  C  C1385  1  0.228900  0.543600  0.397080  1
  C  C1386  1  0.314700  0.771100  0.397080  1
  C  C1387  1  0.123067  0.018633  0.730413  1
  C  C1388  1  0.895567  0.876933  0.730413  1
  C  C1389  1  0.981367  0.104433  0.730413  1
  C  C1390  1  0.789733  0.351967  0.063747  1
  C  C1391  1  0.562233  0.210267  0.063747  1
  C  C1392  1  0.648033  0.437767  0.063747  1
  C  C1393  1  0.681400  0.356400  0.617290  1
  C  C1394  1  0.675000  0.318600  0.617290  1
  C  C1395  1  0.643600  0.325000  0.617290  1
  C  C1396  1  0.014733  0.023067  0.283957  1
  C  C1397  1  0.008333  0.985267  0.283957  1
  C  C1398  1  0.976933  0.991667  0.283957  1
  C  C1399  1  0.348067  0.689733  0.950623  1
  C  C1400  1  0.341667  0.651933  0.950623  1
  C  C1401  1  0.310267  0.658333  0.950623  1
  C  C1402  1  0.318600  0.643600  0.382710  1
  C  C1403  1  0.325000  0.681400  0.382710  1
  C  C1404  1  0.356400  0.675000  0.382710  1
  C  C1405  1  0.985267  0.976933  0.716043  1
  C  C1406  1  0.991667  0.014733  0.716043  1
  C  C1407  1  0.023067  0.008333  0.716043  1
  C  C1408  1  0.651933  0.310267  0.049377  1
  C  C1409  1  0.658333  0.348067  0.049377  1
  C  C1410  1  0.689733  0.341667  0.049377  1
  C  C1411  1  0.513400  0.235500  0.582980  1
  C  C1412  1  0.722100  0.486600  0.582980  1
  C  C1413  1  0.764500  0.277900  0.582980  1
  C  C1414  1  0.846733  0.902167  0.249647  1
  C  C1415  1  0.055433  0.153267  0.249647  1
  C  C1416  1  0.097833  0.944567  0.249647  1
  C  C1417  1  0.180067  0.568833  0.916313  1
  C  C1418  1  0.388767  0.819933  0.916313  1
  C  C1419  1  0.431167  0.611233  0.916313  1
  C  C1420  1  0.486600  0.764500  0.417020  1
  C  C1421  1  0.277900  0.513400  0.417020  1
  C  C1422  1  0.235500  0.722100  0.417020  1
  C  C1423  1  0.153267  0.097833  0.750353  1
  C  C1424  1  0.944567  0.846733  0.750353  1
  C  C1425  1  0.902167  0.055433  0.750353  1
  C  C1426  1  0.819933  0.431167  0.083687  1
  C  C1427  1  0.611233  0.180067  0.083687  1
  C  C1428  1  0.568833  0.388767  0.083687  1
  C  C1429  1  0.789200  0.352300  0.568680  1
  C  C1430  1  0.563100  0.210800  0.568680  1
  C  C1431  1  0.647700  0.436900  0.568680  1
  C  C1432  1  0.122533  0.018967  0.235347  1
  C  C1433  1  0.896433  0.877467  0.235347  1
  C  C1434  1  0.981033  0.103567  0.235347  1
  C  C1435  1  0.455867  0.685633  0.902013  1
  C  C1436  1  0.229767  0.544133  0.902013  1
  C  C1437  1  0.314367  0.770233  0.902013  1
  C  C1438  1  0.210800  0.647700  0.431320  1
  C  C1439  1  0.436900  0.789200  0.431320  1
  C  C1440  1  0.352300  0.563100  0.431320  1
  C  C1441  1  0.877467  0.981033  0.764653  1
  C  C1442  1  0.103567  0.122533  0.764653  1
  C  C1443  1  0.018967  0.896433  0.764653  1
  C  C1444  1  0.544133  0.314367  0.097987  1
  C  C1445  1  0.770233  0.455867  0.097987  1
  C  C1446  1  0.685633  0.229767  0.097987  1
  C  C1447  1  0.651100  0.401100  0.559260  1
  C  C1448  1  0.750000  0.348900  0.559260  1
  C  C1449  1  0.598900  0.250000  0.559260  1
  C  C1450  1  0.984433  0.067767  0.225927  1
  C  C1451  1  0.083333  0.015567  0.225927  1
  C  C1452  1  0.932233  0.916667  0.225927  1
  C  C1453  1  0.317767  0.734433  0.892593  1
  C  C1454  1  0.416667  0.682233  0.892593  1
  C  C1455  1  0.265567  0.583333  0.892593  1
  C  C1456  1  0.348900  0.598900  0.440740  1
  C  C1457  1  0.250000  0.651100  0.440740  1
  C  C1458  1  0.401100  0.750000  0.440740  1
  C  C1459  1  0.015567  0.932233  0.774073  1
  C  C1460  1  0.916667  0.984433  0.774073  1
  C  C1461  1  0.067767  0.083333  0.774073  1
  C  C1462  1  0.682233  0.265567  0.107407  1
  C  C1463  1  0.583333  0.317767  0.107407  1
  C  C1464  1  0.734433  0.416667  0.107407  1
  C  C1465  1  0.651400  0.310700  0.553960  1
  C  C1466  1  0.659300  0.348600  0.553960  1
  C  C1467  1  0.689300  0.340700  0.553960  1
  C  C1468  1  0.984733  0.977367  0.220627  1
  C  C1469  1  0.992633  0.015267  0.220627  1
  C  C1470  1  0.022633  0.007367  0.220627  1
  C  C1471  1  0.318067  0.644033  0.887293  1
  C  C1472  1  0.325967  0.681933  0.887293  1
  C  C1473  1  0.355967  0.674033  0.887293  1
  C  C1474  1  0.348600  0.689300  0.446040  1
  C  C1475  1  0.340700  0.651400  0.446040  1
  C  C1476  1  0.310700  0.659300  0.446040  1
  C  C1477  1  0.015267  0.022633  0.779373  1
  C  C1478  1  0.007367  0.984733  0.779373  1
  C  C1479  1  0.977367  0.992633  0.779373  1
  C  C1480  1  0.681933  0.355967  0.112707  1
  C  C1481  1  0.674033  0.318067  0.112707  1
  C  C1482  1  0.644033  0.325967  0.112707  1
  C  C1483  1  0.588000  0.265900  0.612590  1
  C  C1484  1  0.677900  0.412000  0.612590  1
  C  C1485  1  0.734100  0.322100  0.612590  1
  C  C1486  1  0.921333  0.932567  0.279257  1
  C  C1487  1  0.011233  0.078667  0.279257  1
  C  C1488  1  0.067433  0.988767  0.279257  1
  C  C1489  1  0.254667  0.599233  0.945923  1
  C  C1490  1  0.344567  0.745333  0.945923  1
  C  C1491  1  0.400767  0.655433  0.945923  1
  C  C1492  1  0.412000  0.734100  0.387410  1
  C  C1493  1  0.322100  0.588000  0.387410  1
  C  C1494  1  0.265900  0.677900  0.387410  1
  C  C1495  1  0.078667  0.067433  0.720743  1
  C  C1496  1  0.988767  0.921333  0.720743  1
  C  C1497  1  0.932567  0.011233  0.720743  1
  C  C1498  1  0.745333  0.400767  0.054077  1
  C  C1499  1  0.655433  0.254667  0.054077  1
  C  C1500  1  0.599233  0.344567  0.054077  1
  C  C1501  1  0.768400  0.365100  0.609430  1
  C  C1502  1  0.596700  0.231600  0.609430  1
  C  C1503  1  0.634900  0.403300  0.609430  1
  C  C1504  1  0.101733  0.031767  0.276097  1
  C  C1505  1  0.930033  0.898267  0.276097  1
  C  C1506  1  0.968233  0.069967  0.276097  1
  C  C1507  1  0.435067  0.698433  0.942763  1
  C  C1508  1  0.263367  0.564933  0.942763  1
  C  C1509  1  0.301567  0.736633  0.942763  1
  C  C1510  1  0.231600  0.634900  0.390570  1
  C  C1511  1  0.403300  0.768400  0.390570  1
  C  C1512  1  0.365100  0.596700  0.390570  1
  C  C1513  1  0.898267  0.968233  0.723903  1
  C  C1514  1  0.069967  0.101733  0.723903  1
  C  C1515  1  0.031767  0.930033  0.723903  1
  C  C1516  1  0.564933  0.301567  0.057237  1
  C  C1517  1  0.736633  0.435067  0.057237  1
  C  C1518  1  0.698433  0.263367  0.057237  1
  C  C1519  1  0.620800  0.328500  0.616010  1
  C  C1520  1  0.707700  0.379200  0.616010  1
  C  C1521  1  0.671500  0.292300  0.616010  1
  C  C1522  1  0.954133  0.995167  0.282677  1
  C  C1523  1  0.041033  0.045867  0.282677  1
  C  C1524  1  0.004833  0.958967  0.282677  1
  C  C1525  1  0.287467  0.661833  0.949343  1
  C  C1526  1  0.374367  0.712533  0.949343  1
  C  C1527  1  0.338167  0.625633  0.949343  1
  C  C1528  1  0.379200  0.671500  0.383990  1
  C  C1529  1  0.292300  0.620800  0.383990  1
  C  C1530  1  0.328500  0.707700  0.383990  1
  C  C1531  1  0.045867  0.004833  0.717323  1
  C  C1532  1  0.958967  0.954133  0.717323  1
  C  C1533  1  0.995167  0.041033  0.717323  1
  C  C1534  1  0.712533  0.338167  0.050657  1
  C  C1535  1  0.625633  0.287467  0.050657  1
  C  C1536  1  0.661833  0.374367  0.050657  1
  C  C1537  1  0.820900  0.432000  0.588380  1
  C  C1538  1  0.611100  0.179100  0.588380  1
  C  C1539  1  0.568000  0.388900  0.588380  1
  C  C1540  1  0.154233  0.098667  0.255047  1
  C  C1541  1  0.944433  0.845767  0.255047  1
  C  C1542  1  0.901333  0.055567  0.255047  1
  C  C1543  1  0.487567  0.765333  0.921713  1
  C  C1544  1  0.277767  0.512433  0.921713  1
  C  C1545  1  0.234667  0.722233  0.921713  1
  C  C1546  1  0.179100  0.568000  0.411620  1
  C  C1547  1  0.388900  0.820900  0.411620  1
  C  C1548  1  0.432000  0.611100  0.411620  1
  C  C1549  1  0.845767  0.901333  0.744953  1
  C  C1550  1  0.055567  0.154233  0.744953  1
  C  C1551  1  0.098667  0.944433  0.744953  1
  C  C1552  1  0.512433  0.234667  0.078287  1
  C  C1553  1  0.722233  0.487567  0.078287  1
  C  C1554  1  0.765333  0.277767  0.078287  1
  C  C1555  1  0.758100  0.280500  0.597150  1
  C  C1556  1  0.522400  0.241900  0.597150  1
  C  C1557  1  0.719500  0.477600  0.597150  1
  C  C1558  1  0.091433  0.947167  0.263817  1
  C  C1559  1  0.855733  0.908567  0.263817  1
  C  C1560  1  0.052833  0.144267  0.263817  1
  C  C1561  1  0.424767  0.613833  0.930483  1
  C  C1562  1  0.189067  0.575233  0.930483  1
  C  C1563  1  0.386167  0.810933  0.930483  1
  C  C1564  1  0.241900  0.719500  0.402850  1
  C  C1565  1  0.477600  0.758100  0.402850  1
  C  C1566  1  0.280500  0.522400  0.402850  1
  C  C1567  1  0.908567  0.052833  0.736183  1
  C  C1568  1  0.144267  0.091433  0.736183  1
  C  C1569  1  0.947167  0.855733  0.736183  1
  C  C1570  1  0.575233  0.386167  0.069517  1
  C  C1571  1  0.810933  0.424767  0.069517  1
  C  C1572  1  0.613833  0.189067  0.069517  1
  C  C1573  1  0.542900  0.324500  0.570680  1
  C  C1574  1  0.781600  0.457100  0.570680  1
  C  C1575  1  0.675500  0.218400  0.570680  1
  C  C1576  1  0.876233  0.991167  0.237347  1
  C  C1577  1  0.114933  0.123767  0.237347  1
  C  C1578  1  0.008833  0.885067  0.237347  1
  C  C1579  1  0.209567  0.657833  0.904013  1
  C  C1580  1  0.448267  0.790433  0.904013  1
  C  C1581  1  0.342167  0.551733  0.904013  1
  C  C1582  1  0.457100  0.675500  0.429320  1
  C  C1583  1  0.218400  0.542900  0.429320  1
  C  C1584  1  0.324500  0.781600  0.429320  1
  C  C1585  1  0.123767  0.008833  0.762653  1
  C  C1586  1  0.885067  0.876233  0.762653  1
  C  C1587  1  0.991167  0.114933  0.762653  1
  C  C1588  1  0.790433  0.342167  0.095987  1
  C  C1589  1  0.551733  0.209567  0.095987  1
  C  C1590  1  0.657833  0.448267  0.095987  1
  C  C1591  1  0.628900  0.424700  0.568510  1
  C  C1592  1  0.795800  0.371100  0.568510  1
  C  C1593  1  0.575300  0.204200  0.568510  1
  C  C1594  1  0.962233  0.091367  0.235177  1
  C  C1595  1  0.129133  0.037767  0.235177  1
  C  C1596  1  0.908633  0.870867  0.235177  1
  C  C1597  1  0.295567  0.758033  0.901843  1
  C  C1598  1  0.462467  0.704433  0.901843  1
  C  C1599  1  0.241967  0.537533  0.901843  1
  C  C1600  1  0.371100  0.575300  0.431490  1
  C  C1601  1  0.204200  0.628900  0.431490  1
  C  C1602  1  0.424700  0.795800  0.431490  1
  C  C1603  1  0.037767  0.908633  0.764823  1
  C  C1604  1  0.870867  0.962233  0.764823  1
  C  C1605  1  0.091367  0.129133  0.764823  1
  C  C1606  1  0.704433  0.241967  0.098157  1
  C  C1607  1  0.537533  0.295567  0.098157  1
  C  C1608  1  0.758033  0.462467  0.098157  1
  C  C1609  1  0.525700  0.218800  0.594690  1
  C  C1610  1  0.693100  0.474300  0.594690  1
  C  C1611  1  0.781200  0.306900  0.594690  1
  C  C1612  1  0.859033  0.885467  0.261357  1
  C  C1613  1  0.026433  0.140967  0.261357  1
  C  C1614  1  0.114533  0.973567  0.261357  1
  C  C1615  1  0.192367  0.552133  0.928023  1
  C  C1616  1  0.359767  0.807633  0.928023  1
  C  C1617  1  0.447867  0.640233  0.928023  1
  C  C1618  1  0.474300  0.781200  0.405310  1
  C  C1619  1  0.306900  0.525700  0.405310  1
  C  C1620  1  0.218800  0.693100  0.405310  1
  C  C1621  1  0.140967  0.114533  0.738643  1
  C  C1622  1  0.973567  0.859033  0.738643  1
  C  C1623  1  0.885467  0.026433  0.738643  1
  C  C1624  1  0.807633  0.447867  0.071977  1
  C  C1625  1  0.640233  0.192367  0.071977  1
  C  C1626  1  0.552133  0.359767  0.071977  1
  C  C1627  1  0.808300  0.448200  0.576620  1
  C  C1628  1  0.639900  0.191700  0.576620  1
  C  C1629  1  0.551800  0.360100  0.576620  1
  C  C1630  1  0.141633  0.114867  0.243287  1
  C  C1631  1  0.973233  0.858367  0.243287  1
  C  C1632  1  0.885133  0.026767  0.243287  1
  C  C1633  1  0.474967  0.781533  0.909953  1
  C  C1634  1  0.306567  0.525033  0.909953  1
  C  C1635  1  0.218467  0.693433  0.909953  1
  C  C1636  1  0.191700  0.551800  0.423380  1
  C  C1637  1  0.360100  0.808300  0.423380  1
  C  C1638  1  0.448200  0.639900  0.423380  1
  C  C1639  1  0.858367  0.885133  0.756713  1
  C  C1640  1  0.026767  0.141633  0.756713  1
  C  C1641  1  0.114867  0.973233  0.756713  1
  C  C1642  1  0.525033  0.218467  0.090047  1
  C  C1643  1  0.693433  0.474967  0.090047  1
  C  C1644  1  0.781533  0.306567  0.090047  1
  C  C1645  1  0.575300  0.386200  0.574040  1
  C  C1646  1  0.810900  0.424700  0.574040  1
  C  C1647  1  0.613800  0.189100  0.574040  1
  C  C1648  1  0.908633  0.052867  0.240707  1
  C  C1649  1  0.144233  0.091367  0.240707  1
  C  C1650  1  0.947133  0.855767  0.240707  1
  C  C1651  1  0.241967  0.719533  0.907373  1
  C  C1652  1  0.477567  0.758033  0.907373  1
  C  C1653  1  0.280467  0.522433  0.907373  1
  C  C1654  1  0.424700  0.613800  0.425960  1
  C  C1655  1  0.189100  0.575300  0.425960  1
  C  C1656  1  0.386200  0.810900  0.425960  1
  C  C1657  1  0.091367  0.947133  0.759293  1
  C  C1658  1  0.855767  0.908633  0.759293  1
  C  C1659  1  0.052867  0.144233  0.759293  1
  C  C1660  1  0.758033  0.280467  0.092627  1
  C  C1661  1  0.522433  0.241967  0.092627  1
  C  C1662  1  0.719533  0.477567  0.092627  1
  C  C1663  1  0.593500  0.358400  0.610070  1
  C  C1664  1  0.764900  0.406500  0.610070  1
  C  C1665  1  0.641600  0.235100  0.610070  1
  C  C1666  1  0.926833  0.025067  0.276737  1
  C  C1667  1  0.098233  0.073167  0.276737  1
  C  C1668  1  0.974933  0.901767  0.276737  1
  C  C1669  1  0.260167  0.691733  0.943403  1
  C  C1670  1  0.431567  0.739833  0.943403  1
  C  C1671  1  0.308267  0.568433  0.943403  1
  C  C1672  1  0.406500  0.641600  0.389930  1
  C  C1673  1  0.235100  0.593500  0.389930  1
  C  C1674  1  0.358400  0.764900  0.389930  1
  C  C1675  1  0.073167  0.974933  0.723263  1
  C  C1676  1  0.901767  0.926833  0.723263  1
  C  C1677  1  0.025067  0.098233  0.723263  1
  C  C1678  1  0.739833  0.308267  0.056597  1
  C  C1679  1  0.568433  0.260167  0.056597  1
  C  C1680  1  0.691733  0.431567  0.056597  1
  C  C1681  1  0.790900  0.342300  0.600760  1
  C  C1682  1  0.551400  0.209100  0.600760  1
  C  C1683  1  0.657700  0.448600  0.600760  1
  C  C1684  1  0.124233  0.008967  0.267427  1
  C  C1685  1  0.884733  0.875767  0.267427  1
  C  C1686  1  0.991033  0.115267  0.267427  1
  C  C1687  1  0.457567  0.675633  0.934093  1
  C  C1688  1  0.218067  0.542433  0.934093  1
  C  C1689  1  0.324367  0.781933  0.934093  1
  C  C1690  1  0.209100  0.657700  0.399240  1
  C  C1691  1  0.448600  0.790900  0.399240  1
  C  C1692  1  0.342300  0.551400  0.399240  1
  C  C1693  1  0.875767  0.991033  0.732573  1
  C  C1694  1  0.115267  0.124233  0.732573  1
  C  C1695  1  0.008967  0.884733  0.732573  1
  C  C1696  1  0.542433  0.324367  0.065907  1
  C  C1697  1  0.781933  0.457567  0.065907  1
  C  C1698  1  0.675633  0.218067  0.065907  1
  C  C1699  1  0.713000  0.339300  0.555300  1
  C  C1700  1  0.626300  0.287000  0.555300  1
  C  C1701  1  0.660700  0.373700  0.555300  1
  C  C1702  1  0.046333  0.005967  0.221967  1
  C  C1703  1  0.959633  0.953667  0.221967  1
  C  C1704  1  0.994033  0.040367  0.221967  1
  C  C1705  1  0.379667  0.672633  0.888633  1
  C  C1706  1  0.292967  0.620333  0.888633  1
  C  C1707  1  0.327367  0.707033  0.888633  1
  C  C1708  1  0.287000  0.660700  0.444700  1
  C  C1709  1  0.373700  0.713000  0.444700  1
  C  C1710  1  0.339300  0.626300  0.444700  1
  C  C1711  1  0.953667  0.994033  0.778033  1
  C  C1712  1  0.040367  0.046333  0.778033  1
  C  C1713  1  0.005967  0.959633  0.778033  1
  C  C1714  1  0.620333  0.327367  0.111367  1
  C  C1715  1  0.707033  0.379667  0.111367  1
  C  C1716  1  0.672633  0.292967  0.111367  1
  C  C1717  1  0.564100  0.303300  0.561840  1
  C  C1718  1  0.739200  0.435900  0.561840  1
  C  C1719  1  0.696700  0.260800  0.561840  1
  C  C1720  1  0.897433  0.969967  0.228507  1
  C  C1721  1  0.072533  0.102567  0.228507  1
  C  C1722  1  0.030033  0.927467  0.228507  1
  C  C1723  1  0.230767  0.636633  0.895173  1
  C  C1724  1  0.405867  0.769233  0.895173  1
  C  C1725  1  0.363367  0.594133  0.895173  1
  C  C1726  1  0.435900  0.696700  0.438160  1
  C  C1727  1  0.260800  0.564100  0.438160  1
  C  C1728  1  0.303300  0.739200  0.438160  1
  C  C1729  1  0.102567  0.030033  0.771493  1
  C  C1730  1  0.927467  0.897433  0.771493  1
  C  C1731  1  0.969967  0.072533  0.771493  1
  C  C1732  1  0.769233  0.363367  0.104827  1
  C  C1733  1  0.594133  0.230767  0.104827  1
  C  C1734  1  0.636633  0.405867  0.104827  1
  C  C1735  1  0.745500  0.400600  0.558800  1
  C  C1736  1  0.655100  0.254500  0.558800  1
  C  C1737  1  0.599400  0.344900  0.558800  1
  C  C1738  1  0.078833  0.067267  0.225467  1
  C  C1739  1  0.988433  0.921167  0.225467  1
  C  C1740  1  0.932733  0.011567  0.225467  1
  C  C1741  1  0.412167  0.733933  0.892133  1
  C  C1742  1  0.321767  0.587833  0.892133  1
  C  C1743  1  0.266067  0.678233  0.892133  1
  C  C1744  1  0.254500  0.599400  0.441200  1
  C  C1745  1  0.344900  0.745500  0.441200  1
  C  C1746  1  0.400600  0.655100  0.441200  1
  C  C1747  1  0.921167  0.932733  0.774533  1
  C  C1748  1  0.011567  0.078833  0.774533  1
  C  C1749  1  0.067267  0.988433  0.774533  1
  C  C1750  1  0.587833  0.266067  0.107867  1
  C  C1751  1  0.678233  0.412167  0.107867  1
  C  C1752  1  0.733933  0.321767  0.107867  1
  C  C1753  1  0.705100  0.242800  0.602700  1
  C  C1754  1  0.537700  0.294900  0.602700  1
  C  C1755  1  0.757200  0.462300  0.602700  1
  C  C1756  1  0.038433  0.909467  0.269367  1
  C  C1757  1  0.871033  0.961567  0.269367  1
  C  C1758  1  0.090533  0.128967  0.269367  1
  C  C1759  1  0.371767  0.576133  0.936033  1
  C  C1760  1  0.204367  0.628233  0.936033  1
  C  C1761  1  0.423867  0.795633  0.936033  1
  C  C1762  1  0.294900  0.757200  0.397300  1
  C  C1763  1  0.462300  0.705100  0.397300  1
  C  C1764  1  0.242800  0.537700  0.397300  1
  C  C1765  1  0.961567  0.090533  0.730633  1
  C  C1766  1  0.128967  0.038433  0.730633  1
  C  C1767  1  0.909467  0.871033  0.730633  1
  C  C1768  1  0.628233  0.423867  0.063967  1
  C  C1769  1  0.795633  0.371767  0.063967  1
  C  C1770  1  0.576133  0.204367  0.063967  1
  C  C1771  1  0.739100  0.308500  0.561380  1
  C  C1772  1  0.569400  0.260900  0.561380  1
  C  C1773  1  0.691500  0.430600  0.561380  1
  C  C1774  1  0.072433  0.975167  0.228047  1
  C  C1775  1  0.902733  0.927567  0.228047  1
  C  C1776  1  0.024833  0.097267  0.228047  1
  C  C1777  1  0.405767  0.641833  0.894713  1
  C  C1778  1  0.236067  0.594233  0.894713  1
  C  C1779  1  0.358167  0.763933  0.894713  1
  C  C1780  1  0.260900  0.691500  0.438620  1
  C  C1781  1  0.430600  0.739100  0.438620  1
  C  C1782  1  0.308500  0.569400  0.438620  1
  C  C1783  1  0.927567  0.024833  0.771953  1
  C  C1784  1  0.097267  0.072433  0.771953  1
  C  C1785  1  0.975167  0.902733  0.771953  1
  C  C1786  1  0.594233  0.358167  0.105287  1
  C  C1787  1  0.763933  0.405767  0.105287  1
  C  C1788  1  0.641833  0.236067  0.105287  1
  C  C1789  1  0.641800  0.222400  0.564300  1
  C  C1790  1  0.580600  0.358200  0.564300  1
  C  C1791  1  0.777600  0.419400  0.564300  1
  C  C1792  1  0.975133  0.889067  0.230967  1
  C  C1793  1  0.913933  0.024867  0.230967  1
  C  C1794  1  0.110933  0.086067  0.230967  1
  C  C1795  1  0.308467  0.555733  0.897633  1
  C  C1796  1  0.247267  0.691533  0.897633  1
  C  C1797  1  0.444267  0.752733  0.897633  1
  C  C1798  1  0.358200  0.777600  0.435700  1
  C  C1799  1  0.419400  0.641800  0.435700  1
  C  C1800  1  0.222400  0.580600  0.435700  1
  C  C1801  1  0.024867  0.110933  0.769033  1
  C  C1802  1  0.086067  0.975133  0.769033  1
  C  C1803  1  0.889067  0.913933  0.769033  1
  C  C1804  1  0.691533  0.444267  0.102367  1
  C  C1805  1  0.752733  0.308467  0.102367  1
  C  C1806  1  0.555733  0.247267  0.102367  1
  C  C1807  1  0.615100  0.250900  0.558680  1
  C  C1808  1  0.635800  0.384900  0.558680  1
  C  C1809  1  0.749100  0.364200  0.558680  1
  C  C1810  1  0.948433  0.917567  0.225347  1
  C  C1811  1  0.969133  0.051567  0.225347  1
  C  C1812  1  0.082433  0.030867  0.225347  1
  C  C1813  1  0.281767  0.584233  0.892013  1
  C  C1814  1  0.302467  0.718233  0.892013  1
  C  C1815  1  0.415767  0.697533  0.892013  1
  C  C1816  1  0.384900  0.749100  0.441320  1
  C  C1817  1  0.364200  0.615100  0.441320  1
  C  C1818  1  0.250900  0.635800  0.441320  1
  C  C1819  1  0.051567  0.082433  0.774653  1
  C  C1820  1  0.030867  0.948433  0.774653  1
  C  C1821  1  0.917567  0.969133  0.774653  1
  C  C1822  1  0.718233  0.415767  0.107987  1
  C  C1823  1  0.697533  0.281767  0.107987  1
  C  C1824  1  0.584233  0.302467  0.107987  1
  C  C1825  1  0.692300  0.444500  0.607230  1
  C  C1826  1  0.752200  0.307700  0.607230  1
  C  C1827  1  0.555500  0.247800  0.607230  1
  C  C1828  1  0.025633  0.111167  0.273897  1
  C  C1829  1  0.085533  0.974367  0.273897  1
  C  C1830  1  0.888833  0.914467  0.273897  1
  C  C1831  1  0.358967  0.777833  0.940563  1
  C  C1832  1  0.418867  0.641033  0.940563  1
  C  C1833  1  0.222167  0.581133  0.940563  1
  C  C1834  1  0.307700  0.555500  0.392770  1
  C  C1835  1  0.247800  0.692300  0.392770  1
  C  C1836  1  0.444500  0.752200  0.392770  1
  C  C1837  1  0.974367  0.888833  0.726103  1
  C  C1838  1  0.914467  0.025633  0.726103  1
  C  C1839  1  0.111167  0.085533  0.726103  1
  C  C1840  1  0.641033  0.222167  0.059437  1
  C  C1841  1  0.581133  0.358967  0.059437  1
  C  C1842  1  0.777833  0.418867  0.059437  1
  C  C1843  1  0.717600  0.416200  0.612880  1
  C  C1844  1  0.698600  0.282400  0.612880  1
  C  C1845  1  0.583800  0.301400  0.612880  1
  C  C1846  1  0.050933  0.082867  0.279547  1
  C  C1847  1  0.031933  0.949067  0.279547  1
  C  C1848  1  0.917133  0.968067  0.279547  1
  C  C1849  1  0.384267  0.749533  0.946213  1
  C  C1850  1  0.365267  0.615733  0.946213  1
  C  C1851  1  0.250467  0.634733  0.946213  1
  C  C1852  1  0.282400  0.583800  0.387120  1
  C  C1853  1  0.301400  0.717600  0.387120  1
  C  C1854  1  0.416200  0.698600  0.387120  1
  C  C1855  1  0.949067  0.917133  0.720453  1
  C  C1856  1  0.968067  0.050933  0.720453  1
  C  C1857  1  0.082867  0.031933  0.720453  1
  C  C1858  1  0.615733  0.250467  0.053787  1
  C  C1859  1  0.634733  0.384267  0.053787  1
  C  C1860  1  0.749533  0.365267  0.053787  1
  C  C1861  1  0.539900  0.257400  0.604450  1
  C  C1862  1  0.717500  0.460100  0.604450  1
  C  C1863  1  0.742600  0.282500  0.604450  1
  C  C1864  1  0.873233  0.924067  0.271117  1
  C  C1865  1  0.050833  0.126767  0.271117  1
  C  C1866  1  0.075933  0.949167  0.271117  1
  C  C1867  1  0.206567  0.590733  0.937783  1
  C  C1868  1  0.384167  0.793433  0.937783  1
  C  C1869  1  0.409267  0.615833  0.937783  1
  C  C1870  1  0.460100  0.742600  0.395550  1
  C  C1871  1  0.282500  0.539900  0.395550  1
  C  C1872  1  0.257400  0.717500  0.395550  1
  C  C1873  1  0.126767  0.075933  0.728883  1
  C  C1874  1  0.949167  0.873233  0.728883  1
  C  C1875  1  0.924067  0.050833  0.728883  1
  C  C1876  1  0.793433  0.409267  0.062217  1
  C  C1877  1  0.615833  0.206567  0.062217  1
  C  C1878  1  0.590733  0.384167  0.062217  1
  C  C1879  1  0.620800  0.343200  0.556110  1
  C  C1880  1  0.722400  0.379200  0.556110  1
  C  C1881  1  0.656800  0.277600  0.556110  1
  C  C1882  1  0.954133  0.009867  0.222777  1
  C  C1883  1  0.055733  0.045867  0.222777  1
  C  C1884  1  0.990133  0.944267  0.222777  1
  C  C1885  1  0.287467  0.676533  0.889443  1
  C  C1886  1  0.389067  0.712533  0.889443  1
  C  C1887  1  0.323467  0.610933  0.889443  1
  C  C1888  1  0.379200  0.656800  0.443890  1
  C  C1889  1  0.277600  0.620800  0.443890  1
  C  C1890  1  0.343200  0.722400  0.443890  1
  C  C1891  1  0.045867  0.990133  0.777223  1
  C  C1892  1  0.944267  0.954133  0.777223  1
  C  C1893  1  0.009867  0.055733  0.777223  1
  C  C1894  1  0.712533  0.323467  0.110557  1
  C  C1895  1  0.610933  0.287467  0.110557  1
  C  C1896  1  0.676533  0.389067  0.110557  1
  C  C1897  1  0.713000  0.324600  0.615430  1
  C  C1898  1  0.611600  0.287000  0.615430  1
  C  C1899  1  0.675400  0.388400  0.615430  1
  C  C1900  1  0.046333  0.991267  0.282097  1
  C  C1901  1  0.944933  0.953667  0.282097  1
  C  C1902  1  0.008733  0.055067  0.282097  1
  C  C1903  1  0.379667  0.657933  0.948763  1
  C  C1904  1  0.278267  0.620333  0.948763  1
  C  C1905  1  0.342067  0.721733  0.948763  1
  C  C1906  1  0.287000  0.675400  0.384570  1
  C  C1907  1  0.388400  0.713000  0.384570  1
  C  C1908  1  0.324600  0.611600  0.384570  1
  C  C1909  1  0.953667  0.008733  0.717903  1
  C  C1910  1  0.055067  0.046333  0.717903  1
  C  C1911  1  0.991267  0.944933  0.717903  1
  C  C1912  1  0.620333  0.342067  0.051237  1
  C  C1913  1  0.721733  0.379667  0.051237  1
  C  C1914  1  0.657933  0.278267  0.051237  1
  C  C1915  1  0.536300  0.214500  0.573690  1
  C  C1916  1  0.678200  0.463700  0.573690  1
  C  C1917  1  0.785500  0.321800  0.573690  1
  C  C1918  1  0.869633  0.881167  0.240357  1
  C  C1919  1  0.011533  0.130367  0.240357  1
  C  C1920  1  0.118833  0.988467  0.240357  1
  C  C1921  1  0.202967  0.547833  0.907023  1
  C  C1922  1  0.344867  0.797033  0.907023  1
  C  C1923  1  0.452167  0.655133  0.907023  1
  C  C1924  1  0.463700  0.785500  0.426310  1
  C  C1925  1  0.321800  0.536300  0.426310  1
  C  C1926  1  0.214500  0.678200  0.426310  1
  C  C1927  1  0.130367  0.118833  0.759643  1
  C  C1928  1  0.988467  0.869633  0.759643  1
  C  C1929  1  0.881167  0.011533  0.759643  1
  C  C1930  1  0.797033  0.452167  0.092977  1
  C  C1931  1  0.655133  0.202967  0.092977  1
  C  C1932  1  0.547833  0.344867  0.092977  1
  C  C1933  1  0.792300  0.409500  0.567020  1
  C  C1934  1  0.617200  0.207700  0.567020  1
  C  C1935  1  0.590500  0.382800  0.567020  1
  C  C1936  1  0.125633  0.076167  0.233687  1
  C  C1937  1  0.950533  0.874367  0.233687  1
  C  C1938  1  0.923833  0.049467  0.233687  1
  C  C1939  1  0.458967  0.742833  0.900353  1
  C  C1940  1  0.283867  0.541033  0.900353  1
  C  C1941  1  0.257167  0.716133  0.900353  1
  C  C1942  1  0.207700  0.590500  0.432980  1
  C  C1943  1  0.382800  0.792300  0.432980  1
  C  C1944  1  0.409500  0.617200  0.432980  1
  C  C1945  1  0.874367  0.923833  0.766313  1
  C  C1946  1  0.049467  0.125633  0.766313  1
  C  C1947  1  0.076167  0.950533  0.766313  1
  C  C1948  1  0.541033  0.257167  0.099647  1
  C  C1949  1  0.716133  0.458967  0.099647  1
  C  C1950  1  0.742833  0.283867  0.099647  1
  C  C1951  1  0.717300  0.236000  0.577630  1
  C  C1952  1  0.518700  0.282700  0.577630  1
  C  C1953  1  0.764000  0.481300  0.577630  1
  C  C1954  1  0.050633  0.902667  0.244297  1
  C  C1955  1  0.852033  0.949367  0.244297  1
  C  C1956  1  0.097333  0.147967  0.244297  1
  C  C1957  1  0.383967  0.569333  0.910963  1
  C  C1958  1  0.185367  0.616033  0.910963  1
  C  C1959  1  0.430667  0.814633  0.910963  1
  C  C1960  1  0.282700  0.764000  0.422370  1
  C  C1961  1  0.481300  0.717300  0.422370  1
  C  C1962  1  0.236000  0.518700  0.422370  1
  C  C1963  1  0.949367  0.097333  0.755703  1
  C  C1964  1  0.147967  0.050633  0.755703  1
  C  C1965  1  0.902667  0.852033  0.755703  1
  C  C1966  1  0.616033  0.430667  0.089037  1
  C  C1967  1  0.814633  0.383967  0.089037  1
  C  C1968  1  0.569333  0.185367  0.089037  1
  C  C1969  1  0.797500  0.453700  0.597700  1
  C  C1970  1  0.656200  0.202500  0.597700  1
  C  C1971  1  0.546300  0.343800  0.597700  1
  C  C1972  1  0.130833  0.120367  0.264367  1
  C  C1973  1  0.989533  0.869167  0.264367  1
  C  C1974  1  0.879633  0.010467  0.264367  1
  C  C1975  1  0.464167  0.787033  0.931033  1
  C  C1976  1  0.322867  0.535833  0.931033  1
  C  C1977  1  0.212967  0.677133  0.931033  1
  C  C1978  1  0.202500  0.546300  0.402300  1
  C  C1979  1  0.343800  0.797500  0.402300  1
  C  C1980  1  0.453700  0.656200  0.402300  1
  C  C1981  1  0.869167  0.879633  0.735633  1
  C  C1982  1  0.010467  0.130833  0.735633  1
  C  C1983  1  0.120367  0.989533  0.735633  1
  C  C1984  1  0.535833  0.212967  0.068967  1
  C  C1985  1  0.677133  0.464167  0.068967  1
  C  C1986  1  0.787033  0.322867  0.068967  1
  C  C1987  1  0.616100  0.431600  0.594090  1
  C  C1988  1  0.815500  0.383900  0.594090  1
  C  C1989  1  0.568400  0.184500  0.594090  1
  C  C1990  1  0.949433  0.098267  0.260757  1
  C  C1991  1  0.148833  0.050567  0.260757  1
  C  C1992  1  0.901733  0.851167  0.260757  1
  C  C1993  1  0.282767  0.764933  0.927423  1
  C  C1994  1  0.482167  0.717233  0.927423  1
  C  C1995  1  0.235067  0.517833  0.927423  1
  C  C1996  1  0.383900  0.568400  0.405910  1
  C  C1997  1  0.184500  0.616100  0.405910  1
  C  C1998  1  0.431600  0.815500  0.405910  1
  C  C1999  1  0.050567  0.901733  0.739243  1
  C  C2000  1  0.851167  0.949433  0.739243  1
  C  C2001  1  0.098267  0.148833  0.739243  1
  C  C2002  1  0.717233  0.235067  0.072577  1
  C  C2003  1  0.517833  0.282767  0.072577  1
  C  C2004  1  0.764933  0.482167  0.072577  1
  C  C2005  1  0.569300  0.390500  0.586970  1
  C  C2006  1  0.821200  0.430700  0.586970  1
  C  C2007  1  0.609500  0.178800  0.586970  1
  C  C2008  1  0.902633  0.057167  0.253637  1
  C  C2009  1  0.154533  0.097367  0.253637  1
  C  C2010  1  0.942833  0.845467  0.253637  1
  C  C2011  1  0.235967  0.723833  0.920303  1
  C  C2012  1  0.487867  0.764033  0.920303  1
  C  C2013  1  0.276167  0.512133  0.920303  1
  C  C2014  1  0.430700  0.609500  0.413030  1
  C  C2015  1  0.178800  0.569300  0.413030  1
  C  C2016  1  0.390500  0.821200  0.413030  1
  C  C2017  1  0.097367  0.942833  0.746363  1
  C  C2018  1  0.845467  0.902633  0.746363  1
  C  C2019  1  0.057167  0.154533  0.746363  1
  C  C2020  1  0.764033  0.276167  0.079697  1
  C  C2021  1  0.512133  0.235967  0.079697  1
  C  C2022  1  0.723833  0.487867  0.079697  1
  C  C2023  1  0.817600  0.376800  0.589890  1
  C  C2024  1  0.559200  0.182400  0.589890  1
  C  C2025  1  0.623200  0.440800  0.589890  1
  C  C2026  1  0.150933  0.043467  0.256557  1
  C  C2027  1  0.892533  0.849067  0.256557  1
  C  C2028  1  0.956533  0.107467  0.256557  1
  C  C2029  1  0.484267  0.710133  0.923223  1
  C  C2030  1  0.225867  0.515733  0.923223  1
  C  C2031  1  0.289867  0.774133  0.923223  1
  C  C2032  1  0.182400  0.623200  0.410110  1
  C  C2033  1  0.440800  0.817600  0.410110  1
  C  C2034  1  0.376800  0.559200  0.410110  1
  C  C2035  1  0.849067  0.956533  0.743443  1
  C  C2036  1  0.107467  0.150933  0.743443  1
  C  C2037  1  0.043467  0.892533  0.743443  1
  C  C2038  1  0.515733  0.289867  0.076777  1
  C  C2039  1  0.774133  0.484267  0.076777  1
  C  C2040  1  0.710133  0.225867  0.076777  1
  C  C2041  1  0.628500  0.414900  0.605870  1
  C  C2042  1  0.786400  0.371500  0.605870  1
  C  C2043  1  0.585100  0.213600  0.605870  1
  C  C2044  1  0.961833  0.081567  0.272537  1
  C  C2045  1  0.119733  0.038167  0.272537  1
  C  C2046  1  0.918433  0.880267  0.272537  1
  C  C2047  1  0.295167  0.748233  0.939203  1
  C  C2048  1  0.453067  0.704833  0.939203  1
  C  C2049  1  0.251767  0.546933  0.939203  1
  C  C2050  1  0.371500  0.585100  0.394130  1
  C  C2051  1  0.213600  0.628500  0.394130  1
  C  C2052  1  0.414900  0.786400  0.394130  1
  C  C2053  1  0.038167  0.918433  0.727463  1
  C  C2054  1  0.880267  0.961833  0.727463  1
  C  C2055  1  0.081567  0.119733  0.727463  1
  C  C2056  1  0.704833  0.251767  0.060797  1
  C  C2057  1  0.546933  0.295167  0.060797  1
  C  C2058  1  0.748233  0.453067  0.060797  1
  C  C2059  1  0.532000  0.330500  0.591540  1
  C  C2060  1  0.798500  0.468000  0.591540  1
  C  C2061  1  0.669500  0.201500  0.591540  1
  C  C2062  1  0.865333  0.997167  0.258207  1
  C  C2063  1  0.131833  0.134667  0.258207  1
  C  C2064  1  0.002833  0.868167  0.258207  1
  C  C2065  1  0.198667  0.663833  0.924873  1
  C  C2066  1  0.465167  0.801333  0.924873  1
  C  C2067  1  0.336167  0.534833  0.924873  1
  C  C2068  1  0.468000  0.669500  0.408460  1
  C  C2069  1  0.201500  0.532000  0.408460  1
  C  C2070  1  0.330500  0.798500  0.408460  1
  C  C2071  1  0.134667  0.002833  0.741793  1
  C  C2072  1  0.868167  0.865333  0.741793  1
  C  C2073  1  0.997167  0.131833  0.741793  1
  C  C2074  1  0.801333  0.336167  0.075127  1
  C  C2075  1  0.534833  0.198667  0.075127  1
  C  C2076  1  0.663833  0.465167  0.075127  1
  C  C2077  1  0.515700  0.289500  0.581780  1
  C  C2078  1  0.773800  0.484300  0.581780  1
  C  C2079  1  0.710500  0.226200  0.581780  1
  C  C2080  1  0.849033  0.956167  0.248447  1
  C  C2081  1  0.107133  0.150967  0.248447  1
  C  C2082  1  0.043833  0.892867  0.248447  1
  C  C2083  1  0.182367  0.622833  0.915113  1
  C  C2084  1  0.440467  0.817633  0.915113  1
  C  C2085  1  0.377167  0.559533  0.915113  1
  C  C2086  1  0.484300  0.710500  0.418220  1
  C  C2087  1  0.226200  0.515700  0.418220  1
  C  C2088  1  0.289500  0.773800  0.418220  1
  C  C2089  1  0.150967  0.043833  0.751553  1
  C  C2090  1  0.892867  0.849033  0.751553  1
  C  C2091  1  0.956167  0.107133  0.751553  1
  C  C2092  1  0.817633  0.377167  0.084887  1
  C  C2093  1  0.559533  0.182367  0.084887  1
  C  C2094  1  0.622833  0.440467  0.084887  1
  C  C2095  1  0.801500  0.336600  0.579570  1
  C  C2096  1  0.535100  0.198500  0.579570  1
  C  C2097  1  0.663400  0.464900  0.579570  1
  C  C2098  1  0.134833  0.003267  0.246237  1
  C  C2099  1  0.868433  0.865167  0.246237  1
  C  C2100  1  0.996733  0.131567  0.246237  1
  C  C2101  1  0.468167  0.669933  0.912903  1
  C  C2102  1  0.201767  0.531833  0.912903  1
  C  C2103  1  0.330067  0.798233  0.912903  1
  C  C2104  1  0.198500  0.663400  0.420430  1
  C  C2105  1  0.464900  0.801500  0.420430  1
  C  C2106  1  0.336600  0.535100  0.420430  1
  C  C2107  1  0.865167  0.996733  0.753763  1
  C  C2108  1  0.131567  0.134833  0.753763  1
  C  C2109  1  0.003267  0.868433  0.753763  1
  C  C2110  1  0.531833  0.330067  0.087097  1
  C  C2111  1  0.798233  0.468167  0.087097  1
  C  C2112  1  0.669933  0.201767  0.087097  1
  C  C2113  1  0.703900  0.251200  0.565850  1
  C  C2114  1  0.547300  0.296100  0.565850  1
  C  C2115  1  0.748800  0.452700  0.565850  1
  C  C2116  1  0.037233  0.917867  0.232517  1
  C  C2117  1  0.880633  0.962767  0.232517  1
  C  C2118  1  0.082133  0.119367  0.232517  1
  C  C2119  1  0.370567  0.584533  0.899183  1
  C  C2120  1  0.213967  0.629433  0.899183  1
  C  C2121  1  0.415467  0.786033  0.899183  1
  C  C2122  1  0.296100  0.748800  0.434150  1
  C  C2123  1  0.452700  0.703900  0.434150  1
  C  C2124  1  0.251200  0.547300  0.434150  1
  C  C2125  1  0.962767  0.082133  0.767483  1
  C  C2126  1  0.119367  0.037233  0.767483  1
  C  C2127  1  0.917867  0.880633  0.767483  1
  C  C2128  1  0.629433  0.415467  0.100817  1
  C  C2129  1  0.786033  0.370567  0.100817  1
  C  C2130  1  0.584533  0.213967  0.100817  1
  C  C2131  1  0.595000  0.793100  0.610240  1.0
  C  C2132  1  0.198100  0.405000  0.610240  1.0
  C  C2133  1  0.206900  0.801900  0.610240  1.0
  C  C2134  1  0.928333  0.459767  0.276907  1.0
  C  C2135  1  0.531433  0.071667  0.276907  1.0
  C  C2136  1  0.540233  0.468567  0.276907  1.0
  C  C2137  1  0.261667  0.126433  0.943573  1.0
  C  C2138  1  0.864767  0.738333  0.943573  1.0
  C  C2139  1  0.873567  0.135233  0.943573  1.0
  C  C2140  1  0.405000  0.206900  0.389760  1.0
  C  C2141  1  0.801900  0.595000  0.389760  1.0
  C  C2142  1  0.793100  0.198100  0.389760  1.0
  C  C2143  1  0.071667  0.540233  0.723093  1.0
  C  C2144  1  0.468567  0.928333  0.723093  1.0
  C  C2145  1  0.459767  0.531433  0.723093  1.0
  C  C2146  1  0.738333  0.873567  0.056427  1.0
  C  C2147  1  0.135233  0.261667  0.056427  1.0
  C  C2148  1  0.126433  0.864767  0.056427  1.0
  C  C2149  1  0.552700  0.741200  0.604970  1.0
  C  C2150  1  0.188500  0.447300  0.604970  1.0
  C  C2151  1  0.258800  0.811500  0.604970  1.0
  C  C2152  1  0.886033  0.407867  0.271637  1.0
  C  C2153  1  0.521833  0.113967  0.271637  1.0
  C  C2154  1  0.592133  0.478167  0.271637  1.0
  C  C2155  1  0.219367  0.074533  0.938303  1.0
  C  C2156  1  0.855167  0.780633  0.938303  1.0
  C  C2157  1  0.925467  0.144833  0.938303  1.0
  C  C2158  1  0.447300  0.258800  0.395030  1.0
  C  C2159  1  0.811500  0.552700  0.395030  1.0
  C  C2160  1  0.741200  0.188500  0.395030  1.0
  C  C2161  1  0.113967  0.592133  0.728363  1.0
  C  C2162  1  0.478167  0.886033  0.728363  1.0
  C  C2163  1  0.407867  0.521833  0.728363  1.0
  C  C2164  1  0.780633  0.925467  0.061697  1.0
  C  C2165  1  0.144833  0.219367  0.061697  1.0
  C  C2166  1  0.074533  0.855167  0.061697  1.0
  C  C2167  1  0.496600  0.732800  0.602570  1.0
  C  C2168  1  0.236200  0.503400  0.602570  1.0
  C  C2169  1  0.267200  0.763800  0.602570  1.0
  C  C2170  1  0.829933  0.399467  0.269237  1.0
  C  C2171  1  0.569533  0.170067  0.269237  1.0
  C  C2172  1  0.600533  0.430467  0.269237  1.0
  C  C2173  1  0.163267  0.066133  0.935903  1.0
  C  C2174  1  0.902867  0.836733  0.935903  1.0
  C  C2175  1  0.933867  0.097133  0.935903  1.0
  C  C2176  1  0.503400  0.267200  0.397430  1.0
  C  C2177  1  0.763800  0.496600  0.397430  1.0
  C  C2178  1  0.732800  0.236200  0.397430  1.0
  C  C2179  1  0.170067  0.600533  0.730763  1.0
  C  C2180  1  0.430467  0.829933  0.730763  1.0
  C  C2181  1  0.399467  0.569533  0.730763  1.0
  C  C2182  1  0.836733  0.933867  0.064097  1.0
  C  C2183  1  0.097133  0.163267  0.064097  1.0
  C  C2184  1  0.066133  0.902867  0.064097  1.0
  C  C2185  1  0.487400  0.779300  0.605230  1.0
  C  C2186  1  0.291900  0.512600  0.605230  1.0
  C  C2187  1  0.220700  0.708100  0.605230  1.0
  C  C2188  1  0.820733  0.445967  0.271897  1.0
  C  C2189  1  0.625233  0.179267  0.271897  1.0
  C  C2190  1  0.554033  0.374767  0.271897  1.0
  C  C2191  1  0.154067  0.112633  0.938563  1.0
  C  C2192  1  0.958567  0.845933  0.938563  1.0
  C  C2193  1  0.887367  0.041433  0.938563  1.0
  C  C2194  1  0.512600  0.220700  0.394770  1.0
  C  C2195  1  0.708100  0.487400  0.394770  1.0
  C  C2196  1  0.779300  0.291900  0.394770  1.0
  C  C2197  1  0.179267  0.554033  0.728103  1.0
  C  C2198  1  0.374767  0.820733  0.728103  1.0
  C  C2199  1  0.445967  0.625233  0.728103  1.0
  C  C2200  1  0.845933  0.887367  0.061437  1.0
  C  C2201  1  0.041433  0.154067  0.061437  1.0
  C  C2202  1  0.112633  0.958567  0.061437  1.0
  C  C2203  1  0.532800  0.830800  0.610280  1.0
  C  C2204  1  0.298000  0.467200  0.610280  1.0
  C  C2205  1  0.169200  0.702000  0.610280  1.0
  C  C2206  1  0.866133  0.497467  0.276947  1.0
  C  C2207  1  0.631333  0.133867  0.276947  1.0
  C  C2208  1  0.502533  0.368667  0.276947  1.0
  C  C2209  1  0.199467  0.164133  0.943613  1.0
  C  C2210  1  0.964667  0.800533  0.943613  1.0
  C  C2211  1  0.835867  0.035333  0.943613  1.0
  C  C2212  1  0.467200  0.169200  0.389720  1.0
  C  C2213  1  0.702000  0.532800  0.389720  1.0
  C  C2214  1  0.830800  0.298000  0.389720  1.0
  C  C2215  1  0.133867  0.502533  0.723053  1.0
  C  C2216  1  0.368667  0.866133  0.723053  1.0
  C  C2217  1  0.497467  0.631333  0.723053  1.0
  C  C2218  1  0.800533  0.835867  0.056387  1.0
  C  C2219  1  0.035333  0.199467  0.056387  1.0
  C  C2220  1  0.164133  0.964667  0.056387  1.0
  C  C2221  1  0.527200  0.882500  0.613190  1.0
  C  C2222  1  0.355300  0.472800  0.613190  1.0
  C  C2223  1  0.117500  0.644700  0.613190  1.0
  C  C2224  1  0.860533  0.549167  0.279857  1.0
  C  C2225  1  0.688633  0.139467  0.279857  1.0
  C  C2226  1  0.450833  0.311367  0.279857  1.0
  C  C2227  1  0.193867  0.215833  0.946523  1.0
  C  C2228  1  0.021967  0.806133  0.946523  1.0
  C  C2229  1  0.784167  0.978033  0.946523  1.0
  C  C2230  1  0.472800  0.117500  0.386810  1.0
  C  C2231  1  0.644700  0.527200  0.386810  1.0
  C  C2232  1  0.882500  0.355300  0.386810  1.0
  C  C2233  1  0.139467  0.450833  0.720143  1.0
  C  C2234  1  0.311367  0.860533  0.720143  1.0
  C  C2235  1  0.549167  0.688633  0.720143  1.0
  C  C2236  1  0.806133  0.784167  0.053477  1.0
  C  C2237  1  0.978033  0.193867  0.053477  1.0
  C  C2238  1  0.215833  0.021967  0.053477  1.0
  C  C2239  1  0.567500  0.976900  0.620880  1.0
  C  C2240  1  0.409400  0.432500  0.620880  1.0
  C  C2241  1  0.023100  0.590600  0.620880  1.0
  C  C2242  1  0.900833  0.643567  0.287547  1.0
  C  C2243  1  0.742733  0.099167  0.287547  1.0
  C  C2244  1  0.356433  0.257267  0.287547  1.0
  C  C2245  1  0.234167  0.310233  0.954213  1.0
  C  C2246  1  0.076067  0.765833  0.954213  1.0
  C  C2247  1  0.689767  0.923933  0.954213  1.0
  C  C2248  1  0.432500  0.023100  0.379120  1.0
  C  C2249  1  0.590600  0.567500  0.379120  1.0
  C  C2250  1  0.976900  0.409400  0.379120  1.0
  C  C2251  1  0.099167  0.356433  0.712453  1.0
  C  C2252  1  0.257267  0.900833  0.712453  1.0
  C  C2253  1  0.643567  0.742733  0.712453  1.0
  C  C2254  1  0.765833  0.689767  0.045787  1.0
  C  C2255  1  0.923933  0.234167  0.045787  1.0
  C  C2256  1  0.310233  0.076067  0.045787  1.0
  C  C2257  1  0.566800  0.991300  0.632990  1.0
  C  C2258  1  0.424500  0.433200  0.632990  1.0
  C  C2259  1  0.008700  0.575500  0.632990  1.0
  C  C2260  1  0.900133  0.657967  0.299657  1.0
  C  C2261  1  0.757833  0.099867  0.299657  1.0
  C  C2262  1  0.342033  0.242167  0.299657  1.0
  C  C2263  1  0.233467  0.324633  0.966323  1.0
  C  C2264  1  0.091167  0.766533  0.966323  1.0
  C  C2265  1  0.675367  0.908833  0.966323  1.0
  C  C2266  1  0.433200  0.008700  0.367010  1.0
  C  C2267  1  0.575500  0.566800  0.367010  1.0
  C  C2268  1  0.991300  0.424500  0.367010  1.0
  C  C2269  1  0.099867  0.342033  0.700343  1.0
  C  C2270  1  0.242167  0.900133  0.700343  1.0
  C  C2271  1  0.657967  0.757833  0.700343  1.0
  C  C2272  1  0.766533  0.675367  0.033677  1.0
  C  C2273  1  0.908833  0.233467  0.033677  1.0
  C  C2274  1  0.324633  0.091167  0.033677  1.0
  C  C2275  1  0.557700  0.037800  0.635850  1.0
  C  C2276  1  0.480100  0.442300  0.635850  1.0
  C  C2277  1  0.962200  0.519900  0.635850  1.0
  C  C2278  1  0.891033  0.704467  0.302517  1.0
  C  C2279  1  0.813433  0.108967  0.302517  1.0
  C  C2280  1  0.295533  0.186567  0.302517  1.0
  C  C2281  1  0.224367  0.371133  0.969183  1.0
  C  C2282  1  0.146767  0.775633  0.969183  1.0
  C  C2283  1  0.628867  0.853233  0.969183  1.0
  C  C2284  1  0.442300  0.962200  0.364150  1.0
  C  C2285  1  0.519900  0.557700  0.364150  1.0
  C  C2286  1  0.037800  0.480100  0.364150  1.0
  C  C2287  1  0.108967  0.295533  0.697483  1.0
  C  C2288  1  0.186567  0.891033  0.697483  1.0
  C  C2289  1  0.704467  0.813433  0.697483  1.0
  C  C2290  1  0.775633  0.628867  0.030817  1.0
  C  C2291  1  0.853233  0.224367  0.030817  1.0
  C  C2292  1  0.371133  0.146767  0.030817  1.0
  C  C2293  1  0.549700  0.070600  0.626990  1.0
  C  C2294  1  0.520900  0.450300  0.626990  1.0
  C  C2295  1  0.929400  0.479100  0.626990  1.0
  C  C2296  1  0.883033  0.737267  0.293657  1.0
  C  C2297  1  0.854233  0.116967  0.293657  1.0
  C  C2298  1  0.262733  0.145767  0.293657  1.0
  C  C2299  1  0.216367  0.403933  0.960323  1.0
  C  C2300  1  0.187567  0.783633  0.960323  1.0
  C  C2301  1  0.596067  0.812433  0.960323  1.0
  C  C2302  1  0.450300  0.929400  0.373010  1.0
  C  C2303  1  0.479100  0.549700  0.373010  1.0
  C  C2304  1  0.070600  0.520900  0.373010  1.0
  C  C2305  1  0.116967  0.262733  0.706343  1.0
  C  C2306  1  0.145767  0.883033  0.706343  1.0
  C  C2307  1  0.737267  0.854233  0.706343  1.0
  C  C2308  1  0.783633  0.596067  0.039677  1.0
  C  C2309  1  0.812433  0.216367  0.039677  1.0
  C  C2310  1  0.403933  0.187567  0.039677  1.0
  C  C2311  1  0.552200  0.056300  0.614950  1.0
  C  C2312  1  0.504100  0.447800  0.614950  1.0
  C  C2313  1  0.943700  0.495900  0.614950  1.0
  C  C2314  1  0.885533  0.722967  0.281617  1.0
  C  C2315  1  0.837433  0.114467  0.281617  1.0
  C  C2316  1  0.277033  0.162567  0.281617  1.0
  C  C2317  1  0.218867  0.389633  0.948283  1.0
  C  C2318  1  0.170767  0.781133  0.948283  1.0
  C  C2319  1  0.610367  0.829233  0.948283  1.0
  C  C2320  1  0.447800  0.943700  0.385050  1.0
  C  C2321  1  0.495900  0.552200  0.385050  1.0
  C  C2322  1  0.056300  0.504100  0.385050  1.0
  C  C2323  1  0.114467  0.277033  0.718383  1.0
  C  C2324  1  0.162567  0.885533  0.718383  1.0
  C  C2325  1  0.722967  0.837433  0.718383  1.0
  C  C2326  1  0.781133  0.610367  0.051717  1.0
  C  C2327  1  0.829233  0.218867  0.051717  1.0
  C  C2328  1  0.389633  0.170767  0.051717  1.0
  C  C2329  1  0.560900  0.009700  0.611820  1.0
  C  C2330  1  0.448800  0.439100  0.611820  1.0
  C  C2331  1  0.990300  0.551200  0.611820  1.0
  C  C2332  1  0.894233  0.676367  0.278487  1.0
  C  C2333  1  0.782133  0.105767  0.278487  1.0
  C  C2334  1  0.323633  0.217867  0.278487  1.0
  C  C2335  1  0.227567  0.343033  0.945153  1.0
  C  C2336  1  0.115467  0.772433  0.945153  1.0
  C  C2337  1  0.656967  0.884533  0.945153  1.0
  C  C2338  1  0.439100  0.990300  0.388180  1.0
  C  C2339  1  0.551200  0.560900  0.388180  1.0
  C  C2340  1  0.009700  0.448800  0.388180  1.0
  C  C2341  1  0.105767  0.323633  0.721513  1.0
  C  C2342  1  0.217867  0.894233  0.721513  1.0
  C  C2343  1  0.676367  0.782133  0.721513  1.0
  C  C2344  1  0.772433  0.656967  0.054847  1.0
  C  C2345  1  0.884533  0.227567  0.054847  1.0
  C  C2346  1  0.343033  0.115467  0.054847  1.0
  C  C2347  1  0.536700  0.118300  0.630470  1.0
  C  C2348  1  0.581600  0.463300  0.630470  1.0
  C  C2349  1  0.881700  0.418400  0.630470  1.0
  C  C2350  1  0.870033  0.784967  0.297137  1.0
  C  C2351  1  0.914933  0.129967  0.297137  1.0
  C  C2352  1  0.215033  0.085067  0.297137  1.0
  C  C2353  1  0.203367  0.451633  0.963803  1.0
  C  C2354  1  0.248267  0.796633  0.963803  1.0
  C  C2355  1  0.548367  0.751733  0.963803  1.0
  C  C2356  1  0.463300  0.881700  0.369530  1.0
  C  C2357  1  0.418400  0.536700  0.369530  1.0
  C  C2358  1  0.118300  0.581600  0.369530  1.0
  C  C2359  1  0.129967  0.215033  0.702863  1.0
  C  C2360  1  0.085067  0.870033  0.702863  1.0
  C  C2361  1  0.784967  0.914933  0.702863  1.0
  C  C2362  1  0.796633  0.548367  0.036197  1.0
  C  C2363  1  0.751733  0.203367  0.036197  1.0
  C  C2364  1  0.451633  0.248267  0.036197  1.0
  C  C2365  1  0.577400  0.167000  0.637260  1.0
  C  C2366  1  0.589600  0.422600  0.637260  1.0
  C  C2367  1  0.833000  0.410400  0.637260  1.0
  C  C2368  1  0.910733  0.833667  0.303927  1.0
  C  C2369  1  0.922933  0.089267  0.303927  1.0
  C  C2370  1  0.166333  0.077067  0.303927  1.0
  C  C2371  1  0.244067  0.500333  0.970593  1.0
  C  C2372  1  0.256267  0.755933  0.970593  1.0
  C  C2373  1  0.499667  0.743733  0.970593  1.0
  C  C2374  1  0.422600  0.833000  0.362740  1.0
  C  C2375  1  0.410400  0.577400  0.362740  1.0
  C  C2376  1  0.167000  0.589600  0.362740  1.0
  C  C2377  1  0.089267  0.166333  0.696073  1.0
  C  C2378  1  0.077067  0.910733  0.696073  1.0
  C  C2379  1  0.833667  0.922933  0.696073  1.0
  C  C2380  1  0.755933  0.499667  0.029407  1.0
  C  C2381  1  0.743733  0.244067  0.029407  1.0
  C  C2382  1  0.500333  0.256267  0.029407  1.0
  C  C2383  1  0.564200  0.209100  0.641170  1.0
  C  C2384  1  0.644900  0.435800  0.641170  1.0
  C  C2385  1  0.790900  0.355100  0.641170  1.0
  C  C2386  1  0.897533  0.875767  0.307837  1.0
  C  C2387  1  0.978233  0.102467  0.307837  1.0
  C  C2388  1  0.124233  0.021767  0.307837  1.0
  C  C2389  1  0.230867  0.542433  0.974503  1.0
  C  C2390  1  0.311567  0.769133  0.974503  1.0
  C  C2391  1  0.457567  0.688433  0.974503  1.0
  C  C2392  1  0.435800  0.790900  0.358830  1.0
  C  C2393  1  0.355100  0.564200  0.358830  1.0
  C  C2394  1  0.209100  0.644900  0.358830  1.0
  C  C2395  1  0.102467  0.124233  0.692163  1.0
  C  C2396  1  0.021767  0.897533  0.692163  1.0
  C  C2397  1  0.875767  0.978233  0.692163  1.0
  C  C2398  1  0.769133  0.457567  0.025497  1.0
  C  C2399  1  0.688433  0.230867  0.025497  1.0
  C  C2400  1  0.542433  0.311567  0.025497  1.0
  C  C2401  1  0.509600  0.203400  0.638570  1.0
  C  C2402  1  0.693800  0.490400  0.638570  1.0
  C  C2403  1  0.796600  0.306200  0.638570  1.0
  C  C2404  1  0.842933  0.870067  0.305237  1.0
  C  C2405  1  0.027133  0.157067  0.305237  1.0
  C  C2406  1  0.129933  0.972867  0.305237  1.0
  C  C2407  1  0.176267  0.536733  0.971903  1.0
  C  C2408  1  0.360467  0.823733  0.971903  1.0
  C  C2409  1  0.463267  0.639533  0.971903  1.0
  C  C2410  1  0.490400  0.796600  0.361430  1.0
  C  C2411  1  0.306200  0.509600  0.361430  1.0
  C  C2412  1  0.203400  0.693800  0.361430  1.0
  C  C2413  1  0.157067  0.129933  0.694763  1.0
  C  C2414  1  0.972867  0.842933  0.694763  1.0
  C  C2415  1  0.870067  0.027133  0.694763  1.0
  C  C2416  1  0.823733  0.463267  0.028097  1.0
  C  C2417  1  0.639533  0.176267  0.028097  1.0
  C  C2418  1  0.536733  0.360467  0.028097  1.0
  C  C2419  1  0.468800  0.155900  0.631690  1.0
  C  C2420  1  0.687100  0.531200  0.631690  1.0
  C  C2421  1  0.844100  0.312900  0.631690  1.0
  C  C2422  1  0.802133  0.822567  0.298357  1.0
  C  C2423  1  0.020433  0.197867  0.298357  1.0
  C  C2424  1  0.177433  0.979567  0.298357  1.0
  C  C2425  1  0.135467  0.489233  0.965023  1.0
  C  C2426  1  0.353767  0.864533  0.965023  1.0
  C  C2427  1  0.510767  0.646233  0.965023  1.0
  C  C2428  1  0.531200  0.844100  0.368310  1.0
  C  C2429  1  0.312900  0.468800  0.368310  1.0
  C  C2430  1  0.155900  0.687100  0.368310  1.0
  C  C2431  1  0.197867  0.177433  0.701643  1.0
  C  C2432  1  0.979567  0.802133  0.701643  1.0
  C  C2433  1  0.822567  0.020433  0.701643  1.0
  C  C2434  1  0.864533  0.510767  0.034977  1.0
  C  C2435  1  0.646233  0.135467  0.034977  1.0
  C  C2436  1  0.489233  0.353767  0.034977  1.0
  C  C2437  1  0.406300  0.141200  0.628900  1.0
  C  C2438  1  0.734900  0.593700  0.628900  1.0
  C  C2439  1  0.858800  0.265100  0.628900  1.0
  C  C2440  1  0.739633  0.807867  0.295567  1.0
  C  C2441  1  0.068233  0.260367  0.295567  1.0
  C  C2442  1  0.192133  0.931767  0.295567  1.0
  C  C2443  1  0.072967  0.474533  0.962233  1.0
  C  C2444  1  0.401567  0.927033  0.962233  1.0
  C  C2445  1  0.525467  0.598433  0.962233  1.0
  C  C2446  1  0.593700  0.858800  0.371100  1.0
  C  C2447  1  0.265100  0.406300  0.371100  1.0
  C  C2448  1  0.141200  0.734900  0.371100  1.0
  C  C2449  1  0.260367  0.192133  0.704433  1.0
  C  C2450  1  0.931767  0.739633  0.704433  1.0
  C  C2451  1  0.807867  0.068233  0.704433  1.0
  C  C2452  1  0.927033  0.525467  0.037767  1.0
  C  C2453  1  0.598433  0.072967  0.037767  1.0
  C  C2454  1  0.474533  0.401567  0.037767  1.0
  C  C2455  1  0.397000  0.129300  0.615480  1.0
  C  C2456  1  0.732300  0.603000  0.615480  1.0
  C  C2457  1  0.870700  0.267700  0.615480  1.0
  C  C2458  1  0.730333  0.795967  0.282147  1.0
  C  C2459  1  0.065633  0.269667  0.282147  1.0
  C  C2460  1  0.204033  0.934367  0.282147  1.0
  C  C2461  1  0.063667  0.462633  0.948813  1.0
  C  C2462  1  0.398967  0.936333  0.948813  1.0
  C  C2463  1  0.537367  0.601033  0.948813  1.0
  C  C2464  1  0.603000  0.870700  0.384520  1.0
  C  C2465  1  0.267700  0.397000  0.384520  1.0
  C  C2466  1  0.129300  0.732300  0.384520  1.0
  C  C2467  1  0.269667  0.204033  0.717853  1.0
  C  C2468  1  0.934367  0.730333  0.717853  1.0
  C  C2469  1  0.795967  0.065633  0.717853  1.0
  C  C2470  1  0.936333  0.537367  0.051187  1.0
  C  C2471  1  0.601033  0.063667  0.051187  1.0
  C  C2472  1  0.462633  0.398967  0.051187  1.0
  C  C2473  1  0.372800  0.154700  0.607880  1.0
  C  C2474  1  0.781900  0.627200  0.607880  1.0
  C  C2475  1  0.845300  0.218100  0.607880  1.0
  C  C2476  1  0.706133  0.821367  0.274547  1.0
  C  C2477  1  0.115233  0.293867  0.274547  1.0
  C  C2478  1  0.178633  0.884767  0.274547  1.0
  C  C2479  1  0.039467  0.488033  0.941213  1.0
  C  C2480  1  0.448567  0.960533  0.941213  1.0
  C  C2481  1  0.511967  0.551433  0.941213  1.0
  C  C2482  1  0.627200  0.845300  0.392120  1.0
  C  C2483  1  0.218100  0.372800  0.392120  1.0
  C  C2484  1  0.154700  0.781900  0.392120  1.0
  C  C2485  1  0.293867  0.178633  0.725453  1.0
  C  C2486  1  0.884767  0.706133  0.725453  1.0
  C  C2487  1  0.821367  0.115233  0.725453  1.0
  C  C2488  1  0.960533  0.511967  0.058787  1.0
  C  C2489  1  0.551433  0.039467  0.058787  1.0
  C  C2490  1  0.488033  0.448567  0.058787  1.0
  C  C2491  1  0.366200  0.140500  0.595590  1.0
  C  C2492  1  0.774300  0.633800  0.595590  1.0
  C  C2493  1  0.859500  0.225700  0.595590  1.0
  C  C2494  1  0.699533  0.807167  0.262257  1.0
  C  C2495  1  0.107633  0.300467  0.262257  1.0
  C  C2496  1  0.192833  0.892367  0.262257  1.0
  C  C2497  1  0.032867  0.473833  0.928923  1.0
  C  C2498  1  0.440967  0.967133  0.928923  1.0
  C  C2499  1  0.526167  0.559033  0.928923  1.0
  C  C2500  1  0.633800  0.859500  0.404410  1.0
  C  C2501  1  0.225700  0.366200  0.404410  1.0
  C  C2502  1  0.140500  0.774300  0.404410  1.0
  C  C2503  1  0.300467  0.192833  0.737743  1.0
  C  C2504  1  0.892367  0.699533  0.737743  1.0
  C  C2505  1  0.807167  0.107633  0.737743  1.0
  C  C2506  1  0.967133  0.526167  0.071077  1.0
  C  C2507  1  0.559033  0.032867  0.071077  1.0
  C  C2508  1  0.473833  0.440967  0.071077  1.0
  C  C2509  1  0.381500  0.100800  0.591020  1.0
  C  C2510  1  0.719300  0.618500  0.591020  1.0
  C  C2511  1  0.899200  0.280700  0.591020  1.0
  C  C2512  1  0.714833  0.767467  0.257687  1.0
  C  C2513  1  0.052633  0.285167  0.257687  1.0
  C  C2514  1  0.232533  0.947367  0.257687  1.0
  C  C2515  1  0.048167  0.434133  0.924353  1.0
  C  C2516  1  0.385967  0.951833  0.924353  1.0
  C  C2517  1  0.565867  0.614033  0.924353  1.0
  C  C2518  1  0.618500  0.899200  0.408980  1.0
  C  C2519  1  0.280700  0.381500  0.408980  1.0
  C  C2520  1  0.100800  0.719300  0.408980  1.0
  C  C2521  1  0.285167  0.232533  0.742313  1.0
  C  C2522  1  0.947367  0.714833  0.742313  1.0
  C  C2523  1  0.767467  0.052633  0.742313  1.0
  C  C2524  1  0.951833  0.565867  0.075647  1.0
  C  C2525  1  0.614033  0.048167  0.075647  1.0
  C  C2526  1  0.434133  0.385967  0.075647  1.0
  C  C2527  1  0.404500  0.074800  0.598670  1.0
  C  C2528  1  0.670300  0.595500  0.598670  1.0
  C  C2529  1  0.925200  0.329700  0.598670  1.0
  C  C2530  1  0.737833  0.741467  0.265337  1.0
  C  C2531  1  0.003633  0.262167  0.265337  1.0
  C  C2532  1  0.258533  0.996367  0.265337  1.0
  C  C2533  1  0.071167  0.408133  0.932003  1.0
  C  C2534  1  0.336967  0.928833  0.932003  1.0
  C  C2535  1  0.591867  0.663033  0.932003  1.0
  C  C2536  1  0.595500  0.925200  0.401330  1.0
  C  C2537  1  0.329700  0.404500  0.401330  1.0
  C  C2538  1  0.074800  0.670300  0.401330  1.0
  C  C2539  1  0.262167  0.258533  0.734663  1.0
  C  C2540  1  0.996367  0.737833  0.734663  1.0
  C  C2541  1  0.741467  0.003633  0.734663  1.0
  C  C2542  1  0.928833  0.591867  0.067997  1.0
  C  C2543  1  0.663033  0.071167  0.067997  1.0
  C  C2544  1  0.408133  0.336967  0.067997  1.0
  C  C2545  1  0.412300  0.089000  0.610880  1.0
  C  C2546  1  0.676700  0.587700  0.610880  1.0
  C  C2547  1  0.911000  0.323300  0.610880  1.0
  C  C2548  1  0.745633  0.755667  0.277547  1.0
  C  C2549  1  0.010033  0.254367  0.277547  1.0
  C  C2550  1  0.244333  0.989967  0.277547  1.0
  C  C2551  1  0.078967  0.422333  0.944213  1.0
  C  C2552  1  0.343367  0.921033  0.944213  1.0
  C  C2553  1  0.577667  0.656633  0.944213  1.0
  C  C2554  1  0.587700  0.911000  0.389120  1.0
  C  C2555  1  0.323300  0.412300  0.389120  1.0
  C  C2556  1  0.089000  0.676700  0.389120  1.0
  C  C2557  1  0.254367  0.244333  0.722453  1.0
  C  C2558  1  0.989967  0.745633  0.722453  1.0
  C  C2559  1  0.755667  0.010033  0.722453  1.0
  C  C2560  1  0.921033  0.577667  0.055787  1.0
  C  C2561  1  0.656633  0.078967  0.055787  1.0
  C  C2562  1  0.422333  0.343367  0.055787  1.0
  C  C2563  1  0.434500  0.062400  0.620320  1.0
  C  C2564  1  0.627900  0.565500  0.620320  1.0
  C  C2565  1  0.937600  0.372100  0.620320  1.0
  C  C2566  1  0.767833  0.729067  0.286987  1.0
  C  C2567  1  0.961233  0.232167  0.286987  1.0
  C  C2568  1  0.270933  0.038767  0.286987  1.0
  C  C2569  1  0.101167  0.395733  0.953653  1.0
  C  C2570  1  0.294567  0.898833  0.953653  1.0
  C  C2571  1  0.604267  0.705433  0.953653  1.0
  C  C2572  1  0.565500  0.937600  0.379680  1.0
  C  C2573  1  0.372100  0.434500  0.379680  1.0
  C  C2574  1  0.062400  0.627900  0.379680  1.0
  C  C2575  1  0.232167  0.270933  0.713013  1.0
  C  C2576  1  0.038767  0.767833  0.713013  1.0
  C  C2577  1  0.729067  0.961233  0.713013  1.0
  C  C2578  1  0.898833  0.604267  0.046347  1.0
  C  C2579  1  0.705433  0.101167  0.046347  1.0
  C  C2580  1  0.395733  0.294567  0.046347  1.0
  C  C2581  1  0.482100  0.113500  0.627510  1.0
  C  C2582  1  0.631400  0.517900  0.627510  1.0
  C  C2583  1  0.886500  0.368600  0.627510  1.0
  C  C2584  1  0.815433  0.780167  0.294177  1.0
  C  C2585  1  0.964733  0.184567  0.294177  1.0
  C  C2586  1  0.219833  0.035267  0.294177  1.0
  C  C2587  1  0.148767  0.446833  0.960843  1.0
  C  C2588  1  0.298067  0.851233  0.960843  1.0
  C  C2589  1  0.553167  0.701933  0.960843  1.0
  C  C2590  1  0.517900  0.886500  0.372490  1.0
  C  C2591  1  0.368600  0.482100  0.372490  1.0
  C  C2592  1  0.113500  0.631400  0.372490  1.0
  C  C2593  1  0.184567  0.219833  0.705823  1.0
  C  C2594  1  0.035267  0.815433  0.705823  1.0
  C  C2595  1  0.780167  0.964733  0.705823  1.0
  C  C2596  1  0.851233  0.553167  0.039157  1.0
  C  C2597  1  0.701933  0.148767  0.039157  1.0
  C  C2598  1  0.446833  0.298067  0.039157  1.0
  C  C2599  1  0.380600  0.030900  0.629550  1.0
  C  C2600  1  0.650300  0.619400  0.629550  1.0
  C  C2601  1  0.969100  0.349700  0.629550  1.0
  C  C2602  1  0.713933  0.697567  0.296217  1.0
  C  C2603  1  0.983633  0.286067  0.296217  1.0
  C  C2604  1  0.302433  0.016367  0.296217  1.0
  C  C2605  1  0.047267  0.364233  0.962883  1.0
  C  C2606  1  0.316967  0.952733  0.962883  1.0
  C  C2607  1  0.635767  0.683033  0.962883  1.0
  C  C2608  1  0.619400  0.969100  0.370450  1.0
  C  C2609  1  0.349700  0.380600  0.370450  1.0
  C  C2610  1  0.030900  0.650300  0.370450  1.0
  C  C2611  1  0.286067  0.302433  0.703783  1.0
  C  C2612  1  0.016367  0.713933  0.703783  1.0
  C  C2613  1  0.697567  0.983633  0.703783  1.0
  C  C2614  1  0.952733  0.635767  0.037117  1.0
  C  C2615  1  0.683033  0.047267  0.037117  1.0
  C  C2616  1  0.364233  0.316967  0.037117  1.0
  C  C2617  1  0.364200  0.078700  0.634990  1.0
  C  C2618  1  0.714500  0.635800  0.634990  1.0
  C  C2619  1  0.921300  0.285500  0.634990  1.0
  C  C2620  1  0.697533  0.745367  0.301657  1.0
  C  C2621  1  0.047833  0.302467  0.301657  1.0
  C  C2622  1  0.254633  0.952167  0.301657  1.0
  C  C2623  1  0.030867  0.412033  0.968323  1.0
  C  C2624  1  0.381167  0.969133  0.968323  1.0
  C  C2625  1  0.587967  0.618833  0.968323  1.0
  C  C2626  1  0.635800  0.921300  0.365010  1.0
  C  C2627  1  0.285500  0.364200  0.365010  1.0
  C  C2628  1  0.078700  0.714500  0.365010  1.0
  C  C2629  1  0.302467  0.254633  0.698343  1.0
  C  C2630  1  0.952167  0.697533  0.698343  1.0
  C  C2631  1  0.745367  0.047833  0.698343  1.0
  C  C2632  1  0.969133  0.587967  0.031677  1.0
  C  C2633  1  0.618833  0.030867  0.031677  1.0
  C  C2634  1  0.412033  0.381167  0.031677  1.0
  C  C2635  1  0.400100  0.004200  0.639020  1.0
  C  C2636  1  0.604100  0.599900  0.639020  1.0
  C  C2637  1  0.995800  0.395900  0.639020  1.0
  C  C2638  1  0.733433  0.670867  0.305687  1.0
  C  C2639  1  0.937433  0.266567  0.305687  1.0
  C  C2640  1  0.329133  0.062567  0.305687  1.0
  C  C2641  1  0.066767  0.337533  0.972353  1.0
  C  C2642  1  0.270767  0.933233  0.972353  1.0
  C  C2643  1  0.662467  0.729233  0.972353  1.0
  C  C2644  1  0.599900  0.995800  0.360980  1.0
  C  C2645  1  0.395900  0.400100  0.360980  1.0
  C  C2646  1  0.004200  0.604100  0.360980  1.0
  C  C2647  1  0.266567  0.329133  0.694313  1.0
  C  C2648  1  0.062567  0.733433  0.694313  1.0
  C  C2649  1  0.670867  0.937433  0.694313  1.0
  C  C2650  1  0.933233  0.662467  0.027647  1.0
  C  C2651  1  0.729233  0.066767  0.027647  1.0
  C  C2652  1  0.337533  0.270767  0.027647  1.0
  C  C2653  1  0.329300  0.981700  0.623410  1.0
  C  C2654  1  0.652400  0.670700  0.623410  1.0
  C  C2655  1  0.018300  0.347600  0.623410  1.0
  C  C2656  1  0.662633  0.648367  0.290077  1.0
  C  C2657  1  0.985733  0.337367  0.290077  1.0
  C  C2658  1  0.351633  0.014267  0.290077  1.0
  C  C2659  1  0.995967  0.315033  0.956743  1.0
  C  C2660  1  0.319067  0.004033  0.956743  1.0
  C  C2661  1  0.684967  0.680933  0.956743  1.0
  C  C2662  1  0.670700  0.018300  0.376590  1.0
  C  C2663  1  0.347600  0.329300  0.376590  1.0
  C  C2664  1  0.981700  0.652400  0.376590  1.0
  C  C2665  1  0.337367  0.351633  0.709923  1.0
  C  C2666  1  0.014267  0.662633  0.709923  1.0
  C  C2667  1  0.648367  0.985733  0.709923  1.0
  C  C2668  1  0.004033  0.684967  0.043257  1.0
  C  C2669  1  0.680933  0.995967  0.043257  1.0
  C  C2670  1  0.315033  0.319067  0.043257  1.0
  C  C2671  1  0.372300  0.083200  0.648300  1.0
  C  C2672  1  0.710900  0.627700  0.648300  1.0
  C  C2673  1  0.916800  0.289100  0.648300  1.0
  C  C2674  1  0.705633  0.749867  0.314967  1.0
  C  C2675  1  0.044233  0.294367  0.314967  1.0
  C  C2676  1  0.250133  0.955767  0.314967  1.0
  C  C2677  1  0.038967  0.416533  0.981633  1.0
  C  C2678  1  0.377567  0.961033  0.981633  1.0
  C  C2679  1  0.583467  0.622433  0.981633  1.0
  C  C2680  1  0.627700  0.916800  0.351700  1.0
  C  C2681  1  0.289100  0.372300  0.351700  1.0
  C  C2682  1  0.083200  0.710900  0.351700  1.0
  C  C2683  1  0.294367  0.250133  0.685033  1.0
  C  C2684  1  0.955767  0.705633  0.685033  1.0
  C  C2685  1  0.749867  0.044233  0.685033  1.0
  C  C2686  1  0.961033  0.583467  0.018367  1.0
  C  C2687  1  0.622433  0.038967  0.018367  1.0
  C  C2688  1  0.416533  0.377567  0.018367  1.0
  C  C2689  1  0.302000  0.061400  0.632620  1.0
  C  C2690  1  0.759400  0.698000  0.632620  1.0
  C  C2691  1  0.938600  0.240600  0.632620  1.0
  C  C2692  1  0.635333  0.728067  0.299287  1.0
  C  C2693  1  0.092733  0.364667  0.299287  1.0
  C  C2694  1  0.271933  0.907267  0.299287  1.0
  C  C2695  1  0.968667  0.394733  0.965953  1.0
  C  C2696  1  0.426067  0.031333  0.965953  1.0
  C  C2697  1  0.605267  0.573933  0.965953  1.0
  C  C2698  1  0.698000  0.938600  0.367380  1.0
  C  C2699  1  0.240600  0.302000  0.367380  1.0
  C  C2700  1  0.061400  0.759400  0.367380  1.0
  C  C2701  1  0.364667  0.271933  0.700713  1.0
  C  C2702  1  0.907267  0.635333  0.700713  1.0
  C  C2703  1  0.728067  0.092733  0.700713  1.0
  C  C2704  1  0.031333  0.605267  0.034047  1.0
  C  C2705  1  0.573933  0.968667  0.034047  1.0
  C  C2706  1  0.394733  0.426067  0.034047  1.0
  C  C2707  1  0.354200  0.196000  0.612970  1.0
  C  C2708  1  0.841800  0.645800  0.612970  1.0
  C  C2709  1  0.804000  0.158200  0.612970  1.0
  C  C2710  1  0.687533  0.862667  0.279637  1.0
  C  C2711  1  0.175133  0.312467  0.279637  1.0
  C  C2712  1  0.137333  0.824867  0.279637  1.0
  C  C2713  1  0.020867  0.529333  0.946303  1.0
  C  C2714  1  0.508467  0.979133  0.946303  1.0
  C  C2715  1  0.470667  0.491533  0.946303  1.0
  C  C2716  1  0.645800  0.804000  0.387030  1.0
  C  C2717  1  0.158200  0.354200  0.387030  1.0
  C  C2718  1  0.196000  0.841800  0.387030  1.0
  C  C2719  1  0.312467  0.137333  0.720363  1.0
  C  C2720  1  0.824867  0.687533  0.720363  1.0
  C  C2721  1  0.862667  0.175133  0.720363  1.0
  C  C2722  1  0.979133  0.470667  0.053697  1.0
  C  C2723  1  0.491533  0.020867  0.053697  1.0
  C  C2724  1  0.529333  0.508467  0.053697  1.0
  C  C2725  1  0.394600  0.250700  0.617580  1.0
  C  C2726  1  0.856100  0.605400  0.617580  1.0
  C  C2727  1  0.749300  0.143900  0.617580  1.0
  C  C2728  1  0.727933  0.917367  0.284247  1.0
  C  C2729  1  0.189433  0.272067  0.284247  1.0
  C  C2730  1  0.082633  0.810567  0.284247  1.0
  C  C2731  1  0.061267  0.584033  0.950913  1.0
  C  C2732  1  0.522767  0.938733  0.950913  1.0
  C  C2733  1  0.415967  0.477233  0.950913  1.0
  C  C2734  1  0.605400  0.749300  0.382420  1.0
  C  C2735  1  0.143900  0.394600  0.382420  1.0
  C  C2736  1  0.250700  0.856100  0.382420  1.0
  C  C2737  1  0.272067  0.082633  0.715753  1.0
  C  C2738  1  0.810567  0.727933  0.715753  1.0
  C  C2739  1  0.917367  0.189433  0.715753  1.0
  C  C2740  1  0.938733  0.415967  0.049087  1.0
  C  C2741  1  0.477233  0.061267  0.049087  1.0
  C  C2742  1  0.584033  0.522767  0.049087  1.0
  C  C2743  1  0.378100  0.288400  0.622860  1.0
  C  C2744  1  0.910300  0.621900  0.622860  1.0
  C  C2745  1  0.711600  0.089700  0.622860  1.0
  C  C2746  1  0.711433  0.955067  0.289527  1.0
  C  C2747  1  0.243633  0.288567  0.289527  1.0
  C  C2748  1  0.044933  0.756367  0.289527  1.0
  C  C2749  1  0.044767  0.621733  0.956193  1.0
  C  C2750  1  0.576967  0.955233  0.956193  1.0
  C  C2751  1  0.378267  0.423033  0.956193  1.0
  C  C2752  1  0.621900  0.711600  0.377140  1.0
  C  C2753  1  0.089700  0.378100  0.377140  1.0
  C  C2754  1  0.288400  0.910300  0.377140  1.0
  C  C2755  1  0.288567  0.044933  0.710473  1.0
  C  C2756  1  0.756367  0.711433  0.710473  1.0
  C  C2757  1  0.955067  0.243633  0.710473  1.0
  C  C2758  1  0.955233  0.378267  0.043807  1.0
  C  C2759  1  0.423033  0.044767  0.043807  1.0
  C  C2760  1  0.621733  0.576967  0.043807  1.0
  C  C2761  1  0.318000  0.269900  0.623550  1.0
  C  C2762  1  0.951900  0.682000  0.623550  1.0
  C  C2763  1  0.730100  0.048100  0.623550  1.0
  C  C2764  1  0.651333  0.936567  0.290217  1.0
  C  C2765  1  0.285233  0.348667  0.290217  1.0
  C  C2766  1  0.063433  0.714767  0.290217  1.0
  C  C2767  1  0.984667  0.603233  0.956883  1.0
  C  C2768  1  0.618567  0.015333  0.956883  1.0
  C  C2769  1  0.396767  0.381433  0.956883  1.0
  C  C2770  1  0.682000  0.730100  0.376450  1.0
  C  C2771  1  0.048100  0.318000  0.376450  1.0
  C  C2772  1  0.269900  0.951900  0.376450  1.0
  C  C2773  1  0.348667  0.063433  0.709783  1.0
  C  C2774  1  0.714767  0.651333  0.709783  1.0
  C  C2775  1  0.936567  0.285233  0.709783  1.0
  C  C2776  1  0.015333  0.396767  0.043117  1.0
  C  C2777  1  0.381433  0.984667  0.043117  1.0
  C  C2778  1  0.603233  0.618567  0.043117  1.0
  C  C2779  1  0.277400  0.216000  0.618780  1.0
  C  C2780  1  0.938600  0.722600  0.618780  1.0
  C  C2781  1  0.784000  0.061400  0.618780  1.0
  C  C2782  1  0.610733  0.882667  0.285447  1.0
  C  C2783  1  0.271933  0.389267  0.285447  1.0
  C  C2784  1  0.117333  0.728067  0.285447  1.0
  C  C2785  1  0.944067  0.549333  0.952113  1.0
  C  C2786  1  0.605267  0.055933  0.952113  1.0
  C  C2787  1  0.450667  0.394733  0.952113  1.0
  C  C2788  1  0.722600  0.784000  0.381220  1.0
  C  C2789  1  0.061400  0.277400  0.381220  1.0
  C  C2790  1  0.216000  0.938600  0.381220  1.0
  C  C2791  1  0.389267  0.117333  0.714553  1.0
  C  C2792  1  0.728067  0.610733  0.714553  1.0
  C  C2793  1  0.882667  0.271933  0.714553  1.0
  C  C2794  1  0.055933  0.450667  0.047887  1.0
  C  C2795  1  0.394733  0.944067  0.047887  1.0
  C  C2796  1  0.549333  0.605267  0.047887  1.0
  C  C2797  1  0.294000  0.178400  0.613570  1.0
  C  C2798  1  0.884400  0.706000  0.613570  1.0
  C  C2799  1  0.821600  0.115600  0.613570  1.0
  C  C2800  1  0.627333  0.845067  0.280237  1.0
  C  C2801  1  0.217733  0.372667  0.280237  1.0
  C  C2802  1  0.154933  0.782267  0.280237  1.0
  C  C2803  1  0.960667  0.511733  0.946903  1.0
  C  C2804  1  0.551067  0.039333  0.946903  1.0
  C  C2805  1  0.488267  0.448933  0.946903  1.0
  C  C2806  1  0.706000  0.821600  0.386430  1.0
  C  C2807  1  0.115600  0.294000  0.386430  1.0
  C  C2808  1  0.178400  0.884400  0.386430  1.0
  C  C2809  1  0.372667  0.154933  0.719763  1.0
  C  C2810  1  0.782267  0.627333  0.719763  1.0
  C  C2811  1  0.845067  0.217733  0.719763  1.0
  C  C2812  1  0.039333  0.488267  0.053097  1.0
  C  C2813  1  0.448933  0.960667  0.053097  1.0
  C  C2814  1  0.511733  0.551067  0.053097  1.0
  C  C2815  1  0.300100  0.310900  0.640570  1.0
  C  C2816  1  0.010800  0.699900  0.640570  1.0
  C  C2817  1  0.689100  0.989200  0.640570  1.0
  C  C2818  1  0.633433  0.977567  0.307237  1.0
  C  C2819  1  0.344133  0.366567  0.307237  1.0
  C  C2820  1  0.022433  0.655867  0.307237  1.0
  C  C2821  1  0.966767  0.644233  0.973903  1.0
  C  C2822  1  0.677467  0.033233  0.973903  1.0
  C  C2823  1  0.355767  0.322533  0.973903  1.0
  C  C2824  1  0.699900  0.689100  0.359430  1.0
  C  C2825  1  0.989200  0.300100  0.359430  1.0
  C  C2826  1  0.310900  0.010800  0.359430  1.0
  C  C2827  1  0.366567  0.022433  0.692763  1.0
  C  C2828  1  0.655867  0.633433  0.692763  1.0
  C  C2829  1  0.977567  0.344133  0.692763  1.0
  C  C2830  1  0.033233  0.355767  0.026097  1.0
  C  C2831  1  0.322533  0.966767  0.026097  1.0
  C  C2832  1  0.644233  0.677467  0.026097  1.0
  C  C2833  1  0.282700  0.352800  0.645370  1.0
  C  C2834  1  0.070100  0.717300  0.645370  1.0
  C  C2835  1  0.647200  0.929900  0.645370  1.0
  C  C2836  1  0.616033  0.019467  0.312037  1.0
  C  C2837  1  0.403433  0.383967  0.312037  1.0
  C  C2838  1  0.980533  0.596567  0.312037  1.0
  C  C2839  1  0.949367  0.686133  0.978703  1.0
  C  C2840  1  0.736767  0.050633  0.978703  1.0
  C  C2841  1  0.313867  0.263233  0.978703  1.0
  C  C2842  1  0.717300  0.647200  0.354630  1.0
  C  C2843  1  0.929900  0.282700  0.354630  1.0
  C  C2844  1  0.352800  0.070100  0.354630  1.0
  C  C2845  1  0.383967  0.980533  0.687963  1.0
  C  C2846  1  0.596567  0.616033  0.687963  1.0
  C  C2847  1  0.019467  0.403433  0.687963  1.0
  C  C2848  1  0.050633  0.313867  0.021297  1.0
  C  C2849  1  0.263233  0.949367  0.021297  1.0
  C  C2850  1  0.686133  0.736767  0.021297  1.0
  C  C2851  1  0.282500  0.363900  0.657550  1.0
  C  C2852  1  0.081400  0.717500  0.657550  1.0
  C  C2853  1  0.636100  0.918600  0.657550  1.0
  C  C2854  1  0.615833  0.030567  0.324217  1.0
  C  C2855  1  0.414733  0.384167  0.324217  1.0
  C  C2856  1  0.969433  0.585267  0.324217  1.0
  C  C2857  1  0.949167  0.697233  0.990883  1.0
  C  C2858  1  0.748067  0.050833  0.990883  1.0
  C  C2859  1  0.302767  0.251933  0.990883  1.0
  C  C2860  1  0.717500  0.636100  0.342450  1.0
  C  C2861  1  0.918600  0.282500  0.342450  1.0
  C  C2862  1  0.363900  0.081400  0.342450  1.0
  C  C2863  1  0.384167  0.969433  0.675783  1.0
  C  C2864  1  0.585267  0.615833  0.675783  1.0
  C  C2865  1  0.030567  0.414733  0.675783  1.0
  C  C2866  1  0.050833  0.302767  0.009117  1.0
  C  C2867  1  0.251933  0.949167  0.009117  1.0
  C  C2868  1  0.697233  0.748067  0.009117  1.0
  C  C2869  1  0.267100  0.405500  0.661070  1.0
  C  C2870  1  0.138400  0.732900  0.661070  1.0
  C  C2871  1  0.594500  0.861600  0.661070  1.0
  C  C2872  1  0.600433  0.072167  0.327737  1.0
  C  C2873  1  0.471733  0.399567  0.327737  1.0
  C  C2874  1  0.927833  0.528267  0.327737  1.0
  C  C2875  1  0.933767  0.738833  0.994403  1.0
  C  C2876  1  0.805067  0.066233  0.994403  1.0
  C  C2877  1  0.261167  0.194933  0.994403  1.0
  C  C2878  1  0.732900  0.594500  0.338930  1.0
  C  C2879  1  0.861600  0.267100  0.338930  1.0
  C  C2880  1  0.405500  0.138400  0.338930  1.0
  C  C2881  1  0.399567  0.927833  0.672263  1.0
  C  C2882  1  0.528267  0.600433  0.672263  1.0
  C  C2883  1  0.072167  0.471733  0.672263  1.0
  C  C2884  1  0.066233  0.261167  0.005597  1.0
  C  C2885  1  0.194933  0.933767  0.005597  1.0
  C  C2886  1  0.738833  0.805067  0.005597  1.0
  C  C2887  1  0.253200  0.433900  0.652220  1.0
  C  C2888  1  0.180700  0.746800  0.652220  1.0
  C  C2889  1  0.566100  0.819300  0.652220  1.0
  C  C2890  1  0.586533  0.100567  0.318887  1.0
  C  C2891  1  0.514033  0.413467  0.318887  1.0
  C  C2892  1  0.899433  0.485967  0.318887  1.0
  C  C2893  1  0.919867  0.767233  0.985553  1.0
  C  C2894  1  0.847367  0.080133  0.985553  1.0
  C  C2895  1  0.232767  0.152633  0.985553  1.0
  C  C2896  1  0.746800  0.566100  0.347780  1.0
  C  C2897  1  0.819300  0.253200  0.347780  1.0
  C  C2898  1  0.433900  0.180700  0.347780  1.0
  C  C2899  1  0.413467  0.899433  0.681113  1.0
  C  C2900  1  0.485967  0.586533  0.681113  1.0
  C  C2901  1  0.100567  0.514033  0.681113  1.0
  C  C2902  1  0.080133  0.232767  0.014447  1.0
  C  C2903  1  0.152633  0.919867  0.014447  1.0
  C  C2904  1  0.767233  0.847367  0.014447  1.0
  C  C2905  1  0.255200  0.420200  0.640210  1.0
  C  C2906  1  0.165000  0.744800  0.640210  1.0
  C  C2907  1  0.579800  0.835000  0.640210  1.0
  C  C2908  1  0.588533  0.086867  0.306877  1.0
  C  C2909  1  0.498333  0.411467  0.306877  1.0
  C  C2910  1  0.913133  0.501667  0.306877  1.0
  C  C2911  1  0.921867  0.753533  0.973543  1.0
  C  C2912  1  0.831667  0.078133  0.973543  1.0
  C  C2913  1  0.246467  0.168333  0.973543  1.0
  C  C2914  1  0.744800  0.579800  0.359790  1.0
  C  C2915  1  0.835000  0.255200  0.359790  1.0
  C  C2916  1  0.420200  0.165000  0.359790  1.0
  C  C2917  1  0.411467  0.913133  0.693123  1.0
  C  C2918  1  0.501667  0.588533  0.693123  1.0
  C  C2919  1  0.086867  0.498333  0.693123  1.0
  C  C2920  1  0.078133  0.246467  0.026457  1.0
  C  C2921  1  0.168333  0.921867  0.026457  1.0
  C  C2922  1  0.753533  0.831667  0.026457  1.0
  C  C2923  1  0.719900  0.870800  0.628870  1.0
  C  C2924  1  0.150900  0.280100  0.628870  1.0
  C  C2925  1  0.129200  0.849100  0.628870  1.0
  C  C2926  1  0.053233  0.537467  0.295537  1.0
  C  C2927  1  0.484233  0.946767  0.295537  1.0
  C  C2928  1  0.462533  0.515767  0.295537  1.0
  C  C2929  1  0.386567  0.204133  0.962203  1.0
  C  C2930  1  0.817567  0.613433  0.962203  1.0
  C  C2931  1  0.795867  0.182433  0.962203  1.0
  C  C2932  1  0.280100  0.129200  0.371130  1.0
  C  C2933  1  0.849100  0.719900  0.371130  1.0
  C  C2934  1  0.870800  0.150900  0.371130  1.0
  C  C2935  1  0.946767  0.462533  0.704463  1.0
  C  C2936  1  0.515767  0.053233  0.704463  1.0
  C  C2937  1  0.537467  0.484233  0.704463  1.0
  C  C2938  1  0.613433  0.795867  0.037797  1.0
  C  C2939  1  0.182433  0.386567  0.037797  1.0
  C  C2940  1  0.204133  0.817567  0.037797  1.0
  C  C2941  1  0.765900  0.859200  0.627980  1.0
  C  C2942  1  0.093300  0.234100  0.627980  1.0
  C  C2943  1  0.140800  0.906700  0.627980  1.0
  C  C2944  1  0.099233  0.525867  0.294647  1.0
  C  C2945  1  0.426633  0.900767  0.294647  1.0
  C  C2946  1  0.474133  0.573367  0.294647  1.0
  C  C2947  1  0.432567  0.192533  0.961313  1.0
  C  C2948  1  0.759967  0.567433  0.961313  1.0
  C  C2949  1  0.807467  0.240033  0.961313  1.0
  C  C2950  1  0.234100  0.140800  0.372020  1.0
  C  C2951  1  0.906700  0.765900  0.372020  1.0
  C  C2952  1  0.859200  0.093300  0.372020  1.0
  C  C2953  1  0.900767  0.474133  0.705353  1.0
  C  C2954  1  0.573367  0.099233  0.705353  1.0
  C  C2955  1  0.525867  0.426633  0.705353  1.0
  C  C2956  1  0.567433  0.807467  0.038687  1.0
  C  C2957  1  0.240033  0.432567  0.038687  1.0
  C  C2958  1  0.192533  0.759967  0.038687  1.0
  C  C2959  1  0.799300  0.876100  0.617430  1.0
  C  C2960  1  0.076800  0.200700  0.617430  1.0
  C  C2961  1  0.123900  0.923200  0.617430  1.0
  C  C2962  1  0.132633  0.542767  0.284097  1.0
  C  C2963  1  0.410133  0.867367  0.284097  1.0
  C  C2964  1  0.457233  0.589867  0.284097  1.0
  C  C2965  1  0.465967  0.209433  0.950763  1.0
  C  C2966  1  0.743467  0.534033  0.950763  1.0
  C  C2967  1  0.790567  0.256533  0.950763  1.0
  C  C2968  1  0.200700  0.123900  0.382570  1.0
  C  C2969  1  0.923200  0.799300  0.382570  1.0
  C  C2970  1  0.876100  0.076800  0.382570  1.0
  C  C2971  1  0.867367  0.457233  0.715903  1.0
  C  C2972  1  0.589867  0.132633  0.715903  1.0
  C  C2973  1  0.542767  0.410133  0.715903  1.0
  C  C2974  1  0.534033  0.790567  0.049237  1.0
  C  C2975  1  0.256533  0.465967  0.049237  1.0
  C  C2976  1  0.209433  0.743467  0.049237  1.0
  C  C2977  1  0.786600  0.905200  0.608470  1.0
  C  C2978  1  0.118600  0.213400  0.608470  1.0
  C  C2979  1  0.094800  0.881400  0.608470  1.0
  C  C2980  1  0.119933  0.571867  0.275137  1.0
  C  C2981  1  0.451933  0.880067  0.275137  1.0
  C  C2982  1  0.428133  0.548067  0.275137  1.0
  C  C2983  1  0.453267  0.238533  0.941803  1.0
  C  C2984  1  0.785267  0.546733  0.941803  1.0
  C  C2985  1  0.761467  0.214733  0.941803  1.0
  C  C2986  1  0.213400  0.094800  0.391530  1.0
  C  C2987  1  0.881400  0.786600  0.391530  1.0
  C  C2988  1  0.905200  0.118600  0.391530  1.0
  C  C2989  1  0.880067  0.428133  0.724863  1.0
  C  C2990  1  0.548067  0.119933  0.724863  1.0
  C  C2991  1  0.571867  0.451933  0.724863  1.0
  C  C2992  1  0.546733  0.761467  0.058197  1.0
  C  C2993  1  0.214733  0.453267  0.058197  1.0
  C  C2994  1  0.238533  0.785267  0.058197  1.0
  C  C2995  1  0.740100  0.915600  0.610330  1.0
  C  C2996  1  0.175500  0.259900  0.610330  1.0
  C  C2997  1  0.084400  0.824500  0.610330  1.0
  C  C2998  1  0.073433  0.582267  0.276997  1.0
  C  C2999  1  0.508833  0.926567  0.276997  1.0
  C  C3000  1  0.417733  0.491167  0.276997  1.0
  C  C3001  1  0.406767  0.248933  0.943663  1.0
  C  C3002  1  0.842167  0.593233  0.943663  1.0
  C  C3003  1  0.751067  0.157833  0.943663  1.0
  C  C3004  1  0.259900  0.084400  0.389670  1.0
  C  C3005  1  0.824500  0.740100  0.389670  1.0
  C  C3006  1  0.915600  0.175500  0.389670  1.0
  C  C3007  1  0.926567  0.417733  0.723003  1.0
  C  C3008  1  0.491167  0.073433  0.723003  1.0
  C  C3009  1  0.582267  0.508833  0.723003  1.0
  C  C3010  1  0.593233  0.751067  0.056337  1.0
  C  C3011  1  0.157833  0.406767  0.056337  1.0
  C  C3012  1  0.248933  0.842167  0.056337  1.0
  C  C3013  1  0.721800  0.943700  0.601080  1.0
  C  C3014  1  0.221900  0.278200  0.601080  1.0
  C  C3015  1  0.056300  0.778100  0.601080  1.0
  C  C3016  1  0.055133  0.610367  0.267747  1.0
  C  C3017  1  0.555233  0.944867  0.267747  1.0
  C  C3018  1  0.389633  0.444767  0.267747  1.0
  C  C3019  1  0.388467  0.277033  0.934413  1.0
  C  C3020  1  0.888567  0.611533  0.934413  1.0
  C  C3021  1  0.722967  0.111433  0.934413  1.0
  C  C3022  1  0.278200  0.056300  0.398920  1.0
  C  C3023  1  0.778100  0.721800  0.398920  1.0
  C  C3024  1  0.943700  0.221900  0.398920  1.0
  C  C3025  1  0.944867  0.389633  0.732253  1.0
  C  C3026  1  0.444767  0.055133  0.732253  1.0
  C  C3027  1  0.610367  0.555233  0.732253  1.0
  C  C3028  1  0.611533  0.722967  0.065587  1.0
  C  C3029  1  0.111433  0.388467  0.065587  1.0
  C  C3030  1  0.277033  0.888567  0.065587  1.0
  C  C3031  1  0.656800  0.974400  0.595150  1.0
  C  C3032  1  0.317600  0.343200  0.595150  1.0
  C  C3033  1  0.025600  0.682400  0.595150  1.0
  C  C3034  1  0.990133  0.641067  0.261817  1.0
  C  C3035  1  0.650933  0.009867  0.261817  1.0
  C  C3036  1  0.358933  0.349067  0.261817  1.0
  C  C3037  1  0.323467  0.307733  0.928483  1.0
  C  C3038  1  0.984267  0.676533  0.928483  1.0
  C  C3039  1  0.692267  0.015733  0.928483  1.0
  C  C3040  1  0.343200  0.025600  0.404850  1.0
  C  C3041  1  0.682400  0.656800  0.404850  1.0
  C  C3042  1  0.974400  0.317600  0.404850  1.0
  C  C3043  1  0.009867  0.358933  0.738183  1.0
  C  C3044  1  0.349067  0.990133  0.738183  1.0
  C  C3045  1  0.641067  0.650933  0.738183  1.0
  C  C3046  1  0.676533  0.692267  0.071517  1.0
  C  C3047  1  0.015733  0.323467  0.071517  1.0
  C  C3048  1  0.307733  0.984267  0.071517  1.0
  C  C3049  1  0.688100  0.035200  0.592950  1.0
  C  C3050  1  0.347100  0.311900  0.592950  1.0
  C  C3051  1  0.964800  0.652900  0.592950  1.0
  C  C3052  1  0.021433  0.701867  0.259617  1.0
  C  C3053  1  0.680433  0.978567  0.259617  1.0
  C  C3054  1  0.298133  0.319567  0.259617  1.0
  C  C3055  1  0.354767  0.368533  0.926283  1.0
  C  C3056  1  0.013767  0.645233  0.926283  1.0
  C  C3057  1  0.631467  0.986233  0.926283  1.0
  C  C3058  1  0.311900  0.964800  0.407050  1.0
  C  C3059  1  0.652900  0.688100  0.407050  1.0
  C  C3060  1  0.035200  0.347100  0.407050  1.0
  C  C3061  1  0.978567  0.298133  0.740383  1.0
  C  C3062  1  0.319567  0.021433  0.740383  1.0
  C  C3063  1  0.701867  0.680433  0.740383  1.0
  C  C3064  1  0.645233  0.631467  0.073717  1.0
  C  C3065  1  0.986233  0.354767  0.073717  1.0
  C  C3066  1  0.368533  0.013767  0.073717  1.0
  C  C3067  1  0.668800  0.059800  0.584300  1.0
  C  C3068  1  0.391000  0.331200  0.584300  1.0
  C  C3069  1  0.940200  0.609000  0.584300  1.0
  C  C3070  1  0.002133  0.726467  0.250967  1.0
  C  C3071  1  0.724333  0.997867  0.250967  1.0
  C  C3072  1  0.273533  0.275667  0.250967  1.0
  C  C3073  1  0.335467  0.393133  0.917633  1.0
  C  C3074  1  0.057667  0.664533  0.917633  1.0
  C  C3075  1  0.606867  0.942333  0.917633  1.0
  C  C3076  1  0.331200  0.940200  0.415700  1.0
  C  C3077  1  0.609000  0.668800  0.415700  1.0
  C  C3078  1  0.059800  0.391000  0.415700  1.0
  C  C3079  1  0.997867  0.273533  0.749033  1.0
  C  C3080  1  0.275667  0.002133  0.749033  1.0
  C  C3081  1  0.726467  0.724333  0.749033  1.0
  C  C3082  1  0.664533  0.606867  0.082367  1.0
  C  C3083  1  0.942333  0.335467  0.082367  1.0
  C  C3084  1  0.393133  0.057667  0.082367  1.0
  C  C3085  1  0.617200  0.025000  0.577730  1.0
  C  C3086  1  0.407800  0.382800  0.577730  1.0
  C  C3087  1  0.975000  0.592200  0.577730  1.0
  C  C3088  1  0.950533  0.691667  0.244397  1.0
  C  C3089  1  0.741133  0.049467  0.244397  1.0
  C  C3090  1  0.308333  0.258867  0.244397  1.0
  C  C3091  1  0.283867  0.358333  0.911063  1.0
  C  C3092  1  0.074467  0.716133  0.911063  1.0
  C  C3093  1  0.641667  0.925533  0.911063  1.0
  C  C3094  1  0.382800  0.975000  0.422270  1.0
  C  C3095  1  0.592200  0.617200  0.422270  1.0
  C  C3096  1  0.025000  0.407800  0.422270  1.0
  C  C3097  1  0.049467  0.308333  0.755603  1.0
  C  C3098  1  0.258867  0.950533  0.755603  1.0
  C  C3099  1  0.691667  0.741133  0.755603  1.0
  C  C3100  1  0.716133  0.641667  0.088937  1.0
  C  C3101  1  0.925533  0.283867  0.088937  1.0
  C  C3102  1  0.358333  0.074467  0.088937  1.0
  C  C3103  1  0.585500  0.964500  0.580120  1.0
  C  C3104  1  0.379000  0.414500  0.580120  1.0
  C  C3105  1  0.035500  0.621000  0.580120  1.0
  C  C3106  1  0.918833  0.631167  0.246787  1.0
  C  C3107  1  0.712333  0.081167  0.246787  1.0
  C  C3108  1  0.368833  0.287667  0.246787  1.0
  C  C3109  1  0.252167  0.297833  0.913453  1.0
  C  C3110  1  0.045667  0.747833  0.913453  1.0
  C  C3111  1  0.702167  0.954333  0.913453  1.0
  C  C3112  1  0.414500  0.035500  0.419880  1.0
  C  C3113  1  0.621000  0.585500  0.419880  1.0
  C  C3114  1  0.964500  0.379000  0.419880  1.0
  C  C3115  1  0.081167  0.368833  0.753213  1.0
  C  C3116  1  0.287667  0.918833  0.753213  1.0
  C  C3117  1  0.631167  0.712333  0.753213  1.0
  C  C3118  1  0.747833  0.702167  0.086547  1.0
  C  C3119  1  0.954333  0.252167  0.086547  1.0
  C  C3120  1  0.297833  0.045667  0.086547  1.0
  C  C3121  1  0.605300  0.939400  0.588580  1.0
  C  C3122  1  0.334100  0.394700  0.588580  1.0
  C  C3123  1  0.060600  0.665900  0.588580  1.0
  C  C3124  1  0.938633  0.606067  0.255247  1.0
  C  C3125  1  0.667433  0.061367  0.255247  1.0
  C  C3126  1  0.393933  0.332567  0.255247  1.0
  C  C3127  1  0.271967  0.272733  0.921913  1.0
  C  C3128  1  0.000767  0.728033  0.921913  1.0
  C  C3129  1  0.727267  0.999233  0.921913  1.0
  C  C3130  1  0.394700  0.060600  0.411420  1.0
  C  C3131  1  0.665900  0.605300  0.411420  1.0
  C  C3132  1  0.939400  0.334100  0.411420  1.0
  C  C3133  1  0.061367  0.393933  0.744753  1.0
  C  C3134  1  0.332567  0.938633  0.744753  1.0
  C  C3135  1  0.606067  0.667433  0.744753  1.0
  C  C3136  1  0.728033  0.727267  0.078087  1.0
  C  C3137  1  0.999233  0.271967  0.078087  1.0
  C  C3138  1  0.272733  0.000767  0.078087  1.0
  C  C3139  1  0.596700  0.049100  0.567750  1.0
  C  C3140  1  0.452400  0.403300  0.567750  1.0
  C  C3141  1  0.950900  0.547600  0.567750  1.0
  C  C3142  1  0.930033  0.715767  0.234417  1.0
  C  C3143  1  0.785733  0.069967  0.234417  1.0
  C  C3144  1  0.284233  0.214267  0.234417  1.0
  C  C3145  1  0.263367  0.382433  0.901083  1.0
  C  C3146  1  0.119067  0.736633  0.901083  1.0
  C  C3147  1  0.617567  0.880933  0.901083  1.0
  C  C3148  1  0.403300  0.950900  0.432250  1.0
  C  C3149  1  0.547600  0.596700  0.432250  1.0
  C  C3150  1  0.049100  0.452400  0.432250  1.0
  C  C3151  1  0.069967  0.284233  0.765583  1.0
  C  C3152  1  0.214267  0.930033  0.765583  1.0
  C  C3153  1  0.715767  0.785733  0.765583  1.0
  C  C3154  1  0.736633  0.617567  0.098917  1.0
  C  C3155  1  0.880933  0.263367  0.098917  1.0
  C  C3156  1  0.382433  0.119067  0.098917  1.0
  C  C3157  1  0.540600  0.043400  0.568570  1.0
  C  C3158  1  0.502800  0.459400  0.568570  1.0
  C  C3159  1  0.956600  0.497200  0.568570  1.0
  C  C3160  1  0.873933  0.710067  0.235237  1.0
  C  C3161  1  0.836133  0.126067  0.235237  1.0
  C  C3162  1  0.289933  0.163867  0.235237  1.0
  C  C3163  1  0.207267  0.376733  0.901903  1.0
  C  C3164  1  0.169467  0.792733  0.901903  1.0
  C  C3165  1  0.623267  0.830533  0.901903  1.0
  C  C3166  1  0.459400  0.956600  0.431430  1.0
  C  C3167  1  0.497200  0.540600  0.431430  1.0
  C  C3168  1  0.043400  0.502800  0.431430  1.0
  C  C3169  1  0.126067  0.289933  0.764763  1.0
  C  C3170  1  0.163867  0.873933  0.764763  1.0
  C  C3171  1  0.710067  0.836133  0.764763  1.0
  C  C3172  1  0.792733  0.623267  0.098097  1.0
  C  C3173  1  0.830533  0.207267  0.098097  1.0
  C  C3174  1  0.376733  0.169467  0.098097  1.0
  C  C3175  1  0.517700  0.062000  0.559260  1.0
  C  C3176  1  0.544300  0.482300  0.559260  1.0
  C  C3177  1  0.938000  0.455700  0.559260  1.0
  C  C3178  1  0.851033  0.728667  0.225927  1.0
  C  C3179  1  0.877633  0.148967  0.225927  1.0
  C  C3180  1  0.271333  0.122367  0.225927  1.0
  C  C3181  1  0.184367  0.395333  0.892593  1.0
  C  C3182  1  0.210967  0.815633  0.892593  1.0
  C  C3183  1  0.604667  0.789033  0.892593  1.0
  C  C3184  1  0.482300  0.938000  0.440740  1.0
  C  C3185  1  0.455700  0.517700  0.440740  1.0
  C  C3186  1  0.062000  0.544300  0.440740  1.0
  C  C3187  1  0.148967  0.271333  0.774073  1.0
  C  C3188  1  0.122367  0.851033  0.774073  1.0
  C  C3189  1  0.728667  0.877633  0.774073  1.0
  C  C3190  1  0.815633  0.604667  0.107407  1.0
  C  C3191  1  0.789033  0.184367  0.107407  1.0
  C  C3192  1  0.395333  0.210967  0.107407  1.0
  C  C3193  1  0.550500  0.084800  0.548830  1.0
  C  C3194  1  0.534300  0.449500  0.548830  1.0
  C  C3195  1  0.915200  0.465700  0.548830  1.0
  C  C3196  1  0.883833  0.751467  0.215497  1.0
  C  C3197  1  0.867633  0.116167  0.215497  1.0
  C  C3198  1  0.248533  0.132367  0.215497  1.0
  C  C3199  1  0.217167  0.418133  0.882163  1.0
  C  C3200  1  0.200967  0.782833  0.882163  1.0
  C  C3201  1  0.581867  0.799033  0.882163  1.0
  C  C3202  1  0.449500  0.915200  0.451170  1.0
  C  C3203  1  0.465700  0.550500  0.451170  1.0
  C  C3204  1  0.084800  0.534300  0.451170  1.0
  C  C3205  1  0.116167  0.248533  0.784503  1.0
  C  C3206  1  0.132367  0.883833  0.784503  1.0
  C  C3207  1  0.751467  0.867633  0.784503  1.0
  C  C3208  1  0.782833  0.581867  0.117837  1.0
  C  C3209  1  0.799033  0.217167  0.117837  1.0
  C  C3210  1  0.418133  0.200967  0.117837  1.0
  C  C3211  1  0.606200  0.090600  0.547670  1.0
  C  C3212  1  0.484400  0.393800  0.547670  1.0
  C  C3213  1  0.909400  0.515600  0.547670  1.0
  C  C3214  1  0.939533  0.757267  0.214337  1.0
  C  C3215  1  0.817733  0.060467  0.214337  1.0
  C  C3216  1  0.242733  0.182267  0.214337  1.0
  C  C3217  1  0.272867  0.423933  0.881003  1.0
  C  C3218  1  0.151067  0.727133  0.881003  1.0
  C  C3219  1  0.576067  0.848933  0.881003  1.0
  C  C3220  1  0.393800  0.909400  0.452330  1.0
  C  C3221  1  0.515600  0.606200  0.452330  1.0
  C  C3222  1  0.090600  0.484400  0.452330  1.0
  C  C3223  1  0.060467  0.242733  0.785663  1.0
  C  C3224  1  0.182267  0.939533  0.785663  1.0
  C  C3225  1  0.757267  0.817733  0.785663  1.0
  C  C3226  1  0.727133  0.576067  0.118997  1.0
  C  C3227  1  0.848933  0.272867  0.118997  1.0
  C  C3228  1  0.423933  0.151067  0.118997  1.0
  C  C3229  1  0.645200  0.112200  0.536730  1.0
  C  C3230  1  0.467000  0.354800  0.536730  1.0
  C  C3231  1  0.887800  0.533000  0.536730  1.0
  C  C3232  1  0.978533  0.778867  0.203397  1.0
  C  C3233  1  0.800333  0.021467  0.203397  1.0
  C  C3234  1  0.221133  0.199667  0.203397  1.0
  C  C3235  1  0.311867  0.445533  0.870063  1.0
  C  C3236  1  0.133667  0.688133  0.870063  1.0
  C  C3237  1  0.554467  0.866333  0.870063  1.0
  C  C3238  1  0.354800  0.887800  0.463270  1.0
  C  C3239  1  0.533000  0.645200  0.463270  1.0
  C  C3240  1  0.112200  0.467000  0.463270  1.0
  C  C3241  1  0.021467  0.221133  0.796603  1.0
  C  C3242  1  0.199667  0.978533  0.796603  1.0
  C  C3243  1  0.778867  0.800333  0.796603  1.0
  C  C3244  1  0.688133  0.554467  0.129937  1.0
  C  C3245  1  0.866333  0.311867  0.129937  1.0
  C  C3246  1  0.445533  0.133667  0.129937  1.0
  C  C3247  1  0.706300  0.159700  0.540870  1.0
  C  C3248  1  0.453400  0.293700  0.540870  1.0
  C  C3249  1  0.840300  0.546600  0.540870  1.0
  C  C3250  1  0.039633  0.826367  0.207537  1.0
  C  C3251  1  0.786733  0.960367  0.207537  1.0
  C  C3252  1  0.173633  0.213267  0.207537  1.0
  C  C3253  1  0.372967  0.493033  0.874203  1.0
  C  C3254  1  0.120067  0.627033  0.874203  1.0
  C  C3255  1  0.506967  0.879933  0.874203  1.0
  C  C3256  1  0.293700  0.840300  0.459130  1.0
  C  C3257  1  0.546600  0.706300  0.459130  1.0
  C  C3258  1  0.159700  0.453400  0.459130  1.0
  C  C3259  1  0.960367  0.173633  0.792463  1.0
  C  C3260  1  0.213267  0.039633  0.792463  1.0
  C  C3261  1  0.826367  0.786733  0.792463  1.0
  C  C3262  1  0.627033  0.506967  0.125797  1.0
  C  C3263  1  0.879933  0.372967  0.125797  1.0
  C  C3264  1  0.493033  0.120067  0.125797  1.0
  C  C3265  1  0.739600  0.216000  0.535480  1.0
  C  C3266  1  0.476400  0.260400  0.535480  1.0
  C  C3267  1  0.784000  0.523600  0.535480  1.0
  C  C3268  1  0.072933  0.882667  0.202147  1.0
  C  C3269  1  0.809733  0.927067  0.202147  1.0
  C  C3270  1  0.117333  0.190267  0.202147  1.0
  C  C3271  1  0.406267  0.549333  0.868813  1.0
  C  C3272  1  0.143067  0.593733  0.868813  1.0
  C  C3273  1  0.450667  0.856933  0.868813  1.0
  C  C3274  1  0.260400  0.784000  0.464520  1.0
  C  C3275  1  0.523600  0.739600  0.464520  1.0
  C  C3276  1  0.216000  0.476400  0.464520  1.0
  C  C3277  1  0.927067  0.117333  0.797853  1.0
  C  C3278  1  0.190267  0.072933  0.797853  1.0
  C  C3279  1  0.882667  0.809733  0.797853  1.0
  C  C3280  1  0.593733  0.450667  0.131187  1.0
  C  C3281  1  0.856933  0.406267  0.131187  1.0
  C  C3282  1  0.549333  0.143067  0.131187  1.0
  C  C3283  1  0.795700  0.255300  0.540040  1.0
  C  C3284  1  0.459600  0.204300  0.540040  1.0
  C  C3285  1  0.744700  0.540400  0.540040  1.0
  C  C3286  1  0.129033  0.921967  0.206707  1.0
  C  C3287  1  0.792933  0.870967  0.206707  1.0
  C  C3288  1  0.078033  0.207067  0.206707  1.0
  C  C3289  1  0.462367  0.588633  0.873373  1.0
  C  C3290  1  0.126267  0.537633  0.873373  1.0
  C  C3291  1  0.411367  0.873733  0.873373  1.0
  C  C3292  1  0.204300  0.744700  0.459960  1.0
  C  C3293  1  0.540400  0.795700  0.459960  1.0
  C  C3294  1  0.255300  0.459600  0.459960  1.0
  C  C3295  1  0.870967  0.078033  0.793293  1.0
  C  C3296  1  0.207067  0.129033  0.793293  1.0
  C  C3297  1  0.921967  0.792933  0.793293  1.0
  C  C3298  1  0.537633  0.411367  0.126627  1.0
  C  C3299  1  0.873733  0.462367  0.126627  1.0
  C  C3300  1  0.588633  0.126267  0.126627  1.0
  C  C3301  1  0.818000  0.240300  0.549800  1.0
  C  C3302  1  0.422300  0.182000  0.549800  1.0
  C  C3303  1  0.759700  0.577700  0.549800  1.0
  C  C3304  1  0.151333  0.906967  0.216467  1.0
  C  C3305  1  0.755633  0.848667  0.216467  1.0
  C  C3306  1  0.093033  0.244367  0.216467  1.0
  C  C3307  1  0.484667  0.573633  0.883133  1.0
  C  C3308  1  0.088967  0.515333  0.883133  1.0
  C  C3309  1  0.426367  0.911033  0.883133  1.0
  C  C3310  1  0.182000  0.759700  0.450200  1.0
  C  C3311  1  0.577700  0.818000  0.450200  1.0
  C  C3312  1  0.240300  0.422300  0.450200  1.0
  C  C3313  1  0.848667  0.093033  0.783533  1.0
  C  C3314  1  0.244367  0.151333  0.783533  1.0
  C  C3315  1  0.906967  0.755633  0.783533  1.0
  C  C3316  1  0.515333  0.426367  0.116867  1.0
  C  C3317  1  0.911033  0.484667  0.116867  1.0
  C  C3318  1  0.573633  0.088967  0.116867  1.0
  C  C3319  1  0.786000  0.184800  0.555000  1.0
  C  C3320  1  0.398800  0.214000  0.555000  1.0
  C  C3321  1  0.815200  0.601200  0.555000  1.0
  C  C3322  1  0.119333  0.851467  0.221667  1.0
  C  C3323  1  0.732133  0.880667  0.221667  1.0
  C  C3324  1  0.148533  0.267867  0.221667  1.0
  C  C3325  1  0.452667  0.518133  0.888333  1.0
  C  C3326  1  0.065467  0.547333  0.888333  1.0
  C  C3327  1  0.481867  0.934533  0.888333  1.0
  C  C3328  1  0.214000  0.815200  0.445000  1.0
  C  C3329  1  0.601200  0.786000  0.445000  1.0
  C  C3330  1  0.184800  0.398800  0.445000  1.0
  C  C3331  1  0.880667  0.148533  0.778333  1.0
  C  C3332  1  0.267867  0.119333  0.778333  1.0
  C  C3333  1  0.851467  0.732133  0.778333  1.0
  C  C3334  1  0.547333  0.481867  0.111667  1.0
  C  C3335  1  0.934533  0.452667  0.111667  1.0
  C  C3336  1  0.518133  0.065467  0.111667  1.0
  C  C3337  1  0.730400  0.144000  0.550540  1.0
  C  C3338  1  0.413600  0.269600  0.550540  1.0
  C  C3339  1  0.856000  0.586400  0.550540  1.0
  C  C3340  1  0.063733  0.810667  0.217207  1.0
  C  C3341  1  0.746933  0.936267  0.217207  1.0
  C  C3342  1  0.189333  0.253067  0.217207  1.0
  C  C3343  1  0.397067  0.477333  0.883873  1.0
  C  C3344  1  0.080267  0.602933  0.883873  1.0
  C  C3345  1  0.522667  0.919733  0.883873  1.0
  C  C3346  1  0.269600  0.856000  0.449460  1.0
  C  C3347  1  0.586400  0.730400  0.449460  1.0
  C  C3348  1  0.144000  0.413600  0.449460  1.0
  C  C3349  1  0.936267  0.189333  0.782793  1.0
  C  C3350  1  0.253067  0.063733  0.782793  1.0
  C  C3351  1  0.810667  0.746933  0.782793  1.0
  C  C3352  1  0.602933  0.522667  0.116127  1.0
  C  C3353  1  0.919733  0.397067  0.116127  1.0
  C  C3354  1  0.477333  0.080267  0.116127  1.0
  C  C3355  1  0.691400  0.082500  0.555050  1.0
  C  C3356  1  0.391100  0.308600  0.555050  1.0
  C  C3357  1  0.917500  0.608900  0.555050  1.0
  C  C3358  1  0.024733  0.749167  0.221717  1.0
  C  C3359  1  0.724433  0.975267  0.221717  1.0
  C  C3360  1  0.250833  0.275567  0.221717  1.0
  C  C3361  1  0.358067  0.415833  0.888383  1.0
  C  C3362  1  0.057767  0.641933  0.888383  1.0
  C  C3363  1  0.584167  0.942233  0.888383  1.0
  C  C3364  1  0.308600  0.917500  0.444950  1.0
  C  C3365  1  0.608900  0.691400  0.444950  1.0
  C  C3366  1  0.082500  0.391100  0.444950  1.0
  C  C3367  1  0.975267  0.250833  0.778283  1.0
  C  C3368  1  0.275567  0.024733  0.778283  1.0
  C  C3369  1  0.749167  0.724433  0.778283  1.0
  C  C3370  1  0.641933  0.584167  0.111617  1.0
  C  C3371  1  0.942233  0.358067  0.111617  1.0
  C  C3372  1  0.415833  0.057767  0.111617  1.0
  C  C3373  1  0.630100  0.073800  0.557260  1.0
  C  C3374  1  0.443700  0.369900  0.557260  1.0
  C  C3375  1  0.926200  0.556300  0.557260  1.0
  C  C3376  1  0.963433  0.740467  0.223927  1.0
  C  C3377  1  0.777033  0.036567  0.223927  1.0
  C  C3378  1  0.259533  0.222967  0.223927  1.0
  C  C3379  1  0.296767  0.407133  0.890593  1.0
  C  C3380  1  0.110367  0.703233  0.890593  1.0
  C  C3381  1  0.592867  0.889633  0.890593  1.0
  C  C3382  1  0.369900  0.926200  0.442740  1.0
  C  C3383  1  0.556300  0.630100  0.442740  1.0
  C  C3384  1  0.073800  0.443700  0.442740  1.0
  C  C3385  1  0.036567  0.259533  0.776073  1.0
  C  C3386  1  0.222967  0.963433  0.776073  1.0
  C  C3387  1  0.740467  0.777033  0.776073  1.0
  C  C3388  1  0.703233  0.592867  0.109407  1.0
  C  C3389  1  0.889633  0.296767  0.109407  1.0
  C  C3390  1  0.407133  0.110367  0.109407  1.0
  C  C3391  1  0.683400  0.041900  0.543480  1.0
  C  C3392  1  0.358500  0.316600  0.543480  1.0
  C  C3393  1  0.958100  0.641500  0.543480  1.0
  C  C3394  1  0.016733  0.708567  0.210147  1.0
  C  C3395  1  0.691833  0.983267  0.210147  1.0
  C  C3396  1  0.291433  0.308167  0.210147  1.0
  C  C3397  1  0.350067  0.375233  0.876813  1.0
  C  C3398  1  0.025167  0.649933  0.876813  1.0
  C  C3399  1  0.624767  0.974833  0.876813  1.0
  C  C3400  1  0.316600  0.958100  0.456520  1.0
  C  C3401  1  0.641500  0.683400  0.456520  1.0
  C  C3402  1  0.041900  0.358500  0.456520  1.0
  C  C3403  1  0.983267  0.291433  0.789853  1.0
  C  C3404  1  0.308167  0.016733  0.789853  1.0
  C  C3405  1  0.708567  0.691833  0.789853  1.0
  C  C3406  1  0.649933  0.624767  0.123187  1.0
  C  C3407  1  0.974833  0.350067  0.123187  1.0
  C  C3408  1  0.375233  0.025167  0.123187  1.0
  C  C3409  1  0.654000  0.059700  0.532570  1.0
  C  C3410  1  0.405700  0.346000  0.532570  1.0
  C  C3411  1  0.940300  0.594300  0.532570  1.0
  C  C3412  1  0.987333  0.726367  0.199237  1.0
  C  C3413  1  0.739033  0.012667  0.199237  1.0
  C  C3414  1  0.273633  0.260967  0.199237  1.0
  C  C3415  1  0.320667  0.393033  0.865903  1.0
  C  C3416  1  0.072367  0.679333  0.865903  1.0
  C  C3417  1  0.606967  0.927633  0.865903  1.0
  C  C3418  1  0.346000  0.940300  0.467430  1.0
  C  C3419  1  0.594300  0.654000  0.467430  1.0
  C  C3420  1  0.059700  0.405700  0.467430  1.0
  C  C3421  1  0.012667  0.273633  0.800763  1.0
  C  C3422  1  0.260967  0.987333  0.800763  1.0
  C  C3423  1  0.726367  0.739033  0.800763  1.0
  C  C3424  1  0.679333  0.606967  0.134097  1.0
  C  C3425  1  0.927633  0.320667  0.134097  1.0
  C  C3426  1  0.393033  0.072367  0.134097  1.0
  C  C3427  1  0.741200  0.047700  0.540430  1.0
  C  C3428  1  0.306500  0.258800  0.540430  1.0
  C  C3429  1  0.952300  0.693500  0.540430  1.0
  C  C3430  1  0.074533  0.714367  0.207097  1.0
  C  C3431  1  0.639833  0.925467  0.207097  1.0
  C  C3432  1  0.285633  0.360167  0.207097  1.0
  C  C3433  1  0.407867  0.381033  0.873763  1.0
  C  C3434  1  0.973167  0.592133  0.873763  1.0
  C  C3435  1  0.618967  0.026833  0.873763  1.0
  C  C3436  1  0.258800  0.952300  0.459570  1.0
  C  C3437  1  0.693500  0.741200  0.459570  1.0
  C  C3438  1  0.047700  0.306500  0.459570  1.0
  C  C3439  1  0.925467  0.285633  0.792903  1.0
  C  C3440  1  0.360167  0.074533  0.792903  1.0
  C  C3441  1  0.714367  0.639833  0.792903  1.0
  C  C3442  1  0.592133  0.618967  0.126237  1.0
  C  C3443  1  0.026833  0.407867  0.126237  1.0
  C  C3444  1  0.381033  0.973167  0.126237  1.0
  C  C3445  1  0.644900  0.980100  0.547380  1.0
  C  C3446  1  0.335200  0.355100  0.547380  1.0
  C  C3447  1  0.019900  0.664800  0.547380  1.0
  C  C3448  1  0.978233  0.646767  0.214047  1.0
  C  C3449  1  0.668533  0.021767  0.214047  1.0
  C  C3450  1  0.353233  0.331467  0.214047  1.0
  C  C3451  1  0.311567  0.313433  0.880713  1.0
  C  C3452  1  0.001867  0.688433  0.880713  1.0
  C  C3453  1  0.686567  0.998133  0.880713  1.0
  C  C3454  1  0.355100  0.019900  0.452620  1.0
  C  C3455  1  0.664800  0.644900  0.452620  1.0
  C  C3456  1  0.980100  0.335200  0.452620  1.0
  C  C3457  1  0.021767  0.353233  0.785953  1.0
  C  C3458  1  0.331467  0.978233  0.785953  1.0
  C  C3459  1  0.646767  0.668533  0.785953  1.0
  C  C3460  1  0.688433  0.686567  0.119287  1.0
  C  C3461  1  0.998133  0.311567  0.119287  1.0
  C  C3462  1  0.313433  0.001867  0.119287  1.0
  C  C3463  1  0.691500  0.077500  0.521570  1.0
  C  C3464  1  0.386000  0.308500  0.521570  1.0
  C  C3465  1  0.922500  0.614000  0.521570  1.0
  C  C3466  1  0.024833  0.744167  0.188237  1.0
  C  C3467  1  0.719333  0.975167  0.188237  1.0
  C  C3468  1  0.255833  0.280667  0.188237  1.0
  C  C3469  1  0.358167  0.410833  0.854903  1.0
  C  C3470  1  0.052667  0.641833  0.854903  1.0
  C  C3471  1  0.589167  0.947333  0.854903  1.0
  C  C3472  1  0.308500  0.922500  0.478430  1.0
  C  C3473  1  0.614000  0.691500  0.478430  1.0
  C  C3474  1  0.077500  0.386000  0.478430  1.0
  C  C3475  1  0.975167  0.255833  0.811763  1.0
  C  C3476  1  0.280667  0.024833  0.811763  1.0
  C  C3477  1  0.744167  0.719333  0.811763  1.0
  C  C3478  1  0.641833  0.589167  0.145097  1.0
  C  C3479  1  0.947333  0.358167  0.145097  1.0
  C  C3480  1  0.410833  0.052667  0.145097  1.0
  C  C3481  1  0.595700  0.010300  0.528790  1.0
  C  C3482  1  0.414600  0.404300  0.528790  1.0
  C  C3483  1  0.989700  0.585400  0.528790  1.0
  C  C3484  1  0.929033  0.676967  0.195457  1.0
  C  C3485  1  0.747933  0.070967  0.195457  1.0
  C  C3486  1  0.323033  0.252067  0.195457  1.0
  C  C3487  1  0.262367  0.343633  0.862123  1.0
  C  C3488  1  0.081267  0.737633  0.862123  1.0
  C  C3489  1  0.656367  0.918733  0.862123  1.0
  C  C3490  1  0.404300  0.989700  0.471210  1.0
  C  C3491  1  0.585400  0.595700  0.471210  1.0
  C  C3492  1  0.010300  0.414600  0.471210  1.0
  C  C3493  1  0.070967  0.323033  0.804543  1.0
  C  C3494  1  0.252067  0.929033  0.804543  1.0
  C  C3495  1  0.676967  0.747933  0.804543  1.0
  C  C3496  1  0.737633  0.656367  0.137877  1.0
  C  C3497  1  0.918733  0.262367  0.137877  1.0
  C  C3498  1  0.343633  0.081267  0.137877  1.0
  C  C3499  1  0.717000  0.232900  0.524700  1.0
  C  C3500  1  0.515900  0.283000  0.524700  1.0
  C  C3501  1  0.767100  0.484100  0.524700  1.0
  C  C3502  1  0.050333  0.899567  0.191367  1.0
  C  C3503  1  0.849233  0.949667  0.191367  1.0
  C  C3504  1  0.100433  0.150767  0.191367  1.0
  C  C3505  1  0.383667  0.566233  0.858033  1.0
  C  C3506  1  0.182567  0.616333  0.858033  1.0
  C  C3507  1  0.433767  0.817433  0.858033  1.0
  C  C3508  1  0.283000  0.767100  0.475300  1.0
  C  C3509  1  0.484100  0.717000  0.475300  1.0
  C  C3510  1  0.232900  0.515900  0.475300  1.0
  C  C3511  1  0.949667  0.100433  0.808633  1.0
  C  C3512  1  0.150767  0.050333  0.808633  1.0
  C  C3513  1  0.899567  0.849233  0.808633  1.0
  C  C3514  1  0.616333  0.433767  0.141967  1.0
  C  C3515  1  0.817433  0.383667  0.141967  1.0
  C  C3516  1  0.566233  0.182567  0.141967  1.0
  C  C3517  1  0.664900  0.235100  0.525470  1.0
  C  C3518  1  0.570200  0.335100  0.525470  1.0
  C  C3519  1  0.764900  0.429800  0.525470  1.0
  C  C3520  1  0.998233  0.901767  0.192137  1.0
  C  C3521  1  0.903533  0.001767  0.192137  1.0
  C  C3522  1  0.098233  0.096467  0.192137  1.0
  C  C3523  1  0.331567  0.568433  0.858803  1.0
  C  C3524  1  0.236867  0.668433  0.858803  1.0
  C  C3525  1  0.431567  0.763133  0.858803  1.0
  C  C3526  1  0.335100  0.764900  0.474530  1.0
  C  C3527  1  0.429800  0.664900  0.474530  1.0
  C  C3528  1  0.235100  0.570200  0.474530  1.0
  C  C3529  1  0.001767  0.098233  0.807863  1.0
  C  C3530  1  0.096467  0.998233  0.807863  1.0
  C  C3531  1  0.901767  0.903533  0.807863  1.0
  C  C3532  1  0.668433  0.431567  0.141197  1.0
  C  C3533  1  0.763133  0.331567  0.141197  1.0
  C  C3534  1  0.568433  0.236867  0.141197  1.0
  C  C3535  1  0.640200  0.244800  0.515260  1.0
  C  C3536  1  0.604600  0.359800  0.515260  1.0
  C  C3537  1  0.755200  0.395400  0.515260  1.0
  C  C3538  1  0.973533  0.911467  0.181927  1.0
  C  C3539  1  0.937933  0.026467  0.181927  1.0
  C  C3540  1  0.088533  0.062067  0.181927  1.0
  C  C3541  1  0.306867  0.578133  0.848593  1.0
  C  C3542  1  0.271267  0.693133  0.848593  1.0
  C  C3543  1  0.421867  0.728733  0.848593  1.0
  C  C3544  1  0.359800  0.755200  0.484740  1.0
  C  C3545  1  0.395400  0.640200  0.484740  1.0
  C  C3546  1  0.244800  0.604600  0.484740  1.0
  C  C3547  1  0.026467  0.088533  0.818073  1.0
  C  C3548  1  0.062067  0.973533  0.818073  1.0
  C  C3549  1  0.911467  0.937933  0.818073  1.0
  C  C3550  1  0.693133  0.421867  0.151407  1.0
  C  C3551  1  0.728733  0.306867  0.151407  1.0
  C  C3552  1  0.578133  0.271267  0.151407  1.0
  C  C3553  1  0.668300  0.252800  0.504170  1.0
  C  C3554  1  0.584500  0.331700  0.504170  1.0
  C  C3555  1  0.747200  0.415500  0.504170  1.0
  C  C3556  1  0.001633  0.919467  0.170837  1.0
  C  C3557  1  0.917833  0.998367  0.170837  1.0
  C  C3558  1  0.080533  0.082167  0.170837  1.0
  C  C3559  1  0.334967  0.586133  0.837503  1.0
  C  C3560  1  0.251167  0.665033  0.837503  1.0
  C  C3561  1  0.413867  0.748833  0.837503  1.0
  C  C3562  1  0.331700  0.747200  0.495830  1.0
  C  C3563  1  0.415500  0.668300  0.495830  1.0
  C  C3564  1  0.252800  0.584500  0.495830  1.0
  C  C3565  1  0.998367  0.080533  0.829163  1.0
  C  C3566  1  0.082167  0.001633  0.829163  1.0
  C  C3567  1  0.919467  0.917833  0.829163  1.0
  C  C3568  1  0.665033  0.413867  0.162497  1.0
  C  C3569  1  0.748833  0.334967  0.162497  1.0
  C  C3570  1  0.586133  0.251167  0.162497  1.0
  C  C3571  1  0.720300  0.251300  0.503270  1.0
  C  C3572  1  0.531000  0.279700  0.503270  1.0
  C  C3573  1  0.748700  0.469000  0.503270  1.0
  C  C3574  1  0.053633  0.917967  0.169937  1.0
  C  C3575  1  0.864333  0.946367  0.169937  1.0
  C  C3576  1  0.082033  0.135667  0.169937  1.0
  C  C3577  1  0.386967  0.584633  0.836603  1.0
  C  C3578  1  0.197667  0.613033  0.836603  1.0
  C  C3579  1  0.415367  0.802333  0.836603  1.0
  C  C3580  1  0.279700  0.748700  0.496730  1.0
  C  C3581  1  0.469000  0.720300  0.496730  1.0
  C  C3582  1  0.251300  0.531000  0.496730  1.0
  C  C3583  1  0.946367  0.082033  0.830063  1.0
  C  C3584  1  0.135667  0.053633  0.830063  1.0
  C  C3585  1  0.917967  0.864333  0.830063  1.0
  C  C3586  1  0.613033  0.415367  0.163397  1.0
  C  C3587  1  0.802333  0.386967  0.163397  1.0
  C  C3588  1  0.584633  0.197667  0.163397  1.0
  C  C3589  1  0.744600  0.241600  0.513490  1.0
  C  C3590  1  0.497000  0.255400  0.513490  1.0
  C  C3591  1  0.758400  0.503000  0.513490  1.0
  C  C3592  1  0.077933  0.908267  0.180157  1.0
  C  C3593  1  0.830333  0.922067  0.180157  1.0
  C  C3594  1  0.091733  0.169667  0.180157  1.0
  C  C3595  1  0.411267  0.574933  0.846823  1.0
  C  C3596  1  0.163667  0.588733  0.846823  1.0
  C  C3597  1  0.425067  0.836333  0.846823  1.0
  C  C3598  1  0.255400  0.758400  0.486510  1.0
  C  C3599  1  0.503000  0.744600  0.486510  1.0
  C  C3600  1  0.241600  0.497000  0.486510  1.0
  C  C3601  1  0.922067  0.091733  0.819843  1.0
  C  C3602  1  0.169667  0.077933  0.819843  1.0
  C  C3603  1  0.908267  0.830333  0.819843  1.0
  C  C3604  1  0.588733  0.425067  0.153177  1.0
  C  C3605  1  0.836333  0.411267  0.153177  1.0
  C  C3606  1  0.574933  0.163667  0.153177  1.0
  C  C3607  1  0.595700  0.214500  0.489380  1.0
  C  C3608  1  0.618800  0.404300  0.489380  1.0
  C  C3609  1  0.785500  0.381200  0.489380  1.0
  C  C3610  1  0.929033  0.881167  0.156047  1.0
  C  C3611  1  0.952133  0.070967  0.156047  1.0
  C  C3612  1  0.118833  0.047867  0.156047  1.0
  C  C3613  1  0.262367  0.547833  0.822713  1.0
  C  C3614  1  0.285467  0.737633  0.822713  1.0
  C  C3615  1  0.452167  0.714533  0.822713  1.0
  C  C3616  1  0.404300  0.785500  0.510620  1.0
  C  C3617  1  0.381200  0.595700  0.510620  1.0
  C  C3618  1  0.214500  0.618800  0.510620  1.0
  C  C3619  1  0.070967  0.118833  0.843953  1.0
  C  C3620  1  0.047867  0.929033  0.843953  1.0
  C  C3621  1  0.881167  0.952133  0.843953  1.0
  C  C3622  1  0.737633  0.452167  0.177287  1.0
  C  C3623  1  0.714533  0.262367  0.177287  1.0
  C  C3624  1  0.547833  0.285467  0.177287  1.0
  C  C3625  1  0.568400  0.223300  0.478560  1.0
  C  C3626  1  0.654900  0.431600  0.478560  1.0
  C  C3627  1  0.776700  0.345100  0.478560  1.0
  C  C3628  1  0.901733  0.889967  0.145227  1.0
  C  C3629  1  0.988233  0.098267  0.145227  1.0
  C  C3630  1  0.110033  0.011767  0.145227  1.0
  C  C3631  1  0.235067  0.556633  0.811893  1.0
  C  C3632  1  0.321567  0.764933  0.811893  1.0
  C  C3633  1  0.443367  0.678433  0.811893  1.0
  C  C3634  1  0.431600  0.776700  0.521440  1.0
  C  C3635  1  0.345100  0.568400  0.521440  1.0
  C  C3636  1  0.223300  0.654900  0.521440  1.0
  C  C3637  1  0.098267  0.110033  0.854773  1.0
  C  C3638  1  0.011767  0.901733  0.854773  1.0
  C  C3639  1  0.889967  0.988233  0.854773  1.0
  C  C3640  1  0.764933  0.443367  0.188107  1.0
  C  C3641  1  0.678433  0.235067  0.188107  1.0
  C  C3642  1  0.556633  0.321567  0.188107  1.0
  C  C3643  1  0.518100  0.177800  0.473180  1.0
  C  C3644  1  0.659700  0.481900  0.473180  1.0
  C  C3645  1  0.822200  0.340300  0.473180  1.0
  C  C3646  1  0.851433  0.844467  0.139847  1.0
  C  C3647  1  0.993033  0.148567  0.139847  1.0
  C  C3648  1  0.155533  0.006967  0.139847  1.0
  C  C3649  1  0.184767  0.511133  0.806513  1.0
  C  C3650  1  0.326367  0.815233  0.806513  1.0
  C  C3651  1  0.488867  0.673633  0.806513  1.0
  C  C3652  1  0.481900  0.822200  0.526820  1.0
  C  C3653  1  0.340300  0.518100  0.526820  1.0
  C  C3654  1  0.177800  0.659700  0.526820  1.0
  C  C3655  1  0.148567  0.155533  0.860153  1.0
  C  C3656  1  0.006967  0.851433  0.860153  1.0
  C  C3657  1  0.844467  0.993033  0.860153  1.0
  C  C3658  1  0.815233  0.488867  0.193487  1.0
  C  C3659  1  0.673633  0.184767  0.193487  1.0
  C  C3660  1  0.511133  0.326367  0.193487  1.0
  C  C3661  1  0.494300  0.191900  0.463430  1.0
  C  C3662  1  0.697600  0.505700  0.463430  1.0
  C  C3663  1  0.808100  0.302400  0.463430  1.0
  C  C3664  1  0.827633  0.858567  0.130097  1.0
  C  C3665  1  0.030933  0.172367  0.130097  1.0
  C  C3666  1  0.141433  0.969067  0.130097  1.0
  C  C3667  1  0.160967  0.525233  0.796763  1.0
  C  C3668  1  0.364267  0.839033  0.796763  1.0
  C  C3669  1  0.474767  0.635733  0.796763  1.0
  C  C3670  1  0.505700  0.808100  0.536570  1.0
  C  C3671  1  0.302400  0.494300  0.536570  1.0
  C  C3672  1  0.191900  0.697600  0.536570  1.0
  C  C3673  1  0.172367  0.141433  0.869903  1.0
  C  C3674  1  0.969067  0.827633  0.869903  1.0
  C  C3675  1  0.858567  0.030933  0.869903  1.0
  C  C3676  1  0.839033  0.474767  0.203237  1.0
  C  C3677  1  0.635733  0.160967  0.203237  1.0
  C  C3678  1  0.525233  0.364267  0.203237  1.0
  C  C3679  1  0.521600  0.248900  0.459150  1.0
  C  C3680  1  0.727300  0.478400  0.459150  1.0
  C  C3681  1  0.751100  0.272700  0.459150  1.0
  C  C3682  1  0.854933  0.915567  0.125817  1.0
  C  C3683  1  0.060633  0.145067  0.125817  1.0
  C  C3684  1  0.084433  0.939367  0.125817  1.0
  C  C3685  1  0.188267  0.582233  0.792483  1.0
  C  C3686  1  0.393967  0.811733  0.792483  1.0
  C  C3687  1  0.417767  0.606033  0.792483  1.0
  C  C3688  1  0.478400  0.751100  0.540850  1.0
  C  C3689  1  0.272700  0.521600  0.540850  1.0
  C  C3690  1  0.248900  0.727300  0.540850  1.0
  C  C3691  1  0.145067  0.084433  0.874183  1.0
  C  C3692  1  0.939367  0.854933  0.874183  1.0
  C  C3693  1  0.915567  0.060633  0.874183  1.0
  C  C3694  1  0.811733  0.417767  0.207517  1.0
  C  C3695  1  0.606033  0.188267  0.207517  1.0
  C  C3696  1  0.582233  0.393967  0.207517  1.0
  C  C3697  1  0.571900  0.291400  0.464990  1.0
  C  C3698  1  0.719500  0.428100  0.464990  1.0
  C  C3699  1  0.708600  0.280500  0.464990  1.0
  C  C3700  1  0.905233  0.958067  0.131657  1.0
  C  C3701  1  0.052833  0.094767  0.131657  1.0
  C  C3702  1  0.041933  0.947167  0.131657  1.0
  C  C3703  1  0.238567  0.624733  0.798323  1.0
  C  C3704  1  0.386167  0.761433  0.798323  1.0
  C  C3705  1  0.375267  0.613833  0.798323  1.0
  C  C3706  1  0.428100  0.708600  0.535010  1.0
  C  C3707  1  0.280500  0.571900  0.535010  1.0
  C  C3708  1  0.291400  0.719500  0.535010  1.0
  C  C3709  1  0.094767  0.041933  0.868343  1.0
  C  C3710  1  0.947167  0.905233  0.868343  1.0
  C  C3711  1  0.958067  0.052833  0.868343  1.0
  C  C3712  1  0.761433  0.375267  0.201677  1.0
  C  C3713  1  0.613833  0.238567  0.201677  1.0
  C  C3714  1  0.624733  0.386167  0.201677  1.0
  N  N3715  1  0.489500  0.140600  0.687600  1
  N  N3716  1  0.651100  0.510500  0.687600  1
  N  N3717  1  0.859400  0.348900  0.687600  1
  N  N3718  1  0.822833  0.807267  0.354267  1
  N  N3719  1  0.984433  0.177167  0.354267  1
  N  N3720  1  0.192733  0.015567  0.354267  1
  N  N3721  1  0.156167  0.473933  0.020933  1
  N  N3722  1  0.317767  0.843833  0.020933  1
  N  N3723  1  0.526067  0.682233  0.020933  1
  N  N3724  1  0.510500  0.859400  0.312400  1
  N  N3725  1  0.348900  0.489500  0.312400  1
  N  N3726  1  0.140600  0.651100  0.312400  1
  N  N3727  1  0.177167  0.192733  0.645733  1
  N  N3728  1  0.015567  0.822833  0.645733  1
  N  N3729  1  0.807267  0.984433  0.645733  1
  N  N3730  1  0.843833  0.526067  0.979067  1
  N  N3731  1  0.682233  0.156167  0.979067  1
  N  N3732  1  0.473933  0.317767  0.979067  1
  N  N3733  1  0.586600  0.838500  0.612930  1.0
  N  N3734  1  0.251900  0.413400  0.612930  1.0
  N  N3735  1  0.161500  0.748100  0.612930  1.0
  N  N3736  1  0.919933  0.505167  0.279597  1.0
  N  N3737  1  0.585233  0.080067  0.279597  1.0
  N  N3738  1  0.494833  0.414767  0.279597  1.0
  N  N3739  1  0.253267  0.171833  0.946263  1.0
  N  N3740  1  0.918567  0.746733  0.946263  1.0
  N  N3741  1  0.828167  0.081433  0.946263  1.0
  N  N3742  1  0.413400  0.161500  0.387070  1.0
  N  N3743  1  0.748100  0.586600  0.387070  1.0
  N  N3744  1  0.838500  0.251900  0.387070  1.0
  N  N3745  1  0.080067  0.494833  0.720403  1.0
  N  N3746  1  0.414767  0.919933  0.720403  1.0
  N  N3747  1  0.505167  0.585233  0.720403  1.0
  N  N3748  1  0.746733  0.828167  0.053737  1.0
  N  N3749  1  0.081433  0.253267  0.053737  1.0
  N  N3750  1  0.171833  0.918567  0.053737  1.0
  N  N3751  1  0.573200  0.927100  0.617710  1.0
  N  N3752  1  0.353900  0.426800  0.617710  1.0
  N  N3753  1  0.072900  0.646100  0.617710  1.0
  N  N3754  1  0.906533  0.593767  0.284377  1.0
  N  N3755  1  0.687233  0.093467  0.284377  1.0
  N  N3756  1  0.406233  0.312767  0.284377  1.0
  N  N3757  1  0.239867  0.260433  0.951043  1.0
  N  N3758  1  0.020567  0.760133  0.951043  1.0
  N  N3759  1  0.739567  0.979433  0.951043  1.0
  N  N3760  1  0.426800  0.072900  0.382290  1.0
  N  N3761  1  0.646100  0.573200  0.382290  1.0
  N  N3762  1  0.927100  0.353900  0.382290  1.0
  N  N3763  1  0.093467  0.406233  0.715623  1.0
  N  N3764  1  0.312767  0.906533  0.715623  1.0
  N  N3765  1  0.593767  0.687233  0.715623  1.0
  N  N3766  1  0.760133  0.739567  0.048957  1.0
  N  N3767  1  0.979433  0.239867  0.048957  1.0
  N  N3768  1  0.260433  0.020567  0.048957  1.0
  N  N3769  1  0.299100  0.307700  0.628840  1.0
  N  N3770  1  0.008600  0.700900  0.628840  1.0
  N  N3771  1  0.692300  0.991400  0.628840  1.0
  N  N3772  1  0.632433  0.974367  0.295507  1.0
  N  N3773  1  0.341933  0.367567  0.295507  1.0
  N  N3774  1  0.025633  0.658067  0.295507  1.0
  N  N3775  1  0.965767  0.641033  0.962173  1.0
  N  N3776  1  0.675267  0.034233  0.962173  1.0
  N  N3777  1  0.358967  0.324733  0.962173  1.0
  N  N3778  1  0.700900  0.692300  0.371160  1.0
  N  N3779  1  0.991400  0.299100  0.371160  1.0
  N  N3780  1  0.307700  0.008600  0.371160  1.0
  N  N3781  1  0.367567  0.025633  0.704493  1.0
  N  N3782  1  0.658067  0.632433  0.704493  1.0
  N  N3783  1  0.974367  0.341933  0.704493  1.0
  N  N3784  1  0.034233  0.358967  0.037827  1.0
  N  N3785  1  0.324733  0.965767  0.037827  1.0
  N  N3786  1  0.641033  0.675267  0.037827  1.0
  N  N3787  1  0.270000  0.380400  0.636540  1.0
  N  N3788  1  0.110400  0.730000  0.636540  1.0
  N  N3789  1  0.619600  0.889600  0.636540  1.0
  N  N3790  1  0.603333  0.047067  0.303207  1.0
  N  N3791  1  0.443733  0.396667  0.303207  1.0
  N  N3792  1  0.952933  0.556267  0.303207  1.0
  N  N3793  1  0.936667  0.713733  0.969873  1.0
  N  N3794  1  0.777067  0.063333  0.969873  1.0
  N  N3795  1  0.286267  0.222933  0.969873  1.0
  N  N3796  1  0.730000  0.619600  0.363460  1.0
  N  N3797  1  0.889600  0.270000  0.363460  1.0
  N  N3798  1  0.380400  0.110400  0.363460  1.0
  N  N3799  1  0.396667  0.952933  0.696793  1.0
  N  N3800  1  0.556267  0.603333  0.696793  1.0
  N  N3801  1  0.047067  0.443733  0.696793  1.0
  N  N3802  1  0.063333  0.286267  0.030127  1.0
  N  N3803  1  0.222933  0.936667  0.030127  1.0
  N  N3804  1  0.713733  0.777067  0.030127  1.0
  N  N3805  1  0.419500  0.985400  0.645700  1.0
  N  N3806  1  0.565900  0.580500  0.645700  1.0
  N  N3807  1  0.014600  0.434100  0.645700  1.0
  N  N3808  1  0.752833  0.652067  0.312367  1.0
  N  N3809  1  0.899233  0.247167  0.312367  1.0
  N  N3810  1  0.347933  0.100767  0.312367  1.0
  N  N3811  1  0.086167  0.318733  0.979033  1.0
  N  N3812  1  0.232567  0.913833  0.979033  1.0
  N  N3813  1  0.681267  0.767433  0.979033  1.0
  N  N3814  1  0.580500  0.014600  0.354300  1.0
  N  N3815  1  0.434100  0.419500  0.354300  1.0
  N  N3816  1  0.985400  0.565900  0.354300  1.0
  N  N3817  1  0.247167  0.347933  0.687633  1.0
  N  N3818  1  0.100767  0.752833  0.687633  1.0
  N  N3819  1  0.652067  0.899233  0.687633  1.0
  N  N3820  1  0.913833  0.681267  0.020967  1.0
  N  N3821  1  0.767433  0.086167  0.020967  1.0
  N  N3822  1  0.318733  0.232567  0.020967  1.0
  N  N3823  1  0.291400  0.945100  0.618120  1.0
  N  N3824  1  0.653700  0.708600  0.618120  1.0
  N  N3825  1  0.054900  0.346300  0.618120  1.0
  N  N3826  1  0.624733  0.611767  0.284787  1.0
  N  N3827  1  0.987033  0.375267  0.284787  1.0
  N  N3828  1  0.388233  0.012967  0.284787  1.0
  N  N3829  1  0.958067  0.278433  0.951453  1.0
  N  N3830  1  0.320367  0.041933  0.951453  1.0
  N  N3831  1  0.721567  0.679633  0.951453  1.0
  N  N3832  1  0.708600  0.054900  0.381880  1.0
  N  N3833  1  0.346300  0.291400  0.381880  1.0
  N  N3834  1  0.945100  0.653700  0.381880  1.0
  N  N3835  1  0.375267  0.388233  0.715213  1.0
  N  N3836  1  0.012967  0.624733  0.715213  1.0
  N  N3837  1  0.611767  0.987033  0.715213  1.0
  N  N3838  1  0.041933  0.721567  0.048547  1.0
  N  N3839  1  0.679633  0.958067  0.048547  1.0
  N  N3840  1  0.278433  0.320367  0.048547  1.0
  N  N3841  1  0.385200  0.094400  0.658260  1.0
  N  N3842  1  0.709200  0.614800  0.658260  1.0
  N  N3843  1  0.905600  0.290800  0.658260  1.0
  N  N3844  1  0.718533  0.761067  0.324927  1.0
  N  N3845  1  0.042533  0.281467  0.324927  1.0
  N  N3846  1  0.238933  0.957467  0.324927  1.0
  N  N3847  1  0.051867  0.427733  0.991593  1.0
  N  N3848  1  0.375867  0.948133  0.991593  1.0
  N  N3849  1  0.572267  0.624133  0.991593  1.0
  N  N3850  1  0.614800  0.905600  0.341740  1.0
  N  N3851  1  0.290800  0.385200  0.341740  1.0
  N  N3852  1  0.094400  0.709200  0.341740  1.0
  N  N3853  1  0.281467  0.238933  0.675073  1.0
  N  N3854  1  0.957467  0.718533  0.675073  1.0
  N  N3855  1  0.761067  0.042533  0.675073  1.0
  N  N3856  1  0.948133  0.572267  0.008407  1.0
  N  N3857  1  0.624133  0.051867  0.008407  1.0
  N  N3858  1  0.427733  0.375867  0.008407  1.0
  N  N3859  1  0.254800  0.049600  0.630200  1.0
  N  N3860  1  0.794800  0.745200  0.630200  1.0
  N  N3861  1  0.950400  0.205200  0.630200  1.0
  N  N3862  1  0.588133  0.716267  0.296867  1.0
  N  N3863  1  0.128133  0.411867  0.296867  1.0
  N  N3864  1  0.283733  0.871867  0.296867  1.0
  N  N3865  1  0.921467  0.382933  0.963533  1.0
  N  N3866  1  0.461467  0.078533  0.963533  1.0
  N  N3867  1  0.617067  0.538533  0.963533  1.0
  N  N3868  1  0.745200  0.950400  0.369800  1.0
  N  N3869  1  0.205200  0.254800  0.369800  1.0
  N  N3870  1  0.049600  0.794800  0.369800  1.0
  N  N3871  1  0.411867  0.283733  0.703133  1.0
  N  N3872  1  0.871867  0.588133  0.703133  1.0
  N  N3873  1  0.716267  0.128133  0.703133  1.0
  N  N3874  1  0.078533  0.617067  0.036467  1.0
  N  N3875  1  0.538533  0.921467  0.036467  1.0
  N  N3876  1  0.382933  0.461467  0.036467  1.0
  N  N3877  1  0.707300  0.899600  0.620570  1.0
  N  N3878  1  0.192300  0.292700  0.620570  1.0
  N  N3879  1  0.100400  0.807700  0.620570  1.0
  N  N3880  1  0.040633  0.566267  0.287237  1.0
  N  N3881  1  0.525633  0.959367  0.287237  1.0
  N  N3882  1  0.433733  0.474367  0.287237  1.0
  N  N3883  1  0.373967  0.232933  0.953903  1.0
  N  N3884  1  0.858967  0.626033  0.953903  1.0
  N  N3885  1  0.767067  0.141033  0.953903  1.0
  N  N3886  1  0.292700  0.100400  0.379430  1.0
  N  N3887  1  0.807700  0.707300  0.379430  1.0
  N  N3888  1  0.899600  0.192300  0.379430  1.0
  N  N3889  1  0.959367  0.433733  0.712763  1.0
  N  N3890  1  0.474367  0.040633  0.712763  1.0
  N  N3891  1  0.566267  0.525633  0.712763  1.0
  N  N3892  1  0.626033  0.767067  0.046097  1.0
  N  N3893  1  0.141033  0.373967  0.046097  1.0
  N  N3894  1  0.232933  0.858967  0.046097  1.0
  N  N3895  1  0.675100  0.947300  0.604010  1.0
  N  N3896  1  0.272200  0.324900  0.604010  1.0
  N  N3897  1  0.052700  0.727800  0.604010  1.0
  N  N3898  1  0.008433  0.613967  0.270677  1.0
  N  N3899  1  0.605533  0.991567  0.270677  1.0
  N  N3900  1  0.386033  0.394467  0.270677  1.0
  N  N3901  1  0.341767  0.280633  0.937343  1.0
  N  N3902  1  0.938867  0.658233  0.937343  1.0
  N  N3903  1  0.719367  0.061133  0.937343  1.0
  N  N3904  1  0.324900  0.052700  0.395990  1.0
  N  N3905  1  0.727800  0.675100  0.395990  1.0
  N  N3906  1  0.947300  0.272200  0.395990  1.0
  N  N3907  1  0.991567  0.386033  0.729323  1.0
  N  N3908  1  0.394467  0.008433  0.729323  1.0
  N  N3909  1  0.613967  0.605533  0.729323  1.0
  N  N3910  1  0.658233  0.719367  0.062657  1.0
  N  N3911  1  0.061133  0.341767  0.062657  1.0
  N  N3912  1  0.280633  0.938867  0.062657  1.0
  N  N3913  1  0.642600  0.260700  0.493540  1.0
  N  N3914  1  0.618100  0.357400  0.493540  1.0
  N  N3915  1  0.739300  0.381900  0.493540  1.0
  N  N3916  1  0.975933  0.927367  0.160207  1.0
  N  N3917  1  0.951433  0.024067  0.160207  1.0
  N  N3918  1  0.072633  0.048567  0.160207  1.0
  N  N3919  1  0.309267  0.594033  0.826873  1.0
  N  N3920  1  0.284767  0.690733  0.826873  1.0
  N  N3921  1  0.405967  0.715233  0.826873  1.0
  N  N3922  1  0.357400  0.739300  0.506460  1.0
  N  N3923  1  0.381900  0.642600  0.506460  1.0
  N  N3924  1  0.260700  0.618100  0.506460  1.0
  N  N3925  1  0.024067  0.072633  0.839793  1.0
  N  N3926  1  0.048567  0.975933  0.839793  1.0
  N  N3927  1  0.927367  0.951433  0.839793  1.0
  N  N3928  1  0.690733  0.405967  0.173127  1.0
  N  N3929  1  0.715233  0.309267  0.173127  1.0
  N  N3930  1  0.594033  0.284767  0.173127  1.0
  N  N3931  1  0.595800  0.279800  0.474630  1.0
  N  N3932  1  0.684000  0.404200  0.474630  1.0
  N  N3933  1  0.720200  0.316000  0.474630  1.0
  N  N3934  1  0.929133  0.946467  0.141297  1.0
  N  N3935  1  0.017333  0.070867  0.141297  1.0
  N  N3936  1  0.053533  0.982667  0.141297  1.0
  N  N3937  1  0.262467  0.613133  0.807963  1.0
  N  N3938  1  0.350667  0.737533  0.807963  1.0
  N  N3939  1  0.386867  0.649333  0.807963  1.0
  N  N3940  1  0.404200  0.720200  0.525370  1.0
  N  N3941  1  0.316000  0.595800  0.525370  1.0
  N  N3942  1  0.279800  0.684000  0.525370  1.0
  N  N3943  1  0.070867  0.053533  0.858703  1.0
  N  N3944  1  0.982667  0.929133  0.858703  1.0
  N  N3945  1  0.946467  0.017333  0.858703  1.0
  N  N3946  1  0.737533  0.386867  0.192037  1.0
  N  N3947  1  0.649333  0.262467  0.192037  1.0
  N  N3948  1  0.613133  0.350667  0.192037  1.0
  N  N3949  1  0.785900  0.055000  0.537200  1.0
  N  N3950  1  0.269100  0.214100  0.537200  1.0
  N  N3951  1  0.945000  0.730900  0.537200  1.0
  N  N3952  1  0.119233  0.721667  0.203867  1.0
  N  N3953  1  0.602433  0.880767  0.203867  1.0
  N  N3954  1  0.278333  0.397567  0.203867  1.0
  N  N3955  1  0.452567  0.388333  0.870533  1.0
  N  N3956  1  0.935767  0.547433  0.870533  1.0
  N  N3957  1  0.611667  0.064233  0.870533  1.0
  N  N3958  1  0.214100  0.945000  0.462800  1.0
  N  N3959  1  0.730900  0.785900  0.462800  1.0
  N  N3960  1  0.055000  0.269100  0.462800  1.0
  N  N3961  1  0.880767  0.278333  0.796133  1.0
  N  N3962  1  0.397567  0.119233  0.796133  1.0
  N  N3963  1  0.721667  0.602433  0.796133  1.0
  N  N3964  1  0.547433  0.611667  0.129467  1.0
  N  N3965  1  0.064233  0.452567  0.129467  1.0
  N  N3966  1  0.388333  0.935767  0.129467  1.0
  N  N3967  1  0.613100  0.934500  0.551240  1.0
  N  N3968  1  0.321400  0.386900  0.551240  1.0
  N  N3969  1  0.065500  0.678600  0.551240  1.0
  N  N3970  1  0.946433  0.601167  0.217907  1.0
  N  N3971  1  0.654733  0.053567  0.217907  1.0
  N  N3972  1  0.398833  0.345267  0.217907  1.0
  N  N3973  1  0.279767  0.267833  0.884573  1.0
  N  N3974  1  0.988067  0.720233  0.884573  1.0
  N  N3975  1  0.732167  0.011933  0.884573  1.0
  N  N3976  1  0.386900  0.065500  0.448760  1.0
  N  N3977  1  0.678600  0.613100  0.448760  1.0
  N  N3978  1  0.934500  0.321400  0.448760  1.0
  N  N3979  1  0.053567  0.398833  0.782093  1.0
  N  N3980  1  0.345267  0.946433  0.782093  1.0
  N  N3981  1  0.601167  0.654733  0.782093  1.0
  N  N3982  1  0.720233  0.732167  0.115427  1.0
  N  N3983  1  0.011933  0.279767  0.115427  1.0
  N  N3984  1  0.267833  0.988067  0.115427  1.0
  N  N3985  1  0.721400  0.098100  0.513340  1.0
  N  N3986  1  0.376700  0.278600  0.513340  1.0
  N  N3987  1  0.901900  0.623300  0.513340  1.0
  N  N3988  1  0.054733  0.764767  0.180007  1.0
  N  N3989  1  0.710033  0.945267  0.180007  1.0
  N  N3990  1  0.235233  0.289967  0.180007  1.0
  N  N3991  1  0.388067  0.431433  0.846673  1.0
  N  N3992  1  0.043367  0.611933  0.846673  1.0
  N  N3993  1  0.568567  0.956633  0.846673  1.0
  N  N3994  1  0.278600  0.901900  0.486660  1.0
  N  N3995  1  0.623300  0.721400  0.486660  1.0
  N  N3996  1  0.098100  0.376700  0.486660  1.0
  N  N3997  1  0.945267  0.235233  0.819993  1.0
  N  N3998  1  0.289967  0.054733  0.819993  1.0
  N  N3999  1  0.764767  0.710033  0.819993  1.0
  N  N4000  1  0.611933  0.568567  0.153327  1.0
  N  N4001  1  0.956633  0.388067  0.153327  1.0
  N  N4002  1  0.431433  0.043367  0.153327  1.0
  N  N4003  1  0.547400  0.974400  0.527340  1.0
  N  N4004  1  0.427000  0.452600  0.527340  1.0
  N  N4005  1  0.025600  0.573000  0.527340  1.0
  N  N4006  1  0.880733  0.641067  0.194007  1.0
  N  N4007  1  0.760333  0.119267  0.194007  1.0
  N  N4008  1  0.358933  0.239667  0.194007  1.0
  N  N4009  1  0.214067  0.307733  0.860673  1.0
  N  N4010  1  0.093667  0.785933  0.860673  1.0
  N  N4011  1  0.692267  0.906333  0.860673  1.0
  N  N4012  1  0.452600  0.025600  0.472660  1.0
  N  N4013  1  0.573000  0.547400  0.472660  1.0
  N  N4014  1  0.974400  0.427000  0.472660  1.0
  N  N4015  1  0.119267  0.358933  0.805993  1.0
  N  N4016  1  0.239667  0.880733  0.805993  1.0
  N  N4017  1  0.641067  0.760333  0.805993  1.0
  N  N4018  1  0.785933  0.692267  0.139327  1.0
  N  N4019  1  0.906333  0.214067  0.139327  1.0
  N  N4020  1  0.307733  0.093667  0.139327  1.0
  Cl  Cl4021  1  0.241100  0.934300  0.658090  1
  Cl  Cl4022  1  0.693200  0.758900  0.658090  1
  Cl  Cl4023  1  0.065700  0.306800  0.658090  1
  Cl  Cl4024  1  0.574433  0.600967  0.324757  1
  Cl  Cl4025  1  0.026533  0.425567  0.324757  1
  Cl  Cl4026  1  0.399033  0.973467  0.324757  1
  Cl  Cl4027  1  0.907767  0.267633  0.991423  1
  Cl  Cl4028  1  0.359867  0.092233  0.991423  1
  Cl  Cl4029  1  0.732367  0.640133  0.991423  1
  Cl  Cl4030  1  0.758900  0.065700  0.341910  1
  Cl  Cl4031  1  0.306800  0.241100  0.341910  1
  Cl  Cl4032  1  0.934300  0.693200  0.341910  1
  Cl  Cl4033  1  0.425567  0.399033  0.675243  1
  Cl  Cl4034  1  0.973467  0.574433  0.675243  1
  Cl  Cl4035  1  0.600967  0.026533  0.675243  1
  Cl  Cl4036  1  0.092233  0.732367  0.008577  1
  Cl  Cl4037  1  0.640133  0.907767  0.008577  1
  Cl  Cl4038  1  0.267633  0.359867  0.008577  1
  Cl  Cl4039  1  0.497300  0.583400  0.594640  1
  Cl  Cl4040  1  0.086100  0.502700  0.594640  1
  Cl  Cl4041  1  0.416600  0.913900  0.594640  1
  Cl  Cl4042  1  0.830633  0.250067  0.261307  1
  Cl  Cl4043  1  0.419433  0.169367  0.261307  1
  Cl  Cl4044  1  0.749933  0.580567  0.261307  1
  Cl  Cl4045  1  0.163967  0.916733  0.927973  1
  Cl  Cl4046  1  0.752767  0.836033  0.927973  1
  Cl  Cl4047  1  0.083267  0.247233  0.927973  1
  Cl  Cl4048  1  0.502700  0.416600  0.405360  1
  Cl  Cl4049  1  0.913900  0.497300  0.405360  1
  Cl  Cl4050  1  0.583400  0.086100  0.405360  1
  Cl  Cl4051  1  0.169367  0.749933  0.738693  1
  Cl  Cl4052  1  0.580567  0.830633  0.738693  1
  Cl  Cl4053  1  0.250067  0.419433  0.738693  1
  Cl  Cl4054  1  0.836033  0.083267  0.072027  1
  Cl  Cl4055  1  0.247233  0.163967  0.072027  1
  Cl  Cl4056  1  0.916733  0.752767  0.072027  1
  Cl  Cl4057  1  0.816000  0.051100  0.572610  1
  Cl  Cl4058  1  0.235100  0.184000  0.572610  1
  Cl  Cl4059  1  0.948900  0.764900  0.572610  1
  Cl  Cl4060  1  0.149333  0.717767  0.239277  1
  Cl  Cl4061  1  0.568433  0.850667  0.239277  1
  Cl  Cl4062  1  0.282233  0.431567  0.239277  1
  Cl  Cl4063  1  0.482667  0.384433  0.905943  1
  Cl  Cl4064  1  0.901767  0.517333  0.905943  1
  Cl  Cl4065  1  0.615567  0.098233  0.905943  1
  Cl  Cl4066  1  0.184000  0.948900  0.427390  1
  Cl  Cl4067  1  0.764900  0.816000  0.427390  1
  Cl  Cl4068  1  0.051100  0.235100  0.427390  1
  Cl  Cl4069  1  0.850667  0.282233  0.760723  1
  Cl  Cl4070  1  0.431567  0.149333  0.760723  1
  Cl  Cl4071  1  0.717767  0.568433  0.760723  1
  Cl  Cl4072  1  0.517333  0.615567  0.094057  1
  Cl  Cl4073  1  0.098233  0.482667  0.094057  1
  Cl  Cl4074  1  0.384433  0.901767  0.094057  1
  O  O4075  1  0.283900  0.958800  0.650370  1
  O  O4076  1  0.674900  0.716100  0.650370  1
  O  O4077  1  0.041200  0.325100  0.650370  1
  O  O4078  1  0.617233  0.625467  0.317037  1
  O  O4079  1  0.008233  0.382767  0.317037  1
  O  O4080  1  0.374533  0.991767  0.317037  1
  O  O4081  1  0.950567  0.292133  0.983703  1
  O  O4082  1  0.341567  0.049433  0.983703  1
  O  O4083  1  0.707867  0.658433  0.983703  1
  O  O4084  1  0.716100  0.041200  0.349630  1
  O  O4085  1  0.325100  0.283900  0.349630  1
  O  O4086  1  0.958800  0.674900  0.349630  1
  O  O4087  1  0.382767  0.374533  0.682963  1
  O  O4088  1  0.991767  0.617233  0.682963  1
  O  O4089  1  0.625467  0.008233  0.682963  1
  O  O4090  1  0.049433  0.707867  0.016297  1
  O  O4091  1  0.658433  0.950567  0.016297  1
  O  O4092  1  0.292133  0.341567  0.016297  1
  O  O4093  1  0.206200  0.875900  0.656530  1
  O  O4094  1  0.669700  0.793800  0.656530  1
  O  O4095  1  0.124100  0.330300  0.656530  1
  O  O4096  1  0.539533  0.542567  0.323197  1
  O  O4097  1  0.003033  0.460467  0.323197  1
  O  O4098  1  0.457433  0.996967  0.323197  1
  O  O4099  1  0.872867  0.209233  0.989863  1
  O  O4100  1  0.336367  0.127133  0.989863  1
  O  O4101  1  0.790767  0.663633  0.989863  1
  O  O4102  1  0.793800  0.124100  0.343470  1
  O  O4103  1  0.330300  0.206200  0.343470  1
  O  O4104  1  0.875900  0.669700  0.343470  1
  O  O4105  1  0.460467  0.457433  0.676803  1
  O  O4106  1  0.996967  0.539533  0.676803  1
  O  O4107  1  0.542567  0.003033  0.676803  1
  O  O4108  1  0.127133  0.790767  0.010137  1
  O  O4109  1  0.663633  0.872867  0.010137  1
  O  O4110  1  0.209233  0.336367  0.010137  1
  O  O4111  1  0.258400  0.939400  0.669640  1
  O  O4112  1  0.681000  0.741600  0.669640  1
  O  O4113  1  0.060600  0.319000  0.669640  1
  O  O4114  1  0.591733  0.606067  0.336307  1
  O  O4115  1  0.014333  0.408267  0.336307  1
  O  O4116  1  0.393933  0.985667  0.336307  1
  O  O4117  1  0.925067  0.272733  0.002973  1
  O  O4118  1  0.347667  0.074933  0.002973  1
  O  O4119  1  0.727267  0.652333  0.002973  1
  O  O4120  1  0.741600  0.060600  0.330360  1
  O  O4121  1  0.319000  0.258400  0.330360  1
  O  O4122  1  0.939400  0.681000  0.330360  1
  O  O4123  1  0.408267  0.393933  0.663693  1
  O  O4124  1  0.985667  0.591733  0.663693  1
  O  O4125  1  0.606067  0.014333  0.663693  1
  O  O4126  1  0.074933  0.727267  0.997027  1
  O  O4127  1  0.652333  0.925067  0.997027  1
  O  O4128  1  0.272733  0.347667  0.997027  1
  O  O4129  1  0.207300  0.962300  0.656800  1
  O  O4130  1  0.755000  0.792700  0.656800  1
  O  O4131  1  0.037700  0.245000  0.656800  1
  O  O4132  1  0.540633  0.628967  0.323467  1
  O  O4133  1  0.088333  0.459367  0.323467  1
  O  O4134  1  0.371033  0.911667  0.323467  1
  O  O4135  1  0.873967  0.295633  0.990133  1
  O  O4136  1  0.421667  0.126033  0.990133  1
  O  O4137  1  0.704367  0.578333  0.990133  1
  O  O4138  1  0.792700  0.037700  0.343200  1
  O  O4139  1  0.245000  0.207300  0.343200  1
  O  O4140  1  0.962300  0.755000  0.343200  1
  O  O4141  1  0.459367  0.371033  0.676533  1
  O  O4142  1  0.911667  0.540633  0.676533  1
  O  O4143  1  0.628967  0.088333  0.676533  1
  O  O4144  1  0.126033  0.704367  0.009867  1
  O  O4145  1  0.578333  0.873967  0.009867  1
  O  O4146  1  0.295633  0.421667  0.009867  1
  O  O4147  1  0.439100  0.544500  0.592000  1
  O  O4148  1  0.105400  0.560900  0.592000  1
  O  O4149  1  0.455500  0.894600  0.592000  1
  O  O4150  1  0.772433  0.211167  0.258667  1
  O  O4151  1  0.438733  0.227567  0.258667  1
  O  O4152  1  0.788833  0.561267  0.258667  1
  O  O4153  1  0.105767  0.877833  0.925333  1
  O  O4154  1  0.772067  0.894233  0.925333  1
  O  O4155  1  0.122167  0.227933  0.925333  1
  O  O4156  1  0.560900  0.455500  0.408000  1
  O  O4157  1  0.894600  0.439100  0.408000  1
  O  O4158  1  0.544500  0.105400  0.408000  1
  O  O4159  1  0.227567  0.788833  0.741333  1
  O  O4160  1  0.561267  0.772433  0.741333  1
  O  O4161  1  0.211167  0.438733  0.741333  1
  O  O4162  1  0.894233  0.122167  0.074667  1
  O  O4163  1  0.227933  0.105767  0.074667  1
  O  O4164  1  0.877833  0.772067  0.074667  1
  O  O4165  1  0.528500  0.555300  0.592200  1
  O  O4166  1  0.026800  0.471500  0.592200  1
  O  O4167  1  0.444700  0.973200  0.592200  1
  O  O4168  1  0.861833  0.221967  0.258867  1
  O  O4169  1  0.360133  0.138167  0.258867  1
  O  O4170  1  0.778033  0.639867  0.258867  1
  O  O4171  1  0.195167  0.888633  0.925533  1
  O  O4172  1  0.693467  0.804833  0.925533  1
  O  O4173  1  0.111367  0.306533  0.925533  1
  O  O4174  1  0.471500  0.444700  0.407800  1
  O  O4175  1  0.973200  0.528500  0.407800  1
  O  O4176  1  0.555300  0.026800  0.407800  1
  O  O4177  1  0.138167  0.778033  0.741133  1
  O  O4178  1  0.639867  0.861833  0.741133  1
  O  O4179  1  0.221967  0.360133  0.741133  1
  O  O4180  1  0.804833  0.111367  0.074467  1
  O  O4181  1  0.306533  0.195167  0.074467  1
  O  O4182  1  0.888633  0.693467  0.074467  1
  O  O4183  1  0.500400  0.595700  0.606650  1
  O  O4184  1  0.095300  0.499600  0.606650  1
  O  O4185  1  0.404300  0.904700  0.606650  1
  O  O4186  1  0.833733  0.262367  0.273317  1
  O  O4187  1  0.428633  0.166267  0.273317  1
  O  O4188  1  0.737633  0.571367  0.273317  1
  O  O4189  1  0.167067  0.929033  0.939983  1
  O  O4190  1  0.761967  0.832933  0.939983  1
  O  O4191  1  0.070967  0.238033  0.939983  1
  O  O4192  1  0.499600  0.404300  0.393350  1
  O  O4193  1  0.904700  0.500400  0.393350  1
  O  O4194  1  0.595700  0.095300  0.393350  1
  O  O4195  1  0.166267  0.737633  0.726683  1
  O  O4196  1  0.571367  0.833733  0.726683  1
  O  O4197  1  0.262367  0.428633  0.726683  1
  O  O4198  1  0.832933  0.070967  0.060017  1
  O  O4199  1  0.238033  0.167067  0.060017  1
  O  O4200  1  0.929033  0.761967  0.060017  1
  O  O4201  1  0.515500  0.631500  0.587400  1
  O  O4202  1  0.116000  0.484500  0.587400  1
  O  O4203  1  0.368500  0.884000  0.587400  1
  O  O4204  1  0.848833  0.298167  0.254067  1
  O  O4205  1  0.449333  0.151167  0.254067  1
  O  O4206  1  0.701833  0.550667  0.254067  1
  O  O4207  1  0.182167  0.964833  0.920733  1
  O  O4208  1  0.782667  0.817833  0.920733  1
  O  O4209  1  0.035167  0.217333  0.920733  1
  O  O4210  1  0.484500  0.368500  0.412600  1
  O  O4211  1  0.884000  0.515500  0.412600  1
  O  O4212  1  0.631500  0.116000  0.412600  1
  O  O4213  1  0.151167  0.701833  0.745933  1
  O  O4214  1  0.550667  0.848833  0.745933  1
  O  O4215  1  0.298167  0.449333  0.745933  1
  O  O4216  1  0.817833  0.035167  0.079267  1
  O  O4217  1  0.217333  0.182167  0.079267  1
  O  O4218  1  0.964833  0.782667  0.079267  1
  O  O4219  1  0.828300  0.035900  0.583300  1
  O  O4220  1  0.207600  0.171700  0.583300  1
  O  O4221  1  0.964100  0.792400  0.583300  1
  O  O4222  1  0.161633  0.702567  0.249967  1
  O  O4223  1  0.540933  0.838367  0.249967  1
  O  O4224  1  0.297433  0.459067  0.249967  1
  O  O4225  1  0.494967  0.369233  0.916633  1
  O  O4226  1  0.874267  0.505033  0.916633  1
  O  O4227  1  0.630767  0.125733  0.916633  1
  O  O4228  1  0.171700  0.964100  0.416700  1
  O  O4229  1  0.792400  0.828300  0.416700  1
  O  O4230  1  0.035900  0.207600  0.416700  1
  O  O4231  1  0.838367  0.297433  0.750033  1
  O  O4232  1  0.459067  0.161633  0.750033  1
  O  O4233  1  0.702567  0.540933  0.750033  1
  O  O4234  1  0.505033  0.630767  0.083367  1
  O  O4235  1  0.125733  0.494967  0.083367  1
  O  O4236  1  0.369233  0.874267  0.083367  1
  O  O4237  1  0.761200  0.010000  0.568100  1
  O  O4238  1  0.248800  0.238800  0.568100  1
  O  O4239  1  0.990000  0.751200  0.568100  1
  O  O4240  1  0.094533  0.676667  0.234767  1
  O  O4241  1  0.582133  0.905467  0.234767  1
  O  O4242  1  0.323333  0.417867  0.234767  1
  O  O4243  1  0.427867  0.343333  0.901433  1
  O  O4244  1  0.915467  0.572133  0.901433  1
  O  O4245  1  0.656667  0.084533  0.901433  1
  O  O4246  1  0.238800  0.990000  0.431900  1
  O  O4247  1  0.751200  0.761200  0.431900  1
  O  O4248  1  0.010000  0.248800  0.431900  1
  O  O4249  1  0.905467  0.323333  0.765233  1
  O  O4250  1  0.417867  0.094533  0.765233  1
  O  O4251  1  0.676667  0.582133  0.765233  1
  O  O4252  1  0.572133  0.656667  0.098567  1
  O  O4253  1  0.084533  0.427867  0.098567  1
  O  O4254  1  0.343333  0.915467  0.098567  1
  O  O4255  1  0.857300  0.054900  0.564900  1
  O  O4256  1  0.197600  0.142700  0.564900  1
  O  O4257  1  0.945100  0.802400  0.564900  1
  O  O4258  1  0.190633  0.721567  0.231567  1
  O  O4259  1  0.530933  0.809367  0.231567  1
  O  O4260  1  0.278433  0.469067  0.231567  1
  O  O4261  1  0.523967  0.388233  0.898233  1
  O  O4262  1  0.864267  0.476033  0.898233  1
  O  O4263  1  0.611767  0.135733  0.898233  1
  O  O4264  1  0.142700  0.945100  0.435100  1
  O  O4265  1  0.802400  0.857300  0.435100  1
  O  O4266  1  0.054900  0.197600  0.435100  1
  O  O4267  1  0.809367  0.278433  0.768433  1
  O  O4268  1  0.469067  0.190633  0.768433  1
  O  O4269  1  0.721567  0.530933  0.768433  1
  O  O4270  1  0.476033  0.611767  0.101767  1
  O  O4271  1  0.135733  0.523967  0.101767  1
  O  O4272  1  0.388233  0.864267  0.101767  1
  O  O4273  1  0.816100  0.103900  0.573800  1
  O  O4274  1  0.287800  0.183900  0.573800  1
  O  O4275  1  0.896100  0.712200  0.573800  1
  O  O4276  1  0.149433  0.770567  0.240467  1
  O  O4277  1  0.621133  0.850567  0.240467  1
  O  O4278  1  0.229433  0.378867  0.240467  1
  O  O4279  1  0.482767  0.437233  0.907133  1
  O  O4280  1  0.954467  0.517233  0.907133  1
  O  O4281  1  0.562767  0.045533  0.907133  1
  O  O4282  1  0.183900  0.896100  0.426200  1
  O  O4283  1  0.712200  0.816100  0.426200  1
  O  O4284  1  0.103900  0.287800  0.426200  1
  O  O4285  1  0.850567  0.229433  0.759533  1
  O  O4286  1  0.378867  0.149433  0.759533  1
  O  O4287  1  0.770567  0.621133  0.759533  1
  O  O4288  1  0.517233  0.562767  0.092867  1
  O  O4289  1  0.045533  0.482767  0.092867  1
  O  O4290  1  0.437233  0.954467  0.092867  1
  O  O4291  1  0.450100  0.590200  0.597400  1
  O  O4292  1  0.140100  0.549900  0.597400  1
  O  O4293  1  0.409800  0.859900  0.597400  1
  O  O4294  1  0.783433  0.256867  0.264067  1
  O  O4295  1  0.473433  0.216567  0.264067  1
  O  O4296  1  0.743133  0.526567  0.264067  1
  O  O4297  1  0.116767  0.923533  0.930733  1
  O  O4298  1  0.806767  0.883233  0.930733  1
  O  O4299  1  0.076467  0.193233  0.930733  1
  O  O4300  1  0.549900  0.409800  0.402600  1
  O  O4301  1  0.859900  0.450100  0.402600  1
  O  O4302  1  0.590200  0.140100  0.402600  1
  O  O4303  1  0.216567  0.743133  0.735933  1
  O  O4304  1  0.526567  0.783433  0.735933  1
  O  O4305  1  0.256867  0.473433  0.735933  1
  O  O4306  1  0.883233  0.076467  0.069267  1
  O  O4307  1  0.193233  0.116767  0.069267  1
  O  O4308  1  0.923533  0.806767  0.069267  1
  O  O4309  1  0.479100  0.530300  0.589300  1
  O  O4310  1  0.051200  0.520900  0.589300  1
  O  O4311  1  0.469700  0.948800  0.589300  1
  O  O4312  1  0.812433  0.196967  0.255967  1
  O  O4313  1  0.384533  0.187567  0.255967  1
  O  O4314  1  0.803033  0.615467  0.255967  1
  O  O4315  1  0.145767  0.863633  0.922633  1
  O  O4316  1  0.717867  0.854233  0.922633  1
  O  O4317  1  0.136367  0.282133  0.922633  1
  O  O4318  1  0.520900  0.469700  0.410700  1
  O  O4319  1  0.948800  0.479100  0.410700  1
  O  O4320  1  0.530300  0.051200  0.410700  1
  O  O4321  1  0.187567  0.803033  0.744033  1
  O  O4322  1  0.615467  0.812433  0.744033  1
  O  O4323  1  0.196967  0.384533  0.744033  1
  O  O4324  1  0.854233  0.136367  0.077367  1
  O  O4325  1  0.282133  0.145767  0.077367  1
  O  O4326  1  0.863633  0.717867  0.077367  1
  O  O4327  1  0.536900  0.627700  0.587400  1
  O  O4328  1  0.090800  0.463100  0.587400  1
  O  O4329  1  0.372300  0.909200  0.587400  1
  O  O4330  1  0.870233  0.294367  0.254067  1
  O  O4331  1  0.424133  0.129767  0.254067  1
  O  O4332  1  0.705633  0.575867  0.254067  1
  O  O4333  1  0.203567  0.961033  0.920733  1
  O  O4334  1  0.757467  0.796433  0.920733  1
  O  O4335  1  0.038967  0.242533  0.920733  1
  O  O4336  1  0.463100  0.372300  0.412600  1
  O  O4337  1  0.909200  0.536900  0.412600  1
  O  O4338  1  0.627700  0.090800  0.412600  1
  O  O4339  1  0.129767  0.705633  0.745933  1
  O  O4340  1  0.575867  0.870233  0.745933  1
  O  O4341  1  0.294367  0.424133  0.745933  1
  O  O4342  1  0.796433  0.038967  0.079267  1
  O  O4343  1  0.242533  0.203567  0.079267  1
  O  O4344  1  0.961033  0.757467  0.079267  1
  O  O4345  1  0.525300  0.586300  0.605400  1
  O  O4346  1  0.061000  0.474700  0.605400  1
  O  O4347  1  0.413700  0.939000  0.605400  1
  O  O4348  1  0.858633  0.252967  0.272067  1
  O  O4349  1  0.394333  0.141367  0.272067  1
  O  O4350  1  0.747033  0.605667  0.272067  1
  O  O4351  1  0.191967  0.919633  0.938733  1
  O  O4352  1  0.727667  0.808033  0.938733  1
  O  O4353  1  0.080367  0.272333  0.938733  1
  O  O4354  1  0.474700  0.413700  0.394600  1
  O  O4355  1  0.939000  0.525300  0.394600  1
  O  O4356  1  0.586300  0.061000  0.394600  1
  O  O4357  1  0.141367  0.747033  0.727933  1
  O  O4358  1  0.605667  0.858633  0.727933  1
  O  O4359  1  0.252967  0.394333  0.727933  1
  O  O4360  1  0.808033  0.080367  0.061267  1
  O  O4361  1  0.272333  0.191967  0.061267  1
  O  O4362  1  0.919633  0.727667  0.061267  1
