
#######################################################################
#
#                 Cambridge Crystallographic Data Centre
#                                CCDC 
#
#######################################################################
#
# If this CIF has been generated from an entry in the Cambridge 
# Structural Database, then it will include bibliographic, chemical, 
# crystal, experimental, refinement or atomic coordinate data resulting 
# from the CCDC's data processing and validation procedures.
#
#######################################################################

data_EWICAQ
_chemical_formula_moiety         
'C111 H126 N30 O15 Pd3 6+,6(N1 O3 1-),40(H2 O1)'
_chemical_name_systematic        
"(\m-tris(2-(pyridin-2-yl)ethyl) benzene-1,3,5-tricarboxylate)-tris(\m-N,N',N''-tris(3-(1H-imidazol-1-yl)propyl)benzene-1,3,5-tricarboxamide)-tri-palladium(ii) hexakis(nitrate) tetracontahydrate"
_symmetry_cell_setting           monoclinic
_symmetry_space_group_name_H-M   'P 21/c'
_symmetry_Int_Tables_number      14
_space_group_name_Hall           '-P 2ybc'
loop_
_symmetry_equiv_pos_site_id
_symmetry_equiv_pos_as_xyz
1 x,y,z
2 -x,1/2+y,1/2-z
3 -x,-y,-z
4 x,1/2-y,1/2+z
_cell_length_a                   16.3485(2)
_cell_length_b                   27.8059(3)
_cell_length_c                   33.4695(4)
_cell_angle_alpha                90
_cell_angle_beta                 96.1340(10)
_cell_angle_gamma                90
_cell_volume                     15127.6
_exptl_crystal_colour            colorless
_exptl_crystal_description       block
_cell_formula_units_Z            4
loop_
_atom_site_label
_atom_site_type_symbol
_atom_site_fract_x
_atom_site_fract_y
_atom_site_fract_z
Pd1 Pd 0.79010(3) 0.55372(2) 0.44509(2)
Pd2 Pd 0.10038(3) 0.55382(2) 0.26099(2)
Pd3 Pd 0.74853(3) 0.47477(2) 0.06934(2)
O1 O 0.7785(2) 0.54253(17) 0.30772(13)
O2 O 0.6874(2) 0.55927(15) 0.35159(12)
O3 O 0.3992(2) 0.58145(18) 0.29879(14)
O4 O 0.3503(3) 0.55332(17) 0.23849(15)
O5 O 0.5577(3) 0.5409(2) 0.14358(13)
O6 O 0.6823(4) 0.5092(2) 0.16339(15)
O7 O 0.5945(3) 0.4601(2) 0.36871(15)
O8 O 0.5808(3) 0.4157(2) 0.18628(14)
O9 O 0.2490(4) 0.4286(4) 0.2707(2)
O10 O 0.7099(5) 0.6512(2) 0.31056(18)
O11 O 0.4297(3) 0.66588(19) 0.23171(16)
O12 O 0.6756(3) 0.68019(18) 0.09820(15)
O13 O 0.6248(3) 0.3282(2) 0.32973(19)
O14 O 0.1975(3) 0.27600(18) 0.28034(18)
O15 O 0.3763(4) 0.3065(2) 0.17924(19)
N1 N 0.9064(3) 0.53536(18) 0.43547(17)
N2 N 0.1192(3) 0.58853(19) 0.31464(16)
N3 N 0.6719(3) 0.5122(2) 0.02877(15)
N4 N 0.6733(3) 0.5707(2) 0.45146(15)
N5 N 0.5410(3) 0.5664(3) 0.43911(18)
N6 N 0.4677(5) 0.4474(3) 0.38526(19)
H1 H 0.4170 0.4395 0.3763
N7 N 0.8221(4) 0.4368(2) 0.10973(17)
N8 N 0.8683(3) 0.4060(2) 0.16725(16)
N9 N 0.6650(4) 0.3882(3) 0.23837(19)
H2 H 0.6694 0.3810 0.2641
N10 N 0.0876(3) 0.51561(18) 0.20976(15)
N11 N 0.1224(3) 0.4649(2) 0.16431(16)
N12 N 0.2725(3) 0.38672(19) 0.21733(16)
H3 H 0.3091 0.3781 0.2012
N13 N 0.8140(3) 0.62245(18) 0.43064(17)
N14 N 0.8034(4) 0.6925(2) 0.40179(19)
N15 N 0.7989(4) 0.7002(2) 0.2839(2)
H4 H 0.8078 0.7170 0.2625
N16 N 0.1287(3) 0.61339(19) 0.23084(16)
N17 N 0.1612(3) 0.6605(2) 0.18271(17)
N18 N 0.4196(3) 0.6466(2) 0.16669(19)
H5 H 0.4462 0.6416 0.1455
N19 N 0.8293(3) 0.5289(2) 0.07077(17)
N20 N 0.9165(3) 0.5856(2) 0.0912(2)
N21 N 0.8001(5) 0.6725(3) 0.1321(3)
H6 H 0.8293 0.6669 0.1553
N22 N 0.7641(3) 0.48611(18) 0.46211(15)
N23 N 0.7377(3) 0.40879(18) 0.46354(16)
N24 N 0.5644(4) 0.2940(2) 0.3800(2)
H7 H 0.5204 0.2805 0.3881
N25 N 0.0694(3) 0.4943(2) 0.29013(16)
N26 N 0.0783(4) 0.4258(2) 0.3222(2)
N27 N 0.2344(4) 0.3005(2) 0.3432(2)
H8 H 0.2742 0.3090 0.3616
N28 N 0.6727(4) 0.4177(2) 0.06534(18)
N29 N 0.6218(13) 0.3468(5) 0.0765(6)
N30 N 0.5055(5) 0.2731(2) 0.1901(2)
H9 H 0.5453 0.2646 0.2085
C1 C 0.9668(4) 0.5445(3) 0.4652(2)
H10 H 0.9530 0.5567 0.4901
C2 C 1.0489(4) 0.5363(3) 0.4599(2)
H11 H 1.0908 0.5429 0.4812
C3 C 1.0685(4) 0.5192(3) 0.4251(3)
H12 H 1.1245 0.5136 0.4212
C4 C 1.0065(4) 0.5097(3) 0.3945(2)
H13 H 1.0200 0.4972 0.3696
C5 C 0.9256(4) 0.5181(2) 0.4000(2)
C6 C 0.8569(4) 0.5097(2) 0.36717(19)
H14 H 0.8052 0.5040 0.3794
H15 H 0.8691 0.4806 0.3519
C7 C 0.8449(4) 0.5516(3) 0.3387(2)
H16 H 0.8326 0.5809 0.3538
H17 H 0.8963 0.5573 0.3262
C8 C 0.7022(4) 0.5496(2) 0.31829(18)
C9 C 0.6387(3) 0.54549(19) 0.28331(17)
C10 C 0.5568(3) 0.5534(2) 0.28976(18)
H18 H 0.5430 0.5600 0.3160
C11 C 0.0554(4) 0.6116(3) 0.3282(2)
H19 H 0.0047 0.6133 0.3115
C12 C 0.0610(5) 0.6326(3) 0.3651(2)
H20 H 0.0149 0.6485 0.3740
C13 C 0.1347(5) 0.6306(3) 0.3892(2)
H21 H 0.1400 0.6448 0.4152
C14 C 0.1992(5) 0.6079(3) 0.3755(2)
H22 H 0.2504 0.6068 0.3919
C15 C 0.1921(4) 0.5860(2) 0.3377(2)
C16 C 0.2658(4) 0.5628(2) 0.3212(2)
H23 H 0.2983 0.5445 0.3427
H24 H 0.2465 0.5400 0.2994
C17 C 0.3190(4) 0.6008(3) 0.3050(2)
H25 H 0.2917 0.6131 0.2792
H26 H 0.3258 0.6280 0.3242
C18 C 0.4078(4) 0.5613(2) 0.2634(2)
C19 C 0.4959(3) 0.5514(2) 0.25778(18)
C20 C 0.5151(4) 0.5428(2) 0.21932(18)
H27 H 0.4728 0.5419 0.1975
C21 C 0.6770(4) 0.5026(3) -0.01052(19)
H28 H 0.7150 0.4791 -0.0177
C22 C 0.6284(5) 0.5260(3) -0.0402(2)
H29 H 0.6341 0.5194 -0.0676
C23 C 0.5720(6) 0.5588(3) -0.0303(2)
H30 H 0.5348 0.5733 -0.0505
C24 C 0.5698(5) 0.5705(4) 0.0098(2)
H31 H 0.5329 0.5945 0.0172
C25 C 0.6215(5) 0.5473(3) 0.0390(2)
C26 C 0.6205(4) 0.5604(3) 0.0836(2)
H32 H 0.6766 0.5577 0.0978
H33 H 0.6013 0.5939 0.0861
C27 C 0.5638(5) 0.5266(3) 0.1016(2)
H34 H 0.5087 0.5277 0.0862
H35 H 0.5850 0.4934 0.1007
C28 C 0.6180(5) 0.5266(2) 0.1712(2)
C29 C 0.5964(4) 0.5354(2) 0.21243(18)
C30 C 0.6582(4) 0.5366(2) 0.24411(18)
H36 H 0.7137 0.5314 0.2393
C31 C 0.6120(4) 0.5509(3) 0.42841(19)
H37 H 0.6179 0.5288 0.4073
C32 C 0.6393(5) 0.5995(3) 0.4778(2)
H38 H 0.6689 0.6186 0.4979
C33 C 0.5566(5) 0.5965(3) 0.4708(2)
H39 H 0.5173 0.6124 0.4851
C34 C 0.4584(5) 0.5472(5) 0.4224(3)
H40 H 0.4576 0.5431 0.3930
H41 H 0.4155 0.5710 0.4272
C35 C 0.4384(6) 0.4999(6) 0.4409(3)
H42 H 0.4493 0.5027 0.4705
H43 H 0.3790 0.4934 0.4344
C36 C 0.4858(7) 0.4581(5) 0.4274(2)
H44 H 0.5454 0.4650 0.4331
H45 H 0.4735 0.4294 0.4432
C37 C 0.5224(4) 0.4488(3) 0.3596(2)
C38 C 0.4930(4) 0.4352(2) 0.31621(19)
C39 C 0.4110(4) 0.4299(2) 0.3021(2)
H46 H 0.3700 0.4350 0.3197
C40 C 0.1481(4) 0.4896(3) 0.1981(2)
H47 H 0.2022 0.4884 0.2115
C41 C 0.0208(4) 0.5074(3) 0.1824(2)
H48 H -0.0319 0.5215 0.1830
C42 C 0.0417(4) 0.4760(3) 0.1543(2)
H49 H 0.0069 0.4640 0.1320
C43 C 0.1711(5) 0.4290(3) 0.1451(2)
H50 H 0.2300 0.4381 0.1495
H51 H 0.1545 0.4292 0.1158
C44 C 0.1612(5) 0.3785(3) 0.1611(2)
H52 H 0.1944 0.3561 0.1465
H53 H 0.1028 0.3688 0.1555
C45 C 0.1872(4) 0.3735(2) 0.2063(2)
H54 H 0.1515 0.3943 0.2211
H55 H 0.1788 0.3398 0.2145
C46 C 0.2982(5) 0.4109(3) 0.2501(2)
C47 C 0.3875(4) 0.4171(2) 0.2621(2)
C48 C 0.4483(4) 0.4104(2) 0.2365(2)
H56 H 0.4332 0.4022 0.2091
C49 C 0.8292(4) 0.4431(3) 0.14887(19)
H57 H 0.8094 0.4703 0.1621
C50 C 0.8592(6) 0.3942(3) 0.1023(2)
H58 H 0.8635 0.3805 0.0766
C51 C 0.8888(6) 0.3750(3) 0.1384(2)
H59 H 0.9182 0.3456 0.1426
C52 C 0.8847(4) 0.3989(3) 0.21075(19)
H60 H 0.9301 0.4203 0.2215
H61 H 0.9025 0.3653 0.2162
C53 C 0.8093(4) 0.4093(3) 0.2319(2)
H62 H 0.8223 0.4031 0.2610
H63 H 0.7948 0.4437 0.2285
C54 C 0.7363(5) 0.3789(3) 0.2159(2)
H64 H 0.7214 0.3863 0.1871
H65 H 0.7513 0.3445 0.2183
C55 C 0.5944(4) 0.4069(2) 0.2220(2)
C56 C 0.5311(4) 0.4155(2) 0.2507(2)
C57 C 0.5527(4) 0.4286(2) 0.2903(2)
H66 H 0.6090 0.4332 0.2998
C58 C 0.7683(4) 0.6494(2) 0.4048(2)
H67 H 0.7177 0.6397 0.3904
C59 C 0.8812(5) 0.6499(2) 0.4451(2)
H68 H 0.9249 0.6396 0.4642
C60 C 0.8745(5) 0.6934(3) 0.4279(2)
H69 H 0.9114 0.7197 0.4328
C61 C 0.7721(7) 0.7327(3) 0.3747(3)
H70 H 0.7601 0.7611 0.3908
H71 H 0.7207 0.7228 0.3584
C62 C 0.8368(8) 0.7451(3) 0.3473(3)
H72 H 0.8875 0.7549 0.3642
H73 H 0.8174 0.7731 0.3307
C63 C 0.8583(6) 0.7048(3) 0.3196(3)
H74 H 0.9134 0.7110 0.3110
H75 H 0.8608 0.6741 0.3346
C64 C 0.7331(6) 0.6727(3) 0.2817(2)
C65 C 0.6853(5) 0.6693(2) 0.2410(2)
C66 C 0.6004(4) 0.6651(2) 0.2383(2)
H76 H 0.5737 0.6635 0.2621
C67 C 0.1476(3) 0.6156(2) 0.19349(19)
H77 H 0.1510 0.5885 0.1765
C68 C 0.1323(4) 0.6601(2) 0.2448(2)
H78 H 0.1223 0.6700 0.2710
C69 C 0.1523(5) 0.6892(3) 0.2154(2)
H79 H 0.1589 0.7232 0.2169
C70 C 0.1903(4) 0.6760(3) 0.1450(2)
H80 H 0.1615 0.7059 0.1357
H81 H 0.1769 0.6510 0.1243
C71 C 0.2828(4) 0.6849(2) 0.1499(2)
H82 H 0.2999 0.6965 0.1241
H83 H 0.2959 0.7102 0.1703
C72 C 0.3303(4) 0.6402(3) 0.1625(3)
H84 H 0.3135 0.6290 0.1885
H85 H 0.3156 0.6147 0.1424
C73 C 0.4618(4) 0.6593(2) 0.2005(2)
C74 C 0.5538(4) 0.6630(2) 0.2007(2)
C75 C 0.5937(4) 0.6655(2) 0.1663(2)
H86 H 0.5625 0.6646 0.1407
C76 C 0.8592(4) 0.5551(3) 0.1018(2)
H87 H 0.8424 0.5526 0.1281
C77 C 0.8698(5) 0.5439(4) 0.0389(3)
H88 H 0.8609 0.5317 0.0123
C78 C 0.9239(5) 0.5787(4) 0.0513(3)
H89 H 0.9600 0.5951 0.0356
C79 C 0.9589(4) 0.6225(3) 0.1167(3)
H90 H 1.0190 0.6191 0.1160
H91 H 0.9470 0.6175 0.1448
C80 C 0.9335(5) 0.6725(3) 0.1039(3)
H92 H 0.9586 0.6804 0.0790
H93 H 0.9559 0.6953 0.1250
C81 C 0.8420(5) 0.6799(3) 0.0962(3)
H94 H 0.8310 0.7130 0.0861
H95 H 0.8193 0.6572 0.0750
C82 C 0.7184(4) 0.6740(2) 0.1302(2)
C83 C 0.6789(4) 0.6693(2) 0.1687(2)
C84 C 0.7238(4) 0.6712(2) 0.2066(2)
H96 H 0.7820 0.6739 0.2085
C85 C 0.7647(4) 0.4452(2) 0.4422(2)
H97 H 0.7820 0.4419 0.4161
C86 C 0.7369(4) 0.4744(2) 0.4986(2)
H98 H 0.7306 0.4966 0.5197
C87 C 0.7209(4) 0.4272(3) 0.4998(2)
H99 H 0.7016 0.4100 0.5214
C88 C 0.7267(4) 0.3589(2) 0.4498(2)
H100 H 0.7315 0.3371 0.4733
H101 H 0.7707 0.3505 0.4329
C89 C 0.6438(5) 0.3517(3) 0.4258(3)
H102 H 0.6364 0.3755 0.4037
H103 H 0.5995 0.3565 0.4434
C90 C 0.6383(6) 0.3006(3) 0.4083(3)
H104 H 0.6876 0.2942 0.3943
H105 H 0.6378 0.2771 0.4305
C91 C 0.5638(5) 0.3083(3) 0.3428(3)
C92 C 0.4874(5) 0.2994(2) 0.3143(3)
C93 C 0.4087(5) 0.2970(2) 0.3259(3)
H106 H 0.4011 0.2996 0.3536
C94 C 0.1188(5) 0.4644(3) 0.3112(2)
H107 H 0.1761 0.4696 0.3178
C95 C -0.0080(5) 0.4737(3) 0.2878(2)
H108 H -0.0572 0.4871 0.2746
C96 C -0.0012(5) 0.4314(3) 0.3073(2)
H109 H -0.0446 0.4094 0.3102
C97 C 0.1177(7) 0.3852(4) 0.3489(3)
H110 H 0.1782 0.3891 0.3517
H111 H 0.0990 0.3878 0.3760
C98 C 0.0978(7) 0.3402(4) 0.3334(5)
H112 H 0.1046 0.3403 0.3043
H113 H 0.0391 0.3338 0.3361
C99 C 0.1487(6) 0.2999(4) 0.3532(3)
H114 H 0.1488 0.3024 0.3827
H115 H 0.1232 0.2687 0.3447
C100 C 0.2522(5) 0.2887(2) 0.3071(3)
C101 C 0.3406(4) 0.2908(2) 0.2977(2)
C102 C 0.3531(4) 0.2879(2) 0.2579(2)
H116 H 0.3069 0.2839 0.2384
C103 C 0.6390(7) 0.3942(4) 0.0943(3)
H117 H 0.6287 0.4056 0.1201
C104 C 0.6585(9) 0.3890(4) 0.0323(3)
H118 H 0.6631 0.4003 0.0059
C105 C 0.638(2) 0.3449(10) 0.0397(8)
H119 H 0.6359 0.3179 0.0223
C106 C 0.5810(19) 0.3063(6) 0.0945(5)
H120 H 0.6165 0.2775 0.0941
H121 H 0.5287 0.2993 0.0778
C107 C 0.5630(10) 0.3151(4) 0.1367(4)
H122 H 0.5264 0.3433 0.1382
H123 H 0.6143 0.3206 0.1547
C108 C 0.5191(8) 0.2676(4) 0.1482(4)
H124 H 0.4657 0.2705 0.1326
H125 H 0.5532 0.2388 0.1443
C109 C 0.4369(5) 0.2903(3) 0.2023(3)
C110 C 0.4308(5) 0.2906(2) 0.2452(3)
C111 C 0.4988(4) 0.2965(2) 0.2740(3)
H126 H 0.5526 0.2986 0.2659
O16 O 0.9694(8) 0.2782(5) 0.1831(4)
O17 O 0.8620(6) 0.2668(4) 0.2125(3)
O18 O 0.8623(17) 0.2478(8) 0.1499(6)
N31 N 0.9095(10) 0.2628(5) 0.1831(4)
O19 O 0.3052(8) 0.6150(4) 0.0614(3)
O20 O 0.3793(6) 0.6777(3) 0.0535(3)
O21 O 0.4439(5) 0.6220(4) 0.0839(2)
N32 N 0.3776(9) 0.6349(4) 0.0677(3)
O22 O 0.9178(4) 0.5939(3) 0.2511(2)
O23 O 0.8478(4) 0.5845(2) 0.1924(2)
O24 O 0.8618(5) 0.5261(3) 0.2300(2)
N33 N 0.8736(5) 0.5696(4) 0.2222(3)
O25 O 0.9325(5) 0.6795(4) 0.1987(3)
H127 H 0.9474 0.7059 0.2174
H128 H 0.9805 0.6703 0.1852
O26 O 0.2548(6) 0.4317(4) 0.4312(3)
O27 O 0.2884(12) 0.452(3) 0.3680(5)
O28 O 0.2461(7) 0.4874(6) 0.3933(4)
N34 N 0.2598(4) 0.4503(4) 0.4014(3)
O29 O 0.2099(5) 0.5506(2) 0.1179(2)
O30 O 0.1687(7) 0.5042(3) 0.0674(2)
O31 O 0.1072(6) 0.5699(4) 0.0761(3)
N35 N 0.1633(4) 0.5414(2) 0.0874(2)
O32 O 0.5996(8) 0.3461(6) 0.6125(5)
O33 O 0.6348(17) 0.3364(11) 0.5401(9)
O34 O 0.698(2) 0.2947(11) 0.5878(7)
N36 N 0.644(3) 0.3310(11) 0.5756(15)
O35 O 0.4452(3) 0.44250(18) 0.13370(14)
H129 H 0.3900 0.4285 0.1322
H130 H 0.4757 0.4345 0.1597
O36 O 0.5284(4) 0.7301(2) 0.0767(2)
H131 H 0.5754 0.7214 0.0867
H132 H 0.5166 0.7163 0.0545
O37 O 0.3343(4) 0.5038(2) 0.1636(2)
H133 H 0.2917 0.5139 0.1499
H134 H 0.3441 0.5210 0.1842
O38 O 0.3467(8) 0.7345(3) 0.2677(3)
H135 H 0.3301 0.7563 0.2515
H136 H 0.3117 0.7298 0.2839
O39 O 0.1196(7) 0.4014(6) 0.4618(3)
H137 H 0.0689 0.3985 0.4548
H138 H 0.1448 0.4027 0.4412
O40 O 0.9475(5) 0.4016(3) 0.4433(3)
H139 H 0.9329 0.3988 0.4142
H140 H 0.9281 0.3730 0.4566
O41 O 0.0704(5) 0.6651(4) 0.4943(3)
H141 H 0.0723 0.7000 0.4980
H142 H 0.1011 0.6563 0.4718
O42 O 0.2584(6) 0.7947(4) 0.2147(3)
H143 H 0.2966 0.8072 0.2034
H144 H 0.2337 0.8161 0.2264
O43 O 0.3492(5) 0.3632(3) 0.1117(3)
H145 H 0.3393 0.3658 0.1357
H146 H 0.3242 0.3849 0.0979
O44 O 0.1334(6) 0.5686(4) -0.0046(2)
H147 H 0.1203 0.5969 0.0093
H148 H 0.1763 0.5602 0.0091
O45 O 0.7523(6) 0.4033(4) 0.3433(3)
H149 H 0.7690 0.4204 0.3251
H150 H 0.7126 0.3862 0.3335
O46 O 0.9026(6) 0.3212(4) 0.2983(4)
H151 H 0.8816 0.3101 0.3231
H152 H 0.8912 0.2970 0.2772
O47 O 0.0120(6) 0.4401(5) 0.0564(3)
H153 H 0.0653 0.4412 0.0504
H154 H -0.0141 0.4324 0.0345
O48 O 0.0287(5) 0.2604(5) 0.2617(3)
H155 H 0.0182 0.2693 0.2378
H156 H 0.0708 0.2748 0.2722
O49 O 0.1840(7) 0.7286(5) 0.4660(3)
H157 H 0.2214 0.7317 0.4508
H158 H 0.1816 0.7479 0.4859
O50 O 0.1677(9) 0.3067(4) 0.4629(4)
H159 H 0.1935 0.3160 0.4439
H160 H 0.2007 0.2939 0.4808
O51 O 0.0622(10) 0.3372(8) 0.0517(5)
H161 H 0.0911 0.3166 0.0517
H162 H 0.0446 0.3453 0.0754
O52 O 0.2719(10) 0.7159(4) 0.3357(4)
H163 H 0.2402 0.7452 0.3292
H164 H 0.2348 0.6903 0.3429
O53 O 0.4311(6) 0.1555(4) 0.1326(4)
H165 H 0.4265 0.1616 0.1568
H166 H 0.4795 0.1466 0.1302
O54 O 0.0415(8) 0.7659(4) 0.4104(4)
H167 H 0.0864 0.7713 0.4011
H168 H 0.0507 0.7565 0.4343
O55 O 0.6879(9) 0.6784(6) 0.0144(3)
H169 H 0.7080 0.6479 0.0263
H170 H 0.6336 0.6856 0.0229
O56 O 0.2725(17) 0.2706(9) 0.5061(9)
H171 H 0.3108 0.2858 0.4906
H172 H 0.2928 0.2476 0.5271
O57 O 0.1127(9) 0.7584(6) 0.0812(5)
H173 H 0.0667 0.7711 0.0743
H174 H 0.1481 0.7703 0.0677
O58 O 0.3328(9) 0.3350(6) 0.4140(4)
H175 H 0.2949 0.3595 0.4222
H176 H 0.3713 0.3498 0.3971
O59 O 0.8855(7) 0.3469(8) 0.3738(3)
H177 H 0.9295 0.3362 0.3940
H178 H 0.8322 0.3364 0.3816
O60 O 1.0211(8) 0.2666(5) 0.4748(5)
H179 H 1.0718 0.2821 0.4683
H180 H 1.0346 0.2361 0.4887
O61 O 0.2159(9) 0.6994(9) 0.0259(6)
H181 H 0.2078 0.7230 0.0386
H182 H 0.2625 0.7025 0.0177
O62 O 0.3961(10) 0.2852(5) 0.5622(5)
H183 H 0.4363 0.2732 0.5521
H184 H 0.3710 0.2634 0.5733
O63 O 0.4593(13) 0.2989(8) 0.4792(7)
H185 H 0.4331 0.3247 0.4810
H186 H 0.4476 0.2869 0.4563
O64 O 0.2339(10) 0.3565(10) 0.0483(5)
H187 H 0.1749 0.3620 0.0413
H188 H 0.2653 0.3783 0.0326
loop_
_geom_bond_atom_site_label_1
_geom_bond_atom_site_label_2
_geom_bond_site_symmetry_1
_geom_bond_site_symmetry_2
Pd1 N1 1_555 1_555
Pd2 N2 1_555 1_555
Pd3 N3 1_555 1_555
O1 C7 1_555 1_555
O2 C8 1_555 1_555
O3 C17 1_555 1_555
O4 C18 1_555 1_555
O5 C27 1_555 1_555
O6 C28 1_555 1_555
O7 C37 1_555 1_555
O8 C55 1_555 1_555
O9 C46 1_555 1_555
O10 C64 1_555 1_555
O11 C73 1_555 1_555
O12 C82 1_555 1_555
O13 C91 1_555 1_555
O14 C100 1_555 1_555
O15 C109 1_555 1_555
N1 C1 1_555 1_555
N2 C11 1_555 1_555
N3 C21 1_555 1_555
N4 Pd1 1_555 1_555
N5 C31 1_555 1_555
N6 H1 1_555 1_555
N7 Pd3 1_555 1_555
N8 C49 1_555 1_555
N9 H2 1_555 1_555
N10 Pd2 1_555 1_555
N11 C40 1_555 1_555
N12 H3 1_555 1_555
N13 Pd1 1_555 1_555
N14 C58 1_555 1_555
N15 H4 1_555 1_555
N16 Pd2 1_555 1_555
N17 C67 1_555 1_555
N18 H5 1_555 1_555
N19 Pd3 1_555 1_555
N20 C76 1_555 1_555
N21 H6 1_555 1_555
N22 Pd1 1_555 1_555
N23 C85 1_555 1_555
N24 H7 1_555 1_555
N25 Pd2 1_555 1_555
N26 C94 1_555 1_555
N27 H8 1_555 1_555
N28 Pd3 1_555 1_555
N29 C103 1_555 1_555
N30 H9 1_555 1_555
C1 H10 1_555 1_555
C2 C1 1_555 1_555
H11 C2 1_555 1_555
C3 C2 1_555 1_555
H12 C3 1_555 1_555
C4 C3 1_555 1_555
H13 C4 1_555 1_555
C5 N1 1_555 1_555
C6 C5 1_555 1_555
H14 C6 1_555 1_555
H15 C6 1_555 1_555
C7 C6 1_555 1_555
H16 C7 1_555 1_555
H17 C7 1_555 1_555
C8 O1 1_555 1_555
C9 C8 1_555 1_555
C10 C9 1_555 1_555
H18 C10 1_555 1_555
C11 H19 1_555 1_555
C12 C11 1_555 1_555
H20 C12 1_555 1_555
C13 C12 1_555 1_555
H21 C13 1_555 1_555
C14 C13 1_555 1_555
H22 C14 1_555 1_555
C15 N2 1_555 1_555
C16 C15 1_555 1_555
H23 C16 1_555 1_555
H24 C16 1_555 1_555
C17 C16 1_555 1_555
H25 C17 1_555 1_555
H26 C17 1_555 1_555
C18 O3 1_555 1_555
C19 C10 1_555 1_555
C20 C19 1_555 1_555
H27 C20 1_555 1_555
C21 H28 1_555 1_555
C22 C21 1_555 1_555
H29 C22 1_555 1_555
C23 C22 1_555 1_555
H30 C23 1_555 1_555
C24 C23 1_555 1_555
H31 C24 1_555 1_555
C25 N3 1_555 1_555
C26 C25 1_555 1_555
H32 C26 1_555 1_555
H33 C26 1_555 1_555
C27 C26 1_555 1_555
H34 C27 1_555 1_555
H35 C27 1_555 1_555
C28 O5 1_555 1_555
C29 C20 1_555 1_555
C30 C9 1_555 1_555
H36 C30 1_555 1_555
C31 N4 1_555 1_555
H37 C31 1_555 1_555
C32 N4 1_555 1_555
H38 C32 1_555 1_555
C33 N5 1_555 1_555
H39 C33 1_555 1_555
C34 N5 1_555 1_555
H40 C34 1_555 1_555
H41 C34 1_555 1_555
C35 C34 1_555 1_555
H42 C35 1_555 1_555
H43 C35 1_555 1_555
C36 N6 1_555 1_555
H44 C36 1_555 1_555
H45 C36 1_555 1_555
C37 N6 1_555 1_555
C38 C37 1_555 1_555
C39 C38 1_555 1_555
H46 C39 1_555 1_555
C40 N10 1_555 1_555
H47 C40 1_555 1_555
C41 N10 1_555 1_555
H48 C41 1_555 1_555
C42 N11 1_555 1_555
H49 C42 1_555 1_555
C43 N11 1_555 1_555
H50 C43 1_555 1_555
H51 C43 1_555 1_555
C44 C43 1_555 1_555
H52 C44 1_555 1_555
H53 C44 1_555 1_555
C45 N12 1_555 1_555
H54 C45 1_555 1_555
H55 C45 1_555 1_555
C46 N12 1_555 1_555
C47 C39 1_555 1_555
C48 C47 1_555 1_555
H56 C48 1_555 1_555
C49 N7 1_555 1_555
H57 C49 1_555 1_555
C50 N7 1_555 1_555
H58 C50 1_555 1_555
C51 N8 1_555 1_555
H59 C51 1_555 1_555
C52 N8 1_555 1_555
H60 C52 1_555 1_555
H61 C52 1_555 1_555
C53 C52 1_555 1_555
H62 C53 1_555 1_555
H63 C53 1_555 1_555
C54 N9 1_555 1_555
H64 C54 1_555 1_555
H65 C54 1_555 1_555
C55 N9 1_555 1_555
C56 C48 1_555 1_555
C57 C38 1_555 1_555
H66 C57 1_555 1_555
C58 N13 1_555 1_555
H67 C58 1_555 1_555
C59 N13 1_555 1_555
H68 C59 1_555 1_555
C60 N14 1_555 1_555
H69 C60 1_555 1_555
C61 N14 1_555 1_555
H70 C61 1_555 1_555
H71 C61 1_555 1_555
C62 C61 1_555 1_555
H72 C62 1_555 1_555
H73 C62 1_555 1_555
C63 N15 1_555 1_555
H74 C63 1_555 1_555
H75 C63 1_555 1_555
C64 N15 1_555 1_555
C65 C64 1_555 1_555
C66 C65 1_555 1_555
H76 C66 1_555 1_555
C67 N16 1_555 1_555
H77 C67 1_555 1_555
C68 N16 1_555 1_555
H78 C68 1_555 1_555
C69 N17 1_555 1_555
H79 C69 1_555 1_555
C70 N17 1_555 1_555
H80 C70 1_555 1_555
H81 C70 1_555 1_555
C71 C70 1_555 1_555
H82 C71 1_555 1_555
H83 C71 1_555 1_555
C72 N18 1_555 1_555
H84 C72 1_555 1_555
H85 C72 1_555 1_555
C73 N18 1_555 1_555
C74 C66 1_555 1_555
C75 C74 1_555 1_555
H86 C75 1_555 1_555
C76 N19 1_555 1_555
H87 C76 1_555 1_555
C77 N19 1_555 1_555
H88 C77 1_555 1_555
C78 N20 1_555 1_555
H89 C78 1_555 1_555
C79 N20 1_555 1_555
H90 C79 1_555 1_555
H91 C79 1_555 1_555
C80 C79 1_555 1_555
H92 C80 1_555 1_555
H93 C80 1_555 1_555
C81 N21 1_555 1_555
H94 C81 1_555 1_555
H95 C81 1_555 1_555
C82 N21 1_555 1_555
C83 C75 1_555 1_555
C84 C65 1_555 1_555
H96 C84 1_555 1_555
C85 N22 1_555 1_555
H97 C85 1_555 1_555
C86 N22 1_555 1_555
H98 C86 1_555 1_555
C87 N23 1_555 1_555
H99 C87 1_555 1_555
C88 N23 1_555 1_555
H100 C88 1_555 1_555
H101 C88 1_555 1_555
C89 C88 1_555 1_555
H102 C89 1_555 1_555
H103 C89 1_555 1_555
C90 N24 1_555 1_555
H104 C90 1_555 1_555
H105 C90 1_555 1_555
C91 N24 1_555 1_555
C92 C91 1_555 1_555
C93 C92 1_555 1_555
H106 C93 1_555 1_555
C94 N25 1_555 1_555
H107 C94 1_555 1_555
C95 N25 1_555 1_555
H108 C95 1_555 1_555
C96 N26 1_555 1_555
H109 C96 1_555 1_555
C97 N26 1_555 1_555
H110 C97 1_555 1_555
H111 C97 1_555 1_555
C98 C97 1_555 1_555
H112 C98 1_555 1_555
H113 C98 1_555 1_555
C99 N27 1_555 1_555
H114 C99 1_555 1_555
H115 C99 1_555 1_555
C100 N27 1_555 1_555
C101 C93 1_555 1_555
C102 C101 1_555 1_555
H116 C102 1_555 1_555
C103 N28 1_555 1_555
H117 C103 1_555 1_555
C104 N28 1_555 1_555
H118 C104 1_555 1_555
C105 N29 1_555 1_555
H119 C105 1_555 1_555
C106 N29 1_555 1_555
H120 C106 1_555 1_555
H121 C106 1_555 1_555
C107 C106 1_555 1_555
H122 C107 1_555 1_555
H123 C107 1_555 1_555
C108 N30 1_555 1_555
H124 C108 1_555 1_555
H125 C108 1_555 1_555
C109 N30 1_555 1_555
C110 C102 1_555 1_555
C111 C92 1_555 1_555
H126 C111 1_555 1_555
O16 N31 1_555 1_555
O17 N31 1_555 1_555
O18 N31 1_555 1_555
O19 N32 1_555 1_555
O20 N32 1_555 1_555
O21 N32 1_555 1_555
O22 N33 1_555 1_555
O23 N33 1_555 1_555
O24 N33 1_555 1_555
O25 H127 1_555 1_555
H128 O25 1_555 1_555
O26 N34 1_555 1_555
O27 N34 1_555 1_555
O28 N34 1_555 1_555
O29 N35 1_555 1_555
O30 N35 1_555 1_555
O31 N35 1_555 1_555
O32 N36 1_555 1_555
O33 N36 1_555 1_555
O34 N36 1_555 1_555
O35 H129 1_555 1_555
H130 O35 1_555 1_555
O36 H131 1_555 1_555
H132 O36 1_555 1_555
O37 H133 1_555 1_555
H134 O37 1_555 1_555
O38 H135 1_555 1_555
H136 O38 1_555 1_555
O39 H137 1_555 1_555
H138 O39 1_555 1_555
O40 H139 1_555 1_555
H140 O40 1_555 1_555
O41 H141 1_555 1_555
H142 O41 1_555 1_555
O42 H143 1_555 1_555
H144 O42 1_555 1_555
O43 H145 1_555 1_555
H146 O43 1_555 1_555
O44 H147 1_555 1_555
H148 O44 1_555 1_555
O45 H149 1_555 1_555
H150 O45 1_555 1_555
O46 H151 1_555 1_555
H152 O46 1_555 1_555
O47 H153 1_555 1_555
H154 O47 1_555 1_555
O48 H155 1_555 1_555
H156 O48 1_555 1_555
O49 H157 1_555 1_555
H158 O49 1_555 1_555
O50 H159 1_555 1_555
H160 O50 1_555 1_555
O51 H161 1_555 1_555
H162 O51 1_555 1_555
O52 H163 1_555 1_555
H164 O52 1_555 1_555
O53 H165 1_555 1_555
H166 O53 1_555 1_555
O54 H167 1_555 1_555
H168 O54 1_555 1_555
O55 H169 1_555 1_555
H170 O55 1_555 1_555
O56 H171 1_555 1_555
H172 O56 1_555 1_555
O57 H173 1_555 1_555
H174 O57 1_555 1_555
O58 H175 1_555 1_555
H176 O58 1_555 1_555
O59 H177 1_555 1_555
H178 O59 1_555 1_555
O60 H179 1_555 1_555
H180 O60 1_555 1_555
O61 H181 1_555 1_555
H182 O61 1_555 1_555
O62 H183 1_555 1_555
H184 O62 1_555 1_555
O63 H185 1_555 1_555
H186 O63 1_555 1_555
O64 H187 1_555 1_555
H188 O64 1_555 1_555
C4 C5 1_555 1_555
C14 C15 1_555 1_555
C18 C19 1_555 1_555
C24 C25 1_555 1_555
C28 C29 1_555 1_555
C29 C30 1_555 1_555
C32 C33 1_555 1_555
C35 C36 1_555 1_555
C41 C42 1_555 1_555
C44 C45 1_555 1_555
C46 C47 1_555 1_555
C50 C51 1_555 1_555
C53 C54 1_555 1_555
C55 C56 1_555 1_555
C56 C57 1_555 1_555
C59 C60 1_555 1_555
C62 C63 1_555 1_555
C68 C69 1_555 1_555
C71 C72 1_555 1_555
C73 C74 1_555 1_555
C77 C78 1_555 1_555
C80 C81 1_555 1_555
C82 C83 1_555 1_555
C83 C84 1_555 1_555
C86 C87 1_555 1_555
C89 C90 1_555 1_555
C95 C96 1_555 1_555
C98 C99 1_555 1_555
C100 C101 1_555 1_555
C104 C105 1_555 1_555
C107 C108 1_555 1_555
C109 C110 1_555 1_555
C110 C111 1_555 1_555

#END
