# generated using pymatgen
data_H162Pd3C126S7(N5O7)6
_symmetry_space_group_name_H-M   'P 1'
_cell_length_a   15.42120000
_cell_length_b   18.37940000
_cell_length_c   72.21400000
_cell_angle_alpha   90.00000000
_cell_angle_beta   90.00000000
_cell_angle_gamma   110.93300000
_symmetry_Int_Tables_number   1
_chemical_formula_structural   H162Pd3C126S7(N5O7)6
_chemical_formula_sum   'H648 Pd12 C504 S28 N120 O168'
_cell_volume   19116.89011515
_cell_formula_units_Z   4
loop_
 _symmetry_equiv_pos_site_id
 _symmetry_equiv_pos_as_xyz
  1  'x, y, z'
loop_
 _atom_site_type_symbol
 _atom_site_label
 _atom_site_symmetry_multiplicity
 _atom_site_fract_x
 _atom_site_fract_y
 _atom_site_fract_z
 _atom_site_occupancy
  H  H1  1  0.610400  0.592500  0.459200  1
  H  H2  1  0.889600  0.407500  0.959200  1
  H  H3  1  0.389600  0.407500  0.540800  1
  H  H4  1  0.110400  0.592500  0.040800  1
  H  H5  1  0.668500  0.537500  0.455100  1
  H  H6  1  0.831500  0.462500  0.955100  1
  H  H7  1  0.331500  0.462500  0.544900  1
  H  H8  1  0.168500  0.537500  0.044900  1
  H  H9  1  0.562700  0.511700  0.448500  1
  H  H10  1  0.937300  0.488300  0.948500  1
  H  H11  1  0.437300  0.488300  0.551500  1
  H  H12  1  0.062700  0.511700  0.051500  1
  H  H13  1  0.670900  0.589800  0.496200  1
  H  H14  1  0.829100  0.410200  0.996200  1
  H  H15  1  0.329100  0.410200  0.503800  1
  H  H16  1  0.170900  0.589800  0.003800  1
  H  H17  1  0.659100  0.508200  0.505800  1
  H  H18  1  0.840900  0.491800  0.005800  1
  H  H19  1  0.340900  0.491800  0.494200  1
  H  H20  1  0.159100  0.508200  0.994200  1
  H  H21  1  0.722600  0.535800  0.487700  1
  H  H22  1  0.777400  0.464200  0.987700  1
  H  H23  1  0.277400  0.464200  0.512300  1
  H  H24  1  0.222600  0.535800  0.012300  1
  H  H25  1  0.527100  0.820600  0.465800  1
  H  H26  1  0.972900  0.179400  0.965800  1
  H  H27  1  0.472900  0.179400  0.534200  1
  H  H28  1  0.027100  0.820600  0.034200  1
  H  H29  1  0.635400  0.834900  0.467700  1
  H  H30  1  0.864600  0.165100  0.967700  1
  H  H31  1  0.364600  0.165100  0.532300  1
  H  H32  1  0.135400  0.834900  0.032300  1
  H  H33  1  0.571100  0.767500  0.454400  1
  H  H34  1  0.928900  0.232500  0.954400  1
  H  H35  1  0.428900  0.232500  0.545600  1
  H  H36  1  0.071100  0.767500  0.045600  1
  H  H37  1  0.399300  0.673500  0.475800  1
  H  H38  1  0.100700  0.326500  0.975800  1
  H  H39  1  0.600700  0.326500  0.524200  1
  H  H40  1  0.899300  0.673500  0.024200  1
  H  H41  1  0.465200  0.645000  0.462900  1
  H  H42  1  0.034800  0.355000  0.962900  1
  H  H43  1  0.534800  0.355000  0.537100  1
  H  H44  1  0.965200  0.645000  0.037100  1
  H  H45  1  0.438500  0.609100  0.483200  1
  H  H46  1  0.061500  0.390900  0.983200  1
  H  H47  1  0.561500  0.390900  0.516800  1
  H  H48  1  0.938500  0.609100  0.016800  1
  H  H49  1  0.379100  0.796200  0.668200  1
  H  H50  1  0.120900  0.203800  0.168200  1
  H  H51  1  0.620900  0.203800  0.331800  1
  H  H52  1  0.879100  0.796200  0.831800  1
  H  H53  1  0.398000  0.777000  0.647300  1
  H  H54  1  0.102000  0.223000  0.147300  1
  H  H55  1  0.602000  0.223000  0.352700  1
  H  H56  1  0.898000  0.777000  0.852700  1
  H  H57  1  0.444600  0.863800  0.655100  1
  H  H58  1  0.055400  0.136200  0.155100  1
  H  H59  1  0.555400  0.136200  0.344900  1
  H  H60  1  0.944600  0.863800  0.844900  1
  H  H61  1  0.205200  0.692800  0.652900  1
  H  H62  1  0.294800  0.307200  0.152900  1
  H  H63  1  0.794800  0.307200  0.347100  1
  H  H64  1  0.705200  0.692800  0.847100  1
  H  H65  1  0.176400  0.714200  0.632900  1
  H  H66  1  0.323600  0.285800  0.132900  1
  H  H67  1  0.823600  0.285800  0.367100  1
  H  H68  1  0.676400  0.714200  0.867100  1
  H  H69  1  0.271900  0.699500  0.635500  1
  H  H70  1  0.228100  0.300500  0.135500  1
  H  H71  1  0.728100  0.300500  0.364500  1
  H  H72  1  0.771900  0.699500  0.864500  1
  H  H73  1  0.931400  0.330400  0.529200  1
  H  H74  1  0.568600  0.669600  0.029200  1
  H  H75  1  0.068600  0.669600  0.470800  1
  H  H76  1  0.431400  0.330400  0.970800  1
  H  H77  1  0.013000  0.333100  0.515200  1
  H  H78  1  0.487000  0.666900  0.015200  1
  H  H79  1  0.987000  0.666900  0.484800  1
  H  H80  1  0.513000  0.333100  0.984800  1
  H  H81  1  0.007600  0.294400  0.535200  1
  H  H82  1  0.492400  0.705600  0.035200  1
  H  H83  1  0.992400  0.705600  0.464800  1
  H  H84  1  0.507600  0.294400  0.964800  1
  H  H85  1  0.924700  0.406600  0.551700  1
  H  H86  1  0.575300  0.593400  0.051700  1
  H  H87  1  0.075300  0.593400  0.448300  1
  H  H88  1  0.424700  0.406600  0.948300  1
  H  H89  1  0.995900  0.389100  0.565600  1
  H  H90  1  0.504100  0.610900  0.065600  1
  H  H91  1  0.004100  0.610900  0.434400  1
  H  H92  1  0.495900  0.389100  0.934400  1
  H  H93  1  0.009700  0.477100  0.560200  1
  H  H94  1  0.490300  0.522900  0.060200  1
  H  H95  1  0.990300  0.522900  0.439800  1
  H  H96  1  0.509700  0.477100  0.939800  1
  H  H97  1  0.732400  0.670100  0.643000  1
  H  H98  1  0.767600  0.329900  0.143000  1
  H  H99  1  0.267600  0.329900  0.357000  1
  H  H100  1  0.232400  0.670100  0.857000  1
  H  H101  1  0.637300  0.629600  0.654000  1
  H  H102  1  0.862700  0.370400  0.154000  1
  H  H103  1  0.362700  0.370400  0.346000  1
  H  H104  1  0.137300  0.629600  0.846000  1
  H  H105  1  0.635400  0.644600  0.632200  1
  H  H106  1  0.864600  0.355400  0.132200  1
  H  H107  1  0.364600  0.355400  0.367800  1
  H  H108  1  0.135400  0.644600  0.867800  1
  H  H109  1  0.763900  0.767600  0.671500  1
  H  H110  1  0.736100  0.232400  0.171500  1
  H  H111  1  0.236100  0.232400  0.328500  1
  H  H112  1  0.263900  0.767600  0.828500  1
  H  H113  1  0.692500  0.808900  0.677300  1
  H  H114  1  0.807500  0.191100  0.177300  1
  H  H115  1  0.307500  0.191100  0.322700  1
  H  H116  1  0.192500  0.808900  0.822700  1
  H  H117  1  0.660900  0.716000  0.677900  1
  H  H118  1  0.839100  0.284000  0.177900  1
  H  H119  1  0.339100  0.284000  0.322100  1
  H  H120  1  0.160900  0.716000  0.822100  1
  H  H121  1  0.732800  0.387300  0.742900  1
  H  H122  1  0.767200  0.612700  0.242900  1
  H  H123  1  0.267200  0.612700  0.257100  1
  H  H124  1  0.232800  0.387300  0.757100  1
  H  H125  1  0.644200  0.314000  0.749000  1
  H  H126  1  0.855800  0.686000  0.249000  1
  H  H127  1  0.355800  0.686000  0.251000  1
  H  H128  1  0.144200  0.314000  0.751000  1
  H  H129  1  0.740300  0.302900  0.744400  1
  H  H130  1  0.759700  0.697100  0.244400  1
  H  H131  1  0.259700  0.697100  0.255600  1
  H  H132  1  0.240300  0.302900  0.755600  1
  H  H133  1  0.553800  0.219300  0.720200  1
  H  H134  1  0.946200  0.780700  0.220200  1
  H  H135  1  0.446200  0.780700  0.279800  1
  H  H136  1  0.053800  0.219300  0.779800  1
  H  H137  1  0.624700  0.207300  0.705400  1
  H  H138  1  0.875300  0.792700  0.205400  1
  H  H139  1  0.375300  0.792700  0.294600  1
  H  H140  1  0.124700  0.207300  0.794600  1
  H  H141  1  0.649200  0.211900  0.727000  1
  H  H142  1  0.850800  0.788100  0.227000  1
  H  H143  1  0.350800  0.788100  0.273000  1
  H  H144  1  0.149200  0.211900  0.773000  1
  H  H145  1  0.290000  0.461400  0.432600  1
  H  H146  1  0.210000  0.538600  0.932600  1
  H  H147  1  0.710000  0.538600  0.567400  1
  H  H148  1  0.790000  0.461400  0.067400  1
  H  H149  1  0.493500  0.774700  0.389900  1
  H  H150  1  0.006500  0.225300  0.889900  1
  H  H151  1  0.506500  0.225300  0.610100  1
  H  H152  1  0.993500  0.774700  0.110100  1
  H  H153  1  0.215400  0.484000  0.351100  1
  H  H154  1  0.284600  0.516000  0.851100  1
  H  H155  1  0.784600  0.516000  0.648900  1
  H  H156  1  0.715400  0.484000  0.148900  1
  H  H157  1  0.065500  0.340700  0.388500  1
  H  H158  1  0.434500  0.659300  0.888500  1
  H  H159  1  0.934500  0.659300  0.611500  1
  H  H160  1  0.565500  0.340700  0.111500  1
  H  H161  1  0.216200  0.661200  0.416700  1
  H  H162  1  0.283800  0.338800  0.916700  1
  H  H163  1  0.783800  0.338800  0.583300  1
  H  H164  1  0.716200  0.661200  0.083300  1
  H  H165  1  0.009200  0.614900  0.338100  1
  H  H166  1  0.490800  0.385100  0.838100  1
  H  H167  1  0.990800  0.385100  0.661900  1
  H  H168  1  0.509200  0.614900  0.161900  1
  H  H169  1  0.582100  0.133900  0.475600  1
  H  H170  1  0.917900  0.866100  0.975600  1
  H  H171  1  0.417900  0.866100  0.524400  1
  H  H172  1  0.082100  0.133900  0.024400  1
  H  H173  1  0.646300  0.175400  0.503400  1
  H  H174  1  0.853700  0.824600  0.003400  1
  H  H175  1  0.353700  0.824600  0.496600  1
  H  H176  1  0.146300  0.175400  0.996600  1
  H  H177  1  0.739200  0.309600  0.508000  1
  H  H178  1  0.760800  0.690400  0.008000  1
  H  H179  1  0.260800  0.690400  0.492000  1
  H  H180  1  0.239200  0.309600  0.992000  1
  H  H181  1  0.769300  0.391100  0.481200  1
  H  H182  1  0.730700  0.608900  0.981200  1
  H  H183  1  0.230700  0.608900  0.518800  1
  H  H184  1  0.269300  0.391100  0.018800  1
  H  H185  1  0.659500  0.336200  0.437500  1
  H  H186  1  0.840500  0.663800  0.937500  1
  H  H187  1  0.340500  0.663800  0.562500  1
  H  H188  1  0.159500  0.336200  0.062500  1
  H  H189  1  0.702500  0.411800  0.450200  1
  H  H190  1  0.797500  0.588200  0.950200  1
  H  H191  1  0.297500  0.588200  0.549800  1
  H  H192  1  0.202500  0.411800  0.049800  1
  H  H193  1  0.801300  0.328900  0.432400  1
  H  H194  1  0.698700  0.671100  0.932400  1
  H  H195  1  0.198700  0.671100  0.567600  1
  H  H196  1  0.301300  0.328900  0.067600  1
  H  H197  1  0.848400  0.392700  0.448100  1
  H  H198  1  0.651600  0.607300  0.948100  1
  H  H199  1  0.151600  0.607300  0.551900  1
  H  H200  1  0.348400  0.392700  0.051900  1
  H  H201  1  0.888000  0.572100  0.412700  1
  H  H202  1  0.612000  0.427900  0.912700  1
  H  H203  1  0.112000  0.427900  0.587300  1
  H  H204  1  0.388000  0.572100  0.087300  1
  H  H205  1  0.105300  0.090000  0.426200  1
  H  H206  1  0.394700  0.910000  0.926200  1
  H  H207  1  0.894700  0.910000  0.573800  1
  H  H208  1  0.605300  0.090000  0.073800  1
  H  H209  1  0.198700  0.165100  0.403300  1
  H  H210  1  0.301300  0.834900  0.903300  1
  H  H211  1  0.801300  0.834900  0.596700  1
  H  H212  1  0.698700  0.165100  0.096700  1
  H  H213  1  0.217800  0.116500  0.377400  1
  H  H214  1  0.282200  0.883500  0.877400  1
  H  H215  1  0.782200  0.883500  0.622600  1
  H  H216  1  0.717800  0.116500  0.122600  1
  H  H217  1  0.128000  0.985200  0.368800  1
  H  H218  1  0.372000  0.014800  0.868800  1
  H  H219  1  0.872000  0.014800  0.631200  1
  H  H220  1  0.628000  0.985200  0.131200  1
  H  H221  1  0.949300  0.854200  0.403400  1
  H  H222  1  0.550700  0.145800  0.903400  1
  H  H223  1  0.050700  0.145800  0.596600  1
  H  H224  1  0.449300  0.854200  0.096600  1
  H  H225  1  0.942200  0.884700  0.382700  1
  H  H226  1  0.557800  0.115300  0.882700  1
  H  H227  1  0.057800  0.115300  0.617300  1
  H  H228  1  0.442200  0.884700  0.117300  1
  H  H229  1  0.073100  0.829700  0.395300  1
  H  H230  1  0.426900  0.170300  0.895300  1
  H  H231  1  0.926900  0.170300  0.604700  1
  H  H232  1  0.573100  0.829700  0.104700  1
  H  H233  1  0.064800  0.859100  0.374600  1
  H  H234  1  0.435200  0.140900  0.874600  1
  H  H235  1  0.935200  0.140900  0.625400  1
  H  H236  1  0.564800  0.859100  0.125400  1
  H  H237  1  0.857100  0.650700  0.361800  1
  H  H238  1  0.642900  0.349300  0.861800  1
  H  H239  1  0.142900  0.349300  0.638200  1
  H  H240  1  0.357100  0.650700  0.138200  1
  H  H241  1  0.472100  0.361600  0.265200  1
  H  H242  1  0.027900  0.638400  0.765200  1
  H  H243  1  0.527900  0.638400  0.734800  1
  H  H244  1  0.972100  0.361600  0.234800  1
  H  H245  1  0.437700  0.235600  0.266500  1
  H  H246  1  0.062300  0.764400  0.766500  1
  H  H247  1  0.562300  0.764400  0.733500  1
  H  H248  1  0.937700  0.235600  0.233500  1
  H  H249  1  0.445100  0.165400  0.293000  1
  H  H250  1  0.054900  0.834600  0.793000  1
  H  H251  1  0.554900  0.834600  0.707000  1
  H  H252  1  0.945100  0.165400  0.207000  1
  H  H253  1  0.530400  0.253300  0.317900  1
  H  H254  1  0.969600  0.746700  0.817900  1
  H  H255  1  0.469600  0.746700  0.682100  1
  H  H256  1  0.030400  0.253300  0.182100  1
  H  H257  1  0.570600  0.451600  0.321900  1
  H  H258  1  0.929400  0.548400  0.821900  1
  H  H259  1  0.429400  0.548400  0.678100  1
  H  H260  1  0.070600  0.451600  0.178100  1
  H  H261  1  0.552500  0.374000  0.333800  1
  H  H262  1  0.947500  0.626000  0.833800  1
  H  H263  1  0.447500  0.626000  0.666200  1
  H  H264  1  0.052500  0.374000  0.166200  1
  H  H265  1  0.713300  0.459100  0.314000  1
  H  H266  1  0.786700  0.540900  0.814000  1
  H  H267  1  0.286700  0.540900  0.686000  1
  H  H268  1  0.213300  0.459100  0.186000  1
  H  H269  1  0.694100  0.370700  0.319900  1
  H  H270  1  0.805900  0.629300  0.819900  1
  H  H271  1  0.305900  0.629300  0.680100  1
  H  H272  1  0.194100  0.370700  0.180100  1
  H  H273  1  0.730800  0.422700  0.374700  1
  H  H274  1  0.769200  0.577300  0.874700  1
  H  H275  1  0.269200  0.577300  0.625300  1
  H  H276  1  0.230800  0.422700  0.125300  1
  H  H277  1  0.493800  0.023300  0.428000  1
  H  H278  1  0.006200  0.976700  0.928000  1
  H  H279  1  0.506200  0.976700  0.572000  1
  H  H280  1  0.993800  0.023300  0.072000  1
  H  H281  1  0.413400  0.941200  0.405400  1
  H  H282  1  0.086600  0.058800  0.905400  1
  H  H283  1  0.586600  0.058800  0.594600  1
  H  H284  1  0.913400  0.941200  0.094600  1
  H  H285  1  0.380400  0.995800  0.376600  1
  H  H286  1  0.119600  0.004200  0.876600  1
  H  H287  1  0.619600  0.004200  0.623400  1
  H  H288  1  0.880400  0.995800  0.123400  1
  H  H289  1  0.416400  0.133700  0.375800  1
  H  H290  1  0.083600  0.866300  0.875800  1
  H  H291  1  0.583600  0.866300  0.624200  1
  H  H292  1  0.916400  0.133700  0.124200  1
  H  H293  1  0.552900  0.253000  0.384800  1
  H  H294  1  0.947100  0.747000  0.884800  1
  H  H295  1  0.447100  0.747000  0.615200  1
  H  H296  1  0.052900  0.253000  0.115200  1
  H  H297  1  0.577300  0.264800  0.406400  1
  H  H298  1  0.922700  0.735200  0.906400  1
  H  H299  1  0.422700  0.735200  0.593600  1
  H  H300  1  0.077300  0.264800  0.093600  1
  H  H301  1  0.393100  0.243400  0.393300  1
  H  H302  1  0.106900  0.756600  0.893300  1
  H  H303  1  0.606900  0.756600  0.606700  1
  H  H304  1  0.893100  0.243400  0.106700  1
  H  H305  1  0.433700  0.274500  0.413400  1
  H  H306  1  0.066300  0.725500  0.913400  1
  H  H307  1  0.566300  0.725500  0.586600  1
  H  H308  1  0.933700  0.274500  0.086600  1
  H  H309  1  0.635200  0.543900  0.419000  1
  H  H310  1  0.864800  0.456100  0.919000  1
  H  H311  1  0.364800  0.456100  0.581000  1
  H  H312  1  0.135200  0.543900  0.081000  1
  H  H313  1  0.018300  0.970300  0.472600  1
  H  H314  1  0.481700  0.029700  0.972600  1
  H  H315  1  0.981700  0.029700  0.527400  1
  H  H316  1  0.518300  0.970300  0.027400  1
  H  H317  1  0.969200  0.924800  0.501300  1
  H  H318  1  0.530800  0.075200  0.001300  1
  H  H319  1  0.030800  0.075200  0.498700  1
  H  H320  1  0.469200  0.924800  0.998700  1
  H  H321  1  0.860000  0.797600  0.505000  1
  H  H322  1  0.640000  0.202400  0.005000  1
  H  H323  1  0.140000  0.202400  0.495000  1
  H  H324  1  0.360000  0.797600  0.995000  1
  H  H325  1  0.807800  0.717500  0.479500  1
  H  H326  1  0.692200  0.282500  0.979500  1
  H  H327  1  0.192200  0.282500  0.520500  1
  H  H328  1  0.307800  0.717500  0.020500  1
  H  H329  1  0.888200  0.770100  0.431700  1
  H  H330  1  0.611800  0.229900  0.931700  1
  H  H331  1  0.111800  0.229900  0.568300  1
  H  H332  1  0.388200  0.770100  0.068300  1
  H  H333  1  0.848000  0.694700  0.445000  1
  H  H334  1  0.652000  0.305300  0.945000  1
  H  H335  1  0.152000  0.305300  0.555000  1
  H  H336  1  0.348000  0.694700  0.055000  1
  H  H337  1  0.715200  0.739700  0.451000  1
  H  H338  1  0.784800  0.260300  0.951000  1
  H  H339  1  0.284800  0.260300  0.549000  1
  H  H340  1  0.215200  0.739700  0.049000  1
  H  H341  1  0.750200  0.793300  0.432700  1
  H  H342  1  0.749800  0.206700  0.932700  1
  H  H343  1  0.249800  0.206700  0.567300  1
  H  H344  1  0.250200  0.793300  0.067300  1
  H  H345  1  0.649100  0.685100  0.375500  1
  H  H346  1  0.850900  0.314900  0.875500  1
  H  H347  1  0.350900  0.314900  0.624500  1
  H  H348  1  0.149100  0.685100  0.124500  1
  H  H349  1  0.550500  0.592300  0.254100  1
  H  H350  1  0.949500  0.407700  0.754100  1
  H  H351  1  0.449500  0.407700  0.745900  1
  H  H352  1  0.050500  0.592300  0.245900  1
  H  H353  1  0.586900  0.722000  0.244600  1
  H  H354  1  0.913100  0.278000  0.744600  1
  H  H355  1  0.413100  0.278000  0.755400  1
  H  H356  1  0.086900  0.722000  0.255400  1
  H  H357  1  0.604700  0.821400  0.268600  1
  H  H358  1  0.895300  0.178600  0.768600  1
  H  H359  1  0.395300  0.178600  0.731400  1
  H  H360  1  0.104700  0.821400  0.231400  1
  H  H361  1  0.621000  0.786500  0.299000  1
  H  H362  1  0.879000  0.213500  0.799000  1
  H  H363  1  0.379000  0.213500  0.701000  1
  H  H364  1  0.121000  0.786500  0.201000  1
  H  H365  1  0.677200  0.682700  0.318100  1
  H  H366  1  0.822800  0.317300  0.818100  1
  H  H367  1  0.322800  0.317300  0.681900  1
  H  H368  1  0.177200  0.682700  0.181900  1
  H  H369  1  0.604900  0.596400  0.314400  1
  H  H370  1  0.895100  0.403600  0.814400  1
  H  H371  1  0.395100  0.403600  0.685600  1
  H  H372  1  0.104900  0.596400  0.185600  1
  H  H373  1  0.546000  0.722500  0.325800  1
  H  H374  1  0.954000  0.277500  0.825800  1
  H  H375  1  0.454000  0.277500  0.674200  1
  H  H376  1  0.046000  0.722500  0.174200  1
  H  H377  1  0.479300  0.632600  0.324300  1
  H  H378  1  0.020700  0.367400  0.824300  1
  H  H379  1  0.520700  0.367400  0.675700  1
  H  H380  1  0.979300  0.632600  0.175700  1
  H  H381  1  0.499500  0.456600  0.371400  1
  H  H382  1  0.000500  0.543400  0.871400  1
  H  H383  1  0.500500  0.543400  0.628600  1
  H  H384  1  0.999500  0.456600  0.128600  1
  H  H385  1  0.505400  0.299200  0.459900  1
  H  H386  1  0.994600  0.700800  0.959900  1
  H  H387  1  0.494600  0.700800  0.540100  1
  H  H388  1  0.005400  0.299200  0.040100  1
  H  H389  1  0.351100  0.101000  0.434300  1
  H  H390  1  0.148900  0.899000  0.934300  1
  H  H391  1  0.648900  0.899000  0.565700  1
  H  H392  1  0.851100  0.101000  0.065700  1
  H  H393  1  0.242600  0.155600  0.449800  1
  H  H394  1  0.257400  0.844400  0.949800  1
  H  H395  1  0.757400  0.844400  0.550200  1
  H  H396  1  0.742600  0.155600  0.050200  1
  H  H397  1  0.366900  0.322900  0.479100  1
  H  H398  1  0.133100  0.677100  0.979100  1
  H  H399  1  0.633100  0.677100  0.520900  1
  H  H400  1  0.866900  0.322900  0.020900  1
  H  H401  1  0.264800  0.277200  0.471100  1
  H  H402  1  0.235200  0.722800  0.971100  1
  H  H403  1  0.735200  0.722800  0.528900  1
  H  H404  1  0.764800  0.277200  0.028900  1
  H  H405  1  0.329800  0.413100  0.461900  1
  H  H406  1  0.170200  0.586900  0.961900  1
  H  H407  1  0.670200  0.586900  0.538100  1
  H  H408  1  0.829800  0.413100  0.038100  1
  H  H409  1  0.404300  0.391900  0.449800  1
  H  H410  1  0.095700  0.608100  0.949800  1
  H  H411  1  0.595700  0.608100  0.550200  1
  H  H412  1  0.904300  0.391900  0.050200  1
  H  H413  1  0.210500  0.329700  0.444000  1
  H  H414  1  0.289500  0.670300  0.944000  1
  H  H415  1  0.789500  0.670300  0.556000  1
  H  H416  1  0.710500  0.329700  0.056000  1
  H  H417  1  0.284700  0.307400  0.432000  1
  H  H418  1  0.215300  0.692600  0.932000  1
  H  H419  1  0.715300  0.692600  0.568000  1
  H  H420  1  0.784700  0.307400  0.068000  1
  H  H421  1  0.400800  0.558900  0.421700  1
  H  H422  1  0.099200  0.441100  0.921700  1
  H  H423  1  0.599200  0.441100  0.578300  1
  H  H424  1  0.900800  0.558900  0.078300  1
  H  H425  1  0.870100  0.960800  0.402300  1
  H  H426  1  0.629900  0.039200  0.902300  1
  H  H427  1  0.129900  0.039200  0.597700  1
  H  H428  1  0.370100  0.960800  0.097700  1
  H  H429  1  0.829100  0.955000  0.456000  1
  H  H430  1  0.670900  0.045000  0.956000  1
  H  H431  1  0.170900  0.045000  0.544000  1
  H  H432  1  0.329100  0.955000  0.044000  1
  H  H433  1  0.696400  0.975600  0.442300  1
  H  H434  1  0.803600  0.024400  0.942300  1
  H  H435  1  0.303600  0.024400  0.557700  1
  H  H436  1  0.196400  0.975600  0.057700  1
  H  H437  1  0.722100  0.015500  0.395700  1
  H  H438  1  0.777900  0.984500  0.895700  1
  H  H439  1  0.277900  0.984500  0.604300  1
  H  H440  1  0.222100  0.015500  0.104300  1
  H  H441  1  0.648100  0.000300  0.412100  1
  H  H442  1  0.851900  0.999700  0.912100  1
  H  H443  1  0.351900  0.999700  0.587900  1
  H  H444  1  0.148100  0.000300  0.087900  1
  H  H445  1  0.588700  0.912700  0.387800  1
  H  H446  1  0.911300  0.087300  0.887800  1
  H  H447  1  0.411300  0.087300  0.612200  1
  H  H448  1  0.088700  0.912700  0.112200  1
  H  H449  1  0.672900  0.881600  0.389900  1
  H  H450  1  0.827100  0.118400  0.889900  1
  H  H451  1  0.327100  0.118400  0.610100  1
  H  H452  1  0.172900  0.881600  0.110100  1
  H  H453  1  0.541200  0.868500  0.418200  1
  H  H454  1  0.958800  0.131500  0.918200  1
  H  H455  1  0.458800  0.131500  0.581800  1
  H  H456  1  0.041200  0.868500  0.081800  1
  H  H457  1  0.621300  0.832100  0.418900  1
  H  H458  1  0.878700  0.167900  0.918900  1
  H  H459  1  0.378700  0.167900  0.581100  1
  H  H460  1  0.121300  0.832100  0.081100  1
  H  H461  1  0.408300  0.688900  0.375000  1
  H  H462  1  0.091700  0.311100  0.875000  1
  H  H463  1  0.591700  0.311100  0.625000  1
  H  H464  1  0.908300  0.688900  0.125000  1
  H  H465  1  0.393100  0.452300  0.316900  1
  H  H466  1  0.106900  0.547700  0.816900  1
  H  H467  1  0.606900  0.547700  0.683100  1
  H  H468  1  0.893100  0.452300  0.183100  1
  H  H469  1  0.376300  0.503600  0.265300  1
  H  H470  1  0.123700  0.496400  0.765300  1
  H  H471  1  0.623700  0.496400  0.734700  1
  H  H472  1  0.876300  0.503600  0.234700  1
  H  H473  1  0.218700  0.455100  0.275700  1
  H  H474  1  0.281300  0.544900  0.775700  1
  H  H475  1  0.781300  0.544900  0.724300  1
  H  H476  1  0.718700  0.455100  0.224300  1
  H  H477  1  0.227300  0.394500  0.326900  1
  H  H478  1  0.272700  0.605500  0.826900  1
  H  H479  1  0.772700  0.605500  0.673100  1
  H  H480  1  0.727300  0.394500  0.173100  1
  H  H481  1  0.157800  0.355200  0.310200  1
  H  H482  1  0.342200  0.644800  0.810200  1
  H  H483  1  0.842200  0.644800  0.689800  1
  H  H484  1  0.657800  0.355200  0.189800  1
  H  H485  1  0.125600  0.469800  0.306500  1
  H  H486  1  0.374400  0.530200  0.806500  1
  H  H487  1  0.874400  0.530200  0.693500  1
  H  H488  1  0.625600  0.469800  0.193500  1
  H  H489  1  0.096600  0.432900  0.326500  1
  H  H490  1  0.403400  0.567100  0.826500  1
  H  H491  1  0.903400  0.567100  0.673500  1
  H  H492  1  0.596600  0.432900  0.173500  1
  H  H493  1  0.159600  0.564900  0.327700  1
  H  H494  1  0.340400  0.435100  0.827700  1
  H  H495  1  0.840400  0.435100  0.672300  1
  H  H496  1  0.659600  0.564900  0.172300  1
  H  H497  1  0.253500  0.563500  0.318600  1
  H  H498  1  0.246500  0.436500  0.818600  1
  H  H499  1  0.746500  0.436500  0.681400  1
  H  H500  1  0.753500  0.563500  0.181400  1
  H  H501  1  0.263200  0.458300  0.375400  1
  H  H502  1  0.236800  0.541700  0.875400  1
  H  H503  1  0.736800  0.541700  0.624600  1
  H  H504  1  0.763200  0.458300  0.124600  1
  H  H505  1  0.704500  0.188700  0.401000  1
  H  H506  1  0.795500  0.811300  0.901000  1
  H  H507  1  0.295500  0.811300  0.599000  1
  H  H508  1  0.204500  0.188700  0.099000  1
  H  H509  1  0.763600  0.155000  0.454000  1
  H  H510  1  0.736400  0.845000  0.954000  1
  H  H511  1  0.236400  0.845000  0.546000  1
  H  H512  1  0.263600  0.155000  0.046000  1
  H  H513  1  0.895700  0.162500  0.433600  1
  H  H514  1  0.604300  0.837500  0.933600  1
  H  H515  1  0.104300  0.837500  0.566400  1
  H  H516  1  0.395700  0.162500  0.066400  1
  H  H517  1  0.882600  0.234300  0.391200  1
  H  H518  1  0.617400  0.765700  0.891200  1
  H  H519  1  0.117400  0.765700  0.608800  1
  H  H520  1  0.382600  0.234300  0.108800  1
  H  H521  1  0.859900  0.142900  0.390600  1
  H  H522  1  0.640100  0.857100  0.890600  1
  H  H523  1  0.140100  0.857100  0.609400  1
  H  H524  1  0.359900  0.142900  0.109400  1
  H  H525  1  0.994700  0.155900  0.407900  1
  H  H526  1  0.505300  0.844100  0.907900  1
  H  H527  1  0.005300  0.844100  0.592100  1
  H  H528  1  0.494700  0.155900  0.092100  1
  H  H529  1  0.024400  0.214700  0.390600  1
  H  H530  1  0.475600  0.785300  0.890600  1
  H  H531  1  0.975600  0.785300  0.609400  1
  H  H532  1  0.524400  0.214700  0.109400  1
  H  H533  1  0.085900  0.274400  0.421800  1
  H  H534  1  0.414100  0.725600  0.921800  1
  H  H535  1  0.914100  0.725600  0.578200  1
  H  H536  1  0.585900  0.274400  0.078200  1
  H  H537  1  0.981600  0.273500  0.425300  1
  H  H538  1  0.518400  0.726500  0.925300  1
  H  H539  1  0.018400  0.726500  0.574700  1
  H  H540  1  0.481600  0.273500  0.074700  1
  H  H541  1  0.969600  0.417900  0.372500  1
  H  H542  1  0.530400  0.582100  0.872500  1
  H  H543  1  0.030400  0.582100  0.627500  1
  H  H544  1  0.469600  0.417900  0.127500  1
  H  H545  1  0.073900  0.787800  0.435900  1
  H  H546  1  0.426100  0.212200  0.935900  1
  H  H547  1  0.926100  0.212200  0.564100  1
  H  H548  1  0.573900  0.787800  0.064100  1
  H  H549  1  0.200900  0.006600  0.449800  1
  H  H550  1  0.299100  0.993400  0.949800  1
  H  H551  1  0.799100  0.993400  0.550200  1
  H  H552  1  0.700900  0.006600  0.050200  1
  H  H553  1  0.309300  0.935200  0.455000  1
  H  H554  1  0.190700  0.064800  0.955000  1
  H  H555  1  0.690700  0.064800  0.545000  1
  H  H556  1  0.809300  0.935200  0.045000  1
  H  H557  1  0.189100  0.726700  0.446100  1
  H  H558  1  0.310900  0.273300  0.946100  1
  H  H559  1  0.810900  0.273300  0.553900  1
  H  H560  1  0.689100  0.726700  0.053900  1
  H  H561  1  0.266600  0.778600  0.460300  1
  H  H562  1  0.233400  0.221400  0.960300  1
  H  H563  1  0.733400  0.221400  0.539700  1
  H  H564  1  0.766600  0.778600  0.039700  1
  H  H565  1  0.371000  0.835200  0.434500  1
  H  H566  1  0.129000  0.164800  0.934500  1
  H  H567  1  0.629000  0.164800  0.565500  1
  H  H568  1  0.871000  0.835200  0.065500  1
  H  H569  1  0.344000  0.742700  0.434700  1
  H  H570  1  0.156000  0.257300  0.934700  1
  H  H571  1  0.656000  0.257300  0.565300  1
  H  H572  1  0.844000  0.742700  0.065300  1
  H  H573  1  0.343500  0.796300  0.406300  1
  H  H574  1  0.156500  0.203700  0.906300  1
  H  H575  1  0.656500  0.203700  0.593700  1
  H  H576  1  0.843500  0.796300  0.093700  1
  H  H577  1  0.257800  0.819300  0.413000  1
  H  H578  1  0.242200  0.180700  0.913000  1
  H  H579  1  0.742200  0.180700  0.587000  1
  H  H580  1  0.757800  0.819300  0.087000  1
  H  H581  1  0.122700  0.553800  0.412400  1
  H  H582  1  0.377300  0.446200  0.912400  1
  H  H583  1  0.877300  0.446200  0.587600  1
  H  H584  1  0.622700  0.553800  0.087600  1
  H  H585  1  0.759600  0.624200  0.292100  1
  H  H586  1  0.740400  0.375800  0.792100  1
  H  H587  1  0.240400  0.375800  0.707900  1
  H  H588  1  0.259600  0.624200  0.207900  1
  H  H589  1  0.693400  0.420500  0.268500  1
  H  H590  1  0.806600  0.579500  0.768500  1
  H  H591  1  0.306600  0.579500  0.731500  1
  H  H592  1  0.193400  0.420500  0.231500  1
  H  H593  1  0.858800  0.471600  0.269500  1
  H  H594  1  0.641200  0.528400  0.769500  1
  H  H595  1  0.141200  0.528400  0.730500  1
  H  H596  1  0.358800  0.471600  0.230500  1
  H  H597  1  0.936600  0.676100  0.280400  1
  H  H598  1  0.563400  0.323900  0.780400  1
  H  H599  1  0.063400  0.323900  0.719600  1
  H  H600  1  0.436600  0.676100  0.219600  1
  H  H601  1  0.981100  0.610100  0.278300  1
  H  H602  1  0.518900  0.389900  0.778300  1
  H  H603  1  0.018900  0.389900  0.721700  1
  H  H604  1  0.481100  0.610100  0.221700  1
  H  H605  1  0.025400  0.674400  0.307500  1
  H  H606  1  0.474600  0.325600  0.807500  1
  H  H607  1  0.974600  0.325600  0.692500  1
  H  H608  1  0.525400  0.674400  0.192500  1
  H  H609  1  0.918800  0.653800  0.313000  1
  H  H610  1  0.581200  0.346200  0.813000  1
  H  H611  1  0.081200  0.346200  0.687000  1
  H  H612  1  0.418800  0.653800  0.187000  1
  H  H613  1  0.897300  0.519500  0.314100  1
  H  H614  1  0.602700  0.480500  0.814100  1
  H  H615  1  0.102700  0.480500  0.685900  1
  H  H616  1  0.397300  0.519500  0.185900  1
  H  H617  1  0.003000  0.539000  0.308200  1
  H  H618  1  0.497000  0.461000  0.808200  1
  H  H619  1  0.997000  0.461000  0.691800  1
  H  H620  1  0.503000  0.539000  0.191800  1
  H  H621  1  0.088400  0.642200  0.362000  1
  H  H622  1  0.411600  0.357800  0.862000  1
  H  H623  1  0.911600  0.357800  0.638000  1
  H  H624  1  0.588400  0.642200  0.138000  1
  H  H625  1  0.447200  0.856200  0.651300  1
  H  H626  1  0.052800  0.143800  0.151300  1
  H  H627  1  0.552800  0.143800  0.348700  1
  H  H628  1  0.947200  0.856200  0.848700  1
  H  H629  1  0.362800  0.837200  0.665600  1
  H  H630  1  0.137200  0.162800  0.165600  1
  H  H631  1  0.637200  0.162800  0.334400  1
  H  H632  1  0.862800  0.837200  0.834400  1
  H  H633  1  0.401900  0.770600  0.659900  1
  H  H634  1  0.098100  0.229400  0.159900  1
  H  H635  1  0.598100  0.229400  0.340100  1
  H  H636  1  0.901900  0.770600  0.840100  1
  H  H637  1  0.202300  0.718800  0.628900  1
  H  H638  1  0.297700  0.281200  0.128900  1
  H  H639  1  0.797700  0.281200  0.371100  1
  H  H640  1  0.702300  0.718800  0.871100  1
  H  H641  1  0.229500  0.669200  0.644600  1
  H  H642  1  0.270500  0.330800  0.144600  1
  H  H643  1  0.770500  0.330800  0.355400  1
  H  H644  1  0.729500  0.669200  0.855400  1
  H  H645  1  0.190400  0.735800  0.650300  1
  H  H646  1  0.309600  0.264200  0.150300  1
  H  H647  1  0.809600  0.264200  0.349700  1
  H  H648  1  0.690400  0.735800  0.849700  1
  Pd  Pd649  1  0.578330  0.182700  0.437890  1
  Pd  Pd650  1  0.921670  0.817300  0.937890  1
  Pd  Pd651  1  0.421670  0.817300  0.562110  1
  Pd  Pd652  1  0.078330  0.182700  0.062110  1
  Pd  Pd653  1  0.996410  0.929920  0.434600  1
  Pd  Pd654  1  0.503590  0.070080  0.934600  1
  Pd  Pd655  1  0.003590  0.070080  0.565400  1
  Pd  Pd656  1  0.496410  0.929920  0.065400  1
  Pd  Pd657  1  0.555370  0.503160  0.286310  1
  Pd  Pd658  1  0.944630  0.496840  0.786310  1
  Pd  Pd659  1  0.444630  0.496840  0.713690  1
  Pd  Pd660  1  0.055370  0.503160  0.213690  1
  C  C661  1  0.607100  0.538400  0.458200  1
  C  C662  1  0.892900  0.461600  0.958200  1
  C  C663  1  0.392900  0.461600  0.541800  1
  C  C664  1  0.107100  0.538400  0.041800  1
  C  C665  1  0.666200  0.536000  0.493900  1
  C  C666  1  0.833800  0.464000  0.993900  1
  C  C667  1  0.333800  0.464000  0.506100  1
  C  C668  1  0.166200  0.536000  0.006100  1
  C  C669  1  0.573300  0.795300  0.466100  1
  C  C670  1  0.926700  0.204700  0.966100  1
  C  C671  1  0.426700  0.204700  0.533900  1
  C  C672  1  0.073300  0.795300  0.033900  1
  C  C673  1  0.452500  0.656300  0.475700  1
  C  C674  1  0.047500  0.343700  0.975700  1
  C  C675  1  0.547500  0.343700  0.524300  1
  C  C676  1  0.952500  0.656300  0.024300  1
  C  C677  1  0.389200  0.816300  0.655500  1
  C  C678  1  0.110800  0.183700  0.155500  1
  C  C679  1  0.610800  0.183700  0.344500  1
  C  C680  1  0.889200  0.816300  0.844500  1
  C  C681  1  0.228600  0.720700  0.641400  1
  C  C682  1  0.271400  0.279300  0.141400  1
  C  C683  1  0.771400  0.279300  0.358600  1
  C  C684  1  0.728600  0.720700  0.858600  1
  C  C685  1  0.997000  0.336200  0.528200  1
  C  C686  1  0.503000  0.663800  0.028200  1
  C  C687  1  0.003000  0.663800  0.471800  1
  C  C688  1  0.497000  0.336200  0.971800  1
  C  C689  1  0.989700  0.423400  0.555700  1
  C  C690  1  0.510300  0.576600  0.055700  1
  C  C691  1  0.010300  0.576600  0.444300  1
  C  C692  1  0.489700  0.423400  0.944300  1
  C  C693  1  0.667200  0.665200  0.643900  1
  C  C694  1  0.832800  0.334800  0.143900  1
  C  C695  1  0.332800  0.334800  0.356100  1
  C  C696  1  0.167200  0.665200  0.856100  1
  C  C697  1  0.698600  0.763200  0.671300  1
  C  C698  1  0.801400  0.236800  0.171300  1
  C  C699  1  0.301400  0.236800  0.328700  1
  C  C700  1  0.198600  0.763200  0.828700  1
  C  C701  1  0.700000  0.331000  0.741100  1
  C  C702  1  0.800000  0.669000  0.241100  1
  C  C703  1  0.300000  0.669000  0.258900  1
  C  C704  1  0.200000  0.331000  0.758900  1
  C  C705  1  0.620000  0.231700  0.717200  1
  C  C706  1  0.880000  0.768300  0.217200  1
  C  C707  1  0.380000  0.768300  0.282800  1
  C  C708  1  0.120000  0.231700  0.782800  1
  C  C709  1  0.622100  0.186700  0.476800  1
  C  C710  1  0.877900  0.813300  0.976800  1
  C  C711  1  0.377900  0.813300  0.523200  1
  C  C712  1  0.122100  0.186700  0.023200  1
  C  C713  1  0.658100  0.211200  0.493400  1
  C  C714  1  0.841900  0.788800  0.993400  1
  C  C715  1  0.341900  0.788800  0.506600  1
  C  C716  1  0.158100  0.211200  0.006600  1
  C  C717  1  0.714000  0.290100  0.496200  1
  C  C718  1  0.786000  0.709900  0.996200  1
  C  C719  1  0.286000  0.709900  0.503800  1
  C  C720  1  0.214000  0.290100  0.003800  1
  C  C721  1  0.729800  0.338000  0.480400  1
  C  C722  1  0.770200  0.662000  0.980400  1
  C  C723  1  0.270200  0.662000  0.519600  1
  C  C724  1  0.229800  0.338000  0.019600  1
  C  C725  1  0.689400  0.309000  0.464300  1
  C  C726  1  0.810600  0.691000  0.964300  1
  C  C727  1  0.310600  0.691000  0.535700  1
  C  C728  1  0.189400  0.309000  0.035700  1
  C  C729  1  0.708000  0.361400  0.446800  1
  C  C730  1  0.792000  0.638600  0.946800  1
  C  C731  1  0.292000  0.638600  0.553200  1
  C  C732  1  0.208000  0.361400  0.053200  1
  C  C733  1  0.799600  0.376700  0.438400  1
  C  C734  1  0.700400  0.623300  0.938400  1
  C  C735  1  0.200400  0.623300  0.561600  1
  C  C736  1  0.299600  0.376700  0.061600  1
  C  C737  1  0.781300  0.420000  0.407200  1
  C  C738  1  0.718700  0.580000  0.907200  1
  C  C739  1  0.218700  0.580000  0.592800  1
  C  C740  1  0.281300  0.420000  0.092800  1
  C  C741  1  0.805500  0.486700  0.395850  1
  C  C742  1  0.694500  0.513300  0.895850  1
  C  C743  1  0.194500  0.513300  0.604150  1
  C  C744  1  0.305500  0.486700  0.104150  1
  C  C745  1  0.862400  0.562500  0.400620  1
  C  C746  1  0.637600  0.437500  0.900620  1
  C  C747  1  0.137600  0.437500  0.599380  1
  C  C748  1  0.362400  0.562500  0.099380  1
  C  C749  1  0.110500  0.066300  0.414800  1
  C  C750  1  0.389500  0.933700  0.914800  1
  C  C751  1  0.889500  0.933700  0.585200  1
  C  C752  1  0.610500  0.066300  0.085200  1
  C  C753  1  0.166300  0.111300  0.401100  1
  C  C754  1  0.333700  0.888700  0.901100  1
  C  C755  1  0.833700  0.888700  0.598900  1
  C  C756  1  0.666300  0.111300  0.098900  1
  C  C757  1  0.175300  0.083500  0.386000  1
  C  C758  1  0.324700  0.916500  0.886000  1
  C  C759  1  0.824700  0.916500  0.614000  1
  C  C760  1  0.675300  0.083500  0.114000  1
  C  C761  1  0.126000  0.005500  0.380800  1
  C  C762  1  0.374000  0.994500  0.880800  1
  C  C763  1  0.874000  0.994500  0.619200  1
  C  C764  1  0.626000  0.005500  0.119200  1
  C  C765  1  0.070900  0.958600  0.396600  1
  C  C766  1  0.429100  0.041400  0.896600  1
  C  C767  1  0.929100  0.041400  0.603400  1
  C  C768  1  0.570900  0.958600  0.103400  1
  C  C769  1  0.985000  0.877000  0.392100  1
  C  C770  1  0.515000  0.123000  0.892100  1
  C  C771  1  0.015000  0.123000  0.607900  1
  C  C772  1  0.485000  0.877000  0.107900  1
  C  C773  1  0.029000  0.835100  0.385800  1
  C  C774  1  0.471000  0.164900  0.885800  1
  C  C775  1  0.971000  0.164900  0.614200  1
  C  C776  1  0.529000  0.835100  0.114200  1
  C  C777  1  0.941500  0.700300  0.394500  1
  C  C778  1  0.558500  0.299700  0.894500  1
  C  C779  1  0.058500  0.299700  0.605500  1
  C  C780  1  0.441500  0.700300  0.105500  1
  C  C781  1  0.882700  0.624600  0.388100  1
  C  C782  1  0.617300  0.375400  0.888100  1
  C  C783  1  0.117300  0.375400  0.611900  1
  C  C784  1  0.382700  0.624600  0.111900  1
  C  C785  1  0.844100  0.609000  0.370400  1
  C  C786  1  0.655900  0.391000  0.870400  1
  C  C787  1  0.155900  0.391000  0.629600  1
  C  C788  1  0.344100  0.609000  0.129600  1
  C  C789  1  0.484900  0.339900  0.276400  1
  C  C790  1  0.015100  0.660100  0.776400  1
  C  C791  1  0.515100  0.660100  0.723600  1
  C  C792  1  0.984900  0.339900  0.223600  1
  C  C793  1  0.461700  0.263900  0.277500  1
  C  C794  1  0.038300  0.736100  0.777500  1
  C  C795  1  0.538300  0.736100  0.722500  1
  C  C796  1  0.961700  0.263900  0.222500  1
  C  C797  1  0.467600  0.220700  0.292300  1
  C  C798  1  0.032400  0.779300  0.792300  1
  C  C799  1  0.532400  0.779300  0.707700  1
  C  C800  1  0.967600  0.220700  0.207700  1
  C  C801  1  0.514800  0.274300  0.307000  1
  C  C802  1  0.985200  0.725700  0.807000  1
  C  C803  1  0.485200  0.725700  0.693000  1
  C  C804  1  0.014800  0.274300  0.193000  1
  C  C805  1  0.538300  0.353500  0.305900  1
  C  C806  1  0.961700  0.646500  0.805900  1
  C  C807  1  0.461700  0.646500  0.694100  1
  C  C808  1  0.038300  0.353500  0.194100  1
  C  C809  1  0.581900  0.401900  0.322400  1
  C  C810  1  0.918100  0.598100  0.822400  1
  C  C811  1  0.418100  0.598100  0.677600  1
  C  C812  1  0.081900  0.401900  0.177600  1
  C  C813  1  0.681700  0.418400  0.323200  1
  C  C814  1  0.818300  0.581600  0.823200  1
  C  C815  1  0.318300  0.581600  0.676800  1
  C  C816  1  0.181700  0.418400  0.176800  1
  C  C817  1  0.753900  0.519100  0.345600  1
  C  C818  1  0.746100  0.480900  0.845600  1
  C  C819  1  0.246100  0.480900  0.654400  1
  C  C820  1  0.253900  0.519100  0.154400  1
  C  C821  1  0.786900  0.534300  0.364800  1
  C  C822  1  0.713100  0.465700  0.864800  1
  C  C823  1  0.213100  0.465700  0.635200  1
  C  C824  1  0.286900  0.534300  0.135200  1
  C  C825  1  0.769200  0.474100  0.378140  1
  C  C826  1  0.730800  0.525900  0.878140  1
  C  C827  1  0.230800  0.525900  0.621860  1
  C  C828  1  0.269200  0.474100  0.121860  1
  C  C829  1  0.481000  0.044400  0.416800  1
  C  C830  1  0.019000  0.955600  0.916800  1
  C  C831  1  0.519000  0.955600  0.583200  1
  C  C832  1  0.981000  0.044400  0.083200  1
  C  C833  1  0.432900  0.995900  0.403700  1
  C  C834  1  0.067100  0.004100  0.903700  1
  C  C835  1  0.567100  0.004100  0.596300  1
  C  C836  1  0.932900  0.995900  0.096300  1
  C  C837  1  0.410300  0.028200  0.386700  1
  C  C838  1  0.089700  0.971800  0.886700  1
  C  C839  1  0.589700  0.971800  0.613300  1
  C  C840  1  0.910300  0.028200  0.113300  1
  C  C841  1  0.435100  0.109700  0.385900  1
  C  C842  1  0.064900  0.890300  0.885900  1
  C  C843  1  0.564900  0.890300  0.614100  1
  C  C844  1  0.935100  0.109700  0.114100  1
  C  C845  1  0.487000  0.154000  0.400200  1
  C  C846  1  0.013000  0.846000  0.900200  1
  C  C847  1  0.513000  0.846000  0.599800  1
  C  C848  1  0.987000  0.154000  0.099800  1
  C  C849  1  0.526700  0.241000  0.397400  1
  C  C850  1  0.973300  0.759000  0.897400  1
  C  C851  1  0.473300  0.759000  0.602600  1
  C  C852  1  0.026700  0.241000  0.102600  1
  C  C853  1  0.449700  0.275100  0.400100  1
  C  C854  1  0.050300  0.724900  0.900100  1
  C  C855  1  0.550300  0.724900  0.599900  1
  C  C856  1  0.949700  0.275100  0.099900  1
  C  C857  1  0.527500  0.407300  0.405800  1
  C  C858  1  0.972500  0.592700  0.905800  1
  C  C859  1  0.472500  0.592700  0.594200  1
  C  C860  1  0.027500  0.407300  0.094200  1
  C  C861  1  0.563000  0.487700  0.396600  1
  C  C862  1  0.937000  0.512300  0.896600  1
  C  C863  1  0.437000  0.512300  0.603400  1
  C  C864  1  0.063000  0.487700  0.103400  1
  C  C865  1  0.619500  0.551100  0.406600  1
  C  C866  1  0.880500  0.448900  0.906600  1
  C  C867  1  0.380500  0.448900  0.593400  1
  C  C868  1  0.119500  0.551100  0.093400  1
  C  C869  1  0.974100  0.919000  0.473900  1
  C  C870  1  0.525900  0.081000  0.973900  1
  C  C871  1  0.025900  0.081000  0.526100  1
  C  C872  1  0.474100  0.919000  0.026100  1
  C  C873  1  0.945900  0.892700  0.490800  1
  C  C874  1  0.554100  0.107300  0.990800  1
  C  C875  1  0.054100  0.107300  0.509200  1
  C  C876  1  0.445900  0.892700  0.009200  1
  C  C877  1  0.881000  0.816500  0.492900  1
  C  C878  1  0.619000  0.183500  0.992900  1
  C  C879  1  0.119000  0.183500  0.507100  1
  C  C880  1  0.381000  0.816500  0.007100  1
  C  C881  1  0.848300  0.770100  0.478200  1
  C  C882  1  0.651700  0.229900  0.978200  1
  C  C883  1  0.151700  0.229900  0.521800  1
  C  C884  1  0.348300  0.770100  0.021800  1
  C  C885  1  0.877500  0.804100  0.460700  1
  C  C886  1  0.622500  0.195900  0.960700  1
  C  C887  1  0.122500  0.195900  0.539300  1
  C  C888  1  0.377500  0.804100  0.039300  1
  C  C889  1  0.847300  0.747400  0.442400  1
  C  C890  1  0.652700  0.252600  0.942400  1
  C  C891  1  0.152700  0.252600  0.557600  1
  C  C892  1  0.347300  0.747400  0.057600  1
  C  C893  1  0.750200  0.745800  0.439200  1
  C  C894  1  0.749800  0.254200  0.939200  1
  C  C895  1  0.249800  0.254200  0.560800  1
  C  C896  1  0.250200  0.745800  0.060800  1
  C  C897  1  0.710700  0.694300  0.409400  1
  C  C898  1  0.789300  0.305700  0.909400  1
  C  C899  1  0.289300  0.305700  0.590600  1
  C  C900  1  0.210700  0.694300  0.090600  1
  C  C901  1  0.653900  0.625100  0.398800  1
  C  C902  1  0.846100  0.374900  0.898800  1
  C  C903  1  0.346100  0.374900  0.601200  1
  C  C904  1  0.153900  0.625100  0.101200  1
  C  C905  1  0.626900  0.634600  0.380800  1
  C  C906  1  0.873100  0.365400  0.880800  1
  C  C907  1  0.373100  0.365400  0.619200  1
  C  C908  1  0.126900  0.634600  0.119200  1
  C  C909  1  0.569300  0.633700  0.262900  1
  C  C910  1  0.930700  0.366300  0.762900  1
  C  C911  1  0.430700  0.366300  0.737100  1
  C  C912  1  0.069300  0.633700  0.237100  1
  C  C913  1  0.585500  0.709300  0.257300  1
  C  C914  1  0.914500  0.290700  0.757300  1
  C  C915  1  0.414500  0.290700  0.742700  1
  C  C916  1  0.085500  0.709300  0.242700  1
  C  C917  1  0.600900  0.770100  0.271600  1
  C  C918  1  0.899100  0.229900  0.771600  1
  C  C919  1  0.399100  0.229900  0.728400  1
  C  C920  1  0.100900  0.770100  0.228400  1
  C  C921  1  0.609300  0.748400  0.289500  1
  C  C922  1  0.890700  0.251600  0.789500  1
  C  C923  1  0.390700  0.251600  0.710500  1
  C  C924  1  0.109300  0.748400  0.210500  1
  C  C925  1  0.601400  0.673900  0.294400  1
  C  C926  1  0.898600  0.326100  0.794400  1
  C  C927  1  0.398600  0.326100  0.705600  1
  C  C928  1  0.101400  0.673900  0.205600  1
  C  C929  1  0.613300  0.652300  0.313900  1
  C  C930  1  0.886700  0.347700  0.813900  1
  C  C931  1  0.386700  0.347700  0.686100  1
  C  C932  1  0.113300  0.652300  0.186100  1
  C  C933  1  0.543200  0.668100  0.327100  1
  C  C934  1  0.956800  0.331900  0.827100  1
  C  C935  1  0.456800  0.331900  0.672900  1
  C  C936  1  0.043200  0.668100  0.172900  1
  C  C937  1  0.533700  0.577600  0.351400  1
  C  C938  1  0.966300  0.422400  0.851400  1
  C  C939  1  0.466300  0.422400  0.648600  1
  C  C940  1  0.033700  0.577600  0.148600  1
  C  C941  1  0.569100  0.573100  0.370500  1
  C  C942  1  0.930900  0.426900  0.870500  1
  C  C943  1  0.430900  0.426900  0.629500  1
  C  C944  1  0.069100  0.573100  0.129500  1
  C  C945  1  0.538200  0.499800  0.378400  1
  C  C946  1  0.961800  0.500200  0.878400  1
  C  C947  1  0.461800  0.500200  0.621600  1
  C  C948  1  0.038200  0.499800  0.121600  1
  C  C949  1  0.453900  0.255700  0.455790  1
  C  C950  1  0.046100  0.744300  0.955790  1
  C  C951  1  0.546100  0.744300  0.544210  1
  C  C952  1  0.953900  0.255700  0.044210  1
  C  C953  1  0.367800  0.146400  0.441700  1
  C  C954  1  0.132200  0.853600  0.941700  1
  C  C955  1  0.632200  0.853600  0.558300  1
  C  C956  1  0.867800  0.146400  0.058300  1
  C  C957  1  0.308500  0.176900  0.450000  1
  C  C958  1  0.191500  0.823100  0.950000  1
  C  C959  1  0.691500  0.823100  0.550000  1
  C  C960  1  0.808500  0.176900  0.050000  1
  C  C961  1  0.330800  0.303100  0.467630  1
  C  C962  1  0.169200  0.696900  0.967630  1
  C  C963  1  0.669200  0.696900  0.532370  1
  C  C964  1  0.830800  0.303100  0.032370  1
  C  C965  1  0.340200  0.371100  0.454740  1
  C  C966  1  0.159800  0.628900  0.954740  1
  C  C967  1  0.659800  0.628900  0.545260  1
  C  C968  1  0.840200  0.371100  0.045260  1
  C  C969  1  0.274900  0.349500  0.439200  1
  C  C970  1  0.225100  0.650500  0.939200  1
  C  C971  1  0.725100  0.650500  0.560800  1
  C  C972  1  0.774900  0.349500  0.060800  1
  C  C973  1  0.298900  0.421000  0.408100  1
  C  C974  1  0.201100  0.579000  0.908100  1
  C  C975  1  0.701100  0.579000  0.591900  1
  C  C976  1  0.798900  0.421000  0.091900  1
  C  C977  1  0.327800  0.497800  0.399700  1
  C  C978  1  0.172200  0.502200  0.899700  1
  C  C979  1  0.672200  0.502200  0.600300  1
  C  C980  1  0.827800  0.497800  0.100300  1
  C  C981  1  0.385000  0.562600  0.409100  1
  C  C982  1  0.115000  0.437400  0.909100  1
  C  C983  1  0.615000  0.437400  0.590900  1
  C  C984  1  0.885000  0.562600  0.090900  1
  C  C985  1  0.845900  0.962900  0.414300  1
  C  C986  1  0.654100  0.037100  0.914300  1
  C  C987  1  0.154100  0.037100  0.585700  1
  C  C988  1  0.345900  0.962900  0.085700  1
  C  C989  1  0.820900  0.960500  0.443100  1
  C  C990  1  0.679100  0.039500  0.943100  1
  C  C991  1  0.179100  0.039500  0.556900  1
  C  C992  1  0.320900  0.960500  0.056900  1
  C  C993  1  0.747400  0.970200  0.435900  1
  C  C994  1  0.752600  0.029800  0.935900  1
  C  C995  1  0.252600  0.029800  0.564100  1
  C  C996  1  0.247400  0.970200  0.064100  1
  C  C997  1  0.689500  0.978300  0.405500  1
  C  C998  1  0.810500  0.021700  0.905500  1
  C  C999  1  0.310500  0.021700  0.594500  1
  C  C1000  1  0.189500  0.978300  0.094500  1
  C  C1001  1  0.631900  0.903100  0.396800  1
  C  C1002  1  0.868100  0.096900  0.896800  1
  C  C1003  1  0.368100  0.096900  0.603200  1
  C  C1004  1  0.131900  0.903100  0.103200  1
  C  C1005  1  0.578200  0.845500  0.410600  1
  C  C1006  1  0.921800  0.154500  0.910600  1
  C  C1007  1  0.421800  0.154500  0.589400  1
  C  C1008  1  0.078200  0.845500  0.089400  1
  C  C1009  1  0.487100  0.704300  0.409700  1
  C  C1010  1  0.012900  0.295700  0.909700  1
  C  C1011  1  0.512900  0.295700  0.590300  1
  C  C1012  1  0.987100  0.704300  0.090300  1
  C  C1013  1  0.420000  0.635300  0.399400  1
  C  C1014  1  0.080000  0.364700  0.899400  1
  C  C1015  1  0.580000  0.364700  0.600600  1
  C  C1016  1  0.920000  0.635300  0.100600  1
  C  C1017  1  0.388200  0.640300  0.381300  1
  C  C1018  1  0.111800  0.359700  0.881300  1
  C  C1019  1  0.611800  0.359700  0.618700  1
  C  C1020  1  0.888200  0.640300  0.118700  1
  C  C1021  1  0.368800  0.457600  0.305200  1
  C  C1022  1  0.131200  0.542400  0.805200  1
  C  C1023  1  0.631200  0.542400  0.694800  1
  C  C1024  1  0.868800  0.457600  0.194800  1
  C  C1025  1  0.359600  0.485400  0.277600  1
  C  C1026  1  0.140400  0.514600  0.777600  1
  C  C1027  1  0.640400  0.514600  0.722400  1
  C  C1028  1  0.859600  0.485400  0.222400  1
  C  C1029  1  0.272300  0.459200  0.282800  1
  C  C1030  1  0.227700  0.540800  0.782800  1
  C  C1031  1  0.727700  0.540800  0.717200  1
  C  C1032  1  0.772300  0.459200  0.217200  1
  C  C1033  1  0.201600  0.405200  0.315000  1
  C  C1034  1  0.298400  0.594800  0.815000  1
  C  C1035  1  0.798400  0.594800  0.685000  1
  C  C1036  1  0.701600  0.405200  0.185000  1
  C  C1037  1  0.150500  0.460000  0.318500  1
  C  C1038  1  0.349500  0.540000  0.818500  1
  C  C1039  1  0.849500  0.540000  0.681500  1
  C  C1040  1  0.650500  0.460000  0.181500  1
  C  C1041  1  0.201100  0.534600  0.326800  1
  C  C1042  1  0.298900  0.465400  0.826800  1
  C  C1043  1  0.798900  0.465400  0.673200  1
  C  C1044  1  0.701100  0.534600  0.173200  1
  C  C1045  1  0.299700  0.585700  0.353200  1
  C  C1046  1  0.200300  0.414300  0.853200  1
  C  C1047  1  0.700300  0.414300  0.646800  1
  C  C1048  1  0.799700  0.585700  0.146800  1
  C  C1049  1  0.327800  0.574400  0.372700  1
  C  C1050  1  0.172200  0.425600  0.872700  1
  C  C1051  1  0.672200  0.425600  0.627300  1
  C  C1052  1  0.827800  0.574400  0.127300  1
  C  C1053  1  0.301000  0.503900  0.381700  1
  C  C1054  1  0.199000  0.496100  0.881700  1
  C  C1055  1  0.699000  0.496100  0.618300  1
  C  C1056  1  0.801000  0.503900  0.118300  1
  C  C1057  1  0.734700  0.181800  0.412000  1
  C  C1058  1  0.765300  0.818200  0.912000  1
  C  C1059  1  0.265300  0.818200  0.588000  1
  C  C1060  1  0.234700  0.181800  0.088000  1
  C  C1061  1  0.767200  0.162900  0.441000  1
  C  C1062  1  0.732800  0.837100  0.941000  1
  C  C1063  1  0.232800  0.837100  0.559000  1
  C  C1064  1  0.267200  0.162900  0.059000  1
  C  C1065  1  0.839400  0.167600  0.429600  1
  C  C1066  1  0.660600  0.832400  0.929600  1
  C  C1067  1  0.160600  0.832400  0.570400  1
  C  C1068  1  0.339400  0.167600  0.070400  1
  C  C1069  1  0.884500  0.189600  0.398500  1
  C  C1070  1  0.615500  0.810400  0.898500  1
  C  C1071  1  0.115500  0.810400  0.601500  1
  C  C1072  1  0.384500  0.189600  0.101500  1
  C  C1073  1  0.988900  0.203200  0.402400  1
  C  C1074  1  0.511100  0.796800  0.902400  1
  C  C1075  1  0.011100  0.796800  0.597600  1
  C  C1076  1  0.488900  0.203200  0.097600  1
  C  C1077  1  0.027500  0.272500  0.415800  1
  C  C1078  1  0.472500  0.727500  0.915800  1
  C  C1079  1  0.972500  0.727500  0.584200  1
  C  C1080  1  0.527500  0.272500  0.084200  1
  C  C1081  1  0.018600  0.408100  0.407600  1
  C  C1082  1  0.481400  0.591900  0.907600  1
  C  C1083  1  0.981400  0.591900  0.592400  1
  C  C1084  1  0.518600  0.408100  0.092400  1
  C  C1085  1  0.041900  0.475700  0.393300  1
  C  C1086  1  0.458100  0.524300  0.893300  1
  C  C1087  1  0.958100  0.524300  0.606700  1
  C  C1088  1  0.541900  0.475700  0.106700  1
  C  C1089  1  0.007400  0.468500  0.376600  1
  C  C1090  1  0.492600  0.531500  0.876600  1
  C  C1091  1  0.992600  0.531500  0.623400  1
  C  C1092  1  0.507400  0.468500  0.123400  1
  C  C1093  1  0.119700  0.835200  0.439900  1
  C  C1094  1  0.380300  0.164800  0.939900  1
  C  C1095  1  0.880300  0.164800  0.560100  1
  C  C1096  1  0.619700  0.835200  0.060100  1
  C  C1097  1  0.187700  0.952900  0.447300  1
  C  C1098  1  0.312300  0.047100  0.947300  1
  C  C1099  1  0.812300  0.047100  0.552700  1
  C  C1100  1  0.687700  0.952900  0.052700  1
  C  C1101  1  0.247600  0.913500  0.450400  1
  C  C1102  1  0.252400  0.086500  0.950400  1
  C  C1103  1  0.752400  0.086500  0.549600  1
  C  C1104  1  0.747600  0.913500  0.049600  1
  C  C1105  1  0.240500  0.777300  0.447700  1
  C  C1106  1  0.259500  0.222700  0.947700  1
  C  C1107  1  0.759500  0.222700  0.552300  1
  C  C1108  1  0.740500  0.777300  0.052300  1
  C  C1109  1  0.319300  0.785000  0.432600  1
  C  C1110  1  0.180700  0.215000  0.932600  1
  C  C1111  1  0.680700  0.215000  0.567400  1
  C  C1112  1  0.819300  0.785000  0.067400  1
  C  C1113  1  0.289200  0.781300  0.414700  1
  C  C1114  1  0.210800  0.218700  0.914700  1
  C  C1115  1  0.710800  0.218700  0.585300  1
  C  C1116  1  0.789200  0.781300  0.085300  1
  C  C1117  1  0.175500  0.694700  0.393200  1
  C  C1118  1  0.324500  0.305300  0.893200  1
  C  C1119  1  0.824500  0.305300  0.606800  1
  C  C1120  1  0.675500  0.694700  0.106800  1
  C  C1121  1  0.116000  0.612800  0.388400  1
  C  C1122  1  0.384000  0.387200  0.888400  1
  C  C1123  1  0.884000  0.387200  0.611600  1
  C  C1124  1  0.616000  0.612800  0.111600  1
  C  C1125  1  0.097800  0.548300  0.400200  1
  C  C1126  1  0.402200  0.451700  0.900200  1
  C  C1127  1  0.902200  0.451700  0.599800  1
  C  C1128  1  0.597800  0.548300  0.099800  1
  C  C1129  1  0.761000  0.578200  0.286300  1
  C  C1130  1  0.739000  0.421800  0.786300  1
  C  C1131  1  0.239000  0.421800  0.713700  1
  C  C1132  1  0.261000  0.578200  0.213700  1
  C  C1133  1  0.729100  0.469700  0.273700  1
  C  C1134  1  0.770900  0.530300  0.773700  1
  C  C1135  1  0.270900  0.530300  0.726300  1
  C  C1136  1  0.229100  0.469700  0.226300  1
  C  C1137  1  0.818000  0.496000  0.273900  1
  C  C1138  1  0.682000  0.504000  0.773900  1
  C  C1139  1  0.182000  0.504000  0.726100  1
  C  C1140  1  0.318000  0.496000  0.226100  1
  C  C1141  1  0.934700  0.625200  0.285200  1
  C  C1142  1  0.565300  0.374800  0.785200  1
  C  C1143  1  0.065300  0.374800  0.714800  1
  C  C1144  1  0.434700  0.625200  0.214800  1
  C  C1145  1  0.962300  0.634600  0.306200  1
  C  C1146  1  0.537700  0.365400  0.806200  1
  C  C1147  1  0.037700  0.365400  0.693800  1
  C  C1148  1  0.462300  0.634600  0.193800  1
  C  C1149  1  0.960800  0.558800  0.315200  1
  C  C1150  1  0.539200  0.441200  0.815200  1
  C  C1151  1  0.039200  0.441200  0.684800  1
  C  C1152  1  0.460800  0.558800  0.184800  1
  C  C1153  1  0.984600  0.513200  0.346100  1
  C  C1154  1  0.515400  0.486800  0.846100  1
  C  C1155  1  0.015400  0.486800  0.653900  1
  C  C1156  1  0.484600  0.513200  0.153900  1
  C  C1157  1  0.022500  0.529400  0.364600  1
  C  C1158  1  0.477500  0.470600  0.864600  1
  C  C1159  1  0.977500  0.470600  0.635400  1
  C  C1160  1  0.522500  0.529400  0.135400  1
  C  C1161  1  0.076000  0.599400  0.370200  1
  C  C1162  1  0.424000  0.400600  0.870200  1
  C  C1163  1  0.924000  0.400600  0.629800  1
  C  C1164  1  0.576000  0.599400  0.129800  1
  S  S1165  1  0.569800  0.489700  0.479920  1
  S  S1166  1  0.930200  0.510300  0.979920  1
  S  S1167  1  0.430200  0.510300  0.520080  1
  S  S1168  1  0.069800  0.489700  0.020080  1
  S  S1169  1  0.549000  0.729100  0.484610  1
  S  S1170  1  0.951000  0.270900  0.984610  1
  S  S1171  1  0.451000  0.270900  0.515390  1
  S  S1172  1  0.049000  0.729100  0.015390  1
  S  S1173  1  0.289500  0.826600  0.646840  1
  S  S1174  1  0.210500  0.173400  0.146840  1
  S  S1175  1  0.710500  0.173400  0.353160  1
  S  S1176  1  0.789500  0.826600  0.853160  1
  S  S1177  1  0.060300  0.418600  0.536520  1
  S  S1178  1  0.439700  0.581400  0.036520  1
  S  S1179  1  0.939700  0.581400  0.463480  1
  S  S1180  1  0.560300  0.418600  0.963480  1
  S  S1181  1  0.660500  0.757800  0.648290  1
  S  S1182  1  0.839500  0.242200  0.148290  1
  S  S1183  1  0.339500  0.242200  0.351710  1
  S  S1184  1  0.160500  0.757800  0.851710  1
  S  S1185  1  0.663100  0.311700  0.715750  1
  S  S1186  1  0.836900  0.688300  0.215750  1
  S  S1187  1  0.336900  0.688300  0.284250  1
  S  S1188  1  0.163100  0.311700  0.784250  1
  S  S1189  1  0.336800  0.786100  0.641840  1
  S  S1190  1  0.163200  0.213900  0.141840  1
  S  S1191  1  0.663200  0.213900  0.358160  1
  S  S1192  1  0.836800  0.786100  0.858160  1
  N  N1193  1  0.722300  0.974400  0.494100  1
  N  N1194  1  0.777700  0.025600  0.994100  1
  N  N1195  1  0.277700  0.025600  0.505900  1
  N  N1196  1  0.222300  0.974400  0.005900  1
  N  N1197  1  0.509000  0.873200  0.355000  1
  N  N1198  1  0.991000  0.126800  0.855000  1
  N  N1199  1  0.491000  0.126800  0.645000  1
  N  N1200  1  0.009000  0.873200  0.145000  1
  N  N1201  1  0.512600  0.034100  0.536900  1
  N  N1202  1  0.987400  0.965900  0.036900  1
  N  N1203  1  0.487400  0.965900  0.463100  1
  N  N1204  1  0.012600  0.034100  0.963100  1
  N  N1205  1  0.243100  0.570900  0.452600  1
  N  N1206  1  0.256900  0.429100  0.952600  1
  N  N1207  1  0.756900  0.429100  0.547400  1
  N  N1208  1  0.743100  0.570900  0.047400  1
  N  N1209  1  0.952100  0.537500  0.734600  1
  N  N1210  1  0.547900  0.462500  0.234600  1
  N  N1211  1  0.047900  0.462500  0.265400  1
  N  N1212  1  0.452100  0.537500  0.765400  1
  N  N1213  1  0.052800  0.126200  0.459100  1
  N  N1214  1  0.447200  0.873800  0.959100  1
  N  N1215  1  0.947200  0.873800  0.540900  1
  N  N1216  1  0.552800  0.126200  0.040900  1
  N  N1217  1  0.639400  0.233200  0.461490  1
  N  N1218  1  0.860600  0.766800  0.961490  1
  N  N1219  1  0.360600  0.766800  0.538510  1
  N  N1220  1  0.139400  0.233200  0.038510  1
  N  N1221  1  0.063500  0.990100  0.412420  1
  N  N1222  1  0.436500  0.009900  0.912420  1
  N  N1223  1  0.936500  0.009900  0.587580  1
  N  N1224  1  0.563500  0.990100  0.087580  1
  N  N1225  1  0.526200  0.388200  0.290390  1
  N  N1226  1  0.973800  0.611800  0.790390  1
  N  N1227  1  0.473800  0.611800  0.709610  1
  N  N1228  1  0.026200  0.388200  0.209610  1
  N  N1229  1  0.512700  0.122600  0.414720  1
  N  N1230  1  0.987300  0.877400  0.914720  1
  N  N1231  1  0.487300  0.877400  0.585280  1
  N  N1232  1  0.012700  0.122600  0.085280  1
  N  N1233  1  0.943000  0.876500  0.458590  1
  N  N1234  1  0.557000  0.123500  0.958590  1
  N  N1235  1  0.057000  0.123500  0.541410  1
  N  N1236  1  0.443000  0.876500  0.041410  1
  N  N1237  1  0.580200  0.619700  0.280530  1
  N  N1238  1  0.919800  0.380300  0.780530  1
  N  N1239  1  0.419800  0.380300  0.719470  1
  N  N1240  1  0.080200  0.619700  0.219470  1
  N  N1241  1  0.459700  0.196200  0.446550  1
  N  N1242  1  0.040300  0.803800  0.946550  1
  N  N1243  1  0.540300  0.803800  0.553450  1
  N  N1244  1  0.959700  0.196200  0.053450  1
  N  N1245  1  0.364500  0.246200  0.458640  1
  N  N1246  1  0.135500  0.753800  0.958640  1
  N  N1247  1  0.635500  0.753800  0.541360  1
  N  N1248  1  0.864500  0.246200  0.041360  1
  N  N1249  1  0.288500  0.418200  0.427090  1
  N  N1250  1  0.211500  0.581800  0.927090  1
  N  N1251  1  0.711500  0.581800  0.572910  1
  N  N1252  1  0.788500  0.418200  0.072910  1
  N  N1253  1  0.884300  0.959100  0.429900  1
  N  N1254  1  0.615700  0.040900  0.929900  1
  N  N1255  1  0.115700  0.040900  0.570100  1
  N  N1256  1  0.384300  0.959100  0.070100  1
  N  N1257  1  0.759000  0.970800  0.418800  1
  N  N1258  1  0.741000  0.029200  0.918800  1
  N  N1259  1  0.241000  0.029200  0.581200  1
  N  N1260  1  0.259000  0.970800  0.081200  1
  N  N1261  1  0.513500  0.771900  0.401200  1
  N  N1262  1  0.986500  0.228100  0.901200  1
  N  N1263  1  0.486500  0.228100  0.598800  1
  N  N1264  1  0.013500  0.771900  0.098800  1
  N  N1265  1  0.423300  0.485800  0.289670  1
  N  N1266  1  0.076700  0.514200  0.789670  1
  N  N1267  1  0.576700  0.514200  0.710330  1
  N  N1268  1  0.923300  0.485800  0.210330  1
  N  N1269  1  0.277500  0.438600  0.301700  1
  N  N1270  1  0.222500  0.561400  0.801700  1
  N  N1271  1  0.722500  0.561400  0.698300  1
  N  N1272  1  0.777500  0.438600  0.198300  1
  N  N1273  1  0.237500  0.528800  0.345230  1
  N  N1274  1  0.262500  0.471200  0.845230  1
  N  N1275  1  0.762500  0.471200  0.654770  1
  N  N1276  1  0.737500  0.528800  0.154770  1
  N  N1277  1  0.699700  0.172400  0.429340  1
  N  N1278  1  0.800300  0.827600  0.929340  1
  N  N1279  1  0.300300  0.827600  0.570660  1
  N  N1280  1  0.199700  0.172400  0.070660  1
  N  N1281  1  0.821900  0.179500  0.413300  1
  N  N1282  1  0.678100  0.820500  0.913300  1
  N  N1283  1  0.178100  0.820500  0.586700  1
  N  N1284  1  0.321900  0.179500  0.086700  1
  N  N1285  1  0.044600  0.342200  0.399800  1
  N  N1286  1  0.455400  0.657800  0.899800  1
  N  N1287  1  0.955400  0.657800  0.600200  1
  N  N1288  1  0.544600  0.342200  0.100200  1
  N  N1289  1  0.107400  0.903000  0.440300  1
  N  N1290  1  0.392600  0.097000  0.940300  1
  N  N1291  1  0.892600  0.097000  0.559700  1
  N  N1292  1  0.607400  0.903000  0.059700  1
  N  N1293  1  0.204100  0.841400  0.445790  1
  N  N1294  1  0.295900  0.158600  0.945790  1
  N  N1295  1  0.795900  0.158600  0.554210  1
  N  N1296  1  0.704100  0.841400  0.054210  1
  N  N1297  1  0.223600  0.701800  0.409500  1
  N  N1298  1  0.276400  0.298200  0.909500  1
  N  N1299  1  0.776400  0.298200  0.590500  1
  N  N1300  1  0.723600  0.701800  0.090500  1
  N  N1301  1  0.688400  0.519600  0.281730  1
  N  N1302  1  0.811600  0.480400  0.781730  1
  N  N1303  1  0.311600  0.480400  0.718270  1
  N  N1304  1  0.188400  0.519600  0.218270  1
  N  N1305  1  0.839400  0.565200  0.281800  1
  N  N1306  1  0.660600  0.434800  0.781800  1
  N  N1307  1  0.160600  0.434800  0.718200  1
  N  N1308  1  0.339400  0.565200  0.218200  1
  N  N1309  1  0.987400  0.566700  0.333900  1
  N  N1310  1  0.512600  0.433300  0.833900  1
  N  N1311  1  0.012600  0.433300  0.666100  1
  N  N1312  1  0.487400  0.566700  0.166100  1
  O  O1313  1  0.566900  0.407900  0.477010  1
  O  O1314  1  0.933100  0.592100  0.977010  1
  O  O1315  1  0.433100  0.592100  0.522990  1
  O  O1316  1  0.066900  0.407900  0.022990  1
  O  O1317  1  0.622500  0.695500  0.483530  1
  O  O1318  1  0.877500  0.304500  0.983530  1
  O  O1319  1  0.377500  0.304500  0.516470  1
  O  O1320  1  0.122500  0.695500  0.016470  1
  O  O1321  1  0.316600  0.857300  0.627200  1
  O  O1322  1  0.183400  0.142700  0.127200  1
  O  O1323  1  0.683400  0.142700  0.372800  1
  O  O1324  1  0.816600  0.857300  0.872800  1
  O  O1325  1  0.150300  0.436300  0.536400  1
  O  O1326  1  0.349700  0.563700  0.036400  1
  O  O1327  1  0.849700  0.563700  0.463600  1
  O  O1328  1  0.650300  0.436300  0.963600  1
  O  O1329  1  0.568500  0.751800  0.649600  1
  O  O1330  1  0.931500  0.248200  0.149600  1
  O  O1331  1  0.431500  0.248200  0.350400  1
  O  O1332  1  0.068500  0.751800  0.850400  1
  O  O1333  1  0.761000  0.289800  0.710900  1
  O  O1334  1  0.739000  0.710200  0.210900  1
  O  O1335  1  0.239000  0.710200  0.289100  1
  O  O1336  1  0.261000  0.289800  0.789100  1
  O  O1337  1  0.737600  0.046900  0.496000  1
  O  O1338  1  0.762400  0.953100  0.996000  1
  O  O1339  1  0.262400  0.953100  0.504000  1
  O  O1340  1  0.237600  0.046900  0.004000  1
  O  O1341  1  0.781200  0.949900  0.500700  1
  O  O1342  1  0.718800  0.050100  0.000700  1
  O  O1343  1  0.218800  0.050100  0.499300  1
  O  O1344  1  0.281200  0.949900  0.999300  1
  O  O1345  1  0.637200  0.929900  0.497400  1
  O  O1346  1  0.862800  0.070100  0.997400  1
  O  O1347  1  0.362800  0.070100  0.502600  1
  O  O1348  1  0.137200  0.929900  0.002600  1
  O  O1349  1  0.413900  0.858200  0.351900  1
  O  O1350  1  0.086100  0.141800  0.851900  1
  O  O1351  1  0.586100  0.141800  0.648100  1
  O  O1352  1  0.913900  0.858200  0.148100  1
  O  O1353  1  0.525900  0.828500  0.363200  1
  O  O1354  1  0.974100  0.171500  0.863200  1
  O  O1355  1  0.474100  0.171500  0.636800  1
  O  O1356  1  0.025900  0.828500  0.136800  1
  O  O1357  1  0.562000  0.948900  0.352600  1
  O  O1358  1  0.938000  0.051100  0.852600  1
  O  O1359  1  0.438000  0.051100  0.647400  1
  O  O1360  1  0.062000  0.948900  0.147400  1
  O  O1361  1  0.564300  0.090500  0.529000  1
  O  O1362  1  0.935700  0.909500  0.029000  1
  O  O1363  1  0.435700  0.909500  0.471000  1
  O  O1364  1  0.064300  0.090500  0.971000  1
  O  O1365  1  0.528200  0.977900  0.539300  1
  O  O1366  1  0.971800  0.022100  0.039300  1
  O  O1367  1  0.471800  0.022100  0.460700  1
  O  O1368  1  0.028200  0.977900  0.960700  1
  O  O1369  1  0.463000  0.043100  0.547800  1
  O  O1370  1  0.037000  0.956900  0.047800  1
  O  O1371  1  0.537000  0.956900  0.452200  1
  O  O1372  1  0.963000  0.043100  0.952200  1
  O  O1373  1  0.236700  0.575400  0.435400  1
  O  O1374  1  0.263300  0.424600  0.935400  1
  O  O1375  1  0.763300  0.424600  0.564600  1
  O  O1376  1  0.736700  0.575400  0.064600  1
  O  O1377  1  0.222800  0.614300  0.463700  1
  O  O1378  1  0.277200  0.385700  0.963700  1
  O  O1379  1  0.777200  0.385700  0.536300  1
  O  O1380  1  0.722800  0.614300  0.036300  1
  O  O1381  1  0.273300  0.523600  0.458900  1
  O  O1382  1  0.226700  0.476400  0.958900  1
  O  O1383  1  0.726700  0.476400  0.541100  1
  O  O1384  1  0.773300  0.523600  0.041100  1
  O  O1385  1  0.905100  0.472400  0.725200  1
  O  O1386  1  0.594900  0.527600  0.225200  1
  O  O1387  1  0.094900  0.527600  0.274800  1
  O  O1388  1  0.405100  0.472400  0.774800  1
  O  O1389  1  0.016000  0.535500  0.743770  1
  O  O1390  1  0.484000  0.464500  0.243770  1
  O  O1391  1  0.984000  0.464500  0.256230  1
  O  O1392  1  0.516000  0.535500  0.756230  1
  O  O1393  1  0.936300  0.597600  0.733100  1
  O  O1394  1  0.563700  0.402400  0.233100  1
  O  O1395  1  0.063700  0.402400  0.266900  1
  O  O1396  1  0.436300  0.597600  0.766900  1
  O  O1397  1  0.100200  0.087500  0.460070  1
  O  O1398  1  0.399800  0.912500  0.960070  1
  O  O1399  1  0.899800  0.912500  0.539930  1
  O  O1400  1  0.600200  0.087500  0.039930  1
  O  O1401  1  0.080300  0.185100  0.450000  1
  O  O1402  1  0.419700  0.814900  0.950000  1
  O  O1403  1  0.919700  0.814900  0.550000  1
  O  O1404  1  0.580300  0.185100  0.050000  1
  O  O1405  1  0.972900  0.104700  0.466210  1
  O  O1406  1  0.527100  0.895300  0.966210  1
  O  O1407  1  0.027100  0.895300  0.533790  1
  O  O1408  1  0.472900  0.104700  0.033790  1
  O  O1409  1  0.817100  0.440200  0.424360  1
  O  O1410  1  0.682900  0.559800  0.924360  1
  O  O1411  1  0.182900  0.559800  0.575640  1
  O  O1412  1  0.317100  0.440200  0.075640  1
  O  O1413  1  0.740000  0.354500  0.402880  1
  O  O1414  1  0.760000  0.645500  0.902880  1
  O  O1415  1  0.260000  0.645500  0.597120  1
  O  O1416  1  0.240000  0.354500  0.097120  1
  O  O1417  1  0.954900  0.754400  0.381180  1
  O  O1418  1  0.545100  0.245600  0.881180  1
  O  O1419  1  0.045100  0.245600  0.618820  1
  O  O1420  1  0.454900  0.754400  0.118820  1
  O  O1421  1  0.972000  0.712000  0.409890  1
  O  O1422  1  0.528000  0.288000  0.909890  1
  O  O1423  1  0.028000  0.288000  0.590110  1
  O  O1424  1  0.472000  0.712000  0.090110  1
  O  O1425  1  0.719700  0.444800  0.341700  1
  O  O1426  1  0.780300  0.555200  0.841700  1
  O  O1427  1  0.280300  0.555200  0.658300  1
  O  O1428  1  0.219700  0.444800  0.158300  1
  O  O1429  1  0.750900  0.570500  0.334490  1
  O  O1430  1  0.749100  0.429500  0.834490  1
  O  O1431  1  0.249100  0.429500  0.665510  1
  O  O1432  1  0.250900  0.570500  0.165510  1
  O  O1433  1  0.482900  0.352900  0.393320  1
  O  O1434  1  0.017100  0.647100  0.893320  1
  O  O1435  1  0.517100  0.647100  0.606680  1
  O  O1436  1  0.982900  0.352900  0.106680  1
  O  O1437  1  0.540100  0.397900  0.421190  1
  O  O1438  1  0.959900  0.602100  0.921190  1
  O  O1439  1  0.459900  0.602100  0.578810  1
  O  O1440  1  0.040100  0.397900  0.078810  1
  O  O1441  1  0.712400  0.676200  0.427400  1
  O  O1442  1  0.787600  0.323800  0.927400  1
  O  O1443  1  0.287600  0.323800  0.572600  1
  O  O1444  1  0.212400  0.676200  0.072600  1
  O  O1445  1  0.750500  0.757000  0.402430  1
  O  O1446  1  0.749500  0.243000  0.902430  1
  O  O1447  1  0.249500  0.243000  0.597570  1
  O  O1448  1  0.250500  0.757000  0.097570  1
  O  O1449  1  0.569200  0.654600  0.345880  1
  O  O1450  1  0.930800  0.345400  0.845880  1
  O  O1451  1  0.430800  0.345400  0.654120  1
  O  O1452  1  0.069200  0.654600  0.154120  1
  O  O1453  1  0.487800  0.525900  0.342450  1
  O  O1454  1  0.012200  0.474100  0.842450  1
  O  O1455  1  0.512200  0.474100  0.657550  1
  O  O1456  1  0.987800  0.525900  0.157550  1
  O  O1457  1  0.286700  0.361100  0.400140  1
  O  O1458  1  0.213300  0.638900  0.900140  1
  O  O1459  1  0.713300  0.638900  0.599860  1
  O  O1460  1  0.786700  0.361100  0.099860  1
  O  O1461  1  0.512900  0.692800  0.425700  1
  O  O1462  1  0.987100  0.307200  0.925700  1
  O  O1463  1  0.487100  0.307200  0.574300  1
  O  O1464  1  0.012900  0.692800  0.074300  1
  O  O1465  1  0.337000  0.646300  0.344820  1
  O  O1466  1  0.163000  0.353700  0.844820  1
  O  O1467  1  0.663000  0.353700  0.655180  1
  O  O1468  1  0.837000  0.646300  0.155180  1
  O  O1469  1  0.032100  0.407800  0.422800  1
  O  O1470  1  0.467900  0.592200  0.922800  1
  O  O1471  1  0.967900  0.592200  0.577200  1
  O  O1472  1  0.532100  0.407800  0.077200  1
  O  O1473  1  0.178400  0.747900  0.383960  1
  O  O1474  1  0.321600  0.252100  0.883960  1
  O  O1475  1  0.821600  0.252100  0.616040  1
  O  O1476  1  0.678400  0.747900  0.116040  1
  O  O1477  1  0.944800  0.442800  0.339960  1
  O  O1478  1  0.555200  0.557200  0.839960  1
  O  O1479  1  0.055200  0.557200  0.660040  1
  O  O1480  1  0.444800  0.442800  0.160040  1
