# generated using pymatgen
data_H196Pd3C114(N13O23)3
_symmetry_space_group_name_H-M   'P 1'
_cell_length_a   16.34850000
_cell_length_b   27.80590000
_cell_length_c   33.46950000
_cell_angle_alpha   90.00000000
_cell_angle_beta   96.13400000
_cell_angle_gamma   90.00000000
_symmetry_Int_Tables_number   1
_chemical_formula_structural   H196Pd3C114(N13O23)3
_chemical_formula_sum   'H784 Pd12 C456 N156 O276'
_cell_volume   15127.61579654
_cell_formula_units_Z   4
loop_
 _symmetry_equiv_pos_site_id
 _symmetry_equiv_pos_as_xyz
  1  'x, y, z'
loop_
 _atom_site_type_symbol
 _atom_site_label
 _atom_site_symmetry_multiplicity
 _atom_site_fract_x
 _atom_site_fract_y
 _atom_site_fract_z
 _atom_site_occupancy
  H  H1  1  0.417000  0.439500  0.376300  1
  H  H2  1  0.583000  0.939500  0.123700  1
  H  H3  1  0.583000  0.560500  0.623700  1
  H  H4  1  0.417000  0.060500  0.876300  1
  H  H5  1  0.669400  0.381000  0.264100  1
  H  H6  1  0.330600  0.881000  0.235900  1
  H  H7  1  0.330600  0.619000  0.735900  1
  H  H8  1  0.669400  0.119000  0.764100  1
  H  H9  1  0.309100  0.378100  0.201200  1
  H  H10  1  0.690900  0.878100  0.298800  1
  H  H11  1  0.690900  0.621900  0.798800  1
  H  H12  1  0.309100  0.121900  0.701200  1
  H  H13  1  0.807800  0.717000  0.262500  1
  H  H14  1  0.192200  0.217000  0.237500  1
  H  H15  1  0.192200  0.283000  0.737500  1
  H  H16  1  0.807800  0.783000  0.762500  1
  H  H17  1  0.446200  0.641600  0.145500  1
  H  H18  1  0.553800  0.141600  0.354500  1
  H  H19  1  0.553800  0.358400  0.854500  1
  H  H20  1  0.446200  0.858400  0.645500  1
  H  H21  1  0.829300  0.666900  0.155300  1
  H  H22  1  0.170700  0.166900  0.344700  1
  H  H23  1  0.170700  0.333100  0.844700  1
  H  H24  1  0.829300  0.833100  0.655300  1
  H  H25  1  0.520400  0.280500  0.388100  1
  H  H26  1  0.479600  0.780500  0.111900  1
  H  H27  1  0.479600  0.719500  0.611900  1
  H  H28  1  0.520400  0.219500  0.888100  1
  H  H29  1  0.274200  0.309000  0.361600  1
  H  H30  1  0.725800  0.809000  0.138400  1
  H  H31  1  0.725800  0.691000  0.638400  1
  H  H32  1  0.274200  0.191000  0.861600  1
  H  H33  1  0.545300  0.264600  0.208500  1
  H  H34  1  0.454700  0.764600  0.291500  1
  H  H35  1  0.454700  0.735400  0.791500  1
  H  H36  1  0.545300  0.235400  0.708500  1
  H  H37  1  0.953000  0.556700  0.490100  1
  H  H38  1  0.047000  0.056700  0.009900  1
  H  H39  1  0.047000  0.443300  0.509900  1
  H  H40  1  0.953000  0.943300  0.990100  1
  H  H41  1  0.090800  0.542900  0.481200  1
  H  H42  1  0.909200  0.042900  0.018800  1
  H  H43  1  0.909200  0.457100  0.518800  1
  H  H44  1  0.090800  0.957100  0.981200  1
  H  H45  1  0.124500  0.513600  0.421200  1
  H  H46  1  0.875500  0.013600  0.078800  1
  H  H47  1  0.875500  0.486400  0.578800  1
  H  H48  1  0.124500  0.986400  0.921200  1
  H  H49  1  0.020000  0.497200  0.369600  1
  H  H50  1  0.980000  0.997200  0.130400  1
  H  H51  1  0.980000  0.502800  0.630400  1
  H  H52  1  0.020000  0.002800  0.869600  1
  H  H53  1  0.805200  0.504000  0.379400  1
  H  H54  1  0.194800  0.004000  0.120600  1
  H  H55  1  0.194800  0.496000  0.620600  1
  H  H56  1  0.805200  0.996000  0.879400  1
  H  H57  1  0.869100  0.480600  0.351900  1
  H  H58  1  0.130900  0.980600  0.148100  1
  H  H59  1  0.130900  0.519400  0.648100  1
  H  H60  1  0.869100  0.019400  0.851900  1
  H  H61  1  0.832600  0.580900  0.353800  1
  H  H62  1  0.167400  0.080900  0.146200  1
  H  H63  1  0.167400  0.419100  0.646200  1
  H  H64  1  0.832600  0.919100  0.853800  1
  H  H65  1  0.896300  0.557300  0.326200  1
  H  H66  1  0.103700  0.057300  0.173800  1
  H  H67  1  0.103700  0.442700  0.673800  1
  H  H68  1  0.896300  0.942700  0.826200  1
  H  H69  1  0.543000  0.560000  0.316000  1
  H  H70  1  0.457000  0.060000  0.184000  1
  H  H71  1  0.457000  0.440000  0.684000  1
  H  H72  1  0.543000  0.940000  0.816000  1
  H  H73  1  0.004700  0.613300  0.311500  1
  H  H74  1  0.995300  0.113300  0.188500  1
  H  H75  1  0.995300  0.386700  0.688500  1
  H  H76  1  0.004700  0.886700  0.811500  1
  H  H77  1  0.014900  0.648500  0.374000  1
  H  H78  1  0.985100  0.148500  0.126000  1
  H  H79  1  0.985100  0.351500  0.626000  1
  H  H80  1  0.014900  0.851500  0.874000  1
  H  H81  1  0.140000  0.644800  0.415200  1
  H  H82  1  0.860000  0.144800  0.084800  1
  H  H83  1  0.860000  0.355200  0.584800  1
  H  H84  1  0.140000  0.855200  0.915200  1
  H  H85  1  0.250400  0.606800  0.391900  1
  H  H86  1  0.749600  0.106800  0.108100  1
  H  H87  1  0.749600  0.393200  0.608100  1
  H  H88  1  0.250400  0.893200  0.891900  1
  H  H89  1  0.298300  0.544500  0.342700  1
  H  H90  1  0.701700  0.044500  0.157300  1
  H  H91  1  0.701700  0.455500  0.657300  1
  H  H92  1  0.298300  0.955500  0.842700  1
  H  H93  1  0.246500  0.540000  0.299400  1
  H  H94  1  0.753500  0.040000  0.200600  1
  H  H95  1  0.753500  0.460000  0.700600  1
  H  H96  1  0.246500  0.960000  0.799400  1
  H  H97  1  0.291700  0.613100  0.279200  1
  H  H98  1  0.708300  0.113100  0.220800  1
  H  H99  1  0.708300  0.386900  0.720800  1
  H  H100  1  0.291700  0.886900  0.779200  1
  H  H101  1  0.325800  0.628000  0.324200  1
  H  H102  1  0.674200  0.128000  0.175800  1
  H  H103  1  0.674200  0.372000  0.675800  1
  H  H104  1  0.325800  0.872000  0.824200  1
  H  H105  1  0.472800  0.541900  0.197500  1
  H  H106  1  0.527200  0.041900  0.302500  1
  H  H107  1  0.527200  0.458100  0.802500  1
  H  H108  1  0.472800  0.958100  0.697500  1
  H  H109  1  0.715000  0.479100  0.982300  1
  H  H110  1  0.285000  0.979100  0.517700  1
  H  H111  1  0.285000  0.520900  0.017700  1
  H  H112  1  0.715000  0.020900  0.482300  1
  H  H113  1  0.634100  0.519400  0.932400  1
  H  H114  1  0.365900  0.019400  0.567600  1
  H  H115  1  0.365900  0.480600  0.067600  1
  H  H116  1  0.634100  0.980600  0.432400  1
  H  H117  1  0.534800  0.573300  0.949500  1
  H  H118  1  0.465200  0.073300  0.550500  1
  H  H119  1  0.465200  0.426700  0.050500  1
  H  H120  1  0.534800  0.926700  0.449500  1
  H  H121  1  0.532900  0.594500  0.017200  1
  H  H122  1  0.467100  0.094500  0.482800  1
  H  H123  1  0.467100  0.405500  0.982800  1
  H  H124  1  0.532900  0.905500  0.517200  1
  H  H125  1  0.676600  0.557700  0.097800  1
  H  H126  1  0.323400  0.057700  0.402200  1
  H  H127  1  0.323400  0.442300  0.902200  1
  H  H128  1  0.676600  0.942300  0.597800  1
  H  H129  1  0.601300  0.593900  0.086100  1
  H  H130  1  0.398700  0.093900  0.413900  1
  H  H131  1  0.398700  0.406100  0.913900  1
  H  H132  1  0.601300  0.906100  0.586100  1
  H  H133  1  0.508700  0.527700  0.086200  1
  H  H134  1  0.491300  0.027700  0.413800  1
  H  H135  1  0.491300  0.472300  0.913800  1
  H  H136  1  0.508700  0.972300  0.586200  1
  H  H137  1  0.585000  0.493400  0.100700  1
  H  H138  1  0.415000  0.993400  0.399300  1
  H  H139  1  0.415000  0.506600  0.899300  1
  H  H140  1  0.585000  0.006600  0.600700  1
  H  H141  1  0.713700  0.531400  0.239300  1
  H  H142  1  0.286300  0.031400  0.260700  1
  H  H143  1  0.286300  0.468600  0.760700  1
  H  H144  1  0.713700  0.968600  0.739300  1
  H  H145  1  0.617900  0.528800  0.407300  1
  H  H146  1  0.382100  0.028800  0.092700  1
  H  H147  1  0.382100  0.471200  0.592700  1
  H  H148  1  0.617900  0.971200  0.907300  1
  H  H149  1  0.668900  0.618600  0.497900  1
  H  H150  1  0.331100  0.118600  0.002100  1
  H  H151  1  0.331100  0.381400  0.502100  1
  H  H152  1  0.668900  0.881400  0.997900  1
  H  H153  1  0.517300  0.612400  0.485100  1
  H  H154  1  0.482700  0.112400  0.014900  1
  H  H155  1  0.482700  0.387600  0.514900  1
  H  H156  1  0.517300  0.887600  0.985100  1
  H  H157  1  0.457600  0.543100  0.393000  1
  H  H158  1  0.542400  0.043100  0.107000  1
  H  H159  1  0.542400  0.456900  0.607000  1
  H  H160  1  0.457600  0.956900  0.893000  1
  H  H161  1  0.415500  0.571000  0.427200  1
  H  H162  1  0.584500  0.071000  0.072800  1
  H  H163  1  0.584500  0.429000  0.572800  1
  H  H164  1  0.415500  0.929000  0.927200  1
  H  H165  1  0.449300  0.502700  0.470500  1
  H  H166  1  0.550700  0.002700  0.029500  1
  H  H167  1  0.550700  0.497300  0.529500  1
  H  H168  1  0.449300  0.997300  0.970500  1
  H  H169  1  0.379000  0.493400  0.434400  1
  H  H170  1  0.621000  0.993400  0.065600  1
  H  H171  1  0.621000  0.506600  0.565600  1
  H  H172  1  0.379000  0.006600  0.934400  1
  H  H173  1  0.545400  0.465000  0.433100  1
  H  H174  1  0.454600  0.965000  0.066900  1
  H  H175  1  0.454600  0.535000  0.566900  1
  H  H176  1  0.545400  0.035000  0.933100  1
  H  H177  1  0.473500  0.429400  0.443200  1
  H  H178  1  0.526500  0.929400  0.056800  1
  H  H179  1  0.526500  0.570600  0.556800  1
  H  H180  1  0.473500  0.070600  0.943200  1
  H  H181  1  0.370000  0.435000  0.319700  1
  H  H182  1  0.630000  0.935000  0.180300  1
  H  H183  1  0.630000  0.565000  0.680300  1
  H  H184  1  0.370000  0.065000  0.819700  1
  H  H185  1  0.202200  0.488400  0.211500  1
  H  H186  1  0.797800  0.988400  0.288500  1
  H  H187  1  0.797800  0.511600  0.788500  1
  H  H188  1  0.202200  0.011600  0.711500  1
  H  H189  1  0.968100  0.521500  0.183000  1
  H  H190  1  0.031900  0.021500  0.317000  1
  H  H191  1  0.031900  0.478500  0.817000  1
  H  H192  1  0.968100  0.978500  0.683000  1
  H  H193  1  0.006900  0.464000  0.132000  1
  H  H194  1  0.993100  0.964000  0.368000  1
  H  H195  1  0.993100  0.536000  0.868000  1
  H  H196  1  0.006900  0.036000  0.632000  1
  H  H197  1  0.230000  0.438100  0.149500  1
  H  H198  1  0.770000  0.938100  0.350500  1
  H  H199  1  0.770000  0.561900  0.850500  1
  H  H200  1  0.230000  0.061900  0.649500  1
  H  H201  1  0.154500  0.429200  0.115800  1
  H  H202  1  0.845500  0.929200  0.384200  1
  H  H203  1  0.845500  0.570800  0.884200  1
  H  H204  1  0.154500  0.070800  0.615800  1
  H  H205  1  0.194400  0.356100  0.146500  1
  H  H206  1  0.805600  0.856100  0.353500  1
  H  H207  1  0.805600  0.643900  0.853500  1
  H  H208  1  0.194400  0.143900  0.646500  1
  H  H209  1  0.102800  0.368800  0.155500  1
  H  H210  1  0.897200  0.868800  0.344500  1
  H  H211  1  0.897200  0.631200  0.844500  1
  H  H212  1  0.102800  0.131200  0.655500  1
  H  H213  1  0.151500  0.394300  0.221100  1
  H  H214  1  0.848500  0.894300  0.278900  1
  H  H215  1  0.848500  0.605700  0.778900  1
  H  H216  1  0.151500  0.105700  0.721100  1
  H  H217  1  0.178800  0.339800  0.214500  1
  H  H218  1  0.821200  0.839800  0.285500  1
  H  H219  1  0.821200  0.660200  0.785500  1
  H  H220  1  0.178800  0.160200  0.714500  1
  H  H221  1  0.433200  0.402200  0.209100  1
  H  H222  1  0.566800  0.902200  0.290900  1
  H  H223  1  0.566800  0.597800  0.790900  1
  H  H224  1  0.433200  0.097800  0.709100  1
  H  H225  1  0.809400  0.470300  0.162100  1
  H  H226  1  0.190600  0.970300  0.337900  1
  H  H227  1  0.190600  0.529700  0.837900  1
  H  H228  1  0.809400  0.029700  0.662100  1
  H  H229  1  0.863500  0.380500  0.076600  1
  H  H230  1  0.136500  0.880500  0.423400  1
  H  H231  1  0.136500  0.619500  0.923400  1
  H  H232  1  0.863500  0.119500  0.576600  1
  H  H233  1  0.918200  0.345600  0.142600  1
  H  H234  1  0.081800  0.845600  0.357400  1
  H  H235  1  0.081800  0.654400  0.857400  1
  H  H236  1  0.918200  0.154400  0.642600  1
  H  H237  1  0.930100  0.420300  0.221500  1
  H  H238  1  0.069900  0.920300  0.278500  1
  H  H239  1  0.069900  0.579700  0.778500  1
  H  H240  1  0.930100  0.079700  0.721500  1
  H  H241  1  0.902500  0.365300  0.216200  1
  H  H242  1  0.097500  0.865300  0.283800  1
  H  H243  1  0.097500  0.634700  0.783800  1
  H  H244  1  0.902500  0.134700  0.716200  1
  H  H245  1  0.822300  0.403100  0.261000  1
  H  H246  1  0.177700  0.903100  0.239000  1
  H  H247  1  0.177700  0.596900  0.739000  1
  H  H248  1  0.822300  0.096900  0.761000  1
  H  H249  1  0.794800  0.443700  0.228500  1
  H  H250  1  0.205200  0.943700  0.271500  1
  H  H251  1  0.205200  0.556300  0.771500  1
  H  H252  1  0.794800  0.056300  0.728500  1
  H  H253  1  0.721400  0.386300  0.187100  1
  H  H254  1  0.278600  0.886300  0.312900  1
  H  H255  1  0.278600  0.613700  0.812900  1
  H  H256  1  0.721400  0.113700  0.687100  1
  H  H257  1  0.751300  0.344500  0.218300  1
  H  H258  1  0.248700  0.844500  0.281700  1
  H  H259  1  0.248700  0.655500  0.781700  1
  H  H260  1  0.751300  0.155500  0.718300  1
  H  H261  1  0.609000  0.433200  0.299800  1
  H  H262  1  0.391000  0.933200  0.200200  1
  H  H263  1  0.391000  0.566800  0.700200  1
  H  H264  1  0.609000  0.066800  0.799800  1
  H  H265  1  0.717700  0.639700  0.390400  1
  H  H266  1  0.282300  0.139700  0.109600  1
  H  H267  1  0.282300  0.360300  0.609600  1
  H  H268  1  0.717700  0.860300  0.890400  1
  H  H269  1  0.924900  0.639600  0.464200  1
  H  H270  1  0.075100  0.139600  0.035800  1
  H  H271  1  0.075100  0.360400  0.535800  1
  H  H272  1  0.924900  0.860400  0.964200  1
  H  H273  1  0.911400  0.719700  0.432800  1
  H  H274  1  0.088600  0.219700  0.067200  1
  H  H275  1  0.088600  0.280300  0.567200  1
  H  H276  1  0.911400  0.780300  0.932800  1
  H  H277  1  0.760100  0.761100  0.390800  1
  H  H278  1  0.239900  0.261100  0.109200  1
  H  H279  1  0.239900  0.238900  0.609200  1
  H  H280  1  0.760100  0.738900  0.890800  1
  H  H281  1  0.720700  0.722800  0.358400  1
  H  H282  1  0.279300  0.222800  0.141600  1
  H  H283  1  0.279300  0.277200  0.641600  1
  H  H284  1  0.720700  0.777200  0.858400  1
  H  H285  1  0.887500  0.754900  0.364200  1
  H  H286  1  0.112500  0.254900  0.135800  1
  H  H287  1  0.112500  0.245100  0.635800  1
  H  H288  1  0.887500  0.745100  0.864200  1
  H  H289  1  0.817400  0.773100  0.330700  1
  H  H290  1  0.182600  0.273100  0.169300  1
  H  H291  1  0.182600  0.226900  0.669300  1
  H  H292  1  0.817400  0.726900  0.830700  1
  H  H293  1  0.913400  0.711000  0.311000  1
  H  H294  1  0.086600  0.211000  0.189000  1
  H  H295  1  0.086600  0.289000  0.689000  1
  H  H296  1  0.913400  0.789000  0.811000  1
  H  H297  1  0.860800  0.674100  0.334600  1
  H  H298  1  0.139200  0.174100  0.165400  1
  H  H299  1  0.139200  0.325900  0.665400  1
  H  H300  1  0.860800  0.825900  0.834600  1
  H  H301  1  0.573700  0.663500  0.262100  1
  H  H302  1  0.426300  0.163500  0.237900  1
  H  H303  1  0.426300  0.336500  0.737900  1
  H  H304  1  0.573700  0.836500  0.762100  1
  H  H305  1  0.151000  0.588500  0.176500  1
  H  H306  1  0.849000  0.088500  0.323500  1
  H  H307  1  0.849000  0.411500  0.823500  1
  H  H308  1  0.151000  0.911500  0.676500  1
  H  H309  1  0.122300  0.670000  0.271000  1
  H  H310  1  0.877700  0.170000  0.229000  1
  H  H311  1  0.877700  0.330000  0.729000  1
  H  H312  1  0.122300  0.830000  0.771000  1
  H  H313  1  0.158900  0.723200  0.216900  1
  H  H314  1  0.841100  0.223200  0.283100  1
  H  H315  1  0.841100  0.276800  0.783100  1
  H  H316  1  0.158900  0.776800  0.716900  1
  H  H317  1  0.161500  0.705900  0.135700  1
  H  H318  1  0.838500  0.205900  0.364300  1
  H  H319  1  0.838500  0.294100  0.864300  1
  H  H320  1  0.161500  0.794100  0.635700  1
  H  H321  1  0.176900  0.651000  0.124300  1
  H  H322  1  0.823100  0.151000  0.375700  1
  H  H323  1  0.823100  0.349000  0.875700  1
  H  H324  1  0.176900  0.849000  0.624300  1
  H  H325  1  0.299900  0.696500  0.124100  1
  H  H326  1  0.700100  0.196500  0.375900  1
  H  H327  1  0.700100  0.303500  0.875900  1
  H  H328  1  0.299900  0.803500  0.624100  1
  H  H329  1  0.295900  0.710200  0.170300  1
  H  H330  1  0.704100  0.210200  0.329700  1
  H  H331  1  0.704100  0.289800  0.829700  1
  H  H332  1  0.295900  0.789800  0.670300  1
  H  H333  1  0.313500  0.629000  0.188500  1
  H  H334  1  0.686500  0.129000  0.311500  1
  H  H335  1  0.686500  0.371000  0.811500  1
  H  H336  1  0.313500  0.871000  0.688500  1
  H  H337  1  0.315600  0.614700  0.142400  1
  H  H338  1  0.684400  0.114700  0.357600  1
  H  H339  1  0.684400  0.385300  0.857600  1
  H  H340  1  0.315600  0.885300  0.642400  1
  H  H341  1  0.562500  0.664600  0.140700  1
  H  H342  1  0.437500  0.164600  0.359300  1
  H  H343  1  0.437500  0.335400  0.859300  1
  H  H344  1  0.562500  0.835400  0.640700  1
  H  H345  1  0.842400  0.552600  0.128100  1
  H  H346  1  0.157600  0.052600  0.371900  1
  H  H347  1  0.157600  0.447400  0.871900  1
  H  H348  1  0.842400  0.947400  0.628100  1
  H  H349  1  0.860900  0.531700  0.012300  1
  H  H350  1  0.139100  0.031700  0.487700  1
  H  H351  1  0.139100  0.468300  0.987700  1
  H  H352  1  0.860900  0.968300  0.512300  1
  H  H353  1  0.960000  0.595100  0.035600  1
  H  H354  1  0.040000  0.095100  0.464400  1
  H  H355  1  0.040000  0.404900  0.964400  1
  H  H356  1  0.960000  0.904900  0.535600  1
  H  H357  1  0.019000  0.619100  0.116000  1
  H  H358  1  0.981000  0.119100  0.384000  1
  H  H359  1  0.981000  0.380900  0.884000  1
  H  H360  1  0.019000  0.880900  0.616000  1
  H  H361  1  0.947000  0.617500  0.144800  1
  H  H362  1  0.053000  0.117500  0.355200  1
  H  H363  1  0.053000  0.382500  0.855200  1
  H  H364  1  0.947000  0.882500  0.644800  1
  H  H365  1  0.958600  0.680400  0.079000  1
  H  H366  1  0.041400  0.180400  0.421000  1
  H  H367  1  0.041400  0.319600  0.921000  1
  H  H368  1  0.958600  0.819600  0.579000  1
  H  H369  1  0.955900  0.695300  0.125000  1
  H  H370  1  0.044100  0.195300  0.375000  1
  H  H371  1  0.044100  0.304700  0.875000  1
  H  H372  1  0.955900  0.804700  0.625000  1
  H  H373  1  0.831000  0.713000  0.086100  1
  H  H374  1  0.169000  0.213000  0.413900  1
  H  H375  1  0.169000  0.287000  0.913900  1
  H  H376  1  0.831000  0.787000  0.586100  1
  H  H377  1  0.819300  0.657200  0.075000  1
  H  H378  1  0.180700  0.157200  0.425000  1
  H  H379  1  0.180700  0.342800  0.925000  1
  H  H380  1  0.819300  0.842800  0.575000  1
  H  H381  1  0.782000  0.673900  0.208500  1
  H  H382  1  0.218000  0.173900  0.291500  1
  H  H383  1  0.218000  0.326100  0.791500  1
  H  H384  1  0.782000  0.826100  0.708500  1
  H  H385  1  0.782000  0.441900  0.416100  1
  H  H386  1  0.218000  0.941900  0.083900  1
  H  H387  1  0.218000  0.558100  0.583900  1
  H  H388  1  0.782000  0.058100  0.916100  1
  H  H389  1  0.730600  0.496600  0.519700  1
  H  H390  1  0.269400  0.996600  0.980300  1
  H  H391  1  0.269400  0.503400  0.480300  1
  H  H392  1  0.730600  0.003400  0.019700  1
  H  H393  1  0.701600  0.410000  0.521400  1
  H  H394  1  0.298400  0.910000  0.978600  1
  H  H395  1  0.298400  0.590000  0.478600  1
  H  H396  1  0.701600  0.090000  0.021400  1
  H  H397  1  0.731500  0.337100  0.473300  1
  H  H398  1  0.268500  0.837100  0.026700  1
  H  H399  1  0.268500  0.662900  0.526700  1
  H  H400  1  0.731500  0.162900  0.973300  1
  H  H401  1  0.770700  0.350500  0.432900  1
  H  H402  1  0.229300  0.850500  0.067100  1
  H  H403  1  0.229300  0.649500  0.567100  1
  H  H404  1  0.770700  0.149500  0.932900  1
  H  H405  1  0.636400  0.375500  0.403700  1
  H  H406  1  0.363600  0.875500  0.096300  1
  H  H407  1  0.363600  0.624500  0.596300  1
  H  H408  1  0.636400  0.124500  0.903700  1
  H  H409  1  0.599500  0.356500  0.443400  1
  H  H410  1  0.400500  0.856500  0.056600  1
  H  H411  1  0.400500  0.643500  0.556600  1
  H  H412  1  0.599500  0.143500  0.943400  1
  H  H413  1  0.687600  0.294200  0.394300  1
  H  H414  1  0.312400  0.794200  0.105700  1
  H  H415  1  0.312400  0.705800  0.605700  1
  H  H416  1  0.687600  0.205800  0.894300  1
  H  H417  1  0.637800  0.277100  0.430500  1
  H  H418  1  0.362200  0.777100  0.069500  1
  H  H419  1  0.362200  0.722900  0.569500  1
  H  H420  1  0.637800  0.222900  0.930500  1
  H  H421  1  0.401100  0.299600  0.353600  1
  H  H422  1  0.598900  0.799600  0.146400  1
  H  H423  1  0.598900  0.700400  0.646400  1
  H  H424  1  0.401100  0.200400  0.853600  1
  H  H425  1  0.176100  0.469600  0.317800  1
  H  H426  1  0.823900  0.969600  0.182200  1
  H  H427  1  0.823900  0.530400  0.682200  1
  H  H428  1  0.176100  0.030400  0.817800  1
  H  H429  1  0.942800  0.487100  0.274600  1
  H  H430  1  0.057200  0.987100  0.225400  1
  H  H431  1  0.057200  0.512900  0.725400  1
  H  H432  1  0.942800  0.012900  0.774600  1
  H  H433  1  0.955400  0.409400  0.310200  1
  H  H434  1  0.044600  0.909400  0.189800  1
  H  H435  1  0.044600  0.590600  0.689800  1
  H  H436  1  0.955400  0.090600  0.810200  1
  H  H437  1  0.178200  0.389100  0.351700  1
  H  H438  1  0.821800  0.889100  0.148300  1
  H  H439  1  0.821800  0.610900  0.648300  1
  H  H440  1  0.178200  0.110900  0.851700  1
  H  H441  1  0.099000  0.387800  0.376000  1
  H  H442  1  0.901000  0.887800  0.124000  1
  H  H443  1  0.901000  0.612200  0.624000  1
  H  H444  1  0.099000  0.112200  0.876000  1
  H  H445  1  0.104600  0.340300  0.304300  1
  H  H446  1  0.895400  0.840300  0.195700  1
  H  H447  1  0.895400  0.659700  0.695700  1
  H  H448  1  0.104600  0.159700  0.804300  1
  H  H449  1  0.039100  0.333800  0.336100  1
  H  H450  1  0.960900  0.833800  0.163900  1
  H  H451  1  0.960900  0.666200  0.663900  1
  H  H452  1  0.039100  0.166200  0.836100  1
  H  H453  1  0.148800  0.302400  0.382700  1
  H  H454  1  0.851200  0.802400  0.117300  1
  H  H455  1  0.851200  0.697600  0.617300  1
  H  H456  1  0.148800  0.197600  0.882700  1
  H  H457  1  0.123200  0.268700  0.344700  1
  H  H458  1  0.876800  0.768700  0.155300  1
  H  H459  1  0.876800  0.731300  0.655300  1
  H  H460  1  0.123200  0.231300  0.844700  1
  H  H461  1  0.306900  0.283900  0.238400  1
  H  H462  1  0.693100  0.783900  0.261600  1
  H  H463  1  0.693100  0.716100  0.761600  1
  H  H464  1  0.306900  0.216100  0.738400  1
  H  H465  1  0.628700  0.405600  0.120100  1
  H  H466  1  0.371300  0.905600  0.379900  1
  H  H467  1  0.371300  0.594400  0.879900  1
  H  H468  1  0.628700  0.094400  0.620100  1
  H  H469  1  0.663100  0.400300  0.005900  1
  H  H470  1  0.336900  0.900300  0.494100  1
  H  H471  1  0.336900  0.599700  0.994100  1
  H  H472  1  0.663100  0.099700  0.505900  1
  H  H473  1  0.635900  0.317900  0.022300  1
  H  H474  1  0.364100  0.817900  0.477700  1
  H  H475  1  0.364100  0.682100  0.977700  1
  H  H476  1  0.635900  0.182100  0.522300  1
  H  H477  1  0.616500  0.277500  0.094100  1
  H  H478  1  0.383500  0.777500  0.405900  1
  H  H479  1  0.383500  0.722500  0.905900  1
  H  H480  1  0.616500  0.222500  0.594100  1
  H  H481  1  0.528700  0.299300  0.077800  1
  H  H482  1  0.471300  0.799300  0.422200  1
  H  H483  1  0.471300  0.700700  0.922200  1
  H  H484  1  0.528700  0.200700  0.577800  1
  H  H485  1  0.526400  0.343300  0.138200  1
  H  H486  1  0.473600  0.843300  0.361800  1
  H  H487  1  0.473600  0.656700  0.861800  1
  H  H488  1  0.526400  0.156700  0.638200  1
  H  H489  1  0.614300  0.320600  0.154700  1
  H  H490  1  0.385700  0.820600  0.345300  1
  H  H491  1  0.385700  0.679400  0.845300  1
  H  H492  1  0.614300  0.179400  0.654700  1
  H  H493  1  0.465700  0.270500  0.132600  1
  H  H494  1  0.534300  0.770500  0.367400  1
  H  H495  1  0.534300  0.729500  0.867400  1
  H  H496  1  0.465700  0.229500  0.632600  1
  H  H497  1  0.553200  0.238800  0.144300  1
  H  H498  1  0.446800  0.738800  0.355700  1
  H  H499  1  0.446800  0.761200  0.855700  1
  H  H500  1  0.553200  0.261200  0.644300  1
  H  H501  1  0.552600  0.298600  0.265900  1
  H  H502  1  0.447400  0.798600  0.234100  1
  H  H503  1  0.447400  0.701400  0.734100  1
  H  H504  1  0.552600  0.201400  0.765900  1
  H  H505  1  0.947400  0.705900  0.217400  1
  H  H506  1  0.052600  0.205900  0.282600  1
  H  H507  1  0.052600  0.294100  0.782600  1
  H  H508  1  0.947400  0.794100  0.717400  1
  H  H509  1  0.980500  0.670300  0.185200  1
  H  H510  1  0.019500  0.170300  0.314800  1
  H  H511  1  0.019500  0.329700  0.814800  1
  H  H512  1  0.980500  0.829700  0.685200  1
  H  H513  1  0.390000  0.428500  0.132200  1
  H  H514  1  0.610000  0.928500  0.367800  1
  H  H515  1  0.610000  0.571500  0.867800  1
  H  H516  1  0.390000  0.071500  0.632200  1
  H  H517  1  0.475700  0.434500  0.159700  1
  H  H518  1  0.524300  0.934500  0.340300  1
  H  H519  1  0.524300  0.565500  0.840300  1
  H  H520  1  0.475700  0.065500  0.659700  1
  H  H521  1  0.575400  0.721400  0.086700  1
  H  H522  1  0.424600  0.221400  0.413300  1
  H  H523  1  0.424600  0.278600  0.913300  1
  H  H524  1  0.575400  0.778600  0.586700  1
  H  H525  1  0.516600  0.716300  0.054500  1
  H  H526  1  0.483400  0.216300  0.445500  1
  H  H527  1  0.483400  0.283700  0.945500  1
  H  H528  1  0.516600  0.783700  0.554500  1
  H  H529  1  0.291700  0.513900  0.149900  1
  H  H530  1  0.708300  0.013900  0.350100  1
  H  H531  1  0.708300  0.486100  0.850100  1
  H  H532  1  0.291700  0.986100  0.649900  1
  H  H533  1  0.344100  0.521000  0.184200  1
  H  H534  1  0.655900  0.021000  0.315800  1
  H  H535  1  0.655900  0.479000  0.815800  1
  H  H536  1  0.344100  0.979000  0.684200  1
  H  H537  1  0.330100  0.756300  0.251500  1
  H  H538  1  0.669900  0.256300  0.248500  1
  H  H539  1  0.669900  0.243700  0.748500  1
  H  H540  1  0.330100  0.743700  0.751500  1
  H  H541  1  0.311700  0.729800  0.283900  1
  H  H542  1  0.688300  0.229800  0.216100  1
  H  H543  1  0.688300  0.270200  0.716100  1
  H  H544  1  0.311700  0.770200  0.783900  1
  H  H545  1  0.068900  0.398500  0.454800  1
  H  H546  1  0.931100  0.898500  0.045200  1
  H  H547  1  0.931100  0.601500  0.545200  1
  H  H548  1  0.068900  0.101500  0.954800  1
  H  H549  1  0.144800  0.402700  0.441200  1
  H  H550  1  0.855200  0.902700  0.058800  1
  H  H551  1  0.855200  0.597300  0.558800  1
  H  H552  1  0.144800  0.097300  0.941200  1
  H  H553  1  0.932900  0.398800  0.414200  1
  H  H554  1  0.067100  0.898800  0.085800  1
  H  H555  1  0.067100  0.601200  0.585800  1
  H  H556  1  0.932900  0.101200  0.914200  1
  H  H557  1  0.928100  0.373000  0.456600  1
  H  H558  1  0.071900  0.873000  0.043400  1
  H  H559  1  0.071900  0.627000  0.543400  1
  H  H560  1  0.928100  0.127000  0.956600  1
  H  H561  1  0.072300  0.700000  0.498000  1
  H  H562  1  0.927700  0.200000  0.002000  1
  H  H563  1  0.927700  0.300000  0.502000  1
  H  H564  1  0.072300  0.800000  0.998000  1
  H  H565  1  0.101100  0.656300  0.471800  1
  H  H566  1  0.898900  0.156300  0.028200  1
  H  H567  1  0.898900  0.343700  0.528200  1
  H  H568  1  0.101100  0.843700  0.971800  1
  H  H569  1  0.296600  0.807200  0.203400  1
  H  H570  1  0.703400  0.307200  0.296600  1
  H  H571  1  0.703400  0.192800  0.796600  1
  H  H572  1  0.296600  0.692800  0.703400  1
  H  H573  1  0.233700  0.816100  0.226400  1
  H  H574  1  0.766300  0.316100  0.273600  1
  H  H575  1  0.766300  0.183900  0.773600  1
  H  H576  1  0.233700  0.683900  0.726400  1
  H  H577  1  0.339300  0.365800  0.135700  1
  H  H578  1  0.660700  0.865800  0.364300  1
  H  H579  1  0.660700  0.634200  0.864300  1
  H  H580  1  0.339300  0.134200  0.635700  1
  H  H581  1  0.324200  0.384900  0.097900  1
  H  H582  1  0.675800  0.884900  0.402100  1
  H  H583  1  0.675800  0.615100  0.902100  1
  H  H584  1  0.324200  0.115100  0.597900  1
  H  H585  1  0.120300  0.596900  0.009300  1
  H  H586  1  0.879700  0.096900  0.490700  1
  H  H587  1  0.879700  0.403100  0.990700  1
  H  H588  1  0.120300  0.903100  0.509300  1
  H  H589  1  0.176300  0.560200  0.009100  1
  H  H590  1  0.823700  0.060200  0.490900  1
  H  H591  1  0.823700  0.439800  0.990900  1
  H  H592  1  0.176300  0.939800  0.509100  1
  H  H593  1  0.769000  0.420400  0.325100  1
  H  H594  1  0.231000  0.920400  0.174900  1
  H  H595  1  0.231000  0.579600  0.674900  1
  H  H596  1  0.769000  0.079600  0.825100  1
  H  H597  1  0.712600  0.386200  0.333500  1
  H  H598  1  0.287400  0.886200  0.166500  1
  H  H599  1  0.287400  0.613800  0.666500  1
  H  H600  1  0.712600  0.113800  0.833500  1
  H  H601  1  0.881600  0.310100  0.323100  1
  H  H602  1  0.118400  0.810100  0.176900  1
  H  H603  1  0.118400  0.689900  0.676900  1
  H  H604  1  0.881600  0.189900  0.823100  1
  H  H605  1  0.891200  0.297000  0.277200  1
  H  H606  1  0.108800  0.797000  0.222800  1
  H  H607  1  0.108800  0.703000  0.722800  1
  H  H608  1  0.891200  0.203000  0.777200  1
  H  H609  1  0.065300  0.441200  0.050400  1
  H  H610  1  0.934700  0.941200  0.449600  1
  H  H611  1  0.934700  0.558800  0.949600  1
  H  H612  1  0.065300  0.058800  0.550400  1
  H  H613  1  0.985900  0.432400  0.034500  1
  H  H614  1  0.014100  0.932400  0.465500  1
  H  H615  1  0.014100  0.567600  0.965500  1
  H  H616  1  0.985900  0.067600  0.534500  1
  H  H617  1  0.018200  0.269300  0.237800  1
  H  H618  1  0.981800  0.769300  0.262200  1
  H  H619  1  0.981800  0.730700  0.762200  1
  H  H620  1  0.018200  0.230700  0.737800  1
  H  H621  1  0.070800  0.274800  0.272200  1
  H  H622  1  0.929200  0.774800  0.227800  1
  H  H623  1  0.929200  0.725200  0.727800  1
  H  H624  1  0.070800  0.225200  0.772200  1
  H  H625  1  0.221400  0.731700  0.450800  1
  H  H626  1  0.778600  0.231700  0.049200  1
  H  H627  1  0.778600  0.268300  0.549200  1
  H  H628  1  0.221400  0.768300  0.950800  1
  H  H629  1  0.181600  0.747900  0.485900  1
  H  H630  1  0.818400  0.247900  0.014100  1
  H  H631  1  0.818400  0.252100  0.514100  1
  H  H632  1  0.181600  0.752100  0.985900  1
  H  H633  1  0.193500  0.316000  0.443900  1
  H  H634  1  0.806500  0.816000  0.056100  1
  H  H635  1  0.806500  0.684000  0.556100  1
  H  H636  1  0.193500  0.184000  0.943900  1
  H  H637  1  0.200700  0.293900  0.480800  1
  H  H638  1  0.799300  0.793900  0.019200  1
  H  H639  1  0.799300  0.706100  0.519200  1
  H  H640  1  0.200700  0.206100  0.980800  1
  H  H641  1  0.091100  0.316600  0.051700  1
  H  H642  1  0.908900  0.816600  0.448300  1
  H  H643  1  0.908900  0.683400  0.948300  1
  H  H644  1  0.091100  0.183400  0.551700  1
  H  H645  1  0.044600  0.345300  0.075400  1
  H  H646  1  0.955400  0.845300  0.424600  1
  H  H647  1  0.955400  0.654700  0.924600  1
  H  H648  1  0.044600  0.154700  0.575400  1
  H  H649  1  0.240200  0.745200  0.329200  1
  H  H650  1  0.759800  0.245200  0.170800  1
  H  H651  1  0.759800  0.254800  0.670800  1
  H  H652  1  0.240200  0.754800  0.829200  1
  H  H653  1  0.234800  0.690300  0.342900  1
  H  H654  1  0.765200  0.190300  0.157100  1
  H  H655  1  0.765200  0.309700  0.657100  1
  H  H656  1  0.234800  0.809700  0.842900  1
  H  H657  1  0.426500  0.161600  0.156800  1
  H  H658  1  0.573500  0.661600  0.343200  1
  H  H659  1  0.573500  0.838400  0.843200  1
  H  H660  1  0.426500  0.338400  0.656800  1
  H  H661  1  0.479500  0.146600  0.130200  1
  H  H662  1  0.520500  0.646600  0.369800  1
  H  H663  1  0.520500  0.853400  0.869800  1
  H  H664  1  0.479500  0.353400  0.630200  1
  H  H665  1  0.086400  0.771300  0.401100  1
  H  H666  1  0.913600  0.271300  0.098900  1
  H  H667  1  0.913600  0.228700  0.598900  1
  H  H668  1  0.086400  0.728700  0.901100  1
  H  H669  1  0.050700  0.756500  0.434300  1
  H  H670  1  0.949300  0.256500  0.065700  1
  H  H671  1  0.949300  0.243500  0.565700  1
  H  H672  1  0.050700  0.743500  0.934300  1
  H  H673  1  0.708000  0.647900  0.026300  1
  H  H674  1  0.292000  0.147900  0.473700  1
  H  H675  1  0.292000  0.352100  0.973700  1
  H  H676  1  0.708000  0.852100  0.526300  1
  H  H677  1  0.633600  0.685600  0.022900  1
  H  H678  1  0.366400  0.185600  0.477100  1
  H  H679  1  0.366400  0.314400  0.977100  1
  H  H680  1  0.633600  0.814400  0.522900  1
  H  H681  1  0.310800  0.285800  0.490600  1
  H  H682  1  0.689200  0.785800  0.009400  1
  H  H683  1  0.689200  0.714200  0.509400  1
  H  H684  1  0.310800  0.214200  0.990600  1
  H  H685  1  0.292800  0.247600  0.527100  1
  H  H686  1  0.707200  0.747600  0.972900  1
  H  H687  1  0.707200  0.752400  0.472900  1
  H  H688  1  0.292800  0.252400  0.027100  1
  H  H689  1  0.066700  0.771100  0.074300  1
  H  H690  1  0.933300  0.271100  0.425700  1
  H  H691  1  0.933300  0.228900  0.925700  1
  H  H692  1  0.066700  0.728900  0.574300  1
  H  H693  1  0.148100  0.770300  0.067700  1
  H  H694  1  0.851900  0.270300  0.432300  1
  H  H695  1  0.851900  0.229700  0.932300  1
  H  H696  1  0.148100  0.729700  0.567700  1
  H  H697  1  0.294900  0.359500  0.422200  1
  H  H698  1  0.705100  0.859500  0.077800  1
  H  H699  1  0.705100  0.640500  0.577800  1
  H  H700  1  0.294900  0.140500  0.922200  1
  H  H701  1  0.371300  0.349800  0.397100  1
  H  H702  1  0.628700  0.849800  0.102900  1
  H  H703  1  0.628700  0.650200  0.602900  1
  H  H704  1  0.371300  0.150200  0.897100  1
  H  H705  1  0.929500  0.336200  0.394000  1
  H  H706  1  0.070500  0.836200  0.106000  1
  H  H707  1  0.070500  0.663800  0.606000  1
  H  H708  1  0.929500  0.163800  0.894000  1
  H  H709  1  0.832200  0.336400  0.381600  1
  H  H710  1  0.167800  0.836400  0.118400  1
  H  H711  1  0.167800  0.663600  0.618400  1
  H  H712  1  0.832200  0.163600  0.881600  1
  H  H713  1  0.071800  0.282100  0.468300  1
  H  H714  1  0.928200  0.782100  0.031700  1
  H  H715  1  0.928200  0.717900  0.531700  1
  H  H716  1  0.071800  0.217900  0.968300  1
  H  H717  1  0.034600  0.236100  0.488700  1
  H  H718  1  0.965400  0.736100  0.011300  1
  H  H719  1  0.965400  0.763900  0.511300  1
  H  H720  1  0.034600  0.263900  0.988700  1
  H  H721  1  0.207800  0.723000  0.038600  1
  H  H722  1  0.792200  0.223000  0.461400  1
  H  H723  1  0.792200  0.277000  0.961400  1
  H  H724  1  0.207800  0.777000  0.538600  1
  H  H725  1  0.262500  0.702500  0.017700  1
  H  H726  1  0.737500  0.202500  0.482300  1
  H  H727  1  0.737500  0.297500  0.982300  1
  H  H728  1  0.262500  0.797500  0.517700  1
  H  H729  1  0.436300  0.273200  0.552100  1
  H  H730  1  0.563700  0.773200  0.947900  1
  H  H731  1  0.563700  0.726800  0.447900  1
  H  H732  1  0.436300  0.226800  0.052100  1
  H  H733  1  0.371000  0.263400  0.573300  1
  H  H734  1  0.629000  0.763400  0.926700  1
  H  H735  1  0.629000  0.736600  0.426700  1
  H  H736  1  0.371000  0.236600  0.073300  1
  H  H737  1  0.433100  0.324700  0.481000  1
  H  H738  1  0.566900  0.824700  0.019000  1
  H  H739  1  0.566900  0.675300  0.519000  1
  H  H740  1  0.433100  0.175300  0.981000  1
  H  H741  1  0.447600  0.286900  0.456300  1
  H  H742  1  0.552400  0.786900  0.043700  1
  H  H743  1  0.552400  0.713100  0.543700  1
  H  H744  1  0.447600  0.213100  0.956300  1
  H  H745  1  0.174900  0.362000  0.041300  1
  H  H746  1  0.825100  0.862000  0.458700  1
  H  H747  1  0.825100  0.638000  0.958700  1
  H  H748  1  0.174900  0.138000  0.541300  1
  H  H749  1  0.265300  0.378300  0.032600  1
  H  H750  1  0.734700  0.878300  0.467400  1
  H  H751  1  0.734700  0.621700  0.967400  1
  H  H752  1  0.265300  0.121700  0.532600  1
  H  H753  1  0.655900  0.402100  0.121600  1
  H  H754  1  0.344100  0.902100  0.378400  1
  H  H755  1  0.344100  0.597900  0.878400  1
  H  H756  1  0.655900  0.097900  0.621600  1
  H  H757  1  0.681700  0.390200  0.007500  1
  H  H758  1  0.318300  0.890200  0.492500  1
  H  H759  1  0.318300  0.609800  0.992500  1
  H  H760  1  0.681700  0.109800  0.507500  1
  H  H761  1  0.566500  0.330900  0.029400  1
  H  H762  1  0.433500  0.830900  0.470600  1
  H  H763  1  0.433500  0.669100  0.970600  1
  H  H764  1  0.566500  0.169100  0.529400  1
  H  H765  1  0.483200  0.320800  0.095300  1
  H  H766  1  0.516800  0.820800  0.404700  1
  H  H767  1  0.516800  0.679200  0.904700  1
  H  H768  1  0.483200  0.179200  0.595300  1
  H  H769  1  0.520000  0.349700  0.134800  1
  H  H770  1  0.480000  0.849700  0.365200  1
  H  H771  1  0.480000  0.650300  0.865200  1
  H  H772  1  0.520000  0.150300  0.634800  1
  H  H773  1  0.637300  0.296800  0.142100  1
  H  H774  1  0.362700  0.796800  0.357900  1
  H  H775  1  0.362700  0.703200  0.857900  1
  H  H776  1  0.637300  0.203200  0.642100  1
  H  H777  1  0.599500  0.267400  0.102300  1
  H  H778  1  0.400500  0.767400  0.397700  1
  H  H779  1  0.400500  0.732600  0.897700  1
  H  H780  1  0.599500  0.232600  0.602300  1
  H  H781  1  0.523600  0.232400  0.144400  1
  H  H782  1  0.476400  0.732400  0.355600  1
  H  H783  1  0.476400  0.767600  0.855600  1
  H  H784  1  0.523600  0.267600  0.644400  1
  Pd  Pd785  1  0.790100  0.553720  0.445090  1
  Pd  Pd786  1  0.209900  0.053720  0.054910  1
  Pd  Pd787  1  0.209900  0.446280  0.554910  1
  Pd  Pd788  1  0.790100  0.946280  0.945090  1
  Pd  Pd789  1  0.100380  0.553820  0.260990  1
  Pd  Pd790  1  0.899620  0.053820  0.239010  1
  Pd  Pd791  1  0.899620  0.446180  0.739010  1
  Pd  Pd792  1  0.100380  0.946180  0.760990  1
  Pd  Pd793  1  0.748530  0.474770  0.069340  1
  Pd  Pd794  1  0.251470  0.974770  0.430660  1
  Pd  Pd795  1  0.251470  0.525230  0.930660  1
  Pd  Pd796  1  0.748530  0.025230  0.569340  1
  C  C797  1  0.966800  0.544500  0.465200  1
  C  C798  1  0.033200  0.044500  0.034800  1
  C  C799  1  0.033200  0.455500  0.534800  1
  C  C800  1  0.966800  0.955500  0.965200  1
  C  C801  1  0.048900  0.536300  0.459900  1
  C  C802  1  0.951100  0.036300  0.040100  1
  C  C803  1  0.951100  0.463700  0.540100  1
  C  C804  1  0.048900  0.963700  0.959900  1
  C  C805  1  0.068500  0.519200  0.425100  1
  C  C806  1  0.931500  0.019200  0.074900  1
  C  C807  1  0.931500  0.480800  0.574900  1
  C  C808  1  0.068500  0.980800  0.925100  1
  C  C809  1  0.006500  0.509700  0.394500  1
  C  C810  1  0.993500  0.009700  0.105500  1
  C  C811  1  0.993500  0.490300  0.605500  1
  C  C812  1  0.006500  0.990300  0.894500  1
  C  C813  1  0.925600  0.518100  0.400000  1
  C  C814  1  0.074400  0.018100  0.100000  1
  C  C815  1  0.074400  0.481900  0.600000  1
  C  C816  1  0.925600  0.981900  0.900000  1
  C  C817  1  0.856900  0.509700  0.367170  1
  C  C818  1  0.143100  0.009700  0.132830  1
  C  C819  1  0.143100  0.490300  0.632830  1
  C  C820  1  0.856900  0.990300  0.867170  1
  C  C821  1  0.844900  0.551600  0.338700  1
  C  C822  1  0.155100  0.051600  0.161300  1
  C  C823  1  0.155100  0.448400  0.661300  1
  C  C824  1  0.844900  0.948400  0.838700  1
  C  C825  1  0.702200  0.549600  0.318290  1
  C  C826  1  0.297800  0.049600  0.181710  1
  C  C827  1  0.297800  0.450400  0.681710  1
  C  C828  1  0.702200  0.950400  0.818290  1
  C  C829  1  0.638700  0.545490  0.283310  1
  C  C830  1  0.361300  0.045490  0.216690  1
  C  C831  1  0.361300  0.454510  0.716690  1
  C  C832  1  0.638700  0.954510  0.783310  1
  C  C833  1  0.556800  0.553400  0.289760  1
  C  C834  1  0.443200  0.053400  0.210240  1
  C  C835  1  0.443200  0.446600  0.710240  1
  C  C836  1  0.556800  0.946600  0.789760  1
  C  C837  1  0.055400  0.611600  0.328200  1
  C  C838  1  0.944600  0.111600  0.171800  1
  C  C839  1  0.944600  0.388400  0.671800  1
  C  C840  1  0.055400  0.888400  0.828200  1
  C  C841  1  0.061000  0.632600  0.365100  1
  C  C842  1  0.939000  0.132600  0.134900  1
  C  C843  1  0.939000  0.367400  0.634900  1
  C  C844  1  0.061000  0.867400  0.865100  1
  C  C845  1  0.134700  0.630600  0.389200  1
  C  C846  1  0.865300  0.130600  0.110800  1
  C  C847  1  0.865300  0.369400  0.610800  1
  C  C848  1  0.134700  0.869400  0.889200  1
  C  C849  1  0.199200  0.607900  0.375500  1
  C  C850  1  0.800800  0.107900  0.124500  1
  C  C851  1  0.800800  0.392100  0.624500  1
  C  C852  1  0.199200  0.892100  0.875500  1
  C  C853  1  0.192100  0.586000  0.337700  1
  C  C854  1  0.807900  0.086000  0.162300  1
  C  C855  1  0.807900  0.414000  0.662300  1
  C  C856  1  0.192100  0.914000  0.837700  1
  C  C857  1  0.265800  0.562800  0.321200  1
  C  C858  1  0.734200  0.062800  0.178800  1
  C  C859  1  0.734200  0.437200  0.678800  1
  C  C860  1  0.265800  0.937200  0.821200  1
  C  C861  1  0.319000  0.600800  0.305000  1
  C  C862  1  0.681000  0.100800  0.195000  1
  C  C863  1  0.681000  0.399200  0.695000  1
  C  C864  1  0.319000  0.899200  0.805000  1
  C  C865  1  0.407800  0.561300  0.263400  1
  C  C866  1  0.592200  0.061300  0.236600  1
  C  C867  1  0.592200  0.438700  0.736600  1
  C  C868  1  0.407800  0.938700  0.763400  1
  C  C869  1  0.495900  0.551400  0.257780  1
  C  C870  1  0.504100  0.051400  0.242220  1
  C  C871  1  0.504100  0.448600  0.742220  1
  C  C872  1  0.495900  0.948600  0.757780  1
  C  C873  1  0.515100  0.542800  0.219320  1
  C  C874  1  0.484900  0.042800  0.280680  1
  C  C875  1  0.484900  0.457200  0.780680  1
  C  C876  1  0.515100  0.957200  0.719320  1
  C  C877  1  0.677000  0.502600  0.989480  1
  C  C878  1  0.323000  0.002600  0.510520  1
  C  C879  1  0.323000  0.497400  0.010520  1
  C  C880  1  0.677000  0.997400  0.489480  1
  C  C881  1  0.628400  0.526000  0.959800  1
  C  C882  1  0.371600  0.026000  0.540200  1
  C  C883  1  0.371600  0.474000  0.040200  1
  C  C884  1  0.628400  0.974000  0.459800  1
  C  C885  1  0.572000  0.558800  0.969700  1
  C  C886  1  0.428000  0.058800  0.530300  1
  C  C887  1  0.428000  0.441200  0.030300  1
  C  C888  1  0.572000  0.941200  0.469700  1
  C  C889  1  0.569800  0.570500  0.009800  1
  C  C890  1  0.430200  0.070500  0.490200  1
  C  C891  1  0.430200  0.429500  0.990200  1
  C  C892  1  0.569800  0.929500  0.509800  1
  C  C893  1  0.621500  0.547300  0.039000  1
  C  C894  1  0.378500  0.047300  0.461000  1
  C  C895  1  0.378500  0.452700  0.961000  1
  C  C896  1  0.621500  0.952700  0.539000  1
  C  C897  1  0.620500  0.560400  0.083600  1
  C  C898  1  0.379500  0.060400  0.416400  1
  C  C899  1  0.379500  0.439600  0.916400  1
  C  C900  1  0.620500  0.939600  0.583600  1
  C  C901  1  0.563800  0.526600  0.101600  1
  C  C902  1  0.436200  0.026600  0.398400  1
  C  C903  1  0.436200  0.473400  0.898400  1
  C  C904  1  0.563800  0.973400  0.601600  1
  C  C905  1  0.618000  0.526600  0.171200  1
  C  C906  1  0.382000  0.026600  0.328800  1
  C  C907  1  0.382000  0.473400  0.828800  1
  C  C908  1  0.618000  0.973400  0.671200  1
  C  C909  1  0.596400  0.535400  0.212430  1
  C  C910  1  0.403600  0.035400  0.287570  1
  C  C911  1  0.403600  0.464600  0.787570  1
  C  C912  1  0.596400  0.964600  0.712430  1
  C  C913  1  0.658200  0.536600  0.244110  1
  C  C914  1  0.341800  0.036600  0.255890  1
  C  C915  1  0.341800  0.463400  0.755890  1
  C  C916  1  0.658200  0.963400  0.744110  1
  C  C917  1  0.612000  0.550900  0.428410  1
  C  C918  1  0.388000  0.050900  0.071590  1
  C  C919  1  0.388000  0.449100  0.571590  1
  C  C920  1  0.612000  0.949100  0.928410  1
  C  C921  1  0.639300  0.599500  0.477800  1
  C  C922  1  0.360700  0.099500  0.022200  1
  C  C923  1  0.360700  0.400500  0.522200  1
  C  C924  1  0.639300  0.900500  0.977800  1
  C  C925  1  0.556600  0.596500  0.470800  1
  C  C926  1  0.443400  0.096500  0.029200  1
  C  C927  1  0.443400  0.403500  0.529200  1
  C  C928  1  0.556600  0.903500  0.970800  1
  C  C929  1  0.458400  0.547200  0.422400  1
  C  C930  1  0.541600  0.047200  0.077600  1
  C  C931  1  0.541600  0.452800  0.577600  1
  C  C932  1  0.458400  0.952800  0.922400  1
  C  C933  1  0.438400  0.499900  0.440900  1
  C  C934  1  0.561600  0.999900  0.059100  1
  C  C935  1  0.561600  0.500100  0.559100  1
  C  C936  1  0.438400  0.000100  0.940900  1
  C  C937  1  0.485800  0.458100  0.427400  1
  C  C938  1  0.514200  0.958100  0.072600  1
  C  C939  1  0.514200  0.541900  0.572600  1
  C  C940  1  0.485800  0.041900  0.927400  1
  C  C941  1  0.522400  0.448800  0.359600  1
  C  C942  1  0.477600  0.948800  0.140400  1
  C  C943  1  0.477600  0.551200  0.640400  1
  C  C944  1  0.522400  0.051200  0.859600  1
  C  C945  1  0.493000  0.435200  0.316210  1
  C  C946  1  0.507000  0.935200  0.183790  1
  C  C947  1  0.507000  0.564800  0.683790  1
  C  C948  1  0.493000  0.064800  0.816210  1
  C  C949  1  0.411000  0.429900  0.302100  1
  C  C950  1  0.589000  0.929900  0.197900  1
  C  C951  1  0.589000  0.570100  0.697900  1
  C  C952  1  0.411000  0.070100  0.802100  1
  C  C953  1  0.148100  0.489600  0.198100  1
  C  C954  1  0.851900  0.989600  0.301900  1
  C  C955  1  0.851900  0.510400  0.801900  1
  C  C956  1  0.148100  0.010400  0.698100  1
  C  C957  1  0.020800  0.507400  0.182400  1
  C  C958  1  0.979200  0.007400  0.317600  1
  C  C959  1  0.979200  0.492600  0.817600  1
  C  C960  1  0.020800  0.992600  0.682400  1
  C  C961  1  0.041700  0.476000  0.154300  1
  C  C962  1  0.958300  0.976000  0.345700  1
  C  C963  1  0.958300  0.524000  0.845700  1
  C  C964  1  0.041700  0.024000  0.654300  1
  C  C965  1  0.171100  0.429000  0.145100  1
  C  C966  1  0.828900  0.929000  0.354900  1
  C  C967  1  0.828900  0.571000  0.854900  1
  C  C968  1  0.171100  0.071000  0.645100  1
  C  C969  1  0.161200  0.378500  0.161100  1
  C  C970  1  0.838800  0.878500  0.338900  1
  C  C971  1  0.838800  0.621500  0.838900  1
  C  C972  1  0.161200  0.121500  0.661100  1
  C  C973  1  0.187200  0.373500  0.206300  1
  C  C974  1  0.812800  0.873500  0.293700  1
  C  C975  1  0.812800  0.626500  0.793700  1
  C  C976  1  0.187200  0.126500  0.706300  1
  C  C977  1  0.298200  0.410900  0.250100  1
  C  C978  1  0.701800  0.910900  0.249900  1
  C  C979  1  0.701800  0.589100  0.749900  1
  C  C980  1  0.298200  0.089100  0.750100  1
  C  C981  1  0.387500  0.417100  0.262100  1
  C  C982  1  0.612500  0.917100  0.237900  1
  C  C983  1  0.612500  0.582900  0.737900  1
  C  C984  1  0.387500  0.082900  0.762100  1
  C  C985  1  0.448300  0.410400  0.236500  1
  C  C986  1  0.551700  0.910400  0.263500  1
  C  C987  1  0.551700  0.589600  0.763500  1
  C  C988  1  0.448300  0.089600  0.736500  1
  C  C989  1  0.829200  0.443100  0.148870  1
  C  C990  1  0.170800  0.943100  0.351130  1
  C  C991  1  0.170800  0.556900  0.851130  1
  C  C992  1  0.829200  0.056900  0.648870  1
  C  C993  1  0.859200  0.394200  0.102300  1
  C  C994  1  0.140800  0.894200  0.397700  1
  C  C995  1  0.140800  0.605800  0.897700  1
  C  C996  1  0.859200  0.105800  0.602300  1
  C  C997  1  0.888800  0.375000  0.138400  1
  C  C998  1  0.111200  0.875000  0.361600  1
  C  C999  1  0.111200  0.625000  0.861600  1
  C  C1000  1  0.888800  0.125000  0.638400  1
  C  C1001  1  0.884700  0.398900  0.210750  1
  C  C1002  1  0.115300  0.898900  0.289250  1
  C  C1003  1  0.115300  0.601100  0.789250  1
  C  C1004  1  0.884700  0.101100  0.710750  1
  C  C1005  1  0.809300  0.409300  0.231900  1
  C  C1006  1  0.190700  0.909300  0.268100  1
  C  C1007  1  0.190700  0.590700  0.768100  1
  C  C1008  1  0.809300  0.090700  0.731900  1
  C  C1009  1  0.736300  0.378900  0.215900  1
  C  C1010  1  0.263700  0.878900  0.284100  1
  C  C1011  1  0.263700  0.621100  0.784100  1
  C  C1012  1  0.736300  0.121100  0.715900  1
  C  C1013  1  0.594400  0.406900  0.222000  1
  C  C1014  1  0.405600  0.906900  0.278000  1
  C  C1015  1  0.405600  0.593100  0.778000  1
  C  C1016  1  0.594400  0.093100  0.722000  1
  C  C1017  1  0.531100  0.415500  0.250700  1
  C  C1018  1  0.468900  0.915500  0.249300  1
  C  C1019  1  0.468900  0.584500  0.749300  1
  C  C1020  1  0.531100  0.084500  0.750700  1
  C  C1021  1  0.552700  0.428600  0.290300  1
  C  C1022  1  0.447300  0.928600  0.209700  1
  C  C1023  1  0.447300  0.571400  0.709700  1
  C  C1024  1  0.552700  0.071400  0.790300  1
  C  C1025  1  0.768300  0.649400  0.404800  1
  C  C1026  1  0.231700  0.149400  0.095200  1
  C  C1027  1  0.231700  0.350600  0.595200  1
  C  C1028  1  0.768300  0.850600  0.904800  1
  C  C1029  1  0.881200  0.649900  0.445100  1
  C  C1030  1  0.118800  0.149900  0.054900  1
  C  C1031  1  0.118800  0.350100  0.554900  1
  C  C1032  1  0.881200  0.850100  0.945100  1
  C  C1033  1  0.874500  0.693400  0.427900  1
  C  C1034  1  0.125500  0.193400  0.072100  1
  C  C1035  1  0.125500  0.306600  0.572100  1
  C  C1036  1  0.874500  0.806600  0.927900  1
  C  C1037  1  0.772100  0.732700  0.374700  1
  C  C1038  1  0.227900  0.232700  0.125300  1
  C  C1039  1  0.227900  0.267300  0.625300  1
  C  C1040  1  0.772100  0.767300  0.874700  1
  C  C1041  1  0.836800  0.745100  0.347300  1
  C  C1042  1  0.163200  0.245100  0.152700  1
  C  C1043  1  0.163200  0.254900  0.652700  1
  C  C1044  1  0.836800  0.754900  0.847300  1
  C  C1045  1  0.858300  0.704800  0.319600  1
  C  C1046  1  0.141700  0.204800  0.180400  1
  C  C1047  1  0.141700  0.295200  0.680400  1
  C  C1048  1  0.858300  0.795200  0.819600  1
  C  C1049  1  0.733100  0.672700  0.281700  1
  C  C1050  1  0.266900  0.172700  0.218300  1
  C  C1051  1  0.266900  0.327300  0.718300  1
  C  C1052  1  0.733100  0.827300  0.781700  1
  C  C1053  1  0.685300  0.669300  0.241000  1
  C  C1054  1  0.314700  0.169300  0.259000  1
  C  C1055  1  0.314700  0.330700  0.759000  1
  C  C1056  1  0.685300  0.830700  0.741000  1
  C  C1057  1  0.600400  0.665100  0.238300  1
  C  C1058  1  0.399600  0.165100  0.261700  1
  C  C1059  1  0.399600  0.334900  0.761700  1
  C  C1060  1  0.600400  0.834900  0.738300  1
  C  C1061  1  0.147600  0.615600  0.193490  1
  C  C1062  1  0.852400  0.115600  0.306510  1
  C  C1063  1  0.852400  0.384400  0.806510  1
  C  C1064  1  0.147600  0.884400  0.693490  1
  C  C1065  1  0.132300  0.660100  0.244800  1
  C  C1066  1  0.867700  0.160100  0.255200  1
  C  C1067  1  0.867700  0.339900  0.755200  1
  C  C1068  1  0.132300  0.839900  0.744800  1
  C  C1069  1  0.152300  0.689200  0.215400  1
  C  C1070  1  0.847700  0.189200  0.284600  1
  C  C1071  1  0.847700  0.310800  0.784600  1
  C  C1072  1  0.152300  0.810800  0.715400  1
  C  C1073  1  0.190300  0.676000  0.145000  1
  C  C1074  1  0.809700  0.176000  0.355000  1
  C  C1075  1  0.809700  0.324000  0.855000  1
  C  C1076  1  0.190300  0.824000  0.645000  1
  C  C1077  1  0.282800  0.684900  0.149900  1
  C  C1078  1  0.717200  0.184900  0.350100  1
  C  C1079  1  0.717200  0.315100  0.850100  1
  C  C1080  1  0.282800  0.815100  0.649900  1
  C  C1081  1  0.330300  0.640200  0.162500  1
  C  C1082  1  0.669700  0.140200  0.337500  1
  C  C1083  1  0.669700  0.359800  0.837500  1
  C  C1084  1  0.330300  0.859800  0.662500  1
  C  C1085  1  0.461800  0.659300  0.200500  1
  C  C1086  1  0.538200  0.159300  0.299500  1
  C  C1087  1  0.538200  0.340700  0.799500  1
  C  C1088  1  0.461800  0.840700  0.700500  1
  C  C1089  1  0.553800  0.663000  0.200700  1
  C  C1090  1  0.446200  0.163000  0.299300  1
  C  C1091  1  0.446200  0.337000  0.799300  1
  C  C1092  1  0.553800  0.837000  0.700700  1
  C  C1093  1  0.593700  0.665500  0.166300  1
  C  C1094  1  0.406300  0.165500  0.333700  1
  C  C1095  1  0.406300  0.334500  0.833700  1
  C  C1096  1  0.593700  0.834500  0.666300  1
  C  C1097  1  0.859200  0.555100  0.101800  1
  C  C1098  1  0.140800  0.055100  0.398200  1
  C  C1099  1  0.140800  0.444900  0.898200  1
  C  C1100  1  0.859200  0.944900  0.601800  1
  C  C1101  1  0.869800  0.543900  0.038900  1
  C  C1102  1  0.130200  0.043900  0.461100  1
  C  C1103  1  0.130200  0.456100  0.961100  1
  C  C1104  1  0.869800  0.956100  0.538900  1
  C  C1105  1  0.923900  0.578700  0.051300  1
  C  C1106  1  0.076100  0.078700  0.448700  1
  C  C1107  1  0.076100  0.421300  0.948700  1
  C  C1108  1  0.923900  0.921300  0.551300  1
  C  C1109  1  0.958900  0.622500  0.116700  1
  C  C1110  1  0.041100  0.122500  0.383300  1
  C  C1111  1  0.041100  0.377500  0.883300  1
  C  C1112  1  0.958900  0.877500  0.616700  1
  C  C1113  1  0.933500  0.672500  0.103900  1
  C  C1114  1  0.066500  0.172500  0.396100  1
  C  C1115  1  0.066500  0.327500  0.896100  1
  C  C1116  1  0.933500  0.827500  0.603900  1
  C  C1117  1  0.842000  0.679900  0.096200  1
  C  C1118  1  0.158000  0.179900  0.403800  1
  C  C1119  1  0.158000  0.320100  0.903800  1
  C  C1120  1  0.842000  0.820100  0.596200  1
  C  C1121  1  0.718400  0.674000  0.130200  1
  C  C1122  1  0.281600  0.174000  0.369800  1
  C  C1123  1  0.281600  0.326000  0.869800  1
  C  C1124  1  0.718400  0.826000  0.630200  1
  C  C1125  1  0.678900  0.669300  0.168700  1
  C  C1126  1  0.321100  0.169300  0.331300  1
  C  C1127  1  0.321100  0.330700  0.831300  1
  C  C1128  1  0.678900  0.830700  0.668700  1
  C  C1129  1  0.723800  0.671200  0.206600  1
  C  C1130  1  0.276200  0.171200  0.293400  1
  C  C1131  1  0.276200  0.328800  0.793400  1
  C  C1132  1  0.723800  0.828800  0.706600  1
  C  C1133  1  0.764700  0.445200  0.442200  1
  C  C1134  1  0.235300  0.945200  0.057800  1
  C  C1135  1  0.235300  0.554800  0.557800  1
  C  C1136  1  0.764700  0.054800  0.942200  1
  C  C1137  1  0.736900  0.474400  0.498600  1
  C  C1138  1  0.263100  0.974400  0.001400  1
  C  C1139  1  0.263100  0.525600  0.501400  1
  C  C1140  1  0.736900  0.025600  0.998600  1
  C  C1141  1  0.720900  0.427200  0.499800  1
  C  C1142  1  0.279100  0.927200  0.000200  1
  C  C1143  1  0.279100  0.572800  0.500200  1
  C  C1144  1  0.720900  0.072800  0.999800  1
  C  C1145  1  0.726700  0.358900  0.449800  1
  C  C1146  1  0.273300  0.858900  0.050200  1
  C  C1147  1  0.273300  0.641100  0.550200  1
  C  C1148  1  0.726700  0.141100  0.949800  1
  C  C1149  1  0.643800  0.351700  0.425800  1
  C  C1150  1  0.356200  0.851700  0.074200  1
  C  C1151  1  0.356200  0.648300  0.574200  1
  C  C1152  1  0.643800  0.148300  0.925800  1
  C  C1153  1  0.638300  0.300600  0.408300  1
  C  C1154  1  0.361700  0.800600  0.091700  1
  C  C1155  1  0.361700  0.699400  0.591700  1
  C  C1156  1  0.638300  0.199400  0.908300  1
  C  C1157  1  0.563800  0.308300  0.342800  1
  C  C1158  1  0.436200  0.808300  0.157200  1
  C  C1159  1  0.436200  0.691700  0.657200  1
  C  C1160  1  0.563800  0.191700  0.842800  1
  C  C1161  1  0.487400  0.299400  0.314300  1
  C  C1162  1  0.512600  0.799400  0.185700  1
  C  C1163  1  0.512600  0.700600  0.685700  1
  C  C1164  1  0.487400  0.200600  0.814300  1
  C  C1165  1  0.408700  0.297000  0.325900  1
  C  C1166  1  0.591300  0.797000  0.174100  1
  C  C1167  1  0.591300  0.703000  0.674100  1
  C  C1168  1  0.408700  0.203000  0.825900  1
  C  C1169  1  0.118800  0.464400  0.311200  1
  C  C1170  1  0.881200  0.964400  0.188800  1
  C  C1171  1  0.881200  0.535600  0.688800  1
  C  C1172  1  0.118800  0.035600  0.811200  1
  C  C1173  1  0.992000  0.473700  0.287800  1
  C  C1174  1  0.008000  0.973700  0.212200  1
  C  C1175  1  0.008000  0.526300  0.712200  1
  C  C1176  1  0.992000  0.026300  0.787800  1
  C  C1177  1  0.998800  0.431400  0.307300  1
  C  C1178  1  0.001200  0.931400  0.192700  1
  C  C1179  1  0.001200  0.568600  0.692700  1
  C  C1180  1  0.998800  0.068600  0.807300  1
  C  C1181  1  0.117700  0.385200  0.348900  1
  C  C1182  1  0.882300  0.885200  0.151100  1
  C  C1183  1  0.882300  0.614800  0.651100  1
  C  C1184  1  0.117700  0.114800  0.848900  1
  C  C1185  1  0.097800  0.340200  0.333400  1
  C  C1186  1  0.902200  0.840200  0.166600  1
  C  C1187  1  0.902200  0.659800  0.666600  1
  C  C1188  1  0.097800  0.159800  0.833400  1
  C  C1189  1  0.148700  0.299900  0.353200  1
  C  C1190  1  0.851300  0.799900  0.146800  1
  C  C1191  1  0.851300  0.700100  0.646800  1
  C  C1192  1  0.148700  0.200100  0.853200  1
  C  C1193  1  0.252200  0.288700  0.307100  1
  C  C1194  1  0.747800  0.788700  0.192900  1
  C  C1195  1  0.747800  0.711300  0.692900  1
  C  C1196  1  0.252200  0.211300  0.807100  1
  C  C1197  1  0.340600  0.290800  0.297700  1
  C  C1198  1  0.659400  0.790800  0.202300  1
  C  C1199  1  0.659400  0.709200  0.702300  1
  C  C1200  1  0.340600  0.209200  0.797700  1
  C  C1201  1  0.353100  0.287900  0.257900  1
  C  C1202  1  0.646900  0.787900  0.242100  1
  C  C1203  1  0.646900  0.712100  0.742100  1
  C  C1204  1  0.353100  0.212100  0.757900  1
  C  C1205  1  0.639000  0.394200  0.094300  1
  C  C1206  1  0.361000  0.894200  0.405700  1
  C  C1207  1  0.361000  0.605800  0.905700  1
  C  C1208  1  0.639000  0.105800  0.594300  1
  C  C1209  1  0.658500  0.389000  0.032300  1
  C  C1210  1  0.341500  0.889000  0.467700  1
  C  C1211  1  0.341500  0.611000  0.967700  1
  C  C1212  1  0.658500  0.111000  0.532300  1
  C  C1213  1  0.638000  0.344900  0.039700  1
  C  C1214  1  0.362000  0.844900  0.460300  1
  C  C1215  1  0.362000  0.655100  0.960300  1
  C  C1216  1  0.638000  0.155100  0.539700  1
  C  C1217  1  0.581000  0.306300  0.094500  1
  C  C1218  1  0.419000  0.806300  0.405500  1
  C  C1219  1  0.419000  0.693700  0.905500  1
  C  C1220  1  0.581000  0.193700  0.594500  1
  C  C1221  1  0.563000  0.315100  0.136700  1
  C  C1222  1  0.437000  0.815100  0.363300  1
  C  C1223  1  0.437000  0.684900  0.863300  1
  C  C1224  1  0.563000  0.184900  0.636700  1
  C  C1225  1  0.519100  0.267600  0.148200  1
  C  C1226  1  0.480900  0.767600  0.351800  1
  C  C1227  1  0.480900  0.732400  0.851800  1
  C  C1228  1  0.519100  0.232400  0.648200  1
  C  C1229  1  0.436900  0.290300  0.202300  1
  C  C1230  1  0.563100  0.790300  0.297700  1
  C  C1231  1  0.563100  0.709700  0.797700  1
  C  C1232  1  0.436900  0.209700  0.702300  1
  C  C1233  1  0.430800  0.290600  0.245200  1
  C  C1234  1  0.569200  0.790600  0.254800  1
  C  C1235  1  0.569200  0.709400  0.754800  1
  C  C1236  1  0.430800  0.209400  0.745200  1
  C  C1237  1  0.498800  0.296500  0.274000  1
  C  C1238  1  0.501200  0.796500  0.226000  1
  C  C1239  1  0.501200  0.703500  0.726000  1
  C  C1240  1  0.498800  0.203500  0.774000  1
  C  C1241  1  0.595100  0.354400  0.046100  1
  C  C1242  1  0.404900  0.854400  0.453900  1
  C  C1243  1  0.404900  0.645600  0.953900  1
  C  C1244  1  0.595100  0.145600  0.546100  1
  C  C1245  1  0.534600  0.331300  0.111300  1
  C  C1246  1  0.465400  0.831300  0.388700  1
  C  C1247  1  0.465400  0.668700  0.888700  1
  C  C1248  1  0.534600  0.168700  0.611300  1
  C  C1249  1  0.586500  0.288200  0.124800  1
  C  C1250  1  0.413500  0.788200  0.375200  1
  C  C1251  1  0.413500  0.711800  0.875200  1
  C  C1252  1  0.586500  0.211800  0.624800  1
  N  N1253  1  0.906400  0.535360  0.435470  1
  N  N1254  1  0.093600  0.035360  0.064530  1
  N  N1255  1  0.093600  0.464640  0.564530  1
  N  N1256  1  0.906400  0.964640  0.935470  1
  N  N1257  1  0.119200  0.588530  0.314640  1
  N  N1258  1  0.880800  0.088530  0.185360  1
  N  N1259  1  0.880800  0.411470  0.685360  1
  N  N1260  1  0.119200  0.911470  0.814640  1
  N  N1261  1  0.671900  0.512200  0.028770  1
  N  N1262  1  0.328100  0.012200  0.471230  1
  N  N1263  1  0.328100  0.487800  0.971230  1
  N  N1264  1  0.671900  0.987800  0.528770  1
  N  N1265  1  0.673300  0.570700  0.451460  1
  N  N1266  1  0.326700  0.070700  0.048540  1
  N  N1267  1  0.326700  0.429300  0.548540  1
  N  N1268  1  0.673300  0.929300  0.951460  1
  N  N1269  1  0.541000  0.566400  0.439110  1
  N  N1270  1  0.459000  0.066400  0.060890  1
  N  N1271  1  0.459000  0.433600  0.560890  1
  N  N1272  1  0.541000  0.933600  0.939110  1
  N  N1273  1  0.467700  0.447400  0.385260  1
  N  N1274  1  0.532300  0.947400  0.114740  1
  N  N1275  1  0.532300  0.552600  0.614740  1
  N  N1276  1  0.467700  0.052600  0.885260  1
  N  N1277  1  0.822100  0.436800  0.109730  1
  N  N1278  1  0.177900  0.936800  0.390270  1
  N  N1279  1  0.177900  0.563200  0.890270  1
  N  N1280  1  0.822100  0.063200  0.609730  1
  N  N1281  1  0.868300  0.406000  0.167250  1
  N  N1282  1  0.131700  0.906000  0.332750  1
  N  N1283  1  0.131700  0.594000  0.832750  1
  N  N1284  1  0.868300  0.094000  0.667250  1
  N  N1285  1  0.665000  0.388200  0.238370  1
  N  N1286  1  0.335000  0.888200  0.261630  1
  N  N1287  1  0.335000  0.611800  0.761630  1
  N  N1288  1  0.665000  0.111800  0.738370  1
  N  N1289  1  0.087600  0.515610  0.209760  1
  N  N1290  1  0.912400  0.015610  0.290240  1
  N  N1291  1  0.912400  0.484390  0.790240  1
  N  N1292  1  0.087600  0.984390  0.709760  1
  N  N1293  1  0.122400  0.464900  0.164310  1
  N  N1294  1  0.877600  0.964900  0.335690  1
  N  N1295  1  0.877600  0.535100  0.835690  1
  N  N1296  1  0.122400  0.035100  0.664310  1
  N  N1297  1  0.272500  0.386720  0.217330  1
  N  N1298  1  0.727500  0.886720  0.282670  1
  N  N1299  1  0.727500  0.613280  0.782670  1
  N  N1300  1  0.272500  0.113280  0.717330  1
  N  N1301  1  0.814000  0.622450  0.430640  1
  N  N1302  1  0.186000  0.122450  0.069360  1
  N  N1303  1  0.186000  0.377550  0.569360  1
  N  N1304  1  0.814000  0.877550  0.930640  1
  N  N1305  1  0.803400  0.692500  0.401790  1
  N  N1306  1  0.196600  0.192500  0.098210  1
  N  N1307  1  0.196600  0.307500  0.598210  1
  N  N1308  1  0.803400  0.807500  0.901790  1
  N  N1309  1  0.798900  0.700200  0.283900  1
  N  N1310  1  0.201100  0.200200  0.216100  1
  N  N1311  1  0.201100  0.299800  0.716100  1
  N  N1312  1  0.798900  0.799800  0.783900  1
  N  N1313  1  0.128700  0.613390  0.230840  1
  N  N1314  1  0.871300  0.113390  0.269160  1
  N  N1315  1  0.871300  0.386610  0.769160  1
  N  N1316  1  0.128700  0.886610  0.730840  1
  N  N1317  1  0.161200  0.660500  0.182710  1
  N  N1318  1  0.838800  0.160500  0.317290  1
  N  N1319  1  0.838800  0.339500  0.817290  1
  N  N1320  1  0.161200  0.839500  0.682710  1
  N  N1321  1  0.419600  0.646600  0.166690  1
  N  N1322  1  0.580400  0.146600  0.333310  1
  N  N1323  1  0.580400  0.353400  0.833310  1
  N  N1324  1  0.419600  0.853400  0.666690  1
  N  N1325  1  0.829300  0.528900  0.070770  1
  N  N1326  1  0.170700  0.028900  0.429230  1
  N  N1327  1  0.170700  0.471100  0.929230  1
  N  N1328  1  0.829300  0.971100  0.570770  1
  N  N1329  1  0.916500  0.585600  0.091200  1
  N  N1330  1  0.083500  0.085600  0.408800  1
  N  N1331  1  0.083500  0.414400  0.908800  1
  N  N1332  1  0.916500  0.914400  0.591200  1
  N  N1333  1  0.800100  0.672500  0.132100  1
  N  N1334  1  0.199900  0.172500  0.367900  1
  N  N1335  1  0.199900  0.327500  0.867900  1
  N  N1336  1  0.800100  0.827500  0.632100  1
  N  N1337  1  0.764100  0.486110  0.462110  1
  N  N1338  1  0.235900  0.986110  0.037890  1
  N  N1339  1  0.235900  0.513890  0.537890  1
  N  N1340  1  0.764100  0.013890  0.962110  1
  N  N1341  1  0.737700  0.408790  0.463540  1
  N  N1342  1  0.262300  0.908790  0.036460  1
  N  N1343  1  0.262300  0.591210  0.536460  1
  N  N1344  1  0.737700  0.091210  0.963540  1
  N  N1345  1  0.564400  0.294000  0.380000  1
  N  N1346  1  0.435600  0.794000  0.120000  1
  N  N1347  1  0.435600  0.706000  0.620000  1
  N  N1348  1  0.564400  0.206000  0.880000  1
  N  N1349  1  0.069400  0.494300  0.290130  1
  N  N1350  1  0.930600  0.994300  0.209870  1
  N  N1351  1  0.930600  0.505700  0.709870  1
  N  N1352  1  0.069400  0.005700  0.790130  1
  N  N1353  1  0.078300  0.425800  0.322200  1
  N  N1354  1  0.921700  0.925800  0.177800  1
  N  N1355  1  0.921700  0.574200  0.677800  1
  N  N1356  1  0.078300  0.074200  0.822200  1
  N  N1357  1  0.234400  0.300500  0.343200  1
  N  N1358  1  0.765600  0.800500  0.156800  1
  N  N1359  1  0.765600  0.699500  0.656800  1
  N  N1360  1  0.234400  0.199500  0.843200  1
  N  N1361  1  0.672700  0.417700  0.065340  1
  N  N1362  1  0.327300  0.917700  0.434660  1
  N  N1363  1  0.327300  0.582300  0.934660  1
  N  N1364  1  0.672700  0.082300  0.565340  1
  N  N1365  1  0.621800  0.346800  0.076500  1
  N  N1366  1  0.378200  0.846800  0.423500  1
  N  N1367  1  0.378200  0.653200  0.923500  1
  N  N1368  1  0.621800  0.153200  0.576500  1
  N  N1369  1  0.505500  0.273100  0.190100  1
  N  N1370  1  0.494500  0.773100  0.309900  1
  N  N1371  1  0.494500  0.726900  0.809900  1
  N  N1372  1  0.505500  0.226900  0.690100  1
  N  N1373  1  0.909500  0.262800  0.183100  1
  N  N1374  1  0.090500  0.762800  0.316900  1
  N  N1375  1  0.090500  0.737200  0.816900  1
  N  N1376  1  0.909500  0.237200  0.683100  1
  N  N1377  1  0.377600  0.634900  0.067700  1
  N  N1378  1  0.622400  0.134900  0.432300  1
  N  N1379  1  0.622400  0.365100  0.932300  1
  N  N1380  1  0.377600  0.865100  0.567700  1
  N  N1381  1  0.873600  0.569600  0.222200  1
  N  N1382  1  0.126400  0.069600  0.277800  1
  N  N1383  1  0.126400  0.430400  0.777800  1
  N  N1384  1  0.873600  0.930400  0.722200  1
  N  N1385  1  0.259800  0.450300  0.401400  1
  N  N1386  1  0.740200  0.950300  0.098600  1
  N  N1387  1  0.740200  0.549700  0.598600  1
  N  N1388  1  0.259800  0.049700  0.901400  1
  N  N1389  1  0.163300  0.541400  0.087400  1
  N  N1390  1  0.836700  0.041400  0.412600  1
  N  N1391  1  0.836700  0.458600  0.912600  1
  N  N1392  1  0.163300  0.958600  0.587400  1
  N  N1393  1  0.644000  0.331000  0.575600  1
  N  N1394  1  0.356000  0.831000  0.924400  1
  N  N1395  1  0.356000  0.669000  0.424400  1
  N  N1396  1  0.644000  0.169000  0.075600  1
  N  N1397  1  0.584500  0.361500  0.086400  1
  N  N1398  1  0.415500  0.861500  0.413600  1
  N  N1399  1  0.415500  0.638500  0.913600  1
  N  N1400  1  0.584500  0.138500  0.586400  1
  N  N1401  1  0.887700  0.608800  0.218200  1
  N  N1402  1  0.112300  0.108800  0.281800  1
  N  N1403  1  0.112300  0.391200  0.781800  1
  N  N1404  1  0.887700  0.891200  0.718200  1
  N  N1405  1  0.629600  0.305100  0.538500  1
  N  N1406  1  0.370400  0.805100  0.961500  1
  N  N1407  1  0.370400  0.694900  0.461500  1
  N  N1408  1  0.629600  0.194900  0.038500  1
  O  O1409  1  0.778500  0.542530  0.307720  1
  O  O1410  1  0.221500  0.042530  0.192280  1
  O  O1411  1  0.221500  0.457470  0.692280  1
  O  O1412  1  0.778500  0.957470  0.807720  1
  O  O1413  1  0.687400  0.559270  0.351590  1
  O  O1414  1  0.312600  0.059270  0.148410  1
  O  O1415  1  0.312600  0.440730  0.648410  1
  O  O1416  1  0.687400  0.940730  0.851590  1
  O  O1417  1  0.399200  0.581450  0.298790  1
  O  O1418  1  0.600800  0.081450  0.201210  1
  O  O1419  1  0.600800  0.418550  0.701210  1
  O  O1420  1  0.399200  0.918550  0.798790  1
  O  O1421  1  0.350300  0.553320  0.238490  1
  O  O1422  1  0.649700  0.053320  0.261510  1
  O  O1423  1  0.649700  0.446680  0.761510  1
  O  O1424  1  0.350300  0.946680  0.738490  1
  O  O1425  1  0.557700  0.540900  0.143580  1
  O  O1426  1  0.442300  0.040900  0.356420  1
  O  O1427  1  0.442300  0.459100  0.856420  1
  O  O1428  1  0.557700  0.959100  0.643580  1
  O  O1429  1  0.682300  0.509200  0.163390  1
  O  O1430  1  0.317700  0.009200  0.336610  1
  O  O1431  1  0.317700  0.490800  0.836610  1
  O  O1432  1  0.682300  0.990800  0.663390  1
  O  O1433  1  0.594500  0.460100  0.368710  1
  O  O1434  1  0.405500  0.960100  0.131290  1
  O  O1435  1  0.405500  0.539900  0.631290  1
  O  O1436  1  0.594500  0.039900  0.868710  1
  O  O1437  1  0.580800  0.415700  0.186280  1
  O  O1438  1  0.419200  0.915700  0.313720  1
  O  O1439  1  0.419200  0.584300  0.813720  1
  O  O1440  1  0.580800  0.084300  0.686280  1
  O  O1441  1  0.249000  0.428600  0.270700  1
  O  O1442  1  0.751000  0.928600  0.229300  1
  O  O1443  1  0.751000  0.571400  0.729300  1
  O  O1444  1  0.249000  0.071400  0.770700  1
  O  O1445  1  0.709900  0.651200  0.310560  1
  O  O1446  1  0.290100  0.151200  0.189440  1
  O  O1447  1  0.290100  0.348800  0.689440  1
  O  O1448  1  0.709900  0.848800  0.810560  1
  O  O1449  1  0.429700  0.665880  0.231710  1
  O  O1450  1  0.570300  0.165880  0.268290  1
  O  O1451  1  0.570300  0.334120  0.768290  1
  O  O1452  1  0.429700  0.834120  0.731710  1
  O  O1453  1  0.675600  0.680190  0.098200  1
  O  O1454  1  0.324400  0.180190  0.401800  1
  O  O1455  1  0.324400  0.319810  0.901800  1
  O  O1456  1  0.675600  0.819810  0.598200  1
  O  O1457  1  0.624800  0.328200  0.329730  1
  O  O1458  1  0.375200  0.828200  0.170270  1
  O  O1459  1  0.375200  0.671800  0.670270  1
  O  O1460  1  0.624800  0.171800  0.829730  1
  O  O1461  1  0.197500  0.276000  0.280340  1
  O  O1462  1  0.802500  0.776000  0.219660  1
  O  O1463  1  0.802500  0.724000  0.719660  1
  O  O1464  1  0.197500  0.224000  0.780340  1
  O  O1465  1  0.376300  0.306500  0.179240  1
  O  O1466  1  0.623700  0.806500  0.320760  1
  O  O1467  1  0.623700  0.693500  0.820760  1
  O  O1468  1  0.376300  0.193500  0.679240  1
  O  O1469  1  0.969400  0.278200  0.183100  1
  O  O1470  1  0.030600  0.778200  0.316900  1
  O  O1471  1  0.030600  0.721800  0.816900  1
  O  O1472  1  0.969400  0.221800  0.683100  1
  O  O1473  1  0.862000  0.266800  0.212500  1
  O  O1474  1  0.138000  0.766800  0.287500  1
  O  O1475  1  0.138000  0.733200  0.787500  1
  O  O1476  1  0.862000  0.233200  0.712500  1
  O  O1477  1  0.862300  0.247800  0.149900  1
  O  O1478  1  0.137700  0.747800  0.350100  1
  O  O1479  1  0.137700  0.752200  0.850100  1
  O  O1480  1  0.862300  0.252200  0.649900  1
  O  O1481  1  0.305200  0.615000  0.061400  1
  O  O1482  1  0.694800  0.115000  0.438600  1
  O  O1483  1  0.694800  0.385000  0.938600  1
  O  O1484  1  0.305200  0.885000  0.561400  1
  O  O1485  1  0.379300  0.677700  0.053500  1
  O  O1486  1  0.620700  0.177700  0.446500  1
  O  O1487  1  0.620700  0.322300  0.946500  1
  O  O1488  1  0.379300  0.822300  0.553500  1
  O  O1489  1  0.443900  0.622000  0.083900  1
  O  O1490  1  0.556100  0.122000  0.416100  1
  O  O1491  1  0.556100  0.378000  0.916100  1
  O  O1492  1  0.443900  0.878000  0.583900  1
  O  O1493  1  0.917800  0.593900  0.251100  1
  O  O1494  1  0.082200  0.093900  0.248900  1
  O  O1495  1  0.082200  0.406100  0.748900  1
  O  O1496  1  0.917800  0.906100  0.751100  1
  O  O1497  1  0.847800  0.584500  0.192400  1
  O  O1498  1  0.152200  0.084500  0.307600  1
  O  O1499  1  0.152200  0.415500  0.807600  1
  O  O1500  1  0.847800  0.915500  0.692400  1
  O  O1501  1  0.861800  0.526100  0.230000  1
  O  O1502  1  0.138200  0.026100  0.270000  1
  O  O1503  1  0.138200  0.473900  0.770000  1
  O  O1504  1  0.861800  0.973900  0.730000  1
  O  O1505  1  0.932500  0.679500  0.198700  1
  O  O1506  1  0.067500  0.179500  0.301300  1
  O  O1507  1  0.067500  0.320500  0.801300  1
  O  O1508  1  0.932500  0.820500  0.698700  1
  O  O1509  1  0.254800  0.431700  0.431200  1
  O  O1510  1  0.745200  0.931700  0.068800  1
  O  O1511  1  0.745200  0.568300  0.568800  1
  O  O1512  1  0.254800  0.068300  0.931200  1
  O  O1513  1  0.288400  0.452000  0.368000  1
  O  O1514  1  0.711600  0.952000  0.132000  1
  O  O1515  1  0.711600  0.548000  0.632000  1
  O  O1516  1  0.288400  0.048000  0.868000  1
  O  O1517  1  0.246100  0.487400  0.393300  1
  O  O1518  1  0.753900  0.987400  0.106700  1
  O  O1519  1  0.753900  0.512600  0.606700  1
  O  O1520  1  0.246100  0.012600  0.893300  1
  O  O1521  1  0.209900  0.550600  0.117900  1
  O  O1522  1  0.790100  0.050600  0.382100  1
  O  O1523  1  0.790100  0.449400  0.882100  1
  O  O1524  1  0.209900  0.949400  0.617900  1
  O  O1525  1  0.168700  0.504200  0.067400  1
  O  O1526  1  0.831300  0.004200  0.432600  1
  O  O1527  1  0.831300  0.495800  0.932600  1
  O  O1528  1  0.168700  0.995800  0.567400  1
  O  O1529  1  0.107200  0.569900  0.076100  1
  O  O1530  1  0.892800  0.069900  0.423900  1
  O  O1531  1  0.892800  0.430100  0.923900  1
  O  O1532  1  0.107200  0.930100  0.576100  1
  O  O1533  1  0.599600  0.346100  0.612500  1
  O  O1534  1  0.400400  0.846100  0.887500  1
  O  O1535  1  0.400400  0.653900  0.387500  1
  O  O1536  1  0.599600  0.153900  0.112500  1
  O  O1537  1  0.634800  0.336400  0.540100  1
  O  O1538  1  0.365200  0.836400  0.959900  1
  O  O1539  1  0.365200  0.663600  0.459900  1
  O  O1540  1  0.634800  0.163600  0.040100  1
  O  O1541  1  0.698000  0.294700  0.587800  1
  O  O1542  1  0.302000  0.794700  0.912200  1
  O  O1543  1  0.302000  0.705300  0.412200  1
  O  O1544  1  0.698000  0.205300  0.087800  1
  O  O1545  1  0.445200  0.442500  0.133700  1
  O  O1546  1  0.554800  0.942500  0.366300  1
  O  O1547  1  0.554800  0.557500  0.866300  1
  O  O1548  1  0.445200  0.057500  0.633700  1
  O  O1549  1  0.528400  0.730100  0.076700  1
  O  O1550  1  0.471600  0.230100  0.423300  1
  O  O1551  1  0.471600  0.269900  0.923300  1
  O  O1552  1  0.528400  0.769900  0.576700  1
  O  O1553  1  0.334300  0.503800  0.163600  1
  O  O1554  1  0.665700  0.003800  0.336400  1
  O  O1555  1  0.665700  0.496200  0.836400  1
  O  O1556  1  0.334300  0.996200  0.663600  1
  O  O1557  1  0.346700  0.734500  0.267700  1
  O  O1558  1  0.653300  0.234500  0.232300  1
  O  O1559  1  0.653300  0.265500  0.732300  1
  O  O1560  1  0.346700  0.765500  0.767700  1
  O  O1561  1  0.119600  0.401400  0.461800  1
  O  O1562  1  0.880400  0.901400  0.038200  1
  O  O1563  1  0.880400  0.598600  0.538200  1
  O  O1564  1  0.119600  0.098600  0.961800  1
  O  O1565  1  0.947500  0.401600  0.443300  1
  O  O1566  1  0.052500  0.901600  0.056700  1
  O  O1567  1  0.052500  0.598400  0.556700  1
  O  O1568  1  0.947500  0.098400  0.943300  1
  O  O1569  1  0.070400  0.665100  0.494300  1
  O  O1570  1  0.929600  0.165100  0.005700  1
  O  O1571  1  0.929600  0.334900  0.505700  1
  O  O1572  1  0.070400  0.834900  0.994300  1
  O  O1573  1  0.258400  0.794700  0.214700  1
  O  O1574  1  0.741600  0.294700  0.285300  1
  O  O1575  1  0.741600  0.205300  0.785300  1
  O  O1576  1  0.258400  0.705300  0.714700  1
  O  O1577  1  0.349200  0.363200  0.111700  1
  O  O1578  1  0.650800  0.863200  0.388300  1
  O  O1579  1  0.650800  0.636800  0.888300  1
  O  O1580  1  0.349200  0.136800  0.611700  1
  O  O1581  1  0.133400  0.568600  0.995400  1
  O  O1582  1  0.866600  0.068600  0.504600  1
  O  O1583  1  0.866600  0.431400  0.004600  1
  O  O1584  1  0.133400  0.931400  0.495400  1
  O  O1585  1  0.752300  0.403300  0.343300  1
  O  O1586  1  0.247700  0.903300  0.156700  1
  O  O1587  1  0.247700  0.596700  0.656700  1
  O  O1588  1  0.752300  0.096700  0.843300  1
  O  O1589  1  0.902600  0.321200  0.298300  1
  O  O1590  1  0.097400  0.821200  0.201700  1
  O  O1591  1  0.097400  0.678800  0.701700  1
  O  O1592  1  0.902600  0.178800  0.798300  1
  O  O1593  1  0.012000  0.440100  0.056400  1
  O  O1594  1  0.988000  0.940100  0.443600  1
  O  O1595  1  0.988000  0.559900  0.943600  1
  O  O1596  1  0.012000  0.059900  0.556400  1
  O  O1597  1  0.028700  0.260400  0.261700  1
  O  O1598  1  0.971300  0.760400  0.238300  1
  O  O1599  1  0.971300  0.739600  0.738300  1
  O  O1600  1  0.028700  0.239600  0.761700  1
  O  O1601  1  0.184000  0.728600  0.466000  1
  O  O1602  1  0.816000  0.228600  0.034000  1
  O  O1603  1  0.816000  0.271400  0.534000  1
  O  O1604  1  0.184000  0.771400  0.966000  1
  O  O1605  1  0.167700  0.306700  0.462900  1
  O  O1606  1  0.832300  0.806700  0.037100  1
  O  O1607  1  0.832300  0.693300  0.537100  1
  O  O1608  1  0.167700  0.193300  0.962900  1
  O  O1609  1  0.062200  0.337200  0.051700  1
  O  O1610  1  0.937800  0.837200  0.448300  1
  O  O1611  1  0.937800  0.662800  0.948300  1
  O  O1612  1  0.062200  0.162800  0.551700  1
  O  O1613  1  0.271900  0.715900  0.335700  1
  O  O1614  1  0.728100  0.215900  0.164300  1
  O  O1615  1  0.728100  0.284100  0.664300  1
  O  O1616  1  0.271900  0.784100  0.835700  1
  O  O1617  1  0.431100  0.155500  0.132600  1
  O  O1618  1  0.568900  0.655500  0.367400  1
  O  O1619  1  0.568900  0.844500  0.867400  1
  O  O1620  1  0.431100  0.344500  0.632600  1
  O  O1621  1  0.041500  0.765900  0.410400  1
  O  O1622  1  0.958500  0.265900  0.089600  1
  O  O1623  1  0.958500  0.234100  0.589600  1
  O  O1624  1  0.041500  0.734100  0.910400  1
  O  O1625  1  0.687900  0.678400  0.014400  1
  O  O1626  1  0.312100  0.178400  0.485600  1
  O  O1627  1  0.312100  0.321600  0.985600  1
  O  O1628  1  0.687900  0.821600  0.514400  1
  O  O1629  1  0.272500  0.270600  0.506100  1
  O  O1630  1  0.727500  0.770600  0.993900  1
  O  O1631  1  0.727500  0.729400  0.493900  1
  O  O1632  1  0.272500  0.229400  0.006100  1
  O  O1633  1  0.112700  0.758400  0.081200  1
  O  O1634  1  0.887300  0.258400  0.418800  1
  O  O1635  1  0.887300  0.241600  0.918800  1
  O  O1636  1  0.112700  0.741600  0.581200  1
  O  O1637  1  0.332800  0.335000  0.414000  1
  O  O1638  1  0.667200  0.835000  0.086000  1
  O  O1639  1  0.667200  0.665000  0.586000  1
  O  O1640  1  0.332800  0.165000  0.914000  1
  O  O1641  1  0.885500  0.346900  0.373800  1
  O  O1642  1  0.114500  0.846900  0.126200  1
  O  O1643  1  0.114500  0.653100  0.626200  1
  O  O1644  1  0.885500  0.153100  0.873800  1
  O  O1645  1  0.021100  0.266600  0.474800  1
  O  O1646  1  0.978900  0.766600  0.025200  1
  O  O1647  1  0.978900  0.733400  0.525200  1
  O  O1648  1  0.021100  0.233400  0.974800  1
  O  O1649  1  0.215900  0.699400  0.025900  1
  O  O1650  1  0.784100  0.199400  0.474100  1
  O  O1651  1  0.784100  0.300600  0.974100  1
  O  O1652  1  0.215900  0.800600  0.525900  1
  O  O1653  1  0.396100  0.285200  0.562200  1
  O  O1654  1  0.603900  0.785200  0.937800  1
  O  O1655  1  0.603900  0.714800  0.437800  1
  O  O1656  1  0.396100  0.214800  0.062200  1
  O  O1657  1  0.459300  0.298900  0.479200  1
  O  O1658  1  0.540700  0.798900  0.020800  1
  O  O1659  1  0.540700  0.701100  0.520800  1
  O  O1660  1  0.459300  0.201100  0.979200  1
  O  O1661  1  0.233900  0.356500  0.048300  1
  O  O1662  1  0.766100  0.856500  0.451700  1
  O  O1663  1  0.766100  0.643500  0.951700  1
  O  O1664  1  0.233900  0.143500  0.548300  1
  O  O1665  1  0.913500  0.649900  0.214300  1
  O  O1666  1  0.086500  0.149900  0.285700  1
  O  O1667  1  0.086500  0.350100  0.785700  1
  O  O1668  1  0.913500  0.850100  0.714300  1
  O  O1669  1  0.304400  0.414400  0.384200  1
  O  O1670  1  0.695600  0.914400  0.115800  1
  O  O1671  1  0.695600  0.585600  0.615800  1
  O  O1672  1  0.304400  0.085600  0.884200  1
  O  O1673  1  0.570000  0.323000  0.540000  1
  O  O1674  1  0.430000  0.823000  0.960000  1
  O  O1675  1  0.430000  0.677000  0.460000  1
  O  O1676  1  0.570000  0.177000  0.040000  1
  O  O1677  1  0.626000  0.270600  0.505000  1
  O  O1678  1  0.374000  0.770600  0.995000  1
  O  O1679  1  0.374000  0.729400  0.495000  1
  O  O1680  1  0.626000  0.229400  0.005000  1
  O  O1681  1  0.698000  0.316000  0.548800  1
  O  O1682  1  0.302000  0.816000  0.951200  1
  O  O1683  1  0.302000  0.684000  0.451200  1
  O  O1684  1  0.698000  0.184000  0.048800  1
