
#######################################################################
#
#                 Cambridge Crystallographic Data Centre
#                                CCDC 
#
#######################################################################
#
# If this CIF has been generated from an entry in the Cambridge 
# Structural Database, then it will include bibliographic, chemical, 
# crystal, experimental, refinement or atomic coordinate data resulting 
# from the CCDC's data processing and validation procedures.
#
#######################################################################

data_EWICUK
_chemical_formula_moiety         
'C126 H120 N12 O24 Pd3 6+,6(N1 O3 1-),10(C2 H6 O1 S1),12(H2 O1)'
_chemical_name_systematic        
'bis(\m-tris(2-(pyridin-2-yl)ethyl) benzene-1,3,5-tricarboxylate)-bis(\m-tris(3-(pyridin-3-yl)propyl) benzene-1,3,5-tricarboxylate)-tri-palladium(ii) dimethyl sulfoxide solvate dodecahydrate'
_symmetry_cell_setting           monoclinic
_symmetry_space_group_name_H-M   'C 2/c'
_symmetry_Int_Tables_number      15
_space_group_name_Hall           '-C 2yn'
loop_
_symmetry_equiv_pos_site_id
_symmetry_equiv_pos_as_xyz
1 x,y,z
2 -x,y,1/2-z
3 1/2+x,1/2+y,z
4 1/2-x,1/2+y,1/2-z
5 -x,-y,-z
6 x,-y,1/2+z
7 1/2-x,1/2-y,-z
8 1/2+x,1/2-y,1/2+z
_cell_length_a                   21.8830(7)
_cell_length_b                   36.7927(7)
_cell_length_c                   24.3223(6)
_cell_angle_alpha                90
_cell_angle_beta                 105.571(2)
_cell_angle_gamma                90
_cell_volume                     18864
_exptl_crystal_colour            colorless
_exptl_crystal_description       block
_cell_formula_units_Z            4
loop_
_atom_site_label
_atom_site_type_symbol
_atom_site_fract_x
_atom_site_fract_y
_atom_site_fract_z
S1 S 0.89183(6) 0.42114(3) 0.57736(6)
O13 O 0.83898(15) 0.40580(9) 0.59903(15)
C64 C 0.8688(3) 0.41503(17) 0.5030(2)
H61 H 0.9018 0.4246 0.4866
H62 H 0.8628 0.3891 0.4942
H63 H 0.8289 0.4280 0.4867
C65 C 0.9531(3) 0.38851(19) 0.5940(3)
H64 H 0.9891 0.3971 0.5808
H65 H 0.9668 0.3848 0.6354
H66 H 0.9376 0.3655 0.5751
S2 S 0.88930(9) 0.30913(6) 0.82992(9)
O14 O 0.9533(2) 0.29578(17) 0.8661(3)
C66 C 0.8958(4) 0.3551(3) 0.8252(5)
H67 H 0.9319 0.3644 0.8143
H68 H 0.8552 0.3648 0.8024
H69 H 0.9055 0.3652 0.8638
C67 C 0.8385(3) 0.30844(17) 0.8762(3)
H70 H 0.8422 0.2867 0.8981
H71 H 0.7960 0.3166 0.8553
H72 H 0.8556 0.3247 0.9085
S3 S 0.94817(12) 0.20595(7) 0.80720(11)
O15 O 1.0189(3) 0.19580(17) 0.8287(3)
C68 C 0.9068(5) 0.1661(3) 0.7751(5)
H73 H 0.9250 0.1549 0.7477
H74 H 0.8611 0.1707 0.7613
H75 H 0.9144 0.1460 0.8025
C69 C 0.9243(4) 0.2050(3) 0.8727(5)
H76 H 0.9494 0.2197 0.9034
H77 H 0.8790 0.2106 0.8642
H78 H 0.9323 0.1809 0.8901
S4 S 0.45543(7) 0.05812(4) 0.52679(7)
O16 O 0.4808(2) 0.05685(12) 0.4772(3)
C70 C 0.3847(3) 0.08334(14) 0.5075(3)
H79 H 0.3653 0.0843 0.5395
H80 H 0.3941 0.1081 0.4974
H81 H 0.3552 0.0718 0.4746
C71 C 0.4231(2) 0.01507(13) 0.5329(2)
H82 H 0.4054 0.0145 0.5659
H83 H 0.3893 0.0102 0.4980
H84 H 0.4562 -0.0035 0.5375
S5 S 0.56971(15) 0.48914(9) 0.39771(15)
O17 O 0.5267(5) 0.5031(3) 0.4287(4)
C72 C 0.5941(5) 0.5315(2) 0.3748(3)
H85 H 0.6244 0.5271 0.3524
H86 H 0.5570 0.5443 0.3513
H87 H 0.6142 0.5463 0.4082
C73 C 0.5223(7) 0.4794(6) 0.3273(6)
H88 H 0.5494 0.4699 0.3044
H89 H 0.4901 0.4614 0.3291
H90 H 0.5015 0.5018 0.3097
O18 O 0.2543(3) 0.18431(13) 0.8484(2)
O19 O 0.3264(3) 0.14632(14) 0.8877(3)
O20 O 0.2963(3) 0.15001(18) 0.7972(3)
N7 N 0.2915(4) 0.16053(17) 0.8434(4)
O21 O 0.77696(19) 0.47952(11) 0.92974(18)
O22 O 0.7671(2) 0.51758(12) 0.9939(3)
O23 O 0.7308(2) 0.46372(13) 0.99275(18)
N8 N 0.75773(19) 0.48711(12) 0.9719(2)
Pd1 Pd 0.26815(2) 0.35650(2) 0.86177(2)
Pd2 Pd 0.5000 0.03763(2) 0.7500
O1 O 0.32148(13) 0.24190(7) 0.75064(12)
O2 O 0.32416(17) 0.29853(8) 0.71805(16)
O3 O 0.52389(14) 0.16201(7) 0.65502(13)
O4 O 0.43950(15) 0.14534(7) 0.68451(16)
O5 O 0.49453(14) 0.32937(8) 0.63016(16)
O6 O 0.56715(16) 0.28813(8) 0.62193(16)
O7 O 0.50406(16) 0.22197(9) 0.98913(18)
O8 O 0.55411(17) 0.16907(9) 0.98878(18)
O9 O 0.72330(15) 0.17543(8) 0.88988(14)
O10 O 0.77370(17) 0.22726(9) 0.88289(17)
O11 O 0.68863(17) 0.33815(8) 0.94331(14)
O12 O 0.6241(2) 0.33723(9) 1.00042(17)
N1 N 0.19844(16) 0.31869(9) 0.83290(16)
N2 N 0.54812(16) 0.03636(8) 0.68869(14)
N3 N 0.66935(17) 0.39693(9) 0.60395(16)
N4 N 0.28868(16) 0.33125(9) 0.93808(16)
N5 N 0.58609(16) 0.03497(8) 0.80836(14)
N6 N 0.75145(18) 0.38380(9) 0.71318(15)
C1 C 0.1391(2) 0.33010(15) 0.8320(3)
H1 H 0.1323 0.3553 0.8363
C2 C 0.0894(3) 0.30727(17) 0.8253(3)
H2 H 0.0484 0.3163 0.8242
C3 C 0.0992(2) 0.27031(17) 0.8199(2)
H3 H 0.0656 0.2535 0.8173
C4 C 0.1587(2) 0.25841(13) 0.8185(2)
H4 H 0.1657 0.2333 0.8135
C5 C 0.2084(2) 0.28292(11) 0.82451(18)
C6 C 0.2712(2) 0.27082(10) 0.81842(18)
H5 H 0.2923 0.2550 0.8509
H6 H 0.2988 0.2922 0.8185
C7 C 0.2616(2) 0.25000(12) 0.7626(2)
H7 H 0.2389 0.2270 0.7649
H8 H 0.2350 0.2646 0.7310
C8 C 0.3457(2) 0.26830(10) 0.72546(18)
C9 C 0.40034(18) 0.25559(10) 0.70468(15)
C10 C 0.41457(17) 0.21898(10) 0.70253(15)
H9 H 0.3909 0.2014 0.7166
C11 C 0.5554(2) 0.00307(11) 0.66798(19)
H10 H 0.5324 -0.0169 0.6771
C12 C 0.5958(3) -0.00263(13) 0.6336(2)
H11 H 0.6005 -0.0262 0.6194
C13 C 0.6287(2) 0.02603(14) 0.6206(2)
H12 H 0.6571 0.0226 0.5976
C14 C 0.6203(2) 0.05998(12) 0.64105(19)
H13 H 0.6432 0.0801 0.6322
C15 C 0.57869(19) 0.06508(10) 0.67446(17)
C16 C 0.5663(2) 0.10266(10) 0.69263(17)
H14 H 0.6068 0.1144 0.7128
H15 H 0.5390 0.1015 0.7191
C17 C 0.5340(2) 0.12451(10) 0.64064(18)
H16 H 0.5602 0.1241 0.6133
H17 H 0.4926 0.1132 0.6219
C18 C 0.47363(19) 0.16853(10) 0.67454(17)
C19 C 0.46289(17) 0.20811(10) 0.68001(15)
C20 C 0.49833(17) 0.23400(10) 0.65988(16)
H18 H 0.5324 0.2266 0.6452
C21 C 0.6920(2) 0.42278(12) 0.5756(2)
H19 H 0.7337 0.4201 0.5714
C22 C 0.6573(3) 0.45279(13) 0.5527(3)
H20 H 0.6744 0.4703 0.5322
C23 C 0.5970(3) 0.45727(14) 0.5598(3)
H21 H 0.5719 0.4778 0.5443
C24 C 0.5747(3) 0.43120(14) 0.5897(3)
H22 H 0.5340 0.4341 0.5960
C25 C 0.6105(2) 0.40078(11) 0.6109(2)
C26 C 0.5836(2) 0.37106(12) 0.6401(2)
H23 H 0.6149 0.3512 0.6513
H24 H 0.5747 0.3808 0.6751
C27 C 0.5237(2) 0.35651(13) 0.6011(3)
H25 H 0.4935 0.3767 0.5877
H26 H 0.5332 0.3453 0.5673
C28 C 0.5203(2) 0.29652(11) 0.63651(19)
C29 C 0.48369(18) 0.27032(10) 0.66140(16)
C30 C 0.43482(18) 0.28152(10) 0.68378(17)
H27 H 0.4249 0.3066 0.6849
C31 C 0.2518(2) 0.33781(13) 0.9734(2)
H28 H 0.2176 0.3545 0.9624
C32 C 0.2634(3) 0.32042(16) 1.0252(2)
H29 H 0.2366 0.3248 1.0495
C33 C 0.3130(3) 0.29707(16) 1.0419(2)
H30 H 0.3209 0.2853 1.0779
C34 C 0.3521(2) 0.29026(13) 1.0067(2)
C35 C 0.3382(2) 0.30845(11) 0.9548(2)
H31 H 0.3648 0.3047 0.9302
C36 C 0.4078(3) 0.26446(15) 1.0217(2)
H32 H 0.4454 0.2767 1.0150
H33 H 0.4176 0.2584 1.0628
C37 C 0.3956(3) 0.23020(14) 0.9878(3)
H34 H 0.3857 0.2364 0.9468
H35 H 0.3578 0.2182 0.9945
C38 C 0.4504(3) 0.20334(15) 1.0016(3)
H36 H 0.4608 0.1962 1.0423
H37 H 0.4393 0.1812 0.9778
C39 C 0.5522(2) 0.20133(12) 0.9847(2)
C40 C 0.6042(2) 0.22420(11) 0.97260(18)
C41 C 0.6471(2) 0.20686(11) 0.94815(18)
H38 H 0.6459 0.1812 0.9438
C42 C 0.6128(2) 0.00177(10) 0.82160(18)
H39 H 0.5892 -0.0194 0.8066
C43 C 0.6726(2) -0.00175(11) 0.8559(2)
H40 H 0.6903 -0.0252 0.8652
C44 C 0.7079(2) 0.02890(12) 0.87751(19)
H41 H 0.7500 0.0265 0.9011
C45 C 0.6810(2) 0.06304(11) 0.86426(17)
C46 C 0.6190(2) 0.06448(10) 0.82936(17)
H42 H 0.5995 0.0876 0.8202
C47 C 0.7161(2) 0.09748(12) 0.8851(2)
H43 H 0.7577 0.0913 0.9117
H44 H 0.6918 0.1116 0.9067
C48 C 0.7272(2) 0.12107(12) 0.8371(2)
H45 H 0.7524 0.1071 0.8161
H46 H 0.6857 0.1268 0.8101
C49 C 0.7612(2) 0.15618(14) 0.8578(2)
H47 H 0.8043 0.1512 0.8827
H48 H 0.7653 0.1710 0.8251
C50 C 0.7345(2) 0.21059(12) 0.89930(18)
C51 C 0.69159(19) 0.22712(11) 0.93023(17)
C52 C 0.6941(2) 0.26479(11) 0.93853(17)
H49 H 0.7246 0.2788 0.9264
C53 C 0.7904(3) 0.41271(16) 0.7210(2)
H50 H 0.8134 0.4179 0.6939
C54 C 0.7972(4) 0.43492(19) 0.7679(3)
H51 H 0.8230 0.4561 0.7718
C55 C 0.7669(3) 0.42664(17) 0.8092(3)
H52 H 0.7724 0.4417 0.8419
C56 C 0.7283(3) 0.39611(13) 0.8026(2)
C57 C 0.7223(2) 0.37603(12) 0.75301(19)
H53 H 0.6954 0.3553 0.7472
C58 C 0.6920(3) 0.38515(14) 0.8450(2)
H54 H 0.6522 0.3994 0.8372
H55 H 0.6803 0.3592 0.8392
C59 C 0.7284(3) 0.39077(13) 0.9063(2)
H56 H 0.7690 0.3773 0.9141
H57 H 0.7384 0.4169 0.9129
C60 C 0.6918(3) 0.37812(12) 0.9470(2)
H58 H 0.7135 0.3858 0.9864
H59 H 0.6486 0.3886 0.9363
C61 C 0.6534(2) 0.32184(12) 0.97224(19)
C62 C 0.6527(2) 0.28173(11) 0.96419(17)
C63 C 0.6074(2) 0.26163(12) 0.98106(18)
H60 H 0.5785 0.2733 0.9983
Pd1A Pd 0.73185(2) 0.35650(2) 0.63823(2)
O1A O 0.67852(13) 0.24190(7) 0.74936(12)
O2A O 0.67584(17) 0.29853(8) 0.78195(16)
O3A O 0.47611(14) 0.16201(7) 0.84498(13)
O4A O 0.56050(15) 0.14534(7) 0.81549(16)
O5A O 0.50547(14) 0.32937(8) 0.86984(16)
O6A O 0.43285(16) 0.28813(8) 0.87807(16)
O7A O 0.49594(16) 0.22197(9) 0.51087(18)
O8A O 0.44589(17) 0.16907(9) 0.51122(18)
O9A O 0.27670(15) 0.17543(8) 0.61012(14)
O10A O 0.22630(17) 0.22726(9) 0.61711(17)
O11A O 0.31137(17) 0.33815(8) 0.55669(14)
O12A O 0.3759(2) 0.33723(9) 0.49958(17)
N1A N 0.80156(16) 0.31869(9) 0.66710(16)
N2A N 0.45188(16) 0.03636(8) 0.81131(14)
N3A N 0.33065(17) 0.39693(9) 0.89605(16)
N4A N 0.71132(16) 0.33125(9) 0.56192(16)
N5A N 0.41391(16) 0.03497(8) 0.69164(14)
N6A N 0.24855(18) 0.38380(9) 0.78682(15)
C1A C 0.8609(2) 0.33010(15) 0.6680(3)
H1A H 0.8677 0.3553 0.6637
C2A C 0.9106(3) 0.30727(17) 0.6747(3)
H2A H 0.9516 0.3163 0.6758
C3A C 0.9008(2) 0.27031(17) 0.6801(2)
H3A H 0.9344 0.2535 0.6827
C4A C 0.8413(2) 0.25841(13) 0.6815(2)
H4A H 0.8343 0.2333 0.6865
C5A C 0.7916(2) 0.28292(11) 0.67549(18)
C6A C 0.7288(2) 0.27082(10) 0.68158(18)
H5A H 0.7077 0.2550 0.6491
H6A H 0.7012 0.2922 0.6815
C7A C 0.7384(2) 0.25000(12) 0.7374(2)
H7A H 0.7611 0.2270 0.7351
H8A H 0.7650 0.2646 0.7690
C8A C 0.6543(2) 0.26830(10) 0.77454(18)
C9A C 0.59966(18) 0.25559(10) 0.79532(15)
C10A C 0.58543(17) 0.21898(10) 0.79747(15)
H9A H 0.6091 0.2014 0.7834
C11A C 0.4446(2) 0.00307(11) 0.83202(19)
H10A H 0.4676 -0.0169 0.8229
C12A C 0.4042(3) -0.00263(13) 0.8664(2)
H11A H 0.3995 -0.0262 0.8806
C13A C 0.3713(2) 0.02603(14) 0.8794(2)
H12A H 0.3429 0.0226 0.9024
C14A C 0.3797(2) 0.05998(12) 0.85895(19)
H13A H 0.3568 0.0801 0.8678
C15A C 0.42131(19) 0.06508(10) 0.82554(17)
C16A C 0.4337(2) 0.10266(10) 0.80737(17)
H14A H 0.3932 0.1144 0.7872
H15A H 0.4610 0.1015 0.7809
C17A C 0.4660(2) 0.12451(10) 0.85936(18)
H16A H 0.4398 0.1241 0.8867
H17A H 0.5074 0.1132 0.8781
C18A C 0.52637(19) 0.16853(10) 0.82546(17)
C19A C 0.53711(17) 0.20811(10) 0.81999(15)
C20A C 0.50167(17) 0.23400(10) 0.84012(16)
H18A H 0.4676 0.2266 0.8548
C21A C 0.3080(2) 0.42278(12) 0.9244(2)
H19A H 0.2663 0.4201 0.9286
C22A C 0.3427(3) 0.45279(13) 0.9473(3)
H20A H 0.3256 0.4703 0.9678
C23A C 0.4030(3) 0.45727(14) 0.9402(3)
H21A H 0.4281 0.4778 0.9557
C24A C 0.4253(3) 0.43120(14) 0.9103(3)
H22A H 0.4660 0.4341 0.9040
C25A C 0.3895(2) 0.40078(11) 0.8891(2)
C26A C 0.4164(2) 0.37106(12) 0.8599(2)
H23A H 0.3851 0.3512 0.8487
H24A H 0.4253 0.3808 0.8249
C27A C 0.4763(2) 0.35651(13) 0.8989(3)
H25A H 0.5065 0.3767 0.9123
H26A H 0.4668 0.3453 0.9327
C28A C 0.4797(2) 0.29652(11) 0.86349(19)
C29A C 0.51631(18) 0.27032(10) 0.83860(16)
C30A C 0.56518(18) 0.28152(10) 0.81622(17)
H27A H 0.5751 0.3066 0.8151
C31A C 0.7482(2) 0.33781(13) 0.5266(2)
H28A H 0.7824 0.3545 0.5376
C32A C 0.7366(3) 0.32042(16) 0.4748(2)
H29A H 0.7634 0.3248 0.4505
C33A C 0.6870(3) 0.29707(16) 0.4581(2)
H30A H 0.6791 0.2853 0.4221
C34A C 0.6479(2) 0.29026(13) 0.4933(2)
C35A C 0.6618(2) 0.30845(11) 0.5452(2)
H31A H 0.6352 0.3047 0.5698
C36A C 0.5922(3) 0.26446(15) 0.4783(2)
H32A H 0.5546 0.2767 0.4850
H33A H 0.5824 0.2584 0.4372
C37A C 0.6044(3) 0.23020(14) 0.5122(3)
H34A H 0.6143 0.2364 0.5532
H35A H 0.6422 0.2182 0.5055
C38A C 0.5496(3) 0.20334(15) 0.4984(3)
H36A H 0.5392 0.1962 0.4577
H37A H 0.5607 0.1812 0.5222
C39A C 0.4478(2) 0.20133(12) 0.5153(2)
C40A C 0.3958(2) 0.22420(11) 0.52740(18)
C41A C 0.3529(2) 0.20686(11) 0.55185(18)
H38A H 0.3541 0.1812 0.5562
C42A C 0.3872(2) 0.00177(10) 0.67840(18)
H39A H 0.4108 -0.0194 0.6934
C43A C 0.3274(2) -0.00175(11) 0.6441(2)
H40A H 0.3097 -0.0252 0.6348
C44A C 0.2921(2) 0.02890(12) 0.62249(19)
H41A H 0.2500 0.0265 0.5989
C45A C 0.3190(2) 0.06304(11) 0.63574(17)
C46A C 0.3810(2) 0.06448(10) 0.67064(17)
H42A H 0.4005 0.0876 0.6798
C47A C 0.2839(2) 0.09748(12) 0.6149(2)
H43A H 0.2423 0.0913 0.5883
H44A H 0.3082 0.1116 0.5933
C48A C 0.2728(2) 0.12107(12) 0.6629(2)
H45A H 0.2476 0.1071 0.6839
H46A H 0.3143 0.1268 0.6899
C49A C 0.2388(2) 0.15618(14) 0.6422(2)
H47A H 0.1957 0.1512 0.6173
H48A H 0.2347 0.1710 0.6749
C50A C 0.2655(2) 0.21059(12) 0.60070(18)
C51A C 0.30841(19) 0.22712(11) 0.56977(17)
C52A C 0.3059(2) 0.26479(11) 0.56147(17)
H49A H 0.2754 0.2788 0.5736
C53A C 0.2096(3) 0.41271(16) 0.7790(2)
H50A H 0.1866 0.4179 0.8061
C54A C 0.2028(4) 0.43492(19) 0.7321(3)
H51A H 0.1770 0.4561 0.7282
C55A C 0.2331(3) 0.42664(17) 0.6908(3)
H52A H 0.2276 0.4417 0.6581
C56A C 0.2717(3) 0.39611(13) 0.6974(2)
C57A C 0.2777(2) 0.37603(12) 0.74699(19)
H53A H 0.3046 0.3553 0.7528
C58A C 0.3080(3) 0.38515(14) 0.6550(2)
H54A H 0.3478 0.3994 0.6628
H55A H 0.3197 0.3592 0.6608
C59A C 0.2716(3) 0.39077(13) 0.5937(2)
H56A H 0.2310 0.3773 0.5859
H57A H 0.2616 0.4169 0.5871
C60A C 0.3082(3) 0.37812(12) 0.5530(2)
H58A H 0.2865 0.3858 0.5136
H59A H 0.3514 0.3886 0.5637
C61A C 0.3466(2) 0.32184(12) 0.52776(19)
C62A C 0.3473(2) 0.28173(11) 0.53581(17)
C63A C 0.3926(2) 0.26163(12) 0.51894(18)
H60A H 0.4215 0.2733 0.5017
S6? S 0.9104(6) 0.3296(4) 0.8730(5)
H91? H 0.8679 0.3731 0.8356
H92? H 0.8737 0.3436 0.7889
H93? H 0.8120 0.3273 0.8867
H94? H 0.8155 0.2975 0.8398
S7? S 0.9726(6) 0.1792(3) 0.8429(5)
H95? H 0.8712 0.1535 0.7840
H96? H 0.8911 0.1881 0.7530
H97? H 0.8918 0.1897 0.8818
H98? H 0.9039 0.2240 0.8457
S8? S 0.4270(8) 0.0503(4) 0.4886(10)
H99? H 0.3555 0.0701 0.5246
H100? H 0.4054 0.1028 0.5334
H101? H 0.3609 0.0939 0.4711
H102? H 0.3847 0.0180 0.5459
H103? H 0.4175 -0.0054 0.5062
H104? H 0.4594 0.0104 0.5658
O24? O 1.0189(4) 0.4452(2) 0.7508(8)
O25? O 0.4584(6) 0.5732(4) 0.2667(6)
O26? O 0.4697(8) 0.6154(5) 0.2339(7)
N9? N 0.5000 0.5846(2) 0.2500
O27? O 1.0000 0.38463(16) 0.7500
N10? N 1.0000 0.41596(16) 0.7500
O28? O 1.0651(6) 0.4192(3) 0.7616(8)
loop_
_geom_bond_atom_site_label_1
_geom_bond_atom_site_label_2
_geom_bond_site_symmetry_1
_geom_bond_site_symmetry_2
Pd1 N1 1_555 1_555
Pd2 N2 1_555 1_555
O1 C7 1_555 1_555
O2 C8 1_555 1_555
O3 C17 1_555 1_555
O4 C18 1_555 1_555
O5 C27 1_555 1_555
O6 C28 1_555 1_555
O7 C38 1_555 1_555
O8 C39 1_555 1_555
O9 C49 1_555 1_555
O10 C50 1_555 1_555
O11 C60 1_555 1_555
O12 C61 1_555 1_555
N1 C1 1_555 1_555
N2 C11 1_555 1_555
N3 C21 1_555 1_555
N4 Pd1 1_555 1_555
N5 Pd2 1_555 1_555
N6 C53 1_555 1_555
C1 H1 1_555 1_555
C2 C1 1_555 1_555
H2 C2 1_555 1_555
C3 C2 1_555 1_555
H3 C3 1_555 1_555
C4 C3 1_555 1_555
H4 C4 1_555 1_555
C5 N1 1_555 1_555
C6 C5 1_555 1_555
H5 C6 1_555 1_555
H6 C6 1_555 1_555
C7 C6 1_555 1_555
H7 C7 1_555 1_555
H8 C7 1_555 1_555
C8 O1 1_555 1_555
C9 C8 1_555 1_555
C10 C9 1_555 1_555
H9 C10 1_555 1_555
C11 H10 1_555 1_555
C12 C11 1_555 1_555
H11 C12 1_555 1_555
C13 C12 1_555 1_555
H12 C13 1_555 1_555
C14 C13 1_555 1_555
H13 C14 1_555 1_555
C15 N2 1_555 1_555
C16 C15 1_555 1_555
H14 C16 1_555 1_555
H15 C16 1_555 1_555
C17 C16 1_555 1_555
H16 C17 1_555 1_555
H17 C17 1_555 1_555
C18 O3 1_555 1_555
C19 C10 1_555 1_555
C20 C19 1_555 1_555
H18 C20 1_555 1_555
C21 H19 1_555 1_555
C22 C21 1_555 1_555
H20 C22 1_555 1_555
C23 C22 1_555 1_555
H21 C23 1_555 1_555
C24 C23 1_555 1_555
H22 C24 1_555 1_555
C25 N3 1_555 1_555
C26 C25 1_555 1_555
H23 C26 1_555 1_555
H24 C26 1_555 1_555
C27 C26 1_555 1_555
H25 C27 1_555 1_555
H26 C27 1_555 1_555
C28 O5 1_555 1_555
C29 C20 1_555 1_555
C30 C9 1_555 1_555
H27 C30 1_555 1_555
C31 N4 1_555 1_555
H28 C31 1_555 1_555
C32 C31 1_555 1_555
H29 C32 1_555 1_555
C33 C32 1_555 1_555
H30 C33 1_555 1_555
C34 C33 1_555 1_555
C35 N4 1_555 1_555
H31 C35 1_555 1_555
C36 C34 1_555 1_555
H32 C36 1_555 1_555
H33 C36 1_555 1_555
C37 C36 1_555 1_555
H34 C37 1_555 1_555
H35 C37 1_555 1_555
C38 C37 1_555 1_555
H36 C38 1_555 1_555
H37 C38 1_555 1_555
C39 O7 1_555 1_555
C40 C39 1_555 1_555
C41 C40 1_555 1_555
H38 C41 1_555 1_555
C42 N5 1_555 1_555
H39 C42 1_555 1_555
C43 C42 1_555 1_555
H40 C43 1_555 1_555
C44 C43 1_555 1_555
H41 C44 1_555 1_555
C45 C44 1_555 1_555
C46 N5 1_555 1_555
H42 C46 1_555 1_555
C47 C45 1_555 1_555
H43 C47 1_555 1_555
H44 C47 1_555 1_555
C48 C47 1_555 1_555
H45 C48 1_555 1_555
H46 C48 1_555 1_555
C49 C48 1_555 1_555
H47 C49 1_555 1_555
H48 C49 1_555 1_555
C50 O9 1_555 1_555
C51 C41 1_555 1_555
C52 C51 1_555 1_555
H49 C52 1_555 1_555
C53 H50 1_555 1_555
C54 C53 1_555 1_555
H51 C54 1_555 1_555
C55 C54 1_555 1_555
H52 C55 1_555 1_555
C56 C55 1_555 1_555
C57 N6 1_555 1_555
H53 C57 1_555 1_555
C58 C56 1_555 1_555
H54 C58 1_555 1_555
H55 C58 1_555 1_555
C59 C58 1_555 1_555
H56 C59 1_555 1_555
H57 C59 1_555 1_555
C60 C59 1_555 1_555
H58 C60 1_555 1_555
H59 C60 1_555 1_555
C61 O11 1_555 1_555
C62 C52 1_555 1_555
C63 C40 1_555 1_555
H60 C63 1_555 1_555
S1 O13 1_555 1_555
C64 S1 1_555 1_555
H61 C64 1_555 1_555
H62 C64 1_555 1_555
H63 C64 1_555 1_555
C65 S1 1_555 1_555
H64 C65 1_555 1_555
H65 C65 1_555 1_555
H66 C65 1_555 1_555
S2 O14 1_555 1_555
C66 S2 1_555 1_555
H67 C66 1_555 1_555
H68 C66 1_555 1_555
H69 C66 1_555 1_555
C67 S2 1_555 1_555
H70 C67 1_555 1_555
H71 C67 1_555 1_555
H72 C67 1_555 1_555
S3 O15 1_555 1_555
C68 S3 1_555 1_555
H73 C68 1_555 1_555
H74 C68 1_555 1_555
H75 C68 1_555 1_555
C69 S3 1_555 1_555
H76 C69 1_555 1_555
H77 C69 1_555 1_555
H78 C69 1_555 1_555
S4 O16 1_555 1_555
C70 S4 1_555 1_555
H79 C70 1_555 1_555
H80 C70 1_555 1_555
H81 C70 1_555 1_555
C71 S4 1_555 1_555
H82 C71 1_555 1_555
H83 C71 1_555 1_555
H84 C71 1_555 1_555
S5 O17 1_555 1_555
C72 S5 1_555 1_555
H85 C72 1_555 1_555
H86 C72 1_555 1_555
H87 C72 1_555 1_555
C73 S5 1_555 1_555
H88 C73 1_555 1_555
H89 C73 1_555 1_555
H90 C73 1_555 1_555
O18 N7 1_555 1_555
O19 N7 1_555 1_555
O20 N7 1_555 1_555
O21 N8 1_555 1_555
O22 N8 1_555 1_555
O23 N8 1_555 1_555
Pd1A N3 1_555 1_555
O1A C7A 1_555 1_555
O2A C8A 1_555 1_555
O3A C17A 1_555 1_555
O4A C18A 1_555 1_555
O5A C27A 1_555 1_555
O6A C28A 1_555 1_555
O7A C38A 1_555 1_555
O8A C39A 1_555 1_555
O9A C49A 1_555 1_555
O10A C50A 1_555 1_555
O11A C60A 1_555 1_555
O12A C61A 1_555 1_555
N1A Pd1A 1_555 1_555
N2A Pd2 1_555 1_555
N3A Pd1 1_555 1_555
N4A Pd1A 1_555 1_555
N5A Pd2 1_555 1_555
N6A Pd1 1_555 1_555
C1A N1A 1_555 1_555
H1A C1A 1_555 1_555
C2A C1A 1_555 1_555
H2A C2A 1_555 1_555
C3A C2A 1_555 1_555
H3A C3A 1_555 1_555
C4A C3A 1_555 1_555
H4A C4A 1_555 1_555
C5A N1A 1_555 1_555
C6A C5A 1_555 1_555
H5A C6A 1_555 1_555
H6A C6A 1_555 1_555
C7A C6A 1_555 1_555
H7A C7A 1_555 1_555
H8A C7A 1_555 1_555
C8A O1A 1_555 1_555
C9A C8A 1_555 1_555
C10A C9A 1_555 1_555
H9A C10A 1_555 1_555
C11A N2A 1_555 1_555
H10A C11A 1_555 1_555
C12A C11A 1_555 1_555
H11A C12A 1_555 1_555
C13A C12A 1_555 1_555
H12A C13A 1_555 1_555
C14A C13A 1_555 1_555
H13A C14A 1_555 1_555
C15A N2A 1_555 1_555
C16A C15A 1_555 1_555
H14A C16A 1_555 1_555
H15A C16A 1_555 1_555
C17A C16A 1_555 1_555
H16A C17A 1_555 1_555
H17A C17A 1_555 1_555
C18A O3A 1_555 1_555
C19A C10A 1_555 1_555
C20A C19A 1_555 1_555
H18A C20A 1_555 1_555
C21A N3A 1_555 1_555
H19A C21A 1_555 1_555
C22A C21A 1_555 1_555
H20A C22A 1_555 1_555
C23A C22A 1_555 1_555
H21A C23A 1_555 1_555
C24A C23A 1_555 1_555
H22A C24A 1_555 1_555
C25A N3A 1_555 1_555
C26A C25A 1_555 1_555
H23A C26A 1_555 1_555
H24A C26A 1_555 1_555
C27A C26A 1_555 1_555
H25A C27A 1_555 1_555
H26A C27A 1_555 1_555
C28A O5A 1_555 1_555
C29A C20A 1_555 1_555
C30A C9A 1_555 1_555
H27A C30A 1_555 1_555
C31A N4A 1_555 1_555
H28A C31A 1_555 1_555
C32A C31A 1_555 1_555
H29A C32A 1_555 1_555
C33A C32A 1_555 1_555
H30A C33A 1_555 1_555
C34A C33A 1_555 1_555
C35A N4A 1_555 1_555
H31A C35A 1_555 1_555
C36A C34A 1_555 1_555
H32A C36A 1_555 1_555
H33A C36A 1_555 1_555
C37A C36A 1_555 1_555
H34A C37A 1_555 1_555
H35A C37A 1_555 1_555
C38A C37A 1_555 1_555
H36A C38A 1_555 1_555
H37A C38A 1_555 1_555
C39A O7A 1_555 1_555
C40A C39A 1_555 1_555
C41A C40A 1_555 1_555
H38A C41A 1_555 1_555
C42A N5A 1_555 1_555
H39A C42A 1_555 1_555
C43A C42A 1_555 1_555
H40A C43A 1_555 1_555
C44A C43A 1_555 1_555
H41A C44A 1_555 1_555
C45A C44A 1_555 1_555
C46A N5A 1_555 1_555
H42A C46A 1_555 1_555
C47A C45A 1_555 1_555
H43A C47A 1_555 1_555
H44A C47A 1_555 1_555
C48A C47A 1_555 1_555
H45A C48A 1_555 1_555
H46A C48A 1_555 1_555
C49A C48A 1_555 1_555
H47A C49A 1_555 1_555
H48A C49A 1_555 1_555
C50A O9A 1_555 1_555
C51A C41A 1_555 1_555
C52A C51A 1_555 1_555
H49A C52A 1_555 1_555
C53A N6A 1_555 1_555
H50A C53A 1_555 1_555
C54A C53A 1_555 1_555
H51A C54A 1_555 1_555
C55A C54A 1_555 1_555
H52A C55A 1_555 1_555
C56A C55A 1_555 1_555
C57A N6A 1_555 1_555
H53A C57A 1_555 1_555
C58A C56A 1_555 1_555
H54A C58A 1_555 1_555
H55A C58A 1_555 1_555
C59A C58A 1_555 1_555
H56A C59A 1_555 1_555
H57A C59A 1_555 1_555
C60A C59A 1_555 1_555
H58A C60A 1_555 1_555
H59A C60A 1_555 1_555
C61A O11A 1_555 1_555
C62A C52A 1_555 1_555
C63A C40A 1_555 1_555
H60A C63A 1_555 1_555
N6 Pd1A 1_555 1_555
C4 C5 1_555 1_555
C14 C15 1_555 1_555
C18 C19 1_555 1_555
C24 C25 1_555 1_555
C28 C29 1_555 1_555
C29 C30 1_555 1_555
C34 C35 1_555 1_555
C45 C46 1_555 1_555
C50 C51 1_555 1_555
C56 C57 1_555 1_555
C61 C62 1_555 1_555
C62 C63 1_555 1_555
C4A C5A 1_555 1_555
C14A C15A 1_555 1_555
C18A C19A 1_555 1_555
C24A C25A 1_555 1_555
C28A C29A 1_555 1_555
C29A C30A 1_555 1_555
C34A C35A 1_555 1_555
C45A C46A 1_555 1_555
C50A C51A 1_555 1_555
C56A C57A 1_555 1_555
C61A C62A 1_555 1_555
C62A C63A 1_555 1_555

#END
