
#######################################################################
#
#                 Cambridge Crystallographic Data Centre
#                                CCDC 
#
#######################################################################
#
# If this CIF has been generated from an entry in the Cambridge 
# Structural Database, then it will include bibliographic, chemical, 
# crystal, experimental, refinement or atomic coordinate data resulting 
# from the CCDC's data processing and validation procedures.
#
#######################################################################

data_EWICIY
_chemical_formula_moiety         
'C114 H120 N24 O18 Pd3 6+,6(N1 O3 1-),12(C2 H6 O1 S1),4(H2 O1)'
_chemical_name_systematic        
"bis(\m-tris(2-(pyridin-2-yl)ethyl) benzene-1,3,5-tricarboxylate)-bis(\m-N,N',N''-tris(3-(1H-imidazol-1-yl)propyl)benzene-1,3,5-tricarboxamide)-tri-palladium(ii) hexanitrate dimethyl sulfoxide solvate tetrahydrate"
_symmetry_cell_setting           monoclinic
_symmetry_space_group_name_H-M   'P 21/c'
_symmetry_Int_Tables_number      14
_space_group_name_Hall           '-P 2ybc'
loop_
_symmetry_equiv_pos_site_id
_symmetry_equiv_pos_as_xyz
1 x,y,z
2 -x,1/2+y,1/2-z
3 -x,-y,-z
4 x,1/2-y,1/2+z
_cell_length_a                   18.3794(5)
_cell_length_b                   72.214(2)
_cell_length_c                   15.4212(5)
_cell_angle_alpha                90
_cell_angle_beta                 110.933(2)
_cell_angle_gamma                90
_cell_volume                     19116.9
_exptl_crystal_colour            colorless
_exptl_crystal_description       block
_cell_formula_units_Z            4
loop_
_atom_site_label
_atom_site_type_symbol
_atom_site_fract_x
_atom_site_fract_y
_atom_site_fract_z
S1 S 0.4897(2) 0.47992(6) 0.5698(3)
O19 O 0.4079(5) 0.47701(14) 0.5669(7)
C115 C 0.5384(8) 0.4582(2) 0.6071(11)
H121 H 0.5925 0.4592 0.6104
H122 H 0.5375 0.4551 0.6685
H123 H 0.5117 0.4485 0.5627
C116 C 0.5360(8) 0.4939(3) 0.6662(11)
H124 H 0.5898 0.4962 0.6709
H125 H 0.5082 0.5058 0.6591
H126 H 0.5358 0.4877 0.7226
S2 S 0.7291(3) 0.48461(7) 0.5490(3)
O20 O 0.6955(6) 0.48353(17) 0.6225(7)
C117 C 0.7953(10) 0.4661(3) 0.5733(14)
H127 H 0.8206 0.4658 0.5271
H128 H 0.8349 0.4677 0.6354
H129 H 0.7675 0.4544 0.5711
C118 C 0.6563(12) 0.4757(3) 0.4525(13)
H130 H 0.6735 0.4758 0.3993
H131 H 0.6450 0.4629 0.4652
H132 H 0.6091 0.4832 0.4385
S3 S 0.8266(4) 0.64684(13) 0.2895(5)
O21 O 0.8573(9) 0.6272(2) 0.3166(12)
C119 C 0.8163(14) 0.6555(4) 0.3892(15)
H133 H 0.7962 0.6682 0.3791
H134 H 0.7770 0.6473 0.3980
H135 H 0.8638 0.6551 0.4446
C120 C 0.7207(10) 0.6414(3) 0.2286(14)
H136 H 0.6928 0.6529 0.2052
H137 H 0.7142 0.6329 0.1764
H138 H 0.6995 0.6355 0.2719
S5 S 0.4186(4) 0.53652(12) 0.0603(5)
O22 O 0.4363(16) 0.5364(5) 0.1503(16)
C121 C 0.3362(18) 0.5282(5) -0.003(2)
H145 H 0.3304 0.5292 -0.0686
H146 H 0.3331 0.5152 0.0130
H147 H 0.2944 0.5352 0.0076
C122 C 0.4234(11) 0.5557(3) -0.0103(12)
H148 H 0.4066 0.5517 -0.0753
H149 H 0.3891 0.5656 -0.0041
H150 H 0.4771 0.5602 0.0097
S6 S 0.7578(4) 0.64829(11) 0.6605(6)
O23 O 0.7518(13) 0.6496(3) 0.5685(14)
C123 C 0.6652(11) 0.6439(3) 0.6672(14)
H151 H 0.6701 0.6430 0.7324
H152 H 0.6296 0.6540 0.6373
H153 H 0.6446 0.6322 0.6354
C124 C 0.7632(13) 0.6713(3) 0.6986(17)
H154 H 0.7676 0.6715 0.7639
H155 H 0.8089 0.6773 0.6925
H156 H 0.7160 0.6779 0.6609
S7 S 0.3117(7) 0.71575(19) 0.6631(9)
O24 O 0.2898(18) 0.7109(5) 0.761(2)
C125 C 0.331(2) 0.7411(5) 0.700(2)
H157 H 0.3873 0.7429 0.7328
H158 H 0.3140 0.7490 0.6442
H159 H 0.3029 0.7444 0.7403
C126 C 0.2317(19) 0.7172(5) 0.620(2)
H160 H 0.2193 0.7202 0.5538
H161 H 0.2073 0.7054 0.6247
H162 H 0.2119 0.7270 0.6492
O25 O 1.0469(15) 0.4960(5) 0.7376(19)
O26 O 0.9499(17) 0.5007(6) 0.7812(18)
O27 O 0.9299(19) 0.4974(9) 0.6372(17)
N25 N 0.9744(17) 0.4941(5) 0.7223(19)
O28 O 0.8582(7) 0.3519(3) 0.4139(17)
O29 O 0.8285(12) 0.3632(5) 0.5259(19)
O30 O 0.9489(13) 0.3526(7) 0.562(3)
N26 N 0.8732(12) 0.3550(6) 0.509(3)
O31 O 1.0905(7) 0.5290(2) 0.5643(10)
O32 O 0.9779(8) 0.5393(2) 0.5282(11)
O33 O 1.0431(15) 0.5478(4) 0.463(2)
N27 N 1.0341(11) 0.5369(4) 0.5126(14)
O34 O 0.5754(9) 0.4354(2) 0.2367(9)
O35 O 0.6143(7) 0.4637(2) 0.2228(9)
O36 O 0.5236(11) 0.4589(3) 0.2733(16)
N28 N 0.5709(9) 0.4526(3) 0.2431(12)
O37 O 0.4724(9) 0.72520(18) 0.9051(10)
O38 O 0.5355(8) 0.74377(17) 1.0160(9)
O39 O 0.5976(10) 0.7331(2) 0.9363(11)
N29 N 0.5375(12) 0.7346(2) 0.9521(12)
O40 O 0.0875(6) 0.46007(18) 0.1002(8)
O41 O 0.1851(9) 0.4500(3) 0.0803(12)
O42 O 0.1047(6) 0.46621(18) -0.0271(8)
N30 N 0.1262(7) 0.4591(2) 0.0528(10)
Pd1 Pd 0.18270(4) 0.43789(2) 0.57833(6)
Pd2 Pd 0.92992(5) 0.43460(2) 0.99641(7)
Pd3 Pd 0.50316(7) 0.28631(2) 0.55537(9)
O1 O 0.4402(4) 0.42436(14) 0.8171(6)
O2 O 0.3545(5) 0.40288(17) 0.7400(11)
O3 O 0.7544(5) 0.38118(17) 0.9549(11)
O4 O 0.7120(5) 0.40989(17) 0.9720(9)
O5 O 0.4448(5) 0.34170(15) 0.7197(8)
O6 O 0.5705(5) 0.33449(14) 0.7509(8)
O7 O 0.3529(4) 0.39332(13) 0.4829(6)
O8 O 0.3979(5) 0.42119(17) 0.5401(9)
O9 O 0.6762(5) 0.42740(17) 0.7124(8)
O10 O 0.7570(7) 0.40243(18) 0.7505(10)
O11 O 0.6546(5) 0.34588(15) 0.5692(7)
O12 O 0.5259(5) 0.34245(13) 0.4878(6)
O13 O 0.3611(5) 0.40014(13) 0.2867(7)
O14 O 0.6928(6) 0.4257(2) 0.5129(9)
O15 O 0.6463(7) 0.34482(18) 0.3370(9)
O16 O 0.4078(7) 0.4228(2) 1.0321(10)
O17 O 0.7479(6) 0.38396(17) 1.1784(12)
O18 O 0.4428(7) 0.33996(16) 0.9448(8)
N1 N 0.2332(5) 0.46149(14) 0.6394(6)
N2 N 0.9901(6) 0.41242(19) 1.0635(9)
N3 N 0.3882(7) 0.29039(18) 0.5262(9)
N4 N 0.1226(5) 0.41472(16) 0.5127(7)
N5 N 0.8765(6) 0.45859(17) 0.9430(8)
N6 N 0.6197(7) 0.28053(19) 0.5802(8)
N7 N 0.1962(5) 0.44655(16) 0.4597(6)
N8 N 0.2462(5) 0.45864(16) 0.3645(7)
N9 N 0.4182(6) 0.42709(17) 0.2885(7)
H1 H 0.4614 0.4326 0.2900
N10 N 0.9591(6) 0.4299(2) 0.8843(9)
N11 N 0.9708(6) 0.4188(3) 0.7590(10)
N12 N 0.7719(7) 0.4012(2) 0.5135(11)
H2 H 0.7747 0.3899 0.4935
N13 N 0.4858(7) 0.28967(19) 0.4233(9)
N14 N 0.4386(7) 0.3017(2) 0.2775(9)
N15 N 0.5288(8) 0.34523(18) 0.2375(9)
H3 H 0.4840 0.3511 0.2154
N16 N 0.1724(5) 0.42934(16) 0.6997(7)
N17 N 0.1795(6) 0.4133(2) 0.8219(9)
N18 N 0.3422(9) 0.3998(3) 1.0446(13)
H4 H 0.3407 0.3885 1.0655
N19 N 0.9030(5) 0.44030(17) 1.1074(8)
N20 N 0.8414(5) 0.44579(16) 1.2041(7)
N21 N 0.7018(6) 0.4095(2) 1.2236(8)
H5 H 0.6612 0.4167 1.2162
N22 N 0.5196(8) 0.28173(18) 0.6884(10)
N23 N 0.5652(10) 0.2818(2) 0.8394(10)
N24 N 0.5667(9) 0.3339(2) 0.9874(10)
H6 H 0.6149 0.3381 1.0092
C1 C 0.1867(7) 0.4768(2) 0.6221(9)
H7 H 0.1339 0.4756 0.5821
C2 C 0.2112(7) 0.4934(2) 0.6581(9)
H8 H 0.1754 0.5034 0.6463
C3 C 0.2901(8) 0.4962(2) 0.7140(10)
H9 H 0.3096 0.5080 0.7392
C4 C 0.3380(7) 0.4804(2) 0.7298(10)
H10 H 0.3911 0.4812 0.7693
C5 C 0.3090(6) 0.4643(2) 0.6894(9)
C6 C 0.3614(7) 0.4468(2) 0.7080(9)
H11 H 0.3362 0.4375 0.6595
H12 H 0.4118 0.4502 0.7025
C7 C 0.3767(7) 0.4384(2) 0.7996(10)
H13 H 0.3289 0.4324 0.8013
H14 H 0.3927 0.4481 0.8484
C8 C 0.4200(7) 0.4072(2) 0.7813(10)
C9 C 0.4867(6) 0.39585(19) 0.8055(8)
C10 C 0.5625(6) 0.40062(19) 0.8624(8)
H15 H 0.5721 0.4127 0.8880
C11 C 1.0663(7) 0.4148(2) 1.1105(10)
H16 H 1.0900 0.4262 1.1053
C12 C 1.1113(7) 0.4011(2) 1.1663(10)
H17 H 1.1651 0.4033 1.1987
C13 C 1.0835(9) 0.3860(3) 1.1753(18)
H18 H 1.1165 0.3774 1.2178
C14 C 1.0055(11) 0.3808(3) 1.126(2)
H19 H 0.9852 0.3688 1.1280
C15 C 0.9586(9) 0.3966(3) 1.0709(19)
C16 C 0.8770(11) 0.3921(4) 0.985(2)
H20 H 0.8542 0.4034 0.9493
H21 H 0.8847 0.3827 0.9422
C17 C 0.8351(10) 0.3858(3) 1.029(2)
H22 H 0.8297 0.3953 1.0731
H23 H 0.8591 0.3746 1.0648
C18 C 0.7003(7) 0.3945(3) 0.9415(13)
C19 C 0.6246(6) 0.3881(2) 0.8827(9)
C20 C 0.6090(7) 0.3704(2) 0.8441(10)
H24 H 0.6507 0.3618 0.8571
C21 C 0.3399(10) 0.2764(3) 0.4849(12)
H25 H 0.3616 0.2652 0.4721
C22 C 0.2639(11) 0.2775(3) 0.4617(18)
H26 H 0.2356 0.2665 0.4377
C23 C 0.2207(12) 0.2923(3) 0.4676(18)
H27 H 0.1654 0.2930 0.4451
C24 C 0.2743(9) 0.3070(3) 0.5148(14)
H28 H 0.2533 0.3179 0.5304
C25 C 0.3535(9) 0.3059(2) 0.5383(13)
C26 C 0.4019(9) 0.3224(2) 0.5819(12)
H29 H 0.4516 0.3219 0.5706
H30 H 0.3740 0.3338 0.5525
C27 C 0.4184(8) 0.3232(2) 0.6817(12)
H31 H 0.4591 0.3140 0.7133
H32 H 0.3707 0.3199 0.6941
C28 C 0.5191(7) 0.3456(2) 0.7539(10)
C29 C 0.5343(6) 0.3648(2) 0.7869(9)
C30 C 0.4741(6) 0.37814(19) 0.7692(8)
H33 H 0.4227 0.3747 0.7308
C31 C 0.0444(6) 0.4168(2) 0.4810(9)
H34 H 0.0233 0.4280 0.4938
C32 C -0.0041(8) 0.4037(3) 0.4329(11)
H35 H -0.0588 0.4054 0.4134
C33 C 0.0282(8) 0.3867(3) 0.4103(13)
H36 H -0.0042 0.3766 0.3804
C34 C 0.1097(7) 0.3859(3) 0.4351(12)
H37 H 0.1337 0.3758 0.4164
C35 C 0.1540(6) 0.4002(2) 0.4870(10)
C36 C 0.2410(7) 0.3974(2) 0.5267(10)
H38 H 0.2530 0.3848 0.5529
H39 H 0.2648 0.4064 0.5773
C37 C 0.2751(6) 0.4001(2) 0.4497(10)
H40 H 0.2434 0.3933 0.3931
H41 H 0.2745 0.4134 0.4337
C38 C 0.4073(6) 0.4058(2) 0.5275(9)
C39 C 0.4877(6) 0.3966(2) 0.5630(9)
C40 C 0.5511(6) 0.4066(2) 0.6195(8)
H42 H 0.5439 0.4190 0.6352
C41 C 0.9190(8) 0.4739(2) 0.9741(11)
H43 H 0.9703 0.4726 1.0183
C42 C 0.8927(10) 0.4908(3) 0.9459(11)
H44 H 0.9248 0.5013 0.9692
C43 C 0.8165(11) 0.4929(3) 0.8810(14)
H45 H 0.7976 0.5050 0.8600
C44 C 0.7701(11) 0.4782(3) 0.8483(13)
H46 H 0.7175 0.4795 0.8078
C45 C 0.8041(8) 0.4607(2) 0.8775(11)
C46 C 0.7474(8) 0.4424(2) 0.8473(11)
H47 H 0.7701 0.4317 0.8882
H48 H 0.6947 0.4450 0.8480
C47 C 0.7458(8) 0.4392(2) 0.7502(12)
H49 H 0.7397 0.4510 0.7152
H50 H 0.7933 0.4327 0.7502
C48 C 0.6943(9) 0.4094(3) 0.7107(12)
C49 C 0.6251(7) 0.3988(2) 0.6539(9)
C50 C 0.6346(7) 0.3808(2) 0.6269(10)
H51 H 0.6851 0.3755 0.6491
C51 C 0.6337(10) 0.2629(3) 0.5693(12)
H52 H 0.5923 0.2541 0.5505
C52 C 0.7093(11) 0.2573(3) 0.5855(13)
H53 H 0.7220 0.2446 0.5869
C53 C 0.7701(10) 0.2716(3) 0.6009(12)
H54 H 0.8214 0.2686 0.6047
C54 C 0.7484(9) 0.2895(3) 0.6093(12)
H55 H 0.7865 0.2990 0.6210
C55 C 0.6739(9) 0.2944(2) 0.6014(12)
C56 C 0.6523(7) 0.3139(2) 0.6133(11)
H56 H 0.6827 0.3181 0.6772
H57 H 0.5964 0.3144 0.6049
C57 C 0.6681(8) 0.3271(2) 0.5432(12)
H58 H 0.7225 0.3258 0.5460
H59 H 0.6326 0.3243 0.4793
C58 C 0.5776(7) 0.3514(2) 0.5337(9)
C59 C 0.5731(6) 0.3705(2) 0.5691(9)
C60 C 0.4998(6) 0.3784(2) 0.5382(9)
H60 H 0.4566 0.3714 0.4995
C61 C 0.2557(6) 0.45579(19) 0.4539(8)
H61 H 0.2992 0.4599 0.5054
C62 C 0.1464(8) 0.4417(3) 0.3678(9)
H62 H 0.1010 0.4343 0.3511
C63 C 0.1769(6) 0.4500(2) 0.3085(9)
H63 H 0.1556 0.4498 0.2426
C64 C 0.3031(6) 0.46763(19) 0.3308(9)
H64 H 0.3229 0.4791 0.3669
H65 H 0.2772 0.4711 0.2648
C65 C 0.3711(6) 0.45474(18) 0.3402(8)
H66 H 0.4131 0.4619 0.3298
H67 H 0.3919 0.4498 0.4043
C66 C 0.3495(7) 0.4392(2) 0.2749(9)
H68 H 0.3297 0.4440 0.2105
H69 H 0.3074 0.4320 0.2847
C67 C 0.4210(7) 0.4081(2) 0.2989(8)
C68 C 0.4978(6) 0.39970(19) 0.3278(8)
C69 C 0.5626(7) 0.4091(2) 0.3850(9)
H70 H 0.5589 0.4217 0.4008
C70 C 0.9629(8) 0.4143(3) 0.8459(13)
H71 H 0.9608 0.4023 0.8701
C71 C 0.9605(8) 0.4431(3) 0.8209(11)
H72 H 0.9550 0.4560 0.8291
C72 C 0.9702(9) 0.4359(3) 0.7474(13)
H73 H 0.9756 0.4423 0.6964
C73 C 0.9783(9) 0.4055(3) 0.6895(13)
H74 H 1.0155 0.3957 0.7221
H75 H 1.0003 0.4121 0.6481
C74 C 0.9031(9) 0.3968(3) 0.6319(13)
H76 H 0.9127 0.3878 0.5887
H77 H 0.8816 0.3899 0.6729
C75 C 0.8455(11) 0.4106(3) 0.5782(18)
H78 H 0.8685 0.4182 0.5412
H79 H 0.8321 0.4189 0.6213
C76 C 0.7043(9) 0.4097(3) 0.4871(12)
C77 C 0.6353(7) 0.3994(2) 0.4200(10)
C78 C 0.6403(8) 0.3813(2) 0.3882(10)
H80 H 0.6889 0.3750 0.4083
C79 C 0.4576(8) 0.3052(2) 0.3688(11)
H81 H 0.4523 0.3169 0.3931
C80 C 0.4854(11) 0.2776(3) 0.3596(13)
H82 H 0.5036 0.2653 0.3763
C81 C 0.4592(11) 0.2828(3) 0.2723(14)
H83 H 0.4551 0.2757 0.2187
C82 C 0.4052(11) 0.3150(3) 0.2016(12)
H84 H 0.3945 0.3269 0.2273
H85 H 0.3552 0.3102 0.1578
C83 C 0.4600(11) 0.3185(3) 0.1505(12)
H86 H 0.4698 0.3065 0.1256
H87 H 0.4329 0.3265 0.0966
C84 C 0.5346(11) 0.3268(2) 0.2011(13)
H88 H 0.5649 0.3277 0.1596
H89 H 0.5635 0.3186 0.2535
C85 C 0.5857(10) 0.3532(2) 0.2997(12)
C86 C 0.5744(7) 0.3727(2) 0.3278(10)
C87 C 0.5039(7) 0.3817(2) 0.3010(9)
H90 H 0.4583 0.3754 0.2632
C88 C 0.1818(6) 0.4120(2) 0.7347(10)
H91 H 0.1887 0.4010 0.7045
C89 C 0.1629(9) 0.4410(3) 0.7672(10)
H92 H 0.1550 0.4540 0.7636
C90 C 0.1676(8) 0.4296(3) 0.8394(11)
H93 H 0.1625 0.4336 0.8957
C91 C 0.1896(12) 0.3985(3) 0.8845(13)
H94 H 0.2343 0.3912 0.8826
H95 H 0.1429 0.3906 0.8599
C92 C 0.2032(12) 0.4024(4) 0.9889(14)
H96 H 0.1559 0.4079 0.9947
H97 H 0.2147 0.3906 1.0244
C93 C 0.2725(10) 0.4158(3) 1.0275(15)
H98 H 0.2744 0.4218 1.0859
H99 H 0.2735 0.4253 0.9816
C94 C 0.4081(8) 0.4076(3) 1.0186(15)
C95 C 0.4757(7) 0.3933(2) 1.0419(9)
C96 C 0.4685(8) 0.3766(2) 1.0074(10)
H100 H 0.4179 0.3725 0.9696
C97 C 0.8352(7) 0.4399(2) 1.1197(10)
H101 H 0.7878 0.4359 1.0739
C98 C 0.9529(7) 0.4473(3) 1.1877(10)
H102 H 1.0066 0.4498 1.2009
C99 C 0.9135(7) 0.4504(3) 1.2476(11)
H103 H 0.9352 0.4550 1.3093
C100 C 0.7773(8) 0.4477(3) 1.2405(11)
H104 H 0.7267 0.4461 1.1891
H105 H 0.7786 0.4603 1.2666
C101 C 0.7850(10) 0.4326(3) 1.3193(12)
H106 H 0.8352 0.4345 1.3710
H107 H 0.7427 0.4347 1.3440
C102 C 0.7813(8) 0.4147(3) 1.2892(11)
H108 H 0.7963 0.4063 1.3435
H109 H 0.8193 0.4130 1.2578
C103 C 0.6947(8) 0.3932(3) 1.1755(14)
C104 C 0.6128(7) 0.3884(2) 1.1160(10)
C105 C 0.5483(6) 0.4002(2) 1.0978(9)
H110 H 0.5538 0.4124 1.1227
C106 C 0.5782(11) 0.2863(2) 0.7610(12)
H111 H 0.6242 0.2921 0.7596
C107 C 0.4697(12) 0.2737(3) 0.7291(14)
H112 H 0.4205 0.2685 0.6934
C108 C 0.4960(14) 0.2739(3) 0.8180(15)
H113 H 0.4716 0.2695 0.8588
C109 C 0.6252(13) 0.2852(3) 0.9347(14)
H114 H 0.6761 0.2804 0.9366
H115 H 0.6101 0.2783 0.9811
C110 C 0.6346(13) 0.3062(3) 0.9623(13)
H116 H 0.6744 0.3075 1.0254
H117 H 0.6538 0.3130 0.9188
C111 C 0.5588(12) 0.3152(3) 0.9608(14)
H118 H 0.5195 0.3141 0.8973
H119 H 0.5390 0.3082 1.0030
C112 C 0.5132(10) 0.3461(3) 0.9846(10)
C113 C 0.5294(8) 0.3646(2) 1.0225(9)
C114 C 0.5994(8) 0.3702(2) 1.0760(10)
H120 H 0.6422 0.3620 1.0884
loop_
_geom_bond_atom_site_label_1
_geom_bond_atom_site_label_2
_geom_bond_site_symmetry_1
_geom_bond_site_symmetry_2
Pd1 N1 1_555 1_555
Pd2 N2 1_555 1_555
Pd3 N3 1_555 1_555
O1 C7 1_555 1_555
O2 C8 1_555 1_555
O3 C17 1_555 1_555
O4 C18 1_555 1_555
O5 C27 1_555 1_555
O6 C28 1_555 1_555
O7 C37 1_555 1_555
O8 C38 1_555 1_555
O9 C47 1_555 1_555
O10 C48 1_555 1_555
O11 C57 1_555 1_555
O12 C58 1_555 1_555
O13 C67 1_555 1_555
O14 C76 1_555 1_555
O15 C85 1_555 1_555
O16 C94 1_555 1_555
O17 C103 1_555 1_555
O18 C112 1_555 1_555
N1 C1 1_555 1_555
N2 C11 1_555 1_555
N3 C21 1_555 1_555
N4 Pd1 1_555 1_555
N5 Pd2 1_555 1_555
N6 Pd3 1_555 1_555
N7 Pd1 1_555 1_555
N8 C61 1_555 1_555
N9 H1 1_555 1_555
N10 Pd2 1_555 1_555
N11 C70 1_555 1_555
N12 H2 1_555 1_555
N13 Pd3 1_555 1_555
N14 C79 1_555 1_555
N15 H3 1_555 1_555
N16 Pd1 1_555 1_555
N17 C88 1_555 1_555
N18 H4 1_555 1_555
N19 Pd2 1_555 1_555
N20 C97 1_555 1_555
N21 H5 1_555 1_555
N22 Pd3 1_555 1_555
N23 C106 1_555 1_555
N24 H6 1_555 1_555
C1 H7 1_555 1_555
C2 C1 1_555 1_555
H8 C2 1_555 1_555
C3 C2 1_555 1_555
H9 C3 1_555 1_555
C4 C3 1_555 1_555
H10 C4 1_555 1_555
C5 N1 1_555 1_555
C6 C5 1_555 1_555
H11 C6 1_555 1_555
H12 C6 1_555 1_555
C7 C6 1_555 1_555
H13 C7 1_555 1_555
H14 C7 1_555 1_555
C8 O1 1_555 1_555
C9 C8 1_555 1_555
C10 C9 1_555 1_555
H15 C10 1_555 1_555
C11 H16 1_555 1_555
C12 C11 1_555 1_555
H17 C12 1_555 1_555
C13 C12 1_555 1_555
H18 C13 1_555 1_555
C14 C13 1_555 1_555
H19 C14 1_555 1_555
C15 N2 1_555 1_555
C16 C15 1_555 1_555
H20 C16 1_555 1_555
H21 C16 1_555 1_555
C17 C16 1_555 1_555
H22 C17 1_555 1_555
H23 C17 1_555 1_555
C18 O3 1_555 1_555
C19 C10 1_555 1_555
C20 C19 1_555 1_555
H24 C20 1_555 1_555
C21 H25 1_555 1_555
C22 C21 1_555 1_555
H26 C22 1_555 1_555
C23 C22 1_555 1_555
H27 C23 1_555 1_555
C24 C23 1_555 1_555
H28 C24 1_555 1_555
C25 N3 1_555 1_555
C26 C25 1_555 1_555
H29 C26 1_555 1_555
H30 C26 1_555 1_555
C27 C26 1_555 1_555
H31 C27 1_555 1_555
H32 C27 1_555 1_555
C28 O5 1_555 1_555
C29 C20 1_555 1_555
C30 C9 1_555 1_555
H33 C30 1_555 1_555
C31 N4 1_555 1_555
H34 C31 1_555 1_555
C32 C31 1_555 1_555
H35 C32 1_555 1_555
C33 C32 1_555 1_555
H36 C33 1_555 1_555
C34 C33 1_555 1_555
H37 C34 1_555 1_555
C35 N4 1_555 1_555
C36 C35 1_555 1_555
H38 C36 1_555 1_555
H39 C36 1_555 1_555
C37 C36 1_555 1_555
H40 C37 1_555 1_555
H41 C37 1_555 1_555
C38 O7 1_555 1_555
C39 C38 1_555 1_555
C40 C39 1_555 1_555
H42 C40 1_555 1_555
C41 N5 1_555 1_555
H43 C41 1_555 1_555
C42 C41 1_555 1_555
H44 C42 1_555 1_555
C43 C42 1_555 1_555
H45 C43 1_555 1_555
C44 C43 1_555 1_555
H46 C44 1_555 1_555
C45 N5 1_555 1_555
C46 C45 1_555 1_555
H47 C46 1_555 1_555
H48 C46 1_555 1_555
C47 C46 1_555 1_555
H49 C47 1_555 1_555
H50 C47 1_555 1_555
C48 O9 1_555 1_555
C49 C40 1_555 1_555
C50 C49 1_555 1_555
H51 C50 1_555 1_555
C51 N6 1_555 1_555
H52 C51 1_555 1_555
C52 C51 1_555 1_555
H53 C52 1_555 1_555
C53 C52 1_555 1_555
H54 C53 1_555 1_555
C54 C53 1_555 1_555
H55 C54 1_555 1_555
C55 N6 1_555 1_555
C56 C55 1_555 1_555
H56 C56 1_555 1_555
H57 C56 1_555 1_555
C57 C56 1_555 1_555
H58 C57 1_555 1_555
H59 C57 1_555 1_555
C58 O11 1_555 1_555
C59 C50 1_555 1_555
C60 C39 1_555 1_555
H60 C60 1_555 1_555
C61 N7 1_555 1_555
H61 C61 1_555 1_555
C62 N7 1_555 1_555
H62 C62 1_555 1_555
C63 N8 1_555 1_555
H63 C63 1_555 1_555
C64 N8 1_555 1_555
H64 C64 1_555 1_555
H65 C64 1_555 1_555
C65 C64 1_555 1_555
H66 C65 1_555 1_555
H67 C65 1_555 1_555
C66 N9 1_555 1_555
H68 C66 1_555 1_555
H69 C66 1_555 1_555
C67 N9 1_555 1_555
C68 C67 1_555 1_555
C69 C68 1_555 1_555
H70 C69 1_555 1_555
C70 N10 1_555 1_555
H71 C70 1_555 1_555
C71 N10 1_555 1_555
H72 C71 1_555 1_555
C72 N11 1_555 1_555
H73 C72 1_555 1_555
C73 N11 1_555 1_555
H74 C73 1_555 1_555
H75 C73 1_555 1_555
C74 C73 1_555 1_555
H76 C74 1_555 1_555
H77 C74 1_555 1_555
C75 N12 1_555 1_555
H78 C75 1_555 1_555
H79 C75 1_555 1_555
C76 N12 1_555 1_555
C77 C69 1_555 1_555
C78 C77 1_555 1_555
H80 C78 1_555 1_555
C79 N13 1_555 1_555
H81 C79 1_555 1_555
C80 N13 1_555 1_555
H82 C80 1_555 1_555
C81 N14 1_555 1_555
H83 C81 1_555 1_555
C82 N14 1_555 1_555
H84 C82 1_555 1_555
H85 C82 1_555 1_555
C83 C82 1_555 1_555
H86 C83 1_555 1_555
H87 C83 1_555 1_555
C84 N15 1_555 1_555
H88 C84 1_555 1_555
H89 C84 1_555 1_555
C85 N15 1_555 1_555
C86 C78 1_555 1_555
C87 C68 1_555 1_555
H90 C87 1_555 1_555
C88 N16 1_555 1_555
H91 C88 1_555 1_555
C89 N16 1_555 1_555
H92 C89 1_555 1_555
C90 N17 1_555 1_555
H93 C90 1_555 1_555
C91 N17 1_555 1_555
H94 C91 1_555 1_555
H95 C91 1_555 1_555
C92 C91 1_555 1_555
H96 C92 1_555 1_555
H97 C92 1_555 1_555
C93 N18 1_555 1_555
H98 C93 1_555 1_555
H99 C93 1_555 1_555
C94 N18 1_555 1_555
C95 C94 1_555 1_555
C96 C95 1_555 1_555
H100 C96 1_555 1_555
C97 N19 1_555 1_555
H101 C97 1_555 1_555
C98 N19 1_555 1_555
H102 C98 1_555 1_555
C99 N20 1_555 1_555
H103 C99 1_555 1_555
C100 N20 1_555 1_555
H104 C100 1_555 1_555
H105 C100 1_555 1_555
C101 C100 1_555 1_555
H106 C101 1_555 1_555
H107 C101 1_555 1_555
C102 N21 1_555 1_555
H108 C102 1_555 1_555
H109 C102 1_555 1_555
C103 N21 1_555 1_555
C104 C103 1_555 1_555
C105 C95 1_555 1_555
H110 C105 1_555 1_555
C106 N22 1_555 1_555
H111 C106 1_555 1_555
C107 N22 1_555 1_555
H112 C107 1_555 1_555
C108 N23 1_555 1_555
H113 C108 1_555 1_555
C109 N23 1_555 1_555
H114 C109 1_555 1_555
H115 C109 1_555 1_555
C110 C109 1_555 1_555
H116 C110 1_555 1_555
H117 C110 1_555 1_555
C111 N24 1_555 1_555
H118 C111 1_555 1_555
H119 C111 1_555 1_555
C112 N24 1_555 1_555
C113 C96 1_555 1_555
C114 C104 1_555 1_555
H120 C114 1_555 1_555
S1 O19 1_555 1_555
C115 S1 1_555 1_555
H121 C115 1_555 1_555
H122 C115 1_555 1_555
H123 C115 1_555 1_555
C116 S1 1_555 1_555
H124 C116 1_555 1_555
H125 C116 1_555 1_555
H126 C116 1_555 1_555
S2 O20 1_555 1_555
C117 S2 1_555 1_555
H127 C117 1_555 1_555
H128 C117 1_555 1_555
H129 C117 1_555 1_555
C118 S2 1_555 1_555
H130 C118 1_555 1_555
H131 C118 1_555 1_555
H132 C118 1_555 1_555
S3 O21 1_555 1_555
C119 S3 1_555 1_555
H133 C119 1_555 1_555
H134 C119 1_555 1_555
H135 C119 1_555 1_555
C120 S3 1_555 1_555
H136 C120 1_555 1_555
H137 C120 1_555 1_555
H138 C120 1_555 1_555
S5 O22 1_555 1_555
C121 S5 1_555 1_555
H145 C121 1_555 1_555
H146 C121 1_555 1_555
H147 C121 1_555 1_555
C122 S5 1_555 1_555
H148 C122 1_555 1_555
H149 C122 1_555 1_555
H150 C122 1_555 1_555
S6 O23 1_555 1_555
C123 S6 1_555 1_555
H151 C123 1_555 1_555
H152 C123 1_555 1_555
H153 C123 1_555 1_555
C124 S6 1_555 1_555
H154 C124 1_555 1_555
H155 C124 1_555 1_555
H156 C124 1_555 1_555
S7 O24 1_555 1_555
C125 S7 1_555 1_555
H157 C125 1_555 1_555
H158 C125 1_555 1_555
H159 C125 1_555 1_555
C126 S7 1_555 1_555
H160 C126 1_555 1_555
H161 C126 1_555 1_555
H162 C126 1_555 1_555
O25 N25 1_555 1_555
O26 N25 1_555 1_555
O27 N25 1_555 1_555
O28 N26 1_555 1_555
O29 N26 1_555 1_555
O30 N26 1_555 1_555
O31 N27 1_555 1_555
O32 N27 1_555 1_555
O33 N27 1_555 1_555
O34 N28 1_555 1_555
O35 N28 1_555 1_555
O36 N28 1_555 1_555
O37 N29 1_555 1_555
O38 N29 1_555 1_555
O39 N29 1_555 1_555
O40 N30 1_555 1_555
O41 N30 1_555 1_555
O42 N30 1_555 1_555
C4 C5 1_555 1_555
C14 C15 1_555 1_555
C18 C19 1_555 1_555
C24 C25 1_555 1_555
C28 C29 1_555 1_555
C29 C30 1_555 1_555
C34 C35 1_555 1_555
C44 C45 1_555 1_555
C48 C49 1_555 1_555
C54 C55 1_555 1_555
C58 C59 1_555 1_555
C59 C60 1_555 1_555
C62 C63 1_555 1_555
C65 C66 1_555 1_555
C71 C72 1_555 1_555
C74 C75 1_555 1_555
C76 C77 1_555 1_555
C80 C81 1_555 1_555
C83 C84 1_555 1_555
C85 C86 1_555 1_555
C86 C87 1_555 1_555
C89 C90 1_555 1_555
C92 C93 1_555 1_555
C98 C99 1_555 1_555
C101 C102 1_555 1_555
C104 C105 1_555 1_555
C107 C108 1_555 1_555
C110 C111 1_555 1_555
C112 C113 1_555 1_555
C113 C114 1_555 1_555

#END
