
#######################################################################
#
#                 Cambridge Crystallographic Data Centre
#                                CCDC 
#
#######################################################################
#
# If this CIF has been generated from an entry in the Cambridge 
# Structural Database, then it will include bibliographic, chemical, 
# crystal, experimental, refinement or atomic coordinate data resulting 
# from the CCDC's data processing and validation procedures.
#
#######################################################################

data_EWICOE
_chemical_formula_moiety         
'C126 H120 N12 O24 Pd3 6+,5(C1 H1 Cl3),3(I3 1-),3(N1 O3 1-)'
_chemical_name_systematic        
'bis(\m-tris(2-(pyridin-2-yl)ethyl) benzene-1,3,5-tricarboxylate)-bis(\m-tris(3-(pyridin-3-yl)propyl) benzene-1,3,5-tricarboxylate)-tri-palladium(ii) trinitrate tris(triiodide) chloroform solvate'
_symmetry_cell_setting           monoclinic
_symmetry_space_group_name_H-M   'C 2/c'
_symmetry_Int_Tables_number      15
_space_group_name_Hall           '-C 2yn'
loop_
_symmetry_equiv_pos_site_id
_symmetry_equiv_pos_as_xyz
1 x,y,z
2 -x,y,1/2-z
3 1/2+x,1/2+y,z
4 1/2-x,1/2+y,1/2-z
5 -x,-y,-z
6 x,-y,1/2+z
7 1/2-x,1/2-y,-z
8 1/2+x,1/2-y,1/2+z
_cell_length_a                   14.029(3)
_cell_length_b                   41.786(8)
_cell_length_c                   37.004(6)
_cell_angle_alpha                90
_cell_angle_beta                 94.315(9)
_cell_angle_gamma                90
_cell_volume                     21630.8
_exptl_crystal_colour            red
_exptl_crystal_description       block
_cell_formula_units_Z            4
loop_
_atom_site_label
_atom_site_type_symbol
_atom_site_fract_x
_atom_site_fract_y
_atom_site_fract_z
I1 I 0.3514(2) 0.27172(5) 0.11863(6)
I2 I 0.48657(10) 0.29089(4) 0.06868(4)
I3 I 0.6172(2) 0.31023(15) 0.01791(9)
I4 I 0.5000 0.06315(11) 0.2500
I5 I 0.4655(4) 0.00132(13) 0.22309(14)
I6 I 0.4319(12) -0.0585(2) 0.1914(4)
I5A I 0.5345(4) 0.00132(13) 0.27691(14)
I6A I 0.5681(12) -0.0585(2) 0.3086(4)
Cl1 Cl 0.1168(12) 0.4120(3) 0.1271(4)
Cl2 Cl 0.1682(12) 0.3610(3) 0.0825(3)
Cl3 Cl 0.2898(15) 0.3860(5) 0.1265(5)
C64 C 0.1970(17) 0.3996(6) 0.0967(8)
H61 H 0.2135 0.4153 0.0777
Cl4 Cl 0.2592(8) 0.0087(3) 0.2936(3)
Cl5 Cl 0.1504(6) 0.0439(2) 0.3393(3)
Cl6 Cl 0.1977(12) -0.0221(3) 0.3476(5)
C65 C 0.157(2) 0.0076(4) 0.3179(7)
H62 H 0.0977 0.0018 0.3028
Cl7 Cl 1.0681(8) 0.1321(4) 0.0687(4)
Cl8 Cl 0.8914(12) 0.1186(4) 0.1006(6)
Cl9 Cl 0.9971(12) 0.1690(6) 0.1211(6)
C66 C 0.9626(16) 0.1467(7) 0.0825(9)
H63 H 0.9270 0.1598 0.0633
Cl10 Cl 0.7663(7) 0.3348(3) 0.1029(3)
Cl11 Cl 0.9563(10) 0.3452(5) 0.1230(5)
Cl12 Cl 0.8314(12) 0.3547(5) 0.1729(5)
C67 C 0.8526(13) 0.3303(11) 0.1369(6)
H64 H 0.8597 0.3074 0.1445
Pd1 Pd 0.61564(8) 0.10630(3) 0.42851(3)
Pd2 Pd 0.5000 0.38161(4) 0.2500
N1 N 0.5282(8) 0.0681(3) 0.4131(3)
N2 N 0.4801(15) 0.3834(3) 0.3029(4)
N3 N 0.2985(8) 0.1429(3) 0.0502(3)
N4 N 0.5086(8) 0.1270(3) 0.4527(3)
N5 N 0.3569(16) 0.3834(4) 0.2365(4)
N6 N 0.2691(8) 0.0833(3) 0.0926(3)
O1 O 0.3945(7) 0.1251(2) 0.3118(2)
O2 O 0.4386(7) 0.1639(2) 0.3503(3)
O3 O 0.4037(9) 0.2734(2) 0.3058(3)
O4 O 0.3688(10) 0.2851(3) 0.2495(3)
O5 O 0.3036(7) 0.1949(2) 0.1654(2)
O6 O 0.3369(7) 0.1446(2) 0.1815(2)
O7 O 0.2332(8) 0.2172(3) 0.3622(3)
O8 O 0.1768(9) 0.2623(3) 0.3394(3)
O9 O 0.1121(10) 0.2614(3) 0.2079(4)
O10 O 0.0804(9) 0.2189(3) 0.1772(4)
O11 O 0.1426(13) 0.1165(3) 0.2434(4)
O12 O 0.1472(12) 0.1154(3) 0.3024(4)
C1 C 0.5261(13) 0.0438(4) 0.4383(5)
H1 H 0.5621 0.0463 0.4609
C2 C 0.4760(17) 0.0172(5) 0.4324(6)
H2 H 0.4746 0.0012 0.4506
C3 C 0.4259(17) 0.0131(5) 0.3991(6)
H3 H 0.3844 -0.0046 0.3943
C4 C 0.4390(17) 0.0366(4) 0.3725(5)
H4 H 0.4133 0.0330 0.3483
C5 C 0.4882(12) 0.0644(4) 0.3806(4)
C6 C 0.4908(12) 0.0893(4) 0.3516(4)
H5 H 0.5319 0.1074 0.3603
H6 H 0.5178 0.0800 0.3299
C7 C 0.3932(11) 0.1007(3) 0.3420(4)
H7 H 0.3671 0.1106 0.3635
H8 H 0.3516 0.0825 0.3341
C8 C 0.4134(8) 0.1543(3) 0.3206(4)
C9 C 0.3990(8) 0.1761(3) 0.2886(3)
C10 C 0.4068(8) 0.2078(3) 0.2942(3)
H9 H 0.4273 0.2155 0.3177
C11 C 0.460(2) 0.4138(5) 0.3171(6)
H10 H 0.4556 0.4321 0.3018
C12 C 0.447(3) 0.4166(6) 0.3542(8)
H11 H 0.4426 0.4375 0.3642
C13 C 0.439(3) 0.3918(5) 0.3758(7)
H12 H 0.4180 0.3944 0.3995
C14 C 0.462(3) 0.3624(5) 0.3634(6)
H13 H 0.4721 0.3449 0.3796
C15 C 0.472(2) 0.3583(4) 0.3255(5)
C16 C 0.4835(17) 0.3247(4) 0.3118(4)
H14 H 0.5365 0.3139 0.3261
H15 H 0.4980 0.3250 0.2861
C17 C 0.3878(16) 0.3071(3) 0.3161(5)
H16 H 0.3702 0.3084 0.3415
H17 H 0.3358 0.3167 0.3001
C18 C 0.3881(12) 0.2665(4) 0.2708(5)
C19 C 0.3855(8) 0.2297(3) 0.2662(3)
C20 C 0.3656(7) 0.2186(3) 0.2315(3)
H18 H 0.3564 0.2331 0.2118
C21 C 0.2545(12) 0.1383(4) 0.0197(4)
H19 H 0.2486 0.1173 0.0099
C22 C 0.2169(16) 0.1629(5) 0.0018(5)
H20 H 0.1928 0.1595 -0.0226
C23 C 0.2097(16) 0.1931(5) 0.0154(5)
H21 H 0.1815 0.2106 0.0022
C24 C 0.2459(11) 0.1950(4) 0.0485(4)
H22 H 0.2383 0.2147 0.0607
C25 C 0.2935(11) 0.1715(4) 0.0675(4)
C26 C 0.3408(9) 0.1768(3) 0.1049(3)
H23 H 0.3753 0.1571 0.1134
H24 H 0.3877 0.1944 0.1045
C27 C 0.2655(10) 0.1849(3) 0.1302(3)
H25 H 0.2247 0.2022 0.1193
H26 H 0.2245 0.1659 0.1329
C28 C 0.3312(9) 0.1724(4) 0.1900(4)
C29 C 0.3590(7) 0.1858(3) 0.2254(3)
C30 C 0.3801(8) 0.1652(3) 0.2540(3)
H27 H 0.3815 0.1428 0.2495
C31 C 0.4959(13) 0.1235(5) 0.4894(4)
H28 H 0.5420 0.1110 0.5033
C32 C 0.4281(14) 0.1355(5) 0.5063(5)
H29 H 0.4198 0.1305 0.5309
C33 C 0.3662(14) 0.1568(5) 0.4860(5)
H30 H 0.3198 0.1678 0.4987
C34 C 0.3674(12) 0.1626(4) 0.4503(5)
C35 C 0.4457(11) 0.1464(4) 0.4325(4)
H31 H 0.4523 0.1494 0.4074
C36 C 0.3043(13) 0.1800(4) 0.4287(4)
H32 H 0.2467 0.1841 0.4420
H33 H 0.2843 0.1672 0.4070
C37 C 0.3431(14) 0.2116(4) 0.4168(5)
H34 H 0.3706 0.2232 0.4385
H35 H 0.3959 0.2073 0.4011
C38 C 0.2733(17) 0.2328(5) 0.3969(6)
H36 H 0.3047 0.2532 0.3912
H37 H 0.2205 0.2376 0.4124
C39 C 0.1887(13) 0.2355(5) 0.3376(5)
C40 C 0.1586(9) 0.2148(4) 0.3063(5)
C41 C 0.1389(9) 0.2303(4) 0.2719(5)
H38 H 0.1405 0.2531 0.2712
C42 C 0.316(2) 0.4127(5) 0.2354(6)
H39 H 0.3515 0.4318 0.2407
C43 C 0.217(3) 0.4127(6) 0.2255(7)
H40 H 0.1875 0.4329 0.2207
C44 C 0.197(2) 0.3577(6) 0.2224(6)
C45 C 0.299(2) 0.3566(5) 0.2313(5)
H41 H 0.3286 0.3362 0.2337
C46 C 0.142(2) 0.3297(5) 0.2197(6)
H42 H 0.0732 0.3353 0.2203
H43 H 0.1593 0.3158 0.2409
C47 C 0.157(2) 0.3107(5) 0.1838(6)
H44 H 0.1412 0.3256 0.1635
H45 H 0.2265 0.3063 0.1839
C48 C 0.106(2) 0.2796(5) 0.1743(6)
H46 H 0.0388 0.2836 0.1656
H47 H 0.1382 0.2680 0.1552
C49 C 0.0992(11) 0.2320(6) 0.2066(7)
C50 C 0.1174(9) 0.2139(4) 0.2394(5)
C51 C 0.1182(9) 0.1822(4) 0.2418(4)
H48 H 0.1034 0.1706 0.2200
C52 C 0.2296(15) 0.0590(6) 0.0742(6)
H49 H 0.2566 0.0510 0.0531
C53 C 0.1453(17) 0.0449(6) 0.0867(7)
H50 H 0.1096 0.0301 0.0716
C54 C 0.1175(19) 0.0516(7) 0.1173(8)
H51 H 0.0621 0.0414 0.1251
C55 C 0.1688(15) 0.0751(5) 0.1414(5)
C56 C 0.2457(13) 0.0909(4) 0.1255(5)
H52 H 0.2807 0.1071 0.1387
C57 C 0.143(2) 0.0819(6) 0.1770(5)
H53 H 0.1388 0.1055 0.1787
H54 H 0.0767 0.0738 0.1781
C58 C 0.194(2) 0.0716(6) 0.2095(7)
H55 H 0.2609 0.0791 0.2096
H56 H 0.1950 0.0479 0.2100
C59 C 0.151(2) 0.0837(5) 0.2425(7)
H57 H 0.0869 0.0741 0.2437
H58 H 0.1911 0.0766 0.2642
C60 C 0.1413(15) 0.1308(5) 0.2749(7)
C61 C 0.1387(10) 0.1648(4) 0.2731(5)
C62 C 0.1582(10) 0.1806(4) 0.3070(5)
H59 H 0.1704 0.1690 0.3289
C63 C 0.153(3) 0.3846(6) 0.2220(7)
H60 H 0.0854 0.3863 0.2197
Pd1A Pd 0.38436(8) 0.10630(3) 0.07149(3)
N1A N 0.4718(8) 0.0681(3) 0.0869(3)
N2A N 0.5199(15) 0.3834(3) 0.1971(4)
N3A N 0.7015(8) 0.1429(3) 0.4498(3)
N4A N 0.4914(8) 0.1270(3) 0.0473(3)
N5A N 0.6431(16) 0.3834(4) 0.2635(4)
N6A N 0.7309(8) 0.0833(3) 0.4074(3)
O1A O 0.6055(7) 0.1251(2) 0.1882(2)
O2A O 0.5614(7) 0.1639(2) 0.1497(3)
O3A O 0.5963(9) 0.2734(2) 0.1942(3)
O4A O 0.6312(10) 0.2851(3) 0.2505(3)
O5A O 0.6964(7) 0.1949(2) 0.3346(2)
O6A O 0.6631(7) 0.1446(2) 0.3185(2)
O7A O 0.7668(8) 0.2172(3) 0.1378(3)
O8A O 0.8232(9) 0.2623(3) 0.1606(3)
O9A O 0.8879(10) 0.2614(3) 0.2921(4)
O10A O 0.9196(9) 0.2189(3) 0.3228(4)
O11A O 0.8574(13) 0.1165(3) 0.2566(4)
O12A O 0.8528(12) 0.1154(3) 0.1976(4)
C1A C 0.4739(13) 0.0438(4) 0.0617(5)
H1A H 0.4379 0.0463 0.0391
C2A C 0.5240(17) 0.0172(5) 0.0676(6)
H2A H 0.5254 0.0012 0.0494
C3A C 0.5741(17) 0.0131(5) 0.1009(6)
H3A H 0.6156 -0.0046 0.1057
C4A C 0.5610(17) 0.0366(4) 0.1275(5)
H4A H 0.5867 0.0330 0.1517
C5A C 0.5118(12) 0.0644(4) 0.1194(4)
C6A C 0.5092(12) 0.0893(4) 0.1484(4)
H5A H 0.4681 0.1074 0.1397
H6A H 0.4822 0.0800 0.1701
C7A C 0.6068(11) 0.1007(3) 0.1580(4)
H7A H 0.6329 0.1106 0.1365
H8A H 0.6484 0.0825 0.1659
C8A C 0.5866(8) 0.1543(3) 0.1794(4)
C9A C 0.6010(8) 0.1761(3) 0.2114(3)
C10A C 0.5932(8) 0.2078(3) 0.2058(3)
H9A H 0.5727 0.2155 0.1823
C11A C 0.540(2) 0.4138(5) 0.1829(6)
H10A H 0.5444 0.4321 0.1982
C12A C 0.553(3) 0.4166(6) 0.1458(8)
H11A H 0.5574 0.4375 0.1358
C13A C 0.561(3) 0.3918(5) 0.1242(7)
H12A H 0.5820 0.3944 0.1005
C14A C 0.538(3) 0.3624(5) 0.1366(6)
H13A H 0.5279 0.3449 0.1204
C15A C 0.528(2) 0.3583(4) 0.1745(5)
C16A C 0.5165(17) 0.3247(4) 0.1882(4)
H14A H 0.4635 0.3139 0.1739
H15A H 0.5020 0.3250 0.2139
C17A C 0.6122(16) 0.3071(3) 0.1839(5)
H16A H 0.6298 0.3084 0.1585
H17A H 0.6642 0.3167 0.1999
C18A C 0.6119(12) 0.2665(4) 0.2292(5)
C19A C 0.6145(8) 0.2297(3) 0.2338(3)
C20A C 0.6344(7) 0.2186(3) 0.2685(3)
H18A H 0.6436 0.2331 0.2882
C21A C 0.7455(12) 0.1383(4) 0.4803(4)
H19A H 0.7514 0.1173 0.4901
C22A C 0.7831(16) 0.1629(5) 0.4982(5)
H20A H 0.8072 0.1595 0.5226
C23A C 0.7903(16) 0.1931(5) 0.4846(5)
H21A H 0.8185 0.2106 0.4978
C24A C 0.7541(11) 0.1950(4) 0.4515(4)
H22A H 0.7617 0.2147 0.4393
C25A C 0.7065(11) 0.1715(4) 0.4325(4)
C26A C 0.6592(9) 0.1768(3) 0.3951(3)
H23A H 0.6247 0.1571 0.3866
H24A H 0.6123 0.1944 0.3955
C27A C 0.7345(10) 0.1849(3) 0.3698(3)
H25A H 0.7753 0.2022 0.3807
H26A H 0.7755 0.1659 0.3671
C28A C 0.6688(9) 0.1724(4) 0.3100(4)
C29A C 0.6410(7) 0.1858(3) 0.2746(3)
C30A C 0.6199(8) 0.1652(3) 0.2460(3)
H27A H 0.6185 0.1428 0.2505
C31A C 0.5041(13) 0.1235(5) 0.0106(4)
H28A H 0.4580 0.1110 -0.0033
C32A C 0.5719(14) 0.1355(5) -0.0063(5)
H29A H 0.5802 0.1305 -0.0309
C33A C 0.6338(14) 0.1568(5) 0.0140(5)
H30A H 0.6802 0.1678 0.0013
C34A C 0.6326(12) 0.1626(4) 0.0497(5)
C35A C 0.5543(11) 0.1464(4) 0.0675(4)
H31A H 0.5477 0.1494 0.0926
C36A C 0.6957(13) 0.1800(4) 0.0713(4)
H32A H 0.7533 0.1841 0.0580
H33A H 0.7157 0.1672 0.0930
C37A C 0.6569(14) 0.2116(4) 0.0832(5)
H34A H 0.6294 0.2232 0.0615
H35A H 0.6041 0.2073 0.0989
C38A C 0.7267(17) 0.2328(5) 0.1031(6)
H36A H 0.6953 0.2532 0.1088
H37A H 0.7795 0.2376 0.0876
C39A C 0.8113(13) 0.2355(5) 0.1624(5)
C40A C 0.8414(9) 0.2148(4) 0.1937(5)
C41A C 0.8611(9) 0.2303(4) 0.2281(5)
H38A H 0.8595 0.2531 0.2288
C42A C 0.684(2) 0.4127(5) 0.2646(6)
H39A H 0.6485 0.4318 0.2593
C43A C 0.783(3) 0.4127(6) 0.2745(7)
H40A H 0.8125 0.4329 0.2793
C44A C 0.803(2) 0.3577(6) 0.2776(6)
C45A C 0.701(2) 0.3566(5) 0.2687(5)
H41A H 0.6714 0.3362 0.2663
C46A C 0.858(2) 0.3297(5) 0.2803(6)
H42A H 0.9268 0.3353 0.2797
H43A H 0.8407 0.3158 0.2591
C47A C 0.843(2) 0.3107(5) 0.3162(6)
H44A H 0.8588 0.3256 0.3365
H45A H 0.7735 0.3063 0.3161
C48A C 0.894(2) 0.2796(5) 0.3257(6)
H46A H 0.9612 0.2836 0.3344
H47A H 0.8618 0.2680 0.3448
C49A C 0.9008(11) 0.2320(6) 0.2934(7)
C50A C 0.8826(9) 0.2139(4) 0.2606(5)
C51A C 0.8818(9) 0.1822(4) 0.2582(4)
H48A H 0.8966 0.1706 0.2800
C52A C 0.7704(15) 0.0590(6) 0.4258(6)
H49A H 0.7434 0.0510 0.4469
C53A C 0.8547(17) 0.0449(6) 0.4133(7)
H50A H 0.8904 0.0301 0.4284
C54A C 0.8825(19) 0.0516(7) 0.3827(8)
H51A H 0.9379 0.0414 0.3749
C55A C 0.8312(15) 0.0751(5) 0.3586(5)
C56A C 0.7543(13) 0.0909(4) 0.3745(5)
H52A H 0.7193 0.1071 0.3613
C57A C 0.857(2) 0.0819(6) 0.3230(5)
H53A H 0.8612 0.1055 0.3213
H54A H 0.9233 0.0738 0.3219
C58A C 0.806(2) 0.0716(6) 0.2905(7)
H55A H 0.7391 0.0791 0.2904
H56A H 0.8050 0.0479 0.2900
C59A C 0.849(2) 0.0837(5) 0.2575(7)
H57A H 0.9131 0.0741 0.2563
H58A H 0.8089 0.0766 0.2358
C60A C 0.8587(15) 0.1308(5) 0.2251(7)
C61A C 0.8613(10) 0.1648(4) 0.2269(5)
C62A C 0.8418(10) 0.1806(4) 0.1930(5)
H59A H 0.8296 0.1690 0.1711
C63A C 0.847(3) 0.3846(6) 0.2780(7)
H60A H 0.9146 0.3863 0.2803
loop_
_geom_bond_atom_site_label_1
_geom_bond_atom_site_label_2
_geom_bond_site_symmetry_1
_geom_bond_site_symmetry_2
Pd1 N1 1_555 1_555
Pd2 N2 1_555 1_555
N1 C1 1_555 1_555
N2 C11 1_555 1_555
N3 C21 1_555 1_555
N4 Pd1 1_555 1_555
N5 Pd2 1_555 1_555
N6 C52 1_555 1_555
O1 C7 1_555 1_555
O2 C8 1_555 1_555
O3 C17 1_555 1_555
O4 C18 1_555 1_555
O5 C27 1_555 1_555
O6 C28 1_555 1_555
O7 C38 1_555 1_555
O8 C39 1_555 1_555
O9 C48 1_555 1_555
O10 C49 1_555 1_555
O11 C59 1_555 1_555
O12 C60 1_555 1_555
C1 H1 1_555 1_555
C2 C1 1_555 1_555
H2 C2 1_555 1_555
C3 C2 1_555 1_555
H3 C3 1_555 1_555
C4 C3 1_555 1_555
H4 C4 1_555 1_555
C5 N1 1_555 1_555
C6 C5 1_555 1_555
H5 C6 1_555 1_555
H6 C6 1_555 1_555
C7 C6 1_555 1_555
H7 C7 1_555 1_555
H8 C7 1_555 1_555
C8 O1 1_555 1_555
C9 C8 1_555 1_555
C10 C9 1_555 1_555
H9 C10 1_555 1_555
C11 H10 1_555 1_555
C12 C11 1_555 1_555
H11 C12 1_555 1_555
C13 C12 1_555 1_555
H12 C13 1_555 1_555
C14 C13 1_555 1_555
H13 C14 1_555 1_555
C15 N2 1_555 1_555
C16 C15 1_555 1_555
H14 C16 1_555 1_555
H15 C16 1_555 1_555
C17 C16 1_555 1_555
H16 C17 1_555 1_555
H17 C17 1_555 1_555
C18 O3 1_555 1_555
C19 C10 1_555 1_555
C20 C19 1_555 1_555
H18 C20 1_555 1_555
C21 H19 1_555 1_555
C22 C21 1_555 1_555
H20 C22 1_555 1_555
C23 C22 1_555 1_555
H21 C23 1_555 1_555
C24 C23 1_555 1_555
H22 C24 1_555 1_555
C25 N3 1_555 1_555
C26 C25 1_555 1_555
H23 C26 1_555 1_555
H24 C26 1_555 1_555
C27 C26 1_555 1_555
H25 C27 1_555 1_555
H26 C27 1_555 1_555
C28 O5 1_555 1_555
C29 C20 1_555 1_555
C30 C9 1_555 1_555
H27 C30 1_555 1_555
C31 N4 1_555 1_555
H28 C31 1_555 1_555
C32 C31 1_555 1_555
H29 C32 1_555 1_555
C33 C32 1_555 1_555
H30 C33 1_555 1_555
C34 C33 1_555 1_555
C35 N4 1_555 1_555
H31 C35 1_555 1_555
C36 C34 1_555 1_555
H32 C36 1_555 1_555
H33 C36 1_555 1_555
C37 C36 1_555 1_555
H34 C37 1_555 1_555
H35 C37 1_555 1_555
C38 C37 1_555 1_555
H36 C38 1_555 1_555
H37 C38 1_555 1_555
C39 O7 1_555 1_555
C40 C39 1_555 1_555
C41 C40 1_555 1_555
H38 C41 1_555 1_555
C42 N5 1_555 1_555
H39 C42 1_555 1_555
C43 C42 1_555 1_555
H40 C43 1_555 1_555
C44 C45 1_555 1_555
C45 N5 1_555 1_555
H41 C45 1_555 1_555
C46 C44 1_555 1_555
H42 C46 1_555 1_555
H43 C46 1_555 1_555
C47 C46 1_555 1_555
H44 C47 1_555 1_555
H45 C47 1_555 1_555
C48 C47 1_555 1_555
H46 C48 1_555 1_555
H47 C48 1_555 1_555
C49 O9 1_555 1_555
C50 C41 1_555 1_555
C51 C50 1_555 1_555
H48 C51 1_555 1_555
C52 H49 1_555 1_555
C53 C52 1_555 1_555
H50 C53 1_555 1_555
C54 C53 1_555 1_555
H51 C54 1_555 1_555
C55 C54 1_555 1_555
C56 N6 1_555 1_555
H52 C56 1_555 1_555
C57 C55 1_555 1_555
H53 C57 1_555 1_555
H54 C57 1_555 1_555
C58 C57 1_555 1_555
H55 C58 1_555 1_555
H56 C58 1_555 1_555
C59 C58 1_555 1_555
H57 C59 1_555 1_555
H58 C59 1_555 1_555
C60 O11 1_555 1_555
C61 C51 1_555 1_555
C62 C40 1_555 1_555
H59 C62 1_555 1_555
C63 C43 1_555 1_555
H60 C63 1_555 1_555
I1 I2 1_555 1_555
I2 I3 1_555 1_555
I4 I5 1_555 1_555
I5 I6 1_555 1_555
Cl1 C64 1_555 1_555
Cl2 C64 1_555 1_555
Cl3 C64 1_555 1_555
C64 H61 1_555 1_555
Cl4 C65 1_555 1_555
Cl5 C65 1_555 1_555
Cl6 C65 1_555 1_555
C65 H62 1_555 1_555
Cl7 C66 1_555 1_555
Cl8 C66 1_555 1_555
Cl9 C66 1_555 1_555
C66 H63 1_555 1_555
Cl10 C67 1_555 1_555
Cl11 C67 1_555 1_555
Cl12 C67 1_555 1_555
C67 H64 1_555 1_555
Pd1A N3 1_555 1_555
N1A Pd1A 1_555 1_555
N2A Pd2 1_555 1_555
N3A Pd1 1_555 1_555
N4A Pd1A 1_555 1_555
N5A Pd2 1_555 1_555
N6A Pd1 1_555 1_555
O1A C7A 1_555 1_555
O2A C8A 1_555 1_555
O3A C17A 1_555 1_555
O4A C18A 1_555 1_555
O5A C27A 1_555 1_555
O6A C28A 1_555 1_555
O7A C38A 1_555 1_555
O8A C39A 1_555 1_555
O9A C48A 1_555 1_555
O10A C49A 1_555 1_555
O11A C59A 1_555 1_555
O12A C60A 1_555 1_555
C1A N1A 1_555 1_555
H1A C1A 1_555 1_555
C2A C1A 1_555 1_555
H2A C2A 1_555 1_555
C3A C2A 1_555 1_555
H3A C3A 1_555 1_555
C4A C3A 1_555 1_555
H4A C4A 1_555 1_555
C5A N1A 1_555 1_555
C6A C5A 1_555 1_555
H5A C6A 1_555 1_555
H6A C6A 1_555 1_555
C7A C6A 1_555 1_555
H7A C7A 1_555 1_555
H8A C7A 1_555 1_555
C8A O1A 1_555 1_555
C9A C8A 1_555 1_555
C10A C9A 1_555 1_555
H9A C10A 1_555 1_555
C11A N2A 1_555 1_555
H10A C11A 1_555 1_555
C12A C11A 1_555 1_555
H11A C12A 1_555 1_555
C13A C12A 1_555 1_555
H12A C13A 1_555 1_555
C14A C13A 1_555 1_555
H13A C14A 1_555 1_555
C15A N2A 1_555 1_555
C16A C15A 1_555 1_555
H14A C16A 1_555 1_555
H15A C16A 1_555 1_555
C17A C16A 1_555 1_555
H16A C17A 1_555 1_555
H17A C17A 1_555 1_555
C18A O3A 1_555 1_555
C19A C10A 1_555 1_555
C20A C19A 1_555 1_555
H18A C20A 1_555 1_555
C21A N3A 1_555 1_555
H19A C21A 1_555 1_555
C22A C21A 1_555 1_555
H20A C22A 1_555 1_555
C23A C22A 1_555 1_555
H21A C23A 1_555 1_555
C24A C23A 1_555 1_555
H22A C24A 1_555 1_555
C25A N3A 1_555 1_555
C26A C25A 1_555 1_555
H23A C26A 1_555 1_555
H24A C26A 1_555 1_555
C27A C26A 1_555 1_555
H25A C27A 1_555 1_555
H26A C27A 1_555 1_555
C28A O5A 1_555 1_555
C29A C20A 1_555 1_555
C30A C9A 1_555 1_555
H27A C30A 1_555 1_555
C31A N4A 1_555 1_555
H28A C31A 1_555 1_555
C32A C31A 1_555 1_555
H29A C32A 1_555 1_555
C33A C32A 1_555 1_555
H30A C33A 1_555 1_555
C34A C33A 1_555 1_555
C35A N4A 1_555 1_555
H31A C35A 1_555 1_555
C36A C34A 1_555 1_555
H32A C36A 1_555 1_555
H33A C36A 1_555 1_555
C37A C36A 1_555 1_555
H34A C37A 1_555 1_555
H35A C37A 1_555 1_555
C38A C37A 1_555 1_555
H36A C38A 1_555 1_555
H37A C38A 1_555 1_555
C39A O7A 1_555 1_555
C40A C39A 1_555 1_555
C41A C40A 1_555 1_555
H38A C41A 1_555 1_555
C42A N5A 1_555 1_555
H39A C42A 1_555 1_555
C43A C42A 1_555 1_555
H40A C43A 1_555 1_555
C44A C45A 1_555 1_555
C45A N5A 1_555 1_555
H41A C45A 1_555 1_555
C46A C44A 1_555 1_555
H42A C46A 1_555 1_555
H43A C46A 1_555 1_555
C47A C46A 1_555 1_555
H44A C47A 1_555 1_555
H45A C47A 1_555 1_555
C48A C47A 1_555 1_555
H46A C48A 1_555 1_555
H47A C48A 1_555 1_555
C49A O9A 1_555 1_555
C50A C41A 1_555 1_555
C51A C50A 1_555 1_555
H48A C51A 1_555 1_555
C52A N6A 1_555 1_555
H49A C52A 1_555 1_555
C53A C52A 1_555 1_555
H50A C53A 1_555 1_555
C54A C53A 1_555 1_555
H51A C54A 1_555 1_555
C55A C54A 1_555 1_555
C56A N6A 1_555 1_555
H52A C56A 1_555 1_555
C57A C55A 1_555 1_555
H53A C57A 1_555 1_555
H54A C57A 1_555 1_555
C58A C57A 1_555 1_555
H55A C58A 1_555 1_555
H56A C58A 1_555 1_555
C59A C58A 1_555 1_555
H57A C59A 1_555 1_555
H58A C59A 1_555 1_555
C60A O11A 1_555 1_555
C61A C51A 1_555 1_555
C62A C40A 1_555 1_555
H59A C62A 1_555 1_555
C63A C43A 1_555 1_555
H60A C63A 1_555 1_555
I5A I4 1_555 1_555
I6A I5A 1_555 1_555
N6 Pd1A 1_555 1_555
C4 C5 1_555 1_555
C14 C15 1_555 1_555
C18 C19 1_555 1_555
C24 C25 1_555 1_555
C28 C29 1_555 1_555
C29 C30 1_555 1_555
C34 C35 1_555 1_555
C44 C63 1_555 1_555
C49 C50 1_555 1_555
C55 C56 1_555 1_555
C60 C61 1_555 1_555
C61 C62 1_555 1_555
I5 I5A 1_555 1_555
C4A C5A 1_555 1_555
C14A C15A 1_555 1_555
C18A C19A 1_555 1_555
C24A C25A 1_555 1_555
C28A C29A 1_555 1_555
C29A C30A 1_555 1_555
C34A C35A 1_555 1_555
C44A C63A 1_555 1_555
C49A C50A 1_555 1_555
C55A C56A 1_555 1_555
C60A C61A 1_555 1_555
C61A C62A 1_555 1_555

#END
