# generated using pymatgen
data_H208Pd3C146S16N18O55
_symmetry_space_group_name_H-M   'P 1'
_cell_length_a   21.40425461
_cell_length_b   21.40425461
_cell_length_c   24.32230000
_cell_angle_alpha   97.88690340
_cell_angle_beta   97.88690340
_cell_angle_gamma   118.51462258
_symmetry_Int_Tables_number   1
_chemical_formula_structural   H208Pd3C146S16N18O55
_chemical_formula_sum   'H416 Pd6 C292 S32 N36 O110'
_cell_volume   9432.00612664
_cell_formula_units_Z   2
loop_
 _symmetry_equiv_pos_site_id
 _symmetry_equiv_pos_as_xyz
  1  'x, y, z'
loop_
 _atom_site_type_symbol
 _atom_site_label
 _atom_site_symmetry_multiplicity
 _atom_site_fract_x
 _atom_site_fract_y
 _atom_site_fract_z
 _atom_site_occupancy
  C  C1  1  0.716170  0.546230  0.497000  1
  C  C2  1  0.453770  0.283830  0.003000  1
  C  C3  1  0.283830  0.453770  0.503000  1
  C  C4  1  0.546230  0.716170  0.997000  1
  C  C5  1  0.658390  0.435410  0.406000  1
  C  C6  1  0.564590  0.341610  0.094000  1
  C  C7  1  0.341610  0.564590  0.594000  1
  C  C8  1  0.435410  0.658390  0.906000  1
  C  C9  1  0.749100  0.459300  0.174800  1
  C  C10  1  0.540700  0.250900  0.325200  1
  C  C11  1  0.250900  0.540700  0.825200  1
  C  C12  1  0.459300  0.749100  0.674800  1
  C  C13  1  0.853060  0.469940  0.123800  1
  C  C14  1  0.530060  0.146940  0.376200  1
  C  C15  1  0.146940  0.530060  0.876200  1
  C  C16  1  0.469940  0.853060  0.623800  1
  C  C17  1  0.927100  0.259300  0.224900  1
  C  C18  1  0.740700  0.072900  0.275100  1
  C  C19  1  0.072900  0.740700  0.775100  1
  C  C20  1  0.259300  0.927100  0.724900  1
  C  C21  1  0.870700  0.280700  0.127300  1
  C  C22  1  0.719300  0.129300  0.372700  1
  C  C23  1  0.129300  0.719300  0.872700  1
  C  C24  1  0.280700  0.870700  0.627300  1
  C  C25  1  0.531960  0.698640  0.492500  1
  C  C26  1  0.301360  0.468040  0.007500  1
  C  C27  1  0.468040  0.301360  0.507500  1
  C  C28  1  0.698640  0.531960  0.992500  1
  C  C29  1  0.561830  0.591970  0.467100  1
  C  C30  1  0.408030  0.438170  0.032900  1
  C  C31  1  0.438170  0.408030  0.532900  1
  C  C32  1  0.591970  0.561830  0.967100  1
  C  C33  1  0.874400  0.937400  0.625200  1
  C  C34  1  0.062600  0.125600  0.874800  1
  C  C35  1  0.125600  0.062600  0.374800  1
  C  C36  1  0.937400  0.874400  0.125200  1
  C  C37  1  0.998300  0.957100  0.672700  1
  C  C38  1  0.042900  0.001700  0.827300  1
  C  C39  1  0.001700  0.042900  0.327300  1
  C  C40  1  0.957100  0.998300  0.172700  1
  C  C41  1  0.530800  0.191000  0.168000  1.0
  C  C42  1  0.809000  0.469200  0.332000  1.0
  C  C43  1  0.469200  0.809000  0.832000  1.0
  C  C44  1  0.191000  0.530800  0.668000  1.0
  C  C45  1  0.603330  0.217870  0.174700  1.0
  C  C46  1  0.782130  0.396670  0.325300  1.0
  C  C47  1  0.396670  0.782130  0.825300  1.0
  C  C48  1  0.217870  0.603330  0.674700  1.0
  C  C49  1  0.630490  0.171110  0.180100  1.0
  C  C50  1  0.828890  0.369510  0.319900  1.0
  C  C51  1  0.369510  0.828890  0.819900  1.0
  C  C52  1  0.171110  0.630490  0.680100  1.0
  C  C53  1  0.582890  0.099710  0.181500  1.0
  C  C54  1  0.900290  0.417110  0.318500  1.0
  C  C55  1  0.417110  0.900290  0.818500  1.0
  C  C56  1  0.099710  0.582890  0.681500  1.0
  C  C57  1  0.508680  0.074520  0.175490  1.0
  C  C58  1  0.925480  0.491320  0.324510  1.0
  C  C59  1  0.491320  0.925480  0.824510  1.0
  C  C60  1  0.074520  0.508680  0.675490  1.0
  C  C61  1  0.457980  0.999620  0.181580  1.0
  C  C62  1  0.000380  0.542020  0.318420  1.0
  C  C63  1  0.542020  0.000380  0.818420  1.0
  C  C64  1  0.999620  0.457980  0.681580  1.0
  C  C65  1  0.488400  0.988400  0.237400  1.0
  C  C66  1  0.011600  0.511600  0.262600  1.0
  C  C67  1  0.511600  0.011600  0.762600  1.0
  C  C68  1  0.988400  0.488400  0.737400  1.0
  C  C69  1  0.386000  0.922600  0.274540  1.0
  C  C70  1  0.077400  0.614000  0.225460  1.0
  C  C71  1  0.614000  0.077400  0.725460  1.0
  C  C72  1  0.922600  0.386000  0.774540  1.0
  C  C73  1  0.344070  0.855250  0.295320  1.0
  C  C74  1  0.144750  0.655930  0.204680  1.0
  C  C75  1  0.655930  0.144750  0.704680  1.0
  C  C76  1  0.855250  0.344070  0.795320  1.0
  C  C77  1  0.366450  0.804410  0.297470  1.0
  C  C78  1  0.195590  0.633550  0.202530  1.0
  C  C79  1  0.633550  0.195590  0.702530  1.0
  C  C80  1  0.804410  0.366450  0.797470  1.0
  C  C81  1  0.441530  0.447670  0.332020  1.0
  C  C82  1  0.552330  0.558470  0.167980  1.0
  C  C83  1  0.558470  0.552330  0.667980  1.0
  C  C84  1  0.447670  0.441530  0.832020  1.0
  C  C85  1  0.406830  0.401570  0.366400  1.0
  C  C86  1  0.598430  0.593170  0.133600  1.0
  C  C87  1  0.593170  0.598430  0.633600  1.0
  C  C88  1  0.401570  0.406830  0.866400  1.0
  C  C89  1  0.345270  0.397330  0.379400  1.0
  C  C90  1  0.602670  0.654730  0.120600  1.0
  C  C91  1  0.654730  0.602670  0.620600  1.0
  C  C92  1  0.397330  0.345270  0.879400  1.0
  C  C93  1  0.319720  0.439680  0.358950  1.0
  C  C94  1  0.560320  0.680280  0.141050  1.0
  C  C95  1  0.680280  0.560320  0.641050  1.0
  C  C96  1  0.439680  0.319720  0.858950  1.0
  C  C97  1  0.356230  0.486390  0.325540  1.0
  C  C98  1  0.513610  0.643770  0.174460  1.0
  C  C99  1  0.643770  0.513610  0.674460  1.0
  C  C100  1  0.486390  0.356230  0.825540  1.0
  C  C101  1  0.331040  0.536360  0.307370  1.0
  C  C102  1  0.463640  0.668960  0.192630  1.0
  C  C103  1  0.668960  0.463640  0.692630  1.0
  C  C104  1  0.536360  0.331040  0.807370  1.0
  C  C105  1  0.341490  0.590510  0.359360  1.0
  C  C106  1  0.409490  0.658510  0.140640  1.0
  C  C107  1  0.658510  0.409490  0.640640  1.0
  C  C108  1  0.590510  0.341490  0.859360  1.0
  C  C109  1  0.357840  0.694900  0.325460  1.0
  C  C110  1  0.305100  0.642160  0.174540  1.0
  C  C111  1  0.642160  0.305100  0.674540  1.0
  C  C112  1  0.694900  0.357840  0.825460  1.0
  C  C113  1  0.329000  0.745220  0.319990  1.0
  C  C114  1  0.254780  0.671000  0.180010  1.0
  C  C115  1  0.671000  0.254780  0.680010  1.0
  C  C116  1  0.745220  0.329000  0.819990  1.0
  C  C117  1  0.267670  0.735670  0.340120  1.0
  C  C118  1  0.264330  0.732330  0.159880  1.0
  C  C119  1  0.732330  0.264330  0.659880  1.0
  C  C120  1  0.735670  0.267670  0.840120  1.0
  C  C121  1  0.885220  0.730780  0.424400  1.0
  C  C122  1  0.269220  0.114780  0.075600  1.0
  C  C123  1  0.114780  0.269220  0.575600  1.0
  C  C124  1  0.730780  0.885220  0.924400  1.0
  C  C125  1  0.889910  0.795490  0.447300  1.0
  C  C126  1  0.204510  0.110090  0.052700  1.0
  C  C127  1  0.110090  0.204510  0.552700  1.0
  C  C128  1  0.795490  0.889910  0.947300  1.0
  C  C129  1  0.945730  0.860270  0.440200  1.0
  C  C130  1  0.139730  0.054270  0.059800  1.0
  C  C131  1  0.054270  0.139730  0.559800  1.0
  C  C132  1  0.860270  0.945730  0.940200  1.0
  C  C133  1  0.994100  0.856500  0.410300  1.0
  C  C134  1  0.143500  0.005900  0.089700  1.0
  C  C135  1  0.005900  0.143500  0.589700  1.0
  C  C136  1  0.856500  0.994100  0.910300  1.0
  C  C137  1  0.988720  0.790280  0.389100  1.0
  C  C138  1  0.209720  0.011280  0.110900  1.0
  C  C139  1  0.011280  0.209720  0.610900  1.0
  C  C140  1  0.790280  0.988720  0.889100  1.0
  C  C141  1  0.045340  0.787460  0.359900  1.0
  C  C142  1  0.212540  0.954660  0.140100  1.0
  C  C143  1  0.954660  0.212540  0.640100  1.0
  C  C144  1  0.787460  0.045340  0.859900  1.0
  C  C145  1  0.119790  0.832810  0.398900  1.0
  C  C146  1  0.167190  0.880210  0.101100  1.0
  C  C147  1  0.880210  0.167190  0.601100  1.0
  C  C148  1  0.832810  0.119790  0.898900  1.0
  C  C149  1  0.183180  0.776220  0.363490  1.0
  C  C150  1  0.223780  0.816820  0.136510  1.0
  C  C151  1  0.816820  0.223780  0.636510  1.0
  C  C152  1  0.776220  0.183180  0.863490  1.0
  C  C153  1  0.245990  0.786630  0.338600  1.0
  C  C154  1  0.213370  0.754010  0.161400  1.0
  C  C155  1  0.754010  0.213370  0.661400  1.0
  C  C156  1  0.786630  0.245990  0.838600  1.0
  C  C157  1  0.283660  0.846700  0.316220  1.0
  C  C158  1  0.153300  0.716340  0.183780  1.0
  C  C159  1  0.716340  0.153300  0.683780  1.0
  C  C160  1  0.846700  0.283660  0.816220  1.0
  C  C161  1  0.410390  0.086010  0.026600  1.0
  C  C162  1  0.913990  0.589610  0.473400  1.0
  C  C163  1  0.589610  0.913990  0.973400  1.0
  C  C164  1  0.086010  0.410390  0.526600  1.0
  C  C165  1  0.416180  0.057020  0.974800  1.0
  C  C166  1  0.942980  0.583820  0.525200  1.0
  C  C167  1  0.583820  0.942980  0.025200  1.0
  C  C168  1  0.057020  0.416180  0.474800  1.0
  C  C169  1  0.389930  0.984070  0.958100  1.0
  C  C170  1  0.015930  0.610070  0.541900  1.0
  C  C171  1  0.610070  0.015930  0.041900  1.0
  C  C172  1  0.984070  0.389930  0.458100  1.0
  C  C173  1  0.357640  0.938160  0.993300  1.0
  C  C174  1  0.061840  0.642360  0.506700  1.0
  C  C175  1  0.642360  0.061840  0.006700  1.0
  C  C176  1  0.938160  0.357640  0.493300  1.0
  C  C177  1  0.353350  0.970250  0.045200  1.0
  C  C178  1  0.029750  0.646650  0.454800  1.0
  C  C179  1  0.646650  0.029750  0.954800  1.0
  C  C180  1  0.970250  0.353350  0.545200  1.0
  C  C181  1  0.327740  0.856660  0.978300  1.0
  C  C182  1  0.143340  0.672260  0.521700  1.0
  C  C183  1  0.672260  0.143340  0.021700  1.0
  C  C184  1  0.856660  0.327740  0.478300  1.0
  C  C185  1  0.374200  0.834600  0.012200  1.0
  C  C186  1  0.165400  0.625800  0.487800  1.0
  C  C187  1  0.625800  0.165400  0.987800  1.0
  C  C188  1  0.834600  0.374200  0.512200  1.0
  C  C189  1  0.346260  0.752940  0.998400  1.0
  C  C190  1  0.247060  0.653740  0.501600  1.0
  C  C191  1  0.653740  0.247060  0.001600  1.0
  C  C192  1  0.752940  0.346260  0.498400  1.0
  C  C193  1  0.246470  0.649130  0.015300  1.0
  C  C194  1  0.350870  0.753530  0.484700  1.0
  C  C195  1  0.753530  0.350870  0.984700  1.0
  C  C196  1  0.649130  0.246470  0.515300  1.0
  C  C197  1  0.171600  0.620000  0.027400  1.0
  C  C198  1  0.380000  0.828400  0.472600  1.0
  C  C199  1  0.828400  0.380000  0.972600  1.0
  C  C200  1  0.620000  0.171600  0.527400  1.0
  C  C201  1  0.146040  0.559760  0.051850  1.0
  C  C202  1  0.440240  0.853960  0.448150  1.0
  C  C203  1  0.853960  0.440240  0.948150  1.0
  C  C204  1  0.559760  0.146040  0.551850  1.0
  C  C205  1  0.385430  0.388970  0.178400  1.0
  C  C206  1  0.611030  0.614570  0.321600  1.0
  C  C207  1  0.614570  0.611030  0.821600  1.0
  C  C208  1  0.388970  0.385430  0.678400  1.0
  C  C209  1  0.329150  0.325650  0.144100  1.0
  C  C210  1  0.674350  0.670850  0.355900  1.0
  C  C211  1  0.670850  0.674350  0.855900  1.0
  C  C212  1  0.325650  0.329150  0.644100  1.0
  C  C213  1  0.263200  0.321000  0.122490  1.0
  C  C214  1  0.679000  0.736800  0.377510  1.0
  C  C215  1  0.736800  0.679000  0.877510  1.0
  C  C216  1  0.321000  0.263200  0.622490  1.0
  C  C217  1  0.255960  0.382040  0.135740  1.0
  C  C218  1  0.617960  0.744040  0.364260  1.0
  C  C219  1  0.744040  0.617960  0.864260  1.0
  C  C220  1  0.382040  0.255960  0.635740  1.0
  C  C221  1  0.316520  0.445480  0.170640  1.0
  C  C222  1  0.554520  0.683480  0.329360  1.0
  C  C223  1  0.683480  0.554520  0.829360  1.0
  C  C224  1  0.445480  0.316520  0.670640  1.0
  C  C225  1  0.186420  0.381380  0.114900  1.0
  C  C226  1  0.618620  0.813580  0.385100  1.0
  C  C227  1  0.813580  0.618620  0.885100  1.0
  C  C228  1  0.381380  0.186420  0.614900  1.0
  C  C229  1  0.151730  0.393870  0.162900  1.0
  C  C230  1  0.606130  0.848270  0.337100  1.0
  C  C231  1  0.848270  0.606130  0.837100  1.0
  C  C232  1  0.393870  0.151730  0.662900  1.0
  C  C233  1  0.082620  0.394980  0.142200  1.0
  C  C234  1  0.605020  0.917380  0.357800  1.0
  C  C235  1  0.917380  0.605020  0.857800  1.0
  C  C236  1  0.394980  0.082620  0.642200  1.0
  C  C237  1  0.054910  0.476090  0.100700  1.0
  C  C238  1  0.523910  0.945090  0.399300  1.0
  C  C239  1  0.945090  0.523910  0.899300  1.0
  C  C240  1  0.476090  0.054910  0.600700  1.0
  C  C241  1  0.081290  0.535530  0.069770  1.0
  C  C242  1  0.464470  0.918710  0.430230  1.0
  C  C243  1  0.918710  0.464470  0.930230  1.0
  C  C244  1  0.535530  0.081290  0.569770  1.0
  C  C245  1  0.041110  0.570690  0.061470  1.0
  C  C246  1  0.429310  0.958890  0.438530  1.0
  C  C247  1  0.958890  0.429310  0.938530  1.0
  C  C248  1  0.570690  0.041110  0.561470  1.0
  C  C249  1  0.796890  0.622310  0.279000  1.0
  C  C250  1  0.377690  0.203110  0.221000  1.0
  C  C251  1  0.203110  0.377690  0.721000  1.0
  C  C252  1  0.622310  0.796890  0.779000  1.0
  C  C253  1  0.767880  0.637720  0.232100  1.0
  C  C254  1  0.362280  0.232120  0.267900  1.0
  C  C255  1  0.232120  0.362280  0.767900  1.0
  C  C256  1  0.637720  0.767880  0.732100  1.0
  C  C257  1  0.806460  0.659740  0.190800  1.0
  C  C258  1  0.340260  0.193540  0.309200  1.0
  C  C259  1  0.193540  0.340260  0.809200  1.0
  C  C260  1  0.659740  0.806460  0.690800  1.0
  C  C261  1  0.875590  0.667810  0.197400  1.0
  C  C262  1  0.332190  0.124410  0.302600  1.0
  C  C263  1  0.124410  0.332190  0.802600  1.0
  C  C264  1  0.667810  0.875590  0.697400  1.0
  C  C265  1  0.901670  0.653730  0.246990  1.0
  C  C266  1  0.346270  0.098330  0.253010  1.0
  C  C267  1  0.098330  0.346270  0.753010  1.0
  C  C268  1  0.653730  0.901670  0.746990  1.0
  C  C269  1  0.922850  0.693150  0.155000  1.0
  C  C270  1  0.306850  0.077150  0.345000  1.0
  C  C271  1  0.077150  0.306850  0.845000  1.0
  C  C272  1  0.693150  0.922850  0.655000  1.0
  C  C273  1  0.880830  0.662370  0.093700  1.0
  C  C274  1  0.337630  0.119170  0.406300  1.0
  C  C275  1  0.119170  0.337630  0.906300  1.0
  C  C276  1  0.662370  0.880830  0.593700  1.0
  C  C277  1  0.930080  0.686320  0.053000  1.0
  C  C278  1  0.313680  0.069920  0.447000  1.0
  C  C279  1  0.069920  0.313680  0.947000  1.0
  C  C280  1  0.686320  0.930080  0.553000  1.0
  C  C281  1  0.024760  0.668440  0.027760  1.0
  C  C282  1  0.331560  0.975240  0.472240  1.0
  C  C283  1  0.975240  0.331560  0.972240  1.0
  C  C284  1  0.668440  0.024760  0.527760  1.0
  C  C285  1  0.065570  0.629030  0.035810  1.0
  C  C286  1  0.370970  0.934430  0.464190  1.0
  C  C287  1  0.934430  0.370970  0.964190  1.0
  C  C288  1  0.629030  0.065570  0.535810  1.0
  C  C289  1  0.130970  0.654230  0.018940  1.0
  C  C290  1  0.345770  0.869030  0.481060  1.0
  C  C291  1  0.869030  0.345770  0.981060  1.0
  C  C292  1  0.654230  0.130970  0.518940  1.0
  H  H293  1  0.673600  0.522800  0.513400  1
  H  H294  1  0.477200  0.326400  0.986600  1
  H  H295  1  0.326400  0.477200  0.486600  1
  H  H296  1  0.522800  0.673600  0.013400  1
  H  H297  1  0.748100  0.526300  0.505800  1
  H  H298  1  0.473700  0.251900  0.994200  1
  H  H299  1  0.251900  0.473700  0.494200  1
  H  H300  1  0.526300  0.748100  0.005800  1
  H  H301  1  0.743100  0.599100  0.513300  1
  H  H302  1  0.400900  0.256900  0.986700  1
  H  H303  1  0.256900  0.400900  0.486700  1
  H  H304  1  0.599100  0.743100  0.013300  1
  H  H305  1  0.613800  0.408000  0.419200  1
  H  H306  1  0.592000  0.386200  0.080800  1
  H  H307  1  0.386200  0.592000  0.580800  1
  H  H308  1  0.408000  0.613800  0.919200  1
  H  H309  1  0.648400  0.418000  0.364600  1
  H  H310  1  0.582000  0.351600  0.135400  1
  H  H311  1  0.351600  0.582000  0.635400  1
  H  H312  1  0.418000  0.648400  0.864600  1
  H  H313  1  0.696900  0.427900  0.424900  1
  H  H314  1  0.572100  0.303100  0.075100  1
  H  H315  1  0.303100  0.572100  0.575100  1
  H  H316  1  0.427900  0.696900  0.924900  1
  H  H317  1  0.703700  0.432500  0.185700  1
  H  H318  1  0.567500  0.296300  0.314300  1
  H  H319  1  0.296300  0.567500  0.814300  1
  H  H320  1  0.432500  0.703700  0.685700  1
  H  H321  1  0.780000  0.509600  0.197600  1
  H  H322  1  0.490400  0.220000  0.302400  1
  H  H323  1  0.220000  0.490400  0.802400  1
  H  H324  1  0.509600  0.780000  0.697600  1
  H  H325  1  0.729300  0.459700  0.136200  1
  H  H326  1  0.540300  0.270700  0.363800  1
  H  H327  1  0.270700  0.540300  0.863800  1
  H  H328  1  0.459700  0.729300  0.636200  1
  H  H329  1  0.871100  0.444500  0.101900  1
  H  H330  1  0.555500  0.128900  0.398100  1
  H  H331  1  0.128900  0.555500  0.898100  1
  H  H332  1  0.444500  0.871100  0.601900  1
  H  H333  1  0.887400  0.520600  0.144700  1
  H  H334  1  0.479400  0.112600  0.355300  1
  H  H335  1  0.112600  0.479400  0.855300  1
  H  H336  1  0.520600  0.887400  0.644700  1
  H  H337  1  0.819700  0.469100  0.091500  1
  H  H338  1  0.530900  0.180300  0.408500  1
  H  H339  1  0.180300  0.530900  0.908500  1
  H  H340  1  0.469100  0.819700  0.591500  1
  H  H341  1  0.920100  0.229900  0.252300  1
  H  H342  1  0.770100  0.079900  0.247700  1
  H  H343  1  0.079900  0.770100  0.747700  1
  H  H344  1  0.229900  0.920100  0.752300  1
  H  H345  1  0.968200  0.309600  0.238700  1
  H  H346  1  0.690400  0.031800  0.261300  1
  H  H347  1  0.031800  0.690400  0.761300  1
  H  H348  1  0.309600  0.968200  0.738700  1
  H  H349  1  0.939600  0.231600  0.197500  1
  H  H350  1  0.768400  0.060400  0.302500  1
  H  H351  1  0.060400  0.768400  0.802500  1
  H  H352  1  0.231600  0.939600  0.697500  1
  H  H353  1  0.830900  0.270300  0.096600  1
  H  H354  1  0.729700  0.169100  0.403400  1
  H  H355  1  0.169100  0.729700  0.903400  1
  H  H356  1  0.270300  0.830900  0.596600  1
  H  H357  1  0.910400  0.331600  0.135800  1
  H  H358  1  0.668400  0.089600  0.364200  1
  H  H359  1  0.089600  0.668400  0.864200  1
  H  H360  1  0.331600  0.910400  0.635800  1
  H  H361  1  0.886800  0.248600  0.109900  1
  H  H362  1  0.751400  0.113200  0.390100  1
  H  H363  1  0.113200  0.751400  0.890100  1
  H  H364  1  0.248600  0.886800  0.609900  1
  H  H365  1  0.550400  0.719000  0.460500  1
  H  H366  1  0.281000  0.449600  0.039500  1
  H  H367  1  0.449600  0.281000  0.539500  1
  H  H368  1  0.719000  0.550400  0.960500  1
  H  H369  1  0.497800  0.714000  0.502600  1
  H  H370  1  0.286000  0.502200  0.997400  1
  H  H371  1  0.502200  0.286000  0.497400  1
  H  H372  1  0.714000  0.497800  0.002600  1
  H  H373  1  0.573000  0.716600  0.525400  1
  H  H374  1  0.283400  0.427000  0.974600  1
  H  H375  1  0.427000  0.283400  0.474600  1
  H  H376  1  0.716600  0.573000  0.025400  1
  H  H377  1  0.580100  0.609100  0.434100  1
  H  H378  1  0.390900  0.419900  0.065900  1
  H  H379  1  0.419900  0.390900  0.565900  1
  H  H380  1  0.609100  0.580100  0.934100  1
  H  H381  1  0.600500  0.620900  0.502000  1
  H  H382  1  0.379100  0.399500  0.998000  1
  H  H383  1  0.399500  0.379100  0.498000  1
  H  H384  1  0.620900  0.600500  0.002000  1
  H  H385  1  0.547300  0.540300  0.462500  1
  H  H386  1  0.459700  0.452700  0.037500  1
  H  H387  1  0.452700  0.459700  0.537500  1
  H  H388  1  0.540300  0.547300  0.962500  1
  H  H389  1  0.848500  0.902700  0.647600  1
  H  H390  1  0.097300  0.151500  0.852400  1
  H  H391  1  0.151500  0.097300  0.352400  1
  H  H392  1  0.902700  0.848500  0.147600  1
  H  H393  1  0.898700  0.987300  0.648700  1
  H  H394  1  0.012700  0.101300  0.851300  1
  H  H395  1  0.101300  0.012700  0.351300  1
  H  H396  1  0.987300  0.898700  0.148700  1
  H  H397  1  0.839500  0.932100  0.591800  1
  H  H398  1  0.067900  0.160500  0.908200  1
  H  H399  1  0.160500  0.067900  0.408200  1
  H  H400  1  0.932100  0.839500  0.091800  1
  H  H401  1  0.980700  0.920500  0.695600  1
  H  H402  1  0.079500  0.019300  0.804400  1
  H  H403  1  0.019300  0.079500  0.304400  1
  H  H404  1  0.920500  0.980700  0.195600  1
  H  H405  1  0.048500  0.971300  0.670900  1
  H  H406  1  0.028700  0.951500  0.829100  1
  H  H407  1  0.951500  0.028700  0.329100  1
  H  H408  1  0.971300  0.048500  0.170900  1
  H  H409  1  0.996700  0.000300  0.690300  1
  H  H410  1  0.999700  0.003300  0.809700  1
  H  H411  1  0.003300  0.999700  0.309700  1
  H  H412  1  0.000300  0.996700  0.190300  1
  H  H413  1  0.759000  0.505200  0.164400  1
  H  H414  1  0.494800  0.241000  0.335600  1
  H  H415  1  0.241000  0.494800  0.835600  1
  H  H416  1  0.505200  0.759000  0.664400  1
  H  H417  1  0.782700  0.469900  0.211100  1
  H  H418  1  0.530100  0.217300  0.288900  1
  H  H419  1  0.217300  0.530100  0.788900  1
  H  H420  1  0.469900  0.782700  0.711100  1
  H  H421  1  0.860700  0.515300  0.113300  1
  H  H422  1  0.484700  0.139300  0.386700  1
  H  H423  1  0.139300  0.484700  0.886700  1
  H  H424  1  0.515300  0.860700  0.613300  1
  H  H425  1  0.887000  0.482000  0.160200  1
  H  H426  1  0.518000  0.113000  0.339800  1
  H  H427  1  0.113000  0.518000  0.839800  1
  H  H428  1  0.482000  0.887000  0.660200  1
  H  H429  1  0.975300  0.282300  0.216000  1
  H  H430  1  0.717700  0.024700  0.284000  1
  H  H431  1  0.024700  0.717700  0.784000  1
  H  H432  1  0.282300  0.975300  0.716000  1
  H  H433  1  0.920800  0.297000  0.247000  1
  H  H434  1  0.703000  0.079200  0.253000  1
  H  H435  1  0.079200  0.703000  0.753000  1
  H  H436  1  0.297000  0.920800  0.747000  1
  H  H437  1  0.918500  0.297900  0.118200  1
  H  H438  1  0.702100  0.081500  0.381800  1
  H  H439  1  0.081500  0.702100  0.881800  1
  H  H440  1  0.297900  0.918500  0.618200  1
  H  H441  1  0.872100  0.320100  0.154300  1
  H  H442  1  0.679900  0.127900  0.345700  1
  H  H443  1  0.127900  0.679900  0.845700  1
  H  H444  1  0.320100  0.872100  0.654300  1
  H  H445  1  0.574400  0.714600  0.475400  1
  H  H446  1  0.285400  0.425600  0.024600  1
  H  H447  1  0.425600  0.285400  0.524600  1
  H  H448  1  0.714600  0.574400  0.975400  1
  H  H449  1  0.491800  0.697400  0.466600  1
  H  H450  1  0.302600  0.508200  0.033400  1
  H  H451  1  0.508200  0.302600  0.533400  1
  H  H452  1  0.697400  0.491800  0.966600  1
  H  H453  1  0.545200  0.733000  0.528900  1
  H  H454  1  0.267000  0.454800  0.971100  1
  H  H455  1  0.454800  0.267000  0.471100  1
  H  H456  1  0.733000  0.545200  0.028900  1
  H  H457  1  0.597300  0.633300  0.454100  1
  H  H458  1  0.366700  0.402700  0.045900  1
  H  H459  1  0.402700  0.366700  0.545900  1
  H  H460  1  0.633300  0.597300  0.954100  1
  H  H461  1  0.587900  0.577100  0.493800  1
  H  H462  1  0.422900  0.412100  0.006200  1
  H  H463  1  0.412100  0.422900  0.506200  1
  H  H464  1  0.577100  0.587900  0.993800  1
  H  H465  1  0.530200  0.551000  0.434200  1
  H  H466  1  0.449000  0.469800  0.065800  1
  H  H467  1  0.469800  0.449000  0.565800  1
  H  H468  1  0.551000  0.530200  0.934200  1
  H  H469  1  0.512400  0.223000  0.163700  1.0
  H  H470  1  0.777000  0.487600  0.336300  1.0
  H  H471  1  0.487600  0.777000  0.836300  1.0
  H  H472  1  0.223000  0.512400  0.663700  1.0
  H  H473  1  0.635300  0.267900  0.175800  1.0
  H  H474  1  0.732100  0.364700  0.324200  1.0
  H  H475  1  0.364700  0.732100  0.824200  1.0
  H  H476  1  0.267900  0.635300  0.675800  1.0
  H  H477  1  0.680900  0.187900  0.182700  1.0
  H  H478  1  0.812100  0.319100  0.317300  1.0
  H  H479  1  0.319100  0.812100  0.817300  1.0
  H  H480  1  0.187900  0.680900  0.682700  1.0
  H  H481  1  0.601000  0.067600  0.186500  1.0
  H  H482  1  0.932400  0.399000  0.313500  1.0
  H  H483  1  0.399000  0.932400  0.813500  1.0
  H  H484  1  0.067600  0.601000  0.686500  1.0
  H  H485  1  0.452700  0.962700  0.149100  1.0
  H  H486  1  0.037300  0.547300  0.350900  1.0
  H  H487  1  0.547300  0.037300  0.850900  1.0
  H  H488  1  0.962700  0.452700  0.649100  1.0
  H  H489  1  0.409000  0.993400  0.181500  1.0
  H  H490  1  0.006600  0.591000  0.318500  1.0
  H  H491  1  0.591000  0.006600  0.818500  1.0
  H  H492  1  0.993400  0.409000  0.681500  1.0
  H  H493  1  0.534100  0.988100  0.235100  1.0
  H  H494  1  0.011900  0.465900  0.264900  1.0
  H  H495  1  0.465900  0.011900  0.764900  1.0
  H  H496  1  0.988100  0.534100  0.735100  1.0
  H  H497  1  0.500400  0.029600  0.269000  1.0
  H  H498  1  0.970400  0.499600  0.231000  1.0
  H  H499  1  0.499600  0.970400  0.731000  1.0
  H  H500  1  0.029600  0.500400  0.769000  1.0
  H  H501  1  0.407700  0.810500  0.283400  1.0
  H  H502  1  0.189500  0.592300  0.216600  1.0
  H  H503  1  0.592300  0.189500  0.716600  1.0
  H  H504  1  0.810500  0.407700  0.783400  1.0
  H  H505  1  0.484500  0.450700  0.322900  1.0
  H  H506  1  0.549300  0.515500  0.177100  1.0
  H  H507  1  0.515500  0.549300  0.677100  1.0
  H  H508  1  0.450700  0.484500  0.822900  1.0
  H  H509  1  0.425700  0.373300  0.380600  1.0
  H  H510  1  0.626700  0.574300  0.119400  1.0
  H  H511  1  0.574300  0.626700  0.619400  1.0
  H  H512  1  0.373300  0.425700  0.880600  1.0
  H  H513  1  0.320300  0.365500  0.402400  1.0
  H  H514  1  0.634500  0.679700  0.097600  1.0
  H  H515  1  0.679700  0.634500  0.597600  1.0
  H  H516  1  0.365500  0.320300  0.902400  1.0
  H  H517  1  0.276700  0.436900  0.367800  1.0
  H  H518  1  0.563100  0.723300  0.132200  1.0
  H  H519  1  0.723300  0.563100  0.632200  1.0
  H  H520  1  0.436900  0.276700  0.867800  1.0
  H  H521  1  0.278800  0.507600  0.287200  1.0
  H  H522  1  0.492400  0.721200  0.212800  1.0
  H  H523  1  0.721200  0.492400  0.712800  1.0
  H  H524  1  0.507600  0.278800  0.787200  1.0
  H  H525  1  0.359500  0.562500  0.280900  1.0
  H  H526  1  0.437500  0.640500  0.219100  1.0
  H  H527  1  0.640500  0.437500  0.719100  1.0
  H  H528  1  0.562500  0.359500  0.780900  1.0
  H  H529  1  0.315700  0.563900  0.386700  1.0
  H  H530  1  0.436100  0.684300  0.113300  1.0
  H  H531  1  0.684300  0.436100  0.613300  1.0
  H  H532  1  0.563900  0.315700  0.886700  1.0
  H  H533  1  0.394200  0.620600  0.378100  1.0
  H  H534  1  0.379400  0.605800  0.121900  1.0
  H  H535  1  0.605800  0.379400  0.621900  1.0
  H  H536  1  0.620600  0.394200  0.878100  1.0
  H  H537  1  0.241000  0.694200  0.354800  1.0
  H  H538  1  0.305800  0.759000  0.145200  1.0
  H  H539  1  0.759000  0.305800  0.645200  1.0
  H  H540  1  0.694200  0.241000  0.854800  1.0
  H  H541  1  0.846200  0.686400  0.428600  1.0
  H  H542  1  0.313600  0.153800  0.071400  1.0
  H  H543  1  0.153800  0.313600  0.571400  1.0
  H  H544  1  0.686400  0.846200  0.928600  1.0
  H  H545  1  0.855300  0.795900  0.467800  1.0
  H  H546  1  0.204100  0.144700  0.032200  1.0
  H  H547  1  0.144700  0.204100  0.532200  1.0
  H  H548  1  0.795900  0.855300  0.967800  1.0
  H  H549  1  0.950300  0.905900  0.455700  1.0
  H  H550  1  0.094100  0.049700  0.044300  1.0
  H  H551  1  0.049700  0.094100  0.544300  1.0
  H  H552  1  0.905900  0.950300  0.955700  1.0
  H  H553  1  0.031900  0.900100  0.404000  1.0
  H  H554  1  0.099900  0.968100  0.096000  1.0
  H  H555  1  0.968100  0.099900  0.596000  1.0
  H  H556  1  0.900100  0.031900  0.904000  1.0
  H  H557  1  0.033900  0.736300  0.348700  1.0
  H  H558  1  0.263700  0.966100  0.151300  1.0
  H  H559  1  0.966100  0.263700  0.651300  1.0
  H  H560  1  0.736300  0.033900  0.848700  1.0
  H  H561  1  0.044500  0.806100  0.324900  1.0
  H  H562  1  0.193900  0.955500  0.175100  1.0
  H  H563  1  0.955500  0.193900  0.675100  1.0
  H  H564  1  0.806100  0.044500  0.824900  1.0
  H  H565  1  0.129800  0.883200  0.412300  1.0
  H  H566  1  0.116800  0.870200  0.087700  1.0
  H  H567  1  0.870200  0.116800  0.587700  1.0
  H  H568  1  0.883200  0.129800  0.912300  1.0
  H  H569  1  0.121500  0.812100  0.432700  1.0
  H  H570  1  0.187900  0.878500  0.067300  1.0
  H  H571  1  0.878500  0.187900  0.567300  1.0
  H  H572  1  0.812100  0.121500  0.932700  1.0
  H  H573  1  0.268500  0.881700  0.315100  1.0
  H  H574  1  0.118300  0.731500  0.184900  1.0
  H  H575  1  0.731500  0.118300  0.684900  1.0
  H  H576  1  0.881700  0.268500  0.815100  1.0
  H  H577  1  0.427900  0.136900  0.037600  1.0
  H  H578  1  0.863100  0.572100  0.462400  1.0
  H  H579  1  0.572100  0.863100  0.962400  1.0
  H  H580  1  0.136900  0.427900  0.537600  1.0
  H  H581  1  0.438600  0.088200  0.950500  1.0
  H  H582  1  0.911800  0.561400  0.549500  1.0
  H  H583  1  0.561400  0.911800  0.049500  1.0
  H  H584  1  0.088200  0.438600  0.450500  1.0
  H  H585  1  0.393800  0.964400  0.922100  1.0
  H  H586  1  0.035600  0.606200  0.577900  1.0
  H  H587  1  0.606200  0.035600  0.077900  1.0
  H  H588  1  0.964400  0.393800  0.422100  1.0
  H  H589  1  0.330500  0.939900  0.069800  1.0
  H  H590  1  0.060100  0.669500  0.430200  1.0
  H  H591  1  0.669500  0.060100  0.930200  1.0
  H  H592  1  0.939900  0.330500  0.569800  1.0
  H  H593  1  0.277900  0.831300  0.985000  1.0
  H  H594  1  0.168700  0.722100  0.515000  1.0
  H  H595  1  0.722100  0.168700  0.015000  1.0
  H  H596  1  0.831300  0.277900  0.485000  1.0
  H  H597  1  0.324000  0.840800  0.937200  1.0
  H  H598  1  0.159200  0.676000  0.562800  1.0
  H  H599  1  0.676000  0.159200  0.062800  1.0
  H  H600  1  0.840800  0.324000  0.437200  1.0
  H  H601  1  0.377900  0.850700  0.053200  1.0
  H  H602  1  0.149300  0.622100  0.446800  1.0
  H  H603  1  0.622100  0.149300  0.946800  1.0
  H  H604  1  0.850700  0.377900  0.553200  1.0
  H  H605  1  0.424000  0.860400  0.005500  1.0
  H  H606  1  0.139600  0.576000  0.494500  1.0
  H  H607  1  0.576000  0.139600  0.994500  1.0
  H  H608  1  0.860400  0.424000  0.505500  1.0
  H  H609  1  0.343000  0.735400  0.957700  1.0
  H  H610  1  0.264600  0.657000  0.542300  1.0
  H  H611  1  0.657000  0.264600  0.042300  1.0
  H  H612  1  0.735400  0.343000  0.457700  1.0
  H  H613  1  0.379500  0.741900  0.022200  1.0
  H  H614  1  0.258100  0.620500  0.477800  1.0
  H  H615  1  0.620500  0.258100  0.977800  1.0
  H  H616  1  0.741900  0.379500  0.522200  1.0
  H  H617  1  0.172900  0.535300  0.056200  1.0
  H  H618  1  0.464700  0.827100  0.443800  1.0
  H  H619  1  0.827100  0.464700  0.943800  1.0
  H  H620  1  0.535300  0.172900  0.556200  1.0
  H  H621  1  0.430200  0.391400  0.193400  1.0
  H  H622  1  0.608600  0.569800  0.306600  1.0
  H  H623  1  0.569800  0.608600  0.806600  1.0
  H  H624  1  0.391400  0.430200  0.693400  1.0
  H  H625  1  0.334900  0.284500  0.134800  1.0
  H  H626  1  0.715500  0.665100  0.365200  1.0
  H  H627  1  0.665100  0.715500  0.865200  1.0
  H  H628  1  0.284500  0.334900  0.634800  1.0
  H  H629  1  0.223500  0.276500  0.098900  1.0
  H  H630  1  0.723500  0.776500  0.401100  1.0
  H  H631  1  0.776500  0.723500  0.901100  1.0
  H  H632  1  0.276500  0.223500  0.598900  1.0
  H  H633  1  0.312900  0.488100  0.179800  1.0
  H  H634  1  0.511900  0.687100  0.320200  1.0
  H  H635  1  0.687100  0.511900  0.820200  1.0
  H  H636  1  0.488100  0.312900  0.679800  1.0
  H  H637  1  0.151000  0.333600  0.088300  1.0
  H  H638  1  0.666400  0.849000  0.411700  1.0
  H  H639  1  0.849000  0.666400  0.911700  1.0
  H  H640  1  0.333600  0.151000  0.588300  1.0
  H  H641  1  0.196600  0.419800  0.093300  1.0
  H  H642  1  0.580200  0.803400  0.406700  1.0
  H  H643  1  0.803400  0.580200  0.906700  1.0
  H  H644  1  0.419800  0.196600  0.593300  1.0
  H  H645  1  0.140500  0.354700  0.183900  1.0
  H  H646  1  0.645300  0.859500  0.316100  1.0
  H  H647  1  0.859500  0.645300  0.816100  1.0
  H  H648  1  0.354700  0.140500  0.683900  1.0
  H  H649  1  0.187500  0.441100  0.189900  1.0
  H  H650  1  0.558900  0.812500  0.310100  1.0
  H  H651  1  0.812500  0.558900  0.810100  1.0
  H  H652  1  0.441100  0.187500  0.689900  1.0
  H  H653  1  0.044500  0.346900  0.117300  1.0
  H  H654  1  0.653100  0.955500  0.382700  1.0
  H  H655  1  0.955500  0.653100  0.882700  1.0
  H  H656  1  0.346900  0.044500  0.617300  1.0
  H  H657  1  0.063700  0.405700  0.174900  1.0
  H  H658  1  0.594300  0.936300  0.325100  1.0
  H  H659  1  0.936300  0.594300  0.825100  1.0
  H  H660  1  0.405700  0.063700  0.674900  1.0
  H  H661  1  0.996600  0.554200  0.073600  1.0
  H  H662  1  0.445800  0.003400  0.426400  1.0
  H  H663  1  0.003400  0.445800  0.926400  1.0
  H  H664  1  0.554200  0.996600  0.573600  1.0
  H  H665  1  0.768700  0.604500  0.306100  1.0
  H  H666  1  0.395500  0.231300  0.193900  1.0
  H  H667  1  0.231300  0.395500  0.693900  1.0
  H  H668  1  0.604500  0.768700  0.806100  1.0
  H  H669  1  0.720900  0.633100  0.228200  1.0
  H  H670  1  0.366900  0.279100  0.271800  1.0
  H  H671  1  0.279100  0.366900  0.771800  1.0
  H  H672  1  0.633100  0.720900  0.728200  1.0
  H  H673  1  0.785900  0.669300  0.158100  1.0
  H  H674  1  0.330700  0.214100  0.341900  1.0
  H  H675  1  0.214100  0.330700  0.841900  1.0
  H  H676  1  0.669300  0.785900  0.658100  1.0
  H  H677  1  0.949300  0.659900  0.252800  1.0
  H  H678  1  0.340100  0.050700  0.247200  1.0
  H  H679  1  0.050700  0.340100  0.747200  1.0
  H  H680  1  0.659900  0.949300  0.752800  1.0
  H  H681  1  0.948400  0.747200  0.162800  1.0
  H  H682  1  0.252800  0.051600  0.337200  1.0
  H  H683  1  0.051600  0.252800  0.837200  1.0
  H  H684  1  0.747200  0.948400  0.662800  1.0
  H  H685  1  0.960500  0.678900  0.160800  1.0
  H  H686  1  0.321100  0.039500  0.339200  1.0
  H  H687  1  0.039500  0.321100  0.839200  1.0
  H  H688  1  0.678900  0.960500  0.660800  1.0
  H  H689  1  0.853700  0.608300  0.085900  1.0
  H  H690  1  0.391700  0.146300  0.414100  1.0
  H  H691  1  0.146300  0.391700  0.914100  1.0
  H  H692  1  0.608300  0.853700  0.585900  1.0
  H  H693  1  0.844700  0.678500  0.087100  1.0
  H  H694  1  0.321500  0.155300  0.412900  1.0
  H  H695  1  0.155300  0.321500  0.912900  1.0
  H  H696  1  0.678500  0.844700  0.587100  1.0
  H  H697  1  0.900700  0.672300  0.013600  1.0
  H  H698  1  0.327700  0.099300  0.486400  1.0
  H  H699  1  0.099300  0.327700  0.986400  1.0
  H  H700  1  0.672300  0.900700  0.513600  1.0
  H  H701  1  0.962800  0.740000  0.063700  1.0
  H  H702  1  0.260000  0.037200  0.436300  1.0
  H  H703  1  0.037200  0.260000  0.936300  1.0
  H  H704  1  0.740000  0.962800  0.563700  1.0
  H  H705  1  0.148200  0.694800  0.001700  1.0
  H  H706  1  0.305200  0.851800  0.498300  1.0
  H  H707  1  0.851800  0.305200  0.998300  1.0
  H  H708  1  0.694800  0.148200  0.501700  1.0
  N  N709  1  0.547970  0.869030  0.156600  1
  N  N710  1  0.130970  0.452030  0.343400  1
  N  N711  1  0.452030  0.130970  0.843400  1
  N  N712  1  0.869030  0.547970  0.656600  1
  N  N713  1  0.755160  0.729380  0.028100  1
  N  N714  1  0.270620  0.244840  0.471900  1
  N  N715  1  0.244840  0.270620  0.971900  1
  N  N716  1  0.729380  0.755160  0.528100  1
  N  N717  1  0.915400  0.084600  0.750000  1
  N  N718  1  0.084600  0.915400  0.250000  1
  N  N719  1  0.584040  0.415960  0.250000  1
  N  N720  1  0.415960  0.584040  0.750000  1
  N  N721  1  0.482870  0.120250  0.167100  1.0
  N  N722  1  0.879750  0.517130  0.332900  1.0
  N  N723  1  0.517130  0.879750  0.832900  1.0
  N  N724  1  0.120250  0.482870  0.667100  1.0
  N  N725  1  0.415520  0.488240  0.311310  1.0
  N  N726  1  0.511760  0.584480  0.188690  1.0
  N  N727  1  0.584480  0.511760  0.688690  1.0
  N  N728  1  0.488240  0.415520  0.811310  1.0
  N  N729  1  0.933720  0.727580  0.396050  1.0
  N  N730  1  0.272420  0.066280  0.103950  1.0
  N  N731  1  0.066280  0.272420  0.603950  1.0
  N  N732  1  0.727580  0.933720  0.896050  1.0
  N  N733  1  0.380070  0.042570  0.061920  1.0
  N  N734  1  0.957430  0.619930  0.438080  1.0
  N  N735  1  0.619930  0.957430  0.938080  1.0
  N  N736  1  0.042570  0.380070  0.561920  1.0
  N  N737  1  0.378940  0.448880  0.191640  1.0
  N  N738  1  0.551120  0.621060  0.308360  1.0
  N  N739  1  0.621060  0.551120  0.808360  1.0
  N  N740  1  0.448880  0.378940  0.691640  1.0
  N  N741  1  0.864750  0.632350  0.286820  1.0
  N  N742  1  0.367650  0.135250  0.213180  1.0
  N  N743  1  0.135250  0.367650  0.713180  1.0
  N  N744  1  0.632350  0.864750  0.786820  1.0
  O  O745  1  0.755220  0.566820  0.400970  1
  O  O746  1  0.433180  0.244780  0.099030  1
  O  O747  1  0.244780  0.433180  0.599030  1
  O  O748  1  0.566820  0.755220  0.900970  1
  O  O749  1  0.750920  0.342480  0.133900  1
  O  O750  1  0.657520  0.249080  0.366100  1
  O  O751  1  0.249080  0.657520  0.866100  1
  O  O752  1  0.342480  0.750920  0.633900  1
  O  O753  1  0.785300  0.176900  0.171300  1
  O  O754  1  0.823100  0.214700  0.328700  1
  O  O755  1  0.214700  0.823100  0.828700  1
  O  O756  1  0.176900  0.785300  0.671300  1
  O  O757  1  0.462350  0.576050  0.522800  1
  O  O758  1  0.423950  0.537650  0.977200  1
  O  O759  1  0.537650  0.423950  0.477200  1
  O  O760  1  0.576050  0.462350  0.022800  1
  O  O761  1  0.970200  0.976400  0.571300  1
  O  O762  1  0.023600  0.029800  0.928700  1
  O  O763  1  0.029800  0.023600  0.428700  1
  O  O764  1  0.976400  0.970200  0.071300  1
  O  O765  1  0.561390  0.930010  0.151600  1
  O  O766  1  0.069990  0.438610  0.348400  1
  O  O767  1  0.438610  0.069990  0.848400  1
  O  O768  1  0.930010  0.561390  0.651600  1
  O  O769  1  0.527280  0.819920  0.112300  1
  O  O770  1  0.180080  0.472720  0.387700  1
  O  O771  1  0.472720  0.180080  0.887700  1
  O  O772  1  0.819920  0.527280  0.612300  1
  O  O773  1  0.553690  0.853710  0.202800  1
  O  O774  1  0.146290  0.446310  0.297200  1
  O  O775  1  0.446310  0.146290  0.797200  1
  O  O776  1  0.853710  0.553690  0.702800  1
  O  O777  1  0.743520  0.702560  0.070260  1
  O  O778  1  0.297440  0.256480  0.429740  1
  O  O779  1  0.256480  0.297440  0.929740  1
  O  O780  1  0.702560  0.743520  0.570260  1
  O  O781  1  0.715320  0.750480  0.006100  1
  O  O782  1  0.249520  0.284680  0.493900  1
  O  O783  1  0.284680  0.249520  0.993900  1
  O  O784  1  0.750480  0.715320  0.506100  1
  O  O785  1  0.805480  0.732920  0.007250  1
  O  O786  1  0.267080  0.194520  0.492750  1
  O  O787  1  0.194520  0.267080  0.992750  1
  O  O788  1  0.732920  0.805480  0.507250  1
  O  O789  1  0.535900  0.426300  0.249200  1
  O  O790  1  0.573700  0.464100  0.250800  1
  O  O791  1  0.464100  0.573700  0.750800  1
  O  O792  1  0.426300  0.535900  0.749200  1
  O  O793  1  0.968400  0.114800  0.733300  1
  O  O794  1  0.885200  0.031600  0.766700  1
  O  O795  1  0.031600  0.885200  0.266700  1
  O  O796  1  0.114800  0.968400  0.233300  1
  O  O797  1  0.914900  0.145700  0.766100  1
  O  O798  1  0.854300  0.085100  0.733900  1
  O  O799  1  0.085100  0.854300  0.233900  1
  O  O800  1  0.145700  0.914900  0.266100  1
  O  O801  1  0.615370  0.384630  0.250000  1
  O  O802  1  0.384630  0.615370  0.750000  1
  O  O803  1  0.515700  0.354100  0.238400  1
  O  O804  1  0.645900  0.484300  0.261600  1
  O  O805  1  0.484300  0.645900  0.761600  1
  O  O806  1  0.354100  0.515700  0.738400  1
  O  O807  1  0.436620  0.920420  0.249360  1.0
  O  O808  1  0.079580  0.563380  0.250640  1.0
  O  O809  1  0.563380  0.079580  0.750640  1.0
  O  O810  1  0.920420  0.436620  0.749360  1.0
  O  O811  1  0.377310  0.974370  0.281950  1.0
  O  O812  1  0.025630  0.622690  0.218050  1.0
  O  O813  1  0.622690  0.025630  0.718050  1.0
  O  O814  1  0.974370  0.377310  0.781950  1.0
  O  O815  1  0.314100  0.638120  0.344980  1.0
  O  O816  1  0.361880  0.685900  0.155020  1.0
  O  O817  1  0.685900  0.361880  0.655020  1.0
  O  O818  1  0.638120  0.314100  0.844980  1.0
  O  O819  1  0.415160  0.705840  0.315490  1.0
  O  O820  1  0.294160  0.584840  0.184510  1.0
  O  O821  1  0.584840  0.294160  0.684510  1.0
  O  O822  1  0.705840  0.415160  0.815490  1.0
  O  O823  1  0.176100  0.834840  0.369840  1.0
  O  O824  1  0.165160  0.823900  0.130160  1.0
  O  O825  1  0.823900  0.165160  0.630160  1.0
  O  O826  1  0.834840  0.176100  0.869840  1.0
  O  O827  1  0.144720  0.720980  0.378070  1.0
  O  O828  1  0.279020  0.855280  0.121930  1.0
  O  O829  1  0.855280  0.279020  0.621930  1.0
  O  O830  1  0.720980  0.144720  0.878070  1.0
  O  O831  1  0.273970  0.717910  0.010870  1.0
  O  O832  1  0.282090  0.726030  0.489130  1.0
  O  O833  1  0.726030  0.282090  0.989130  1.0
  O  O834  1  0.717910  0.273970  0.510870  1.0
  O  O835  1  0.276820  0.614960  0.011220  1.0
  O  O836  1  0.385040  0.723180  0.488780  1.0
  O  O837  1  0.723180  0.385040  0.988780  1.0
  O  O838  1  0.614960  0.276820  0.511220  1.0
  O  O839  1  0.101270  0.452130  0.110120  1.0
  O  O840  1  0.547870  0.898730  0.389880  1.0
  O  O841  1  0.898730  0.547870  0.889880  1.0
  O  O842  1  0.452130  0.101270  0.610120  1.0
  O  O843  1  0.999040  0.453560  0.117110  1.0
  O  O844  1  0.546440  0.000960  0.382890  1.0
  O  O845  1  0.000960  0.546440  0.882890  1.0
  O  O846  1  0.453560  0.999040  0.617110  1.0
  O  O847  1  0.973220  0.649520  0.056690  1.0
  O  O848  1  0.350480  0.026780  0.443310  1.0
  O  O849  1  0.026780  0.350480  0.943310  1.0
  O  O850  1  0.649520  0.973220  0.556690  1.0
  O  O851  1  0.038670  0.713130  0.999580  1.0
  O  O852  1  0.286870  0.961330  0.500420  1.0
  O  O853  1  0.961330  0.286870  0.000420  1.0
  O  O854  1  0.713130  0.038670  0.499580  1.0
  Pd  Pd855  1  0.462370  0.537630  0.250000  1
  Pd  Pd856  1  0.537630  0.462370  0.750000  1
  Pd  Pd857  1  0.375350  0.088350  0.138230  1.0
  Pd  Pd858  1  0.911650  0.624650  0.361770  1.0
  Pd  Pd859  1  0.624650  0.911650  0.861770  1.0
  Pd  Pd860  1  0.088350  0.375350  0.638230  1.0
  S  S861  1  0.687030  0.529310  0.422640  1
  S  S862  1  0.470690  0.312970  0.077360  1
  S  S863  1  0.312970  0.470690  0.577360  1
  S  S864  1  0.529310  0.687030  0.922640  1
  S  S865  1  0.801570  0.419830  0.170080  1
  S  S866  1  0.580170  0.198430  0.329920  1
  S  S867  1  0.198430  0.580170  0.829920  1
  S  S868  1  0.419830  0.801570  0.670080  1
  S  S869  1  0.845880  0.257780  0.192800  1
  S  S870  1  0.742220  0.154120  0.307200  1
  S  S871  1  0.154120  0.742220  0.807200  1
  S  S872  1  0.257780  0.845880  0.692800  1
  S  S873  1  0.486450  0.602690  0.473210  1
  S  S874  1  0.397310  0.513550  0.026790  1
  S  S875  1  0.513550  0.397310  0.526790  1
  S  S876  1  0.602690  0.486450  0.973210  1
  S  S877  1  0.941150  0.919430  0.602290  1
  S  S878  1  0.080570  0.058850  0.897710  1
  S  S879  1  0.058850  0.080570  0.397710  1
  S  S880  1  0.919430  0.941150  0.102290  1
  S  S881  1  0.760000  0.419200  0.127000  1
  S  S882  1  0.580800  0.240000  0.373000  1
  S  S883  1  0.240000  0.580800  0.873000  1
  S  S884  1  0.419200  0.760000  0.627000  1
  S  S885  1  0.848200  0.206600  0.157100  1
  S  S886  1  0.793400  0.151800  0.342900  1
  S  S887  1  0.151800  0.793400  0.842900  1
  S  S888  1  0.206600  0.848200  0.657100  1
  S  S889  1  0.522700  0.623300  0.511400  1
  S  S890  1  0.376700  0.477300  0.988600  1
  S  S891  1  0.477300  0.376700  0.488600  1
  S  S892  1  0.623300  0.522700  0.011400  1
