
#######################################################################
#
#                 Cambridge Crystallographic Data Centre
#                                CCDC 
#
#######################################################################
#
# If this CIF has been generated from an entry in the Cambridge 
# Structural Database, then it will include bibliographic, chemical, 
# crystal, experimental, refinement or atomic coordinate data resulting 
# from the CCDC's data processing and validation procedures.
#
#######################################################################

data_EWIGAT
_chemical_formula_moiety         'C132 H180 Co8 N72 12+,12(Cl1 1-),4(H2 O1)'
_chemical_name_systematic        
"dodecakis(\m~2~-2,2'-(1H-Imidazole-4,5-diyl)bis(1,4,5,6-tetrahydropyrimidine))-octa-cobalt(iii) dodecachloride tetrahydrate"
_symmetry_cell_setting           cubic
_symmetry_space_group_name_H-M   'P a -3'
_symmetry_Int_Tables_number      205
_space_group_name_Hall           '-P 2ac 2ab 3'
loop_
_symmetry_equiv_pos_site_id
_symmetry_equiv_pos_as_xyz
1 x,y,z
2 1/2-x,-y,1/2+z
3 -x,1/2+y,1/2-z
4 1/2+x,1/2-y,-z
5 z,x,y
6 1/2+z,1/2-x,-y
7 1/2-z,-x,1/2+y
8 -z,1/2+x,1/2-y
9 y,z,x
10 -y,1/2+z,1/2-x
11 1/2+y,1/2-z,-x
12 1/2-y,-z,1/2+x
13 -x,-y,-z
14 1/2+x,y,1/2-z
15 x,1/2-y,1/2+z
16 1/2-x,1/2+y,z
17 -z,-x,-y
18 1/2-z,1/2+x,y
19 1/2+z,x,1/2-y
20 z,1/2-x,1/2+y
21 -y,-z,-x
22 y,1/2-z,1/2+x
23 1/2-y,1/2+z,x
24 1/2+y,z,1/2-x
_cell_length_a                   25.1026(13)
_cell_length_b                   25.1026(13)
_cell_length_c                   25.1026(13)
_cell_angle_alpha                90
_cell_angle_beta                 90
_cell_angle_gamma                90
_cell_volume                     15818.2
_exptl_crystal_colour            red
_exptl_crystal_description       polyhedra
_cell_formula_units_Z            4
loop_
_atom_site_label
_atom_site_type_symbol
_atom_site_fract_x
_atom_site_fract_y
_atom_site_fract_z
Co1 Co 0.196913(18) 0.466866(18) 0.051335(18)
Co2 Co 0.115468(18) 0.615467(18) -0.115468(18)
C1 C 0.14038(13) 0.52727(13) -0.03687(14)
H1 H 0.1182 0.4999 -0.0506
C2 C 0.18879(15) 0.65832(15) -0.04529(15)
C3 C 0.22926(14) 0.57173(15) 0.06100(15)
C4 C 0.17955(14) 0.60399(14) -0.02683(14)
C5 C 0.19665(14) 0.57030(14) 0.01304(15)
C6 C 0.26578(16) 0.52208(16) 0.13353(16)
C7 C 0.23094(19) 0.74485(18) -0.03593(19)
H2 H 0.2605 0.7495 -0.0616
H3 H 0.2391 0.7661 -0.0037
C8 C 0.16343(16) 0.72701(15) -0.10493(16)
H4 H 0.1285 0.7385 -0.1191
H5 H 0.1898 0.7291 -0.1342
C9 C 0.2566(3) 0.5737(2) 0.1647(2)
H6 H 0.2185 0.5768 0.1742
H7 H 0.2775 0.5728 0.1982
H8 H 0.3044 0.5171 0.1270
H9 H 0.2526 0.4914 0.1544
H10 H 0.3117 0.6192 0.1277
H11 H 0.2633 0.6529 0.1521
C10 C 0.2726(2) 0.61973(18) 0.1328(2)
C11 C 0.1800(2) 0.76356(16) -0.0601(2)
H12 H 0.1847 0.8002 -0.0740
H13 H 0.1518 0.7644 -0.0326
C12 C 0.14723(14) 0.35641(14) -0.05181(14)
C13 C 0.14443(14) 0.31368(13) -0.09209(14)
C14 C 0.23654(15) 0.33352(16) 0.18179(17)
H14 H 0.2261 0.3005 0.1628
H15 H 0.2469 0.3239 0.2186
C15 C 0.26513(15) 0.37948(15) 0.09921(16)
H16 H 0.2947 0.3995 0.0824
H17 H 0.2564 0.3488 0.0761
C16 C 0.28272(16) 0.35948(16) 0.15371(17)
H18 H 0.3120 0.3334 0.1495
H19 H 0.2961 0.3897 0.1753
C17 C 0.10936(13) 0.39424(13) 0.01654(13)
H20 H 0.0837 0.4036 0.0427
C18 C 0.18256(14) 0.39326(14) -0.03073(13)
C19 C 0.23721(14) 0.41403(14) -0.03711(15)
C20 C 0.32159(16) 0.42154(19) -0.08355(18)
H21 H 0.3195 0.4537 -0.1063
H22 H 0.3454 0.3955 -0.1011
C21 C 0.34355(18) 0.4361(2) -0.03024(19)
H23 H 0.3780 0.4548 -0.0347
H24 H 0.3500 0.4034 -0.0092
C22 C 0.30467(15) 0.47171(16) -0.00109(17)
H25 H 0.3175 0.4778 0.0357
H26 H 0.3026 0.5066 -0.0193
N1 N 0.15968(12) 0.67203(12) -0.08595(12)
N2 N 0.25135(12) 0.44724(12) 0.00048(12)
N3 N 0.15764(11) 0.41554(11) 0.01270(11)
N4 N 0.14206(11) 0.47871(11) 0.10198(11)
N5 N 0.17247(11) 0.52209(11) 0.00500(11)
N6 N 0.21835(11) 0.41418(11) 0.10403(12)
N7 N 0.23724(12) 0.52513(12) 0.08255(12)
N8 N 0.14374(11) 0.57647(11) -0.05677(11)
N9 N 0.18284(12) 0.30812(12) -0.12924(12)
H27 H 0.2036 0.3360 -0.1381
N10 N 0.24556(15) 0.61840(14) 0.08123(14)
H28 H 0.2258 0.6505 0.0714
N11 N 0.22576(15) 0.68848(14) -0.02164(15)
H29 H 0.2580 0.6692 -0.0105
N12 N 0.26845(13) 0.39845(13) -0.07734(13)
H30 H 0.2553 0.3906 -0.1092
Co1S Co 0.051335(18) 0.303087(18) -0.033134(18)
Co1J Co -0.033134(18) 0.448665(18) -0.196913(18)
Co1L Co -0.196913(18) 0.533134(18) -0.051335(18)
Co1G Co -0.051335(18) 0.696913(18) 0.033134(18)
Co1V Co 0.033134(18) 0.551335(18) 0.196913(18)
Co2V Co -0.115467(18) 0.384532(18) 0.115468(18)
C1G C 0.03687(14) 0.64038(13) -0.02727(13)
C1J C 0.02727(13) 0.53687(14) -0.14038(13)
C1V C -0.02727(13) 0.46313(14) 0.14038(13)
C1L C -0.14038(13) 0.47273(13) 0.03687(14)
C1S C -0.03687(14) 0.35962(13) 0.02727(13)
H1G H 0.0506 0.6182 0.0001
H1J H -0.0001 0.5506 -0.1182
H1V H 0.0001 0.4494 0.1182
H1L H -0.1182 0.5001 0.0506
H1S H -0.0506 0.3818 -0.0001
C2G C 0.04529(15) 0.68879(15) -0.15832(15)
C2J C 0.15832(15) 0.54529(15) -0.18879(15)
C2V C -0.15832(15) 0.45471(15) 0.18879(15)
C2L C -0.18879(15) 0.34168(15) 0.04529(15)
C2S C -0.04529(15) 0.31121(15) 0.15832(15)
C3G C -0.06100(15) 0.72926(14) -0.07173(15)
C3J C 0.07173(15) 0.43900(15) -0.22926(14)
C3V C -0.07173(15) 0.56100(15) 0.22926(14)
C3L C -0.22926(14) 0.42827(15) -0.06100(15)
C3S C 0.06100(15) 0.27074(14) 0.07173(15)
C4G C 0.02683(14) 0.67955(14) -0.10399(14)
C4J C 0.10399(14) 0.52683(14) -0.17955(14)
C4V C -0.10399(14) 0.47317(14) 0.17955(14)
C4L C -0.17955(14) 0.39601(14) 0.02683(14)
C4S C -0.02683(14) 0.32045(14) 0.10399(14)
C5G C -0.01304(15) 0.69665(14) -0.07030(14)
C5J C 0.07030(14) 0.48696(15) -0.19665(14)
C5V C -0.07030(14) 0.51304(15) 0.19665(14)
C5L C -0.19665(14) 0.42970(14) -0.01304(15)
C5S C 0.01304(15) 0.30335(14) 0.07030(14)
C6J C 0.02208(16) 0.36647(16) -0.26578(16)
C6G C -0.13353(16) 0.76578(16) -0.02208(16)
C6V C -0.02208(16) 0.63353(16) 0.26578(16)
C6S C 0.13353(16) 0.23422(16) 0.02208(16)
C6L C -0.26578(16) 0.47792(16) -0.13353(16)
C7J C 0.24485(18) 0.53593(19) -0.23094(19)
C7G C 0.03593(19) 0.73094(19) -0.24485(18)
C7V C -0.24485(18) 0.46407(19) 0.23094(19)
C7S C -0.03593(19) 0.26906(19) 0.24485(18)
C7L C -0.23094(19) 0.25515(18) 0.03593(19)
H2J H 0.2495 0.5616 -0.2605
H2G H 0.0616 0.7605 -0.2495
H2V H -0.2495 0.4384 0.2605
H2S H -0.0616 0.2395 0.2495
H2L H -0.2605 0.2505 0.0616
H3J H 0.2661 0.5037 -0.2391
H3G H 0.0037 0.7391 -0.2661
H3V H -0.2661 0.4963 0.2391
H3S H -0.0037 0.2609 0.2661
H3L H -0.2391 0.2339 0.0037
C8J C 0.22701(15) 0.60493(16) -0.16343(16)
C8G C 0.10493(16) 0.66343(16) -0.22701(15)
C8V C -0.22701(15) 0.39507(16) 0.16343(16)
C8S C -0.10493(16) 0.33657(16) 0.22701(15)
C8L C -0.16343(16) 0.27299(15) 0.10493(16)
H4J H 0.2385 0.6191 -0.1285
H4G H 0.1191 0.6285 -0.2385
H4V H -0.2385 0.3809 0.1285
H4S H -0.1191 0.3715 0.2385
H4L H -0.1285 0.2615 0.1191
H5J H 0.2291 0.6342 -0.1898
H5G H 0.1342 0.6898 -0.2291
H5V H -0.2291 0.3658 0.1898
H5S H -0.1342 0.3102 0.2291
H5L H -0.1898 0.2709 0.1342
C9J C 0.0737(2) 0.3353(2) -0.2566(3)
C9G C -0.1647(2) 0.7566(3) -0.0737(2)
C9V C -0.0737(2) 0.6647(2) 0.2566(3)
C9S C 0.1647(2) 0.2434(3) 0.0737(2)
C9L C -0.2566(3) 0.4263(2) -0.1647(2)
H6J H 0.0768 0.3258 -0.2185
H6G H -0.1742 0.7185 -0.0768
H6V H -0.0768 0.6742 0.2185
H6S H 0.1742 0.2815 0.0768
H6L H -0.2185 0.4232 -0.1742
H7J H 0.0728 0.3018 -0.2775
H7G H -0.1982 0.7775 -0.0728
H7V H -0.0728 0.6982 0.2775
H7S H 0.1982 0.2225 0.0728
H7L H -0.2775 0.4272 -0.1982
H8J H 0.0171 0.3730 -0.3044
H8G H -0.1270 0.8044 -0.0171
H8V H -0.0171 0.6270 0.3044
H8S H 0.1270 0.1956 0.0171
H8L H -0.3044 0.4829 -0.1270
H9J H -0.0086 0.3456 -0.2526
H9G H -0.1544 0.7526 0.0086
H9V H 0.0086 0.6544 0.2526
H9S H 0.1544 0.2474 -0.0086
H9L H -0.2526 0.5086 -0.1544
H10J H 0.1192 0.3723 -0.3117
H10G H -0.1277 0.8117 -0.1192
H10V H -0.1192 0.6277 0.3117
H10S H 0.1277 0.1883 0.1192
H10L H -0.3117 0.3808 -0.1277
H11J H 0.1529 0.3479 -0.2633
H11G H -0.1521 0.7633 -0.1529
H11V H -0.1529 0.6521 0.2633
H11S H 0.1521 0.2367 0.1529
H11L H -0.2633 0.3471 -0.1521
C10J C 0.11973(18) 0.3672(2) -0.2726(2)
C10G C -0.1328(2) 0.7726(2) -0.11973(18)
C10V C -0.11973(18) 0.6328(2) 0.2726(2)
C10S C 0.1328(2) 0.2274(2) 0.11973(18)
C10L C -0.2726(2) 0.38027(18) -0.1328(2)
C11J C 0.26356(16) 0.5601(2) -0.1800(2)
C11G C 0.0601(2) 0.6800(2) -0.26356(16)
C11V C -0.26356(16) 0.4399(2) 0.1800(2)
C11S C -0.0601(2) 0.3200(2) 0.26356(16)
C11L C -0.1800(2) 0.23644(16) 0.0601(2)
H12J H 0.3002 0.5740 -0.1847
H12G H 0.0740 0.6847 -0.3002
H12V H -0.3002 0.4260 0.1847
H12S H -0.0740 0.3153 0.3002
H12L H -0.1847 0.1998 0.0740
H13J H 0.2644 0.5326 -0.1518
H13G H 0.0326 0.6518 -0.2644
H13V H -0.2644 0.4674 0.1518
H13S H -0.0326 0.3482 0.2644
H13L H -0.1518 0.2356 0.0326
C12S C -0.05181(14) 0.35277(14) -0.14359(14)
C12J C -0.14359(14) 0.55181(14) -0.14723(14)
C12L C -0.14723(14) 0.64359(14) 0.05181(14)
C12G C 0.05181(14) 0.64723(14) 0.14359(14)
C12V C 0.14359(14) 0.44819(14) 0.14723(14)
C13S C -0.09209(14) 0.35557(14) -0.18632(13)
C13J C -0.18632(13) 0.59209(14) -0.14443(14)
C13L C -0.14443(14) 0.68632(13) 0.09209(14)
C13G C 0.09209(14) 0.64443(14) 0.18632(13)
C13V C 0.18632(13) 0.40791(14) 0.14443(14)
C14V C 0.16648(16) 0.68179(17) 0.23654(15)
C14G C -0.18179(17) 0.73654(15) 0.16648(16)
C14L C -0.23654(15) 0.66648(16) -0.18179(17)
C14J C -0.16648(16) 0.31821(17) -0.23654(15)
C14S C 0.18179(17) 0.26346(15) -0.16648(16)
H14V H 0.1995 0.6628 0.2261
H14G H -0.1628 0.7261 0.1995
H14L H -0.2261 0.6995 -0.1628
H14J H -0.1995 0.3372 -0.2261
H14S H 0.1628 0.2739 -0.1995
H15V H 0.1761 0.7186 0.2469
H15G H -0.2186 0.7469 0.1761
H15L H -0.2469 0.6761 -0.2186
H15J H -0.1761 0.2814 -0.2469
H15S H 0.2186 0.2531 -0.1761
C15V C 0.12052(15) 0.59921(16) 0.26513(15)
C15G C -0.09921(16) 0.76513(15) 0.12052(15)
C15L C -0.26513(15) 0.62052(15) -0.09921(16)
C15J C -0.12052(15) 0.40079(16) -0.26513(15)
C15S C 0.09921(16) 0.23487(15) -0.12052(15)
H16V H 0.1005 0.5824 0.2947
H16G H -0.0824 0.7947 0.1005
H16L H -0.2947 0.6005 -0.0824
H16J H -0.1005 0.4176 -0.2947
H16S H 0.0824 0.2053 -0.1005
H17V H 0.1512 0.5761 0.2564
H17G H -0.0761 0.7564 0.1512
H17L H -0.2564 0.6512 -0.0761
H17J H -0.1512 0.4239 -0.2564
H17S H 0.0761 0.2436 -0.1512
C16V C 0.14052(16) 0.65371(17) 0.28272(16)
C16G C -0.15371(17) 0.78272(16) 0.14052(16)
C16L C -0.28272(16) 0.64052(16) -0.15371(17)
C16J C -0.14052(16) 0.34629(17) -0.28272(16)
C16S C 0.15371(17) 0.21728(16) -0.14052(16)
H18V H 0.1666 0.6495 0.3120
H18G H -0.1495 0.8120 0.1666
H18L H -0.3120 0.6666 -0.1495
H18J H -0.1666 0.3505 -0.3120
H18S H 0.1495 0.1880 -0.1666
H19V H 0.1103 0.6753 0.2961
H19G H -0.1753 0.7961 0.1103
H19L H -0.2961 0.6103 -0.1753
H19J H -0.1103 0.3247 -0.2961
H19S H 0.1753 0.2039 -0.1103
C17S C 0.01654(13) 0.39064(13) -0.10576(13)
C17J C -0.10576(13) 0.48346(13) -0.10936(13)
C17L C -0.10936(13) 0.60576(13) -0.01654(13)
C17G C -0.01654(13) 0.60936(13) 0.10576(13)
C17V C 0.10576(13) 0.51654(13) 0.10936(13)
H20S H 0.0427 0.4163 -0.0964
H20J H -0.0964 0.4573 -0.0837
H20L H -0.0837 0.5964 -0.0427
H20G H -0.0427 0.5837 0.0964
H20V H 0.0964 0.5427 0.0837
C18S C -0.03073(13) 0.31744(14) -0.10674(14)
C18J C -0.10674(14) 0.53073(13) -0.18256(14)
C18L C -0.18256(14) 0.60674(14) 0.03073(13)
C18G C 0.03073(13) 0.68256(14) 0.10674(14)
C18V C 0.10674(14) 0.46927(13) 0.18256(14)
C19S C -0.03711(15) 0.26279(14) -0.08597(14)
C19J C -0.08597(14) 0.53711(15) -0.23721(14)
C19L C -0.23721(14) 0.58597(14) 0.03711(15)
C19G C 0.03711(15) 0.73721(14) 0.08597(14)
C19V C 0.08597(14) 0.46289(15) 0.23721(14)
C20V C 0.07846(19) 0.41645(18) 0.32159(16)
C20G C 0.08355(18) 0.82159(16) 0.07846(19)
C20L C -0.32159(16) 0.57846(19) 0.08355(18)
C20J C -0.07846(19) 0.58355(18) -0.32159(16)
C20S C -0.08355(18) 0.17841(16) -0.07846(19)
H21V H 0.0463 0.3937 0.3195
H21G H 0.1063 0.8195 0.0463
H21L H -0.3195 0.5463 0.1063
H21J H -0.0463 0.6063 -0.3195
H21S H -0.1063 0.1805 -0.0463
H22V H 0.1045 0.3989 0.3454
H22G H 0.1011 0.8454 0.1045
H22L H -0.3454 0.6045 0.1011
H22J H -0.1045 0.6011 -0.3454
H22S H -0.1011 0.1546 -0.1045
C21V C 0.0639(2) 0.46976(19) 0.34355(18)
C21G C 0.03024(19) 0.84355(18) 0.0639(2)
C21L C -0.34355(18) 0.5639(2) 0.03024(19)
C21J C -0.0639(2) 0.53024(19) -0.34355(18)
C21S C -0.03024(19) 0.15645(18) -0.0639(2)
H23V H 0.0452 0.4653 0.3780
H23G H 0.0347 0.8780 0.0452
H23L H -0.3780 0.5452 0.0347
H23J H -0.0452 0.5347 -0.3780
H23S H -0.0347 0.1220 -0.0452
H24V H 0.0966 0.4908 0.3500
H24G H 0.0092 0.8500 0.0966
H24L H -0.3500 0.5966 0.0092
H24J H -0.0966 0.5092 -0.3500
H24S H -0.0092 0.1500 -0.0966
C22V C 0.02829(16) 0.49891(17) 0.30467(15)
C22G C 0.00109(17) 0.80467(15) 0.02829(16)
C22L C -0.30467(15) 0.52829(16) 0.00109(17)
C22J C -0.02829(16) 0.50109(17) -0.30467(15)
C22S C -0.00109(17) 0.19533(15) -0.02829(16)
H25V H 0.0222 0.5357 0.3175
H25G H -0.0357 0.8175 0.0222
H25L H -0.3175 0.5222 -0.0357
H25J H -0.0222 0.4643 -0.3175
H25S H 0.0357 0.1825 -0.0222
H26V H -0.0066 0.4807 0.3026
H26G H 0.0193 0.8026 -0.0066
H26L H -0.3026 0.4934 0.0193
H26J H 0.0066 0.5193 -0.3026
H26S H -0.0193 0.1974 0.0066
N1G N 0.08595(12) 0.65968(12) -0.17203(12)
N1J N 0.17203(12) 0.58595(12) -0.15968(12)
N1V N -0.17203(12) 0.41405(12) 0.15968(12)
N1L N -0.15968(12) 0.32797(12) 0.08595(12)
N1S N -0.08595(12) 0.34032(12) 0.17203(12)
N2S N 0.00048(12) 0.24865(12) -0.05276(12)
N2J N -0.05276(12) 0.49952(12) -0.25135(12)
N2L N -0.25135(12) 0.55276(12) -0.00048(12)
N2G N -0.00048(12) 0.75135(12) 0.05276(12)
N2V N 0.05276(12) 0.50048(12) 0.25135(12)
N3S N 0.01270(11) 0.34236(11) -0.08446(11)
N3J N -0.08446(11) 0.48730(11) -0.15764(11)
N3L N -0.15764(11) 0.58446(11) -0.01270(11)
N3G N -0.01270(11) 0.65764(11) 0.08446(11)
N3V N 0.08446(11) 0.51270(11) 0.15764(11)
N4S N 0.10198(11) 0.35794(11) -0.02129(11)
N4J N -0.02129(11) 0.39802(11) -0.14206(11)
N4L N -0.14206(11) 0.52129(11) -0.10198(11)
N4G N -0.10198(11) 0.64206(11) 0.02129(11)
N4V N 0.02129(11) 0.60198(11) 0.14206(11)
N5G N -0.00500(11) 0.67247(11) -0.02209(11)
N5J N 0.02209(11) 0.49500(11) -0.17247(11)
N5V N -0.02209(11) 0.50500(11) 0.17247(11)
N5L N -0.17247(11) 0.47791(11) -0.00500(11)
N5S N 0.00500(11) 0.32753(11) 0.02209(11)
N6S N 0.10403(12) 0.28165(11) -0.08582(11)
N6J N -0.08582(11) 0.39597(12) -0.21835(11)
N6L N -0.21835(11) 0.58582(11) -0.10403(12)
N6G N -0.10403(12) 0.71835(11) 0.08582(11)
N6V N 0.08582(11) 0.60403(12) 0.21835(11)
N7G N -0.08255(12) 0.73724(12) -0.02513(12)
N7J N 0.02513(12) 0.41745(12) -0.23724(12)
N7V N -0.02513(12) 0.58255(12) 0.23724(12)
N7L N -0.23724(12) 0.47487(12) -0.08255(12)
N7S N 0.08255(12) 0.26276(12) 0.02513(12)
N8G N 0.05677(11) 0.64374(11) -0.07647(11)
N8J N 0.07647(11) 0.55677(11) -0.14374(11)
N8V N -0.07647(11) 0.44323(11) 0.14374(11)
N8L N -0.14374(11) 0.42353(11) 0.05677(11)
N8S N -0.05677(11) 0.35626(11) 0.07647(11)
N9V N 0.19188(12) 0.37076(12) 0.18284(12)
N9G N 0.12924(12) 0.68284(12) 0.19188(12)
N9L N -0.18284(12) 0.69188(12) 0.12924(12)
N9J N -0.19188(12) 0.62924(12) -0.18284(12)
N9S N -0.12924(12) 0.31716(12) -0.19188(12)
H27V H 0.1640 0.3619 0.2036
H27G H 0.1381 0.7036 0.1640
H27L H -0.2036 0.6640 0.1381
H27J H -0.1640 0.6381 -0.2036
H27S H -0.1381 0.2964 -0.1640
N10J N 0.11840(14) 0.41877(14) -0.24556(15)
N10G N -0.08123(14) 0.74556(15) -0.11840(14)
N10V N -0.11840(14) 0.58123(14) 0.24556(15)
N10S N 0.08123(14) 0.25444(15) 0.11840(14)
N10L N -0.24556(15) 0.38160(14) -0.08123(14)
H28J H 0.1505 0.4286 -0.2258
H28G H -0.0714 0.7258 -0.1505
H28V H -0.1505 0.5714 0.2258
H28S H 0.0714 0.2742 0.1505
H28L H -0.2258 0.3495 -0.0714
N11J N 0.18848(14) 0.52164(15) -0.22576(15)
N11G N 0.02164(15) 0.72576(15) -0.18848(14)
N11V N -0.18848(14) 0.47836(15) 0.22576(15)
N11S N -0.02164(15) 0.27424(15) 0.18848(14)
N11L N -0.22576(15) 0.31152(14) 0.02164(15)
H29J H 0.1692 0.5105 -0.2580
H29G H 0.0105 0.7580 -0.1692
H29V H -0.1692 0.4895 0.2580
H29S H -0.0105 0.2420 0.1692
H29L H -0.2580 0.3308 0.0105
N12V N 0.10155(13) 0.42266(13) 0.26845(13)
N12G N 0.07734(13) 0.76845(13) 0.10155(13)
N12L N -0.26845(13) 0.60155(13) 0.07734(13)
N12J N -0.10155(13) 0.57734(13) -0.26845(13)
N12S N -0.07734(13) 0.23155(13) -0.10155(13)
H30V H 0.1094 0.3908 0.2553
H30G H 0.1092 0.7553 0.1094
H30L H -0.2553 0.6094 0.1092
H30J H -0.1094 0.6092 -0.2553
H30S H -0.1092 0.2447 -0.1094
Cl1 Cl 0.23348(4) 0.39873(5) 0.80399(4)
Cl2 Cl 0.95664(8) 0.17243(7) 0.11213(6)
Cl3 Cl 0.5000 0.0000 0.0000
O3 O 1.0817(10) 0.0817(10) 0.0817(10)
O5 O 0.9874(15) 0.0654(16) 0.0637(16)
loop_
_geom_bond_atom_site_label_1
_geom_bond_atom_site_label_2
_geom_bond_site_symmetry_1
_geom_bond_site_symmetry_2
Co1 N2 1_555 1_555
Co2 N1 1_555 1_555
C1 H1 1_555 1_555
C2 C4 1_555 1_555
C3 C5 1_555 1_555
C4 C5 1_555 1_555
C5 N5 1_555 1_555
C6 C9 1_555 1_555
C7 H2 1_555 1_555
H3 C7 1_555 1_555
C8 H4 1_555 1_555
H5 C8 1_555 1_555
C9 H6 1_555 1_555
H7 C9 1_555 1_555
H8 C6 1_555 1_555
H9 C6 1_555 1_555
H10 C10 1_555 1_555
H11 C10 1_555 1_555
C10 C9 1_555 1_555
C11 C7 1_555 1_555
H12 C11 1_555 1_555
H13 C11 1_555 1_555
C12 C13 1_555 1_555
C13 N9 1_555 1_555
C14 H14 1_555 1_555
H15 C14 1_555 1_555
C15 H16 1_555 1_555
H17 C15 1_555 1_555
C16 C14 1_555 1_555
H18 C16 1_555 1_555
H19 C16 1_555 1_555
C17 H20 1_555 1_555
C18 C12 1_555 1_555
C19 C18 1_555 1_555
C20 H21 1_555 1_555
H22 C20 1_555 1_555
C21 C20 1_555 1_555
H23 C21 1_555 1_555
H24 C21 1_555 1_555
C22 C21 1_555 1_555
H25 C22 1_555 1_555
H26 C22 1_555 1_555
N1 C2 1_555 1_555
N2 C19 1_555 1_555
N3 Co1 1_555 1_555
N4 Co1 1_555 1_555
N5 Co1 1_555 1_555
N6 Co1 1_555 1_555
N7 Co1 1_555 1_555
N8 Co2 1_555 1_555
N9 H27 1_555 1_555
N10 C3 1_555 1_555
H28 N10 1_555 1_555
N11 C2 1_555 1_555
H29 N11 1_555 1_555
N12 C19 1_555 1_555
H30 N12 1_555 1_555
Co1S N2S 1_555 1_555
Co1J N2J 1_555 1_555
Co1L N2L 1_555 1_555
Co1G N2G 1_555 1_555
Co1V N2V 1_555 1_555
Co2V N1V 1_555 1_555
C1G H1G 1_555 1_555
C1J H1J 1_555 1_555
C1V H1V 1_555 1_555
C1L H1L 1_555 1_555
C1S H1S 1_555 1_555
C2G C4G 1_555 1_555
C2J C4J 1_555 1_555
C2V C4V 1_555 1_555
C2L C4L 1_555 1_555
C2S C4S 1_555 1_555
C3G C5G 1_555 1_555
C3J C5J 1_555 1_555
C3V C5V 1_555 1_555
C3L C5L 1_555 1_555
C3S C5S 1_555 1_555
C4G C5G 1_555 1_555
C4J C5J 1_555 1_555
C4V C5V 1_555 1_555
C4L C5L 1_555 1_555
C4S C5S 1_555 1_555
C5G N5G 1_555 1_555
C5J N5J 1_555 1_555
C5V N5V 1_555 1_555
C5L N5L 1_555 1_555
C5S N5S 1_555 1_555
C6J C9J 1_555 1_555
C6G C9G 1_555 1_555
C6V C9V 1_555 1_555
C6S C9S 1_555 1_555
C6L C9L 1_555 1_555
C7J H2J 1_555 1_555
C7G H2G 1_555 1_555
C7V H2V 1_555 1_555
C7S H2S 1_555 1_555
C7L H2L 1_555 1_555
H3J C7J 1_555 1_555
H3G C7G 1_555 1_555
H3V C7V 1_555 1_555
H3S C7S 1_555 1_555
H3L C7L 1_555 1_555
C8J H4J 1_555 1_555
C8G H4G 1_555 1_555
C8V H4V 1_555 1_555
C8S H4S 1_555 1_555
C8L H4L 1_555 1_555
H5J C8J 1_555 1_555
H5G C8G 1_555 1_555
H5V C8V 1_555 1_555
H5S C8S 1_555 1_555
H5L C8L 1_555 1_555
C9J H6J 1_555 1_555
C9G H6G 1_555 1_555
C9V H6V 1_555 1_555
C9S H6S 1_555 1_555
C9L H6L 1_555 1_555
H7J C9J 1_555 1_555
H7G C9G 1_555 1_555
H7V C9V 1_555 1_555
H7S C9S 1_555 1_555
H7L C9L 1_555 1_555
H8J C6J 1_555 1_555
H8G C6G 1_555 1_555
H8V C6V 1_555 1_555
H8S C6S 1_555 1_555
H8L C6L 1_555 1_555
H9J C6J 1_555 1_555
H9G C6G 1_555 1_555
H9V C6V 1_555 1_555
H9S C6S 1_555 1_555
H9L C6L 1_555 1_555
H10J C10J 1_555 1_555
H10G C10G 1_555 1_555
H10V C10V 1_555 1_555
H10S C10S 1_555 1_555
H10L C10L 1_555 1_555
H11J C10J 1_555 1_555
H11G C10G 1_555 1_555
H11V C10V 1_555 1_555
H11S C10S 1_555 1_555
H11L C10L 1_555 1_555
C10J C9J 1_555 1_555
C10G C9G 1_555 1_555
C10V C9V 1_555 1_555
C10S C9S 1_555 1_555
C10L C9L 1_555 1_555
C11J C7J 1_555 1_555
C11G C7G 1_555 1_555
C11V C7V 1_555 1_555
C11S C7S 1_555 1_555
C11L C7L 1_555 1_555
H12J C11J 1_555 1_555
H12G C11G 1_555 1_555
H12V C11V 1_555 1_555
H12S C11S 1_555 1_555
H12L C11L 1_555 1_555
H13J C11J 1_555 1_555
H13G C11G 1_555 1_555
H13V C11V 1_555 1_555
H13S C11S 1_555 1_555
H13L C11L 1_555 1_555
C12S C13S 1_555 1_555
C12J C13J 1_555 1_555
C12L C13L 1_555 1_555
C12G C13G 1_555 1_555
C12V N4 1_555 1_555
C13S N6J 1_555 1_555
C13J N6L 1_555 1_555
C13L N6G 1_555 1_555
C13G N6V 1_555 1_555
C13V N6 1_555 1_555
C14V H14V 1_555 1_555
C14G H14G 1_555 1_555
C14L H14L 1_555 1_555
C14J H14J 1_555 1_555
C14S N9 1_555 1_555
H14S C14S 1_555 1_555
H15V C14V 1_555 1_555
H15G C14G 1_555 1_555
H15L C14L 1_555 1_555
H15J C14J 1_555 1_555
H15S C14S 1_555 1_555
C15V H16V 1_555 1_555
C15G H16G 1_555 1_555
C15L H16L 1_555 1_555
C15J H16J 1_555 1_555
C15S H16S 1_555 1_555
H17V C15V 1_555 1_555
H17G C15G 1_555 1_555
H17L C15L 1_555 1_555
H17J C15J 1_555 1_555
H17S C15S 1_555 1_555
C16V C14V 1_555 1_555
C16G C14G 1_555 1_555
C16L C14L 1_555 1_555
C16J C14J 1_555 1_555
C16S C14S 1_555 1_555
H18V C16V 1_555 1_555
H18G C16G 1_555 1_555
H18L C16L 1_555 1_555
H18J C16J 1_555 1_555
H18S C16S 1_555 1_555
H19V C16V 1_555 1_555
H19G C16G 1_555 1_555
H19L C16L 1_555 1_555
H19J C16J 1_555 1_555
H19S C16S 1_555 1_555
C17S H20S 1_555 1_555
C17J H20J 1_555 1_555
C17L H20L 1_555 1_555
C17G H20G 1_555 1_555
C17V N4 1_555 1_555
H20V C17V 1_555 1_555
C18S C12S 1_555 1_555
C18J C12J 1_555 1_555
C18L C12L 1_555 1_555
C18G C12G 1_555 1_555
C18V C12V 1_555 1_555
C19S C18S 1_555 1_555
C19J C18J 1_555 1_555
C19L C18L 1_555 1_555
C19G C18G 1_555 1_555
C19V C18V 1_555 1_555
C20V H21V 1_555 1_555
C20G H21G 1_555 1_555
C20L H21L 1_555 1_555
C20J H21J 1_555 1_555
C20S H21S 1_555 1_555
H22V C20V 1_555 1_555
H22G C20G 1_555 1_555
H22L C20L 1_555 1_555
H22J C20J 1_555 1_555
H22S C20S 1_555 1_555
C21V C20V 1_555 1_555
C21G C20G 1_555 1_555
C21L C20L 1_555 1_555
C21J C20J 1_555 1_555
C21S C20S 1_555 1_555
H23V C21V 1_555 1_555
H23G C21G 1_555 1_555
H23L C21L 1_555 1_555
H23J C21J 1_555 1_555
H23S C21S 1_555 1_555
H24V C21V 1_555 1_555
H24G C21G 1_555 1_555
H24L C21L 1_555 1_555
H24J C21J 1_555 1_555
H24S C21S 1_555 1_555
C22V C21V 1_555 1_555
C22G C21G 1_555 1_555
C22L C21L 1_555 1_555
C22J C21J 1_555 1_555
C22S C21S 1_555 1_555
H25V C22V 1_555 1_555
H25G C22G 1_555 1_555
H25L C22L 1_555 1_555
H25J C22J 1_555 1_555
H25S C22S 1_555 1_555
H26V C22V 1_555 1_555
H26G C22G 1_555 1_555
H26L C22L 1_555 1_555
H26J C22J 1_555 1_555
H26S C22S 1_555 1_555
N1G Co2 1_555 1_555
N1J Co2 1_555 1_555
N1V C2V 1_555 1_555
N1L Co2V 1_555 1_555
N1S Co2V 1_555 1_555
N2S C19S 1_555 1_555
N2J C19J 1_555 1_555
N2L C19L 1_555 1_555
N2G C19G 1_555 1_555
N2V C19V 1_555 1_555
N3S Co1S 1_555 1_555
N3J Co1J 1_555 1_555
N3L Co1L 1_555 1_555
N3G Co1G 1_555 1_555
N3V Co1V 1_555 1_555
N4S C12 1_555 1_555
N4J Co1J 1_555 1_555
N4L Co1L 1_555 1_555
N4G Co1G 1_555 1_555
N4V Co1V 1_555 1_555
N5G Co1G 1_555 1_555
N5J Co1J 1_555 1_555
N5V Co1V 1_555 1_555
N5L Co1L 1_555 1_555
N5S Co1S 1_555 1_555
N6S C13 1_555 1_555
N6J Co1J 1_555 1_555
N6L Co1L 1_555 1_555
N6G Co1G 1_555 1_555
N6V Co1V 1_555 1_555
N7G Co1G 1_555 1_555
N7J Co1J 1_555 1_555
N7V Co1V 1_555 1_555
N7L Co1L 1_555 1_555
N7S Co1S 1_555 1_555
N8G Co2 1_555 1_555
N8J Co2 1_555 1_555
N8V Co2V 1_555 1_555
N8L Co2V 1_555 1_555
N8S Co2V 1_555 1_555
N9V C14 1_555 1_555
N9G C13G 1_555 1_555
N9L C13L 1_555 1_555
N9J C13J 1_555 1_555
N9S C13S 1_555 1_555
H27V N9V 1_555 1_555
H27G N9G 1_555 1_555
H27L N9L 1_555 1_555
H27J N9J 1_555 1_555
H27S N9S 1_555 1_555
N10J C3J 1_555 1_555
N10G C3G 1_555 1_555
N10V C3V 1_555 1_555
N10S C3S 1_555 1_555
N10L C3L 1_555 1_555
H28J N10J 1_555 1_555
H28G N10G 1_555 1_555
H28V N10V 1_555 1_555
H28S N10S 1_555 1_555
H28L N10L 1_555 1_555
N11J C2J 1_555 1_555
N11G C2G 1_555 1_555
N11V C2V 1_555 1_555
N11S C2S 1_555 1_555
N11L C2L 1_555 1_555
H29J N11J 1_555 1_555
H29G N11G 1_555 1_555
H29V N11V 1_555 1_555
H29S N11S 1_555 1_555
H29L N11L 1_555 1_555
N12V C19V 1_555 1_555
N12G C19G 1_555 1_555
N12L C19L 1_555 1_555
N12J C19J 1_555 1_555
N12S C19S 1_555 1_555
H30V N12V 1_555 1_555
H30G N12G 1_555 1_555
H30L N12L 1_555 1_555
H30J N12J 1_555 1_555
H30S N12S 1_555 1_555
C1 N5 1_555 1_555
C1 N8 1_555 1_555
C3 N7 1_555 1_555
C4 N8 1_555 1_555
C6 N7 1_555 1_555
C7 N11 1_555 1_555
C8 C11 1_555 1_555
C8 N1 1_555 1_555
C10 N10 1_555 1_555
C15 C16 1_555 1_555
C15 N6 1_555 1_555
C17 N3 1_555 1_555
C17 N4S 1_555 1_555
C18 N3 1_555 1_555
C20 N12 1_555 1_555
C22 N2 1_555 1_555
Co1S N4S 1_555 1_555
Co1S N6S 1_555 1_555
C1G N5G 1_555 1_555
C1G N8G 1_555 1_555
C1J N5J 1_555 1_555
C1J N8J 1_555 1_555
C1V N5V 1_555 1_555
C1V N8V 1_555 1_555
C1L N5L 1_555 1_555
C1L N8L 1_555 1_555
C1S N5S 1_555 1_555
C1S N8S 1_555 1_555
C2G N1G 1_555 1_555
C2J N1J 1_555 1_555
C2L N1L 1_555 1_555
C2S N1S 1_555 1_555
C3G N7G 1_555 1_555
C3J N7J 1_555 1_555
C3V N7V 1_555 1_555
C3L N7L 1_555 1_555
C3S N7S 1_555 1_555
C4G N8G 1_555 1_555
C4J N8J 1_555 1_555
C4V N8V 1_555 1_555
C4L N8L 1_555 1_555
C4S N8S 1_555 1_555
C6J N7J 1_555 1_555
C6G N7G 1_555 1_555
C6V N7V 1_555 1_555
C6S N7S 1_555 1_555
C6L N7L 1_555 1_555
C7J N11J 1_555 1_555
C7G N11G 1_555 1_555
C7V N11V 1_555 1_555
C7S N11S 1_555 1_555
C7L N11L 1_555 1_555
C8J C11J 1_555 1_555
C8J N1J 1_555 1_555
C8G C11G 1_555 1_555
C8G N1G 1_555 1_555
C8V C11V 1_555 1_555
C8V N1V 1_555 1_555
C8S C11S 1_555 1_555
C8S N1S 1_555 1_555
C8L C11L 1_555 1_555
C8L N1L 1_555 1_555
C10J N10J 1_555 1_555
C10G N10G 1_555 1_555
C10V N10V 1_555 1_555
C10S N10S 1_555 1_555
C10L N10L 1_555 1_555
C12S N4J 1_555 1_555
C12J N4L 1_555 1_555
C12L N4G 1_555 1_555
C12G N4V 1_555 1_555
C12V C13V 1_555 1_555
C13V N9V 1_555 1_555
C14V N9G 1_555 1_555
C14G N9L 1_555 1_555
C14L N9J 1_555 1_555
C14J N9S 1_555 1_555
C15V C16V 1_555 1_555
C15V N6V 1_555 1_555
C15G C16G 1_555 1_555
C15G N6G 1_555 1_555
C15L C16L 1_555 1_555
C15L N6L 1_555 1_555
C15J C16J 1_555 1_555
C15J N6J 1_555 1_555
C15S C16S 1_555 1_555
C15S N6S 1_555 1_555
C17S N3S 1_555 1_555
C17S N4J 1_555 1_555
C17J N3J 1_555 1_555
C17J N4L 1_555 1_555
C17L N3L 1_555 1_555
C17L N4G 1_555 1_555
C17G N3G 1_555 1_555
C17G N4V 1_555 1_555
C17V N3V 1_555 1_555
C18S N3S 1_555 1_555
C18J N3J 1_555 1_555
C18L N3L 1_555 1_555
C18G N3G 1_555 1_555
C18V N3V 1_555 1_555
C20V N12V 1_555 1_555
C20G N12G 1_555 1_555
C20L N12L 1_555 1_555
C20J N12J 1_555 1_555
C20S N12S 1_555 1_555
C22V N2V 1_555 1_555
C22G N2G 1_555 1_555
C22L N2L 1_555 1_555
C22J N2J 1_555 1_555
C22S N2S 1_555 1_555

#END
