
#######################################################################
#
#                 Cambridge Crystallographic Data Centre
#                                CCDC 
#
#######################################################################
#
# If this CIF has been generated from an entry in the Cambridge 
# Structural Database, then it will include bibliographic, chemical, 
# crystal, experimental, refinement or atomic coordinate data resulting 
# from the CCDC's data processing and validation procedures.
#
#######################################################################

data_EWIGOH
_chemical_formula_moiety         'C132 H180 Co8 N72 12+,12(N1 O3 1-),22(H2 O1)'
_chemical_name_systematic        
"dodecakis(\m~2~-2,2'-(1H-Imidazole-4,5-diyl)bis(1,4,5,6-tetrahydropyrimidine))-octa-cobalt(iii) dodecanitrate docosahydrate"
_symmetry_cell_setting           monoclinic
_symmetry_space_group_name_H-M   'P 21/n'
_symmetry_Int_Tables_number      14
_space_group_name_Hall           '-P 2yn'
loop_
_symmetry_equiv_pos_site_id
_symmetry_equiv_pos_as_xyz
1 x,y,z
2 1/2-x,1/2+y,1/2-z
3 -x,-y,-z
4 1/2+x,1/2-y,1/2+z
_cell_length_a                   20.155(5)
_cell_length_b                   19.422(5)
_cell_length_c                   22.792(6)
_cell_angle_alpha                90
_cell_angle_beta                 90.221(2)
_cell_angle_gamma                90
_cell_volume                     8921.87
_exptl_crystal_colour            red
_exptl_crystal_description       polyhedra
_cell_formula_units_Z            2
loop_
_atom_site_label
_atom_site_type_symbol
_atom_site_fract_x
_atom_site_fract_y
_atom_site_fract_z
Co1 Co 0.92925(5) 1.20825(5) 1.13443(4)
Co2 Co 0.98860(5) 0.92363(5) 1.22050(4)
Co3 Co 1.22431(5) 0.91349(5) 1.06431(5)
Co4 Co 1.16669(5) 1.19569(5) 0.97816(4)
C1 C 1.0993(3) 0.9416(3) 1.1326(3)
H1 H 1.0916 0.9870 1.1216
C2 C 1.1408(3) 0.8380(3) 1.1354(3)
C3 C 1.0898(3) 0.8421(3) 1.1764(3)
C4 C 1.0577(3) 0.7998(3) 1.2207(3)
C5 C 1.0501(4) 0.6966(4) 1.2805(3)
H2 H 1.0570 0.6480 1.2729
H3 H 1.0690 0.7075 1.3186
C6 C 0.9782(4) 0.7123(4) 1.2803(4)
H4 H 0.9585 0.6960 1.2440
H5 H 0.9570 0.6882 1.3125
C7 C 0.9659(4) 0.7887(3) 1.2864(3)
H6 H 0.9773 0.8031 1.3259
H7 H 0.9191 0.7980 1.2802
C8 C 1.1895(3) 0.7887(3) 1.1134(3)
C9 C 1.2900(4) 0.7733(3) 1.0603(3)
H8 H 1.2788 0.7618 1.0201
H9 H 1.3318 0.7981 1.0602
C10 C 1.2976(4) 0.7082(3) 1.0954(3)
H10 H 1.3293 0.6781 1.0764
H11 H 1.3144 0.7192 1.1343
C11 C 1.2315(4) 0.6717(3) 1.1008(4)
H12 H 1.2353 0.6340 1.1285
H13 H 1.2185 0.6530 1.0630
C12 C 0.9474(3) 1.0558(3) 1.1589(3)
H14 H 0.9201 1.0379 1.1297
C13 C 1.0166(3) 1.0636(3) 1.2321(3)
C14 C 1.0006(3) 1.1289(3) 1.2139(3)
C15 C 1.0590(4) 1.0290(3) 1.2753(3)
C16 C 1.0875(4) 0.9237(4) 1.3221(3)
H15 H 1.0616 0.8858 1.3376
H16 H 1.1255 0.9046 1.3019
C17 C 1.1114(4) 0.9691(3) 1.3728(3)
H17 H 1.1412 0.9430 1.3979
H18 H 1.0738 0.9835 1.3962
C18 C 1.1469(4) 1.0315(4) 1.3491(4)
H19 H 1.1892 1.0178 1.3325
H20 H 1.1555 1.0638 1.3807
C19 C 1.0116(4) 1.2005(3) 1.2318(3)
C20 C 1.0554(5) 1.2868(4) 1.2998(4)
H21 H 1.0207 1.3021 1.3262
H22 H 1.0976 1.2905 1.3202
C21 C 1.0561(5) 1.3307(4) 1.2462(4)
H23 H 1.0578 1.3787 1.2577
H24 H 1.0957 1.3207 1.2237
C22 C 0.9957(4) 1.3192(3) 1.2077(3)
H25 H 1.0017 1.3431 1.1708
H26 H 0.9570 1.3385 1.2268
C23 C 1.0529(3) 1.1759(3) 1.0637(3)
H27 H 1.0656 1.1347 1.0811
C24 C 0.9991(3) 1.2701(3) 1.0444(3)
C25 C 1.0502(3) 1.2643(3) 1.0050(3)
C26 C 0.9472(4) 1.3188(3) 1.0592(3)
C27 C 0.8503(4) 1.3419(4) 1.1158(3)
H28 H 0.8124 1.3132 1.1251
H29 H 0.8615 1.3685 1.1505
C28 C 0.8322(5) 1.3902(5) 1.0663(5)
H30 H 0.7991 1.4227 1.0798
H31 H 0.8131 1.3640 1.0342
C29 C 0.8908(4) 1.4283(4) 1.0450(4)
H32 H 0.9069 1.4590 1.0754
H33 H 0.8787 1.4558 1.0111
C30 C 1.0803(4) 1.3031(3) 0.9568(3)
C31 C 1.0771(4) 1.3911(4) 0.8806(3)
H34 H 1.0664 1.3700 0.8432
H35 H 1.0605 1.4380 0.8803
C32 C 1.1508(4) 1.3912(3) 0.8899(3)
H36 H 1.1723 1.4127 0.8566
H37 H 1.1616 1.4179 0.9247
C33 C 1.1765(4) 1.3184(3) 0.8972(3)
H38 H 1.2235 1.3195 0.9066
H39 H 1.1708 1.2933 0.8608
C34 C 1.1782(3) 1.0447(3) 1.0070(3)
H40 H 1.1549 1.0262 0.9754
C35 C 1.2353(3) 1.0532(3) 1.0884(3)
C36 C 1.2251(3) 1.1186(3) 1.0664(3)
C37 C 1.2648(4) 1.0183(3) 1.1392(3)
C38 C 1.2983(4) 0.9109(3) 1.1801(3)
H41 H 1.2798 0.8648 1.1796
H42 H 1.3459 0.9071 1.1744
C39 C 1.2847(4) 0.9443(4) 1.2394(3)
H43 H 1.3068 0.9186 1.2703
H44 H 1.2374 0.9441 1.2472
C40 C 1.3101(4) 1.0177(4) 1.2386(3)
H45 H 1.3582 1.0177 1.2378
H46 H 1.2959 1.0415 1.2738
C41 C 1.2425(3) 1.1899(3) 1.0796(3)
C42 C 1.3037(4) 1.2779(3) 1.1322(3)
H47 H 1.3174 1.2848 1.1727
H48 H 1.3402 1.2910 1.1070
C43 C 1.2441(4) 1.3213(3) 1.1188(3)
H49 H 1.2090 1.3107 1.1464
H50 H 1.2554 1.3696 1.1233
C44 C 1.2196(4) 1.3084(3) 1.0567(3)
H51 H 1.2508 1.3280 1.0291
H52 H 1.1772 1.3312 1.0511
C45 C 1.2248(3) 0.8793(3) 0.9465(3)
C46 C 1.2906(4) 0.9049(3) 0.9587(3)
C47 C 1.2421(3) 1.1497(3) 0.8843(3)
C48 C 1.4025(5) 0.9398(7) 0.9272(4)
C49 C 1.3671(4) 0.9470(4) 1.0313(4)
C50 C 1.3628(4) 1.1427(4) 0.8687(4)
H53 H 1.3804 1.1042 0.8911
H54 H 1.3901 1.1487 0.8342
C51 C 1.3644(4) 1.2073(5) 0.9056(4)
H55 H 1.3554 1.2469 0.8808
H56 H 1.4084 1.2130 0.9224
C52 C 1.3145(4) 1.2045(4) 0.9537(3)
H57 H 1.3129 1.2489 0.9732
H58 H 1.3284 1.1705 0.9824
C53 C 1.0695(3) 1.1342(3) 0.8914(3)
H59 H 1.0305 1.1408 0.9123
C54 C 1.1240(3) 0.8572(3) 0.9762(3)
H60 H 1.0863 0.8548 0.9996
C55 C 1.1377(3) 1.1061(3) 0.8218(3)
C56 C 1.1743(3) 1.1329(3) 0.8681(3)
C57 C 1.1903(3) 0.8474(3) 0.9021(3)
C58 C 1.2024(4) 0.8212(4) 0.8429(3)
C59 C 0.8433(4) 1.2305(4) 1.2431(3)
H61 H 0.8813 1.2154 1.2660
H62 H 0.8430 1.2804 1.2430
C60 C 0.7812(5) 1.2046(6) 1.2710(4)
H63 H 0.7736 1.2315 1.3062
H64 H 0.7889 1.1574 1.2833
C61 C 0.7225(5) 1.2060(6) 1.2371(4)
H65 H 0.6884 1.1789 1.2562
H66 H 0.7066 1.2530 1.2336
C62 C 1.1467(4) 1.0832(4) 0.7612(3)
C63 C 1.0944(4) 1.0414(4) 0.6737(3)
H67 H 1.0641 1.0029 0.6696
H68 H 1.0802 1.0773 0.6470
C64 C 1.1619(5) 1.0191(8) 0.6580(5)
H69 H 1.1675 0.9725 0.6726
H70 H 1.1638 1.0166 0.6156
C65 C 1.2153(5) 1.0562(8) 0.6763(4)
H71 H 1.2219 1.0946 0.6498
H72 H 1.2545 1.0273 0.6747
C66 C 1.4030(11) 0.9759(19) 0.9775(8)
H73 H 1.000(5) 1.354(5) 0.931(5)
H74 H 1.258(5) 1.094(5) 1.195(4)
H75 H 1.153(5) 0.707(6) 1.136(5)
H76 H 0.980(5) 1.397(6) 1.024(5)
H77 H 1.315(6) 0.918(6) 0.886(5)
H78 H 1.288(5) 1.092(5) 0.831(5)
N1 N 1.0845(3) 1.2050(2) 1.0185(2)
N2 N 1.0014(3) 1.2132(2) 1.0805(2)
N3 N 0.9073(3) 1.2976(3) 1.0997(2)
N4 N 0.9428(3) 1.3794(3) 1.0291(3)
N5 N 1.0459(3) 1.3522(3) 0.9284(2)
N6 N 1.1403(3) 1.2832(2) 0.9444(2)
N7 N 1.2480(3) 1.1868(3) 0.9320(2)
N8 N 1.3345(4) 0.9154(5) 0.9158(3)
N9 N 1.3013(3) 0.9191(3) 1.0136(3)
N10 N 1.2936(3) 1.1282(3) 0.8511(3)
N11 N 1.1826(3) 0.8839(2) 0.9937(2)
N12 N 1.1882(3) 1.1121(3) 1.0158(2)
N13 N 1.2063(3) 1.0078(2) 1.0496(2)
N14 N 1.2693(3) 0.9512(3) 1.1325(2)
N15 N 1.2840(3) 1.0531(3) 1.1865(2)
N16 N 1.2861(3) 1.2046(3) 1.1224(3)
N17 N 1.2120(3) 1.2348(3) 1.0449(2)
N18 N 0.9843(3) 1.2457(3) 1.1963(2)
N19 N 1.0435(3) 1.2144(3) 1.2824(3)
N20 N 1.1058(3) 1.0646(3) 1.3037(3)
N21 N 1.0465(3) 0.9632(3) 1.2801(2)
N22 N 1.0644(3) 0.9073(2) 1.1728(2)
N23 N 1.1469(3) 0.9016(2) 1.1105(2)
N24 N 1.2380(3) 0.8174(3) 1.0851(2)
N25 N 1.1817(3) 0.7210(3) 1.1211(3)
N26 N 1.0049(3) 0.8284(3) 1.2443(2)
N27 N 1.0826(3) 0.7380(3) 1.2346(2)
N28 N 1.0720(3) 1.1076(2) 0.8376(2)
N29 N 1.1297(3) 1.1501(2) 0.9116(2)
N30 N 1.0916(3) 1.0675(3) 0.7345(2)
N31 N 1.2077(3) 1.0831(4) 0.7371(3)
N32 N 0.8730(3) 1.1652(3) 1.0785(2)
N33 N 0.8497(3) 1.2050(3) 1.1822(2)
N34 N 1.2644(4) 0.8223(4) 0.8218(3)
N35 N 0.9815(3) 1.0183(3) 1.1968(2)
N36 N 0.9576(3) 1.1230(3) 1.1680(2)
Co1B Co 1.07075(5) 0.79175(5) 0.86557(4)
Co2B Co 1.01140(5) 1.07637(5) 0.77950(4)
Co3B Co 0.77569(5) 1.08651(5) 0.93569(5)
Co4B Co 0.83331(5) 0.80431(5) 1.02184(4)
C1B C 0.9007(3) 1.0584(3) 0.8674(3)
H1B H 0.9084 1.0130 0.8784
C2B C 0.8592(3) 1.1620(3) 0.8646(3)
C3B C 0.9102(3) 1.1579(3) 0.8236(3)
C4B C 0.9423(3) 1.2002(3) 0.7793(3)
C5B C 0.9499(4) 1.3034(4) 0.7195(3)
H2B H 0.9430 1.3520 0.7271
H3B H 0.9310 1.2925 0.6814
C6B C 1.0218(4) 1.2877(4) 0.7197(4)
H4B H 1.0415 1.3040 0.7560
H5B H 1.0430 1.3118 0.6875
C7B C 1.0341(4) 1.2113(3) 0.7136(3)
H6B H 1.0227 1.1969 0.6741
H7B H 1.0809 1.2020 0.7198
C8B C 0.8105(3) 1.2113(3) 0.8866(3)
C9B C 0.7100(4) 1.2267(3) 0.9397(3)
H8B H 0.7212 1.2382 0.9799
H9B H 0.6682 1.2019 0.9398
C10B C 0.7024(4) 1.2918(3) 0.9046(3)
H10B H 0.6707 1.3219 0.9236
H11B H 0.6856 1.2808 0.8657
C11B C 0.7685(4) 1.3283(3) 0.8992(4)
H12B H 0.7647 1.3660 0.8715
H13B H 0.7815 1.3470 0.9370
C12B C 1.0526(3) 0.9442(3) 0.8411(3)
H14B H 1.0799 0.9621 0.8703
C13B C 0.9834(3) 0.9364(3) 0.7679(3)
C14B C 0.9994(3) 0.8711(3) 0.7861(3)
C15B C 0.9410(4) 0.9710(3) 0.7247(3)
C16B C 0.9125(4) 1.0763(4) 0.6779(3)
H15B H 0.9384 1.1142 0.6624
H16B H 0.8745 1.0954 0.6981
C17B C 0.8886(4) 1.0309(3) 0.6272(3)
H17B H 0.8588 1.0570 0.6021
H18B H 0.9262 1.0165 0.6038
C18B C 0.8531(4) 0.9685(4) 0.6509(4)
H19B H 0.8108 0.9822 0.6675
H20B H 0.8445 0.9362 0.6193
C19B C 0.9884(4) 0.7995(3) 0.7682(3)
C20B C 0.9446(5) 0.7132(4) 0.7002(4)
H21B H 0.9793 0.6979 0.6738
H22B H 0.9024 0.7095 0.6798
C21B C 0.9439(5) 0.6693(4) 0.7538(4)
H23B H 0.9422 0.6213 0.7423
H24B H 0.9043 0.6793 0.7763
C22B C 1.0043(4) 0.6808(3) 0.7923(3)
H25B H 0.9983 0.6569 0.8292
H26B H 1.0430 0.6615 0.7732
C23B C 0.9471(3) 0.8241(3) 0.9363(3)
H27B H 0.9344 0.8653 0.9189
C24B C 1.0009(3) 0.7299(3) 0.9556(3)
C25B C 0.9498(3) 0.7357(3) 0.9950(3)
C26B C 1.0528(4) 0.6812(3) 0.9408(3)
C27B C 1.1497(4) 0.6581(4) 0.8842(3)
H28B H 1.1876 0.6868 0.8749
H29B H 1.1385 0.6315 0.8495
C28B C 1.1678(5) 0.6098(5) 0.9337(5)
H30B H 1.2009 0.5773 0.9202
H31B H 1.1869 0.6360 0.9658
C29B C 1.1092(4) 0.5717(4) 0.9550(4)
H32B H 1.0931 0.5410 0.9246
H33B H 1.1213 0.5442 0.9889
C30B C 0.9197(4) 0.6969(3) 1.0432(3)
C31B C 0.9229(4) 0.6089(4) 1.1194(3)
H34B H 0.9336 0.6300 1.1568
H35B H 0.9395 0.5620 1.1197
C32B C 0.8492(4) 0.6088(3) 1.1101(3)
H36B H 0.8277 0.5873 1.1434
H37B H 0.8384 0.5821 1.0753
C33B C 0.8235(4) 0.6816(3) 1.1028(3)
H38B H 0.7765 0.6805 1.0934
H39B H 0.8292 0.7067 1.1392
C34B C 0.8218(3) 0.9553(3) 0.9930(3)
H40B H 0.8451 0.9738 1.0246
C35B C 0.7647(3) 0.9468(3) 0.9116(3)
C36B C 0.7749(3) 0.8814(3) 0.9336(3)
C37B C 0.7352(4) 0.9817(3) 0.8608(3)
C38B C 0.7017(4) 1.0891(3) 0.8199(3)
H41B H 0.7202 1.1352 0.8204
H42B H 0.6541 1.0929 0.8256
C39B C 0.7153(4) 1.0557(4) 0.7606(3)
H43B H 0.6932 1.0814 0.7297
H44B H 0.7626 1.0559 0.7528
C40B C 0.6899(4) 0.9823(4) 0.7614(3)
H45B H 0.6418 0.9823 0.7622
H46B H 0.7041 0.9585 0.7262
C41B C 0.7575(3) 0.8101(3) 0.9204(3)
C42B C 0.6963(4) 0.7221(3) 0.8678(3)
H47B H 0.6826 0.7152 0.8273
H48B H 0.6598 0.7090 0.8930
C43B C 0.7559(4) 0.6787(3) 0.8812(3)
H49B H 0.7910 0.6893 0.8536
H50B H 0.7446 0.6304 0.8767
C44B C 0.7804(4) 0.6916(3) 0.9433(3)
H51B H 0.7492 0.6720 0.9709
H52B H 0.8228 0.6688 0.9489
C45B C 0.7752(3) 1.1207(3) 1.0535(3)
C46B C 0.7094(4) 1.0951(3) 1.0413(3)
C47B C 0.7579(3) 0.8503(3) 1.1157(3)
C48B C 0.5975(5) 1.0602(7) 1.0728(4)
C49B C 0.6329(4) 1.0530(4) 0.9687(4)
C50B C 0.6372(4) 0.8573(4) 1.1313(4)
H53B H 0.6196 0.8958 1.1089
H54B H 0.6099 0.8513 1.1658
C51B C 0.6356(4) 0.7927(5) 1.0944(4)
H55B H 0.6446 0.7531 1.1192
H56B H 0.5916 0.7870 1.0776
C52B C 0.6855(4) 0.7955(4) 1.0463(3)
H57B H 0.6871 0.7511 1.0268
H58B H 0.6716 0.8295 1.0176
C53B C 0.9305(3) 0.8658(3) 1.1086(3)
H59B H 0.9695 0.8592 1.0877
C54B C 0.8760(3) 1.1428(3) 1.0238(3)
H60B H 0.9137 1.1452 1.0004
C55B C 0.8623(3) 0.8939(3) 1.1782(3)
C56B C 0.8257(3) 0.8671(3) 1.1319(3)
C57B C 0.8097(3) 1.1526(3) 1.0979(3)
C58B C 0.7976(4) 1.1788(4) 1.1571(3)
C59B C 1.1567(4) 0.7695(4) 0.7569(3)
H61B H 1.1187 0.7846 0.7340
H62B H 1.1570 0.7196 0.7570
C60B C 1.2188(5) 0.7954(6) 0.7290(4)
H63B H 1.2264 0.7685 0.6938
H64B H 1.2111 0.8426 0.7167
C61B C 1.2775(5) 0.7940(6) 0.7629(4)
H65B H 1.3116 0.8211 0.7438
H66B H 1.2934 0.7470 0.7664
C62B C 0.8533(4) 0.9168(4) 1.2388(3)
C63B C 0.9056(4) 0.9586(4) 1.3263(3)
H67B H 0.9359 0.9971 1.3304
H68B H 0.9198 0.9227 1.3530
C64B C 0.8381(5) 0.9809(8) 1.3420(5)
H69B H 0.8325 1.0275 1.3274
H70B H 0.8362 0.9834 1.3844
C65B C 0.7847(5) 0.9438(8) 1.3237(4)
H71B H 0.7781 0.9054 1.3502
H72B H 0.7455 0.9727 1.3253
C66B C 0.5970(11) 1.0241(19) 1.0225(8)
H73B H 1.000(5) 0.646(5) 1.069(5)
H74B H 0.742(5) 0.906(5) 0.805(4)
H75B H 0.847(5) 1.293(6) 0.864(5)
H76B H 1.020(5) 0.603(6) 0.976(5)
H77B H 0.685(6) 1.082(6) 1.114(5)
H78B H 0.712(5) 0.908(5) 1.169(5)
N1B N 0.9155(3) 0.7950(2) 0.9815(2)
N2B N 0.9986(3) 0.7868(2) 0.9195(2)
N3B N 1.0927(3) 0.7024(3) 0.9003(2)
N4B N 1.0572(3) 0.6206(3) 0.9709(3)
N5B N 0.9541(3) 0.6478(3) 1.0716(2)
N6B N 0.8597(3) 0.7168(2) 1.0556(2)
N7B N 0.7520(3) 0.8132(3) 1.0680(2)
N8B N 0.6655(4) 1.0846(5) 1.0842(3)
N9B N 0.6987(3) 1.0809(3) 0.9864(3)
N10B N 0.7064(3) 0.8718(3) 1.1489(3)
N11B N 0.8174(3) 1.1161(2) 1.0063(2)
N12B N 0.8118(3) 0.8879(3) 0.9842(2)
N13B N 0.7937(3) 0.9922(2) 0.9504(2)
N14B N 0.7307(3) 1.0488(3) 0.8675(2)
N15B N 0.7160(3) 0.9469(3) 0.8135(2)
N16B N 0.7139(3) 0.7954(3) 0.8776(3)
N17B N 0.7880(3) 0.7652(3) 0.9551(2)
N18B N 1.0157(3) 0.7543(3) 0.8037(2)
N19B N 0.9565(3) 0.7856(3) 0.7176(3)
N20B N 0.8942(3) 0.9354(3) 0.6963(3)
N21B N 0.9535(3) 1.0368(3) 0.7199(2)
N22B N 0.9356(3) 1.0927(2) 0.8272(2)
N23B N 0.8531(3) 1.0984(2) 0.8895(2)
N24B N 0.7620(3) 1.1826(3) 0.9149(2)
N25B N 0.8183(3) 1.2790(3) 0.8789(3)
N26B N 0.9951(3) 1.1716(3) 0.7557(2)
N27B N 0.9174(3) 1.2620(3) 0.7654(2)
N28B N 0.9280(3) 0.8924(2) 1.1624(2)
N29B N 0.8703(3) 0.8499(2) 1.0884(2)
N30B N 0.9084(3) 0.9325(3) 1.2655(2)
N31B N 0.7923(3) 0.9169(4) 1.2629(3)
N32B N 1.1270(3) 0.8348(3) 0.9215(2)
N33B N 1.1503(3) 0.7950(3) 0.8178(2)
N34B N 0.7356(4) 1.1777(4) 1.1782(3)
N35B N 1.0185(3) 0.9817(3) 0.8032(2)
N36B N 1.0424(3) 0.8770(3) 0.8320(2)
N37 N 0.7640(4) 0.7961(3) 0.7478(3)
O1 O 0.8131(3) 0.8329(3) 0.7593(3)
O2 O 0.7688(3) 0.7329(3) 0.7395(2)
O3 O 0.7075(3) 0.8237(3) 0.7467(2)
N38 N 0.3610(5) 0.7248(4) 0.9152(4)
O4 O 0.3777(5) 0.7770(4) 0.8916(4)
O5 O 0.3054(4) 0.7030(4) 0.9224(4)
O6 O 0.4059(6) 0.6908(7) 0.9372(7)
N39 N 0.3514(4) 0.9914(4) 0.7690(3)
O7 O 0.3852(3) 0.9390(3) 0.7623(3)
O8 O 0.3029(3) 0.9893(3) 0.8048(2)
O9 O 0.3635(3) 1.0467(3) 0.7433(3)
N40 N 0.4118(5) 0.9556(4) 0.4138(4)
O10 O 0.4149(4) 0.9257(3) 0.4590(3)
O11 O 0.4611(6) 0.9512(4) 0.3781(4)
O12 O 0.3586(4) 0.9918(4) 0.3996(4)
N42 N 0.4770(7) 0.3757(9) 0.8888(9)
O16 O 0.5305(5) 0.3473(5) 0.8962(4)
O17 O 0.4595(18) 0.4178(17) 0.9251(14)
O18 O 0.4281(11) 0.3664(12) 0.8586(9)
N43 N 0.0784(7) 0.6326(8) 0.4371(6)
O19 O 0.0592(10) 0.5917(10) 0.4746(8)
O20 O 0.0632(9) 0.6945(8) 0.4422(8)
O21 O 0.1059(3) 0.6086(3) 0.3979(3)
O22 O 0.4994(9) 0.8856(9) 0.0825(8)
O23 O 0.4422(6) 0.3399(6) 0.0475(5)
O24 O 0.0837(3) 0.6148(3) 0.1366(2)
O25 O 0.5411(13) 0.2197(13) 0.9510(12)
O26 O 0.6625(6) 0.4185(5) 1.0009(5)
O28 O 0.5000 0.5000 1.0000
O29 O 0.5160(3) 0.9719(3) 0.7264(3)
O30 O 0.5365(4) 1.0162(5) 0.8494(4)
O34 O 0.2461(5) 0.9813(5) 0.4882(5)
N41? N 0.0000 0.0000 1.0000
O13? O 0.0163(10) -0.0175(10) 0.9503(7)
O14? O -0.0130(12) -0.0407(12) 1.0376(8)
O15? O 0.0025(10) 0.0583(7) 1.0114(12)
O27? O 0.4701(8) 0.5633(8) 1.0004(7)
O31? O 0.3937(17) 0.9155(17) 0.3632(15)
O32? O 0.467(2) 1.002(3) 0.444(2)
O33? O 0.250(2) 0.992(2) 0.454(2)
O35? O 0.3691(15) 0.3798(14) 0.8983(13)
O36? O 0.3384(9) 0.3792(8) 0.9575(8)
O37? O 0.3040(14) 0.3996(14) 0.9361(12)
O38? O 0.3637(12) 0.3735(12) 0.9850(11)
O39? O 0.550(3) 0.253(3) 0.950(2)
C67? C 0.5796(8) 1.0829(14) 1.0111(9)
O40? O 0.5516(13) 0.9837(14) 0.8504(11)
loop_
_geom_bond_atom_site_label_1
_geom_bond_atom_site_label_2
_geom_bond_site_symmetry_1
_geom_bond_site_symmetry_2
Co1 N2 1_555 1_555
Co2 N21 1_555 1_555
Co3 N9 1_555 1_555
Co4 N1 1_555 1_555
C1 H1 1_555 1_555
C2 C3 1_555 1_555
C3 C4 1_555 1_555
C4 N26 1_555 1_555
C5 H2 1_555 1_555
H3 C5 1_555 1_555
C6 C5 1_555 1_555
H4 C6 1_555 1_555
H5 C6 1_555 1_555
C7 C6 1_555 1_555
H6 C7 1_555 1_555
H7 C7 1_555 1_555
C8 C2 1_555 1_555
C9 H8 1_555 1_555
H9 C9 1_555 1_555
C10 C9 1_555 1_555
H10 C10 1_555 1_555
H11 C10 1_555 1_555
C11 C10 1_555 1_555
H12 C11 1_555 1_555
H13 C11 1_555 1_555
C12 H14 1_555 1_555
C13 C14 1_555 1_555
C14 C19 1_555 1_555
C15 C13 1_555 1_555
C16 H15 1_555 1_555
H16 C16 1_555 1_555
C17 C16 1_555 1_555
H17 C17 1_555 1_555
H18 C17 1_555 1_555
C18 C17 1_555 1_555
H19 C18 1_555 1_555
H20 C18 1_555 1_555
C19 N18 1_555 1_555
C20 H21 1_555 1_555
H22 C20 1_555 1_555
C21 C20 1_555 1_555
H23 C21 1_555 1_555
H24 C21 1_555 1_555
C22 C21 1_555 1_555
H25 C22 1_555 1_555
H26 C22 1_555 1_555
C23 H27 1_555 1_555
C24 C25 1_555 1_555
C25 C30 1_555 1_555
C26 C24 1_555 1_555
C27 H28 1_555 1_555
H29 C27 1_555 1_555
C28 C27 1_555 1_555
H30 C28 1_555 1_555
H31 C28 1_555 1_555
C29 C28 1_555 1_555
H32 C29 1_555 1_555
H33 C29 1_555 1_555
C30 N5 1_555 1_555
C31 H34 1_555 1_555
H35 C31 1_555 1_555
C32 C31 1_555 1_555
H36 C32 1_555 1_555
H37 C32 1_555 1_555
C33 C32 1_555 1_555
H38 C33 1_555 1_555
H39 C33 1_555 1_555
C34 H40 1_555 1_555
C35 C36 1_555 1_555
C36 C41 1_555 1_555
C37 C35 1_555 1_555
C38 H41 1_555 1_555
H42 C38 1_555 1_555
C39 C38 1_555 1_555
H43 C39 1_555 1_555
H44 C39 1_555 1_555
C40 C39 1_555 1_555
H45 C40 1_555 1_555
H46 C40 1_555 1_555
C41 N16 1_555 1_555
C42 H47 1_555 1_555
H48 C42 1_555 1_555
C43 C42 1_555 1_555
H49 C43 1_555 1_555
H50 C43 1_555 1_555
C44 C43 1_555 1_555
H51 C44 1_555 1_555
H52 C44 1_555 1_555
C45 C46 1_555 1_555
C46 N8 1_555 1_555
C47 C56 1_555 1_555
C48 C66 1_555 1_555
C49 C66 1_555 1_555
C50 H53 1_555 1_555
H54 C50 1_555 1_555
C51 C50 1_555 1_555
H55 C51 1_555 1_555
H56 C51 1_555 1_555
C52 C51 1_555 1_555
H57 C52 1_555 1_555
H58 C52 1_555 1_555
C53 H59 1_555 1_555
C54 H60 1_555 1_555
C55 C56 1_555 1_555
C56 N29 1_555 1_555
C57 C45 1_555 1_555
C58 C57 1_555 1_555
C59 H61 1_555 1_555
H62 C59 1_555 1_555
C60 C59 1_555 1_555
H63 C60 1_555 1_555
H64 C60 1_555 1_555
C61 C60 1_555 1_555
H65 C61 1_555 1_555
H66 C61 1_555 1_555
C62 C55 1_555 1_555
C63 H67 1_555 1_555
H68 C63 1_555 1_555
C64 C63 1_555 1_555
H69 C64 1_555 1_555
H70 C64 1_555 1_555
C65 C64 1_555 1_555
H71 C65 1_555 1_555
H72 C65 1_555 1_555
H73 N5 1_555 1_555
H74 N15 1_555 1_555
H75 N25 1_555 1_555
H76 N4 1_555 1_555
H77 N8 1_555 1_555
H78 N10 1_555 1_555
N1 C23 1_555 1_555
N2 C23 1_555 1_555
N3 Co1 1_555 1_555
N4 C26 1_555 1_555
N5 C31 1_555 1_555
N6 Co4 1_555 1_555
N7 Co4 1_555 1_555
N8 C48 1_555 1_555
N9 C46 1_555 1_555
N10 C47 1_555 1_555
N11 Co3 1_555 1_555
N12 Co4 1_555 1_555
N13 Co3 1_555 1_555
N14 Co3 1_555 1_555
N15 C37 1_555 1_555
N16 C42 1_555 1_555
N17 Co4 1_555 1_555
N18 Co1 1_555 1_555
N19 C19 1_555 1_555
N20 C15 1_555 1_555
N21 C15 1_555 1_555
N22 Co2 1_555 1_555
N23 Co3 1_555 1_555
N24 Co3 1_555 1_555
N25 C8 1_555 1_555
N26 Co2 1_555 1_555
N27 C4 1_555 1_555
N28 C53 1_555 1_555
N29 Co4 1_555 1_555
N30 C62 1_555 1_555
N31 C62 1_555 1_555
N32 Co1 1_555 1_555
N33 Co1 1_555 1_555
N34 C58 1_555 1_555
N35 Co2 1_555 1_555
N36 Co1 1_555 1_555
N37 O1 1_555 1_555
N38 O4 1_555 1_555
N39 O7 1_555 1_555
N40 O10 1_555 1_555
N42 O16 1_555 1_555
N43 O19 1_555 1_555
O2 N37 1_555 1_555
O3 N37 1_555 1_555
O5 N38 1_555 1_555
O6 N38 1_555 1_555
O8 N39 1_555 1_555
O9 N39 1_555 1_555
O11 N40 1_555 1_555
O12 N40 1_555 1_555
O17 N42 1_555 1_555
O18 N42 1_555 1_555
O20 N43 1_555 1_555
O21 N43 1_555 1_555
Co1B N2B 1_555 1_555
Co2B N28 1_555 1_555
Co3B N9B 1_555 1_555
Co4B N1B 1_555 1_555
C1B H1B 1_555 1_555
C2B C3B 1_555 1_555
C3B C4B 1_555 1_555
C4B N26B 1_555 1_555
C5B H2B 1_555 1_555
H3B C5B 1_555 1_555
C6B C5B 1_555 1_555
H4B C6B 1_555 1_555
H5B C6B 1_555 1_555
C7B C6B 1_555 1_555
H6B C7B 1_555 1_555
H7B C7B 1_555 1_555
C8B C2B 1_555 1_555
C9B H8B 1_555 1_555
H9B C9B 1_555 1_555
C10B C9B 1_555 1_555
H10B C10B 1_555 1_555
H11B C10B 1_555 1_555
C11B C10B 1_555 1_555
H12B C11B 1_555 1_555
H13B C11B 1_555 1_555
C12B H14B 1_555 1_555
C13B C14B 1_555 1_555
C14B C19B 1_555 1_555
C15B C13B 1_555 1_555
C16B H15B 1_555 1_555
H16B C16B 1_555 1_555
C17B C16B 1_555 1_555
H17B C17B 1_555 1_555
H18B C17B 1_555 1_555
C18B C17B 1_555 1_555
H19B C18B 1_555 1_555
H20B C18B 1_555 1_555
C19B N18B 1_555 1_555
C20B H21B 1_555 1_555
H22B C20B 1_555 1_555
C21B C20B 1_555 1_555
H23B C21B 1_555 1_555
H24B C21B 1_555 1_555
C22B C21B 1_555 1_555
H25B C22B 1_555 1_555
H26B C22B 1_555 1_555
C23B H27B 1_555 1_555
C24B C25B 1_555 1_555
C25B C30B 1_555 1_555
C26B C24B 1_555 1_555
C27B H28B 1_555 1_555
H29B C27B 1_555 1_555
C28B C27B 1_555 1_555
H30B C28B 1_555 1_555
H31B C28B 1_555 1_555
C29B C28B 1_555 1_555
H32B C29B 1_555 1_555
H33B C29B 1_555 1_555
C30B N5B 1_555 1_555
C31B H34B 1_555 1_555
H35B C31B 1_555 1_555
C32B C31B 1_555 1_555
H36B C32B 1_555 1_555
H37B C32B 1_555 1_555
C33B C32B 1_555 1_555
H38B C33B 1_555 1_555
H39B C33B 1_555 1_555
C34B H40B 1_555 1_555
C35B C36B 1_555 1_555
C36B C41B 1_555 1_555
C37B C35B 1_555 1_555
C38B H41B 1_555 1_555
H42B C38B 1_555 1_555
C39B C38B 1_555 1_555
H43B C39B 1_555 1_555
H44B C39B 1_555 1_555
C40B C39B 1_555 1_555
H45B C40B 1_555 1_555
H46B C40B 1_555 1_555
C41B N16B 1_555 1_555
C42B H47B 1_555 1_555
H48B C42B 1_555 1_555
C43B C42B 1_555 1_555
H49B C43B 1_555 1_555
H50B C43B 1_555 1_555
C44B C43B 1_555 1_555
H51B C44B 1_555 1_555
H52B C44B 1_555 1_555
C45B C46B 1_555 1_555
C46B N8B 1_555 1_555
C47B C56B 1_555 1_555
C48B C66B 1_555 1_555
C49B C66B 1_555 1_555
C50B H53B 1_555 1_555
H54B C50B 1_555 1_555
C51B C50B 1_555 1_555
H55B C51B 1_555 1_555
H56B C51B 1_555 1_555
C52B C51B 1_555 1_555
H57B C52B 1_555 1_555
H58B C52B 1_555 1_555
C53B H59B 1_555 1_555
C54B N32 1_555 1_555
H60B C54B 1_555 1_555
C55B C56B 1_555 1_555
C56B N29B 1_555 1_555
C57B N32 1_555 1_555
C58B N33 1_555 1_555
C59B H61B 1_555 1_555
H62B C59B 1_555 1_555
C60B C59B 1_555 1_555
H63B C60B 1_555 1_555
H64B C60B 1_555 1_555
C61B N34 1_555 1_555
H65B C61B 1_555 1_555
H66B C61B 1_555 1_555
C62B C55B 1_555 1_555
C63B H67B 1_555 1_555
H68B C63B 1_555 1_555
C64B C63B 1_555 1_555
H69B C64B 1_555 1_555
H70B C64B 1_555 1_555
C65B C64B 1_555 1_555
H71B C65B 1_555 1_555
H72B C65B 1_555 1_555
H73B N5B 1_555 1_555
H74B N15B 1_555 1_555
H75B N25B 1_555 1_555
H76B N4B 1_555 1_555
H77B N8B 1_555 1_555
H78B N10B 1_555 1_555
N1B C23B 1_555 1_555
N2B C23B 1_555 1_555
N3B Co1B 1_555 1_555
N4B C26B 1_555 1_555
N5B C31B 1_555 1_555
N6B Co4B 1_555 1_555
N7B Co4B 1_555 1_555
N8B C48B 1_555 1_555
N9B C46B 1_555 1_555
N10B C47B 1_555 1_555
N11B Co3B 1_555 1_555
N12B Co4B 1_555 1_555
N13B Co3B 1_555 1_555
N14B Co3B 1_555 1_555
N15B C37B 1_555 1_555
N16B C42B 1_555 1_555
N17B Co4B 1_555 1_555
N18B Co1B 1_555 1_555
N19B C19B 1_555 1_555
N20B C15B 1_555 1_555
N21B Co2B 1_555 1_555
N22B Co2B 1_555 1_555
N23B Co3B 1_555 1_555
N24B Co3B 1_555 1_555
N25B C8B 1_555 1_555
N26B Co2B 1_555 1_555
N27B C4B 1_555 1_555
N28B Co2 1_555 1_555
N29B Co4B 1_555 1_555
N30B Co2 1_555 1_555
N31B C62B 1_555 1_555
N32B C54 1_555 1_555
N33B C58 1_555 1_555
N34B C61 1_555 1_555
N35B Co2B 1_555 1_555
N36B Co1B 1_555 1_555
C1 N22 1_555 1_555
C1 N23 1_555 1_555
C2 N23 1_555 1_555
C3 N22 1_555 1_555
C5 N27 1_555 1_555
C7 N26 1_555 1_555
C8 N24 1_555 1_555
C9 N24 1_555 1_555
C11 N25 1_555 1_555
C12 N35 1_555 1_555
C12 N36 1_555 1_555
C13 N35 1_555 1_555
C14 N36 1_555 1_555
C16 N21 1_555 1_555
C18 N20 1_555 1_555
C20 N19 1_555 1_555
C22 N18 1_555 1_555
C24 N2 1_555 1_555
C25 N1 1_555 1_555
C26 N3 1_555 1_555
C27 N3 1_555 1_555
C29 N4 1_555 1_555
C30 N6 1_555 1_555
C33 N6 1_555 1_555
C34 N12 1_555 1_555
C34 N13 1_555 1_555
C35 N13 1_555 1_555
C36 N12 1_555 1_555
C37 N14 1_555 1_555
C38 N14 1_555 1_555
C40 N15 1_555 1_555
C41 N17 1_555 1_555
C44 N17 1_555 1_555
C45 N11 1_555 1_555
C47 N7 1_555 1_555
C49 N9 1_555 1_555
C50 N10 1_555 1_555
C52 N7 1_555 1_555
C53 N29 1_555 1_555
C54 N11 1_555 1_555
C55 N28 1_555 1_555
C57 N32B 1_555 1_555
C59 N33 1_555 1_555
C63 N30 1_555 1_555
C65 N31 1_555 1_555
N30 Co2B 1_555 1_555
Co1B N32B 1_555 1_555
Co1B N33B 1_555 1_555
C1B N22B 1_555 1_555
C1B N23B 1_555 1_555
C2B N23B 1_555 1_555
C3B N22B 1_555 1_555
C5B N27B 1_555 1_555
C7B N26B 1_555 1_555
C8B N24B 1_555 1_555
C9B N24B 1_555 1_555
C11B N25B 1_555 1_555
C12B N35B 1_555 1_555
C12B N36B 1_555 1_555
C13B N35B 1_555 1_555
C14B N36B 1_555 1_555
C15B N21B 1_555 1_555
C16B N21B 1_555 1_555
C18B N20B 1_555 1_555
C20B N19B 1_555 1_555
C22B N18B 1_555 1_555
C24B N2B 1_555 1_555
C25B N1B 1_555 1_555
C26B N3B 1_555 1_555
C27B N3B 1_555 1_555
C29B N4B 1_555 1_555
C30B N6B 1_555 1_555
C33B N6B 1_555 1_555
C34B N12B 1_555 1_555
C34B N13B 1_555 1_555
C35B N13B 1_555 1_555
C36B N12B 1_555 1_555
C37B N14B 1_555 1_555
C38B N14B 1_555 1_555
C40B N15B 1_555 1_555
C41B N17B 1_555 1_555
C44B N17B 1_555 1_555
C45B C57B 1_555 1_555
C45B N11B 1_555 1_555
C47B N7B 1_555 1_555
C49B N9B 1_555 1_555
C50B N10B 1_555 1_555
C52B N7B 1_555 1_555
C53B N28B 1_555 1_555
C53B N29B 1_555 1_555
C54B N11B 1_555 1_555
C55B N28B 1_555 1_555
C57B C58B 1_555 1_555
C58B N34B 1_555 1_555
C59B N33B 1_555 1_555
C60B C61B 1_555 1_555
C62B N30B 1_555 1_555
C63B N30B 1_555 1_555
C65B N31B 1_555 1_555

#END
