# generated using pymatgen
data_Co8H156C134N85O79
_symmetry_space_group_name_H-M   'P 1'
_cell_length_a   19.42200000
_cell_length_b   20.15500000
_cell_length_c   22.79200000
_cell_angle_alpha   90.22100000
_cell_angle_beta   90.00000000
_cell_angle_gamma   90.00000000
_symmetry_Int_Tables_number   1
_chemical_formula_structural   Co8H156C134N85O79
_chemical_formula_sum   'Co16 H312 C268 N170 O158'
_cell_volume   8921.87137531
_cell_formula_units_Z   2
loop_
 _symmetry_equiv_pos_site_id
 _symmetry_equiv_pos_as_xyz
  1  'x, y, z'
loop_
 _atom_site_type_symbol
 _atom_site_label
 _atom_site_symmetry_multiplicity
 _atom_site_fract_x
 _atom_site_fract_y
 _atom_site_fract_z
 _atom_site_occupancy
  Co  Co1  1  0.791750  0.070750  0.865570  1.0
  Co  Co2  1  0.291750  0.429250  0.634430  1.0
  Co  Co3  1  0.208250  0.929250  0.134430  1.0
  Co  Co4  1  0.708250  0.570750  0.365570  1.0
  Co  Co5  1  0.076370  0.011400  0.779500  1.0
  Co  Co6  1  0.576370  0.488600  0.720500  1.0
  Co  Co7  1  0.923630  0.988600  0.220500  1.0
  Co  Co8  1  0.423630  0.511400  0.279500  1.0
  Co  Co9  1  0.086510  0.775690  0.935690  1.0
  Co  Co10  1  0.586510  0.724310  0.564310  1.0
  Co  Co11  1  0.913490  0.224310  0.064310  1.0
  Co  Co12  1  0.413490  0.275690  0.435690  1.0
  Co  Co13  1  0.804310  0.833310  0.021840  1.0
  Co  Co14  1  0.304310  0.666690  0.478160  1.0
  Co  Co15  1  0.195690  0.166690  0.978160  1.0
  Co  Co16  1  0.695690  0.333310  0.521840  1.0
  H  H17  1  0.013000  0.908400  0.878400  1.0
  H  H18  1  0.513000  0.591600  0.621600  1.0
  H  H19  1  0.987000  0.091600  0.121600  1.0
  H  H20  1  0.487000  0.408400  0.378400  1.0
  H  H21  1  0.352000  0.943000  0.727100  1.0
  H  H22  1  0.852000  0.557000  0.772900  1.0
  H  H23  1  0.648000  0.057000  0.272900  1.0
  H  H24  1  0.148000  0.443000  0.227100  1.0
  H  H25  1  0.292500  0.931000  0.681400  1.0
  H  H26  1  0.792500  0.569000  0.818600  1.0
  H  H27  1  0.707500  0.069000  0.318600  1.0
  H  H28  1  0.207500  0.431000  0.181400  1.0
  H  H29  1  0.304000  0.041500  0.756000  1.0
  H  H30  1  0.804000  0.458500  0.744000  1.0
  H  H31  1  0.696000  0.958500  0.244000  1.0
  H  H32  1  0.196000  0.541500  0.256000  1.0
  H  H33  1  0.311800  0.043000  0.687500  1.0
  H  H34  1  0.811800  0.457000  0.812500  1.0
  H  H35  1  0.688200  0.957000  0.312500  1.0
  H  H36  1  0.188200  0.543000  0.187500  1.0
  H  H37  1  0.196900  0.022700  0.674100  1.0
  H  H38  1  0.696900  0.477300  0.825900  1.0
  H  H39  1  0.803100  0.977300  0.325900  1.0
  H  H40  1  0.303100  0.522700  0.174100  1.0
  H  H41  1  0.202000  0.080900  0.719800  1.0
  H  H42  1  0.702000  0.419100  0.780200  1.0
  H  H43  1  0.798000  0.919100  0.280200  1.0
  H  H44  1  0.298000  0.580900  0.219800  1.0
  H  H45  1  0.238200  0.721200  0.979900  1.0
  H  H46  1  0.738200  0.778800  0.520100  1.0
  H  H47  1  0.761800  0.278800  0.020100  1.0
  H  H48  1  0.261800  0.221200  0.479900  1.0
  H  H49  1  0.201900  0.668200  0.939800  1.0
  H  H50  1  0.701900  0.831800  0.560200  1.0
  H  H51  1  0.798100  0.331800  0.060200  1.0
  H  H52  1  0.298100  0.168200  0.439800  1.0
  H  H53  1  0.321900  0.670700  0.923600  1.0
  H  H54  1  0.821900  0.829300  0.576400  1.0
  H  H55  1  0.678100  0.329300  0.076400  1.0
  H  H56  1  0.178100  0.170700  0.423600  1.0
  H  H57  1  0.280800  0.685600  0.865700  1.0
  H  H58  1  0.780800  0.814400  0.634300  1.0
  H  H59  1  0.719200  0.314400  0.134300  1.0
  H  H60  1  0.219200  0.185600  0.365700  1.0
  H  H61  1  0.366000  0.764700  0.871500  1.0
  H  H62  1  0.866000  0.735300  0.628500  1.0
  H  H63  1  0.634000  0.235300  0.128500  1.0
  H  H64  1  0.134000  0.264700  0.371500  1.0
  H  H65  1  0.347000  0.781500  0.937000  1.0
  H  H66  1  0.847000  0.718500  0.563000  1.0
  H  H67  1  0.653000  0.218500  0.063000  1.0
  H  H68  1  0.153000  0.281500  0.437000  1.0
  H  H69  1  0.962100  0.079900  0.870300  1.0
  H  H70  1  0.462100  0.420100  0.629700  1.0
  H  H71  1  0.037900  0.920100  0.129700  1.0
  H  H72  1  0.537900  0.579900  0.370300  1.0
  H  H73  1  0.114200  0.938400  0.662400  1.0
  H  H74  1  0.614200  0.561600  0.837600  1.0
  H  H75  1  0.885800  0.061600  0.337600  1.0
  H  H76  1  0.385800  0.438400  0.162400  1.0
  H  H77  1  0.095400  0.874500  0.698100  1.0
  H  H78  1  0.595400  0.625500  0.801900  1.0
  H  H79  1  0.904600  0.125500  0.301900  1.0
  H  H80  1  0.404600  0.374500  0.198100  1.0
  H  H81  1  0.057000  0.858800  0.602100  1.0
  H  H82  1  0.557000  0.641200  0.897900  1.0
  H  H83  1  0.943000  0.141200  0.397900  1.0
  H  H84  1  0.443000  0.358800  0.102100  1.0
  H  H85  1  0.016500  0.926200  0.603800  1.0
  H  H86  1  0.516500  0.573800  0.896200  1.0
  H  H87  1  0.983500  0.073800  0.396200  1.0
  H  H88  1  0.483500  0.426200  0.103800  1.0
  H  H89  1  0.982200  0.810800  0.667500  1.0
  H  H90  1  0.482200  0.689200  0.832500  1.0
  H  H91  1  0.017800  0.189200  0.332500  1.0
  H  H92  1  0.517800  0.310800  0.167500  1.0
  H  H93  1  0.936200  0.844500  0.619300  1.0
  H  H94  1  0.436200  0.655500  0.880700  1.0
  H  H95  1  0.063800  0.155500  0.380700  1.0
  H  H96  1  0.563800  0.344500  0.119300  1.0
  H  H97  1  0.697900  0.979300  0.673800  1.0
  H  H98  1  0.197900  0.520700  0.826200  1.0
  H  H99  1  0.302100  0.020700  0.326200  1.0
  H  H100  1  0.802100  0.479300  0.173800  1.0
  H  H101  1  0.709500  0.902400  0.679800  1.0
  H  H102  1  0.209500  0.597600  0.820200  1.0
  H  H103  1  0.290500  0.097600  0.320200  1.0
  H  H104  1  0.790500  0.402400  0.179800  1.0
  H  H105  1  0.621300  0.942200  0.742300  1.0
  H  H106  1  0.121300  0.557800  0.757700  1.0
  H  H107  1  0.378700  0.057800  0.257700  1.0
  H  H108  1  0.878700  0.442200  0.242300  1.0
  H  H109  1  0.679300  0.904300  0.776300  1.0
  H  H110  1  0.179300  0.595700  0.723700  1.0
  H  H111  1  0.320700  0.095700  0.223700  1.0
  H  H112  1  0.820700  0.404300  0.276300  1.0
  H  H113  1  0.656900  0.998300  0.829200  1.0
  H  H114  1  0.156900  0.501700  0.670800  1.0
  H  H115  1  0.343100  0.001700  0.170800  1.0
  H  H116  1  0.843100  0.498300  0.329200  1.0
  H  H117  1  0.661500  0.043000  0.773200  1.0
  H  H118  1  0.161500  0.457000  0.726800  1.0
  H  H119  1  0.338500  0.957000  0.226800  1.0
  H  H120  1  0.838500  0.543000  0.273200  1.0
  H  H121  1  0.865300  0.934400  0.918900  1.0
  H  H122  1  0.365300  0.565600  0.581100  1.0
  H  H123  1  0.134700  0.065600  0.081100  1.0
  H  H124  1  0.634700  0.434400  0.418900  1.0
  H  H125  1  0.686800  0.187600  0.874900  1.0
  H  H126  1  0.186800  0.312400  0.625100  1.0
  H  H127  1  0.313200  0.812400  0.125100  1.0
  H  H128  1  0.813200  0.687600  0.374900  1.0
  H  H129  1  0.631500  0.138500  0.849500  1.0
  H  H130  1  0.131500  0.361500  0.650500  1.0
  H  H131  1  0.368500  0.861500  0.150500  1.0
  H  H132  1  0.868500  0.638500  0.349500  1.0
  H  H133  1  0.577300  0.200900  0.920200  1.0
  H  H134  1  0.077300  0.299100  0.579800  1.0
  H  H135  1  0.422700  0.799100  0.079800  1.0
  H  H136  1  0.922700  0.700900  0.420200  1.0
  H  H137  1  0.636000  0.186900  0.965800  1.0
  H  H138  1  0.136000  0.313100  0.534200  1.0
  H  H139  1  0.364000  0.813100  0.034200  1.0
  H  H140  1  0.864000  0.686900  0.465800  1.0
  H  H141  1  0.541000  0.093100  0.924600  1.0
  H  H142  1  0.041000  0.406900  0.575400  1.0
  H  H143  1  0.459000  0.906900  0.075400  1.0
  H  H144  1  0.959000  0.593100  0.424600  1.0
  H  H145  1  0.544200  0.121300  0.988900  1.0
  H  H146  1  0.044200  0.378700  0.511100  1.0
  H  H147  1  0.455800  0.878700  0.011100  1.0
  H  H148  1  0.955800  0.621300  0.488900  1.0
  H  H149  1  0.630000  0.933600  0.156800  1.0
  H  H150  1  0.130000  0.566400  0.343200  1.0
  H  H151  1  0.370000  0.066400  0.843200  1.0
  H  H152  1  0.870000  0.433600  0.656800  1.0
  H  H153  1  0.562000  0.939500  0.119700  1.0
  H  H154  1  0.062000  0.560500  0.380300  1.0
  H  H155  1  0.438000  0.060500  0.880300  1.0
  H  H156  1  0.938000  0.439500  0.619700  1.0
  H  H157  1  0.587300  0.827700  0.143400  1.0
  H  H158  1  0.087300  0.672300  0.356600  1.0
  H  H159  1  0.412700  0.172300  0.856600  1.0
  H  H160  1  0.912700  0.327700  0.643400  1.0
  H  H161  1  0.582100  0.838400  0.075300  1.0
  H  H162  1  0.082100  0.661600  0.424700  1.0
  H  H163  1  0.417900  0.161600  0.924700  1.0
  H  H164  1  0.917900  0.338400  0.575300  1.0
  H  H165  1  0.680500  0.776500  0.093400  1.0
  H  H166  1  0.180500  0.723500  0.406600  1.0
  H  H167  1  0.319500  0.223500  0.906600  1.0
  H  H168  1  0.819500  0.276500  0.593400  1.0
  H  H169  1  0.706700  0.829200  0.139200  1.0
  H  H170  1  0.206700  0.670800  0.360800  1.0
  H  H171  1  0.293300  0.170800  0.860800  1.0
  H  H172  1  0.793300  0.329200  0.639200  1.0
  H  H173  1  0.973800  0.845100  0.024600  1.0
  H  H174  1  0.473800  0.654900  0.475400  1.0
  H  H175  1  0.026200  0.154900  0.975400  1.0
  H  H176  1  0.526200  0.345100  0.524600  1.0
  H  H177  1  0.135200  0.720200  0.820400  1.0
  H  H178  1  0.635200  0.779800  0.679600  1.0
  H  H179  1  0.864800  0.279800  0.179600  1.0
  H  H180  1  0.364800  0.220200  0.320400  1.0
  H  H181  1  0.092900  0.654100  0.825600  1.0
  H  H182  1  0.592900  0.845900  0.674400  1.0
  H  H183  1  0.907100  0.345900  0.174400  1.0
  H  H184  1  0.407100  0.154100  0.325600  1.0
  H  H185  1  0.081400  0.693200  0.729700  1.0
  H  H186  1  0.581400  0.806800  0.770300  1.0
  H  H187  1  0.918600  0.306800  0.270300  1.0
  H  H188  1  0.418600  0.193200  0.229700  1.0
  H  H189  1  0.055900  0.762600  0.752800  1.0
  H  H190  1  0.555900  0.737400  0.747200  1.0
  H  H191  1  0.944100  0.237400  0.247200  1.0
  H  H192  1  0.444100  0.262600  0.252800  1.0
  H  H193  1  0.982300  0.641800  0.762200  1.0
  H  H194  1  0.482300  0.858200  0.737800  1.0
  H  H195  1  0.017700  0.358200  0.237800  1.0
  H  H196  1  0.517700  0.141800  0.262200  1.0
  H  H197  1  0.958500  0.704100  0.726200  1.0
  H  H198  1  0.458500  0.795900  0.773800  1.0
  H  H199  1  0.041500  0.295900  0.273800  1.0
  H  H200  1  0.541500  0.204100  0.226200  1.0
  H  H201  1  0.715200  0.682600  0.827300  1.0
  H  H202  1  0.215200  0.817400  0.672700  1.0
  H  H203  1  0.284800  0.317400  0.172700  1.0
  H  H204  1  0.784800  0.182600  0.327300  1.0
  H  H205  1  0.709000  0.659800  0.893000  1.0
  H  H206  1  0.209000  0.840200  0.607000  1.0
  H  H207  1  0.291000  0.340200  0.107000  1.0
  H  H208  1  0.791000  0.159800  0.393000  1.0
  H  H209  1  0.689300  0.791000  0.853600  1.0
  H  H210  1  0.189300  0.709000  0.646400  1.0
  H  H211  1  0.310700  0.209000  0.146400  1.0
  H  H212  1  0.810700  0.291000  0.353600  1.0
  H  H213  1  0.630400  0.744600  0.876700  1.0
  H  H214  1  0.130400  0.755400  0.623300  1.0
  H  H215  1  0.369600  0.255400  0.123300  1.0
  H  H216  1  0.869600  0.244600  0.376700  1.0
  H  H217  1  0.672000  0.749200  0.970900  1.0
  H  H218  1  0.172000  0.750800  0.529100  1.0
  H  H219  1  0.328000  0.250800  0.029100  1.0
  H  H220  1  0.828000  0.249200  0.470900  1.0
  H  H221  1  0.668800  0.822800  0.948900  1.0
  H  H222  1  0.168800  0.677200  0.551100  1.0
  H  H223  1  0.331200  0.177200  0.051100  1.0
  H  H224  1  0.831200  0.322800  0.448900  1.0
  H  H225  1  0.895800  0.619600  0.108900  1.0
  H  H226  1  0.395800  0.880400  0.391100  1.0
  H  H227  1  0.104200  0.380400  0.891100  1.0
  H  H228  1  0.604200  0.119600  0.608900  1.0
  H  H229  1  0.851300  0.609900  0.165800  1.0
  H  H230  1  0.351300  0.890100  0.334200  1.0
  H  H231  1  0.148700  0.390100  0.834200  1.0
  H  H232  1  0.648700  0.109900  0.665800  1.0
  H  H233  1  0.753100  0.644600  0.119200  1.0
  H  H234  1  0.253100  0.855400  0.380800  1.0
  H  H235  1  0.246900  0.355400  0.880800  1.0
  H  H236  1  0.746900  0.144600  0.619200  1.0
  H  H237  1  0.787000  0.591600  0.077600  1.0
  H  H238  1  0.287000  0.908400  0.422400  1.0
  H  H239  1  0.213000  0.408400  0.922400  1.0
  H  H240  1  0.713000  0.091600  0.577600  1.0
  H  H241  1  0.751100  0.687100  0.026800  1.0
  H  H242  1  0.251100  0.812900  0.473200  1.0
  H  H243  1  0.248900  0.312900  0.973200  1.0
  H  H244  1  0.748900  0.187100  0.526800  1.0
  H  H245  1  0.829500  0.671600  0.017600  1.0
  H  H246  1  0.329500  0.828400  0.482400  1.0
  H  H247  1  0.170500  0.328400  0.982400  1.0
  H  H248  1  0.670500  0.171600  0.517600  1.0
  H  H249  1  0.859200  0.969500  0.087700  1.0
  H  H250  1  0.359200  0.530500  0.412300  1.0
  H  H251  1  0.140800  0.030500  0.912300  1.0
  H  H252  1  0.640800  0.469500  0.587700  1.0
  H  H253  1  0.145200  0.913700  0.000400  1.0
  H  H254  1  0.645200  0.586300  0.499600  1.0
  H  H255  1  0.854800  0.086300  0.999600  1.0
  H  H256  1  0.354800  0.413700  0.500400  1.0
  H  H257  1  0.784600  0.118700  0.734000  1.0
  H  H258  1  0.284600  0.381300  0.766000  1.0
  H  H259  1  0.215400  0.881300  0.266000  1.0
  H  H260  1  0.715400  0.618700  0.234000  1.0
  H  H261  1  0.719600  0.157000  0.757000  1.0
  H  H262  1  0.219600  0.343000  0.743000  1.0
  H  H263  1  0.280400  0.843000  0.243000  1.0
  H  H264  1  0.780400  0.657000  0.257000  1.0
  H  H265  1  0.768500  0.226400  0.693800  1.0
  H  H266  1  0.268500  0.273600  0.806200  1.0
  H  H267  1  0.231500  0.773600  0.306200  1.0
  H  H268  1  0.731500  0.726400  0.193800  1.0
  H  H269  1  0.842600  0.211100  0.716700  1.0
  H  H270  1  0.342600  0.288900  0.783300  1.0
  H  H271  1  0.157400  0.788900  0.283300  1.0
  H  H272  1  0.657400  0.711100  0.216700  1.0
  H  H273  1  0.821100  0.311600  0.743800  1.0
  H  H274  1  0.321100  0.188400  0.756200  1.0
  H  H275  1  0.178900  0.688400  0.256200  1.0
  H  H276  1  0.678900  0.811600  0.243800  1.0
  H  H277  1  0.747000  0.293400  0.766400  1.0
  H  H278  1  0.247000  0.206600  0.733600  1.0
  H  H279  1  0.253000  0.706600  0.233600  1.0
  H  H280  1  0.753000  0.793400  0.266400  1.0
  H  H281  1  0.997100  0.935900  0.330400  1.0
  H  H282  1  0.497100  0.564100  0.169600  1.0
  H  H283  1  0.002900  0.064100  0.669600  1.0
  H  H284  1  0.502900  0.435900  0.830400  1.0
  H  H285  1  0.922700  0.919800  0.353000  1.0
  H  H286  1  0.422700  0.580200  0.147000  1.0
  H  H287  1  0.077300  0.080200  0.647000  1.0
  H  H288  1  0.577300  0.419800  0.853000  1.0
  H  H289  1  0.027500  0.832500  0.327400  1.0
  H  H290  1  0.527500  0.667500  0.172600  1.0
  H  H291  1  0.972500  0.167500  0.672600  1.0
  H  H292  1  0.472500  0.332500  0.827400  1.0
  H  H293  1  0.983400  0.836200  0.384400  1.0
  H  H294  1  0.483400  0.663800  0.115600  1.0
  H  H295  1  0.016600  0.163800  0.615600  1.0
  H  H296  1  0.516600  0.336200  0.884400  1.0
  H  H297  1  0.905400  0.778100  0.350200  1.0
  H  H298  1  0.405400  0.721900  0.149800  1.0
  H  H299  1  0.094600  0.221900  0.649800  1.0
  H  H300  1  0.594600  0.278100  0.850200  1.0
  H  H301  1  0.972700  0.745500  0.325300  1.0
  H  H302  1  0.472700  0.754500  0.174700  1.0
  H  H303  1  0.027300  0.254500  0.674700  1.0
  H  H304  1  0.527300  0.245500  0.825300  1.0
  H  H305  1  0.646000  1.000000  0.069000  1.0
  H  H306  1  0.146000  0.500000  0.431000  1.0
  H  H307  1  0.354000  0.000000  0.931000  1.0
  H  H308  1  0.854000  0.500000  0.569000  1.0
  H  H309  1  0.906000  0.742000  0.805000  1.0
  H  H310  1  0.406000  0.758000  0.695000  1.0
  H  H311  1  0.094000  0.258000  0.195000  1.0
  H  H312  1  0.594000  0.242000  0.305000  1.0
  H  H313  1  0.293000  0.847000  0.864000  1.0
  H  H314  1  0.793000  0.653000  0.636000  1.0
  H  H315  1  0.707000  0.153000  0.136000  1.0
  H  H316  1  0.207000  0.347000  0.364000  1.0
  H  H317  1  0.603000  0.020000  0.976000  1.0
  H  H318  1  0.103000  0.480000  0.524000  1.0
  H  H319  1  0.397000  0.980000  0.024000  1.0
  H  H320  1  0.897000  0.520000  0.476000  1.0
  H  H321  1  0.082000  0.685000  0.114000  1.0
  H  H322  1  0.582000  0.815000  0.386000  1.0
  H  H323  1  0.918000  0.315000  0.886000  1.0
  H  H324  1  0.418000  0.185000  0.614000  1.0
  H  H325  1  0.908000  0.712000  0.169000  1.0
  H  H326  1  0.408000  0.788000  0.331000  1.0
  H  H327  1  0.092000  0.288000  0.831000  1.0
  H  H328  1  0.592000  0.212000  0.669000  1.0
  C  C329  1  0.917100  0.420400  0.988900  1
  C  C330  1  0.417100  0.079600  0.511100  1
  C  C331  1  0.082900  0.579600  0.011100  1
  C  C332  1  0.582900  0.920400  0.488900  1
  C  C333  1  0.058400  0.900700  0.867400  1.0
  C  C334  1  0.558400  0.599300  0.632600  1.0
  C  C335  1  0.941600  0.099300  0.132600  1.0
  C  C336  1  0.441600  0.400700  0.367400  1.0
  C  C337  1  0.162000  0.859200  0.864600  1.0
  C  C338  1  0.662000  0.640800  0.635400  1.0
  C  C339  1  0.838000  0.140800  0.135400  1.0
  C  C340  1  0.338000  0.359200  0.364600  1.0
  C  C341  1  0.157900  0.910200  0.823600  1.0
  C  C342  1  0.657900  0.589800  0.676400  1.0
  C  C343  1  0.842100  0.089800  0.176400  1.0
  C  C344  1  0.342100  0.410200  0.323600  1.0
  C  C345  1  0.200200  0.942300  0.779300  1.0
  C  C346  1  0.700200  0.557700  0.720700  1.0
  C  C347  1  0.799800  0.057700  0.220700  1.0
  C  C348  1  0.299800  0.442300  0.279300  1.0
  C  C349  1  0.303400  0.949900  0.719500  1.0
  C  C350  1  0.803400  0.550100  0.780500  1.0
  C  C351  1  0.696600  0.050100  0.280500  1.0
  C  C352  1  0.196600  0.449900  0.219500  1.0
  C  C353  1  0.287700  0.021800  0.719700  1.0
  C  C354  1  0.787700  0.478200  0.780300  1.0
  C  C355  1  0.712300  0.978200  0.280300  1.0
  C  C356  1  0.212300  0.521800  0.219700  1.0
  C  C357  1  0.211300  0.034100  0.713600  1.0
  C  C358  1  0.711300  0.465900  0.786400  1.0
  C  C359  1  0.788700  0.965900  0.286400  1.0
  C  C360  1  0.288700  0.534100  0.213600  1.0
  C  C361  1  0.211300  0.810500  0.886600  1.0
  C  C362  1  0.711300  0.689500  0.613400  1.0
  C  C363  1  0.788700  0.189500  0.113400  1.0
  C  C364  1  0.288700  0.310500  0.386600  1.0
  C  C365  1  0.226700  0.710000  0.939700  1.0
  C  C366  1  0.726700  0.790000  0.560300  1.0
  C  C367  1  0.773300  0.290000  0.060300  1.0
  C  C368  1  0.273300  0.210000  0.439700  1.0
  C  C369  1  0.291800  0.702400  0.904600  1.0
  C  C370  1  0.791800  0.797600  0.595400  1.0
  C  C371  1  0.708200  0.297600  0.095400  1.0
  C  C372  1  0.208200  0.202400  0.404600  1.0
  C  C373  1  0.328300  0.768500  0.899200  1.0
  C  C374  1  0.828300  0.731500  0.600800  1.0
  C  C375  1  0.671700  0.231500  0.100800  1.0
  C  C376  1  0.171700  0.268500  0.399200  1.0
  C  C377  1  0.944200  0.052600  0.841100  1.0
  C  C378  1  0.444200  0.447400  0.658900  1.0
  C  C379  1  0.055800  0.947400  0.158900  1.0
  C  C380  1  0.555800  0.552600  0.341100  1.0
  C  C381  1  0.936400  0.983400  0.767900  1.0
  C  C382  1  0.436400  0.516600  0.732100  1.0
  C  C383  1  0.063600  0.016600  0.232100  1.0
  C  C384  1  0.563600  0.483400  0.267900  1.0
  C  C385  1  0.871100  0.999400  0.786100  1.0
  C  C386  1  0.371100  0.500600  0.713900  1.0
  C  C387  1  0.128900  0.000600  0.213900  1.0
  C  C388  1  0.628900  0.499400  0.286100  1.0
  C  C389  1  0.971000  0.941000  0.724700  1.0
  C  C390  1  0.471000  0.559000  0.775300  1.0
  C  C391  1  0.029000  0.059000  0.275300  1.0
  C  C392  1  0.529000  0.441000  0.224700  1.0
  C  C393  1  0.076300  0.912500  0.677900  1.0
  C  C394  1  0.576300  0.587500  0.822100  1.0
  C  C395  1  0.923700  0.087500  0.322100  1.0
  C  C396  1  0.423700  0.412500  0.177900  1.0
  C  C397  1  0.030900  0.888600  0.627200  1.0
  C  C398  1  0.530900  0.611400  0.872800  1.0
  C  C399  1  0.969100  0.111400  0.372800  1.0
  C  C400  1  0.469100  0.388600  0.127200  1.0
  C  C401  1  0.968500  0.853100  0.650900  1.0
  C  C402  1  0.468500  0.646900  0.849100  1.0
  C  C403  1  0.031500  0.146900  0.349100  1.0
  C  C404  1  0.531500  0.353100  0.150900  1.0
  C  C405  1  0.799500  0.988400  0.768200  1.0
  C  C406  1  0.299500  0.511600  0.731800  1.0
  C  C407  1  0.200500  0.011600  0.231800  1.0
  C  C408  1  0.700500  0.488400  0.268200  1.0
  C  C409  1  0.713200  0.944600  0.700200  1.0
  C  C410  1  0.213200  0.555400  0.799800  1.0
  C  C411  1  0.286800  0.055400  0.299800  1.0
  C  C412  1  0.786800  0.444600  0.200200  1.0
  C  C413  1  0.669300  0.943900  0.753800  1.0
  C  C414  1  0.169300  0.556100  0.746200  1.0
  C  C415  1  0.330700  0.056100  0.246200  1.0
  C  C416  1  0.830700  0.443900  0.253800  1.0
  C  C417  1  0.680800  0.004300  0.792300  1.0
  C  C418  1  0.180800  0.495700  0.707700  1.0
  C  C419  1  0.319200  0.995700  0.207700  1.0
  C  C420  1  0.819200  0.504300  0.292300  1.0
  C  C421  1  0.824100  0.947100  0.936300  1.0
  C  C422  1  0.324100  0.552900  0.563700  1.0
  C  C423  1  0.175900  0.052900  0.063700  1.0
  C  C424  1  0.675900  0.447100  0.436300  1.0
  C  C425  1  0.729900  0.000900  0.955600  1.0
  C  C426  1  0.229900  0.499100  0.544400  1.0
  C  C427  1  0.270100  0.999100  0.044400  1.0
  C  C428  1  0.770100  0.500900  0.455600  1.0
  C  C429  1  0.735700  0.949800  0.995000  1.0
  C  C430  1  0.235700  0.550200  0.505000  1.0
  C  C431  1  0.264300  0.050200  0.005000  1.0
  C  C432  1  0.764300  0.449800  0.495000  1.0
  C  C433  1  0.681200  0.052800  0.940800  1.0
  C  C434  1  0.181200  0.447200  0.559200  1.0
  C  C435  1  0.318800  0.947200  0.059200  1.0
  C  C436  1  0.818800  0.552800  0.440800  1.0
  C  C437  1  0.658100  0.149700  0.884200  1.0
  C  C438  1  0.158100  0.350300  0.615800  1.0
  C  C439  1  0.341900  0.850300  0.115800  1.0
  C  C440  1  0.841900  0.649700  0.384200  1.0
  C  C441  1  0.609800  0.167800  0.933700  1.0
  C  C442  1  0.109800  0.332200  0.566300  1.0
  C  C443  1  0.390200  0.832200  0.066300  1.0
  C  C444  1  0.890200  0.667800  0.433700  1.0
  C  C445  1  0.571700  0.109200  0.955000  1.0
  C  C446  1  0.071700  0.390800  0.545000  1.0
  C  C447  1  0.428300  0.890800  0.045000  1.0
  C  C448  1  0.928300  0.609200  0.455000  1.0
  C  C449  1  0.696900  0.919700  0.043200  1.0
  C  C450  1  0.196900  0.580300  0.456800  1.0
  C  C451  1  0.303100  0.080300  0.956800  1.0
  C  C452  1  0.803100  0.419700  0.543200  1.0
  C  C453  1  0.608900  0.922900  0.119400  1.0
  C  C454  1  0.108900  0.577100  0.380600  1.0
  C  C455  1  0.391100  0.077100  0.880600  1.0
  C  C456  1  0.891100  0.422900  0.619400  1.0
  C  C457  1  0.608800  0.849200  0.110100  1.0
  C  C458  1  0.108800  0.650800  0.389900  1.0
  C  C459  1  0.391200  0.150800  0.889900  1.0
  C  C460  1  0.891200  0.349200  0.610100  1.0
  C  C461  1  0.681600  0.823500  0.102800  1.0
  C  C462  1  0.181600  0.676500  0.397200  1.0
  C  C463  1  0.318400  0.176500  0.897200  1.0
  C  C464  1  0.818400  0.323500  0.602800  1.0
  C  C465  1  0.955300  0.821800  0.993000  1.0
  C  C466  1  0.455300  0.678200  0.507000  1.0
  C  C467  1  0.044700  0.178200  0.007000  1.0
  C  C468  1  0.544700  0.321800  0.493000  1.0
  C  C469  1  0.946800  0.764700  0.911600  1.0
  C  C470  1  0.446800  0.735300  0.588400  1.0
  C  C471  1  0.053200  0.235300  0.088400  1.0
  C  C472  1  0.553200  0.264700  0.411600  1.0
  C  C473  1  0.881400  0.774900  0.933600  1.0
  C  C474  1  0.381400  0.725100  0.566400  1.0
  C  C475  1  0.118600  0.225100  0.066400  1.0
  C  C476  1  0.618600  0.274900  0.433600  1.0
  C  C477  1  0.981700  0.735200  0.860800  1.0
  C  C478  1  0.481700  0.764800  0.639200  1.0
  C  C479  1  0.018300  0.264800  0.139200  1.0
  C  C480  1  0.518300  0.235200  0.360800  1.0
  C  C481  1  0.089100  0.701700  0.819900  1.0
  C  C482  1  0.589100  0.798300  0.680100  1.0
  C  C483  1  0.910900  0.298300  0.180100  1.0
  C  C484  1  0.410900  0.201700  0.319900  1.0
  C  C485  1  0.055700  0.715300  0.760600  1.0
  C  C486  1  0.555700  0.784700  0.739400  1.0
  C  C487  1  0.944300  0.284700  0.239400  1.0
  C  C488  1  0.444300  0.215300  0.260600  1.0
  C  C489  1  0.982300  0.689900  0.761400  1.0
  C  C490  1  0.482300  0.810100  0.738600  1.0
  C  C491  1  0.017700  0.310100  0.238600  1.0
  C  C492  1  0.517700  0.189900  0.261400  1.0
  C  C493  1  0.810100  0.757500  0.920400  1.0
  C  C494  1  0.310100  0.742500  0.579600  1.0
  C  C495  1  0.189900  0.242500  0.079600  1.0
  C  C496  1  0.689900  0.257500  0.420400  1.0
  C  C497  1  0.722100  0.696300  0.867800  1.0
  C  C498  1  0.222100  0.803700  0.632200  1.0
  C  C499  1  0.277900  0.303700  0.132200  1.0
  C  C500  1  0.777900  0.196300  0.367800  1.0
  C  C501  1  0.678700  0.755900  0.881200  1.0
  C  C502  1  0.178700  0.744100  0.618800  1.0
  C  C503  1  0.321300  0.244100  0.118800  1.0
  C  C504  1  0.821300  0.255900  0.381200  1.0
  C  C505  1  0.691600  0.780400  0.943300  1.0
  C  C506  1  0.191600  0.719600  0.556700  1.0
  C  C507  1  0.308400  0.219600  0.056700  1.0
  C  C508  1  0.808400  0.280400  0.443300  1.0
  C  C509  1  0.120700  0.775200  0.053500  1.0
  C  C510  1  0.620700  0.724800  0.446500  1.0
  C  C511  1  0.879300  0.224800  0.946500  1.0
  C  C512  1  0.379300  0.275200  0.553500  1.0
  C  C513  1  0.095100  0.709400  0.041300  1.0
  C  C514  1  0.595100  0.790600  0.458700  1.0
  C  C515  1  0.904900  0.290600  0.958700  1.0
  C  C516  1  0.404900  0.209400  0.541300  1.0
  C  C517  1  0.850300  0.757900  0.115700  1.0
  C  C518  1  0.350300  0.742100  0.384300  1.0
  C  C519  1  0.149700  0.242100  0.884300  1.0
  C  C520  1  0.649700  0.257900  0.615700  1.0
  C  C521  1  0.060200  0.597500  0.072800  1.0
  C  C522  1  0.560200  0.902500  0.427200  1.0
  C  C523  1  0.939800  0.402500  0.927200  1.0
  C  C524  1  0.439800  0.097500  0.572800  1.0
  C  C525  1  0.053000  0.632900  0.968700  1.0
  C  C526  1  0.553000  0.867100  0.531300  1.0
  C  C527  1  0.947000  0.367100  0.031300  1.0
  C  C528  1  0.447000  0.132900  0.468700  1.0
  C  C529  1  0.857300  0.637200  0.131300  1.0
  C  C530  1  0.357300  0.862800  0.368700  1.0
  C  C531  1  0.142700  0.362800  0.868700  1.0
  C  C532  1  0.642700  0.137200  0.631300  1.0
  C  C533  1  0.792700  0.635600  0.094400  1.0
  C  C534  1  0.292700  0.864400  0.405600  1.0
  C  C535  1  0.207300  0.364400  0.905600  1.0
  C  C536  1  0.707300  0.135600  0.594400  1.0
  C  C537  1  0.795500  0.685500  0.046300  1.0
  C  C538  1  0.295500  0.814500  0.453700  1.0
  C  C539  1  0.204500  0.314500  0.953700  1.0
  C  C540  1  0.704500  0.185500  0.546300  1.0
  C  C541  1  0.865800  0.930500  0.108600  1.0
  C  C542  1  0.365800  0.569500  0.391400  1.0
  C  C543  1  0.134200  0.069500  0.891400  1.0
  C  C544  1  0.634200  0.430500  0.608600  1.0
  C  C545  1  0.142800  0.876000  0.023800  1.0
  C  C546  1  0.642800  0.624000  0.476200  1.0
  C  C547  1  0.857200  0.124000  0.976200  1.0
  C  C548  1  0.357200  0.376000  0.523800  1.0
  C  C549  1  0.893900  0.862300  0.178200  1.0
  C  C550  1  0.393900  0.637700  0.321800  1.0
  C  C551  1  0.106100  0.137700  0.821800  1.0
  C  C552  1  0.606100  0.362300  0.678200  1.0
  C  C553  1  0.867100  0.825700  0.131900  1.0
  C  C554  1  0.367100  0.674300  0.368100  1.0
  C  C555  1  0.132900  0.174300  0.868100  1.0
  C  C556  1  0.632900  0.325700  0.631900  1.0
  C  C557  1  0.152600  0.809700  0.097900  1.0
  C  C558  1  0.652600  0.690300  0.402100  1.0
  C  C559  1  0.847400  0.190300  0.902100  1.0
  C  C560  1  0.347400  0.309700  0.597900  1.0
  C  C561  1  0.178800  0.797600  0.157100  1.0
  C  C562  1  0.678800  0.702400  0.342900  1.0
  C  C563  1  0.821200  0.202400  0.842900  1.0
  C  C564  1  0.321200  0.297600  0.657100  1.0
  C  C565  1  0.769500  0.156700  0.756900  1.0
  C  C566  1  0.269500  0.343300  0.743100  1.0
  C  C567  1  0.230500  0.843300  0.243100  1.0
  C  C568  1  0.730500  0.656700  0.256900  1.0
  C  C569  1  0.795400  0.218800  0.729000  1.0
  C  C570  1  0.295400  0.281200  0.771000  1.0
  C  C571  1  0.204600  0.781200  0.271000  1.0
  C  C572  1  0.704600  0.718800  0.229000  1.0
  C  C573  1  0.794000  0.277500  0.762900  1.0
  C  C574  1  0.294000  0.222500  0.737100  1.0
  C  C575  1  0.206000  0.722500  0.237100  1.0
  C  C576  1  0.706000  0.777500  0.262900  1.0
  C  C577  1  0.916800  0.853300  0.238800  1.0
  C  C578  1  0.416800  0.646700  0.261200  1.0
  C  C579  1  0.083200  0.146700  0.761200  1.0
  C  C580  1  0.583200  0.353300  0.738800  1.0
  C  C581  1  0.958600  0.905600  0.326300  1.0
  C  C582  1  0.458600  0.594400  0.173700  1.0
  C  C583  1  0.041400  0.094400  0.673700  1.0
  C  C584  1  0.541400  0.405600  0.826300  1.0
  C  C585  1  0.980900  0.838100  0.342000  1.0
  C  C586  1  0.480900  0.661900  0.158000  1.0
  C  C587  1  0.019100  0.161900  0.658000  1.0
  C  C588  1  0.519100  0.338100  0.842000  1.0
  C  C589  1  0.943800  0.784700  0.323700  1.0
  C  C590  1  0.443800  0.715300  0.176300  1.0
  C  C591  1  0.056200  0.215300  0.676300  1.0
  C  C592  1  0.556200  0.284700  0.823700  1.0
  C  C593  1  0.024100  0.597000  0.022500  1.0
  C  C594  1  0.524100  0.903000  0.477500  1.0
  C  C595  1  0.975900  0.403000  0.977500  1.0
  C  C596  1  0.475900  0.097000  0.522500  1.0
  N  N597  1  0.203900  0.236000  0.252200  1
  N  N598  1  0.703900  0.264000  0.247800  1
  N  N599  1  0.796100  0.764000  0.747800  1
  N  N600  1  0.296100  0.736000  0.752200  1
  N  N601  1  0.275200  0.639000  0.084800  1
  N  N602  1  0.775200  0.861000  0.415200  1
  N  N603  1  0.724800  0.361000  0.915200  1
  N  N604  1  0.224800  0.139000  0.584800  1
  N  N605  1  0.008600  0.648600  0.231000  1
  N  N606  1  0.508600  0.851400  0.269000  1
  N  N607  1  0.991400  0.351400  0.769000  1
  N  N608  1  0.491400  0.148600  0.731000  1
  N  N609  1  0.044400  0.588200  0.586200  1
  N  N610  1  0.544400  0.911800  0.913800  1
  N  N611  1  0.955600  0.411800  0.413800  1
  N  N612  1  0.455600  0.088200  0.086200  1
  N  N613  1  0.624300  0.523000  0.111200  1
  N  N614  1  0.124300  0.977000  0.388800  1
  N  N615  1  0.375700  0.477000  0.888800  1
  N  N616  1  0.875700  0.023000  0.611200  1
  N  N617  1  0.367400  0.921600  0.562900  1
  N  N618  1  0.867400  0.578400  0.937100  1
  N  N619  1  0.632600  0.078400  0.437100  1
  N  N620  1  0.132600  0.421600  0.062900  1
  N  N621  1  0.000000  0.000000  0.000000  1
  N  N622  1  0.500000  0.500000  0.500000  1
  N  N623  1  0.795000  0.915500  0.981500  1.0
  N  N624  1  0.295000  0.584500  0.518500  1.0
  N  N625  1  0.205000  0.084500  0.018500  1.0
  N  N626  1  0.705000  0.415500  0.481500  1.0
  N  N627  1  0.786800  0.998600  0.919500  1.0
  N  N628  1  0.286800  0.501400  0.580500  1.0
  N  N629  1  0.213200  0.001400  0.080500  1.0
  N  N630  1  0.713200  0.498600  0.419500  1.0
  N  N631  1  0.702400  0.092700  0.900300  1.0
  N  N632  1  0.202400  0.407300  0.599700  1.0
  N  N633  1  0.297600  0.907300  0.099700  1.0
  N  N634  1  0.797600  0.592700  0.400300  1.0
  N  N635  1  0.620600  0.057200  0.970900  1.0
  N  N636  1  0.120600  0.442800  0.529100  1.0
  N  N637  1  0.379400  0.942800  0.029100  1.0
  N  N638  1  0.879400  0.557200  0.470900  1.0
  N  N639  1  0.647800  0.954100  0.071600  1.0
  N  N640  1  0.147800  0.545900  0.428400  1.0
  N  N641  1  0.352200  0.045900  0.928400  1.0
  N  N642  1  0.852200  0.454100  0.571600  1.0
  N  N643  1  0.716800  0.859700  0.055600  1.0
  N  N644  1  0.216800  0.640300  0.444400  1.0
  N  N645  1  0.283200  0.140300  0.944400  1.0
  N  N646  1  0.783200  0.359700  0.555600  1.0
  N  N647  1  0.813200  0.752000  0.068000  1.0
  N  N648  1  0.313200  0.748000  0.432000  1.0
  N  N649  1  0.186800  0.248000  0.932000  1.0
  N  N650  1  0.686800  0.252000  0.568000  1.0
  N  N651  1  0.084600  0.665500  0.084200  1.0
  N  N652  1  0.584600  0.834500  0.415800  1.0
  N  N653  1  0.915400  0.334500  0.915800  1.0
  N  N654  1  0.415400  0.165500  0.584200  1.0
  N  N655  1  0.080900  0.698700  0.986400  1.0
  N  N656  1  0.580900  0.801300  0.513600  1.0
  N  N657  1  0.919100  0.301300  0.013600  1.0
  N  N658  1  0.419100  0.198700  0.486400  1.0
  N  N659  1  0.871800  0.706400  0.148900  1.0
  N  N660  1  0.371800  0.793600  0.351100  1.0
  N  N661  1  0.128200  0.293600  0.851100  1.0
  N  N662  1  0.628200  0.206400  0.648900  1.0
  N  N663  1  0.116100  0.817400  0.006300  1.0
  N  N664  1  0.616100  0.682600  0.493700  1.0
  N  N665  1  0.883900  0.182600  0.993700  1.0
  N  N666  1  0.383900  0.317400  0.506300  1.0
  N  N667  1  0.887900  0.811800  0.984200  1.0
  N  N668  1  0.387900  0.688200  0.515800  1.0
  N  N669  1  0.112100  0.188200  0.015800  1.0
  N  N670  1  0.612100  0.311800  0.484200  1.0
  N  N671  1  0.992200  0.793700  0.950400  1.0
  N  N672  1  0.492200  0.706300  0.549600  1.0
  N  N673  1  0.007800  0.206300  0.049600  1.0
  N  N674  1  0.507800  0.293700  0.450400  1.0
  N  N675  1  0.048800  0.730700  0.867500  1.0
  N  N676  1  0.548800  0.769300  0.632500  1.0
  N  N677  1  0.951200  0.269300  0.132500  1.0
  N  N678  1  0.451200  0.230700  0.367500  1.0
  N  N679  1  0.946900  0.716000  0.813500  1.0
  N  N680  1  0.446900  0.784000  0.686500  1.0
  N  N681  1  0.053100  0.284000  0.186500  1.0
  N  N682  1  0.553100  0.216000  0.313500  1.0
  N  N683  1  0.795400  0.713900  0.877600  1.0
  N  N684  1  0.295400  0.786100  0.622400  1.0
  N  N685  1  0.204600  0.286100  0.122400  1.0
  N  N686  1  0.704600  0.213900  0.377600  1.0
  N  N687  1  0.765200  0.788000  0.955100  1.0
  N  N688  1  0.265200  0.712000  0.544900  1.0
  N  N689  1  0.234800  0.212000  0.044900  1.0
  N  N690  1  0.734800  0.288000  0.455100  1.0
  N  N691  1  0.754300  0.015700  0.803700  1.0
  N  N692  1  0.254300  0.484300  0.696300  1.0
  N  N693  1  0.245700  0.984300  0.196300  1.0
  N  N694  1  0.745700  0.515700  0.303700  1.0
  N  N695  1  0.785600  0.956500  0.717600  1.0
  N  N696  1  0.285600  0.543500  0.782400  1.0
  N  N697  1  0.214400  0.043500  0.282400  1.0
  N  N698  1  0.714400  0.456500  0.217600  1.0
  N  N699  1  0.935400  0.894200  0.696300  1.0
  N  N700  1  0.435400  0.605800  0.803700  1.0
  N  N701  1  0.064600  0.105800  0.303700  1.0
  N  N702  1  0.564600  0.394200  0.196300  1.0
  N  N703  1  0.036800  0.953500  0.719900  1.0
  N  N704  1  0.536800  0.546500  0.780100  1.0
  N  N705  1  0.963200  0.046500  0.280100  1.0
  N  N706  1  0.463200  0.453500  0.219900  1.0
  N  N707  1  0.092700  0.935600  0.827200  1.0
  N  N708  1  0.592700  0.564400  0.672800  1.0
  N  N709  1  0.907300  0.064400  0.172800  1.0
  N  N710  1  0.407300  0.435600  0.327200  1.0
  N  N711  1  0.098400  0.853100  0.889500  1.0
  N  N712  1  0.598400  0.646900  0.610500  1.0
  N  N713  1  0.901600  0.146900  0.110500  1.0
  N  N714  1  0.401600  0.353100  0.389500  1.0
  N  N715  1  0.182600  0.762000  0.914900  1.0
  N  N716  1  0.682600  0.738000  0.585100  1.0
  N  N717  1  0.817400  0.238000  0.085100  1.0
  N  N718  1  0.317400  0.262000  0.414900  1.0
  N  N719  1  0.279000  0.818300  0.878900  1.0
  N  N720  1  0.779000  0.681700  0.621100  1.0
  N  N721  1  0.721000  0.181700  0.121100  1.0
  N  N722  1  0.221000  0.318300  0.378900  1.0
  N  N723  1  0.171600  0.995100  0.755700  1.0
  N  N724  1  0.671600  0.504900  0.744300  1.0
  N  N725  1  0.828400  0.004900  0.244300  1.0
  N  N726  1  0.328400  0.495100  0.255700  1.0
  N  N727  1  0.262000  0.917400  0.765400  1.0
  N  N728  1  0.762000  0.582600  0.734600  1.0
  N  N729  1  0.738000  0.082600  0.234600  1.0
  N  N730  1  0.238000  0.417400  0.265400  1.0
  N  N731  1  0.892400  0.928000  0.162400  1.0
  N  N732  1  0.392400  0.572000  0.337600  1.0
  N  N733  1  0.107600  0.072000  0.837600  1.0
  N  N734  1  0.607600  0.428000  0.662400  1.0
  N  N735  1  0.849900  0.870300  0.088400  1.0
  N  N736  1  0.349900  0.629700  0.411600  1.0
  N  N737  1  0.150100  0.129700  0.911600  1.0
  N  N738  1  0.650100  0.370300  0.588400  1.0
  N  N739  1  0.932500  0.908400  0.265500  1.0
  N  N740  1  0.432500  0.591600  0.234500  1.0
  N  N741  1  0.067500  0.091600  0.734500  1.0
  N  N742  1  0.567500  0.408400  0.765500  1.0
  N  N743  1  0.916900  0.792300  0.262900  1.0
  N  N744  1  0.416900  0.707700  0.237100  1.0
  N  N745  1  0.083100  0.207700  0.737100  1.0
  N  N746  1  0.583100  0.292300  0.762900  1.0
  N  N747  1  0.834800  0.127000  0.921500  1.0
  N  N748  1  0.334800  0.373000  0.578500  1.0
  N  N749  1  0.165200  0.873000  0.078500  1.0
  N  N750  1  0.665200  0.627000  0.421500  1.0
  N  N751  1  0.795000  0.150300  0.817800  1.0
  N  N752  1  0.295000  0.349700  0.682200  1.0
  N  N753  1  0.205000  0.849700  0.182200  1.0
  N  N754  1  0.705000  0.650300  0.317800  1.0
  N  N755  1  0.177700  0.735600  0.178200  1.0
  N  N756  1  0.677700  0.764400  0.321800  1.0
  N  N757  1  0.822300  0.264400  0.821800  1.0
  N  N758  1  0.322300  0.235600  0.678200  1.0
  N  N759  1  0.981700  0.018500  0.803200  1.0
  N  N760  1  0.481700  0.481500  0.696800  1.0
  N  N761  1  0.018300  0.981500  0.196800  1.0
  N  N762  1  0.518300  0.518500  0.303200  1.0
  N  N763  1  0.877000  0.042400  0.832000  1.0
  N  N764  1  0.377000  0.457600  0.668000  1.0
  N  N765  1  0.123000  0.957600  0.168000  1.0
  N  N766  1  0.623000  0.542400  0.332000  1.0
  O  O767  1  0.167100  0.186900  0.240700  1
  O  O768  1  0.667100  0.313100  0.259300  1
  O  O769  1  0.832900  0.813100  0.759300  1
  O  O770  1  0.332900  0.686900  0.740700  1
  O  O771  1  0.267100  0.231200  0.260500  1
  O  O772  1  0.767100  0.268800  0.239500  1
  O  O773  1  0.732900  0.768800  0.739500  1
  O  O774  1  0.232900  0.731200  0.760500  1
  O  O775  1  0.176300  0.292500  0.253300  1
  O  O776  1  0.676300  0.207500  0.246700  1
  O  O777  1  0.823700  0.707500  0.746700  1
  O  O778  1  0.323700  0.792500  0.753300  1
  O  O779  1  0.223000  0.622300  0.108400  1
  O  O780  1  0.723000  0.877700  0.391600  1
  O  O781  1  0.777000  0.377700  0.891600  1
  O  O782  1  0.277000  0.122300  0.608400  1
  O  O783  1  0.297000  0.694600  0.077600  1
  O  O784  1  0.797000  0.805400  0.422400  1
  O  O785  1  0.703000  0.305400  0.922400  1
  O  O786  1  0.203000  0.194600  0.577600  1
  O  O787  1  0.309200  0.594100  0.062800  1
  O  O788  1  0.809200  0.905900  0.437200  1
  O  O789  1  0.690800  0.405900  0.937200  1
  O  O790  1  0.190800  0.094100  0.562800  1
  O  O791  1  0.061000  0.614800  0.237700  1
  O  O792  1  0.561000  0.885200  0.262300  1
  O  O793  1  0.939000  0.385200  0.762300  1
  O  O794  1  0.439000  0.114800  0.737700  1
  O  O795  1  0.010700  0.697100  0.195200  1
  O  O796  1  0.510700  0.802900  0.304800  1
  O  O797  1  0.989300  0.302900  0.804800  1
  O  O798  1  0.489300  0.197100  0.695200  1
  O  O799  1  0.953300  0.636500  0.256700  1
  O  O800  1  0.453300  0.863500  0.243300  1
  O  O801  1  0.046700  0.363500  0.743300  1
  O  O802  1  0.546700  0.136500  0.756700  1
  O  O803  1  0.074300  0.585100  0.541000  1
  O  O804  1  0.574300  0.914900  0.959000  1
  O  O805  1  0.925700  0.414900  0.459000  1
  O  O806  1  0.425700  0.085100  0.041000  1
  O  O807  1  0.048800  0.538900  0.621900  1
  O  O808  1  0.548800  0.961100  0.878100  1
  O  O809  1  0.951200  0.461100  0.378100  1
  O  O810  1  0.451200  0.038900  0.121900  1
  O  O811  1  0.008200  0.641400  0.600400  1
  O  O812  1  0.508200  0.858600  0.899600  1
  O  O813  1  0.991800  0.358600  0.399600  1
  O  O814  1  0.491800  0.141400  0.100400  1
  O  O815  1  0.652700  0.469500  0.103800  1
  O  O816  1  0.152700  0.030500  0.396200  1
  O  O817  1  0.347300  0.530500  0.896200  1
  O  O818  1  0.847300  0.969500  0.603800  1
  O  O819  1  0.582200  0.540500  0.074900  1
  O  O820  1  0.082200  0.959500  0.425100  1
  O  O821  1  0.417800  0.459500  0.925100  1
  O  O822  1  0.917800  0.040500  0.574900  1
  O  O823  1  0.633600  0.571900  0.141400  1
  O  O824  1  0.133600  0.928100  0.358600  1
  O  O825  1  0.366400  0.428100  0.858600  1
  O  O826  1  0.866400  0.071900  0.641400  1
  O  O827  1  0.408300  0.940800  0.525400  1
  O  O828  1  0.908300  0.559200  0.974600  1
  O  O829  1  0.591700  0.059200  0.474600  1
  O  O830  1  0.091700  0.440800  0.025400  1
  O  O831  1  0.305500  0.936800  0.557800  1
  O  O832  1  0.805500  0.563200  0.942200  1
  O  O833  1  0.694500  0.063200  0.442200  1
  O  O834  1  0.194500  0.436800  0.057800  1
  O  O835  1  0.391400  0.894100  0.602100  1
  O  O836  1  0.891400  0.605900  0.897900  1
  O  O837  1  0.608600  0.105900  0.397900  1
  O  O838  1  0.108600  0.394100  0.102100  1
  O  O839  1  0.114400  0.500600  0.917500  1
  O  O840  1  0.614400  0.999400  0.582500  1
  O  O841  1  0.885600  0.499400  0.082500  1
  O  O842  1  0.385600  0.000600  0.417500  1
  O  O843  1  0.660100  0.557800  0.952500  1
  O  O844  1  0.160100  0.942200  0.547500  1
  O  O845  1  0.339900  0.442200  0.047500  1
  O  O846  1  0.839900  0.057800  0.452500  1
  O  O847  1  0.385200  0.916300  0.863400  1
  O  O848  1  0.885200  0.583700  0.636600  1
  O  O849  1  0.614800  0.083700  0.136600  1
  O  O850  1  0.114800  0.416300  0.363400  1
  O  O851  1  0.780300  0.458900  0.049000  1
  O  O852  1  0.280300  0.041100  0.451000  1
  O  O853  1  0.219700  0.541100  0.951000  1
  O  O854  1  0.719700  0.958900  0.549000  1
  O  O855  1  0.581500  0.337500  0.999100  1
  O  O856  1  0.081500  0.162500  0.500900  1
  O  O857  1  0.418500  0.662500  0.000900  1
  O  O858  1  0.918500  0.837500  0.499100  1
  O  O859  1  0.500000  0.500000  0.000000  1
  O  O860  1  0.000000  0.000000  0.500000  1
  O  O861  1  0.028100  0.484000  0.273600  1
  O  O862  1  0.528100  0.016000  0.226400  1
  O  O863  1  0.971900  0.516000  0.726400  1
  O  O864  1  0.471900  0.984000  0.773600  1
  O  O865  1  0.983800  0.463500  0.150600  1
  O  O866  1  0.483800  0.036500  0.349400  1
  O  O867  1  0.016200  0.536500  0.849400  1
  O  O868  1  0.516200  0.963500  0.650600  1
  O  O869  1  0.018700  0.753900  0.511800  1
  O  O870  1  0.518700  0.746100  0.988200  1
  O  O871  1  0.981300  0.246100  0.488200  1
  O  O872  1  0.481300  0.253900  0.011800  1
  O  O873  1  0.017500  0.983700  0.049700  1
  O  O874  1  0.517500  0.516300  0.450300  1
  O  O875  1  0.982500  0.016300  0.950300  1
  O  O876  1  0.482500  0.483700  0.549700  1
  O  O877  1  0.040700  0.013000  0.962400  1
  O  O878  1  0.540700  0.487000  0.537600  1
  O  O879  1  0.959300  0.987000  0.037600  1
  O  O880  1  0.459300  0.513000  0.462400  1
  O  O881  1  0.941700  0.997500  0.988600  1
  O  O882  1  0.441700  0.502500  0.511400  1
  O  O883  1  0.058300  0.002500  0.011400  1
  O  O884  1  0.558300  0.497500  0.488600  1
  O  O885  1  0.436700  0.529900  0.999600  1
  O  O886  1  0.936700  0.970100  0.500400  1
  O  O887  1  0.563300  0.470100  0.000400  1
  O  O888  1  0.063300  0.029900  0.499600  1
  O  O889  1  0.084500  0.606300  0.636800  1
  O  O890  1  0.584500  0.893700  0.863200  1
  O  O891  1  0.915500  0.393700  0.363200  1
  O  O892  1  0.415500  0.106300  0.136800  1
  O  O893  1  0.998000  0.533000  0.556000  1
  O  O894  1  0.498000  0.967000  0.944000  1
  O  O895  1  0.002000  0.467000  0.444000  1
  O  O896  1  0.502000  0.033000  0.056000  1
  O  O897  1  0.008000  0.750000  0.546000  1
  O  O898  1  0.508000  0.750000  0.954000  1
  O  O899  1  0.992000  0.250000  0.454000  1
  O  O900  1  0.492000  0.250000  0.046000  1
  O  O901  1  0.620200  0.630900  0.101700  1
  O  O902  1  0.120200  0.869100  0.398300  1
  O  O903  1  0.379800  0.369100  0.898300  1
  O  O904  1  0.879800  0.130900  0.601700  1
  O  O905  1  0.620800  0.661600  0.042500  1
  O  O906  1  0.120800  0.838400  0.457500  1
  O  O907  1  0.379200  0.338400  0.957500  1
  O  O908  1  0.879200  0.161600  0.542500  1
  O  O909  1  0.600400  0.696000  0.063900  1
  O  O910  1  0.100400  0.804000  0.436100  1
  O  O911  1  0.399600  0.304000  0.936100  1
  O  O912  1  0.899600  0.196000  0.563900  1
  O  O913  1  0.626500  0.636300  0.015000  1
  O  O914  1  0.126500  0.863700  0.485000  1
  O  O915  1  0.373500  0.363700  0.985000  1
  O  O916  1  0.873500  0.136300  0.515000  1
  O  O917  1  0.747000  0.450000  0.050000  1
  O  O918  1  0.247000  0.050000  0.450000  1
  O  O919  1  0.253000  0.550000  0.950000  1
  O  O920  1  0.753000  0.950000  0.550000  1
  O  O921  1  0.016300  0.448400  0.149600  1
  O  O922  1  0.516300  0.051600  0.350400  1
  O  O923  1  0.983700  0.551600  0.850400  1
  O  O924  1  0.483700  0.948400  0.649600  1
