# generated using pymatgen
data_Co8H156C132Br21(N9O4)8
_symmetry_space_group_name_H-M   'P 1'
_cell_length_a   17.75800000
_cell_length_b   19.38000000
_cell_length_c   24.77200000
_cell_angle_alpha   90.00000000
_cell_angle_beta   90.25700000
_cell_angle_gamma   90.00000000
_symmetry_Int_Tables_number   1
_chemical_formula_structural   Co8H156C132Br21(N9O4)8
_chemical_formula_sum   'Co16 H312 C264 Br42 N144 O64'
_cell_volume   8525.19902804
_cell_formula_units_Z   2
loop_
 _symmetry_equiv_pos_site_id
 _symmetry_equiv_pos_as_xyz
  1  'x, y, z'
loop_
 _atom_site_type_symbol
 _atom_site_label
 _atom_site_symmetry_multiplicity
 _atom_site_fract_x
 _atom_site_fract_y
 _atom_site_fract_z
 _atom_site_occupancy
  Co  Co1  1  0.264720  0.404770  0.448420  1.0
  Co  Co2  1  0.235280  0.904770  0.051580  1.0
  Co  Co3  1  0.735280  0.595230  0.551580  1.0
  Co  Co4  1  0.764720  0.095230  0.948420  1.0
  Co  Co5  1  0.210680  0.686520  0.534420  1.0
  Co  Co6  1  0.289320  0.186520  0.965580  1.0
  Co  Co7  1  0.789320  0.313480  0.465580  1.0
  Co  Co8  1  0.710680  0.813480  0.034420  1.0
  Co  Co9  1  0.945060  0.708970  0.384500  1.0
  Co  Co10  1  0.554940  0.208970  0.115500  1.0
  Co  Co11  1  0.054940  0.291030  0.615500  1.0
  Co  Co12  1  0.445060  0.791030  0.884500  1.0
  Co  Co13  1  0.997750  0.425840  0.300280  1.0
  Co  Co14  1  0.502250  0.925840  0.199720  1.0
  Co  Co15  1  0.002250  0.574160  0.699720  1.0
  Co  Co16  1  0.497750  0.074160  0.800280  1.0
  H  H17  1  0.925800  0.540200  0.384700  1.0
  H  H18  1  0.574200  0.040200  0.115300  1.0
  H  H19  1  0.074200  0.459800  0.615300  1.0
  H  H20  1  0.425800  0.959800  0.884700  1.0
  H  H21  1  0.045000  0.837500  0.360600  1.0
  H  H22  1  0.455000  0.337500  0.139400  1.0
  H  H23  1  0.955000  0.162500  0.639400  1.0
  H  H24  1  0.545000  0.662500  0.860600  1.0
  H  H25  1  0.998200  0.839500  0.305200  1.0
  H  H26  1  0.501800  0.339500  0.194800  1.0
  H  H27  1  0.001800  0.160500  0.694800  1.0
  H  H28  1  0.498200  0.660500  0.805200  1.0
  H  H29  1  0.124100  0.871400  0.283400  1.0
  H  H30  1  0.375900  0.371400  0.216600  1.0
  H  H31  1  0.875900  0.128600  0.716600  1.0
  H  H32  1  0.624100  0.628600  0.783400  1.0
  H  H33  1  0.157500  0.805200  0.314200  1.0
  H  H34  1  0.342500  0.305200  0.185800  1.0
  H  H35  1  0.842500  0.194800  0.685800  1.0
  H  H36  1  0.657500  0.694800  0.814200  1.0
  H  H37  1  0.156300  0.782200  0.222900  1.0
  H  H38  1  0.343700  0.282200  0.277100  1.0
  H  H39  1  0.843700  0.217800  0.777100  1.0
  H  H40  1  0.656300  0.717800  0.722900  1.0
  H  H41  1  0.069000  0.802600  0.218700  1.0
  H  H42  1  0.431000  0.302600  0.281300  1.0
  H  H43  1  0.931000  0.197400  0.781300  1.0
  H  H44  1  0.569000  0.697400  0.718700  1.0
  H  H45  1  0.115200  0.486500  0.393500  1.0
  H  H46  1  0.384800  0.986500  0.106500  1.0
  H  H47  1  0.884800  0.513500  0.606500  1.0
  H  H48  1  0.615200  0.013500  0.893500  1.0
  H  H49  1  0.387600  0.270600  0.423500  1.0
  H  H50  1  0.112400  0.770600  0.076500  1.0
  H  H51  1  0.612400  0.729400  0.576500  1.0
  H  H52  1  0.887600  0.229400  0.923500  1.0
  H  H53  1  0.352500  0.271900  0.483200  1.0
  H  H54  1  0.147500  0.771900  0.016800  1.0
  H  H55  1  0.647500  0.728100  0.516800  1.0
  H  H56  1  0.852500  0.228100  0.983200  1.0
  H  H57  1  0.271100  0.181700  0.461600  1.0
  H  H58  1  0.228900  0.681700  0.038400  1.0
  H  H59  1  0.728900  0.818300  0.538400  1.0
  H  H60  1  0.771100  0.318300  0.961600  1.0
  H  H61  1  0.355300  0.158000  0.447900  1.0
  H  H62  1  0.144700  0.658000  0.052100  1.0
  H  H63  1  0.644700  0.842000  0.552100  1.0
  H  H64  1  0.855300  0.342000  0.947900  1.0
  H  H65  1  0.335900  0.178000  0.356600  1.0
  H  H66  1  0.164100  0.678000  0.143400  1.0
  H  H67  1  0.664100  0.822000  0.643400  1.0
  H  H68  1  0.835900  0.322000  0.856600  1.0
  H  H69  1  0.268900  0.129600  0.377500  1.0
  H  H70  1  0.231100  0.629600  0.122500  1.0
  H  H71  1  0.731100  0.870400  0.622500  1.0
  H  H72  1  0.768900  0.370400  0.877500  1.0
  H  H73  1  0.978900  0.163900  0.296400  1.0
  H  H74  1  0.521100  0.663900  0.203600  1.0
  H  H75  1  0.021100  0.836100  0.703600  1.0
  H  H76  1  0.478900  0.336100  0.796400  1.0
  H  H77  1  0.053800  0.143900  0.264200  1.0
  H  H78  1  0.446200  0.643900  0.235800  1.0
  H  H79  1  0.946200  0.856100  0.735800  1.0
  H  H80  1  0.553800  0.356100  0.764200  1.0
  H  H81  1  0.956800  0.193200  0.211000  1.0
  H  H82  1  0.543200  0.693200  0.289000  1.0
  H  H83  1  0.043200  0.806800  0.789000  1.0
  H  H84  1  0.456800  0.306800  0.711000  1.0
  H  H85  1  0.037700  0.228400  0.204800  1.0
  H  H86  1  0.462300  0.728400  0.295200  1.0
  H  H87  1  0.962300  0.771600  0.795200  1.0
  H  H88  1  0.537700  0.271600  0.704800  1.0
  H  H89  1  0.952200  0.317700  0.210400  1.0
  H  H90  1  0.547800  0.817700  0.289600  1.0
  H  H91  1  0.047800  0.682300  0.789600  1.0
  H  H92  1  0.452200  0.182300  0.710400  1.0
  H  H93  1  0.912100  0.284200  0.261900  1.0
  H  H94  1  0.587900  0.784200  0.238100  1.0
  H  H95  1  0.087900  0.715800  0.738100  1.0
  H  H96  1  0.412100  0.215800  0.761900  1.0
  H  H97  1  0.045600  0.629600  0.576900  1.0
  H  H98  1  0.454400  0.129600  0.923100  1.0
  H  H99  1  0.954400  0.370400  0.423100  1.0
  H  H100  1  0.545600  0.870400  0.076900  1.0
  H  H101  1  0.957300  0.508900  0.196300  1.0
  H  H102  1  0.542700  0.008900  0.303700  1.0
  H  H103  1  0.042700  0.491100  0.803700  1.0
  H  H104  1  0.457300  0.991100  0.696300  1.0
  H  H105  1  0.933400  0.436100  0.170800  1.0
  H  H106  1  0.566600  0.936100  0.329200  1.0
  H  H107  1  0.066600  0.563900  0.829200  1.0
  H  H108  1  0.433400  0.063900  0.670800  1.0
  H  H109  1  0.848500  0.512500  0.140800  1.0
  H  H110  1  0.651500  0.012500  0.359200  1.0
  H  H111  1  0.151500  0.487500  0.859200  1.0
  H  H112  1  0.348500  0.987500  0.640800  1.0
  H  H113  1  0.838600  0.546000  0.199200  1.0
  H  H114  1  0.661400  0.046000  0.300800  1.0
  H  H115  1  0.161400  0.454000  0.800800  1.0
  H  H116  1  0.338600  0.954000  0.699200  1.0
  H  H117  1  0.733200  0.483900  0.181000  1.0
  H  H118  1  0.766800  0.983900  0.319000  1.0
  H  H119  1  0.266800  0.516100  0.819000  1.0
  H  H120  1  0.233200  0.016100  0.681000  1.0
  H  H121  1  0.781600  0.417100  0.165300  1.0
  H  H122  1  0.718400  0.917100  0.334700  1.0
  H  H123  1  0.218400  0.582900  0.834700  1.0
  H  H124  1  0.281600  0.082900  0.665300  1.0
  H  H125  1  0.906000  0.712800  0.261100  1.0
  H  H126  1  0.594000  0.212800  0.238900  1.0
  H  H127  1  0.094000  0.287200  0.738900  1.0
  H  H128  1  0.406000  0.787200  0.761100  1.0
  H  H129  1  0.871500  0.786100  0.278000  1.0
  H  H130  1  0.628500  0.286100  0.222000  1.0
  H  H131  1  0.128500  0.213900  0.722000  1.0
  H  H132  1  0.371500  0.713900  0.778000  1.0
  H  H133  1  0.783800  0.755200  0.223900  1.0
  H  H134  1  0.716200  0.255200  0.276100  1.0
  H  H135  1  0.216200  0.244800  0.776100  1.0
  H  H136  1  0.283800  0.744800  0.723900  1.0
  H  H137  1  0.802700  0.675900  0.229600  1.0
  H  H138  1  0.697300  0.175900  0.270400  1.0
  H  H139  1  0.197300  0.324100  0.770400  1.0
  H  H140  1  0.302700  0.824100  0.729600  1.0
  H  H141  1  0.702300  0.674300  0.246800  1.0
  H  H142  1  0.797700  0.174300  0.253200  1.0
  H  H143  1  0.297700  0.325700  0.753200  1.0
  H  H144  1  0.202300  0.825700  0.746800  1.0
  H  H145  1  0.700800  0.751700  0.268900  1.0
  H  H146  1  0.799200  0.251700  0.231100  1.0
  H  H147  1  0.299200  0.248300  0.731100  1.0
  H  H148  1  0.200800  0.748300  0.768900  1.0
  H  H149  1  0.088400  0.624600  0.443000  1.0
  H  H150  1  0.411600  0.124600  0.057000  1.0
  H  H151  1  0.911600  0.375400  0.557000  1.0
  H  H152  1  0.588400  0.875400  0.943000  1.0
  H  H153  1  0.135200  0.946200  0.595200  1.0
  H  H154  1  0.364800  0.446200  0.904800  1.0
  H  H155  1  0.864800  0.053800  0.404800  1.0
  H  H156  1  0.635200  0.553800  0.095200  1.0
  H  H157  1  0.086700  0.905100  0.638900  1.0
  H  H158  1  0.413300  0.405100  0.861100  1.0
  H  H159  1  0.913300  0.094900  0.361100  1.0
  H  H160  1  0.586700  0.594900  0.138900  1.0
  H  H161  1  0.173800  0.860100  0.665900  1.0
  H  H162  1  0.326200  0.360100  0.834100  1.0
  H  H163  1  0.826200  0.139900  0.334100  1.0
  H  H164  1  0.673800  0.639900  0.165900  1.0
  H  H165  1  0.222500  0.908100  0.628300  1.0
  H  H166  1  0.277500  0.408100  0.871700  1.0
  H  H167  1  0.777500  0.091900  0.371700  1.0
  H  H168  1  0.722500  0.591900  0.128300  1.0
  H  H169  1  0.233000  0.780200  0.639600  1.0
  H  H170  1  0.267000  0.280200  0.860400  1.0
  H  H171  1  0.767000  0.219800  0.360400  1.0
  H  H172  1  0.733000  0.719800  0.139600  1.0
  H  H173  1  0.274800  0.827400  0.596000  1.0
  H  H174  1  0.225200  0.327400  0.904000  1.0
  H  H175  1  0.725200  0.172600  0.404000  1.0
  H  H176  1  0.774800  0.672600  0.096000  1.0
  H  H177  1  0.815200  0.819400  0.393300  1.0
  H  H178  1  0.684800  0.319400  0.106700  1.0
  H  H179  1  0.184800  0.180600  0.606700  1.0
  H  H180  1  0.315200  0.680600  0.893300  1.0
  H  H181  1  0.875900  0.865300  0.362000  1.0
  H  H182  1  0.624100  0.365300  0.138000  1.0
  H  H183  1  0.124100  0.134700  0.638000  1.0
  H  H184  1  0.375900  0.634700  0.862000  1.0
  H  H185  1  0.826500  0.886700  0.470400  1.0
  H  H186  1  0.673500  0.386700  0.029600  1.0
  H  H187  1  0.173500  0.113300  0.529600  1.0
  H  H188  1  0.326500  0.613300  0.970400  1.0
  H  H189  1  0.814600  0.938800  0.420800  1.0
  H  H190  1  0.685400  0.438800  0.079200  1.0
  H  H191  1  0.185400  0.061200  0.579200  1.0
  H  H192  1  0.314600  0.561200  0.920800  1.0
  H  H193  1  0.944500  0.961800  0.417100  1.0
  H  H194  1  0.555500  0.461800  0.082900  1.0
  H  H195  1  0.055500  0.038200  0.582900  1.0
  H  H196  1  0.444500  0.538200  0.917100  1.0
  H  H197  1  0.917900  0.974000  0.478200  1.0
  H  H198  1  0.582100  0.474000  0.021800  1.0
  H  H199  1  0.082100  0.026000  0.521800  1.0
  H  H200  1  0.417900  0.526000  0.978200  1.0
  H  H201  1  0.190000  0.519100  0.533900  1.0
  H  H202  1  0.310000  0.019100  0.966100  1.0
  H  H203  1  0.810000  0.480900  0.466100  1.0
  H  H204  1  0.690000  0.980900  0.033900  1.0
  H  H205  1  0.372000  0.774400  0.350800  1.0
  H  H206  1  0.128000  0.274400  0.149200  1.0
  H  H207  1  0.628000  0.225600  0.649200  1.0
  H  H208  1  0.872000  0.725600  0.850800  1.0
  H  H209  1  0.416900  0.779600  0.407000  1.0
  H  H210  1  0.083100  0.279600  0.093000  1.0
  H  H211  1  0.583100  0.220400  0.593000  1.0
  H  H212  1  0.916900  0.720400  0.907000  1.0
  H  H213  1  0.261200  0.812600  0.389800  1.0
  H  H214  1  0.238800  0.312600  0.110200  1.0
  H  H215  1  0.738800  0.187400  0.610200  1.0
  H  H216  1  0.761200  0.687400  0.889800  1.0
  H  H217  1  0.325200  0.864900  0.409900  1.0
  H  H218  1  0.174800  0.364900  0.090100  1.0
  H  H219  1  0.674800  0.135100  0.590100  1.0
  H  H220  1  0.825200  0.635100  0.909900  1.0
  H  H221  1  0.330300  0.813300  0.495000  1.0
  H  H222  1  0.169700  0.313300  0.005000  1.0
  H  H223  1  0.669700  0.186700  0.505000  1.0
  H  H224  1  0.830300  0.686700  0.995000  1.0
  H  H225  1  0.242900  0.827000  0.482200  1.0
  H  H226  1  0.257100  0.327000  0.017800  1.0
  H  H227  1  0.757100  0.173000  0.517800  1.0
  H  H228  1  0.742900  0.673000  0.982200  1.0
  H  H229  1  0.327200  0.389800  0.321300  1.0
  H  H230  1  0.172800  0.889800  0.178700  1.0
  H  H231  1  0.672800  0.610200  0.678700  1.0
  H  H232  1  0.827200  0.110200  0.821300  1.0
  H  H233  1  0.389000  0.363600  0.364000  1.0
  H  H234  1  0.111000  0.863600  0.136000  1.0
  H  H235  1  0.611000  0.636400  0.636000  1.0
  H  H236  1  0.889000  0.136400  0.864000  1.0
  H  H237  1  0.467200  0.462000  0.345900  1.0
  H  H238  1  0.032800  0.962000  0.154100  1.0
  H  H239  1  0.532800  0.538000  0.654100  1.0
  H  H240  1  0.967200  0.038000  0.845900  1.0
  H  H241  1  0.448300  0.425700  0.289100  1.0
  H  H242  1  0.051700  0.925700  0.210900  1.0
  H  H243  1  0.551700  0.574300  0.710900  1.0
  H  H244  1  0.948300  0.074300  0.789100  1.0
  H  H245  1  0.428400  0.547500  0.285800  1.0
  H  H246  1  0.071600  0.047500  0.214200  1.0
  H  H247  1  0.571600  0.452500  0.714200  1.0
  H  H248  1  0.928400  0.952500  0.785800  1.0
  H  H249  1  0.353600  0.505100  0.271100  1.0
  H  H250  1  0.146400  0.005100  0.228900  1.0
  H  H251  1  0.646400  0.494900  0.728900  1.0
  H  H252  1  0.853600  0.994900  0.771100  1.0
  H  H253  1  0.094100  0.358600  0.494700  1.0
  H  H254  1  0.405900  0.858600  0.005300  1.0
  H  H255  1  0.905900  0.641400  0.505300  1.0
  H  H256  1  0.594100  0.141400  0.994700  1.0
  H  H257  1  0.446500  0.392100  0.460900  1.0
  H  H258  1  0.053500  0.892100  0.039100  1.0
  H  H259  1  0.553500  0.607900  0.539100  1.0
  H  H260  1  0.946500  0.107900  0.960900  1.0
  H  H261  1  0.430800  0.469500  0.480500  1.0
  H  H262  1  0.069200  0.969500  0.019500  1.0
  H  H263  1  0.569200  0.530500  0.519500  1.0
  H  H264  1  0.930800  0.030500  0.980500  1.0
  H  H265  1  0.382100  0.742500  0.578600  1.0
  H  H266  1  0.117900  0.242500  0.921400  1.0
  H  H267  1  0.617900  0.257500  0.421400  1.0
  H  H268  1  0.882100  0.757500  0.078600  1.0
  H  H269  1  0.387600  0.683500  0.533500  1.0
  H  H270  1  0.112400  0.183500  0.966500  1.0
  H  H271  1  0.612400  0.316500  0.466500  1.0
  H  H272  1  0.887600  0.816500  0.033500  1.0
  H  H273  1  0.431900  0.603500  0.596000  1.0
  H  H274  1  0.068100  0.103500  0.904000  1.0
  H  H275  1  0.568100  0.396500  0.404000  1.0
  H  H276  1  0.931900  0.896500  0.096000  1.0
  H  H277  1  0.481800  0.671700  0.603900  1.0
  H  H278  1  0.018200  0.171700  0.896100  1.0
  H  H279  1  0.518200  0.328300  0.396100  1.0
  H  H280  1  0.981800  0.828300  0.103900  1.0
  H  H281  1  0.440700  0.626700  0.686700  1.0
  H  H282  1  0.059300  0.126700  0.813300  1.0
  H  H283  1  0.559300  0.373300  0.313300  1.0
  H  H284  1  0.940700  0.873300  0.186700  1.0
  H  H285  1  0.411900  0.704200  0.677400  1.0
  H  H286  1  0.088100  0.204200  0.822600  1.0
  H  H287  1  0.588100  0.295800  0.322600  1.0
  H  H288  1  0.911900  0.795800  0.177400  1.0
  H  H289  1  0.105000  0.420600  0.179800  1.0
  H  H290  1  0.395000  0.920600  0.320200  1.0
  H  H291  1  0.895000  0.579400  0.820200  1.0
  H  H292  1  0.605000  0.079400  0.679800  1.0
  H  H293  1  0.125000  0.372600  0.230500  1.0
  H  H294  1  0.375000  0.872600  0.269500  1.0
  H  H295  1  0.875000  0.627400  0.769500  1.0
  H  H296  1  0.625000  0.127400  0.730500  1.0
  H  H297  1  0.228700  0.443600  0.253800  1.0
  H  H298  1  0.271300  0.943600  0.246200  1.0
  H  H299  1  0.771300  0.556400  0.746200  1.0
  H  H300  1  0.728700  0.056400  0.753800  1.0
  H  H301  1  0.237000  0.423000  0.191300  1.0
  H  H302  1  0.263000  0.923000  0.308700  1.0
  H  H303  1  0.763000  0.577000  0.808700  1.0
  H  H304  1  0.737000  0.077000  0.691300  1.0
  H  H305  1  0.255100  0.543200  0.207800  1.0
  H  H306  1  0.244900  0.043200  0.292200  1.0
  H  H307  1  0.744900  0.456800  0.792200  1.0
  H  H308  1  0.755100  0.956800  0.707800  1.0
  H  H309  1  0.191400  0.527400  0.163600  1.0
  H  H310  1  0.308600  0.027400  0.336400  1.0
  H  H311  1  0.808600  0.472600  0.836400  1.0
  H  H312  1  0.691400  0.972600  0.663600  1.0
  H  H313  1  0.517000  0.379400  0.525500  1.0
  H  H314  1  0.983000  0.879400  0.974500  1.0
  H  H315  1  0.483000  0.620600  0.474500  1.0
  H  H316  1  0.017000  0.120600  0.025500  1.0
  H  H317  1  0.498200  0.454500  0.546400  1.0
  H  H318  1  0.001800  0.954500  0.953600  1.0
  H  H319  1  0.501800  0.545500  0.453600  1.0
  H  H320  1  0.998200  0.045500  0.046400  1.0
  H  H321  1  0.473700  0.417200  0.612500  1.0
  H  H322  1  0.026300  0.917200  0.887500  1.0
  H  H323  1  0.526300  0.582800  0.387500  1.0
  H  H324  1  0.973700  0.082800  0.112500  1.0
  H  H325  1  0.485500  0.340800  0.589800  1.0
  H  H326  1  0.014500  0.840800  0.910200  1.0
  H  H327  1  0.514500  0.659200  0.410200  1.0
  H  H328  1  0.985500  0.159200  0.089800  1.0
  C  C329  1  0.958900  0.558100  0.358200  1.0
  C  C330  1  0.541100  0.058100  0.141800  1.0
  C  C331  1  0.041100  0.441900  0.641800  1.0
  C  C332  1  0.458900  0.941900  0.858200  1.0
  C  C333  1  0.024000  0.628700  0.312800  1.0
  C  C334  1  0.476000  0.128700  0.187200  1.0
  C  C335  1  0.976000  0.371300  0.687200  1.0
  C  C336  1  0.524000  0.871300  0.812800  1.0
  C  C337  1  0.038000  0.562900  0.295700  1.0
  C  C338  1  0.462000  0.062900  0.204300  1.0
  C  C339  1  0.962000  0.437100  0.704300  1.0
  C  C340  1  0.538000  0.937100  0.795700  1.0
  C  C341  1  0.046300  0.697400  0.299600  1.0
  C  C342  1  0.453700  0.197400  0.200400  1.0
  C  C343  1  0.953700  0.302600  0.700400  1.0
  C  C344  1  0.546300  0.802600  0.799600  1.0
  C  C345  1  0.039000  0.815200  0.324900  1.0
  C  C346  1  0.461000  0.315200  0.175100  1.0
  C  C347  1  0.961000  0.184800  0.675100  1.0
  C  C348  1  0.539000  0.684800  0.824900  1.0
  C  C349  1  0.114700  0.822400  0.292200  1.0
  C  C350  1  0.385300  0.322400  0.207800  1.0
  C  C351  1  0.885300  0.177600  0.707800  1.0
  C  C352  1  0.614700  0.677600  0.792200  1.0
  C  C353  1  0.107800  0.781600  0.242400  1.0
  C  C354  1  0.392200  0.281600  0.257600  1.0
  C  C355  1  0.892200  0.218400  0.757600  1.0
  C  C356  1  0.607800  0.718400  0.742400  1.0
  C  C357  1  0.123100  0.439900  0.382900  1.0
  C  C358  1  0.376900  0.939900  0.117100  1.0
  C  C359  1  0.876900  0.560100  0.617100  1.0
  C  C360  1  0.623100  0.060100  0.882900  1.0
  C  C361  1  0.173100  0.337200  0.375800  1.0
  C  C362  1  0.326900  0.837200  0.124200  1.0
  C  C363  1  0.826900  0.662800  0.624200  1.0
  C  C364  1  0.673100  0.162800  0.875800  1.0
  C  C365  1  0.105300  0.338800  0.344500  1.0
  C  C366  1  0.394700  0.838800  0.155500  1.0
  C  C367  1  0.894700  0.661200  0.655500  1.0
  C  C368  1  0.605300  0.161200  0.844500  1.0
  C  C369  1  0.232700  0.289700  0.388600  1.0
  C  C370  1  0.267300  0.789700  0.111400  1.0
  C  C371  1  0.767300  0.710300  0.611400  1.0
  C  C372  1  0.732700  0.210300  0.888600  1.0
  C  C373  1  0.341100  0.262900  0.444600  1.0
  C  C374  1  0.158900  0.762900  0.055400  1.0
  C  C375  1  0.658900  0.737100  0.555400  1.0
  C  C376  1  0.841100  0.237100  0.944600  1.0
  C  C377  1  0.314400  0.190200  0.437500  1.0
  C  C378  1  0.185600  0.690200  0.062500  1.0
  C  C379  1  0.685600  0.809800  0.562500  1.0
  C  C380  1  0.814400  0.309800  0.937500  1.0
  C  C381  1  0.291200  0.176300  0.380200  1.0
  C  C382  1  0.208800  0.676300  0.119800  1.0
  C  C383  1  0.708800  0.823700  0.619800  1.0
  C  C384  1  0.791200  0.323700  0.880200  1.0
  C  C385  1  0.058500  0.295500  0.310300  1.0
  C  C386  1  0.441500  0.795500  0.189700  1.0
  C  C387  1  0.941500  0.704500  0.689700  1.0
  C  C388  1  0.558500  0.204500  0.810300  1.0
  C  C389  1  0.022400  0.183100  0.276500  1.0
  C  C390  1  0.477600  0.683100  0.223500  1.0
  C  C391  1  0.977600  0.816900  0.723500  1.0
  C  C392  1  0.522400  0.316900  0.776500  1.0
  C  C393  1  0.995300  0.221200  0.230000  1.0
  C  C394  1  0.504700  0.721200  0.270000  1.0
  C  C395  1  0.004700  0.778800  0.770000  1.0
  C  C396  1  0.495300  0.278800  0.730000  1.0
  C  C397  1  0.961200  0.291200  0.244000  1.0
  C  C398  1  0.538800  0.791200  0.256000  1.0
  C  C399  1  0.038800  0.708800  0.756000  1.0
  C  C400  1  0.461200  0.208800  0.744000  1.0
  C  C401  1  0.086000  0.625500  0.602000  1.0
  C  C402  1  0.414000  0.125500  0.898000  1.0
  C  C403  1  0.914000  0.374500  0.398000  1.0
  C  C404  1  0.586000  0.874500  0.102000  1.0
  C  C405  1  0.152100  0.598600  0.674000  1.0
  C  C406  1  0.347900  0.098600  0.826000  1.0
  C  C407  1  0.847900  0.401400  0.326000  1.0
  C  C408  1  0.652100  0.901400  0.174000  1.0
  C  C409  1  0.151700  0.572100  0.729700  1.0
  C  C410  1  0.348300  0.072100  0.770300  1.0
  C  C411  1  0.848300  0.427900  0.270300  1.0
  C  C412  1  0.651700  0.927900  0.229700  1.0
  C  C413  1  0.918300  0.472400  0.196700  1.0
  C  C414  1  0.581700  0.972400  0.303300  1.0
  C  C415  1  0.081700  0.527600  0.803300  1.0
  C  C416  1  0.418300  0.027600  0.696700  1.0
  C  C417  1  0.846000  0.501900  0.179800  1.0
  C  C418  1  0.654000  0.001900  0.320200  1.0
  C  C419  1  0.154000  0.498100  0.820200  1.0
  C  C420  1  0.346000  0.998100  0.679800  1.0
  C  C421  1  0.779800  0.457900  0.189300  1.0
  C  C422  1  0.720200  0.957900  0.310700  1.0
  C  C423  1  0.220200  0.542100  0.810700  1.0
  C  C424  1  0.279800  0.042100  0.689300  1.0
  C  C425  1  0.863200  0.735600  0.279400  1.0
  C  C426  1  0.636800  0.235600  0.220600  1.0
  C  C427  1  0.136800  0.264400  0.720600  1.0
  C  C428  1  0.363200  0.764400  0.779400  1.0
  C  C429  1  0.202600  0.310600  0.647800  1.0
  C  C430  1  0.297400  0.810600  0.852200  1.0
  C  C431  1  0.797400  0.689400  0.352200  1.0
  C  C432  1  0.702600  0.189400  0.147800  1.0
  C  C433  1  0.791300  0.718000  0.250700  1.0
  C  C434  1  0.708700  0.218000  0.249300  1.0
  C  C435  1  0.208700  0.282000  0.749300  1.0
  C  C436  1  0.291300  0.782000  0.750700  1.0
  C  C437  1  0.729400  0.708000  0.269900  1.0
  C  C438  1  0.770600  0.208000  0.230100  1.0
  C  C439  1  0.270600  0.292000  0.730100  1.0
  C  C440  1  0.229400  0.792000  0.769900  1.0
  C  C441  1  0.078600  0.669900  0.455800  1.0
  C  C442  1  0.421400  0.169900  0.044200  1.0
  C  C443  1  0.921400  0.330100  0.544200  1.0
  C  C444  1  0.578600  0.830100  0.955800  1.0
  C  C445  1  0.024200  0.770500  0.467800  1.0
  C  C446  1  0.475800  0.270500  0.032200  1.0
  C  C447  1  0.975800  0.229500  0.532200  1.0
  C  C448  1  0.524200  0.729500  0.967800  1.0
  C  C449  1  0.085100  0.764700  0.504500  1.0
  C  C450  1  0.414900  0.264700  0.995500  1.0
  C  C451  1  0.914900  0.235300  0.495500  1.0
  C  C452  1  0.585100  0.735300  0.004500  1.0
  C  C453  1  0.121200  0.805000  0.547800  1.0
  C  C454  1  0.378800  0.305000  0.952200  1.0
  C  C455  1  0.878800  0.195000  0.452200  1.0
  C  C456  1  0.621200  0.695000  0.047800  1.0
  C  C457  1  0.122600  0.899500  0.608700  1.0
  C  C458  1  0.377400  0.399500  0.891300  1.0
  C  C459  1  0.877400  0.100500  0.391300  1.0
  C  C460  1  0.622600  0.600500  0.108700  1.0
  C  C461  1  0.184900  0.870400  0.627600  1.0
  C  C462  1  0.315100  0.370400  0.872400  1.0
  C  C463  1  0.815100  0.129600  0.372400  1.0
  C  C464  1  0.684900  0.629600  0.127600  1.0
  C  C465  1  0.224900  0.812600  0.609200  1.0
  C  C466  1  0.275100  0.312600  0.890800  1.0
  C  C467  1  0.775100  0.187400  0.390800  1.0
  C  C468  1  0.724900  0.687400  0.109200  1.0
  C  C469  1  0.970000  0.821400  0.450300  1.0
  C  C470  1  0.530000  0.321400  0.049700  1.0
  C  C471  1  0.030000  0.178600  0.549700  1.0
  C  C472  1  0.470000  0.678600  0.950300  1.0
  C  C473  1  0.862600  0.845800  0.397600  1.0
  C  C474  1  0.637400  0.345800  0.102400  1.0
  C  C475  1  0.137400  0.154200  0.602400  1.0
  C  C476  1  0.362600  0.654200  0.897600  1.0
  C  C477  1  0.849400  0.904600  0.436900  1.0
  C  C478  1  0.650600  0.404600  0.063100  1.0
  C  C479  1  0.150600  0.095400  0.563100  1.0
  C  C480  1  0.349400  0.595400  0.936900  1.0
  C  C481  1  0.924700  0.938700  0.449800  1.0
  C  C482  1  0.575300  0.438700  0.050200  1.0
  C  C483  1  0.075300  0.061300  0.550200  1.0
  C  C484  1  0.424700  0.561300  0.949800  1.0
  C  C485  1  0.217700  0.537900  0.504700  1.0
  C  C486  1  0.282300  0.037900  0.995300  1.0
  C  C487  1  0.782300  0.462100  0.495300  1.0
  C  C488  1  0.717700  0.962100  0.004700  1.0
  C  C489  1  0.281900  0.547100  0.432100  1.0
  C  C490  1  0.218100  0.047100  0.067900  1.0
  C  C491  1  0.718100  0.452900  0.567900  1.0
  C  C492  1  0.781900  0.952900  0.932100  1.0
  C  C493  1  0.275500  0.612900  0.453100  1.0
  C  C494  1  0.224500  0.112900  0.046900  1.0
  C  C495  1  0.724500  0.387100  0.546900  1.0
  C  C496  1  0.775500  0.887100  0.953100  1.0
  C  C497  1  0.296500  0.682800  0.443500  1.0
  C  C498  1  0.203500  0.182800  0.056500  1.0
  C  C499  1  0.703500  0.317200  0.556500  1.0
  C  C500  1  0.796500  0.817200  0.943500  1.0
  C  C501  1  0.367600  0.768400  0.390400  1.0
  C  C502  1  0.132400  0.268400  0.109600  1.0
  C  C503  1  0.632400  0.231600  0.609600  1.0
  C  C504  1  0.867600  0.731600  0.890400  1.0
  C  C505  1  0.307200  0.816700  0.412300  1.0
  C  C506  1  0.192800  0.316700  0.087700  1.0
  C  C507  1  0.692800  0.183300  0.587700  1.0
  C  C508  1  0.807200  0.683300  0.912300  1.0
  C  C509  1  0.287700  0.800100  0.471200  1.0
  C  C510  1  0.212300  0.300100  0.028800  1.0
  C  C511  1  0.712300  0.199900  0.528800  1.0
  C  C512  1  0.787700  0.699900  0.971200  1.0
  C  C513  1  0.321800  0.513600  0.386300  1.0
  C  C514  1  0.178200  0.013600  0.113700  1.0
  C  C515  1  0.678200  0.486400  0.613700  1.0
  C  C516  1  0.821800  0.986400  0.886300  1.0
  C  C517  1  0.365000  0.405100  0.348200  1.0
  C  C518  1  0.135000  0.905100  0.151800  1.0
  C  C519  1  0.635000  0.594900  0.651800  1.0
  C  C520  1  0.865000  0.094900  0.848200  1.0
  C  C521  1  0.426300  0.450900  0.320000  1.0
  C  C522  1  0.073700  0.950900  0.180000  1.0
  C  C523  1  0.573700  0.549100  0.680000  1.0
  C  C524  1  0.926300  0.049100  0.820000  1.0
  C  C525  1  0.389400  0.516200  0.300600  1.0
  C  C526  1  0.110600  0.016200  0.199400  1.0
  C  C527  1  0.610600  0.483800  0.699400  1.0
  C  C528  1  0.889400  0.983800  0.800600  1.0
  C  C529  1  0.135100  0.354900  0.519400  1.0
  C  C530  1  0.364900  0.854900  0.980600  1.0
  C  C531  1  0.864900  0.645100  0.480600  1.0
  C  C532  1  0.635100  0.145100  0.019400  1.0
  C  C533  1  0.200400  0.335500  0.590400  1.0
  C  C534  1  0.299600  0.835500  0.909600  1.0
  C  C535  1  0.799600  0.664500  0.409600  1.0
  C  C536  1  0.700400  0.164500  0.090400  1.0
  C  C537  1  0.248800  0.361300  0.553600  1.0
  C  C538  1  0.251200  0.861300  0.946400  1.0
  C  C539  1  0.751200  0.638700  0.446400  1.0
  C  C540  1  0.748800  0.138700  0.053600  1.0
  C  C541  1  0.329600  0.380200  0.548100  1.0
  C  C542  1  0.170400  0.880200  0.951900  1.0
  C  C543  1  0.670400  0.619800  0.451900  1.0
  C  C544  1  0.829600  0.119800  0.048100  1.0
  C  C545  1  0.427700  0.420300  0.491200  1.0
  C  C546  1  0.072300  0.920300  0.008800  1.0
  C  C547  1  0.572300  0.579700  0.508800  1.0
  C  C548  1  0.927700  0.079700  0.991200  1.0
  C  C549  1  0.199700  0.625200  0.636200  1.0
  C  C550  1  0.300300  0.125200  0.863800  1.0
  C  C551  1  0.800300  0.374800  0.363800  1.0
  C  C552  1  0.699700  0.874800  0.136200  1.0
  C  C553  1  0.279600  0.644500  0.629200  1.0
  C  C554  1  0.220400  0.144500  0.870800  1.0
  C  C555  1  0.720400  0.355500  0.370800  1.0
  C  C556  1  0.779600  0.855500  0.129200  1.0
  C  C557  1  0.375800  0.692400  0.571900  1.0
  C  C558  1  0.124200  0.192400  0.928100  1.0
  C  C559  1  0.624200  0.307600  0.428100  1.0
  C  C560  1  0.875800  0.807600  0.071900  1.0
  C  C561  1  0.430500  0.652300  0.607700  1.0
  C  C562  1  0.069500  0.152300  0.892300  1.0
  C  C563  1  0.569500  0.347700  0.392300  1.0
  C  C564  1  0.930500  0.847700  0.107700  1.0
  C  C565  1  0.407200  0.656100  0.664400  1.0
  C  C566  1  0.092800  0.156100  0.835600  1.0
  C  C567  1  0.592800  0.343900  0.335600  1.0
  C  C568  1  0.907200  0.843900  0.164400  1.0
  C  C569  1  0.089900  0.528700  0.257700  1.0
  C  C570  1  0.410100  0.028700  0.242300  1.0
  C  C571  1  0.910100  0.471300  0.742300  1.0
  C  C572  1  0.589900  0.971300  0.757700  1.0
  C  C573  1  0.124600  0.420800  0.217300  1.0
  C  C574  1  0.375400  0.920800  0.282700  1.0
  C  C575  1  0.875400  0.579200  0.782700  1.0
  C  C576  1  0.624600  0.079200  0.717300  1.0
  C  C577  1  0.206000  0.449100  0.217400  1.0
  C  C578  1  0.294000  0.949100  0.282600  1.0
  C  C579  1  0.794000  0.550900  0.782600  1.0
  C  C580  1  0.706000  0.050900  0.717400  1.0
  C  C581  1  0.204400  0.523100  0.202400  1.0
  C  C582  1  0.295600  0.023100  0.297600  1.0
  C  C583  1  0.795600  0.476900  0.797600  1.0
  C  C584  1  0.704400  0.976900  0.702400  1.0
  C  C585  1  0.475300  0.409000  0.538500  1.0
  C  C586  1  0.024700  0.909000  0.961500  1.0
  C  C587  1  0.524700  0.591000  0.461500  1.0
  C  C588  1  0.975300  0.091000  0.038500  1.0
  C  C589  1  0.457600  0.384500  0.584100  1.0
  C  C590  1  0.042400  0.884500  0.915900  1.0
  C  C591  1  0.542400  0.615500  0.415900  1.0
  C  C592  1  0.957600  0.115500  0.084100  1.0
  Br  Br593  1  0.281280  0.679110  0.273180  1
  Br  Br594  1  0.218720  0.179110  0.226820  1
  Br  Br595  1  0.718720  0.320890  0.726820  1
  Br  Br596  1  0.781280  0.820890  0.773180  1
  Br  Br597  1  0.500000  0.000000  0.000000  1
  Br  Br598  1  0.000000  0.500000  0.500000  1
  Br  Br599  1  0.389200  0.193600  0.596550  1
  Br  Br600  1  0.110800  0.693600  0.903450  1
  Br  Br601  1  0.610800  0.806400  0.403450  1
  Br  Br602  1  0.889200  0.306400  0.096550  1
  Br  Br603  1  0.897400  0.881400  0.591500  1
  Br  Br604  1  0.602600  0.381400  0.908500  1
  Br  Br605  1  0.102600  0.118600  0.408500  1
  Br  Br606  1  0.397400  0.618600  0.091500  1
  Br  Br607  1  0.074800  0.035700  0.714400  1
  Br  Br608  1  0.425200  0.535700  0.785600  1
  Br  Br609  1  0.925200  0.964300  0.285600  1
  Br  Br610  1  0.574800  0.464300  0.214400  1
  Br  Br611  1  0.220100  0.980300  0.859500  1
  Br  Br612  1  0.279900  0.480300  0.640500  1
  Br  Br613  1  0.779900  0.019700  0.140500  1
  Br  Br614  1  0.720100  0.519700  0.359500  1
  Br  Br615  1  0.912200  0.003900  0.659600  1
  Br  Br616  1  0.587800  0.503900  0.840400  1
  Br  Br617  1  0.087800  0.996100  0.340400  1
  Br  Br618  1  0.412200  0.496100  0.159600  1
  Br  Br619  1  0.489210  0.841690  0.646450  1
  Br  Br620  1  0.010790  0.341690  0.853550  1
  Br  Br621  1  0.510790  0.158310  0.353550  1
  Br  Br622  1  0.989210  0.658310  0.146450  1
  Br  Br623  1  0.132600  0.961600  0.783710  1
  Br  Br624  1  0.367400  0.461600  0.716290  1
  Br  Br625  1  0.867400  0.038400  0.216290  1
  Br  Br626  1  0.632600  0.538400  0.283710  1
  Br  Br627  1  0.913500  0.913800  0.610700  1
  Br  Br628  1  0.586500  0.413800  0.889300  1
  Br  Br629  1  0.086500  0.086200  0.389300  1
  Br  Br630  1  0.413500  0.586200  0.110700  1
  Br  Br631  1  0.988500  0.022100  0.688800  1
  Br  Br632  1  0.511500  0.522100  0.811200  1
  Br  Br633  1  0.011500  0.977900  0.311200  1
  Br  Br634  1  0.488500  0.477900  0.188800  1
  N  N635  1  0.992800  0.518100  0.323600  1.0
  N  N636  1  0.507200  0.018100  0.176400  1.0
  N  N637  1  0.007200  0.481900  0.676400  1.0
  N  N638  1  0.492800  0.981900  0.823600  1.0
  N  N639  1  0.972900  0.623200  0.354400  1.0
  N  N640  1  0.527100  0.123200  0.145600  1.0
  N  N641  1  0.027100  0.376800  0.645600  1.0
  N  N642  1  0.472900  0.876800  0.854400  1.0
  N  N643  1  0.017900  0.743800  0.332400  1.0
  N  N644  1  0.482100  0.243800  0.167600  1.0
  N  N645  1  0.982100  0.256200  0.667600  1.0
  N  N646  1  0.517900  0.756200  0.832400  1.0
  N  N647  1  0.086700  0.709600  0.254700  1.0
  N  N648  1  0.413300  0.209600  0.245300  1.0
  N  N649  1  0.913300  0.290400  0.745300  1.0
  N  N650  1  0.586700  0.790400  0.754700  1.0
  N  N651  1  0.074600  0.461700  0.251000  1.0
  N  N652  1  0.425400  0.961700  0.249000  1.0
  N  N653  1  0.925400  0.538300  0.749000  1.0
  N  N654  1  0.574600  0.038300  0.751000  1.0
  N  N655  1  0.150300  0.561600  0.234000  1.0
  N  N656  1  0.349700  0.061600  0.266000  1.0
  N  N657  1  0.849700  0.438400  0.766000  1.0
  N  N658  1  0.650300  0.938400  0.734000  1.0
  N  N659  1  0.247600  0.499300  0.464900  1.0
  N  N660  1  0.252400  0.999300  0.035100  1.0
  N  N661  1  0.752400  0.500700  0.535100  1.0
  N  N662  1  0.747600  0.000700  0.964900  1.0
  N  N663  1  0.230600  0.603400  0.498900  1.0
  N  N664  1  0.269400  0.103400  0.001100  1.0
  N  N665  1  0.769400  0.396600  0.501100  1.0
  N  N666  1  0.730600  0.896600  0.998900  1.0
  N  N667  1  0.272100  0.725400  0.477100  1.0
  N  N668  1  0.227900  0.225400  0.022900  1.0
  N  N669  1  0.727900  0.274600  0.522900  1.0
  N  N670  1  0.772100  0.774600  0.977100  1.0
  N  N671  1  0.346800  0.696000  0.403000  1.0
  N  N672  1  0.153200  0.196000  0.097000  1.0
  N  N673  1  0.653200  0.304000  0.597000  1.0
  N  N674  1  0.846800  0.804000  0.903000  1.0
  N  N675  1  0.349200  0.551500  0.343900  1.0
  N  N676  1  0.150800  0.051500  0.156100  1.0
  N  N677  1  0.650800  0.448500  0.656100  1.0
  N  N678  1  0.849200  0.948500  0.843900  1.0
  N  N679  1  0.327400  0.445700  0.391500  1.0
  N  N680  1  0.172600  0.945700  0.108500  1.0
  N  N681  1  0.672600  0.554300  0.608500  1.0
  N  N682  1  0.827400  0.054300  0.891500  1.0
  N  N683  1  0.119700  0.701400  0.493900  1.0
  N  N684  1  0.380300  0.201400  0.006100  1.0
  N  N685  1  0.880300  0.298600  0.506100  1.0
  N  N686  1  0.619700  0.798600  0.993900  1.0
  N  N687  1  0.022100  0.709600  0.438100  1.0
  N  N688  1  0.477900  0.209600  0.061900  1.0
  N  N689  1  0.977900  0.290400  0.561900  1.0
  N  N690  1  0.522100  0.790400  0.938100  1.0
  N  N691  1  0.922500  0.798700  0.415100  1.0
  N  N692  1  0.577500  0.298700  0.084900  1.0
  N  N693  1  0.077500  0.201300  0.584900  1.0
  N  N694  1  0.422500  0.701300  0.915100  1.0
  N  N695  1  0.978400  0.886000  0.468400  1.0
  N  N696  1  0.521600  0.386000  0.031600  1.0
  N  N697  1  0.021600  0.114000  0.531600  1.0
  N  N698  1  0.478400  0.614000  0.968400  1.0
  N  N699  1  0.085600  0.861000  0.565600  1.0
  N  N700  1  0.414400  0.361000  0.934400  1.0
  N  N701  1  0.914400  0.139000  0.434400  1.0
  N  N702  1  0.585600  0.639000  0.065600  1.0
  N  N703  1  0.183900  0.776700  0.565300  1.0
  N  N704  1  0.316100  0.276700  0.934700  1.0
  N  N705  1  0.816100  0.223300  0.434700  1.0
  N  N706  1  0.683900  0.723300  0.065300  1.0
  N  N707  1  0.156600  0.642600  0.591900  1.0
  N  N708  1  0.343400  0.142600  0.908100  1.0
  N  N709  1  0.843400  0.357400  0.408100  1.0
  N  N710  1  0.656600  0.857400  0.091900  1.0
  N  N711  1  0.296200  0.672500  0.582600  1.0
  N  N712  1  0.203800  0.172500  0.917400  1.0
  N  N713  1  0.703800  0.327500  0.417400  1.0
  N  N714  1  0.796200  0.827500  0.082600  1.0
  N  N715  1  0.329400  0.633000  0.670400  1.0
  N  N716  1  0.170600  0.133000  0.829600  1.0
  N  N717  1  0.670600  0.367000  0.329600  1.0
  N  N718  1  0.829400  0.867000  0.170400  1.0
  N  N719  1  0.205900  0.373100  0.507600  1.0
  N  N720  1  0.294100  0.873100  0.992400  1.0
  N  N721  1  0.794100  0.626900  0.492400  1.0
  N  N722  1  0.705900  0.126900  0.007600  1.0
  N  N723  1  0.871100  0.668500  0.431300  1.0
  N  N724  1  0.628900  0.168500  0.068700  1.0
  N  N725  1  0.128900  0.331500  0.568700  1.0
  N  N726  1  0.371100  0.831500  0.931300  1.0
  N  N727  1  0.346500  0.401900  0.502100  1.0
  N  N728  1  0.153500  0.901900  0.997900  1.0
  N  N729  1  0.653500  0.598100  0.497900  1.0
  N  N730  1  0.846500  0.098100  0.002100  1.0
  N  N731  1  0.376500  0.371000  0.590000  1.0
  N  N732  1  0.123500  0.871000  0.910000  1.0
  N  N733  1  0.623500  0.629000  0.410000  1.0
  N  N734  1  0.876500  0.129000  0.090000  1.0
  N  N735  1  0.181100  0.400300  0.399300  1.0
  N  N736  1  0.318900  0.900300  0.100700  1.0
  N  N737  1  0.818900  0.599700  0.600700  1.0
  N  N738  1  0.681100  0.099700  0.899300  1.0
  N  N739  1  0.077800  0.404000  0.349500  1.0
  N  N740  1  0.422200  0.904000  0.150500  1.0
  N  N741  1  0.922200  0.596000  0.650500  1.0
  N  N742  1  0.577800  0.096000  0.849500  1.0
  N  N743  1  0.011100  0.331100  0.279800  1.0
  N  N744  1  0.488900  0.831100  0.220200  1.0
  N  N745  1  0.988900  0.668900  0.720200  1.0
  N  N746  1  0.511100  0.168900  0.779800  1.0
  N  N747  1  0.066200  0.226100  0.312400  1.0
  N  N748  1  0.433800  0.726100  0.187600  1.0
  N  N749  1  0.933800  0.773900  0.687600  1.0
  N  N750  1  0.566200  0.273900  0.812400  1.0
  N  N751  1  0.235900  0.228000  0.362400  1.0
  N  N752  1  0.264100  0.728000  0.137600  1.0
  N  N753  1  0.764100  0.772000  0.637600  1.0
  N  N754  1  0.735900  0.272000  0.862400  1.0
  N  N755  1  0.279300  0.311400  0.425100  1.0
  N  N756  1  0.220700  0.811400  0.074900  1.0
  N  N757  1  0.720700  0.688600  0.574900  1.0
  N  N758  1  0.779300  0.188600  0.925100  1.0
  N  N759  1  0.920700  0.398500  0.347600  1.0
  N  N760  1  0.579300  0.898500  0.152400  1.0
  N  N761  1  0.079300  0.601500  0.652400  1.0
  N  N762  1  0.420700  0.101500  0.847600  1.0
  N  N763  1  0.913600  0.442200  0.252000  1.0
  N  N764  1  0.586400  0.942200  0.248000  1.0
  N  N765  1  0.086400  0.557800  0.748000  1.0
  N  N766  1  0.413600  0.057800  0.752000  1.0
  N  N767  1  0.221100  0.564500  0.754400  1.0
  N  N768  1  0.278900  0.064500  0.745600  1.0
  N  N769  1  0.778900  0.435500  0.245600  1.0
  N  N770  1  0.721100  0.935500  0.254400  1.0
  N  N771  1  0.860000  0.713300  0.334700  1.0
  N  N772  1  0.640000  0.213300  0.165300  1.0
  N  N773  1  0.140000  0.286700  0.665300  1.0
  N  N774  1  0.360000  0.786700  0.834700  1.0
  N  N775  1  0.270000  0.317700  0.675100  1.0
  N  N776  1  0.230000  0.817700  0.824900  1.0
  N  N777  1  0.730000  0.682300  0.324900  1.0
  N  N778  1  0.770000  0.182300  0.175100  1.0
  O  O779  1  0.495100  0.778000  0.506400  1
  O  O780  1  0.004900  0.278000  0.993600  1
  O  O781  1  0.504900  0.222000  0.493600  1
  O  O782  1  0.995100  0.722000  0.006400  1
  O  O783  1  0.074500  0.511900  0.090300  1
  O  O784  1  0.425500  0.011900  0.409700  1
  O  O785  1  0.925500  0.488100  0.909700  1
  O  O786  1  0.574500  0.988100  0.590300  1
  O  O787  1  0.433000  0.914000  0.533000  1
  O  O788  1  0.067000  0.414000  0.967000  1
  O  O789  1  0.567000  0.086000  0.467000  1
  O  O790  1  0.933000  0.586000  0.033000  1
  O  O791  1  0.264000  0.010000  0.451100  1
  O  O792  1  0.236000  0.510000  0.048900  1
  O  O793  1  0.736000  0.990000  0.548900  1
  O  O794  1  0.764000  0.490000  0.951100  1
  O  O795  1  0.397000  0.854000  0.665200  1
  O  O796  1  0.103000  0.354000  0.834800  1
  O  O797  1  0.603000  0.146000  0.334800  1
  O  O798  1  0.897000  0.646000  0.165200  1
  O  O799  1  0.470000  0.909000  0.443100  1
  O  O800  1  0.030000  0.409000  0.056900  1
  O  O801  1  0.530000  0.091000  0.556900  1
  O  O802  1  0.970000  0.591000  0.943100  1
  O  O803  1  0.341000  0.025000  0.545000  1
  O  O804  1  0.159000  0.525000  0.955000  1
  O  O805  1  0.659000  0.975000  0.455000  1
  O  O806  1  0.841000  0.475000  0.045000  1
  O  O807  1  0.265000  0.961000  0.517400  1
  O  O808  1  0.235000  0.461000  0.982600  1
  O  O809  1  0.735000  0.039000  0.482600  1
  O  O810  1  0.765000  0.539000  0.017400  1
  O  O811  1  0.137900  0.924100  0.440000  1
  O  O812  1  0.362100  0.424100  0.060000  1
  O  O813  1  0.862100  0.075900  0.560000  1
  O  O814  1  0.637900  0.575900  0.940000  1
  O  O815  1  0.394000  0.913000  0.543000  1
  O  O816  1  0.106000  0.413000  0.957000  1
  O  O817  1  0.606000  0.087000  0.457000  1
  O  O818  1  0.894000  0.587000  0.043000  1
  O  O819  1  0.329000  0.989000  0.494000  1
  O  O820  1  0.171000  0.489000  0.006000  1
  O  O821  1  0.671000  0.011000  0.506000  1
  O  O822  1  0.829000  0.511000  0.994000  1
  O  O823  1  0.283000  0.629000  0.249000  1
  O  O824  1  0.217000  0.129000  0.251000  1
  O  O825  1  0.717000  0.371000  0.751000  1
  O  O826  1  0.783000  0.871000  0.749000  1
  O  O827  1  0.550000  0.933000  0.454000  1
  O  O828  1  0.950000  0.433000  0.046000  1
  O  O829  1  0.450000  0.067000  0.546000  1
  O  O830  1  0.050000  0.567000  0.954000  1
  O  O831  1  0.352400  0.199900  0.619500  1
  O  O832  1  0.147600  0.699900  0.880500  1
  O  O833  1  0.647600  0.800100  0.380500  1
  O  O834  1  0.852400  0.300100  0.119500  1
  O  O835  1  0.160000  0.942000  0.454100  1
  O  O836  1  0.340000  0.442000  0.045900  1
  O  O837  1  0.840000  0.058000  0.545900  1
  O  O838  1  0.660000  0.558000  0.954100  1
  O  O839  1  0.128800  0.973900  0.820000  1
  O  O840  1  0.371200  0.473900  0.680000  1
  O  O841  1  0.871200  0.026100  0.180000  1
  O  O842  1  0.628800  0.526100  0.320000  1
