
#######################################################################
#
#                 Cambridge Crystallographic Data Centre
#                                CCDC 
#
#######################################################################
#
# If this CIF has been generated from an entry in the Cambridge 
# Structural Database, then it will include bibliographic, chemical, 
# crystal, experimental, refinement or atomic coordinate data resulting 
# from the CCDC's data processing and validation procedures.
#
#######################################################################

data_EWIGIB
_chemical_formula_moiety         
'C132 H180 Co8 N72 12+,2(Cl4 Co1 2-),8(Cl1 1-),8.5(H2 O1),3(C2 H6 O1 S1)'
_chemical_name_systematic        
"dodecakis(\m~2~-2,2'-(1H-Imidazole-4,5-diyl)bis(1,4,5,6-tetrahydropyrimidine))-octa-cobalt(iii) bis(tetrachloro-cobalt) octachloride dimethylsulfoxide solvate hydrate"
_symmetry_cell_setting           monoclinic
_symmetry_space_group_name_H-M   'C 2/m'
_symmetry_Int_Tables_number      12
_space_group_name_Hall           '-C 2y'
loop_
_symmetry_equiv_pos_site_id
_symmetry_equiv_pos_as_xyz
1 x,y,z
2 -x,y,-z
3 1/2+x,1/2+y,z
4 1/2-x,1/2+y,-z
5 -x,-y,-z
6 x,-y,z
7 1/2-x,1/2-y,-z
8 1/2+x,1/2-y,z
_cell_length_a                   28.550(2)
_cell_length_b                   22.5268(19)
_cell_length_c                   19.4189(16)
_cell_angle_alpha                90
_cell_angle_beta                 131.977(3)
_cell_angle_gamma                90
_cell_volume                     9284.54
_exptl_crystal_colour            red
_exptl_crystal_description       polyhedra
_cell_formula_units_Z            2
loop_
_atom_site_label
_atom_site_type_symbol
_atom_site_fract_x
_atom_site_fract_y
_atom_site_fract_z
Co3 Co 0.5000 0.22332(9) 0.0000
Cl6 Cl 0.47174(11) 0.16990(12) -0.12246(17)
Cl7 Cl 0.41477(15) 0.27956(15) -0.0563(2)
Cl6A Cl 0.52826(11) 0.16990(12) 0.12246(17)
Cl7A Cl 0.58523(15) 0.27956(15) 0.0563(2)
Cl1 Cl 0.5000 0.5000 0.5000
Cl2 Cl 0.8210(2) 0.5000 0.0498(4)
Cl3 Cl 0.0000 0.6439(2) 0.5000
Cl5 Cl 0.7500 0.2500 0.0000
O3 O 0.8387(8) 0.5000 0.3050(12)
O5 O 0.9149(18) 0.412(2) 0.548(3)
O6 O 0.7943(19) 0.0000 0.793(3)
Co1 Co 0.69700(5) 0.63225(6) 0.65704(8)
Co2 Co 0.46766(5) 0.63122(6) 0.25672(8)
C1 C 0.7303(3) 0.5306(4) 0.6180(5)
C2 C 0.7550(4) 0.5802(5) 0.6037(6)
C3 C 0.7699(4) 0.6846(5) 0.6097(7)
H1 H 0.7350 0.7094 0.5609
H2 H 0.7955 0.7074 0.6668
C4 C 0.5476(4) 0.7021(4) 0.4131(6)
C5 C 0.6018(4) 0.7021(4) 0.5071(6)
C6 C 0.5026(5) 0.7427(5) 0.3367(7)
C7 C 0.4147(5) 0.7543(5) 0.1762(7)
H3 H 0.3747 0.7336 0.1370
H4 H 0.4272 0.7599 0.1408
C8 C 0.4068(7) 0.8127(7) 0.2011(11)
H5 H 0.3799 0.8075 0.2148
H6 H 0.3843 0.8381 0.1471
C9 C 0.4604(9) 0.8424(6) 0.2748(12)
H7 H 0.4795 0.8615 0.2540
H8 H 0.4487 0.8732 0.2957
C10 C 0.6442(4) 0.7445(5) 0.5832(6)
C11 C 0.6769(7) 0.8460(6) 0.6461(11)
H9 H 0.6565 0.8625 0.6664
H10 H 0.6865 0.8783 0.6242
C12 C 0.7300(8) 0.8191(7) 0.7168(10)
H11 H 0.7601 0.8286 0.7104
H12 H 0.7442 0.8401 0.7715
C13 C 0.7399(4) 0.7564(5) 0.7417(7)
H13 H 0.7822 0.7451 0.7694
H14 H 0.7361 0.7499 0.7872
C14 C 0.6923(4) 0.6229(4) 0.7949(5)
C15 C 0.6544(4) 0.6196(4) 0.8142(5)
C16 C 0.7592(4) 0.6239(5) 0.8423(6)
C17 C 0.8353(4) 0.6228(5) 0.8303(6)
H15 H 0.8384 0.5982 0.7926
H16 H 0.8495 0.6625 0.8326
C18 C 0.8778(4) 0.5967(6) 0.9304(7)
H17 H 0.9216 0.5988 0.9594
H18 H 0.8672 0.5552 0.9270
C19 C 0.8697(4) 0.6284(7) 0.9854(7)
H19 H 0.8936 0.6094 1.0454
H20 H 0.8847 0.6688 0.9950
C20 C 0.6595(4) 0.6118(4) 0.8942(6)
C21 C 0.7207(6) 0.5939(8) 1.0588(7)
H21 H 0.7532 0.6213 1.1055
H22 H 0.7336 0.5542 1.0848
C22 C 0.6658(6) 0.6077(10) 1.0366(8)
H23 H 0.6616 0.5790 1.0695
H24 H 0.6733 0.6456 1.0661
C23 C 0.6040(4) 0.6123(5) 0.9463(6)
H25 H 0.5807 0.5762 0.9328
H26 H 0.5818 0.6451 0.9459
C24 C 0.5248(4) 0.5300(4) 0.2597(5)
C25 C 0.5528(5) 0.5817(5) 0.2496(6)
C26 C 0.6260(6) 0.6226(7) 0.2383(12)
H27 H 0.6037 0.6276 0.1732
H28 H 0.6701 0.6154 0.2715
C27 C 0.6199(5) 0.6755(5) 0.2735(9)
H29 H 0.6467 0.6723 0.3401
H30 H 0.6338 0.7096 0.2607
C28 C 0.5514(4) 0.6852(4) 0.2291(6)
H31 H 0.5255 0.6937 0.1637
H32 H 0.5494 0.7191 0.2578
C31 C 0.8081(9) 0.6682(7) 0.5868(14)
H33 H 0.8506 0.6809 0.6399
H34 H 0.7940 0.6946 0.5366
C32 C 0.8150(10) 0.6186(8) 0.5647(19)
H35 H 0.7955 0.6199 0.5004
H36 H 0.8596 0.6109 0.6022
C34 C 0.5796(3) 0.6096(4) 0.4590(5)
H37 H 0.5813 0.5684 0.4584
C35 C 0.4596(5) 0.5000 0.2722(7)
H38 H 0.4303 0.5000 0.2788
C36 C 0.6770(5) 0.5000 0.6552(7)
H39 H 0.6522 0.5000 0.6703
C37 C 0.5958(4) 0.6267(3) 0.6666(6)
H40 H 0.5606 0.6288 0.6035
N1 N 0.6976(3) 0.5500(3) 0.6426(4)
N2 N 0.7456(3) 0.6323(4) 0.6205(5)
N3 N 0.5350(3) 0.6436(3) 0.3850(4)
N4 N 0.6210(3) 0.6439(3) 0.5335(4)
N5 N 0.4624(3) 0.7173(3) 0.2582(5)
N6 N 0.5088(5) 0.8013(4) 0.3561(6)
N7 N 0.6332(4) 0.8024(4) 0.5683(7)
N8 N 0.6932(3) 0.7186(3) 0.6589(5)
N9 N 0.6536(3) 0.6267(3) 0.7004(4)
N10 N 0.4072(3) 0.6234(3) 0.2689(4)
N11 N 0.7710(3) 0.6249(3) 0.7900(4)
N12 N 0.8013(4) 0.6284(6) 0.9357(5)
N13 N 0.7144(3) 0.5966(5) 0.9754(5)
N14 N 0.3936(3) 0.6219(3) 0.1258(4)
N15 N 0.4822(3) 0.5499(3) 0.2671(4)
N16 N 0.5996(4) 0.5713(4) 0.2502(7)
N17 N 0.5276(3) 0.6334(4) 0.2404(5)
N18 N 0.7867(6) 0.5689(5) 0.5773(10)
Co1E Co 0.69700(5) 0.36775(6) 0.65704(8)
Co1D Co 0.30300(5) 0.36775(6) 0.34296(8)
Co1A Co 0.30300(5) 0.63225(6) 0.34296(8)
Co2E Co 0.46766(5) 0.36878(6) 0.25672(8)
Co2A Co 0.53234(5) 0.63122(6) 0.74328(8)
Co2D Co 0.53234(5) 0.36878(6) 0.74328(8)
C1E C 0.7303(3) 0.4694(4) 0.6180(5)
C1D C 0.2697(3) 0.4694(4) 0.3820(5)
C1A C 0.2697(3) 0.5306(4) 0.3820(5)
C2E C 0.7550(4) 0.4198(5) 0.6037(6)
C2A C 0.2450(4) 0.5802(5) 0.3963(6)
C2D C 0.2450(4) 0.4198(5) 0.3963(6)
C3D C 0.2301(4) 0.3154(5) 0.3903(7)
C3A C 0.2301(4) 0.6846(5) 0.3903(7)
C3E C 0.7699(4) 0.3154(5) 0.6097(7)
H1D H 0.2650 0.2906 0.4391
H1A H 0.2650 0.7094 0.4391
H1E H 0.7350 0.2906 0.5609
H2D H 0.2045 0.2926 0.3332
H2A H 0.2045 0.7074 0.3332
H2E H 0.7955 0.2926 0.6668
C4E C 0.5476(4) 0.2979(4) 0.4131(6)
C4A C 0.4524(4) 0.7021(4) 0.5869(6)
C4D C 0.4524(4) 0.2979(4) 0.5869(6)
C5E C 0.6018(4) 0.2979(4) 0.5071(6)
C5A C 0.3982(4) 0.7021(4) 0.4929(6)
C5D C 0.3982(4) 0.2979(4) 0.4929(6)
C6E C 0.5026(5) 0.2573(5) 0.3367(7)
C6A C 0.4974(5) 0.7427(5) 0.6633(7)
C6D C 0.4974(5) 0.2573(5) 0.6633(7)
C7D C 0.5853(5) 0.2457(5) 0.8238(7)
C7A C 0.5853(5) 0.7543(5) 0.8238(7)
C7E C 0.4147(5) 0.2457(5) 0.1762(7)
H3D H 0.6253 0.2664 0.8630
H3A H 0.6253 0.7336 0.8630
H3E H 0.3747 0.2664 0.1370
H4D H 0.5728 0.2401 0.8592
H4A H 0.5728 0.7599 0.8592
H4E H 0.4272 0.2401 0.1408
C8D C 0.5932(7) 0.1873(7) 0.7989(11)
C8A C 0.5932(7) 0.8127(7) 0.7989(11)
C8E C 0.4068(7) 0.1873(7) 0.2011(11)
H5D H 0.6201 0.1925 0.7852
H5A H 0.6201 0.8075 0.7852
H5E H 0.3799 0.1925 0.2148
H6D H 0.6157 0.1619 0.8529
H6A H 0.6157 0.8381 0.8529
H6E H 0.3843 0.1619 0.1471
C9D C 0.5396(9) 0.1576(6) 0.7252(12)
C9A C 0.5396(9) 0.8424(6) 0.7252(12)
C9E C 0.4604(9) 0.1576(6) 0.2748(12)
H7D H 0.5205 0.1385 0.7460
H7A H 0.5205 0.8615 0.7460
H7E H 0.4795 0.1385 0.2540
H8D H 0.5513 0.1268 0.7043
H8A H 0.5513 0.8732 0.7043
H8E H 0.4487 0.1268 0.2957
C10A C 0.3558(4) 0.7445(5) 0.4168(6)
C10E C 0.6442(4) 0.2555(5) 0.5832(6)
C10D C 0.3558(4) 0.2555(5) 0.4168(6)
C11A C 0.3231(7) 0.8460(6) 0.3539(11)
C11E C 0.6769(7) 0.1540(6) 0.6461(11)
C11D C 0.3231(7) 0.1540(6) 0.3539(11)
H9A H 0.3435 0.8625 0.3336
H9E H 0.6565 0.1375 0.6664
H9D H 0.3435 0.1375 0.3336
H10A H 0.3135 0.8783 0.3758
H10E H 0.6865 0.1217 0.6242
H10D H 0.3135 0.1217 0.3758
C12A C 0.2700(8) 0.8191(7) 0.2832(10)
C12E C 0.7300(8) 0.1809(7) 0.7168(10)
C12D C 0.2700(8) 0.1809(7) 0.2832(10)
H11A H 0.2399 0.8286 0.2896
H11E H 0.7601 0.1714 0.7104
H11D H 0.2399 0.1714 0.2896
H12A H 0.2558 0.8401 0.2285
H12E H 0.7442 0.1599 0.7715
H12D H 0.2558 0.1599 0.2285
C13A C 0.2601(4) 0.7564(5) 0.2583(7)
C13E C 0.7399(4) 0.2436(5) 0.7417(7)
C13D C 0.2601(4) 0.2436(5) 0.2583(7)
H13A H 0.2178 0.7451 0.2306
H13E H 0.7822 0.2549 0.7694
H13D H 0.2178 0.2549 0.2306
H14A H 0.2639 0.7499 0.2128
H14E H 0.7361 0.2501 0.7872
H14D H 0.2639 0.2501 0.2128
C14D C 0.3077(4) 0.3771(4) 0.2051(5)
C14A C 0.3077(4) 0.6229(4) 0.2051(5)
C14E C 0.6923(4) 0.3771(4) 0.7949(5)
C15D C 0.3456(4) 0.3804(4) 0.1858(5)
C15A C 0.3456(4) 0.6196(4) 0.1858(5)
C15E C 0.6544(4) 0.3804(4) 0.8142(5)
C16D C 0.2408(4) 0.3761(5) 0.1577(6)
C16A C 0.2408(4) 0.6239(5) 0.1577(6)
C16E C 0.7592(4) 0.3761(5) 0.8423(6)
C17A C 0.1647(4) 0.6228(5) 0.1697(6)
C17E C 0.8353(4) 0.3772(5) 0.8303(6)
C17D C 0.1647(4) 0.3772(5) 0.1697(6)
H15A H 0.1616 0.5982 0.2074
H15E H 0.8384 0.4018 0.7926
H15D H 0.1616 0.4018 0.2074
H16A H 0.1505 0.6625 0.1674
H16E H 0.8495 0.3375 0.8326
H16D H 0.1505 0.3375 0.1674
C18A C 0.1222(4) 0.5967(6) 0.0696(7)
C18E C 0.8778(4) 0.4033(6) 0.9304(7)
C18D C 0.1222(4) 0.4033(6) 0.0696(7)
H17A H 0.0784 0.5988 0.0406
H17E H 0.9216 0.4012 0.9594
H17D H 0.0784 0.4012 0.0406
H18A H 0.1328 0.5552 0.0730
H18E H 0.8672 0.4448 0.9270
H18D H 0.1328 0.4448 0.0730
C19A C 0.1303(4) 0.6284(7) 0.0146(7)
C19E C 0.8697(4) 0.3716(7) 0.9854(7)
C19D C 0.1303(4) 0.3716(7) 0.0146(7)
H19A H 0.1064 0.6094 -0.0454
H19E H 0.8936 0.3906 1.0454
H19D H 0.1064 0.3906 -0.0454
H20A H 0.1153 0.6688 0.0050
H20E H 0.8847 0.3312 0.9950
H20D H 0.1153 0.3312 0.0050
C20A C 0.3405(4) 0.6118(4) 0.1058(6)
C20D C 0.3405(4) 0.3882(4) 0.1058(6)
C20E C 0.6595(4) 0.3882(4) 0.8942(6)
C21A C 0.2793(6) 0.5939(8) -0.0588(7)
C21D C 0.2793(6) 0.4061(8) -0.0588(7)
C21E C 0.7207(6) 0.4061(8) 1.0588(7)
H21A H 0.2468 0.6213 -0.1055
H21D H 0.2468 0.3787 -0.1055
H21E H 0.7532 0.3787 1.1055
H22A H 0.2664 0.5542 -0.0848
H22D H 0.2664 0.4458 -0.0848
H22E H 0.7336 0.4458 1.0848
C22A C 0.3342(6) 0.6077(10) -0.0366(8)
C22D C 0.3342(6) 0.3923(10) -0.0366(8)
C22E C 0.6658(6) 0.3923(10) 1.0366(8)
H23A H 0.3384 0.5790 -0.0695
H23D H 0.3384 0.4210 -0.0695
H23E H 0.6616 0.4210 1.0695
H24A H 0.3267 0.6456 -0.0661
H24D H 0.3267 0.3544 -0.0661
H24E H 0.6733 0.3544 1.0661
C23A C 0.3960(4) 0.6123(5) 0.0537(6)
C23D C 0.3960(4) 0.3877(5) 0.0537(6)
C23E C 0.6040(4) 0.3877(5) 0.9463(6)
H25A H 0.4193 0.5762 0.0672
H25D H 0.4193 0.4238 0.0672
H25E H 0.5807 0.4238 0.9328
H26A H 0.4182 0.6451 0.0541
H26D H 0.4182 0.3549 0.0541
H26E H 0.5818 0.3549 0.9459
C24E C 0.5248(4) 0.4700(4) 0.2597(5)
C24A C 0.4752(4) 0.5300(4) 0.7403(5)
C24D C 0.4752(4) 0.4700(4) 0.7403(5)
C25E C 0.5528(5) 0.4183(5) 0.2496(6)
C25A C 0.4472(5) 0.5817(5) 0.7504(6)
C25D C 0.4472(5) 0.4183(5) 0.7504(6)
C26E C 0.6260(6) 0.3774(7) 0.2383(12)
C26A C 0.3740(6) 0.6226(7) 0.7617(12)
C26D C 0.3740(6) 0.3774(7) 0.7617(12)
H27E H 0.6037 0.3724 0.1732
H27A H 0.3963 0.6276 0.8268
H27D H 0.3963 0.3724 0.8268
H28E H 0.6701 0.3846 0.2715
H28A H 0.3299 0.6154 0.7285
H28D H 0.3299 0.3846 0.7285
C27E C 0.6199(5) 0.3245(5) 0.2735(9)
C27A C 0.3801(5) 0.6755(5) 0.7265(9)
C27D C 0.3801(5) 0.3245(5) 0.7265(9)
H29E H 0.6467 0.3277 0.3401
H29A H 0.3533 0.6723 0.6599
H29D H 0.3533 0.3277 0.6599
H30E H 0.6338 0.2904 0.2607
H30A H 0.3662 0.7096 0.7393
H30D H 0.3662 0.2904 0.7393
C28E C 0.5514(4) 0.3148(4) 0.2291(6)
C28A C 0.4486(4) 0.6852(4) 0.7709(6)
C28D C 0.4486(4) 0.3148(4) 0.7709(6)
H31E H 0.5255 0.3063 0.1637
H31A H 0.4745 0.6937 0.8363
H31D H 0.4745 0.3063 0.8363
H32E H 0.5494 0.2809 0.2578
H32A H 0.4506 0.7191 0.7422
H32D H 0.4506 0.2809 0.7422
C31D C 0.1919(9) 0.3318(7) 0.4132(14)
C31A C 0.1919(9) 0.6682(7) 0.4132(14)
C31E C 0.8081(9) 0.3318(7) 0.5868(14)
H33D H 0.1494 0.3191 0.3601
H33A H 0.1494 0.6809 0.3601
H33E H 0.8506 0.3191 0.6399
H34D H 0.2060 0.3054 0.4634
H34A H 0.2060 0.6946 0.4634
H34E H 0.7940 0.3054 0.5366
C32D C 0.1850(10) 0.3814(8) 0.4353(19)
C32A C 0.1850(10) 0.6186(8) 0.4353(19)
C32E C 0.8150(10) 0.3814(8) 0.5647(19)
H35D H 0.2045 0.3801 0.4996
H35A H 0.2045 0.6199 0.4996
H35E H 0.7955 0.3801 0.5004
H36D H 0.1404 0.3891 0.3978
H36A H 0.1404 0.6109 0.3978
H36E H 0.8596 0.3891 0.6022
C34E C 0.5796(3) 0.3904(4) 0.4590(5)
C34A C 0.4204(3) 0.6096(4) 0.5410(5)
C34D C 0.4204(3) 0.3904(4) 0.5410(5)
H37E H 0.5813 0.4316 0.4584
H37A H 0.4187 0.5684 0.5416
H37D H 0.4187 0.4316 0.5416
C35A C 0.5404(5) 0.5000 0.7278(7)
H38A H 0.5697 0.5000 0.7212
C36A C 0.3230(5) 0.5000 0.3448(7)
H39A H 0.3478 0.5000 0.3297
C37A C 0.4042(4) 0.6267(3) 0.3334(6)
C37E C 0.5958(4) 0.3733(3) 0.6666(6)
C37D C 0.4042(4) 0.3733(3) 0.3334(6)
H40A H 0.4394 0.6288 0.3965
H40E H 0.5606 0.3712 0.6035
H40D H 0.4394 0.3712 0.3965
N1E N 0.6976(3) 0.4500(3) 0.6426(4)
N1D N 0.3024(3) 0.4500(3) 0.3574(4)
N1A N 0.3024(3) 0.5500(3) 0.3574(4)
N2E N 0.7456(3) 0.3677(4) 0.6205(5)
N2A N 0.2544(3) 0.6323(4) 0.3795(5)
N2D N 0.2544(3) 0.3677(4) 0.3795(5)
N3E N 0.5350(3) 0.3564(3) 0.3850(4)
N3A N 0.4650(3) 0.6436(3) 0.6150(4)
N3D N 0.4650(3) 0.3564(3) 0.6150(4)
N4E N 0.6210(3) 0.3561(3) 0.5335(4)
N4A N 0.3790(3) 0.6439(3) 0.4665(4)
N4D N 0.3790(3) 0.3561(3) 0.4665(4)
N5E N 0.4624(3) 0.2827(3) 0.2582(5)
N5A N 0.5376(3) 0.7173(3) 0.7418(5)
N5D N 0.5376(3) 0.2827(3) 0.7418(5)
N6D N 0.4912(5) 0.1987(4) 0.6439(6)
N6A N 0.4912(5) 0.8013(4) 0.6439(6)
N6E N 0.5088(5) 0.1987(4) 0.3561(6)
N7A N 0.3668(4) 0.8024(4) 0.4317(7)
N7E N 0.6332(4) 0.1976(4) 0.5683(7)
N7D N 0.3668(4) 0.1976(4) 0.4317(7)
N8A N 0.3068(3) 0.7186(3) 0.3411(5)
N8E N 0.6932(3) 0.2814(3) 0.6589(5)
N8D N 0.3068(3) 0.2814(3) 0.3411(5)
N9A N 0.3464(3) 0.6267(3) 0.2996(4)
N9E N 0.6536(3) 0.3733(3) 0.7004(4)
N9D N 0.3464(3) 0.3733(3) 0.2996(4)
N10E N 0.4072(3) 0.3766(3) 0.2689(4)
N10A N 0.5928(3) 0.6234(3) 0.7311(4)
N10D N 0.5928(3) 0.3766(3) 0.7311(4)
N11D N 0.2290(3) 0.3751(3) 0.2100(4)
N11A N 0.2290(3) 0.6249(3) 0.2100(4)
N11E N 0.7710(3) 0.3751(3) 0.7900(4)
N12A N 0.1987(4) 0.6284(6) 0.0643(5)
N12E N 0.8013(4) 0.3716(6) 0.9357(5)
N12D N 0.1987(4) 0.3716(6) 0.0643(5)
N13A N 0.2856(3) 0.5966(5) 0.0246(5)
N13D N 0.2856(3) 0.4034(5) 0.0246(5)
N13E N 0.7144(3) 0.4034(5) 0.9754(5)
N14E N 0.3936(3) 0.3781(3) 0.1258(4)
N14A N 0.6064(3) 0.6219(3) 0.8742(4)
N14D N 0.6064(3) 0.3781(3) 0.8742(4)
N15E N 0.4822(3) 0.4501(3) 0.2671(4)
N15A N 0.5178(3) 0.5499(3) 0.7329(4)
N15D N 0.5178(3) 0.4501(3) 0.7329(4)
N16E N 0.5996(4) 0.4287(4) 0.2502(7)
N16A N 0.4004(4) 0.5713(4) 0.7498(7)
N16D N 0.4004(4) 0.4287(4) 0.7498(7)
N17E N 0.5276(3) 0.3666(4) 0.2404(5)
N17A N 0.4724(3) 0.6334(4) 0.7596(5)
N17D N 0.4724(3) 0.3666(4) 0.7596(5)
N18D N 0.2133(6) 0.4311(5) 0.4227(10)
N18A N 0.2133(6) 0.5689(5) 0.4227(10)
N18E N 0.7867(6) 0.4311(5) 0.5773(10)
Cl4? Cl 0.7726(3) 0.9822(4) 0.6131(4)
C29? C 0.5237(14) 0.0000 0.127(2)
C30? C 0.502(3) 0.0000 0.245(4)
C33? C 1.0000 1.0636(13) 1.0000
O1? O 0.9098(17) 1.0000 0.909(2)
O2? O 0.6037(11) 0.0190(10) 0.3030(15)
O4? O 0.883(2) 0.5000 0.415(3)
O7? O 0.9374(7) 0.4646(7) 0.5222(11)
S1? S 0.9733(5) 1.0000 1.0056(7)
S2? S 0.5398(4) -0.0278(4) 0.2270(6)
loop_
_geom_bond_atom_site_label_1
_geom_bond_atom_site_label_2
_geom_bond_site_symmetry_1
_geom_bond_site_symmetry_2
Co1 N1 1_555 1_555
Co2 N3 1_555 1_555
Co3 Cl6 1_555 1_555
Cl7 Co3 1_555 1_555
C1 C2 1_555 1_555
C2 N2 1_555 1_555
C3 H1 1_555 1_555
H2 C3 1_555 1_555
C4 C5 1_555 1_555
C5 C10 1_555 1_555
C6 C4 1_555 1_555
C7 H3 1_555 1_555
H4 C7 1_555 1_555
C8 C7 1_555 1_555
H5 C8 1_555 1_555
H6 C8 1_555 1_555
C9 C8 1_555 1_555
H7 C9 1_555 1_555
H8 C9 1_555 1_555
C10 N7 1_555 1_555
C11 H9 1_555 1_555
H10 C11 1_555 1_555
C12 C11 1_555 1_555
H11 C12 1_555 1_555
H12 C12 1_555 1_555
C13 C12 1_555 1_555
H13 C13 1_555 1_555
H14 C13 1_555 1_555
C14 C15 1_555 1_555
C15 C20 1_555 1_555
C16 C14 1_555 1_555
C17 H15 1_555 1_555
H16 C17 1_555 1_555
C18 C17 1_555 1_555
H17 C18 1_555 1_555
H18 C18 1_555 1_555
C19 C18 1_555 1_555
H19 C19 1_555 1_555
H20 C19 1_555 1_555
C20 N13 1_555 1_555
C21 H21 1_555 1_555
H22 C21 1_555 1_555
C22 C21 1_555 1_555
H23 C22 1_555 1_555
H24 C22 1_555 1_555
C23 C22 1_555 1_555
H25 C23 1_555 1_555
H26 C23 1_555 1_555
C24 C25 1_555 1_555
C25 N16 1_555 1_555
C26 H27 1_555 1_555
H28 C26 1_555 1_555
C27 C26 1_555 1_555
H29 C27 1_555 1_555
H30 C27 1_555 1_555
C28 C27 1_555 1_555
H31 C28 1_555 1_555
H32 C28 1_555 1_555
C31 C3 1_555 1_555
H33 C31 1_555 1_555
H34 C31 1_555 1_555
C32 C31 1_555 1_555
H35 C32 1_555 1_555
H36 C32 1_555 1_555
C34 H37 1_555 1_555
C35 H38 1_555 1_555
C36 H39 1_555 1_555
C37 H40 1_555 1_555
N1 C1 1_555 1_555
N2 Co1 1_555 1_555
N3 C4 1_555 1_555
N4 Co1 1_555 1_555
N5 Co2 1_555 1_555
N6 C6 1_555 1_555
N7 C11 1_555 1_555
N8 Co1 1_555 1_555
N9 Co1 1_555 1_555
N10 Co2 1_555 1_555
N11 Co1 1_555 1_555
N12 C16 1_555 1_555
N13 C21 1_555 1_555
N14 Co2 1_555 1_555
N15 Co2 1_555 1_555
N16 C26 1_555 1_555
N17 Co2 1_555 1_555
N18 C2 1_555 1_555
Co1E N1E 1_555 1_555
Co1D N1D 1_555 1_555
Co1A N1A 1_555 1_555
Co2E N3E 1_555 1_555
Co2A N3A 1_555 1_555
Co2D N3D 1_555 1_555
Cl6A Co3 1_555 1_555
Cl7A Co3 1_555 1_555
C1E C1 1_555 1_555
C1D C1A 1_555 1_555
C1A C2A 1_555 1_555
C2E C1E 1_555 1_555
C2A N2A 1_555 1_555
C2D C1D 1_555 1_555
C3D H1D 1_555 1_555
C3A H1A 1_555 1_555
C3E H1E 1_555 1_555
H2D C3D 1_555 1_555
H2A C3A 1_555 1_555
H2E C3E 1_555 1_555
C4E C5E 1_555 1_555
C4A C5A 1_555 1_555
C4D C5D 1_555 1_555
C5E C10E 1_555 1_555
C5A C10A 1_555 1_555
C5D C10D 1_555 1_555
C6E C4E 1_555 1_555
C6A C4A 1_555 1_555
C6D C4D 1_555 1_555
C7D H3D 1_555 1_555
C7A H3A 1_555 1_555
C7E H3E 1_555 1_555
H4D C7D 1_555 1_555
H4A C7A 1_555 1_555
H4E C7E 1_555 1_555
C8D C7D 1_555 1_555
C8A C7A 1_555 1_555
C8E C7E 1_555 1_555
H5D C8D 1_555 1_555
H5A C8A 1_555 1_555
H5E C8E 1_555 1_555
H6D C8D 1_555 1_555
H6A C8A 1_555 1_555
H6E C8E 1_555 1_555
C9D C8D 1_555 1_555
C9A C8A 1_555 1_555
C9E C8E 1_555 1_555
H7D C9D 1_555 1_555
H7A C9A 1_555 1_555
H7E C9E 1_555 1_555
H8D C9D 1_555 1_555
H8A C9A 1_555 1_555
H8E C9E 1_555 1_555
C10A N7A 1_555 1_555
C10E N7E 1_555 1_555
C10D N7D 1_555 1_555
C11A H9A 1_555 1_555
C11E H9E 1_555 1_555
C11D H9D 1_555 1_555
H10A C11A 1_555 1_555
H10E C11E 1_555 1_555
H10D C11D 1_555 1_555
C12A C11A 1_555 1_555
C12E C11E 1_555 1_555
C12D C11D 1_555 1_555
H11A C12A 1_555 1_555
H11E C12E 1_555 1_555
H11D C12D 1_555 1_555
H12A C12A 1_555 1_555
H12E C12E 1_555 1_555
H12D C12D 1_555 1_555
C13A C12A 1_555 1_555
C13E C12E 1_555 1_555
C13D C12D 1_555 1_555
H13A C13A 1_555 1_555
H13E C13E 1_555 1_555
H13D C13D 1_555 1_555
H14A C13A 1_555 1_555
H14E C13E 1_555 1_555
H14D C13D 1_555 1_555
C14D C15D 1_555 1_555
C14A C15A 1_555 1_555
C14E C15E 1_555 1_555
C15D C20D 1_555 1_555
C15A N10 1_555 1_555
C15E C20E 1_555 1_555
C16D C14D 1_555 1_555
C16A C14A 1_555 1_555
C16E C14E 1_555 1_555
C17A H15A 1_555 1_555
C17E H15E 1_555 1_555
C17D H15D 1_555 1_555
H16A C17A 1_555 1_555
H16E C17E 1_555 1_555
H16D C17D 1_555 1_555
C18A C17A 1_555 1_555
C18E C17E 1_555 1_555
C18D C17D 1_555 1_555
H17A C18A 1_555 1_555
H17E C18E 1_555 1_555
H17D C18D 1_555 1_555
H18A C18A 1_555 1_555
H18E C18E 1_555 1_555
H18D C18D 1_555 1_555
C19A C18A 1_555 1_555
C19E C18E 1_555 1_555
C19D C18D 1_555 1_555
H19A C19A 1_555 1_555
H19E C19E 1_555 1_555
H19D C19D 1_555 1_555
H20A C19A 1_555 1_555
H20E C19E 1_555 1_555
H20D C19D 1_555 1_555
C20A N14 1_555 1_555
C20D N13D 1_555 1_555
C20E N13E 1_555 1_555
C21A H21A 1_555 1_555
C21D H21D 1_555 1_555
C21E H21E 1_555 1_555
H22A C21A 1_555 1_555
H22D C21D 1_555 1_555
H22E C21E 1_555 1_555
C22A C21A 1_555 1_555
C22D C21D 1_555 1_555
C22E C21E 1_555 1_555
H23A C22A 1_555 1_555
H23D C22D 1_555 1_555
H23E C22E 1_555 1_555
H24A C22A 1_555 1_555
H24D C22D 1_555 1_555
H24E C22E 1_555 1_555
C23A N14 1_555 1_555
C23D C22D 1_555 1_555
C23E C22E 1_555 1_555
H25A C23A 1_555 1_555
H25D C23D 1_555 1_555
H25E C23E 1_555 1_555
H26A C23A 1_555 1_555
H26D C23D 1_555 1_555
H26E C23E 1_555 1_555
C24E C24 1_555 1_555
C24A C24D 1_555 1_555
C24D C25D 1_555 1_555
C25E C24E 1_555 1_555
C25A C24A 1_555 1_555
C25D N16D 1_555 1_555
C26E H27E 1_555 1_555
C26A H27A 1_555 1_555
C26D H27D 1_555 1_555
H28E C26E 1_555 1_555
H28A C26A 1_555 1_555
H28D C26D 1_555 1_555
C27E C26E 1_555 1_555
C27A C26A 1_555 1_555
C27D C26D 1_555 1_555
H29E C27E 1_555 1_555
H29A C27A 1_555 1_555
H29D C27D 1_555 1_555
H30E C27E 1_555 1_555
H30A C27A 1_555 1_555
H30D C27D 1_555 1_555
C28E C27E 1_555 1_555
C28A C27A 1_555 1_555
C28D C27D 1_555 1_555
H31E C28E 1_555 1_555
H31A C28A 1_555 1_555
H31D C28D 1_555 1_555
H32E C28E 1_555 1_555
H32A C28A 1_555 1_555
H32D C28D 1_555 1_555
C31D C3D 1_555 1_555
C31A C3A 1_555 1_555
C31E C3E 1_555 1_555
H33D C31D 1_555 1_555
H33A C31A 1_555 1_555
H33E C31E 1_555 1_555
H34D C31D 1_555 1_555
H34A C31A 1_555 1_555
H34E C31E 1_555 1_555
C32D C31D 1_555 1_555
C32A C31A 1_555 1_555
C32E C31E 1_555 1_555
H35D C32D 1_555 1_555
H35A C32A 1_555 1_555
H35E C32E 1_555 1_555
H36D C32D 1_555 1_555
H36A C32A 1_555 1_555
H36E C32E 1_555 1_555
C34E H37E 1_555 1_555
C34A H37A 1_555 1_555
C34D H37D 1_555 1_555
C35A H38A 1_555 1_555
C36A H39A 1_555 1_555
C37A N10 1_555 1_555
C37E H40E 1_555 1_555
C37D H40D 1_555 1_555
H40A C37A 1_555 1_555
N1E C36 1_555 1_555
N1D C1D 1_555 1_555
N1A C1A 1_555 1_555
N2E Co1E 1_555 1_555
N2A Co1A 1_555 1_555
N2D Co1D 1_555 1_555
N3E C4E 1_555 1_555
N3A C4A 1_555 1_555
N3D C4D 1_555 1_555
N4E Co1E 1_555 1_555
N4A Co1A 1_555 1_555
N4D Co1D 1_555 1_555
N5E Co2E 1_555 1_555
N5A Co2A 1_555 1_555
N5D Co2D 1_555 1_555
N6D C6D 1_555 1_555
N6A C6A 1_555 1_555
N6E C6E 1_555 1_555
N7A C11A 1_555 1_555
N7E C11E 1_555 1_555
N7D C11D 1_555 1_555
N8A Co1A 1_555 1_555
N8E Co1E 1_555 1_555
N8D Co1D 1_555 1_555
N9A Co1A 1_555 1_555
N9E Co1E 1_555 1_555
N9D Co1D 1_555 1_555
N10E Co2E 1_555 1_555
N10A C15 1_555 1_555
N10D Co2D 1_555 1_555
N11D Co1D 1_555 1_555
N11A Co1A 1_555 1_555
N11E Co1E 1_555 1_555
N12A C16A 1_555 1_555
N12E C16E 1_555 1_555
N12D C16D 1_555 1_555
N13A C20A 1_555 1_555
N13D C21D 1_555 1_555
N13E C21E 1_555 1_555
N14E Co2E 1_555 1_555
N14A C20 1_555 1_555
N14D Co2D 1_555 1_555
N15E C35 1_555 1_555
N15A Co2A 1_555 1_555
N15D Co2D 1_555 1_555
N16E C25E 1_555 1_555
N16A C25A 1_555 1_555
N16D C26D 1_555 1_555
N17E Co2E 1_555 1_555
N17A Co2A 1_555 1_555
N17D Co2D 1_555 1_555
N18D C2D 1_555 1_555
N18A C2A 1_555 1_555
N18E C2E 1_555 1_555
C3 N2 1_555 1_555
C5 N4 1_555 1_555
C6 N5 1_555 1_555
C7 N5 1_555 1_555
C9 N6 1_555 1_555
C10 N8 1_555 1_555
C13 N8 1_555 1_555
C14 N9 1_555 1_555
C16 N11 1_555 1_555
C17 N11 1_555 1_555
C19 N12 1_555 1_555
C23 N14A 1_555 1_555
C24 N15 1_555 1_555
C25 N17 1_555 1_555
C28 N17 1_555 1_555
C32 N18 1_555 1_555
C34 N3 1_555 1_555
C34 N4 1_555 1_555
C35 N15 1_555 1_555
C36 N1 1_555 1_555
C37 N9 1_555 1_555
C37 N10A 1_555 1_555
Co2E N15E 1_555 1_555
Co2A N10A 1_555 1_555
Co2A N14A 1_555 1_555
C1E N1E 1_555 1_555
C2E N2E 1_555 1_555
C2D N2D 1_555 1_555
C3D N2D 1_555 1_555
C3A N2A 1_555 1_555
C3E N2E 1_555 1_555
C5E N4E 1_555 1_555
C5A N4A 1_555 1_555
C5D N4D 1_555 1_555
C6E N5E 1_555 1_555
C6A N5A 1_555 1_555
C6D N5D 1_555 1_555
C7D N5D 1_555 1_555
C7A N5A 1_555 1_555
C7E N5E 1_555 1_555
C9D N6D 1_555 1_555
C9A N6A 1_555 1_555
C9E N6E 1_555 1_555
C10A N8A 1_555 1_555
C10E N8E 1_555 1_555
C10D N8D 1_555 1_555
C13A N8A 1_555 1_555
C13E N8E 1_555 1_555
C13D N8D 1_555 1_555
C14D N9D 1_555 1_555
C14A N9A 1_555 1_555
C14E N9E 1_555 1_555
C15D N10E 1_555 1_555
C15A C20A 1_555 1_555
C15E N10D 1_555 1_555
C16D N11D 1_555 1_555
C16A N11A 1_555 1_555
C16E N11E 1_555 1_555
C17A N11A 1_555 1_555
C17E N11E 1_555 1_555
C17D N11D 1_555 1_555
C19A N12A 1_555 1_555
C19E N12E 1_555 1_555
C19D N12D 1_555 1_555
C20D N14E 1_555 1_555
C20E N14D 1_555 1_555
C21A N13A 1_555 1_555
C22A C23A 1_555 1_555
C23D N14E 1_555 1_555
C23E N14D 1_555 1_555
C24E N15E 1_555 1_555
C24A N15A 1_555 1_555
C24D N15D 1_555 1_555
C25E N17E 1_555 1_555
C25A N17A 1_555 1_555
C25D N17D 1_555 1_555
C26E N16E 1_555 1_555
C26A N16A 1_555 1_555
C28E N17E 1_555 1_555
C28A N17A 1_555 1_555
C28D N17D 1_555 1_555
C32D N18D 1_555 1_555
C32A N18A 1_555 1_555
C32E N18E 1_555 1_555
C34E N3E 1_555 1_555
C34E N4E 1_555 1_555
C34A N3A 1_555 1_555
C34A N4A 1_555 1_555
C34D N3D 1_555 1_555
C34D N4D 1_555 1_555
C35A N15A 1_555 1_555
C35A N15D 1_555 1_555
C36A N1D 1_555 1_555
C36A N1A 1_555 1_555
C37A N9A 1_555 1_555
C37E N9E 1_555 1_555
C37E N10D 1_555 1_555
C37D N9D 1_555 1_555
C37D N10E 1_555 1_555

#END
