
#######################################################################
#
#                 Cambridge Crystallographic Data Centre
#                                CCDC 
#
#######################################################################
#
# If this CIF has been generated from an entry in the Cambridge 
# Structural Database, then it will include bibliographic, chemical, 
# crystal, experimental, refinement or atomic coordinate data resulting 
# from the CCDC's data processing and validation procedures.
#
#######################################################################

data_EWIGEX
_chemical_formula_moiety         'C132 H180 Co8 N72 12+,12(Br1 1-),18(H2 O1)'
_chemical_name_systematic        
"dodecakis(\m~2~-2,2'-(1H-Imidazole-4,5-diyl)bis(1,4,5,6-tetrahydropyrimidine))-octa-cobalt(iii) dodecabromide octadecahydrate"
_symmetry_cell_setting           monoclinic
_symmetry_space_group_name_H-M   'P 21/n'
_symmetry_Int_Tables_number      14
_space_group_name_Hall           '-P 2yn'
loop_
_symmetry_equiv_pos_site_id
_symmetry_equiv_pos_as_xyz
1 x,y,z
2 1/2-x,1/2+y,1/2-z
3 -x,-y,-z
4 1/2+x,1/2-y,1/2+z
_cell_length_a                   17.758(5)
_cell_length_b                   19.380(3)
_cell_length_c                   24.772(6)
_cell_angle_alpha                90
_cell_angle_beta                 90.257(16)
_cell_angle_gamma                90
_cell_volume                     8525.2
_exptl_crystal_colour            red
_cell_formula_units_Z            2
loop_
_atom_site_label
_atom_site_type_symbol
_atom_site_fract_x
_atom_site_fract_y
_atom_site_fract_z
Br1 Br 0.28128(11) 0.67911(12) 0.27318(8)
Br2 Br 0.5000 0.0000 0.0000
Br3 Br 0.3892(2) 0.1936(2) 0.59655(13)
Br5 Br -0.1026(4) 0.8814(4) 0.5915(2)
Br7 Br 0.0748(6) 1.0357(5) 0.7144(4)
Br8 Br 0.2201(15) 0.9803(11) 0.8595(9)
Br9 Br -0.0878(9) 1.0039(8) 0.6596(6)
Co1 Co 0.26472(13) 0.40477(12) 0.44842(9)
Co2 Co 0.21068(13) 0.68652(12) 0.53442(9)
Co3 Co -0.05494(13) 0.70897(12) 0.38450(9)
Co4 Co -0.00225(13) 0.42584(13) 0.30028(9)
C1 C -0.0411(8) 0.5581(9) 0.3582(5)
H1 H -0.0742 0.5402 0.3847
C2 C 0.0240(8) 0.6287(9) 0.3128(6)
C3 C 0.0380(9) 0.5629(9) 0.2957(5)
C4 C 0.0463(9) 0.6974(10) 0.2996(6)
C5 C 0.0390(9) 0.8152(9) 0.3249(6)
H2 H 0.0450 0.8375 0.3606
H3 H -0.0018 0.8395 0.3052
C6 C 0.1147(8) 0.8224(8) 0.2922(6)
H4 H 0.1241 0.8714 0.2834
H5 H 0.1575 0.8052 0.3142
C7 C 0.1078(10) 0.7816(9) 0.2424(7)
H6 H 0.1563 0.7822 0.2229
H7 H 0.0690 0.8026 0.2187
C8 C 0.1231(8) 0.4399(8) 0.3829(5)
H8 H 0.1152 0.4865 0.3935
C9 C 0.1731(8) 0.3372(8) 0.3758(5)
C10 C 0.1053(8) 0.3388(8) 0.3445(5)
C11 C 0.2327(8) 0.2897(9) 0.3886(6)
C12 C 0.3411(9) 0.2629(8) 0.4446(6)
H9 H 0.3876 0.2706 0.4235
H10 H 0.3525 0.2719 0.4832
C13 C 0.3144(10) 0.1902(9) 0.4375(7)
H11 H 0.2711 0.1817 0.4616
H12 H 0.3553 0.1580 0.4479
C14 C 0.2912(11) 0.1763(9) 0.3802(7)
H13 H 0.3359 0.1780 0.3566
H14 H 0.2689 0.1296 0.3775
C15 C 0.0585(8) 0.2955(9) 0.3103(6)
C16 C 0.0224(10) 0.1831(8) 0.2765(7)
H15 H -0.0211 0.1639 0.2964
H16 H 0.0538 0.1439 0.2642
C17 C -0.0047(9) 0.2212(9) 0.2300(6)
H17 H -0.0432 0.1932 0.2110
H18 H 0.0377 0.2284 0.2048
C18 C -0.0388(9) 0.2912(9) 0.2440(6)
H19 H -0.0478 0.3177 0.2104
H20 H -0.0879 0.2842 0.2619
C19 C 0.0860(8) 0.6255(7) 0.6020(6)
H21 H 0.0456 0.6296 0.5769
C20 C 0.1521(9) 0.5986(8) 0.6740(6)
C21 C 0.1517(11) 0.5721(8) 0.7297(6)
C22 C -0.0817(10) 0.4724(9) 0.1967(6)
H22 H -0.0427 0.5089 0.1963
H23 H -0.0666 0.4361 0.1708
C23 C -0.1540(10) 0.5019(11) 0.1798(7)
H24 H -0.1515 0.5125 0.1408
H25 H -0.1614 0.5460 0.1992
C24 C -0.2202(11) 0.4579(11) 0.1893(7)
H26 H -0.2668 0.4839 0.1810
H27 H -0.2184 0.4171 0.1653
C25 C -0.1368(9) 0.7356(9) 0.2794(5)
H28 H -0.0940 0.7128 0.2611
H29 H -0.1285 0.7861 0.2780
C26 C 0.2026(11) 0.3106(9) 0.6478(6)
C27 C -0.2087(14) 0.7180(16) 0.2507(8)
H30 H -0.2162 0.7552 0.2239
H31 H -0.1973 0.6759 0.2296
C28 C -0.2706(12) 0.708(2) 0.2699(8)
H32 H -0.2977 0.6743 0.2468
H33 H -0.2992 0.7517 0.2689
C29 C 0.0786(8) 0.6699(8) 0.4558(5)
H34 H 0.0884 0.6246 0.4430
C30 C 0.0242(10) 0.7705(9) 0.4678(6)
C31 C 0.0851(9) 0.7647(8) 0.5045(6)
C32 C 0.1212(10) 0.8050(10) 0.5478(6)
C33 C 0.1226(12) 0.8995(10) 0.6087(8)
H35 H 0.1352 0.9462 0.5952
H36 H 0.0867 0.9051 0.6389
C34 C 0.1849(14) 0.8704(14) 0.6276(12)
H37 H 0.1738 0.8601 0.6659
H38 H 0.2225 0.9081 0.6283
C35 C 0.2249(10) 0.8126(9) 0.6092(6)
H39 H 0.2330 0.7802 0.6396
H40 H 0.2748 0.8274 0.5960
C36 C -0.0300(10) 0.8214(9) 0.4503(6)
C37 C -0.1374(10) 0.8458(9) 0.3976(6)
H41 H -0.1848 0.8194 0.3933
H42 H -0.1241 0.8653 0.3620
C38 C -0.1506(10) 0.9046(9) 0.4369(7)
H43 H -0.1735 0.8867 0.4704
H44 H -0.1854 0.9388 0.4208
C39 C -0.0753(11) 0.9387(9) 0.4498(8)
H45 H -0.0555 0.9618 0.4171
H46 H -0.0821 0.9740 0.4782
C40 C 0.2177(8) 0.5379(10) 0.5047(6)
H47 H 0.1900 0.5191 0.5339
C41 C 0.2819(8) 0.5471(10) 0.4321(6)
C42 C 0.2755(8) 0.6129(9) 0.4531(6)
C43 C 0.2965(9) 0.6828(10) 0.4435(7)
C44 C 0.3676(10) 0.7684(9) 0.3904(6)
H48 H 0.3720 0.7744 0.3508
H49 H 0.4169 0.7796 0.4070
C45 C 0.3072(10) 0.8167(9) 0.4123(6)
H50 H 0.2612 0.8126 0.3898
H51 H 0.3252 0.8649 0.4099
C46 C 0.2877(9) 0.8001(8) 0.4712(6)
H52 H 0.3303 0.8133 0.4950
H53 H 0.2429 0.8270 0.4822
C47 C 0.3218(9) 0.5136(9) 0.3863(7)
C48 C 0.3650(8) 0.4051(8) 0.3482(6)
H54 H 0.3272 0.3898 0.3213
H55 H 0.3890 0.3636 0.3640
C49 C 0.4263(10) 0.4509(9) 0.3200(6)
H56 H 0.4672 0.4620 0.3459
H57 H 0.4483 0.4257 0.2891
C50 C 0.3894(9) 0.5162(8) 0.3006(6)
H58 H 0.4284 0.5475 0.2858
H59 H 0.3536 0.5051 0.2711
C51 C 0.1351(8) 0.3549(7) 0.5194(6)
H60 H 0.0941 0.3586 0.4947
C52 C 0.2004(9) 0.3355(9) 0.5904(6)
C53 C 0.2488(10) 0.3613(8) 0.5536(6)
C54 C 0.3296(9) 0.3802(9) 0.5481(6)
C55 C 0.4277(9) 0.4203(8) 0.4912(6)
H61 H 0.4465 0.3921 0.4609
H62 H 0.4308 0.4695 0.4805
C56 C 0.1997(10) 0.6252(8) 0.6362(6)
C57 C 0.2796(9) 0.6445(8) 0.6292(7)
C58 C 0.3758(9) 0.6924(9) 0.5719(6)
H63 H 0.3821 0.7425 0.5786
H64 H 0.3876 0.6835 0.5335
C59 C 0.4305(8) 0.6523(8) 0.6077(6)
H65 H 0.4319 0.6035 0.5960
H66 H 0.4818 0.6717 0.6039
C60 C 0.4072(9) 0.6561(9) 0.6644(5)
H67 H 0.4407 0.6267 0.6867
H68 H 0.4119 0.7042 0.6774
C61 C 0.0899(9) 0.5287(10) 0.2577(6)
C62 C 0.1246(9) 0.4208(9) 0.2173(6)
H69 H 0.1050 0.4206 0.1798
H70 H 0.1250 0.3726 0.2305
C63 C 0.2060(10) 0.4491(9) 0.2174(7)
H71 H 0.2287 0.4436 0.2538
H72 H 0.2370 0.4230 0.1913
C64 C 0.2044(10) 0.5231(9) 0.2024(7)
H73 H 0.2551 0.5432 0.2078
H74 H 0.1914 0.5274 0.1636
N1 N -0.0072(7) 0.5181(6) 0.3236(5)
N2 N -0.0271(6) 0.6232(6) 0.3544(4)
N3 N 0.0179(6) 0.7438(7) 0.3324(5)
N4 N 0.0867(7) 0.7096(7) 0.2547(5)
N5 N 0.0746(7) 0.4617(7) 0.2510(4)
N6 N 0.1503(8) 0.5616(7) 0.2340(5)
N7 N 0.2476(6) 0.4993(6) 0.4649(4)
N8 N 0.2306(6) 0.6034(7) 0.4989(5)
N9 N 0.2721(7) 0.7254(7) 0.4771(5)
N10 N 0.3468(8) 0.6960(7) 0.4030(5)
N11 N 0.3492(7) 0.5515(7) 0.3439(5)
N12 N 0.3274(7) 0.4457(7) 0.3915(4)
N13 N 0.1197(6) 0.7014(6) 0.4939(4)
N14 N 0.0221(7) 0.7096(7) 0.4381(5)
N15 N -0.0775(6) 0.7987(6) 0.4151(5)
N16 N -0.0216(9) 0.8860(8) 0.4684(6)
N17 N 0.0856(8) 0.8610(8) 0.5656(5)
N18 N 0.1839(7) 0.7767(6) 0.5653(5)
N19 N 0.1566(7) 0.6426(6) 0.5919(4)
N20 N 0.2962(7) 0.6725(6) 0.5826(5)
N21 N 0.3294(7) 0.6330(8) 0.6704(5)
N22 N 0.2059(7) 0.3731(6) 0.5076(4)
N23 N -0.1289(6) 0.6685(6) 0.4313(4)
N24 N 0.3465(6) 0.4019(6) 0.5021(5)
N25 N 0.3765(9) 0.3710(12) 0.5900(6)
N26 N 0.1811(7) 0.4003(6) 0.3993(4)
N27 N 0.0778(6) 0.4040(7) 0.3495(4)
N28 N 0.0111(7) 0.3311(6) 0.2798(4)
N29 N 0.0662(7) 0.2261(7) 0.3124(5)
N30 N 0.2359(7) 0.2280(7) 0.3624(5)
N31 N 0.2793(7) 0.3114(6) 0.4251(4)
N32 N -0.0793(6) 0.3985(6) 0.3476(4)
N33 N -0.0864(8) 0.4422(7) 0.2520(5)
N34 N 0.2211(8) 0.5645(8) 0.7544(6)
N35 N -0.1400(7) 0.7133(6) 0.3347(4)
N36 N 0.2700(9) 0.3177(12) 0.6751(6)
C65 C 0.4753(10) 0.4090(14) 0.5385(8)
H75 H 0.5170 0.3794 0.5255
H76 H 0.4982 0.4545 0.5464
C66 C 0.4576(11) 0.3845(17) 0.5841(9)
H77 H 0.4737 0.4172 0.6125
H78 H 0.4855 0.3408 0.5898
Co1B Co -0.26472(13) 0.59523(12) 0.55158(9)
Co2B Co -0.21068(13) 0.31348(12) 0.46558(9)
Co3B Co 0.05494(13) 0.29103(12) 0.61550(9)
Co4B Co 0.00225(13) 0.57416(13) 0.69972(9)
C1B C 0.0411(8) 0.4419(9) 0.6418(5)
H1B H 0.0742 0.4598 0.6153
C2B C -0.0240(8) 0.3713(9) 0.6872(6)
C3B C -0.0380(9) 0.4371(9) 0.7043(5)
C4B C -0.0463(9) 0.3026(10) 0.7004(6)
C5B C -0.0390(9) 0.1848(9) 0.6751(6)
H2B H -0.0450 0.1625 0.6394
H3B H 0.0018 0.1605 0.6948
C6B C -0.1147(8) 0.1776(8) 0.7078(6)
H4B H -0.1241 0.1286 0.7166
H5B H -0.1575 0.1948 0.6858
C7B C -0.1078(10) 0.2184(9) 0.7576(7)
H6B H -0.1563 0.2178 0.7771
H7B H -0.0690 0.1974 0.7813
C8B C -0.1231(8) 0.5601(8) 0.6171(5)
H8B H -0.1152 0.5135 0.6065
C9B C -0.1731(8) 0.6628(8) 0.6242(5)
C10B C -0.1053(8) 0.6612(8) 0.6555(5)
C11B C -0.2327(8) 0.7103(9) 0.6114(6)
C12B C -0.3411(9) 0.7371(8) 0.5554(6)
H9B H -0.3876 0.7294 0.5765
H10B H -0.3525 0.7281 0.5168
C13B C -0.3144(10) 0.8098(9) 0.5625(7)
H11B H -0.2711 0.8183 0.5384
H12B H -0.3553 0.8420 0.5521
C14B C -0.2912(11) 0.8237(9) 0.6198(7)
H13B H -0.3359 0.8220 0.6434
H14B H -0.2689 0.8704 0.6225
C15B C -0.0585(8) 0.7045(9) 0.6897(6)
C16B C -0.0224(10) 0.8169(8) 0.7235(7)
H15B H 0.0211 0.8361 0.7036
H16B H -0.0538 0.8561 0.7358
C17B C 0.0047(9) 0.7788(9) 0.7700(6)
H17B H 0.0432 0.8068 0.7890
H18B H -0.0377 0.7716 0.7952
C18B C 0.0388(9) 0.7088(9) 0.7560(6)
H19B H 0.0478 0.6823 0.7896
H20B H 0.0879 0.7158 0.7381
C19B C -0.0860(8) 0.3745(7) 0.3980(6)
H21B H -0.0456 0.3704 0.4231
C20B C -0.1521(9) 0.4014(8) 0.3260(6)
C21B C -0.1517(11) 0.4279(8) 0.2703(6)
C22B C 0.0817(10) 0.5276(9) 0.8033(6)
H22B H 0.0427 0.4911 0.8037
H23B H 0.0666 0.5639 0.8292
C23B C 0.1540(10) 0.4981(11) 0.8202(7)
H24B H 0.1515 0.4875 0.8592
H25B H 0.1614 0.4540 0.8008
C24B C 0.2202(11) 0.5421(11) 0.8107(7)
H26B H 0.2668 0.5161 0.8190
H27B H 0.2184 0.5829 0.8347
C25B C 0.1368(9) 0.2644(9) 0.7206(5)
H28B H 0.0940 0.2872 0.7389
H29B H 0.1285 0.2139 0.7220
C26B C -0.2026(11) 0.6894(9) 0.3522(6)
C27B C 0.2087(14) 0.2820(16) 0.7493(8)
H30B H 0.2162 0.2448 0.7761
H31B H 0.1973 0.3241 0.7704
C28B C 0.2706(12) 0.292(2) 0.7301(8)
H32B H 0.2977 0.3257 0.7532
H33B H 0.2992 0.2483 0.7311
C29B C -0.0786(8) 0.3301(8) 0.5442(5)
H34B H -0.0884 0.3754 0.5570
C30B C -0.0242(10) 0.2295(9) 0.5322(6)
C31B C -0.0851(9) 0.2353(8) 0.4955(6)
C32B C -0.1212(10) 0.1950(10) 0.4522(6)
C33B C -0.1226(12) 0.1005(10) 0.3913(8)
H35B H -0.1352 0.0538 0.4048
H36B H -0.0867 0.0949 0.3611
C34B C -0.1849(14) 0.1296(14) 0.3724(12)
H37B H -0.1738 0.1399 0.3341
H38B H -0.2225 0.0919 0.3717
C35B C -0.2249(10) 0.1874(9) 0.3908(6)
H39B H -0.2330 0.2198 0.3604
H40B H -0.2748 0.1726 0.4040
C36B C 0.0300(10) 0.1786(9) 0.5497(6)
C37B C 0.1374(10) 0.1542(9) 0.6024(6)
H41B H 0.1848 0.1806 0.6067
H42B H 0.1241 0.1347 0.6380
C38B C 0.1506(10) 0.0954(9) 0.5631(7)
H43B H 0.1735 0.1133 0.5296
H44B H 0.1854 0.0612 0.5792
C39B C 0.0753(11) 0.0613(9) 0.5502(8)
H45B H 0.0555 0.0382 0.5829
H46B H 0.0821 0.0260 0.5218
C40B C -0.2177(8) 0.4621(10) 0.4953(6)
H47B H -0.1900 0.4809 0.4661
C41B C -0.2819(8) 0.4529(10) 0.5679(6)
C42B C -0.2755(8) 0.3871(9) 0.5469(6)
C43B C -0.2965(9) 0.3172(10) 0.5565(7)
C44B C -0.3676(10) 0.2316(9) 0.6096(6)
H48B H -0.3720 0.2256 0.6492
H49B H -0.4169 0.2204 0.5930
C45B C -0.3072(10) 0.1833(9) 0.5877(6)
H50B H -0.2612 0.1874 0.6102
H51B H -0.3252 0.1351 0.5901
C46B C -0.2877(9) 0.1999(8) 0.5288(6)
H52B H -0.3303 0.1867 0.5050
H53B H -0.2429 0.1730 0.5178
C47B C -0.3218(9) 0.4864(9) 0.6137(7)
C48B C -0.3650(8) 0.5949(8) 0.6518(6)
H54B H -0.3272 0.6102 0.6787
H55B H -0.3890 0.6364 0.6360
C49B C -0.4263(10) 0.5491(9) 0.6800(6)
H56B H -0.4672 0.5380 0.6541
H57B H -0.4483 0.5743 0.7109
C50B C -0.3894(9) 0.4838(8) 0.6994(6)
H58B H -0.4284 0.4525 0.7142
H59B H -0.3536 0.4949 0.7289
C51B C -0.1351(8) 0.6451(7) 0.4806(6)
H60B H -0.0941 0.6414 0.5053
C52B C -0.2004(9) 0.6645(9) 0.4096(6)
C53B C -0.2488(10) 0.6387(8) 0.4464(6)
C54B C -0.3296(9) 0.6198(9) 0.4519(6)
C55B C -0.4277(9) 0.5797(8) 0.5088(6)
H61B H -0.4465 0.6079 0.5391
H62B H -0.4308 0.5305 0.5195
C56B C -0.1997(10) 0.3748(8) 0.3638(6)
C57B C -0.2796(9) 0.3555(8) 0.3708(7)
C58B C -0.3758(9) 0.3076(9) 0.4281(6)
H63B H -0.3821 0.2575 0.4214
H64B H -0.3876 0.3165 0.4665
C59B C -0.4305(8) 0.3477(8) 0.3923(6)
H65B H -0.4319 0.3965 0.4040
H66B H -0.4818 0.3283 0.3961
C60B C -0.4072(9) 0.3439(9) 0.3356(5)
H67B H -0.4407 0.3733 0.3133
H68B H -0.4119 0.2958 0.3226
C61B C -0.0899(9) 0.4713(10) 0.7423(6)
C62B C -0.1246(9) 0.5792(9) 0.7827(6)
H69B H -0.1050 0.5794 0.8202
H70B H -0.1250 0.6274 0.7695
C63B C -0.2060(10) 0.5509(9) 0.7826(7)
H71B H -0.2287 0.5564 0.7462
H72B H -0.2370 0.5770 0.8087
C64B C -0.2044(10) 0.4769(9) 0.7976(7)
H73B H -0.2551 0.4568 0.7922
H74B H -0.1914 0.4726 0.8364
N1B N 0.0072(7) 0.4819(6) 0.6764(5)
N2B N 0.0271(6) 0.3768(6) 0.6456(4)
N3B N -0.0179(6) 0.2562(7) 0.6676(5)
N4B N -0.0867(7) 0.2904(7) 0.7453(5)
N5B N -0.0746(7) 0.5383(7) 0.7490(4)
N6B N -0.1503(8) 0.4384(7) 0.7660(5)
N7B N -0.2476(6) 0.5007(6) 0.5351(4)
N8B N -0.2306(6) 0.3966(7) 0.5011(5)
N9B N -0.2721(7) 0.2746(7) 0.5229(5)
N10B N -0.3468(8) 0.3040(7) 0.5970(5)
N11B N -0.3492(7) 0.4485(7) 0.6561(5)
N12B N -0.3274(7) 0.5543(7) 0.6085(4)
N13B N -0.1197(6) 0.2986(6) 0.5061(4)
N14B N -0.0221(7) 0.2904(7) 0.5619(5)
N15B N 0.0775(6) 0.2013(6) 0.5849(5)
N16B N 0.0216(9) 0.1140(8) 0.5316(6)
N17B N -0.0856(8) 0.1390(8) 0.4344(5)
N18B N -0.1839(7) 0.2233(6) 0.4347(5)
N19B N -0.1566(7) 0.3574(6) 0.4081(4)
N20B N -0.2962(7) 0.3275(6) 0.4174(5)
N21B N -0.3294(7) 0.3670(8) 0.3296(5)
N22B N -0.2059(7) 0.6269(6) 0.4924(4)
N23B N 0.1289(6) 0.3315(6) 0.5687(4)
N24B N -0.3465(6) 0.5981(6) 0.4979(5)
N25B N -0.3765(9) 0.6290(12) 0.4100(6)
N26B N -0.1811(7) 0.5997(6) 0.6007(4)
N27B N -0.0778(6) 0.5960(7) 0.6505(4)
N28B N -0.0111(7) 0.6689(6) 0.7202(4)
N29B N -0.0662(7) 0.7739(7) 0.6876(5)
N30B N -0.2359(7) 0.7720(7) 0.6376(5)
N31B N -0.2793(7) 0.6886(6) 0.5749(4)
N32B N 0.0793(6) 0.6015(6) 0.6524(4)
N33B N 0.0864(8) 0.5578(7) 0.7480(5)
N34B N -0.2211(8) 0.4355(8) 0.2456(6)
N35B N 0.1400(7) 0.2867(6) 0.6653(4)
N36B N -0.2700(9) 0.6823(12) 0.3249(6)
C65B C -0.4753(10) 0.5910(14) 0.4615(8)
H75B H -0.5170 0.6206 0.4745
H76B H -0.4982 0.5455 0.4536
C66B C -0.4576(11) 0.6155(17) 0.4159(9)
H77B H -0.4737 0.5828 0.3875
H78B H -0.4855 0.6592 0.4102
O1 O 0.4951(10) 0.7780(10) 0.5064(8)
O2 O 0.0745(16) 0.5119(14) 0.0903(11)
O3 O 0.433(4) 0.914(4) 0.533(3)
O4 O 0.264(2) 1.010(2) 0.4511(16)
O7 O 0.397(3) 0.854(2) 0.6652(18)
O9 O 0.470(3) 0.909(2) 0.4431(18)
O10 O 0.341(4) 1.025(3) 0.545(3)
O12 O 0.265(2) 0.961(2) 0.5174(16)
O14 O 0.1379(11) 0.9241(10) 0.4400(7)
Br4? Br 0.48921(13) 0.84169(12) 0.64645(9)
Br6? Br 0.1326(2) 0.9616(2) 0.78371(18)
Br10? Br -0.0865(10) 0.9138(8) 0.6107(6)
Br11? Br -0.0115(18) 1.0221(16) 0.6888(14)
O5? O 0.394(4) 0.913(3) 0.543(2)
O6? O 0.329(3) 0.989(2) 0.494(2)
O8? O 0.283(3) 0.629(3) 0.2490(19)
O11? O 0.550(6) 0.933(5) 0.454(4)
O13? O 0.3524(8) 0.1999(8) 0.6195(6)
O15? O 0.160(2) 0.942(2) 0.4541(16)
O16? O 0.1288(7) 0.9739(6) 0.8200(5)
loop_
_geom_bond_atom_site_label_1
_geom_bond_atom_site_label_2
_geom_bond_site_symmetry_1
_geom_bond_site_symmetry_2
Co1 N7 1_555 1_555
Co2 N8 1_555 1_555
Co3 N2 1_555 1_555
Co4 N1 1_555 1_555
C1 H1 1_555 1_555
C2 C3 1_555 1_555
C3 C61 1_555 1_555
C4 C2 1_555 1_555
C5 H2 1_555 1_555
H3 C5 1_555 1_555
C6 C5 1_555 1_555
H4 C6 1_555 1_555
H5 C6 1_555 1_555
C7 C6 1_555 1_555
H6 C7 1_555 1_555
H7 C7 1_555 1_555
C8 H8 1_555 1_555
C9 C10 1_555 1_555
C10 C15 1_555 1_555
C11 C9 1_555 1_555
C12 H9 1_555 1_555
H10 C12 1_555 1_555
C13 C12 1_555 1_555
H11 C13 1_555 1_555
H12 C13 1_555 1_555
C14 C13 1_555 1_555
H13 C14 1_555 1_555
H14 C14 1_555 1_555
C15 N28 1_555 1_555
C16 H15 1_555 1_555
H16 C16 1_555 1_555
C17 C16 1_555 1_555
H17 C17 1_555 1_555
H18 C17 1_555 1_555
C18 C17 1_555 1_555
H19 C18 1_555 1_555
H20 C18 1_555 1_555
C19 H21 1_555 1_555
C20 C21 1_555 1_555
C21 N34 1_555 1_555
C22 H22 1_555 1_555
H23 C22 1_555 1_555
C23 C22 1_555 1_555
H24 C23 1_555 1_555
H25 C23 1_555 1_555
C24 C23 1_555 1_555
H26 C24 1_555 1_555
H27 C24 1_555 1_555
C25 H28 1_555 1_555
H29 C25 1_555 1_555
C26 C52 1_555 1_555
C27 C25 1_555 1_555
H30 C27 1_555 1_555
H31 C27 1_555 1_555
C28 C27 1_555 1_555
H32 C28 1_555 1_555
H33 C28 1_555 1_555
C29 H34 1_555 1_555
C30 C31 1_555 1_555
C31 C32 1_555 1_555
C32 N17 1_555 1_555
C33 H35 1_555 1_555
H36 C33 1_555 1_555
C34 C33 1_555 1_555
H37 C34 1_555 1_555
H38 C34 1_555 1_555
C35 C34 1_555 1_555
H39 C35 1_555 1_555
H40 C35 1_555 1_555
C36 C30 1_555 1_555
C37 H41 1_555 1_555
H42 C37 1_555 1_555
C38 C37 1_555 1_555
H43 C38 1_555 1_555
H44 C38 1_555 1_555
C39 C38 1_555 1_555
H45 C39 1_555 1_555
H46 C39 1_555 1_555
C40 H47 1_555 1_555
C41 C42 1_555 1_555
C42 C43 1_555 1_555
C43 N9 1_555 1_555
C44 H48 1_555 1_555
H49 C44 1_555 1_555
C45 C44 1_555 1_555
H50 C45 1_555 1_555
H51 C45 1_555 1_555
C46 C45 1_555 1_555
H52 C46 1_555 1_555
H53 C46 1_555 1_555
C47 C41 1_555 1_555
C48 H54 1_555 1_555
H55 C48 1_555 1_555
C49 C48 1_555 1_555
H56 C49 1_555 1_555
H57 C49 1_555 1_555
C50 C49 1_555 1_555
H58 C50 1_555 1_555
H59 C50 1_555 1_555
C51 H60 1_555 1_555
C52 C53 1_555 1_555
C53 C54 1_555 1_555
C54 N24 1_555 1_555
C55 H61 1_555 1_555
H62 C55 1_555 1_555
C56 C20 1_555 1_555
C57 C56 1_555 1_555
C58 H63 1_555 1_555
H64 C58 1_555 1_555
C59 C58 1_555 1_555
H65 C59 1_555 1_555
H66 C59 1_555 1_555
C60 C59 1_555 1_555
H67 C60 1_555 1_555
H68 C60 1_555 1_555
C61 N5 1_555 1_555
C62 H69 1_555 1_555
H70 C62 1_555 1_555
C63 C62 1_555 1_555
H71 C63 1_555 1_555
H72 C63 1_555 1_555
C64 C63 1_555 1_555
H73 C64 1_555 1_555
H74 C64 1_555 1_555
N1 C1 1_555 1_555
N2 C1 1_555 1_555
N3 Co3 1_555 1_555
N4 C4 1_555 1_555
N5 Co4 1_555 1_555
N6 C61 1_555 1_555
N7 C40 1_555 1_555
N8 C40 1_555 1_555
N9 Co2 1_555 1_555
N10 C43 1_555 1_555
N11 C47 1_555 1_555
N12 Co1 1_555 1_555
N13 Co2 1_555 1_555
N14 Co3 1_555 1_555
N15 Co3 1_555 1_555
N16 C36 1_555 1_555
N17 C33 1_555 1_555
N18 Co2 1_555 1_555
N19 Co2 1_555 1_555
N20 Co2 1_555 1_555
N21 C57 1_555 1_555
N22 Co1 1_555 1_555
N23 Co3 1_555 1_555
N24 Co1 1_555 1_555
N25 C54 1_555 1_555
N26 Co1 1_555 1_555
N27 Co4 1_555 1_555
N28 Co4 1_555 1_555
N29 C15 1_555 1_555
N30 C11 1_555 1_555
N31 Co1 1_555 1_555
N32 Co4 1_555 1_555
N33 Co4 1_555 1_555
N34 C24B 1_555 1_555
N35 Co3 1_555 1_555
N36 C26 1_555 1_555
C65 C55 1_555 1_555
H75 C65 1_555 1_555
H76 C65 1_555 1_555
C66 N25 1_555 1_555
H77 C66 1_555 1_555
H78 C66 1_555 1_555
Co1B N7B 1_555 1_555
Co2B N8B 1_555 1_555
Co3B N2B 1_555 1_555
Co4B N1B 1_555 1_555
C1B H1B 1_555 1_555
C2B C3B 1_555 1_555
C3B C61B 1_555 1_555
C4B C2B 1_555 1_555
C5B H2B 1_555 1_555
H3B C5B 1_555 1_555
C6B C5B 1_555 1_555
H4B C6B 1_555 1_555
H5B C6B 1_555 1_555
C7B C6B 1_555 1_555
H6B C7B 1_555 1_555
H7B C7B 1_555 1_555
C8B H8B 1_555 1_555
C9B C10B 1_555 1_555
C10B C15B 1_555 1_555
C11B C9B 1_555 1_555
C12B H9B 1_555 1_555
H10B C12B 1_555 1_555
C13B C12B 1_555 1_555
H11B C13B 1_555 1_555
H12B C13B 1_555 1_555
C14B C13B 1_555 1_555
H13B C14B 1_555 1_555
H14B C14B 1_555 1_555
C15B N28B 1_555 1_555
C16B H15B 1_555 1_555
H16B C16B 1_555 1_555
C17B C16B 1_555 1_555
H17B C17B 1_555 1_555
H18B C17B 1_555 1_555
C18B C17B 1_555 1_555
H19B C18B 1_555 1_555
H20B C18B 1_555 1_555
C19B N32 1_555 1_555
H21B C19B 1_555 1_555
C20B N32 1_555 1_555
C21B N33 1_555 1_555
C22B H22B 1_555 1_555
H23B C22B 1_555 1_555
C23B C22B 1_555 1_555
H24B C23B 1_555 1_555
H25B C23B 1_555 1_555
C24B C23B 1_555 1_555
H26B C24B 1_555 1_555
H27B C24B 1_555 1_555
C25B H28B 1_555 1_555
H29B C25B 1_555 1_555
C26B N35 1_555 1_555
C27B C25B 1_555 1_555
H30B C27B 1_555 1_555
H31B C27B 1_555 1_555
C28B N36 1_555 1_555
H32B C28B 1_555 1_555
H33B C28B 1_555 1_555
C29B H34B 1_555 1_555
C30B C31B 1_555 1_555
C31B C32B 1_555 1_555
C32B N17B 1_555 1_555
C33B H35B 1_555 1_555
H36B C33B 1_555 1_555
C34B C33B 1_555 1_555
H37B C34B 1_555 1_555
H38B C34B 1_555 1_555
C35B C34B 1_555 1_555
H39B C35B 1_555 1_555
H40B C35B 1_555 1_555
C36B C30B 1_555 1_555
C37B H41B 1_555 1_555
H42B C37B 1_555 1_555
C38B C37B 1_555 1_555
H43B C38B 1_555 1_555
H44B C38B 1_555 1_555
C39B C38B 1_555 1_555
H45B C39B 1_555 1_555
H46B C39B 1_555 1_555
C40B H47B 1_555 1_555
C41B C42B 1_555 1_555
C42B C43B 1_555 1_555
C43B N9B 1_555 1_555
C44B H48B 1_555 1_555
H49B C44B 1_555 1_555
C45B C44B 1_555 1_555
H50B C45B 1_555 1_555
H51B C45B 1_555 1_555
C46B C45B 1_555 1_555
H52B C46B 1_555 1_555
H53B C46B 1_555 1_555
C47B C41B 1_555 1_555
C48B H54B 1_555 1_555
H55B C48B 1_555 1_555
C49B C48B 1_555 1_555
H56B C49B 1_555 1_555
H57B C49B 1_555 1_555
C50B C49B 1_555 1_555
H58B C50B 1_555 1_555
H59B C50B 1_555 1_555
C51B N23 1_555 1_555
H60B C51B 1_555 1_555
C52B N23 1_555 1_555
C53B C52B 1_555 1_555
C54B C53B 1_555 1_555
C55B H61B 1_555 1_555
H62B C55B 1_555 1_555
C56B C20B 1_555 1_555
C57B C56B 1_555 1_555
C58B H63B 1_555 1_555
H64B C58B 1_555 1_555
C59B C58B 1_555 1_555
H65B C59B 1_555 1_555
H66B C59B 1_555 1_555
C60B C59B 1_555 1_555
H67B C60B 1_555 1_555
H68B C60B 1_555 1_555
C61B N5B 1_555 1_555
C62B H69B 1_555 1_555
H70B C62B 1_555 1_555
C63B C62B 1_555 1_555
H71B C63B 1_555 1_555
H72B C63B 1_555 1_555
C64B C63B 1_555 1_555
H73B C64B 1_555 1_555
H74B C64B 1_555 1_555
N1B C1B 1_555 1_555
N2B C1B 1_555 1_555
N3B Co3B 1_555 1_555
N4B C4B 1_555 1_555
N5B Co4B 1_555 1_555
N6B C61B 1_555 1_555
N7B C40B 1_555 1_555
N8B C40B 1_555 1_555
N9B Co2B 1_555 1_555
N10B C43B 1_555 1_555
N11B C47B 1_555 1_555
N12B Co1B 1_555 1_555
N13B Co2B 1_555 1_555
N14B Co3B 1_555 1_555
N15B Co3B 1_555 1_555
N16B C36B 1_555 1_555
N17B C33B 1_555 1_555
N18B Co2B 1_555 1_555
N19B Co2B 1_555 1_555
N20B Co2B 1_555 1_555
N21B C57B 1_555 1_555
N22B Co1B 1_555 1_555
N23B C51 1_555 1_555
N24B Co1B 1_555 1_555
N25B C54B 1_555 1_555
N26B Co1B 1_555 1_555
N27B Co4B 1_555 1_555
N28B Co4B 1_555 1_555
N29B C15B 1_555 1_555
N30B C11B 1_555 1_555
N31B Co1B 1_555 1_555
N32B C19 1_555 1_555
N33B C21 1_555 1_555
N34B C24 1_555 1_555
N35B C26 1_555 1_555
N36B C28 1_555 1_555
C65B C55B 1_555 1_555
H75B C65B 1_555 1_555
H76B C65B 1_555 1_555
C66B N25B 1_555 1_555
H77B C66B 1_555 1_555
H78B C66B 1_555 1_555
C2 N2 1_555 1_555
C3 N1 1_555 1_555
C4 N3 1_555 1_555
C5 N3 1_555 1_555
C7 N4 1_555 1_555
C8 N26 1_555 1_555
C8 N27 1_555 1_555
C9 N26 1_555 1_555
C10 N27 1_555 1_555
C11 N31 1_555 1_555
C12 N31 1_555 1_555
C14 N30 1_555 1_555
C16 N29 1_555 1_555
C18 N28 1_555 1_555
C19 N19 1_555 1_555
C20 N32B 1_555 1_555
C22 N33 1_555 1_555
C25 N35 1_555 1_555
C29 N13 1_555 1_555
C29 N14 1_555 1_555
C30 N14 1_555 1_555
C31 N13 1_555 1_555
C32 N18 1_555 1_555
C35 N18 1_555 1_555
C36 N15 1_555 1_555
C37 N15 1_555 1_555
C39 N16 1_555 1_555
C41 N7 1_555 1_555
C42 N8 1_555 1_555
C44 N10 1_555 1_555
C46 N9 1_555 1_555
C47 N12 1_555 1_555
C48 N12 1_555 1_555
C50 N11 1_555 1_555
C51 N22 1_555 1_555
C52 N23B 1_555 1_555
C53 N22 1_555 1_555
C55 N24 1_555 1_555
C56 N19 1_555 1_555
C57 N20 1_555 1_555
C58 N20 1_555 1_555
C60 N21 1_555 1_555
C62 N5 1_555 1_555
C64 N6 1_555 1_555
C65 C66 1_555 1_555
Co3B N23B 1_555 1_555
Co3B N35B 1_555 1_555
Co4B N32B 1_555 1_555
Co4B N33B 1_555 1_555
C2B N2B 1_555 1_555
C3B N1B 1_555 1_555
C4B N3B 1_555 1_555
C5B N3B 1_555 1_555
C7B N4B 1_555 1_555
C8B N26B 1_555 1_555
C8B N27B 1_555 1_555
C9B N26B 1_555 1_555
C10B N27B 1_555 1_555
C11B N31B 1_555 1_555
C12B N31B 1_555 1_555
C14B N30B 1_555 1_555
C16B N29B 1_555 1_555
C18B N28B 1_555 1_555
C19B N19B 1_555 1_555
C20B C21B 1_555 1_555
C21B N34B 1_555 1_555
C22B N33B 1_555 1_555
C25B N35B 1_555 1_555
C26B C52B 1_555 1_555
C26B N36B 1_555 1_555
C27B C28B 1_555 1_555
C29B N13B 1_555 1_555
C29B N14B 1_555 1_555
C30B N14B 1_555 1_555
C31B N13B 1_555 1_555
C32B N18B 1_555 1_555
C35B N18B 1_555 1_555
C36B N15B 1_555 1_555
C37B N15B 1_555 1_555
C39B N16B 1_555 1_555
C41B N7B 1_555 1_555
C42B N8B 1_555 1_555
C44B N10B 1_555 1_555
C46B N9B 1_555 1_555
C47B N12B 1_555 1_555
C48B N12B 1_555 1_555
C50B N11B 1_555 1_555
C51B N22B 1_555 1_555
C53B N22B 1_555 1_555
C54B N24B 1_555 1_555
C55B N24B 1_555 1_555
C56B N19B 1_555 1_555
C57B N20B 1_555 1_555
C58B N20B 1_555 1_555
C60B N21B 1_555 1_555
C62B N5B 1_555 1_555
C64B N6B 1_555 1_555
C65B C66B 1_555 1_555

#END
