# generated using pymatgen
data_Co8H192C138N72Cl13O22
_symmetry_space_group_name_H-M   'P 1'
_cell_length_a   25.10260000
_cell_length_b   25.10260000
_cell_length_c   25.10260000
_cell_angle_alpha   90.00000000
_cell_angle_beta   90.00000000
_cell_angle_gamma   90.00000000
_symmetry_Int_Tables_number   1
_chemical_formula_structural   Co8H192C138N72Cl13O22
_chemical_formula_sum   'Co32 H768 C552 N288 Cl52 O88'
_cell_volume   15818.16558705
_cell_formula_units_Z   4
loop_
 _symmetry_equiv_pos_site_id
 _symmetry_equiv_pos_as_xyz
  1  'x, y, z'
loop_
 _atom_site_type_symbol
 _atom_site_label
 _atom_site_symmetry_multiplicity
 _atom_site_fract_x
 _atom_site_fract_y
 _atom_site_fract_z
 _atom_site_occupancy
  Co  Co1  1  0.115468  0.615467  0.884532  1.0
  Co  Co2  1  0.384532  0.384533  0.384532  1.0
  Co  Co3  1  0.884532  0.115467  0.615468  1.0
  Co  Co4  1  0.615468  0.884533  0.115468  1.0
  Co  Co5  1  0.884532  0.384533  0.115468  1.0
  Co  Co6  1  0.615468  0.615467  0.615468  1.0
  Co  Co7  1  0.115468  0.884533  0.384532  1.0
  Co  Co8  1  0.384532  0.115467  0.884532  1.0
  Co  Co9  1  0.196913  0.466866  0.051335  1.0
  Co  Co10  1  0.303087  0.533134  0.551335  1.0
  Co  Co11  1  0.803087  0.966866  0.448665  1.0
  Co  Co12  1  0.696913  0.033134  0.948665  1.0
  Co  Co13  1  0.051335  0.196913  0.466866  1.0
  Co  Co14  1  0.551335  0.303087  0.533134  1.0
  Co  Co15  1  0.448665  0.803087  0.966866  1.0
  Co  Co16  1  0.948665  0.696913  0.033134  1.0
  Co  Co17  1  0.466866  0.051335  0.196913  1.0
  Co  Co18  1  0.533134  0.551335  0.303087  1.0
  Co  Co19  1  0.966866  0.448665  0.803087  1.0
  Co  Co20  1  0.033134  0.948665  0.696913  1.0
  Co  Co21  1  0.803087  0.533134  0.948665  1.0
  Co  Co22  1  0.696913  0.466866  0.448665  1.0
  Co  Co23  1  0.196913  0.033134  0.551335  1.0
  Co  Co24  1  0.303087  0.966866  0.051335  1.0
  Co  Co25  1  0.948665  0.803087  0.533134  1.0
  Co  Co26  1  0.448665  0.696913  0.466866  1.0
  Co  Co27  1  0.551335  0.196913  0.033134  1.0
  Co  Co28  1  0.051335  0.303087  0.966866  1.0
  Co  Co29  1  0.533134  0.948665  0.803087  1.0
  Co  Co30  1  0.466866  0.448665  0.696913  1.0
  Co  Co31  1  0.033134  0.551335  0.196913  1.0
  Co  Co32  1  0.966866  0.051335  0.303087  1.0
  H  H33  1  0.330900  0.566300  0.125000  1
  H  H34  1  0.169100  0.433700  0.625000  1
  H  H35  1  0.669100  0.066300  0.375000  1
  H  H36  1  0.830900  0.933700  0.875000  1
  H  H37  1  0.125000  0.330900  0.566300  1
  H  H38  1  0.625000  0.169100  0.433700  1
  H  H39  1  0.375000  0.669100  0.066300  1
  H  H40  1  0.875000  0.830900  0.933700  1
  H  H41  1  0.566300  0.125000  0.330900  1
  H  H42  1  0.433700  0.625000  0.169100  1
  H  H43  1  0.066300  0.375000  0.669100  1
  H  H44  1  0.933700  0.875000  0.830900  1
  H  H45  1  0.669100  0.433700  0.875000  1
  H  H46  1  0.830900  0.566300  0.375000  1
  H  H47  1  0.330900  0.933700  0.625000  1
  H  H48  1  0.169100  0.066300  0.125000  1
  H  H49  1  0.875000  0.669100  0.433700  1
  H  H50  1  0.375000  0.830900  0.566300  1
  H  H51  1  0.625000  0.330900  0.933700  1
  H  H52  1  0.125000  0.169100  0.066300  1
  H  H53  1  0.433700  0.875000  0.669100  1
  H  H54  1  0.566300  0.375000  0.830900  1
  H  H55  1  0.933700  0.625000  0.330900  1
  H  H56  1  0.066300  0.125000  0.169100  1
  H  H57  1  0.306100  0.568500  0.183500  1
  H  H58  1  0.193900  0.431500  0.683500  1
  H  H59  1  0.693900  0.068500  0.316500  1
  H  H60  1  0.806100  0.931500  0.816500  1
  H  H61  1  0.183500  0.306100  0.568500  1
  H  H62  1  0.683500  0.193900  0.431500  1
  H  H63  1  0.316500  0.693900  0.068500  1
  H  H64  1  0.816500  0.806100  0.931500  1
  H  H65  1  0.568500  0.183500  0.306100  1
  H  H66  1  0.431500  0.683500  0.193900  1
  H  H67  1  0.068500  0.316500  0.693900  1
  H  H68  1  0.931500  0.816500  0.806100  1
  H  H69  1  0.693900  0.431500  0.816500  1
  H  H70  1  0.806100  0.568500  0.316500  1
  H  H71  1  0.306100  0.931500  0.683500  1
  H  H72  1  0.193900  0.068500  0.183500  1
  H  H73  1  0.816500  0.693900  0.431500  1
  H  H74  1  0.316500  0.806100  0.568500  1
  H  H75  1  0.683500  0.306100  0.931500  1
  H  H76  1  0.183500  0.193900  0.068500  1
  H  H77  1  0.431500  0.816500  0.693900  1
  H  H78  1  0.568500  0.316500  0.806100  1
  H  H79  1  0.931500  0.683500  0.306100  1
  H  H80  1  0.068500  0.183500  0.193900  1
  H  H81  1  0.118200  0.499900  0.949400  1.0
  H  H82  1  0.381800  0.500100  0.449400  1.0
  H  H83  1  0.881800  0.999900  0.550600  1.0
  H  H84  1  0.618200  0.000100  0.050600  1.0
  H  H85  1  0.949400  0.118200  0.499900  1.0
  H  H86  1  0.449400  0.381800  0.500100  1.0
  H  H87  1  0.550600  0.881800  0.999900  1.0
  H  H88  1  0.050600  0.618200  0.000100  1.0
  H  H89  1  0.499900  0.949400  0.118200  1.0
  H  H90  1  0.500100  0.449400  0.381800  1.0
  H  H91  1  0.999900  0.550600  0.881800  1.0
  H  H92  1  0.000100  0.050600  0.618200  1.0
  H  H93  1  0.881800  0.500100  0.050600  1.0
  H  H94  1  0.618200  0.499900  0.550600  1.0
  H  H95  1  0.118200  0.000100  0.449400  1.0
  H  H96  1  0.381800  0.999900  0.949400  1.0
  H  H97  1  0.050600  0.881800  0.500100  1.0
  H  H98  1  0.550600  0.618200  0.499900  1.0
  H  H99  1  0.449400  0.118200  0.000100  1.0
  H  H100  1  0.949400  0.381800  0.999900  1.0
  H  H101  1  0.500100  0.050600  0.881800  1.0
  H  H102  1  0.499900  0.550600  0.618200  1.0
  H  H103  1  0.000100  0.449400  0.118200  1.0
  H  H104  1  0.999900  0.949400  0.381800  1.0
  H  H105  1  0.260500  0.749500  0.938400  1.0
  H  H106  1  0.239500  0.250500  0.438400  1.0
  H  H107  1  0.739500  0.249500  0.561600  1.0
  H  H108  1  0.760500  0.750500  0.061600  1.0
  H  H109  1  0.938400  0.260500  0.749500  1.0
  H  H110  1  0.438400  0.239500  0.250500  1.0
  H  H111  1  0.561600  0.739500  0.249500  1.0
  H  H112  1  0.061600  0.760500  0.750500  1.0
  H  H113  1  0.749500  0.938400  0.260500  1.0
  H  H114  1  0.250500  0.438400  0.239500  1.0
  H  H115  1  0.249500  0.561600  0.739500  1.0
  H  H116  1  0.750500  0.061600  0.760500  1.0
  H  H117  1  0.739500  0.250500  0.061600  1.0
  H  H118  1  0.760500  0.749500  0.561600  1.0
  H  H119  1  0.260500  0.750500  0.438400  1.0
  H  H120  1  0.239500  0.249500  0.938400  1.0
  H  H121  1  0.061600  0.739500  0.250500  1.0
  H  H122  1  0.561600  0.760500  0.749500  1.0
  H  H123  1  0.438400  0.260500  0.750500  1.0
  H  H124  1  0.938400  0.239500  0.249500  1.0
  H  H125  1  0.250500  0.061600  0.739500  1.0
  H  H126  1  0.749500  0.561600  0.760500  1.0
  H  H127  1  0.750500  0.438400  0.260500  1.0
  H  H128  1  0.249500  0.938400  0.239500  1.0
  H  H129  1  0.239100  0.766100  0.996300  1.0
  H  H130  1  0.260900  0.233900  0.496300  1.0
  H  H131  1  0.760900  0.266100  0.503700  1.0
  H  H132  1  0.739100  0.733900  0.003700  1.0
  H  H133  1  0.996300  0.239100  0.766100  1.0
  H  H134  1  0.496300  0.260900  0.233900  1.0
  H  H135  1  0.503700  0.760900  0.266100  1.0
  H  H136  1  0.003700  0.739100  0.733900  1.0
  H  H137  1  0.766100  0.996300  0.239100  1.0
  H  H138  1  0.233900  0.496300  0.260900  1.0
  H  H139  1  0.266100  0.503700  0.760900  1.0
  H  H140  1  0.733900  0.003700  0.739100  1.0
  H  H141  1  0.760900  0.233900  0.003700  1.0
  H  H142  1  0.739100  0.766100  0.503700  1.0
  H  H143  1  0.239100  0.733900  0.496300  1.0
  H  H144  1  0.260900  0.266100  0.996300  1.0
  H  H145  1  0.003700  0.760900  0.233900  1.0
  H  H146  1  0.503700  0.739100  0.766100  1.0
  H  H147  1  0.496300  0.239100  0.733900  1.0
  H  H148  1  0.996300  0.260900  0.266100  1.0
  H  H149  1  0.233900  0.003700  0.760900  1.0
  H  H150  1  0.766100  0.503700  0.739100  1.0
  H  H151  1  0.733900  0.496300  0.239100  1.0
  H  H152  1  0.266100  0.996300  0.260900  1.0
  H  H153  1  0.128500  0.738500  0.880900  1.0
  H  H154  1  0.371500  0.261500  0.380900  1.0
  H  H155  1  0.871500  0.238500  0.619100  1.0
  H  H156  1  0.628500  0.761500  0.119100  1.0
  H  H157  1  0.880900  0.128500  0.738500  1.0
  H  H158  1  0.380900  0.371500  0.261500  1.0
  H  H159  1  0.619100  0.871500  0.238500  1.0
  H  H160  1  0.119100  0.628500  0.761500  1.0
  H  H161  1  0.738500  0.880900  0.128500  1.0
  H  H162  1  0.261500  0.380900  0.371500  1.0
  H  H163  1  0.238500  0.619100  0.871500  1.0
  H  H164  1  0.761500  0.119100  0.628500  1.0
  H  H165  1  0.871500  0.261500  0.119100  1.0
  H  H166  1  0.628500  0.738500  0.619100  1.0
  H  H167  1  0.128500  0.761500  0.380900  1.0
  H  H168  1  0.371500  0.238500  0.880900  1.0
  H  H169  1  0.119100  0.871500  0.261500  1.0
  H  H170  1  0.619100  0.628500  0.738500  1.0
  H  H171  1  0.380900  0.128500  0.761500  1.0
  H  H172  1  0.880900  0.371500  0.238500  1.0
  H  H173  1  0.261500  0.119100  0.871500  1.0
  H  H174  1  0.738500  0.619100  0.628500  1.0
  H  H175  1  0.761500  0.380900  0.128500  1.0
  H  H176  1  0.238500  0.880900  0.371500  1.0
  H  H177  1  0.189800  0.729100  0.865800  1.0
  H  H178  1  0.310200  0.270900  0.365800  1.0
  H  H179  1  0.810200  0.229100  0.634200  1.0
  H  H180  1  0.689800  0.770900  0.134200  1.0
  H  H181  1  0.865800  0.189800  0.729100  1.0
  H  H182  1  0.365800  0.310200  0.270900  1.0
  H  H183  1  0.634200  0.810200  0.229100  1.0
  H  H184  1  0.134200  0.689800  0.770900  1.0
  H  H185  1  0.729100  0.865800  0.189800  1.0
  H  H186  1  0.270900  0.365800  0.310200  1.0
  H  H187  1  0.229100  0.634200  0.810200  1.0
  H  H188  1  0.770900  0.134200  0.689800  1.0
  H  H189  1  0.810200  0.270900  0.134200  1.0
  H  H190  1  0.689800  0.729100  0.634200  1.0
  H  H191  1  0.189800  0.770900  0.365800  1.0
  H  H192  1  0.310200  0.229100  0.865800  1.0
  H  H193  1  0.134200  0.810200  0.270900  1.0
  H  H194  1  0.634200  0.689800  0.729100  1.0
  H  H195  1  0.365800  0.189800  0.770900  1.0
  H  H196  1  0.865800  0.310200  0.229100  1.0
  H  H197  1  0.270900  0.134200  0.810200  1.0
  H  H198  1  0.729100  0.634200  0.689800  1.0
  H  H199  1  0.770900  0.365800  0.189800  1.0
  H  H200  1  0.229100  0.865800  0.310200  1.0
  H  H201  1  0.218500  0.576800  0.174200  1.0
  H  H202  1  0.281500  0.423200  0.674200  1.0
  H  H203  1  0.781500  0.076800  0.325800  1.0
  H  H204  1  0.718500  0.923200  0.825800  1.0
  H  H205  1  0.174200  0.218500  0.576800  1.0
  H  H206  1  0.674200  0.281500  0.423200  1.0
  H  H207  1  0.325800  0.781500  0.076800  1.0
  H  H208  1  0.825800  0.718500  0.923200  1.0
  H  H209  1  0.576800  0.174200  0.218500  1.0
  H  H210  1  0.423200  0.674200  0.281500  1.0
  H  H211  1  0.076800  0.325800  0.781500  1.0
  H  H212  1  0.923200  0.825800  0.718500  1.0
  H  H213  1  0.781500  0.423200  0.825800  1.0
  H  H214  1  0.718500  0.576800  0.325800  1.0
  H  H215  1  0.218500  0.923200  0.674200  1.0
  H  H216  1  0.281500  0.076800  0.174200  1.0
  H  H217  1  0.825800  0.781500  0.423200  1.0
  H  H218  1  0.325800  0.718500  0.576800  1.0
  H  H219  1  0.674200  0.218500  0.923200  1.0
  H  H220  1  0.174200  0.281500  0.076800  1.0
  H  H221  1  0.423200  0.825800  0.781500  1.0
  H  H222  1  0.576800  0.325800  0.718500  1.0
  H  H223  1  0.923200  0.674200  0.218500  1.0
  H  H224  1  0.076800  0.174200  0.281500  1.0
  H  H225  1  0.277500  0.572800  0.198200  1.0
  H  H226  1  0.222500  0.427200  0.698200  1.0
  H  H227  1  0.722500  0.072800  0.301800  1.0
  H  H228  1  0.777500  0.927200  0.801800  1.0
  H  H229  1  0.198200  0.277500  0.572800  1.0
  H  H230  1  0.698200  0.222500  0.427200  1.0
  H  H231  1  0.301800  0.722500  0.072800  1.0
  H  H232  1  0.801800  0.777500  0.927200  1.0
  H  H233  1  0.572800  0.198200  0.277500  1.0
  H  H234  1  0.427200  0.698200  0.222500  1.0
  H  H235  1  0.072800  0.301800  0.722500  1.0
  H  H236  1  0.927200  0.801800  0.777500  1.0
  H  H237  1  0.722500  0.427200  0.801800  1.0
  H  H238  1  0.777500  0.572800  0.301800  1.0
  H  H239  1  0.277500  0.927200  0.698200  1.0
  H  H240  1  0.222500  0.072800  0.198200  1.0
  H  H241  1  0.801800  0.722500  0.427200  1.0
  H  H242  1  0.301800  0.777500  0.572800  1.0
  H  H243  1  0.698200  0.277500  0.927200  1.0
  H  H244  1  0.198200  0.222500  0.072800  1.0
  H  H245  1  0.427200  0.801800  0.722500  1.0
  H  H246  1  0.572800  0.301800  0.777500  1.0
  H  H247  1  0.927200  0.698200  0.277500  1.0
  H  H248  1  0.072800  0.198200  0.222500  1.0
  H  H249  1  0.304400  0.517100  0.127000  1.0
  H  H250  1  0.195600  0.482900  0.627000  1.0
  H  H251  1  0.695600  0.017100  0.373000  1.0
  H  H252  1  0.804400  0.982900  0.873000  1.0
  H  H253  1  0.127000  0.304400  0.517100  1.0
  H  H254  1  0.627000  0.195600  0.482900  1.0
  H  H255  1  0.373000  0.695600  0.017100  1.0
  H  H256  1  0.873000  0.804400  0.982900  1.0
  H  H257  1  0.517100  0.127000  0.304400  1.0
  H  H258  1  0.482900  0.627000  0.195600  1.0
  H  H259  1  0.017100  0.373000  0.695600  1.0
  H  H260  1  0.982900  0.873000  0.804400  1.0
  H  H261  1  0.695600  0.482900  0.873000  1.0
  H  H262  1  0.804400  0.517100  0.373000  1.0
  H  H263  1  0.304400  0.982900  0.627000  1.0
  H  H264  1  0.195600  0.017100  0.127000  1.0
  H  H265  1  0.873000  0.695600  0.482900  1.0
  H  H266  1  0.373000  0.804400  0.517100  1.0
  H  H267  1  0.627000  0.304400  0.982900  1.0
  H  H268  1  0.127000  0.195600  0.017100  1.0
  H  H269  1  0.482900  0.873000  0.695600  1.0
  H  H270  1  0.517100  0.373000  0.804400  1.0
  H  H271  1  0.982900  0.627000  0.304400  1.0
  H  H272  1  0.017100  0.127000  0.195600  1.0
  H  H273  1  0.252600  0.491400  0.154400  1.0
  H  H274  1  0.247400  0.508600  0.654400  1.0
  H  H275  1  0.747400  0.991400  0.345600  1.0
  H  H276  1  0.752600  0.008600  0.845600  1.0
  H  H277  1  0.154400  0.252600  0.491400  1.0
  H  H278  1  0.654400  0.247400  0.508600  1.0
  H  H279  1  0.345600  0.747400  0.991400  1.0
  H  H280  1  0.845600  0.752600  0.008600  1.0
  H  H281  1  0.491400  0.154400  0.252600  1.0
  H  H282  1  0.508600  0.654400  0.247400  1.0
  H  H283  1  0.991400  0.345600  0.747400  1.0
  H  H284  1  0.008600  0.845600  0.752600  1.0
  H  H285  1  0.747400  0.508600  0.845600  1.0
  H  H286  1  0.752600  0.491400  0.345600  1.0
  H  H287  1  0.252600  0.008600  0.654400  1.0
  H  H288  1  0.247400  0.991400  0.154400  1.0
  H  H289  1  0.845600  0.747400  0.508600  1.0
  H  H290  1  0.345600  0.752600  0.491400  1.0
  H  H291  1  0.654400  0.252600  0.008600  1.0
  H  H292  1  0.154400  0.247400  0.991400  1.0
  H  H293  1  0.508600  0.845600  0.747400  1.0
  H  H294  1  0.491400  0.345600  0.752600  1.0
  H  H295  1  0.008600  0.654400  0.252600  1.0
  H  H296  1  0.991400  0.154400  0.247400  1.0
  H  H297  1  0.311700  0.619200  0.127700  1.0
  H  H298  1  0.188300  0.380800  0.627700  1.0
  H  H299  1  0.688300  0.119200  0.372300  1.0
  H  H300  1  0.811700  0.880800  0.872300  1.0
  H  H301  1  0.127700  0.311700  0.619200  1.0
  H  H302  1  0.627700  0.188300  0.380800  1.0
  H  H303  1  0.372300  0.688300  0.119200  1.0
  H  H304  1  0.872300  0.811700  0.880800  1.0
  H  H305  1  0.619200  0.127700  0.311700  1.0
  H  H306  1  0.380800  0.627700  0.188300  1.0
  H  H307  1  0.119200  0.372300  0.688300  1.0
  H  H308  1  0.880800  0.872300  0.811700  1.0
  H  H309  1  0.688300  0.380800  0.872300  1.0
  H  H310  1  0.811700  0.619200  0.372300  1.0
  H  H311  1  0.311700  0.880800  0.627700  1.0
  H  H312  1  0.188300  0.119200  0.127700  1.0
  H  H313  1  0.872300  0.688300  0.380800  1.0
  H  H314  1  0.372300  0.811700  0.619200  1.0
  H  H315  1  0.627700  0.311700  0.880800  1.0
  H  H316  1  0.127700  0.188300  0.119200  1.0
  H  H317  1  0.380800  0.872300  0.688300  1.0
  H  H318  1  0.619200  0.372300  0.811700  1.0
  H  H319  1  0.880800  0.627700  0.311700  1.0
  H  H320  1  0.119200  0.127700  0.188300  1.0
  H  H321  1  0.263300  0.652900  0.152100  1.0
  H  H322  1  0.236700  0.347100  0.652100  1.0
  H  H323  1  0.736700  0.152900  0.347900  1.0
  H  H324  1  0.763300  0.847100  0.847900  1.0
  H  H325  1  0.152100  0.263300  0.652900  1.0
  H  H326  1  0.652100  0.236700  0.347100  1.0
  H  H327  1  0.347900  0.736700  0.152900  1.0
  H  H328  1  0.847900  0.763300  0.847100  1.0
  H  H329  1  0.652900  0.152100  0.263300  1.0
  H  H330  1  0.347100  0.652100  0.236700  1.0
  H  H331  1  0.152900  0.347900  0.736700  1.0
  H  H332  1  0.847100  0.847900  0.763300  1.0
  H  H333  1  0.736700  0.347100  0.847900  1.0
  H  H334  1  0.763300  0.652900  0.347900  1.0
  H  H335  1  0.263300  0.847100  0.652100  1.0
  H  H336  1  0.236700  0.152900  0.152100  1.0
  H  H337  1  0.847900  0.736700  0.347100  1.0
  H  H338  1  0.347900  0.763300  0.652900  1.0
  H  H339  1  0.652100  0.263300  0.847100  1.0
  H  H340  1  0.152100  0.236700  0.152900  1.0
  H  H341  1  0.347100  0.847900  0.736700  1.0
  H  H342  1  0.652900  0.347900  0.763300  1.0
  H  H343  1  0.847100  0.652100  0.263300  1.0
  H  H344  1  0.152900  0.152100  0.236700  1.0
  H  H345  1  0.184700  0.800200  0.926000  1.0
  H  H346  1  0.315300  0.199800  0.426000  1.0
  H  H347  1  0.815300  0.300200  0.574000  1.0
  H  H348  1  0.684700  0.699800  0.074000  1.0
  H  H349  1  0.926000  0.184700  0.800200  1.0
  H  H350  1  0.426000  0.315300  0.199800  1.0
  H  H351  1  0.574000  0.815300  0.300200  1.0
  H  H352  1  0.074000  0.684700  0.699800  1.0
  H  H353  1  0.800200  0.926000  0.184700  1.0
  H  H354  1  0.199800  0.426000  0.315300  1.0
  H  H355  1  0.300200  0.574000  0.815300  1.0
  H  H356  1  0.699800  0.074000  0.684700  1.0
  H  H357  1  0.815300  0.199800  0.074000  1.0
  H  H358  1  0.684700  0.800200  0.574000  1.0
  H  H359  1  0.184700  0.699800  0.426000  1.0
  H  H360  1  0.315300  0.300200  0.926000  1.0
  H  H361  1  0.074000  0.815300  0.199800  1.0
  H  H362  1  0.574000  0.684700  0.800200  1.0
  H  H363  1  0.426000  0.184700  0.699800  1.0
  H  H364  1  0.926000  0.315300  0.300200  1.0
  H  H365  1  0.199800  0.074000  0.815300  1.0
  H  H366  1  0.800200  0.574000  0.684700  1.0
  H  H367  1  0.699800  0.426000  0.184700  1.0
  H  H368  1  0.300200  0.926000  0.315300  1.0
  H  H369  1  0.151800  0.764400  0.967400  1.0
  H  H370  1  0.348200  0.235600  0.467400  1.0
  H  H371  1  0.848200  0.264400  0.532600  1.0
  H  H372  1  0.651800  0.735600  0.032600  1.0
  H  H373  1  0.967400  0.151800  0.764400  1.0
  H  H374  1  0.467400  0.348200  0.235600  1.0
  H  H375  1  0.532600  0.848200  0.264400  1.0
  H  H376  1  0.032600  0.651800  0.735600  1.0
  H  H377  1  0.764400  0.967400  0.151800  1.0
  H  H378  1  0.235600  0.467400  0.348200  1.0
  H  H379  1  0.264400  0.532600  0.848200  1.0
  H  H380  1  0.735600  0.032600  0.651800  1.0
  H  H381  1  0.848200  0.235600  0.032600  1.0
  H  H382  1  0.651800  0.764400  0.532600  1.0
  H  H383  1  0.151800  0.735600  0.467400  1.0
  H  H384  1  0.348200  0.264400  0.967400  1.0
  H  H385  1  0.032600  0.848200  0.235600  1.0
  H  H386  1  0.532600  0.651800  0.764400  1.0
  H  H387  1  0.467400  0.151800  0.735600  1.0
  H  H388  1  0.967400  0.348200  0.264400  1.0
  H  H389  1  0.235600  0.032600  0.848200  1.0
  H  H390  1  0.764400  0.532600  0.651800  1.0
  H  H391  1  0.735600  0.467400  0.151800  1.0
  H  H392  1  0.264400  0.967400  0.348200  1.0
  H  H393  1  0.226100  0.300500  0.162800  1.0
  H  H394  1  0.273900  0.699500  0.662800  1.0
  H  H395  1  0.773900  0.800500  0.337200  1.0
  H  H396  1  0.726100  0.199500  0.837200  1.0
  H  H397  1  0.162800  0.226100  0.300500  1.0
  H  H398  1  0.662800  0.273900  0.699500  1.0
  H  H399  1  0.337200  0.773900  0.800500  1.0
  H  H400  1  0.837200  0.726100  0.199500  1.0
  H  H401  1  0.300500  0.162800  0.226100  1.0
  H  H402  1  0.699500  0.662800  0.273900  1.0
  H  H403  1  0.800500  0.337200  0.773900  1.0
  H  H404  1  0.199500  0.837200  0.726100  1.0
  H  H405  1  0.773900  0.699500  0.837200  1.0
  H  H406  1  0.726100  0.300500  0.337200  1.0
  H  H407  1  0.226100  0.199500  0.662800  1.0
  H  H408  1  0.273900  0.800500  0.162800  1.0
  H  H409  1  0.837200  0.773900  0.699500  1.0
  H  H410  1  0.337200  0.726100  0.300500  1.0
  H  H411  1  0.662800  0.226100  0.199500  1.0
  H  H412  1  0.162800  0.273900  0.800500  1.0
  H  H413  1  0.699500  0.837200  0.773900  1.0
  H  H414  1  0.300500  0.337200  0.726100  1.0
  H  H415  1  0.199500  0.662800  0.226100  1.0
  H  H416  1  0.800500  0.162800  0.273900  1.0
  H  H417  1  0.246900  0.323900  0.218600  1.0
  H  H418  1  0.253100  0.676100  0.718600  1.0
  H  H419  1  0.753100  0.823900  0.281400  1.0
  H  H420  1  0.746900  0.176100  0.781400  1.0
  H  H421  1  0.218600  0.246900  0.323900  1.0
  H  H422  1  0.718600  0.253100  0.676100  1.0
  H  H423  1  0.281400  0.753100  0.823900  1.0
  H  H424  1  0.781400  0.746900  0.176100  1.0
  H  H425  1  0.323900  0.218600  0.246900  1.0
  H  H426  1  0.676100  0.718600  0.253100  1.0
  H  H427  1  0.823900  0.281400  0.753100  1.0
  H  H428  1  0.176100  0.781400  0.746900  1.0
  H  H429  1  0.753100  0.676100  0.781400  1.0
  H  H430  1  0.746900  0.323900  0.281400  1.0
  H  H431  1  0.246900  0.176100  0.718600  1.0
  H  H432  1  0.253100  0.823900  0.218600  1.0
  H  H433  1  0.781400  0.753100  0.676100  1.0
  H  H434  1  0.281400  0.746900  0.323900  1.0
  H  H435  1  0.718600  0.246900  0.176100  1.0
  H  H436  1  0.218600  0.253100  0.823900  1.0
  H  H437  1  0.676100  0.781400  0.753100  1.0
  H  H438  1  0.323900  0.281400  0.746900  1.0
  H  H439  1  0.176100  0.718600  0.246900  1.0
  H  H440  1  0.823900  0.218600  0.253100  1.0
  H  H441  1  0.294700  0.399500  0.082400  1.0
  H  H442  1  0.205300  0.600500  0.582400  1.0
  H  H443  1  0.705300  0.899500  0.417600  1.0
  H  H444  1  0.794700  0.100500  0.917600  1.0
  H  H445  1  0.082400  0.294700  0.399500  1.0
  H  H446  1  0.582400  0.205300  0.600500  1.0
  H  H447  1  0.417600  0.705300  0.899500  1.0
  H  H448  1  0.917600  0.794700  0.100500  1.0
  H  H449  1  0.399500  0.082400  0.294700  1.0
  H  H450  1  0.600500  0.582400  0.205300  1.0
  H  H451  1  0.899500  0.417600  0.705300  1.0
  H  H452  1  0.100500  0.917600  0.794700  1.0
  H  H453  1  0.705300  0.600500  0.917600  1.0
  H  H454  1  0.794700  0.399500  0.417600  1.0
  H  H455  1  0.294700  0.100500  0.582400  1.0
  H  H456  1  0.205300  0.899500  0.082400  1.0
  H  H457  1  0.917600  0.705300  0.600500  1.0
  H  H458  1  0.417600  0.794700  0.399500  1.0
  H  H459  1  0.582400  0.294700  0.100500  1.0
  H  H460  1  0.082400  0.205300  0.899500  1.0
  H  H461  1  0.600500  0.917600  0.705300  1.0
  H  H462  1  0.399500  0.417600  0.794700  1.0
  H  H463  1  0.100500  0.582400  0.294700  1.0
  H  H464  1  0.899500  0.082400  0.205300  1.0
  H  H465  1  0.256400  0.348800  0.076100  1.0
  H  H466  1  0.243600  0.651200  0.576100  1.0
  H  H467  1  0.743600  0.848800  0.423900  1.0
  H  H468  1  0.756400  0.151200  0.923900  1.0
  H  H469  1  0.076100  0.256400  0.348800  1.0
  H  H470  1  0.576100  0.243600  0.651200  1.0
  H  H471  1  0.423900  0.743600  0.848800  1.0
  H  H472  1  0.923900  0.756400  0.151200  1.0
  H  H473  1  0.348800  0.076100  0.256400  1.0
  H  H474  1  0.651200  0.576100  0.243600  1.0
  H  H475  1  0.848800  0.423900  0.743600  1.0
  H  H476  1  0.151200  0.923900  0.756400  1.0
  H  H477  1  0.743600  0.651200  0.923900  1.0
  H  H478  1  0.756400  0.348800  0.423900  1.0
  H  H479  1  0.256400  0.151200  0.576100  1.0
  H  H480  1  0.243600  0.848800  0.076100  1.0
  H  H481  1  0.923900  0.743600  0.651200  1.0
  H  H482  1  0.423900  0.756400  0.348800  1.0
  H  H483  1  0.576100  0.256400  0.151200  1.0
  H  H484  1  0.076100  0.243600  0.848800  1.0
  H  H485  1  0.651200  0.923900  0.743600  1.0
  H  H486  1  0.348800  0.423900  0.756400  1.0
  H  H487  1  0.151200  0.576100  0.256400  1.0
  H  H488  1  0.848800  0.076100  0.243600  1.0
  H  H489  1  0.312000  0.333400  0.149500  1.0
  H  H490  1  0.188000  0.666600  0.649500  1.0
  H  H491  1  0.688000  0.833400  0.350500  1.0
  H  H492  1  0.812000  0.166600  0.850500  1.0
  H  H493  1  0.149500  0.312000  0.333400  1.0
  H  H494  1  0.649500  0.188000  0.666600  1.0
  H  H495  1  0.350500  0.688000  0.833400  1.0
  H  H496  1  0.850500  0.812000  0.166600  1.0
  H  H497  1  0.333400  0.149500  0.312000  1.0
  H  H498  1  0.666600  0.649500  0.188000  1.0
  H  H499  1  0.833400  0.350500  0.688000  1.0
  H  H500  1  0.166600  0.850500  0.812000  1.0
  H  H501  1  0.688000  0.666600  0.850500  1.0
  H  H502  1  0.812000  0.333400  0.350500  1.0
  H  H503  1  0.312000  0.166600  0.649500  1.0
  H  H504  1  0.188000  0.833400  0.149500  1.0
  H  H505  1  0.850500  0.688000  0.666600  1.0
  H  H506  1  0.350500  0.812000  0.333400  1.0
  H  H507  1  0.649500  0.312000  0.166600  1.0
  H  H508  1  0.149500  0.188000  0.833400  1.0
  H  H509  1  0.666600  0.850500  0.688000  1.0
  H  H510  1  0.333400  0.350500  0.812000  1.0
  H  H511  1  0.166600  0.649500  0.312000  1.0
  H  H512  1  0.833400  0.149500  0.188000  1.0
  H  H513  1  0.296100  0.389700  0.175300  1.0
  H  H514  1  0.203900  0.610300  0.675300  1.0
  H  H515  1  0.703900  0.889700  0.324700  1.0
  H  H516  1  0.796100  0.110300  0.824700  1.0
  H  H517  1  0.175300  0.296100  0.389700  1.0
  H  H518  1  0.675300  0.203900  0.610300  1.0
  H  H519  1  0.324700  0.703900  0.889700  1.0
  H  H520  1  0.824700  0.796100  0.110300  1.0
  H  H521  1  0.389700  0.175300  0.296100  1.0
  H  H522  1  0.610300  0.675300  0.203900  1.0
  H  H523  1  0.889700  0.324700  0.703900  1.0
  H  H524  1  0.110300  0.824700  0.796100  1.0
  H  H525  1  0.703900  0.610300  0.824700  1.0
  H  H526  1  0.796100  0.389700  0.324700  1.0
  H  H527  1  0.296100  0.110300  0.675300  1.0
  H  H528  1  0.203900  0.889700  0.175300  1.0
  H  H529  1  0.824700  0.703900  0.610300  1.0
  H  H530  1  0.324700  0.796100  0.389700  1.0
  H  H531  1  0.675300  0.296100  0.110300  1.0
  H  H532  1  0.175300  0.203900  0.889700  1.0
  H  H533  1  0.610300  0.824700  0.703900  1.0
  H  H534  1  0.389700  0.324700  0.796100  1.0
  H  H535  1  0.110300  0.675300  0.296100  1.0
  H  H536  1  0.889700  0.175300  0.203900  1.0
  H  H537  1  0.083700  0.403600  0.042700  1.0
  H  H538  1  0.416300  0.596400  0.542700  1.0
  H  H539  1  0.916300  0.903600  0.457300  1.0
  H  H540  1  0.583700  0.096400  0.957300  1.0
  H  H541  1  0.042700  0.083700  0.403600  1.0
  H  H542  1  0.542700  0.416300  0.596400  1.0
  H  H543  1  0.457300  0.916300  0.903600  1.0
  H  H544  1  0.957300  0.583700  0.096400  1.0
  H  H545  1  0.403600  0.042700  0.083700  1.0
  H  H546  1  0.596400  0.542700  0.416300  1.0
  H  H547  1  0.903600  0.457300  0.916300  1.0
  H  H548  1  0.096400  0.957300  0.583700  1.0
  H  H549  1  0.916300  0.596400  0.957300  1.0
  H  H550  1  0.583700  0.403600  0.457300  1.0
  H  H551  1  0.083700  0.096400  0.542700  1.0
  H  H552  1  0.416300  0.903600  0.042700  1.0
  H  H553  1  0.957300  0.916300  0.596400  1.0
  H  H554  1  0.457300  0.583700  0.403600  1.0
  H  H555  1  0.542700  0.083700  0.096400  1.0
  H  H556  1  0.042700  0.416300  0.903600  1.0
  H  H557  1  0.596400  0.957300  0.916300  1.0
  H  H558  1  0.403600  0.457300  0.583700  1.0
  H  H559  1  0.096400  0.542700  0.083700  1.0
  H  H560  1  0.903600  0.042700  0.416300  1.0
  H  H561  1  0.319500  0.453700  0.893700  1.0
  H  H562  1  0.180500  0.546300  0.393700  1.0
  H  H563  1  0.680500  0.953700  0.606300  1.0
  H  H564  1  0.819500  0.046300  0.106300  1.0
  H  H565  1  0.893700  0.319500  0.453700  1.0
  H  H566  1  0.393700  0.180500  0.546300  1.0
  H  H567  1  0.606300  0.680500  0.953700  1.0
  H  H568  1  0.106300  0.819500  0.046300  1.0
  H  H569  1  0.453700  0.893700  0.319500  1.0
  H  H570  1  0.546300  0.393700  0.180500  1.0
  H  H571  1  0.953700  0.606300  0.680500  1.0
  H  H572  1  0.046300  0.106300  0.819500  1.0
  H  H573  1  0.680500  0.546300  0.106300  1.0
  H  H574  1  0.819500  0.453700  0.606300  1.0
  H  H575  1  0.319500  0.046300  0.393700  1.0
  H  H576  1  0.180500  0.953700  0.893700  1.0
  H  H577  1  0.106300  0.680500  0.546300  1.0
  H  H578  1  0.606300  0.819500  0.453700  1.0
  H  H579  1  0.393700  0.319500  0.046300  1.0
  H  H580  1  0.893700  0.180500  0.953700  1.0
  H  H581  1  0.546300  0.106300  0.680500  1.0
  H  H582  1  0.453700  0.606300  0.819500  1.0
  H  H583  1  0.046300  0.393700  0.319500  1.0
  H  H584  1  0.953700  0.893700  0.180500  1.0
  H  H585  1  0.345400  0.395500  0.898900  1.0
  H  H586  1  0.154600  0.604500  0.398900  1.0
  H  H587  1  0.654600  0.895500  0.601100  1.0
  H  H588  1  0.845400  0.104500  0.101100  1.0
  H  H589  1  0.898900  0.345400  0.395500  1.0
  H  H590  1  0.398900  0.154600  0.604500  1.0
  H  H591  1  0.601100  0.654600  0.895500  1.0
  H  H592  1  0.101100  0.845400  0.104500  1.0
  H  H593  1  0.395500  0.898900  0.345400  1.0
  H  H594  1  0.604500  0.398900  0.154600  1.0
  H  H595  1  0.895500  0.601100  0.654600  1.0
  H  H596  1  0.104500  0.101100  0.845400  1.0
  H  H597  1  0.654600  0.604500  0.101100  1.0
  H  H598  1  0.845400  0.395500  0.601100  1.0
  H  H599  1  0.345400  0.104500  0.398900  1.0
  H  H600  1  0.154600  0.895500  0.898900  1.0
  H  H601  1  0.101100  0.654600  0.604500  1.0
  H  H602  1  0.601100  0.845400  0.395500  1.0
  H  H603  1  0.398900  0.345400  0.104500  1.0
  H  H604  1  0.898900  0.154600  0.895500  1.0
  H  H605  1  0.604500  0.101100  0.654600  1.0
  H  H606  1  0.395500  0.601100  0.845400  1.0
  H  H607  1  0.104500  0.398900  0.345400  1.0
  H  H608  1  0.895500  0.898900  0.154600  1.0
  H  H609  1  0.378000  0.454800  0.965300  1.0
  H  H610  1  0.122000  0.545200  0.465300  1.0
  H  H611  1  0.622000  0.954800  0.534700  1.0
  H  H612  1  0.878000  0.045200  0.034700  1.0
  H  H613  1  0.965300  0.378000  0.454800  1.0
  H  H614  1  0.465300  0.122000  0.545200  1.0
  H  H615  1  0.534700  0.622000  0.954800  1.0
  H  H616  1  0.034700  0.878000  0.045200  1.0
  H  H617  1  0.454800  0.965300  0.378000  1.0
  H  H618  1  0.545200  0.465300  0.122000  1.0
  H  H619  1  0.954800  0.534700  0.622000  1.0
  H  H620  1  0.045200  0.034700  0.878000  1.0
  H  H621  1  0.622000  0.545200  0.034700  1.0
  H  H622  1  0.878000  0.454800  0.534700  1.0
  H  H623  1  0.378000  0.045200  0.465300  1.0
  H  H624  1  0.122000  0.954800  0.965300  1.0
  H  H625  1  0.034700  0.622000  0.545200  1.0
  H  H626  1  0.534700  0.878000  0.454800  1.0
  H  H627  1  0.465300  0.378000  0.045200  1.0
  H  H628  1  0.965300  0.122000  0.954800  1.0
  H  H629  1  0.545200  0.034700  0.622000  1.0
  H  H630  1  0.454800  0.534700  0.878000  1.0
  H  H631  1  0.045200  0.465300  0.378000  1.0
  H  H632  1  0.954800  0.965300  0.122000  1.0
  H  H633  1  0.350000  0.403400  0.990800  1.0
  H  H634  1  0.150000  0.596600  0.490800  1.0
  H  H635  1  0.650000  0.903400  0.509200  1.0
  H  H636  1  0.850000  0.096600  0.009200  1.0
  H  H637  1  0.990800  0.350000  0.403400  1.0
  H  H638  1  0.490800  0.150000  0.596600  1.0
  H  H639  1  0.509200  0.650000  0.903400  1.0
  H  H640  1  0.009200  0.850000  0.096600  1.0
  H  H641  1  0.403400  0.990800  0.350000  1.0
  H  H642  1  0.596600  0.490800  0.150000  1.0
  H  H643  1  0.903400  0.509200  0.650000  1.0
  H  H644  1  0.096600  0.009200  0.850000  1.0
  H  H645  1  0.650000  0.596600  0.009200  1.0
  H  H646  1  0.850000  0.403400  0.509200  1.0
  H  H647  1  0.350000  0.096600  0.490800  1.0
  H  H648  1  0.150000  0.903400  0.990800  1.0
  H  H649  1  0.009200  0.650000  0.596600  1.0
  H  H650  1  0.509200  0.850000  0.403400  1.0
  H  H651  1  0.490800  0.350000  0.096600  1.0
  H  H652  1  0.990800  0.150000  0.903400  1.0
  H  H653  1  0.596600  0.009200  0.650000  1.0
  H  H654  1  0.403400  0.509200  0.850000  1.0
  H  H655  1  0.096600  0.490800  0.350000  1.0
  H  H656  1  0.903400  0.990800  0.150000  1.0
  H  H657  1  0.317500  0.477800  0.035700  1.0
  H  H658  1  0.182500  0.522200  0.535700  1.0
  H  H659  1  0.682500  0.977800  0.464300  1.0
  H  H660  1  0.817500  0.022200  0.964300  1.0
  H  H661  1  0.035700  0.317500  0.477800  1.0
  H  H662  1  0.535700  0.182500  0.522200  1.0
  H  H663  1  0.464300  0.682500  0.977800  1.0
  H  H664  1  0.964300  0.817500  0.022200  1.0
  H  H665  1  0.477800  0.035700  0.317500  1.0
  H  H666  1  0.522200  0.535700  0.182500  1.0
  H  H667  1  0.977800  0.464300  0.682500  1.0
  H  H668  1  0.022200  0.964300  0.817500  1.0
  H  H669  1  0.682500  0.522200  0.964300  1.0
  H  H670  1  0.817500  0.477800  0.464300  1.0
  H  H671  1  0.317500  0.022200  0.535700  1.0
  H  H672  1  0.182500  0.977800  0.035700  1.0
  H  H673  1  0.964300  0.682500  0.522200  1.0
  H  H674  1  0.464300  0.817500  0.477800  1.0
  H  H675  1  0.535700  0.317500  0.022200  1.0
  H  H676  1  0.035700  0.182500  0.977800  1.0
  H  H677  1  0.522200  0.964300  0.682500  1.0
  H  H678  1  0.477800  0.464300  0.817500  1.0
  H  H679  1  0.022200  0.535700  0.317500  1.0
  H  H680  1  0.977800  0.035700  0.182500  1.0
  H  H681  1  0.302600  0.506600  0.980700  1.0
  H  H682  1  0.197400  0.493400  0.480700  1.0
  H  H683  1  0.697400  0.006600  0.519300  1.0
  H  H684  1  0.802600  0.993400  0.019300  1.0
  H  H685  1  0.980700  0.302600  0.506600  1.0
  H  H686  1  0.480700  0.197400  0.493400  1.0
  H  H687  1  0.519300  0.697400  0.006600  1.0
  H  H688  1  0.019300  0.802600  0.993400  1.0
  H  H689  1  0.506600  0.980700  0.302600  1.0
  H  H690  1  0.493400  0.480700  0.197400  1.0
  H  H691  1  0.006600  0.519300  0.697400  1.0
  H  H692  1  0.993400  0.019300  0.802600  1.0
  H  H693  1  0.697400  0.493400  0.019300  1.0
  H  H694  1  0.802600  0.506600  0.519300  1.0
  H  H695  1  0.302600  0.993400  0.480700  1.0
  H  H696  1  0.197400  0.006600  0.980700  1.0
  H  H697  1  0.019300  0.697400  0.493400  1.0
  H  H698  1  0.519300  0.802600  0.506600  1.0
  H  H699  1  0.480700  0.302600  0.993400  1.0
  H  H700  1  0.980700  0.197400  0.006600  1.0
  H  H701  1  0.493400  0.019300  0.697400  1.0
  H  H702  1  0.506600  0.519300  0.802600  1.0
  H  H703  1  0.993400  0.480700  0.302600  1.0
  H  H704  1  0.006600  0.980700  0.197400  1.0
  H  H705  1  0.203600  0.336000  0.861900  1.0
  H  H706  1  0.296400  0.664000  0.361900  1.0
  H  H707  1  0.796400  0.836000  0.638100  1.0
  H  H708  1  0.703600  0.164000  0.138100  1.0
  H  H709  1  0.861900  0.203600  0.336000  1.0
  H  H710  1  0.361900  0.296400  0.664000  1.0
  H  H711  1  0.638100  0.796400  0.836000  1.0
  H  H712  1  0.138100  0.703600  0.164000  1.0
  H  H713  1  0.336000  0.861900  0.203600  1.0
  H  H714  1  0.664000  0.361900  0.296400  1.0
  H  H715  1  0.836000  0.638100  0.796400  1.0
  H  H716  1  0.164000  0.138100  0.703600  1.0
  H  H717  1  0.796400  0.664000  0.138100  1.0
  H  H718  1  0.703600  0.336000  0.638100  1.0
  H  H719  1  0.203600  0.164000  0.361900  1.0
  H  H720  1  0.296400  0.836000  0.861900  1.0
  H  H721  1  0.138100  0.796400  0.664000  1.0
  H  H722  1  0.638100  0.703600  0.336000  1.0
  H  H723  1  0.361900  0.203600  0.164000  1.0
  H  H724  1  0.861900  0.296400  0.836000  1.0
  H  H725  1  0.664000  0.138100  0.796400  1.0
  H  H726  1  0.336000  0.638100  0.703600  1.0
  H  H727  1  0.164000  0.361900  0.203600  1.0
  H  H728  1  0.836000  0.861900  0.296400  1.0
  H  H729  1  0.225800  0.650500  0.071400  1.0
  H  H730  1  0.274200  0.349500  0.571400  1.0
  H  H731  1  0.774200  0.150500  0.428600  1.0
  H  H732  1  0.725800  0.849500  0.928600  1.0
  H  H733  1  0.071400  0.225800  0.650500  1.0
  H  H734  1  0.571400  0.274200  0.349500  1.0
  H  H735  1  0.428600  0.774200  0.150500  1.0
  H  H736  1  0.928600  0.725800  0.849500  1.0
  H  H737  1  0.650500  0.071400  0.225800  1.0
  H  H738  1  0.349500  0.571400  0.274200  1.0
  H  H739  1  0.150500  0.428600  0.774200  1.0
  H  H740  1  0.849500  0.928600  0.725800  1.0
  H  H741  1  0.774200  0.349500  0.928600  1.0
  H  H742  1  0.725800  0.650500  0.428600  1.0
  H  H743  1  0.225800  0.849500  0.571400  1.0
  H  H744  1  0.274200  0.150500  0.071400  1.0
  H  H745  1  0.928600  0.774200  0.349500  1.0
  H  H746  1  0.428600  0.725800  0.650500  1.0
  H  H747  1  0.571400  0.225800  0.849500  1.0
  H  H748  1  0.071400  0.274200  0.150500  1.0
  H  H749  1  0.349500  0.928600  0.774200  1.0
  H  H750  1  0.650500  0.428600  0.725800  1.0
  H  H751  1  0.849500  0.571400  0.225800  1.0
  H  H752  1  0.150500  0.071400  0.274200  1.0
  H  H753  1  0.258000  0.669200  0.989500  1.0
  H  H754  1  0.242000  0.330800  0.489500  1.0
  H  H755  1  0.742000  0.169200  0.510500  1.0
  H  H756  1  0.758000  0.830800  0.010500  1.0
  H  H757  1  0.989500  0.258000  0.669200  1.0
  H  H758  1  0.489500  0.242000  0.330800  1.0
  H  H759  1  0.510500  0.742000  0.169200  1.0
  H  H760  1  0.010500  0.758000  0.830800  1.0
  H  H761  1  0.669200  0.989500  0.258000  1.0
  H  H762  1  0.330800  0.489500  0.242000  1.0
  H  H763  1  0.169200  0.510500  0.742000  1.0
  H  H764  1  0.830800  0.010500  0.758000  1.0
  H  H765  1  0.742000  0.330800  0.010500  1.0
  H  H766  1  0.758000  0.669200  0.510500  1.0
  H  H767  1  0.258000  0.830800  0.489500  1.0
  H  H768  1  0.242000  0.169200  0.989500  1.0
  H  H769  1  0.010500  0.742000  0.330800  1.0
  H  H770  1  0.510500  0.758000  0.669200  1.0
  H  H771  1  0.489500  0.258000  0.830800  1.0
  H  H772  1  0.989500  0.242000  0.169200  1.0
  H  H773  1  0.330800  0.010500  0.742000  1.0
  H  H774  1  0.669200  0.510500  0.758000  1.0
  H  H775  1  0.830800  0.489500  0.258000  1.0
  H  H776  1  0.169200  0.989500  0.242000  1.0
  H  H777  1  0.255300  0.390600  0.890800  1.0
  H  H778  1  0.244700  0.609400  0.390800  1.0
  H  H779  1  0.744700  0.890600  0.609200  1.0
  H  H780  1  0.755300  0.109400  0.109200  1.0
  H  H781  1  0.890800  0.255300  0.390600  1.0
  H  H782  1  0.390800  0.244700  0.609400  1.0
  H  H783  1  0.609200  0.744700  0.890600  1.0
  H  H784  1  0.109200  0.755300  0.109400  1.0
  H  H785  1  0.390600  0.890800  0.255300  1.0
  H  H786  1  0.609400  0.390800  0.244700  1.0
  H  H787  1  0.890600  0.609200  0.744700  1.0
  H  H788  1  0.109400  0.109200  0.755300  1.0
  H  H789  1  0.744700  0.609400  0.109200  1.0
  H  H790  1  0.755300  0.390600  0.609200  1.0
  H  H791  1  0.255300  0.109400  0.390800  1.0
  H  H792  1  0.244700  0.890600  0.890800  1.0
  H  H793  1  0.109200  0.744700  0.609400  1.0
  H  H794  1  0.609200  0.755300  0.390600  1.0
  H  H795  1  0.390800  0.255300  0.109400  1.0
  H  H796  1  0.890800  0.244700  0.890600  1.0
  H  H797  1  0.609400  0.109200  0.744700  1.0
  H  H798  1  0.390600  0.609200  0.755300  1.0
  H  H799  1  0.109400  0.390800  0.255300  1.0
  H  H800  1  0.890600  0.890800  0.244700  1.0
  C  C801  1  0.297100  0.568900  0.145100  1
  C  C802  1  0.202900  0.431100  0.645100  1
  C  C803  1  0.702900  0.068900  0.354900  1
  C  C804  1  0.797100  0.931100  0.854900  1
  C  C805  1  0.145100  0.297100  0.568900  1
  C  C806  1  0.645100  0.202900  0.431100  1
  C  C807  1  0.354900  0.702900  0.068900  1
  C  C808  1  0.854900  0.797100  0.931100  1
  C  C809  1  0.568900  0.145100  0.297100  1
  C  C810  1  0.431100  0.645100  0.202900  1
  C  C811  1  0.068900  0.354900  0.702900  1
  C  C812  1  0.931100  0.854900  0.797100  1
  C  C813  1  0.702900  0.431100  0.854900  1
  C  C814  1  0.797100  0.568900  0.354900  1
  C  C815  1  0.297100  0.931100  0.645100  1
  C  C816  1  0.202900  0.068900  0.145100  1
  C  C817  1  0.854900  0.702900  0.431100  1
  C  C818  1  0.354900  0.797100  0.568900  1
  C  C819  1  0.645100  0.297100  0.931100  1
  C  C820  1  0.145100  0.202900  0.068900  1
  C  C821  1  0.431100  0.854900  0.702900  1
  C  C822  1  0.568900  0.354900  0.797100  1
  C  C823  1  0.931100  0.645100  0.297100  1
  C  C824  1  0.068900  0.145100  0.202900  1
  C  C825  1  0.140380  0.527270  0.963130  1.0
  C  C826  1  0.359620  0.472730  0.463130  1.0
  C  C827  1  0.859620  0.027270  0.536870  1.0
  C  C828  1  0.640380  0.972730  0.036870  1.0
  C  C829  1  0.963130  0.140380  0.527270  1.0
  C  C830  1  0.463130  0.359620  0.472730  1.0
  C  C831  1  0.536870  0.859620  0.027270  1.0
  C  C832  1  0.036870  0.640380  0.972730  1.0
  C  C833  1  0.527270  0.963130  0.140380  1.0
  C  C834  1  0.472730  0.463130  0.359620  1.0
  C  C835  1  0.027270  0.536870  0.859620  1.0
  C  C836  1  0.972730  0.036870  0.640380  1.0
  C  C837  1  0.859620  0.472730  0.036870  1.0
  C  C838  1  0.640380  0.527270  0.536870  1.0
  C  C839  1  0.140380  0.972730  0.463130  1.0
  C  C840  1  0.359620  0.027270  0.963130  1.0
  C  C841  1  0.036870  0.859620  0.472730  1.0
  C  C842  1  0.536870  0.640380  0.527270  1.0
  C  C843  1  0.463130  0.140380  0.972730  1.0
  C  C844  1  0.963130  0.359620  0.027270  1.0
  C  C845  1  0.472730  0.036870  0.859620  1.0
  C  C846  1  0.527270  0.536870  0.640380  1.0
  C  C847  1  0.972730  0.463130  0.140380  1.0
  C  C848  1  0.027270  0.963130  0.359620  1.0
  C  C849  1  0.188790  0.658320  0.954710  1.0
  C  C850  1  0.311210  0.341680  0.454710  1.0
  C  C851  1  0.811210  0.158320  0.545290  1.0
  C  C852  1  0.688790  0.841680  0.045290  1.0
  C  C853  1  0.954710  0.188790  0.658320  1.0
  C  C854  1  0.454710  0.311210  0.341680  1.0
  C  C855  1  0.545290  0.811210  0.158320  1.0
  C  C856  1  0.045290  0.688790  0.841680  1.0
  C  C857  1  0.658320  0.954710  0.188790  1.0
  C  C858  1  0.341680  0.454710  0.311210  1.0
  C  C859  1  0.158320  0.545290  0.811210  1.0
  C  C860  1  0.841680  0.045290  0.688790  1.0
  C  C861  1  0.811210  0.341680  0.045290  1.0
  C  C862  1  0.688790  0.658320  0.545290  1.0
  C  C863  1  0.188790  0.841680  0.454710  1.0
  C  C864  1  0.311210  0.158320  0.954710  1.0
  C  C865  1  0.045290  0.811210  0.341680  1.0
  C  C866  1  0.545290  0.688790  0.658320  1.0
  C  C867  1  0.454710  0.188790  0.841680  1.0
  C  C868  1  0.954710  0.311210  0.158320  1.0
  C  C869  1  0.341680  0.045290  0.811210  1.0
  C  C870  1  0.658320  0.545290  0.688790  1.0
  C  C871  1  0.841680  0.454710  0.188790  1.0
  C  C872  1  0.158320  0.954710  0.311210  1.0
  C  C873  1  0.229260  0.571730  0.061000  1.0
  C  C874  1  0.270740  0.428270  0.561000  1.0
  C  C875  1  0.770740  0.071730  0.439000  1.0
  C  C876  1  0.729260  0.928270  0.939000  1.0
  C  C877  1  0.061000  0.229260  0.571730  1.0
  C  C878  1  0.561000  0.270740  0.428270  1.0
  C  C879  1  0.439000  0.770740  0.071730  1.0
  C  C880  1  0.939000  0.729260  0.928270  1.0
  C  C881  1  0.571730  0.061000  0.229260  1.0
  C  C882  1  0.428270  0.561000  0.270740  1.0
  C  C883  1  0.071730  0.439000  0.770740  1.0
  C  C884  1  0.928270  0.939000  0.729260  1.0
  C  C885  1  0.770740  0.428270  0.939000  1.0
  C  C886  1  0.729260  0.571730  0.439000  1.0
  C  C887  1  0.229260  0.928270  0.561000  1.0
  C  C888  1  0.270740  0.071730  0.061000  1.0
  C  C889  1  0.939000  0.770740  0.428270  1.0
  C  C890  1  0.439000  0.729260  0.571730  1.0
  C  C891  1  0.561000  0.229260  0.928270  1.0
  C  C892  1  0.061000  0.270740  0.071730  1.0
  C  C893  1  0.428270  0.939000  0.770740  1.0
  C  C894  1  0.571730  0.439000  0.729260  1.0
  C  C895  1  0.928270  0.561000  0.229260  1.0
  C  C896  1  0.071730  0.061000  0.270740  1.0
  C  C897  1  0.179550  0.603990  0.973170  1.0
  C  C898  1  0.320450  0.396010  0.473170  1.0
  C  C899  1  0.820450  0.103990  0.526830  1.0
  C  C900  1  0.679550  0.896010  0.026830  1.0
  C  C901  1  0.973170  0.179550  0.603990  1.0
  C  C902  1  0.473170  0.320450  0.396010  1.0
  C  C903  1  0.526830  0.820450  0.103990  1.0
  C  C904  1  0.026830  0.679550  0.896010  1.0
  C  C905  1  0.603990  0.973170  0.179550  1.0
  C  C906  1  0.396010  0.473170  0.320450  1.0
  C  C907  1  0.103990  0.526830  0.820450  1.0
  C  C908  1  0.896010  0.026830  0.679550  1.0
  C  C909  1  0.820450  0.396010  0.026830  1.0
  C  C910  1  0.679550  0.603990  0.526830  1.0
  C  C911  1  0.179550  0.896010  0.473170  1.0
  C  C912  1  0.320450  0.103990  0.973170  1.0
  C  C913  1  0.026830  0.820450  0.396010  1.0
  C  C914  1  0.526830  0.679550  0.603990  1.0
  C  C915  1  0.473170  0.179550  0.896010  1.0
  C  C916  1  0.973170  0.320450  0.103990  1.0
  C  C917  1  0.396010  0.026830  0.820450  1.0
  C  C918  1  0.603990  0.526830  0.679550  1.0
  C  C919  1  0.896010  0.473170  0.179550  1.0
  C  C920  1  0.103990  0.973170  0.320450  1.0
  C  C921  1  0.196650  0.570300  0.013040  1.0
  C  C922  1  0.303350  0.429700  0.513040  1.0
  C  C923  1  0.803350  0.070300  0.486960  1.0
  C  C924  1  0.696650  0.929700  0.986960  1.0
  C  C925  1  0.013040  0.196650  0.570300  1.0
  C  C926  1  0.513040  0.303350  0.429700  1.0
  C  C927  1  0.486960  0.803350  0.070300  1.0
  C  C928  1  0.986960  0.696650  0.929700  1.0
  C  C929  1  0.570300  0.013040  0.196650  1.0
  C  C930  1  0.429700  0.513040  0.303350  1.0
  C  C931  1  0.070300  0.486960  0.803350  1.0
  C  C932  1  0.929700  0.986960  0.696650  1.0
  C  C933  1  0.803350  0.429700  0.986960  1.0
  C  C934  1  0.696650  0.570300  0.486960  1.0
  C  C935  1  0.196650  0.929700  0.513040  1.0
  C  C936  1  0.303350  0.070300  0.013040  1.0
  C  C937  1  0.986960  0.803350  0.429700  1.0
  C  C938  1  0.486960  0.696650  0.570300  1.0
  C  C939  1  0.513040  0.196650  0.929700  1.0
  C  C940  1  0.013040  0.303350  0.070300  1.0
  C  C941  1  0.429700  0.986960  0.803350  1.0
  C  C942  1  0.570300  0.486960  0.696650  1.0
  C  C943  1  0.929700  0.513040  0.196650  1.0
  C  C944  1  0.070300  0.013040  0.303350  1.0
  C  C945  1  0.265780  0.522080  0.133530  1.0
  C  C946  1  0.234220  0.477920  0.633530  1.0
  C  C947  1  0.734220  0.022080  0.366470  1.0
  C  C948  1  0.765780  0.977920  0.866470  1.0
  C  C949  1  0.133530  0.265780  0.522080  1.0
  C  C950  1  0.633530  0.234220  0.477920  1.0
  C  C951  1  0.366470  0.734220  0.022080  1.0
  C  C952  1  0.866470  0.765780  0.977920  1.0
  C  C953  1  0.522080  0.133530  0.265780  1.0
  C  C954  1  0.477920  0.633530  0.234220  1.0
  C  C955  1  0.022080  0.366470  0.734220  1.0
  C  C956  1  0.977920  0.866470  0.765780  1.0
  C  C957  1  0.734220  0.477920  0.866470  1.0
  C  C958  1  0.765780  0.522080  0.366470  1.0
  C  C959  1  0.265780  0.977920  0.633530  1.0
  C  C960  1  0.234220  0.022080  0.133530  1.0
  C  C961  1  0.866470  0.734220  0.477920  1.0
  C  C962  1  0.366470  0.765780  0.522080  1.0
  C  C963  1  0.633530  0.265780  0.977920  1.0
  C  C964  1  0.133530  0.234220  0.022080  1.0
  C  C965  1  0.477920  0.866470  0.734220  1.0
  C  C966  1  0.522080  0.366470  0.765780  1.0
  C  C967  1  0.977920  0.633530  0.265780  1.0
  C  C968  1  0.022080  0.133530  0.234220  1.0
  C  C969  1  0.230940  0.744850  0.964070  1.0
  C  C970  1  0.269060  0.255150  0.464070  1.0
  C  C971  1  0.769060  0.244850  0.535930  1.0
  C  C972  1  0.730940  0.755150  0.035930  1.0
  C  C973  1  0.964070  0.230940  0.744850  1.0
  C  C974  1  0.464070  0.269060  0.255150  1.0
  C  C975  1  0.535930  0.769060  0.244850  1.0
  C  C976  1  0.035930  0.730940  0.755150  1.0
  C  C977  1  0.744850  0.964070  0.230940  1.0
  C  C978  1  0.255150  0.464070  0.269060  1.0
  C  C979  1  0.244850  0.535930  0.769060  1.0
  C  C980  1  0.755150  0.035930  0.730940  1.0
  C  C981  1  0.769060  0.255150  0.035930  1.0
  C  C982  1  0.730940  0.744850  0.535930  1.0
  C  C983  1  0.230940  0.755150  0.464070  1.0
  C  C984  1  0.269060  0.244850  0.964070  1.0
  C  C985  1  0.035930  0.769060  0.255150  1.0
  C  C986  1  0.535930  0.730940  0.744850  1.0
  C  C987  1  0.464070  0.230940  0.755150  1.0
  C  C988  1  0.964070  0.269060  0.244850  1.0
  C  C989  1  0.255150  0.035930  0.769060  1.0
  C  C990  1  0.744850  0.535930  0.730940  1.0
  C  C991  1  0.755150  0.464070  0.230940  1.0
  C  C992  1  0.244850  0.964070  0.269060  1.0
  C  C993  1  0.163430  0.727010  0.895070  1.0
  C  C994  1  0.336570  0.272990  0.395070  1.0
  C  C995  1  0.836570  0.227010  0.604930  1.0
  C  C996  1  0.663430  0.772990  0.104930  1.0
  C  C997  1  0.895070  0.163430  0.727010  1.0
  C  C998  1  0.395070  0.336570  0.272990  1.0
  C  C999  1  0.604930  0.836570  0.227010  1.0
  C  C1000  1  0.104930  0.663430  0.772990  1.0
  C  C1001  1  0.727010  0.895070  0.163430  1.0
  C  C1002  1  0.272990  0.395070  0.336570  1.0
  C  C1003  1  0.227010  0.604930  0.836570  1.0
  C  C1004  1  0.772990  0.104930  0.663430  1.0
  C  C1005  1  0.836570  0.272990  0.104930  1.0
  C  C1006  1  0.663430  0.727010  0.604930  1.0
  C  C1007  1  0.163430  0.772990  0.395070  1.0
  C  C1008  1  0.336570  0.227010  0.895070  1.0
  C  C1009  1  0.104930  0.836570  0.272990  1.0
  C  C1010  1  0.604930  0.663430  0.727010  1.0
  C  C1011  1  0.395070  0.163430  0.772990  1.0
  C  C1012  1  0.895070  0.336570  0.227010  1.0
  C  C1013  1  0.272990  0.104930  0.836570  1.0
  C  C1014  1  0.727010  0.604930  0.663430  1.0
  C  C1015  1  0.772990  0.395070  0.163430  1.0
  C  C1016  1  0.227010  0.895070  0.336570  1.0
  C  C1017  1  0.256600  0.573700  0.164700  1.0
  C  C1018  1  0.243400  0.426300  0.664700  1.0
  C  C1019  1  0.743400  0.073700  0.335300  1.0
  C  C1020  1  0.756600  0.926300  0.835300  1.0
  C  C1021  1  0.164700  0.256600  0.573700  1.0
  C  C1022  1  0.664700  0.243400  0.426300  1.0
  C  C1023  1  0.335300  0.743400  0.073700  1.0
  C  C1024  1  0.835300  0.756600  0.926300  1.0
  C  C1025  1  0.573700  0.164700  0.256600  1.0
  C  C1026  1  0.426300  0.664700  0.243400  1.0
  C  C1027  1  0.073700  0.335300  0.743400  1.0
  C  C1028  1  0.926300  0.835300  0.756600  1.0
  C  C1029  1  0.743400  0.426300  0.835300  1.0
  C  C1030  1  0.756600  0.573700  0.335300  1.0
  C  C1031  1  0.256600  0.926300  0.664700  1.0
  C  C1032  1  0.243400  0.073700  0.164700  1.0
  C  C1033  1  0.835300  0.743400  0.426300  1.0
  C  C1034  1  0.335300  0.756600  0.573700  1.0
  C  C1035  1  0.664700  0.256600  0.926300  1.0
  C  C1036  1  0.164700  0.243400  0.073700  1.0
  C  C1037  1  0.426300  0.835300  0.743400  1.0
  C  C1038  1  0.573700  0.335300  0.756600  1.0
  C  C1039  1  0.926300  0.664700  0.256600  1.0
  C  C1040  1  0.073700  0.164700  0.243400  1.0
  C  C1041  1  0.272600  0.619730  0.132800  1.0
  C  C1042  1  0.227400  0.380270  0.632800  1.0
  C  C1043  1  0.727400  0.119730  0.367200  1.0
  C  C1044  1  0.772600  0.880270  0.867200  1.0
  C  C1045  1  0.132800  0.272600  0.619730  1.0
  C  C1046  1  0.632800  0.227400  0.380270  1.0
  C  C1047  1  0.367200  0.727400  0.119730  1.0
  C  C1048  1  0.867200  0.772600  0.880270  1.0
  C  C1049  1  0.619730  0.132800  0.272600  1.0
  C  C1050  1  0.380270  0.632800  0.227400  1.0
  C  C1051  1  0.119730  0.367200  0.727400  1.0
  C  C1052  1  0.880270  0.867200  0.772600  1.0
  C  C1053  1  0.727400  0.380270  0.867200  1.0
  C  C1054  1  0.772600  0.619730  0.367200  1.0
  C  C1055  1  0.272600  0.880270  0.632800  1.0
  C  C1056  1  0.227400  0.119730  0.132800  1.0
  C  C1057  1  0.867200  0.727400  0.380270  1.0
  C  C1058  1  0.367200  0.772600  0.619730  1.0
  C  C1059  1  0.632800  0.272600  0.880270  1.0
  C  C1060  1  0.132800  0.227400  0.119730  1.0
  C  C1061  1  0.380270  0.867200  0.727400  1.0
  C  C1062  1  0.619730  0.367200  0.772600  1.0
  C  C1063  1  0.880270  0.632800  0.272600  1.0
  C  C1064  1  0.119730  0.132800  0.227400  1.0
  C  C1065  1  0.180000  0.763560  0.939900  1.0
  C  C1066  1  0.320000  0.236440  0.439900  1.0
  C  C1067  1  0.820000  0.263560  0.560100  1.0
  C  C1068  1  0.680000  0.736440  0.060100  1.0
  C  C1069  1  0.939900  0.180000  0.763560  1.0
  C  C1070  1  0.439900  0.320000  0.236440  1.0
  C  C1071  1  0.560100  0.820000  0.263560  1.0
  C  C1072  1  0.060100  0.680000  0.736440  1.0
  C  C1073  1  0.763560  0.939900  0.180000  1.0
  C  C1074  1  0.236440  0.439900  0.320000  1.0
  C  C1075  1  0.263560  0.560100  0.820000  1.0
  C  C1076  1  0.736440  0.060100  0.680000  1.0
  C  C1077  1  0.820000  0.236440  0.060100  1.0
  C  C1078  1  0.680000  0.763560  0.560100  1.0
  C  C1079  1  0.180000  0.736440  0.439900  1.0
  C  C1080  1  0.320000  0.263560  0.939900  1.0
  C  C1081  1  0.060100  0.820000  0.236440  1.0
  C  C1082  1  0.560100  0.680000  0.763560  1.0
  C  C1083  1  0.439900  0.180000  0.736440  1.0
  C  C1084  1  0.939900  0.320000  0.263560  1.0
  C  C1085  1  0.236440  0.060100  0.820000  1.0
  C  C1086  1  0.763560  0.560100  0.680000  1.0
  C  C1087  1  0.736440  0.439900  0.180000  1.0
  C  C1088  1  0.263560  0.939900  0.320000  1.0
  C  C1089  1  0.147230  0.356410  0.948190  1.0
  C  C1090  1  0.352770  0.643590  0.448190  1.0
  C  C1091  1  0.852770  0.856410  0.551810  1.0
  C  C1092  1  0.647230  0.143590  0.051810  1.0
  C  C1093  1  0.948190  0.147230  0.356410  1.0
  C  C1094  1  0.448190  0.352770  0.643590  1.0
  C  C1095  1  0.551810  0.852770  0.856410  1.0
  C  C1096  1  0.051810  0.647230  0.143590  1.0
  C  C1097  1  0.356410  0.948190  0.147230  1.0
  C  C1098  1  0.643590  0.448190  0.352770  1.0
  C  C1099  1  0.856410  0.551810  0.852770  1.0
  C  C1100  1  0.143590  0.051810  0.647230  1.0
  C  C1101  1  0.852770  0.643590  0.051810  1.0
  C  C1102  1  0.647230  0.356410  0.551810  1.0
  C  C1103  1  0.147230  0.143590  0.448190  1.0
  C  C1104  1  0.352770  0.856410  0.948190  1.0
  C  C1105  1  0.051810  0.852770  0.643590  1.0
  C  C1106  1  0.551810  0.647230  0.356410  1.0
  C  C1107  1  0.448190  0.147230  0.143590  1.0
  C  C1108  1  0.948190  0.352770  0.856410  1.0
  C  C1109  1  0.643590  0.051810  0.852770  1.0
  C  C1110  1  0.356410  0.551810  0.647230  1.0
  C  C1111  1  0.143590  0.448190  0.147230  1.0
  C  C1112  1  0.856410  0.948190  0.352770  1.0
  C  C1113  1  0.144430  0.313680  0.907910  1.0
  C  C1114  1  0.355570  0.686320  0.407910  1.0
  C  C1115  1  0.855570  0.813680  0.592090  1.0
  C  C1116  1  0.644430  0.186320  0.092090  1.0
  C  C1117  1  0.907910  0.144430  0.313680  1.0
  C  C1118  1  0.407910  0.355570  0.686320  1.0
  C  C1119  1  0.592090  0.855570  0.813680  1.0
  C  C1120  1  0.092090  0.644430  0.186320  1.0
  C  C1121  1  0.313680  0.907910  0.144430  1.0
  C  C1122  1  0.686320  0.407910  0.355570  1.0
  C  C1123  1  0.813680  0.592090  0.855570  1.0
  C  C1124  1  0.186320  0.092090  0.644430  1.0
  C  C1125  1  0.855570  0.686320  0.092090  1.0
  C  C1126  1  0.644430  0.313680  0.592090  1.0
  C  C1127  1  0.144430  0.186320  0.407910  1.0
  C  C1128  1  0.355570  0.813680  0.907910  1.0
  C  C1129  1  0.092090  0.855570  0.686320  1.0
  C  C1130  1  0.592090  0.644430  0.313680  1.0
  C  C1131  1  0.407910  0.144430  0.186320  1.0
  C  C1132  1  0.907910  0.355570  0.813680  1.0
  C  C1133  1  0.686320  0.092090  0.855570  1.0
  C  C1134  1  0.313680  0.592090  0.644430  1.0
  C  C1135  1  0.186320  0.407910  0.144430  1.0
  C  C1136  1  0.813680  0.907910  0.355570  1.0
  C  C1137  1  0.236540  0.333520  0.181790  1.0
  C  C1138  1  0.263460  0.666480  0.681790  1.0
  C  C1139  1  0.763460  0.833520  0.318210  1.0
  C  C1140  1  0.736540  0.166480  0.818210  1.0
  C  C1141  1  0.181790  0.236540  0.333520  1.0
  C  C1142  1  0.681790  0.263460  0.666480  1.0
  C  C1143  1  0.318210  0.763460  0.833520  1.0
  C  C1144  1  0.818210  0.736540  0.166480  1.0
  C  C1145  1  0.333520  0.181790  0.236540  1.0
  C  C1146  1  0.666480  0.681790  0.263460  1.0
  C  C1147  1  0.833520  0.318210  0.763460  1.0
  C  C1148  1  0.166480  0.818210  0.736540  1.0
  C  C1149  1  0.763460  0.666480  0.818210  1.0
  C  C1150  1  0.736540  0.333520  0.318210  1.0
  C  C1151  1  0.236540  0.166480  0.681790  1.0
  C  C1152  1  0.263460  0.833520  0.181790  1.0
  C  C1153  1  0.818210  0.763460  0.666480  1.0
  C  C1154  1  0.318210  0.736540  0.333520  1.0
  C  C1155  1  0.681790  0.236540  0.166480  1.0
  C  C1156  1  0.181790  0.263460  0.833520  1.0
  C  C1157  1  0.666480  0.818210  0.763460  1.0
  C  C1158  1  0.333520  0.318210  0.736540  1.0
  C  C1159  1  0.166480  0.681790  0.236540  1.0
  C  C1160  1  0.833520  0.181790  0.263460  1.0
  C  C1161  1  0.265130  0.379480  0.099210  1.0
  C  C1162  1  0.234870  0.620520  0.599210  1.0
  C  C1163  1  0.734870  0.879480  0.400790  1.0
  C  C1164  1  0.765130  0.120520  0.900790  1.0
  C  C1165  1  0.099210  0.265130  0.379480  1.0
  C  C1166  1  0.599210  0.234870  0.620520  1.0
  C  C1167  1  0.400790  0.734870  0.879480  1.0
  C  C1168  1  0.900790  0.765130  0.120520  1.0
  C  C1169  1  0.379480  0.099210  0.265130  1.0
  C  C1170  1  0.620520  0.599210  0.234870  1.0
  C  C1171  1  0.879480  0.400790  0.734870  1.0
  C  C1172  1  0.120520  0.900790  0.765130  1.0
  C  C1173  1  0.734870  0.620520  0.900790  1.0
  C  C1174  1  0.765130  0.379480  0.400790  1.0
  C  C1175  1  0.265130  0.120520  0.599210  1.0
  C  C1176  1  0.234870  0.879480  0.099210  1.0
  C  C1177  1  0.900790  0.734870  0.620520  1.0
  C  C1178  1  0.400790  0.765130  0.379480  1.0
  C  C1179  1  0.599210  0.265130  0.120520  1.0
  C  C1180  1  0.099210  0.234870  0.879480  1.0
  C  C1181  1  0.620520  0.900790  0.734870  1.0
  C  C1182  1  0.379480  0.400790  0.765130  1.0
  C  C1183  1  0.120520  0.599210  0.265130  1.0
  C  C1184  1  0.879480  0.099210  0.234870  1.0
  C  C1185  1  0.282720  0.359480  0.153710  1.0
  C  C1186  1  0.217280  0.640520  0.653710  1.0
  C  C1187  1  0.717280  0.859480  0.346290  1.0
  C  C1188  1  0.782720  0.140520  0.846290  1.0
  C  C1189  1  0.153710  0.282720  0.359480  1.0
  C  C1190  1  0.653710  0.217280  0.640520  1.0
  C  C1191  1  0.346290  0.717280  0.859480  1.0
  C  C1192  1  0.846290  0.782720  0.140520  1.0
  C  C1193  1  0.359480  0.153710  0.282720  1.0
  C  C1194  1  0.640520  0.653710  0.217280  1.0
  C  C1195  1  0.859480  0.346290  0.717280  1.0
  C  C1196  1  0.140520  0.846290  0.782720  1.0
  C  C1197  1  0.717280  0.640520  0.846290  1.0
  C  C1198  1  0.782720  0.359480  0.346290  1.0
  C  C1199  1  0.282720  0.140520  0.653710  1.0
  C  C1200  1  0.217280  0.859480  0.153710  1.0
  C  C1201  1  0.846290  0.717280  0.640520  1.0
  C  C1202  1  0.346290  0.782720  0.359480  1.0
  C  C1203  1  0.653710  0.282720  0.140520  1.0
  C  C1204  1  0.153710  0.217280  0.859480  1.0
  C  C1205  1  0.640520  0.846290  0.717280  1.0
  C  C1206  1  0.359480  0.346290  0.782720  1.0
  C  C1207  1  0.140520  0.653710  0.282720  1.0
  C  C1208  1  0.859480  0.153710  0.217280  1.0
  C  C1209  1  0.109360  0.394240  0.016540  1.0
  C  C1210  1  0.390640  0.605760  0.516540  1.0
  C  C1211  1  0.890640  0.894240  0.483460  1.0
  C  C1212  1  0.609360  0.105760  0.983460  1.0
  C  C1213  1  0.016540  0.109360  0.394240  1.0
  C  C1214  1  0.516540  0.390640  0.605760  1.0
  C  C1215  1  0.483460  0.890640  0.894240  1.0
  C  C1216  1  0.983460  0.609360  0.105760  1.0
  C  C1217  1  0.394240  0.016540  0.109360  1.0
  C  C1218  1  0.605760  0.516540  0.390640  1.0
  C  C1219  1  0.894240  0.483460  0.890640  1.0
  C  C1220  1  0.105760  0.983460  0.609360  1.0
  C  C1221  1  0.890640  0.605760  0.983460  1.0
  C  C1222  1  0.609360  0.394240  0.483460  1.0
  C  C1223  1  0.109360  0.105760  0.516540  1.0
  C  C1224  1  0.390640  0.894240  0.016540  1.0
  C  C1225  1  0.983460  0.890640  0.605760  1.0
  C  C1226  1  0.483460  0.609360  0.394240  1.0
  C  C1227  1  0.516540  0.109360  0.105760  1.0
  C  C1228  1  0.016540  0.390640  0.894240  1.0
  C  C1229  1  0.605760  0.983460  0.890640  1.0
  C  C1230  1  0.394240  0.483460  0.609360  1.0
  C  C1231  1  0.105760  0.516540  0.109360  1.0
  C  C1232  1  0.894240  0.016540  0.390640  1.0
  C  C1233  1  0.182560  0.393260  0.969270  1.0
  C  C1234  1  0.317440  0.606740  0.469270  1.0
  C  C1235  1  0.817440  0.893260  0.530730  1.0
  C  C1236  1  0.682560  0.106740  0.030730  1.0
  C  C1237  1  0.969270  0.182560  0.393260  1.0
  C  C1238  1  0.469270  0.317440  0.606740  1.0
  C  C1239  1  0.530730  0.817440  0.893260  1.0
  C  C1240  1  0.030730  0.682560  0.106740  1.0
  C  C1241  1  0.393260  0.969270  0.182560  1.0
  C  C1242  1  0.606740  0.469270  0.317440  1.0
  C  C1243  1  0.893260  0.530730  0.817440  1.0
  C  C1244  1  0.106740  0.030730  0.682560  1.0
  C  C1245  1  0.817440  0.606740  0.030730  1.0
  C  C1246  1  0.682560  0.393260  0.530730  1.0
  C  C1247  1  0.182560  0.106740  0.469270  1.0
  C  C1248  1  0.317440  0.893260  0.969270  1.0
  C  C1249  1  0.030730  0.817440  0.606740  1.0
  C  C1250  1  0.530730  0.682560  0.393260  1.0
  C  C1251  1  0.469270  0.182560  0.106740  1.0
  C  C1252  1  0.969270  0.317440  0.893260  1.0
  C  C1253  1  0.606740  0.030730  0.817440  1.0
  C  C1254  1  0.393260  0.530730  0.682560  1.0
  C  C1255  1  0.106740  0.469270  0.182560  1.0
  C  C1256  1  0.893260  0.969270  0.317440  1.0
  C  C1257  1  0.237210  0.414030  0.962890  1.0
  C  C1258  1  0.262790  0.585970  0.462890  1.0
  C  C1259  1  0.762790  0.914030  0.537110  1.0
  C  C1260  1  0.737210  0.085970  0.037110  1.0
  C  C1261  1  0.962890  0.237210  0.414030  1.0
  C  C1262  1  0.462890  0.262790  0.585970  1.0
  C  C1263  1  0.537110  0.762790  0.914030  1.0
  C  C1264  1  0.037110  0.737210  0.085970  1.0
  C  C1265  1  0.414030  0.962890  0.237210  1.0
  C  C1266  1  0.585970  0.462890  0.262790  1.0
  C  C1267  1  0.914030  0.537110  0.762790  1.0
  C  C1268  1  0.085970  0.037110  0.737210  1.0
  C  C1269  1  0.762790  0.585970  0.037110  1.0
  C  C1270  1  0.737210  0.414030  0.537110  1.0
  C  C1271  1  0.237210  0.085970  0.462890  1.0
  C  C1272  1  0.262790  0.914030  0.962890  1.0
  C  C1273  1  0.037110  0.762790  0.585970  1.0
  C  C1274  1  0.537110  0.737210  0.414030  1.0
  C  C1275  1  0.462890  0.237210  0.085970  1.0
  C  C1276  1  0.962890  0.262790  0.914030  1.0
  C  C1277  1  0.585970  0.037110  0.762790  1.0
  C  C1278  1  0.414030  0.537110  0.737210  1.0
  C  C1279  1  0.085970  0.462890  0.237210  1.0
  C  C1280  1  0.914030  0.962890  0.262790  1.0
  C  C1281  1  0.321590  0.421540  0.916450  1.0
  C  C1282  1  0.178410  0.578460  0.416450  1.0
  C  C1283  1  0.678410  0.921540  0.583550  1.0
  C  C1284  1  0.821590  0.078460  0.083550  1.0
  C  C1285  1  0.916450  0.321590  0.421540  1.0
  C  C1286  1  0.416450  0.178410  0.578460  1.0
  C  C1287  1  0.583550  0.678410  0.921540  1.0
  C  C1288  1  0.083550  0.821590  0.078460  1.0
  C  C1289  1  0.421540  0.916450  0.321590  1.0
  C  C1290  1  0.578460  0.416450  0.178410  1.0
  C  C1291  1  0.921540  0.583550  0.678410  1.0
  C  C1292  1  0.078460  0.083550  0.821590  1.0
  C  C1293  1  0.678410  0.578460  0.083550  1.0
  C  C1294  1  0.821590  0.421540  0.583550  1.0
  C  C1295  1  0.321590  0.078460  0.416450  1.0
  C  C1296  1  0.178410  0.921540  0.916450  1.0
  C  C1297  1  0.083550  0.678410  0.578460  1.0
  C  C1298  1  0.583550  0.821590  0.421540  1.0
  C  C1299  1  0.416450  0.321590  0.078460  1.0
  C  C1300  1  0.916450  0.178410  0.921540  1.0
  C  C1301  1  0.578460  0.083550  0.678410  1.0
  C  C1302  1  0.421540  0.583550  0.821590  1.0
  C  C1303  1  0.078460  0.416450  0.321590  1.0
  C  C1304  1  0.921540  0.916450  0.178410  1.0
  C  C1305  1  0.343550  0.436100  0.969760  1.0
  C  C1306  1  0.156450  0.563900  0.469760  1.0
  C  C1307  1  0.656450  0.936100  0.530240  1.0
  C  C1308  1  0.843550  0.063900  0.030240  1.0
  C  C1309  1  0.969760  0.343550  0.436100  1.0
  C  C1310  1  0.469760  0.156450  0.563900  1.0
  C  C1311  1  0.530240  0.656450  0.936100  1.0
  C  C1312  1  0.030240  0.843550  0.063900  1.0
  C  C1313  1  0.436100  0.969760  0.343550  1.0
  C  C1314  1  0.563900  0.469760  0.156450  1.0
  C  C1315  1  0.936100  0.530240  0.656450  1.0
  C  C1316  1  0.063900  0.030240  0.843550  1.0
  C  C1317  1  0.656450  0.563900  0.030240  1.0
  C  C1318  1  0.843550  0.436100  0.530240  1.0
  C  C1319  1  0.343550  0.063900  0.469760  1.0
  C  C1320  1  0.156450  0.936100  0.969760  1.0
  C  C1321  1  0.030240  0.656450  0.563900  1.0
  C  C1322  1  0.530240  0.843550  0.436100  1.0
  C  C1323  1  0.469760  0.343550  0.063900  1.0
  C  C1324  1  0.969760  0.156450  0.936100  1.0
  C  C1325  1  0.563900  0.030240  0.656450  1.0
  C  C1326  1  0.436100  0.530240  0.843550  1.0
  C  C1327  1  0.063900  0.469760  0.343550  1.0
  C  C1328  1  0.936100  0.969760  0.156450  1.0
  C  C1329  1  0.304670  0.471710  0.998910  1.0
  C  C1330  1  0.195330  0.528290  0.498910  1.0
  C  C1331  1  0.695330  0.971710  0.501090  1.0
  C  C1332  1  0.804670  0.028290  0.001090  1.0
  C  C1333  1  0.998910  0.304670  0.471710  1.0
  C  C1334  1  0.498910  0.195330  0.528290  1.0
  C  C1335  1  0.501090  0.695330  0.971710  1.0
  C  C1336  1  0.001090  0.804670  0.028290  1.0
  C  C1337  1  0.471710  0.998910  0.304670  1.0
  C  C1338  1  0.528290  0.498910  0.195330  1.0
  C  C1339  1  0.971710  0.501090  0.695330  1.0
  C  C1340  1  0.028290  0.001090  0.804670  1.0
  C  C1341  1  0.695330  0.528290  0.001090  1.0
  C  C1342  1  0.804670  0.471710  0.501090  1.0
  C  C1343  1  0.304670  0.028290  0.498910  1.0
  C  C1344  1  0.195330  0.971710  0.998910  1.0
  C  C1345  1  0.001090  0.695330  0.528290  1.0
  C  C1346  1  0.501090  0.804670  0.471710  1.0
  C  C1347  1  0.498910  0.304670  0.028290  1.0
  C  C1348  1  0.998910  0.195330  0.971710  1.0
  C  C1349  1  0.528290  0.001090  0.695330  1.0
  C  C1350  1  0.471710  0.501090  0.804670  1.0
  C  C1351  1  0.028290  0.498910  0.304670  1.0
  C  C1352  1  0.971710  0.998910  0.195330  1.0
  N  N1353  1  0.159680  0.672030  0.914050  1.0
  N  N1354  1  0.340320  0.327970  0.414050  1.0
  N  N1355  1  0.840320  0.172030  0.585950  1.0
  N  N1356  1  0.659680  0.827970  0.085950  1.0
  N  N1357  1  0.914050  0.159680  0.672030  1.0
  N  N1358  1  0.414050  0.340320  0.327970  1.0
  N  N1359  1  0.585950  0.840320  0.172030  1.0
  N  N1360  1  0.085950  0.659680  0.827970  1.0
  N  N1361  1  0.672030  0.914050  0.159680  1.0
  N  N1362  1  0.327970  0.414050  0.340320  1.0
  N  N1363  1  0.172030  0.585950  0.840320  1.0
  N  N1364  1  0.827970  0.085950  0.659680  1.0
  N  N1365  1  0.840320  0.327970  0.085950  1.0
  N  N1366  1  0.659680  0.672030  0.585950  1.0
  N  N1367  1  0.159680  0.827970  0.414050  1.0
  N  N1368  1  0.340320  0.172030  0.914050  1.0
  N  N1369  1  0.085950  0.840320  0.327970  1.0
  N  N1370  1  0.585950  0.659680  0.672030  1.0
  N  N1371  1  0.414050  0.159680  0.827970  1.0
  N  N1372  1  0.914050  0.340320  0.172030  1.0
  N  N1373  1  0.327970  0.085950  0.840320  1.0
  N  N1374  1  0.672030  0.585950  0.659680  1.0
  N  N1375  1  0.827970  0.414050  0.159680  1.0
  N  N1376  1  0.172030  0.914050  0.340320  1.0
  N  N1377  1  0.251350  0.447240  0.000480  1.0
  N  N1378  1  0.248650  0.552760  0.500480  1.0
  N  N1379  1  0.748650  0.947240  0.499520  1.0
  N  N1380  1  0.751350  0.052760  0.999520  1.0
  N  N1381  1  0.000480  0.251350  0.447240  1.0
  N  N1382  1  0.500480  0.248650  0.552760  1.0
  N  N1383  1  0.499520  0.748650  0.947240  1.0
  N  N1384  1  0.999520  0.751350  0.052760  1.0
  N  N1385  1  0.447240  0.000480  0.251350  1.0
  N  N1386  1  0.552760  0.500480  0.248650  1.0
  N  N1387  1  0.947240  0.499520  0.748650  1.0
  N  N1388  1  0.052760  0.999520  0.751350  1.0
  N  N1389  1  0.748650  0.552760  0.999520  1.0
  N  N1390  1  0.751350  0.447240  0.499520  1.0
  N  N1391  1  0.251350  0.052760  0.500480  1.0
  N  N1392  1  0.248650  0.947240  0.000480  1.0
  N  N1393  1  0.999520  0.748650  0.552760  1.0
  N  N1394  1  0.499520  0.751350  0.447240  1.0
  N  N1395  1  0.500480  0.251350  0.052760  1.0
  N  N1396  1  0.000480  0.248650  0.947240  1.0
  N  N1397  1  0.552760  0.999520  0.748650  1.0
  N  N1398  1  0.447240  0.499520  0.751350  1.0
  N  N1399  1  0.052760  0.500480  0.251350  1.0
  N  N1400  1  0.947240  0.000480  0.248650  1.0
  N  N1401  1  0.157640  0.415540  0.012700  1.0
  N  N1402  1  0.342360  0.584460  0.512700  1.0
  N  N1403  1  0.842360  0.915540  0.487300  1.0
  N  N1404  1  0.657640  0.084460  0.987300  1.0
  N  N1405  1  0.012700  0.157640  0.415540  1.0
  N  N1406  1  0.512700  0.342360  0.584460  1.0
  N  N1407  1  0.487300  0.842360  0.915540  1.0
  N  N1408  1  0.987300  0.657640  0.084460  1.0
  N  N1409  1  0.415540  0.012700  0.157640  1.0
  N  N1410  1  0.584460  0.512700  0.342360  1.0
  N  N1411  1  0.915540  0.487300  0.842360  1.0
  N  N1412  1  0.084460  0.987300  0.657640  1.0
  N  N1413  1  0.842360  0.584460  0.987300  1.0
  N  N1414  1  0.657640  0.415540  0.487300  1.0
  N  N1415  1  0.157640  0.084460  0.512700  1.0
  N  N1416  1  0.342360  0.915540  0.012700  1.0
  N  N1417  1  0.987300  0.842360  0.584460  1.0
  N  N1418  1  0.487300  0.657640  0.415540  1.0
  N  N1419  1  0.512700  0.157640  0.084460  1.0
  N  N1420  1  0.012700  0.342360  0.915540  1.0
  N  N1421  1  0.584460  0.987300  0.842360  1.0
  N  N1422  1  0.415540  0.487300  0.657640  1.0
  N  N1423  1  0.084460  0.512700  0.157640  1.0
  N  N1424  1  0.915540  0.012700  0.342360  1.0
  N  N1425  1  0.142060  0.478710  0.101980  1.0
  N  N1426  1  0.357940  0.521290  0.601980  1.0
  N  N1427  1  0.857940  0.978710  0.398020  1.0
  N  N1428  1  0.642060  0.021290  0.898020  1.0
  N  N1429  1  0.101980  0.142060  0.478710  1.0
  N  N1430  1  0.601980  0.357940  0.521290  1.0
  N  N1431  1  0.398020  0.857940  0.978710  1.0
  N  N1432  1  0.898020  0.642060  0.021290  1.0
  N  N1433  1  0.478710  0.101980  0.142060  1.0
  N  N1434  1  0.521290  0.601980  0.357940  1.0
  N  N1435  1  0.978710  0.398020  0.857940  1.0
  N  N1436  1  0.021290  0.898020  0.642060  1.0
  N  N1437  1  0.857940  0.521290  0.898020  1.0
  N  N1438  1  0.642060  0.478710  0.398020  1.0
  N  N1439  1  0.142060  0.021290  0.601980  1.0
  N  N1440  1  0.357940  0.978710  0.101980  1.0
  N  N1441  1  0.898020  0.857940  0.521290  1.0
  N  N1442  1  0.398020  0.642060  0.478710  1.0
  N  N1443  1  0.601980  0.142060  0.021290  1.0
  N  N1444  1  0.101980  0.357940  0.978710  1.0
  N  N1445  1  0.521290  0.898020  0.857940  1.0
  N  N1446  1  0.478710  0.398020  0.642060  1.0
  N  N1447  1  0.021290  0.601980  0.142060  1.0
  N  N1448  1  0.978710  0.101980  0.357940  1.0
  N  N1449  1  0.172470  0.522090  0.005000  1.0
  N  N1450  1  0.327530  0.477910  0.505000  1.0
  N  N1451  1  0.827530  0.022090  0.495000  1.0
  N  N1452  1  0.672470  0.977910  0.995000  1.0
  N  N1453  1  0.005000  0.172470  0.522090  1.0
  N  N1454  1  0.505000  0.327530  0.477910  1.0
  N  N1455  1  0.495000  0.827530  0.022090  1.0
  N  N1456  1  0.995000  0.672470  0.977910  1.0
  N  N1457  1  0.522090  0.005000  0.172470  1.0
  N  N1458  1  0.477910  0.505000  0.327530  1.0
  N  N1459  1  0.022090  0.495000  0.827530  1.0
  N  N1460  1  0.977910  0.995000  0.672470  1.0
  N  N1461  1  0.827530  0.477910  0.995000  1.0
  N  N1462  1  0.672470  0.522090  0.495000  1.0
  N  N1463  1  0.172470  0.977910  0.505000  1.0
  N  N1464  1  0.327530  0.022090  0.005000  1.0
  N  N1465  1  0.995000  0.827530  0.477910  1.0
  N  N1466  1  0.495000  0.672470  0.522090  1.0
  N  N1467  1  0.505000  0.172470  0.977910  1.0
  N  N1468  1  0.005000  0.327530  0.022090  1.0
  N  N1469  1  0.477910  0.995000  0.827530  1.0
  N  N1470  1  0.522090  0.495000  0.672470  1.0
  N  N1471  1  0.977910  0.505000  0.172470  1.0
  N  N1472  1  0.022090  0.005000  0.327530  1.0
  N  N1473  1  0.218350  0.414180  0.104030  1.0
  N  N1474  1  0.281650  0.585820  0.604030  1.0
  N  N1475  1  0.781650  0.914180  0.395970  1.0
  N  N1476  1  0.718350  0.085820  0.895970  1.0
  N  N1477  1  0.104030  0.218350  0.414180  1.0
  N  N1478  1  0.604030  0.281650  0.585820  1.0
  N  N1479  1  0.395970  0.781650  0.914180  1.0
  N  N1480  1  0.895970  0.718350  0.085820  1.0
  N  N1481  1  0.414180  0.104030  0.218350  1.0
  N  N1482  1  0.585820  0.604030  0.281650  1.0
  N  N1483  1  0.914180  0.395970  0.781650  1.0
  N  N1484  1  0.085820  0.895970  0.718350  1.0
  N  N1485  1  0.781650  0.585820  0.895970  1.0
  N  N1486  1  0.718350  0.414180  0.395970  1.0
  N  N1487  1  0.218350  0.085820  0.604030  1.0
  N  N1488  1  0.281650  0.914180  0.104030  1.0
  N  N1489  1  0.895970  0.781650  0.585820  1.0
  N  N1490  1  0.395970  0.718350  0.414180  1.0
  N  N1491  1  0.604030  0.218350  0.085820  1.0
  N  N1492  1  0.104030  0.281650  0.914180  1.0
  N  N1493  1  0.585820  0.895970  0.781650  1.0
  N  N1494  1  0.414180  0.395970  0.718350  1.0
  N  N1495  1  0.085820  0.604030  0.218350  1.0
  N  N1496  1  0.914180  0.104030  0.281650  1.0
  N  N1497  1  0.237240  0.525130  0.082550  1.0
  N  N1498  1  0.262760  0.474870  0.582550  1.0
  N  N1499  1  0.762760  0.025130  0.417450  1.0
  N  N1500  1  0.737240  0.974870  0.917450  1.0
  N  N1501  1  0.082550  0.237240  0.525130  1.0
  N  N1502  1  0.582550  0.262760  0.474870  1.0
  N  N1503  1  0.417450  0.762760  0.025130  1.0
  N  N1504  1  0.917450  0.737240  0.974870  1.0
  N  N1505  1  0.525130  0.082550  0.237240  1.0
  N  N1506  1  0.474870  0.582550  0.262760  1.0
  N  N1507  1  0.025130  0.417450  0.762760  1.0
  N  N1508  1  0.974870  0.917450  0.737240  1.0
  N  N1509  1  0.762760  0.474870  0.917450  1.0
  N  N1510  1  0.737240  0.525130  0.417450  1.0
  N  N1511  1  0.237240  0.974870  0.582550  1.0
  N  N1512  1  0.262760  0.025130  0.082550  1.0
  N  N1513  1  0.917450  0.762760  0.474870  1.0
  N  N1514  1  0.417450  0.737240  0.525130  1.0
  N  N1515  1  0.582550  0.237240  0.974870  1.0
  N  N1516  1  0.082550  0.262760  0.025130  1.0
  N  N1517  1  0.474870  0.917450  0.762760  1.0
  N  N1518  1  0.525130  0.417450  0.737240  1.0
  N  N1519  1  0.974870  0.582550  0.237240  1.0
  N  N1520  1  0.025130  0.082550  0.262760  1.0
  N  N1521  1  0.143740  0.576470  0.943230  1.0
  N  N1522  1  0.356260  0.423530  0.443230  1.0
  N  N1523  1  0.856260  0.076470  0.556770  1.0
  N  N1524  1  0.643740  0.923530  0.056770  1.0
  N  N1525  1  0.943230  0.143740  0.576470  1.0
  N  N1526  1  0.443230  0.356260  0.423530  1.0
  N  N1527  1  0.556770  0.856260  0.076470  1.0
  N  N1528  1  0.056770  0.643740  0.923530  1.0
  N  N1529  1  0.576470  0.943230  0.143740  1.0
  N  N1530  1  0.423530  0.443230  0.356260  1.0
  N  N1531  1  0.076470  0.556770  0.856260  1.0
  N  N1532  1  0.923530  0.056770  0.643740  1.0
  N  N1533  1  0.856260  0.423530  0.056770  1.0
  N  N1534  1  0.643740  0.576470  0.556770  1.0
  N  N1535  1  0.143740  0.923530  0.443230  1.0
  N  N1536  1  0.356260  0.076470  0.943230  1.0
  N  N1537  1  0.056770  0.856260  0.423530  1.0
  N  N1538  1  0.556770  0.643740  0.576470  1.0
  N  N1539  1  0.443230  0.143740  0.923530  1.0
  N  N1540  1  0.943230  0.356260  0.076470  1.0
  N  N1541  1  0.423530  0.056770  0.856260  1.0
  N  N1542  1  0.576470  0.556770  0.643740  1.0
  N  N1543  1  0.923530  0.443230  0.143740  1.0
  N  N1544  1  0.076470  0.943230  0.356260  1.0
  N  N1545  1  0.182840  0.308120  0.870760  1.0
  N  N1546  1  0.317160  0.691880  0.370760  1.0
  N  N1547  1  0.817160  0.808120  0.629240  1.0
  N  N1548  1  0.682840  0.191880  0.129240  1.0
  N  N1549  1  0.870760  0.182840  0.308120  1.0
  N  N1550  1  0.370760  0.317160  0.691880  1.0
  N  N1551  1  0.629240  0.817160  0.808120  1.0
  N  N1552  1  0.129240  0.682840  0.191880  1.0
  N  N1553  1  0.308120  0.870760  0.182840  1.0
  N  N1554  1  0.691880  0.370760  0.317160  1.0
  N  N1555  1  0.808120  0.629240  0.817160  1.0
  N  N1556  1  0.191880  0.129240  0.682840  1.0
  N  N1557  1  0.817160  0.691880  0.129240  1.0
  N  N1558  1  0.682840  0.308120  0.629240  1.0
  N  N1559  1  0.182840  0.191880  0.370760  1.0
  N  N1560  1  0.317160  0.808120  0.870760  1.0
  N  N1561  1  0.129240  0.817160  0.691880  1.0
  N  N1562  1  0.629240  0.682840  0.308120  1.0
  N  N1563  1  0.370760  0.182840  0.191880  1.0
  N  N1564  1  0.870760  0.317160  0.808120  1.0
  N  N1565  1  0.691880  0.129240  0.817160  1.0
  N  N1566  1  0.308120  0.629240  0.682840  1.0
  N  N1567  1  0.191880  0.370760  0.182840  1.0
  N  N1568  1  0.808120  0.870760  0.317160  1.0
  N  N1569  1  0.245560  0.618400  0.081230  1.0
  N  N1570  1  0.254440  0.381600  0.581230  1.0
  N  N1571  1  0.754440  0.118400  0.418770  1.0
  N  N1572  1  0.745560  0.881600  0.918770  1.0
  N  N1573  1  0.081230  0.245560  0.618400  1.0
  N  N1574  1  0.581230  0.254440  0.381600  1.0
  N  N1575  1  0.418770  0.754440  0.118400  1.0
  N  N1576  1  0.918770  0.745560  0.881600  1.0
  N  N1577  1  0.618400  0.081230  0.245560  1.0
  N  N1578  1  0.381600  0.581230  0.254440  1.0
  N  N1579  1  0.118400  0.418770  0.754440  1.0
  N  N1580  1  0.881600  0.918770  0.745560  1.0
  N  N1581  1  0.754440  0.381600  0.918770  1.0
  N  N1582  1  0.745560  0.618400  0.418770  1.0
  N  N1583  1  0.245560  0.881600  0.581230  1.0
  N  N1584  1  0.254440  0.118400  0.081230  1.0
  N  N1585  1  0.918770  0.754440  0.381600  1.0
  N  N1586  1  0.418770  0.745560  0.618400  1.0
  N  N1587  1  0.581230  0.245560  0.881600  1.0
  N  N1588  1  0.081230  0.254440  0.118400  1.0
  N  N1589  1  0.381600  0.918770  0.754440  1.0
  N  N1590  1  0.618400  0.418770  0.745560  1.0
  N  N1591  1  0.881600  0.581230  0.245560  1.0
  N  N1592  1  0.118400  0.081230  0.254440  1.0
  N  N1593  1  0.225760  0.688480  0.978360  1.0
  N  N1594  1  0.274240  0.311520  0.478360  1.0
  N  N1595  1  0.774240  0.188480  0.521640  1.0
  N  N1596  1  0.725760  0.811520  0.021640  1.0
  N  N1597  1  0.978360  0.225760  0.688480  1.0
  N  N1598  1  0.478360  0.274240  0.311520  1.0
  N  N1599  1  0.521640  0.774240  0.188480  1.0
  N  N1600  1  0.021640  0.725760  0.811520  1.0
  N  N1601  1  0.688480  0.978360  0.225760  1.0
  N  N1602  1  0.311520  0.478360  0.274240  1.0
  N  N1603  1  0.188480  0.521640  0.774240  1.0
  N  N1604  1  0.811520  0.021640  0.725760  1.0
  N  N1605  1  0.774240  0.311520  0.021640  1.0
  N  N1606  1  0.725760  0.688480  0.521640  1.0
  N  N1607  1  0.225760  0.811520  0.478360  1.0
  N  N1608  1  0.274240  0.188480  0.978360  1.0
  N  N1609  1  0.021640  0.774240  0.311520  1.0
  N  N1610  1  0.521640  0.725760  0.688480  1.0
  N  N1611  1  0.478360  0.225760  0.811520  1.0
  N  N1612  1  0.978360  0.274240  0.188480  1.0
  N  N1613  1  0.311520  0.021640  0.774240  1.0
  N  N1614  1  0.688480  0.521640  0.725760  1.0
  N  N1615  1  0.811520  0.478360  0.225760  1.0
  N  N1616  1  0.188480  0.978360  0.274240  1.0
  N  N1617  1  0.268450  0.398450  0.922660  1.0
  N  N1618  1  0.231550  0.601550  0.422660  1.0
  N  N1619  1  0.731550  0.898450  0.577340  1.0
  N  N1620  1  0.768450  0.101550  0.077340  1.0
  N  N1621  1  0.922660  0.268450  0.398450  1.0
  N  N1622  1  0.422660  0.231550  0.601550  1.0
  N  N1623  1  0.577340  0.731550  0.898450  1.0
  N  N1624  1  0.077340  0.768450  0.101550  1.0
  N  N1625  1  0.398450  0.922660  0.268450  1.0
  N  N1626  1  0.601550  0.422660  0.231550  1.0
  N  N1627  1  0.898450  0.577340  0.731550  1.0
  N  N1628  1  0.101550  0.077340  0.768450  1.0
  N  N1629  1  0.731550  0.601550  0.077340  1.0
  N  N1630  1  0.768450  0.398450  0.577340  1.0
  N  N1631  1  0.268450  0.101550  0.422660  1.0
  N  N1632  1  0.231550  0.898450  0.922660  1.0
  N  N1633  1  0.077340  0.731550  0.601550  1.0
  N  N1634  1  0.577340  0.768450  0.398450  1.0
  N  N1635  1  0.422660  0.268450  0.101550  1.0
  N  N1636  1  0.922660  0.231550  0.898450  1.0
  N  N1637  1  0.601550  0.077340  0.731550  1.0
  N  N1638  1  0.398450  0.577340  0.768450  1.0
  N  N1639  1  0.101550  0.422660  0.268450  1.0
  N  N1640  1  0.898450  0.922660  0.231550  1.0
  Cl  Cl1641  1  0.233480  0.398730  0.803990  1
  Cl  Cl1642  1  0.266520  0.601270  0.303990  1
  Cl  Cl1643  1  0.766520  0.898730  0.696010  1
  Cl  Cl1644  1  0.733480  0.101270  0.196010  1
  Cl  Cl1645  1  0.803990  0.233480  0.398730  1
  Cl  Cl1646  1  0.303990  0.266520  0.601270  1
  Cl  Cl1647  1  0.696010  0.766520  0.898730  1
  Cl  Cl1648  1  0.196010  0.733480  0.101270  1
  Cl  Cl1649  1  0.398730  0.803990  0.233480  1
  Cl  Cl1650  1  0.601270  0.303990  0.266520  1
  Cl  Cl1651  1  0.898730  0.696010  0.766520  1
  Cl  Cl1652  1  0.101270  0.196010  0.733480  1
  Cl  Cl1653  1  0.766520  0.601270  0.196010  1
  Cl  Cl1654  1  0.733480  0.398730  0.696010  1
  Cl  Cl1655  1  0.233480  0.101270  0.303990  1
  Cl  Cl1656  1  0.266520  0.898730  0.803990  1
  Cl  Cl1657  1  0.196010  0.766520  0.601270  1
  Cl  Cl1658  1  0.696010  0.733480  0.398730  1
  Cl  Cl1659  1  0.303990  0.233480  0.101270  1
  Cl  Cl1660  1  0.803990  0.266520  0.898730  1
  Cl  Cl1661  1  0.601270  0.196010  0.766520  1
  Cl  Cl1662  1  0.398730  0.696010  0.733480  1
  Cl  Cl1663  1  0.101270  0.303990  0.233480  1
  Cl  Cl1664  1  0.898730  0.803990  0.266520  1
  Cl  Cl1665  1  0.956640  0.172430  0.112130  1
  Cl  Cl1666  1  0.543360  0.827570  0.612130  1
  Cl  Cl1667  1  0.043360  0.672430  0.387870  1
  Cl  Cl1668  1  0.456640  0.327570  0.887870  1
  Cl  Cl1669  1  0.112130  0.956640  0.172430  1
  Cl  Cl1670  1  0.612130  0.543360  0.827570  1
  Cl  Cl1671  1  0.387870  0.043360  0.672430  1
  Cl  Cl1672  1  0.887870  0.456640  0.327570  1
  Cl  Cl1673  1  0.172430  0.112130  0.956640  1
  Cl  Cl1674  1  0.827570  0.612130  0.543360  1
  Cl  Cl1675  1  0.672430  0.387870  0.043360  1
  Cl  Cl1676  1  0.327570  0.887870  0.456640  1
  Cl  Cl1677  1  0.043360  0.827570  0.887870  1
  Cl  Cl1678  1  0.456640  0.172430  0.387870  1
  Cl  Cl1679  1  0.956640  0.327570  0.612130  1
  Cl  Cl1680  1  0.543360  0.672430  0.112130  1
  Cl  Cl1681  1  0.887870  0.043360  0.827570  1
  Cl  Cl1682  1  0.387870  0.456640  0.172430  1
  Cl  Cl1683  1  0.612130  0.956640  0.327570  1
  Cl  Cl1684  1  0.112130  0.543360  0.672430  1
  Cl  Cl1685  1  0.827570  0.887870  0.043360  1
  Cl  Cl1686  1  0.172430  0.387870  0.456640  1
  Cl  Cl1687  1  0.327570  0.612130  0.956640  1
  Cl  Cl1688  1  0.672430  0.112130  0.543360  1
  Cl  Cl1689  1  0.500000  0.000000  0.000000  1
  Cl  Cl1690  1  0.000000  0.000000  0.500000  1
  Cl  Cl1691  1  0.500000  0.500000  0.500000  1
  Cl  Cl1692  1  0.000000  0.500000  0.000000  1
  O  O1693  1  0.081700  0.081700  0.081700  1
  O  O1694  1  0.418300  0.918300  0.581700  1
  O  O1695  1  0.918300  0.581700  0.418300  1
  O  O1696  1  0.581700  0.418300  0.918300  1
  O  O1697  1  0.918300  0.918300  0.918300  1
  O  O1698  1  0.581700  0.081700  0.418300  1
  O  O1699  1  0.081700  0.418300  0.581700  1
  O  O1700  1  0.418300  0.581700  0.081700  1
  O  O1701  1  0.987400  0.065400  0.063700  1
  O  O1702  1  0.512600  0.934600  0.563700  1
  O  O1703  1  0.012600  0.565400  0.436300  1
  O  O1704  1  0.487400  0.434600  0.936300  1
  O  O1705  1  0.063700  0.987400  0.065400  1
  O  O1706  1  0.563700  0.512600  0.934600  1
  O  O1707  1  0.436300  0.012600  0.565400  1
  O  O1708  1  0.936300  0.487400  0.434600  1
  O  O1709  1  0.065400  0.063700  0.987400  1
  O  O1710  1  0.934600  0.563700  0.512600  1
  O  O1711  1  0.565400  0.436300  0.012600  1
  O  O1712  1  0.434600  0.936300  0.487400  1
  O  O1713  1  0.012600  0.934600  0.936300  1
  O  O1714  1  0.487400  0.065400  0.436300  1
  O  O1715  1  0.987400  0.434600  0.563700  1
  O  O1716  1  0.512600  0.565400  0.063700  1
  O  O1717  1  0.936300  0.012600  0.934600  1
  O  O1718  1  0.436300  0.487400  0.065400  1
  O  O1719  1  0.563700  0.987400  0.434600  1
  O  O1720  1  0.063700  0.512600  0.565400  1
  O  O1721  1  0.934600  0.936300  0.012600  1
  O  O1722  1  0.065400  0.436300  0.487400  1
  O  O1723  1  0.434600  0.563700  0.987400  1
  O  O1724  1  0.565400  0.063700  0.512600  1
  O  O1725  1  0.960700  0.124600  0.099200  1
  O  O1726  1  0.539300  0.875400  0.599200  1
  O  O1727  1  0.039300  0.624600  0.400800  1
  O  O1728  1  0.460700  0.375400  0.900800  1
  O  O1729  1  0.099200  0.960700  0.124600  1
  O  O1730  1  0.599200  0.539300  0.875400  1
  O  O1731  1  0.400800  0.039300  0.624600  1
  O  O1732  1  0.900800  0.460700  0.375400  1
  O  O1733  1  0.124600  0.099200  0.960700  1
  O  O1734  1  0.875400  0.599200  0.539300  1
  O  O1735  1  0.624600  0.400800  0.039300  1
  O  O1736  1  0.375400  0.900800  0.460700  1
  O  O1737  1  0.039300  0.875400  0.900800  1
  O  O1738  1  0.460700  0.124600  0.400800  1
  O  O1739  1  0.960700  0.375400  0.599200  1
  O  O1740  1  0.539300  0.624600  0.099200  1
  O  O1741  1  0.900800  0.039300  0.875400  1
  O  O1742  1  0.400800  0.460700  0.124600  1
  O  O1743  1  0.599200  0.960700  0.375400  1
  O  O1744  1  0.099200  0.539300  0.624600  1
  O  O1745  1  0.875400  0.900800  0.039300  1
  O  O1746  1  0.124600  0.400800  0.460700  1
  O  O1747  1  0.375400  0.599200  0.960700  1
  O  O1748  1  0.624600  0.099200  0.539300  1
  O  O1749  1  0.972500  0.095200  0.083600  1
  O  O1750  1  0.527500  0.904800  0.583600  1
  O  O1751  1  0.027500  0.595200  0.416400  1
  O  O1752  1  0.472500  0.404800  0.916400  1
  O  O1753  1  0.083600  0.972500  0.095200  1
  O  O1754  1  0.583600  0.527500  0.904800  1
  O  O1755  1  0.416400  0.027500  0.595200  1
  O  O1756  1  0.916400  0.472500  0.404800  1
  O  O1757  1  0.095200  0.083600  0.972500  1
  O  O1758  1  0.904800  0.583600  0.527500  1
  O  O1759  1  0.595200  0.416400  0.027500  1
  O  O1760  1  0.404800  0.916400  0.472500  1
  O  O1761  1  0.027500  0.904800  0.916400  1
  O  O1762  1  0.472500  0.095200  0.416400  1
  O  O1763  1  0.972500  0.404800  0.583600  1
  O  O1764  1  0.527500  0.595200  0.083600  1
  O  O1765  1  0.916400  0.027500  0.904800  1
  O  O1766  1  0.416400  0.472500  0.095200  1
  O  O1767  1  0.583600  0.972500  0.404800  1
  O  O1768  1  0.083600  0.527500  0.595200  1
  O  O1769  1  0.904800  0.916400  0.027500  1
  O  O1770  1  0.095200  0.416400  0.472500  1
  O  O1771  1  0.404800  0.583600  0.972500  1
  O  O1772  1  0.595200  0.083600  0.527500  1
  O  O1773  1  0.049600  0.049600  0.049600  1
  O  O1774  1  0.450400  0.950400  0.549600  1
  O  O1775  1  0.950400  0.549600  0.450400  1
  O  O1776  1  0.549600  0.450400  0.950400  1
  O  O1777  1  0.950400  0.950400  0.950400  1
  O  O1778  1  0.549600  0.049600  0.450400  1
  O  O1779  1  0.049600  0.450400  0.549600  1
  O  O1780  1  0.450400  0.549600  0.049600  1
