
#######################################################################
#
#                 Cambridge Crystallographic Data Centre
#                                CCDC 
#
#######################################################################
#
# If this CIF has been generated from an entry in the Cambridge 
# Structural Database, then it will include bibliographic, chemical, 
# crystal, experimental, refinement or atomic coordinate data resulting 
# from the CCDC's data processing and validation procedures.
#
#######################################################################

data_EWIGUN
_chemical_formula_moiety         
'C132 H180 Co8 N72 12+,12(B1 F4 1-),2(C3 H7 N1 O1),14(H2 O1)'
_chemical_name_systematic        
"dodecakis(\m~2~-2,2'-(1H-Imidazole-4,5-diyl)bis(1,4,5,6-tetrahydropyrimidine))-octa-cobalt(iii) dodecakis(tetrafluoroborate) dimethylformamide solvate tetradecahydrate"
_symmetry_cell_setting           monoclinic
_symmetry_space_group_name_H-M   'C 2/c'
_symmetry_Int_Tables_number      15
_space_group_name_Hall           '-C 2yn'
loop_
_symmetry_equiv_pos_site_id
_symmetry_equiv_pos_as_xyz
1 x,y,z
2 -x,y,1/2-z
3 1/2+x,1/2+y,z
4 1/2-x,1/2+y,1/2-z
5 -x,-y,-z
6 x,-y,1/2+z
7 1/2-x,1/2-y,-z
8 1/2+x,1/2-y,1/2+z
_cell_length_a                   31.693(6)
_cell_length_b                   20.047(4)
_cell_length_c                   32.309(7)
_cell_angle_alpha                90
_cell_angle_beta                 109.50(3)
_cell_angle_gamma                90
_cell_volume                     19350.1
_exptl_crystal_colour            red
_exptl_crystal_description       prism
_cell_formula_units_Z            4
loop_
_atom_site_label
_atom_site_type_symbol
_atom_site_fract_x
_atom_site_fract_y
_atom_site_fract_z
Co1 Co 0.69859(5) 0.03284(9) 0.55034(6)
Co2 Co 0.88908(5) 0.11974(9) 0.60378(5)
Co3 Co 0.83466(5) 0.39443(9) 0.63749(6)
Co4 Co 0.64338(5) 0.30681(9) 0.58387(5)
C1 C 0.7915(3) 0.0853(5) 0.5621(4)
H1 H 0.7886 0.0926 0.5322
C2 C 0.7757(3) 0.0612(6) 0.6207(4)
C3 C 0.8199(3) 0.0787(6) 0.6332(3)
C4 C 0.7418(4) 0.0382(6) 0.6394(4)
C5 C 0.7179(4) 0.0218(7) 0.7042(4)
C6 C 0.6699(8) 0.0313(17) 0.6684(9)
C7 C 0.6681(4) -0.0069(6) 0.6266(4)
C8 C 0.6880(3) 0.1776(5) 0.5715(3)
H2 H 0.7186 0.1907 0.5824
C9 C 0.6272(3) 0.1168(6) 0.5444(3)
C10 C 0.6145(3) 0.1790(6) 0.5535(3)
C11 C 0.5745(3) 0.2149(6) 0.5522(3)
C12 C 0.4948(3) 0.2197(6) 0.5388(4)
H3 H 0.4904 0.2196 0.5677
H4 H 0.4685 0.1984 0.5170
C13 C 0.5002(3) 0.2913(6) 0.5248(4)
H5 H 0.5026 0.2913 0.4951
H6 H 0.4737 0.3180 0.5240
C14 C 0.5422(3) 0.3219(6) 0.5574(4)
H7 H 0.5477 0.3663 0.5467
H8 H 0.5379 0.3279 0.5862
C15 C 0.6076(3) 0.0542(6) 0.5239(3)
C16 C 0.6189(3) -0.0583(6) 0.5048(4)
H9 H 0.6101 -0.0879 0.5251
H10 H 0.6430 -0.0805 0.4969
C17 C 0.5794(3) -0.0463(6) 0.4642(4)
H11 H 0.5672 -0.0895 0.4505
H12 H 0.5888 -0.0202 0.4428
C18 C 0.5437(3) -0.0085(6) 0.4760(4)
H13 H 0.5195 0.0053 0.4489
H14 H 0.5304 -0.0376 0.4932
C19 C 0.8455(3) 0.2491(6) 0.6154(3)
H15 H 0.8161 0.2332 0.6113
C20 C 0.9162(3) 0.2512(6) 0.6223(3)
C21 C 0.9031(3) 0.3147(6) 0.6276(3)
C22 C 0.9220(3) 0.3822(6) 0.6389(4)
C23 C 0.9138(3) 0.4918(6) 0.6631(4)
H16 H 0.9006 0.5101 0.6844
H17 H 0.9053 0.5213 0.6370
C24 C 0.9635(4) 0.4899(6) 0.6833(4)
H18 H 0.9749 0.5357 0.6913
H19 H 0.9718 0.4628 0.7104
C25 C 0.9842(4) 0.4613(6) 0.6529(4)
H20 H 1.0165 0.4535 0.6685
H21 H 0.9813 0.4929 0.6285
C26 C 0.9575(3) 0.2135(7) 0.6260(3)
C27 C 1.0380(4) 0.2064(7) 0.6439(4)
H22 H 1.0604 0.2352 0.6374
H23 H 1.0510 0.1901 0.6744
C28 C 1.0273(3) 0.1501(7) 0.6138(4)
H24 H 1.0539 0.1209 0.6203
H25 H 1.0202 0.1668 0.5834
C29 C 0.9883(3) 0.1095(6) 0.6168(4)
H26 H 0.9789 0.0778 0.5919
H27 H 0.9981 0.0833 0.6443
C30 C 0.8674(3) 0.1799(6) 0.5130(4)
H28 H 0.8636 0.2251 0.5198
C31 C 0.8711(3) 0.0899(6) 0.4768(4)
C32 C 0.8812(3) 0.0737(6) 0.5202(4)
C33 C 0.8962(3) 0.0171(6) 0.5495(4)
C34 C 0.9209(4) -0.0988(6) 0.5627(4)
H29 H 0.9103 -0.1413 0.5470
H30 H 0.9540 -0.0988 0.5732
C35 C 0.9044(4) -0.0929(7) 0.6007(4)
H31 H 0.8716 -0.0996 0.5906
H32 H 0.9184 -0.1281 0.6225
C36 C 0.9155(3) -0.0262(6) 0.6217(4)
H33 H 0.9012 -0.0216 0.6445
H34 H 0.9483 -0.0231 0.6364
C37 C 0.8685(3) 0.0585(7) 0.4356(4)
C38 C 0.6321(4) 0.4248(6) 0.6380(4)
H35 H 0.6141 0.3957 0.6504
H36 H 0.6633 0.4247 0.6586
C39 C 0.6136(4) 0.4958(6) 0.6336(4)
H37 H 0.6175 0.5141 0.6631
H38 H 0.5812 0.4952 0.6166
C40 C 0.6368(4) 0.5389(6) 0.6113(4)
H39 H 0.6227 0.5836 0.6062
H40 H 0.6685 0.5441 0.6298
C41 C 0.8211(3) 0.4059(6) 0.5400(4)
H41 H 0.8323 0.3637 0.5353
C42 C 0.8022(3) 0.4913(6) 0.5719(4)
C43 C 0.7904(3) 0.5046(6) 0.5281(4)
C44 C 0.8025(4) 0.5223(7) 0.6131(5)
C45 C 0.8117(4) 0.5064(6) 0.6891(4)
H42 H 0.8425 0.5105 0.7102
H43 H 0.7956 0.4732 0.7009
C46 C 0.7887(5) 0.5720(8) 0.6847(5)
H44 H 0.7559 0.5645 0.6729
H45 H 0.7957 0.5919 0.7143
C47 C 0.8009(5) 0.6201(7) 0.6562(4)
H46 H 0.8327 0.6334 0.6694
H47 H 0.7821 0.6606 0.6521
C48 C 0.7702(3) 0.5575(6) 0.4977(4)
C49 C 0.7745(4) -0.1595(6) 0.5231(4)
H48 H 0.7744 -0.2016 0.5071
H49 H 0.8058 -0.1477 0.5400
C50 C 0.7473(4) -0.1678(6) 0.5540(4)
H50 H 0.7624 -0.2001 0.5775
H51 H 0.7172 -0.1854 0.5375
C51 C 0.7430(4) -0.1016(6) 0.5740(4)
H52 H 0.7730 -0.0860 0.5926
H53 H 0.7243 -0.1067 0.5930
C52 C 0.7373(3) 0.3548(5) 0.5948(4)
H54 H 0.7326 0.3697 0.5657
C53 C 0.7264(4) 0.3115(6) 0.6519(4)
C54 C 0.7700(3) 0.3338(6) 0.6642(3)
C55 C 0.8085(4) 0.3402(6) 0.7034(4)
C56 C 0.8460(4) 0.3285(8) 0.7826(4)
H55 H 0.8468 0.3718 0.7975
H56 H 0.8446 0.2925 0.8030
C57 C 0.8859(4) 0.3208(8) 0.7705(4)
H57 H 0.8881 0.2740 0.7616
H58 H 0.9126 0.3304 0.7964
C58 C 0.8860(3) 0.3663(7) 0.7337(4)
H59 H 0.8914 0.4126 0.7449
H60 H 0.9110 0.3536 0.7233
C59 C 0.6949(4) 0.2771(6) 0.6705(4)
C60 C 0.6188(3) 0.2465(6) 0.6586(3)
H61 H 0.6135 0.2003 0.6473
H62 H 0.5902 0.2714 0.6470
C61 C 0.6341(3) 0.2456(6) 0.7085(4)
H63 H 0.6352 0.2919 0.7194
H64 H 0.6121 0.2206 0.7181
C62 C 0.6793(4) 0.2142(7) 0.7281(4)
H65 H 0.6899 0.2189 0.7604
H66 H 0.6779 0.1661 0.7207
C63 C 0.8594(4) 0.0812(6) 0.6718(4)
C64 C 0.9385(3) 0.1023(7) 0.7015(3)
H67 H 0.9558 0.1421 0.6986
H68 H 0.9563 0.0624 0.7002
C65 C 0.8990(4) 0.0597(10) 0.7499(4)
H69 H 0.8910 0.0726 0.7759
H70 H 0.9114 0.0139 0.7548
C66 C 0.9320(4) 0.1043(9) 0.7452(4)
H71 H 0.9610 0.0939 0.7682
H72 H 0.9237 0.1503 0.7505
N1 N 0.8293(3) 0.0942(4) 0.5953(3)
N2 N 0.7579(3) 0.0649(4) 0.5752(3)
N3 N 0.8960(2) 0.1006(4) 0.6642(3)
N4 N 0.8583(3) 0.0607(7) 0.7101(4)
N5 N 0.7504(3) 0.0427(7) 0.6832(4)
N6 N 0.7054(3) 0.0160(5) 0.6112(3)
N7 N 0.6732(3) 0.1175(5) 0.5556(3)
N8 N 0.6529(3) 0.2174(4) 0.5698(3)
N9 N 0.5354(3) 0.1838(5) 0.5413(3)
N10 N 0.5812(2) 0.2777(5) 0.5625(3)
N11 N 0.6354(3) 0.0063(5) 0.5268(3)
N12 N 0.5633(5) 0.0496(5) 0.5016(5)
N13 N 0.7061(3) 0.3262(4) 0.6073(3)
N14 N 0.7760(3) 0.3604(5) 0.6274(3)
N15 N 0.8441(3) 0.3643(4) 0.6965(3)
N16 N 0.8065(3) 0.3255(6) 0.7431(4)
N17 N 0.7098(3) 0.2491(6) 0.7094(4)
N18 N 0.6529(3) 0.2784(5) 0.6437(3)
N19 N 0.8585(2) 0.3124(5) 0.6240(3)
N20 N 0.8790(3) 0.2116(4) 0.6137(2)
N21 N 0.8962(3) 0.4243(5) 0.6499(3)
N22 N 0.9617(3) 0.3968(5) 0.6349(3)
N23 N 0.9498(3) 0.1509(5) 0.6160(3)
N24 N 0.9968(3) 0.2455(5) 0.6391(3)
N25 N 0.8204(2) 0.4274(5) 0.5790(3)
N26 N 0.6959(3) 0.0488(5) 0.4915(3)
N27 N 0.7228(2) -0.0522(4) 0.5401(3)
N28 N 0.7465(3) 0.6061(5) 0.5077(3)
N29 N 0.7934(3) 0.5865(6) 0.6136(3)
N30 N 0.8138(3) 0.4829(5) 0.6472(3)
N31 N 0.8779(2) 0.1314(5) 0.5428(3)
N32 N 0.6372(2) 0.3417(5) 0.5273(3)
N33 N 0.6314(3) 0.3978(5) 0.5954(3)
N34 N 0.8662(4) -0.0078(6) 0.4311(4)
N35 N 0.9036(3) -0.0414(5) 0.5322(3)
N36 N 0.9010(3) 0.0292(5) 0.5905(3)
H73 H 0.736(3) 0.234(4) 0.727(3)
H74 H 0.737(3) 0.601(4) 0.531(3)
H75 H 0.841(3) 0.034(4) 0.716(3)
H76 H 0.769(3) 0.057(5) 0.698(3)
H77 H 0.785(3) 0.320(5) 0.747(3)
H78 H 0.558(5) 0.074(6) 0.497(5)
H79 H 0.790(3) 0.609(5) 0.592(3)
H80 H 0.534(3) 0.147(4) 0.551(3)
H81 H 0.857(3) -0.021(5) 0.445(3)
Co1F Co 0.80141(5) 0.46716(9) 0.44966(6)
Co2F Co 0.61092(5) 0.38026(9) 0.39622(5)
Co3F Co 0.66534(5) 0.10557(9) 0.36251(6)
Co4F Co 0.85662(5) 0.19319(9) 0.41613(5)
C1F C 0.7085(3) 0.4147(5) 0.4379(4)
H1F H 0.7114 0.4074 0.4678
C2F C 0.7243(3) 0.4388(6) 0.3793(4)
C3F C 0.6801(3) 0.4213(6) 0.3668(3)
C4F C 0.7582(4) 0.4618(6) 0.3606(4)
C5F C 0.7821(4) 0.4782(7) 0.2958(4)
C6F C 0.8301(8) 0.4687(17) 0.3316(9)
C7F C 0.8319(4) 0.5069(6) 0.3734(4)
C8F C 0.8120(3) 0.3224(5) 0.4285(3)
H2F H 0.7814 0.3093 0.4176
C9F C 0.8728(3) 0.3832(6) 0.4556(3)
C10F C 0.8855(3) 0.3210(6) 0.4465(3)
C11F C 0.9255(3) 0.2851(6) 0.4478(3)
C12F C 1.0052(3) 0.2803(6) 0.4612(4)
H3F H 1.0096 0.2804 0.4323
H4F H 1.0315 0.3016 0.4830
C13F C 0.9998(3) 0.2087(6) 0.4752(4)
H5F H 0.9974 0.2087 0.5049
H6F H 1.0263 0.1820 0.4760
C14F C 0.9578(3) 0.1781(6) 0.4426(4)
H7F H 0.9523 0.1337 0.4533
H8F H 0.9621 0.1721 0.4138
C15F C 0.8924(3) 0.4458(6) 0.4761(3)
C16F C 0.8811(3) 0.5583(6) 0.4952(4)
H9F H 0.8899 0.5879 0.4749
H10F H 0.8570 0.5805 0.5031
C17F C 0.9206(3) 0.5463(6) 0.5358(4)
H11F H 0.9328 0.5895 0.5495
H12F H 0.9112 0.5202 0.5572
C18F C 0.9563(3) 0.5085(6) 0.5240(4)
H13F H 0.9805 0.4947 0.5511
H14F H 0.9696 0.5376 0.5068
C19F C 0.6545(3) 0.2509(6) 0.3846(3)
H15F H 0.6839 0.2668 0.3887
C20F C 0.5838(3) 0.2488(6) 0.3777(3)
C21F C 0.5969(3) 0.1853(6) 0.3724(3)
C22F C 0.5780(3) 0.1178(6) 0.3611(4)
C23F C 0.5862(3) 0.0082(6) 0.3369(4)
H16F H 0.5994 -0.0101 0.3156
H17F H 0.5947 -0.0213 0.3630
C24F C 0.5365(4) 0.0101(6) 0.3167(4)
H18F H 0.5251 -0.0357 0.3087
H19F H 0.5282 0.0372 0.2896
C25F C 0.5158(4) 0.0387(6) 0.3471(4)
H20F H 0.4835 0.0465 0.3315
H21F H 0.5187 0.0071 0.3715
C26F C 0.5425(3) 0.2865(7) 0.3740(3)
C27F C 0.4620(4) 0.2936(7) 0.3561(4)
H22F H 0.4396 0.2648 0.3626
H23F H 0.4490 0.3099 0.3256
C28F C 0.4727(3) 0.3499(7) 0.3862(4)
H24F H 0.4461 0.3791 0.3797
H25F H 0.4798 0.3332 0.4166
C29F C 0.5117(3) 0.3905(6) 0.3832(4)
H26F H 0.5211 0.4222 0.4081
H27F H 0.5019 0.4167 0.3557
C30F C 0.6326(3) 0.3201(6) 0.4870(4)
H28F H 0.6364 0.2749 0.4802
C31F C 0.6289(3) 0.4101(6) 0.5232(4)
C32F C 0.6188(3) 0.4263(6) 0.4798(4)
C33F C 0.6038(3) 0.4829(6) 0.4505(4)
C34F C 0.5791(4) 0.5988(6) 0.4373(4)
H29F H 0.5897 0.6413 0.4530
H30F H 0.5460 0.5988 0.4268
C35F C 0.5956(4) 0.5929(7) 0.3993(4)
H31F H 0.6284 0.5996 0.4094
H32F H 0.5816 0.6281 0.3775
C36F C 0.5845(3) 0.5262(6) 0.3783(4)
H33F H 0.5988 0.5216 0.3555
H34F H 0.5517 0.5231 0.3636
C37F C 0.6315(3) 0.4415(7) 0.5644(4)
C38F C 0.8679(4) 0.0752(6) 0.3620(4)
H35F H 0.8859 0.1043 0.3496
H36F H 0.8367 0.0753 0.3414
C39F C 0.8864(4) 0.0042(6) 0.3664(4)
H37F H 0.8825 -0.0141 0.3369
H38F H 0.9188 0.0048 0.3834
C40F C 0.8632(4) -0.0389(6) 0.3887(4)
H39F H 0.8773 -0.0836 0.3938
H40F H 0.8315 -0.0441 0.3702
C41F C 0.6789(3) 0.0941(6) 0.4600(4)
H41F H 0.6677 0.1363 0.4647
C42F C 0.6978(3) 0.0087(6) 0.4281(4)
C43F C 0.7096(3) -0.0046(6) 0.4719(4)
C44F C 0.6975(4) -0.0223(7) 0.3869(5)
C45F C 0.6883(4) -0.0064(6) 0.3109(4)
H42F H 0.6575 -0.0105 0.2898
H43F H 0.7044 0.0268 0.2991
C46F C 0.7113(5) -0.0720(8) 0.3153(5)
H44F H 0.7441 -0.0645 0.3271
H45F H 0.7043 -0.0919 0.2857
C47F C 0.6991(5) -0.1201(7) 0.3438(4)
H46F H 0.6673 -0.1334 0.3306
H47F H 0.7179 -0.1606 0.3479
C48F C 0.7298(3) -0.0575(6) 0.5023(4)
C49F C 0.7255(4) 0.6595(6) 0.4769(4)
H48F H 0.7256 0.7016 0.4929
H49F H 0.6942 0.6477 0.4600
C50F C 0.7527(4) 0.6678(6) 0.4460(4)
H50F H 0.7376 0.7001 0.4225
H51F H 0.7828 0.6854 0.4625
C51F C 0.7570(4) 0.6016(6) 0.4260(4)
H52F H 0.7270 0.5860 0.4074
H53F H 0.7757 0.6067 0.4070
C52F C 0.7627(3) 0.1452(5) 0.4052(4)
H54F H 0.7674 0.1303 0.4343
C53F C 0.7736(4) 0.1885(6) 0.3481(4)
C54F C 0.7300(3) 0.1662(6) 0.3358(3)
C55F C 0.6915(4) 0.1598(6) 0.2966(4)
C56F C 0.6540(4) 0.1715(8) 0.2174(4)
H55F H 0.6532 0.1282 0.2025
H56F H 0.6554 0.2075 0.1970
C57F C 0.6141(4) 0.1792(8) 0.2295(4)
H57F H 0.6119 0.2260 0.2384
H58F H 0.5874 0.1696 0.2036
C58F C 0.6140(3) 0.1337(7) 0.2663(4)
H59F H 0.6086 0.0874 0.2551
H60F H 0.5890 0.1464 0.2767
C59F C 0.8051(4) 0.2229(6) 0.3295(4)
C60F C 0.8812(3) 0.2535(6) 0.3414(3)
H61F H 0.8865 0.2997 0.3527
H62F H 0.9098 0.2286 0.3530
C61F C 0.8659(3) 0.2544(6) 0.2915(4)
H63F H 0.8648 0.2081 0.2806
H64F H 0.8879 0.2794 0.2819
C62F C 0.8207(4) 0.2858(7) 0.2719(4)
H65F H 0.8101 0.2811 0.2396
H66F H 0.8221 0.3339 0.2793
C63F C 0.6406(4) 0.4188(6) 0.3282(4)
C64F C 0.5615(3) 0.3977(7) 0.2985(3)
H67F H 0.5442 0.3579 0.3014
H68F H 0.5437 0.4376 0.2998
C65F C 0.6010(4) 0.4403(10) 0.2501(4)
H69F H 0.6090 0.4274 0.2241
H70F H 0.5886 0.4861 0.2452
C66F C 0.5680(4) 0.3957(9) 0.2548(4)
H71F H 0.5390 0.4061 0.2318
H72F H 0.5763 0.3497 0.2495
N1F N 0.6707(3) 0.4058(4) 0.4047(3)
N2F N 0.7421(3) 0.4351(4) 0.4248(3)
N3F N 0.6040(2) 0.3994(4) 0.3358(3)
N4F N 0.6417(3) 0.4393(7) 0.2899(4)
N5F N 0.7496(3) 0.4573(7) 0.3168(4)
N6F N 0.7946(3) 0.4840(5) 0.3888(3)
N7F N 0.8268(3) 0.3825(5) 0.4444(3)
N8F N 0.8471(3) 0.2826(4) 0.4302(3)
N9F N 0.9646(3) 0.3162(5) 0.4587(3)
N10F N 0.9188(2) 0.2223(5) 0.4375(3)
N11F N 0.8646(3) 0.4937(5) 0.4732(3)
N12F N 0.9367(5) 0.4504(5) 0.4984(5)
N13F N 0.7939(3) 0.1738(4) 0.3927(3)
N14F N 0.7240(3) 0.1396(5) 0.3726(3)
N15F N 0.6559(3) 0.1357(4) 0.3035(3)
N16F N 0.6935(3) 0.1745(6) 0.2569(4)
N17F N 0.7902(3) 0.2509(6) 0.2906(4)
N18F N 0.8471(3) 0.2216(5) 0.3563(3)
N19F N 0.6415(2) 0.1876(5) 0.3760(3)
N20F N 0.6210(3) 0.2884(4) 0.3863(2)
N21F N 0.6038(3) 0.0757(5) 0.3501(3)
N22F N 0.5383(3) 0.1032(5) 0.3651(3)
N23F N 0.5502(3) 0.3491(5) 0.3840(3)
N24F N 0.5032(3) 0.2545(5) 0.3609(3)
N25F N 0.6796(2) 0.0726(5) 0.4210(3)
N26F N 0.8041(3) 0.4512(5) 0.5085(3)
N27F N 0.7772(2) 0.5522(4) 0.4599(3)
N28F N 0.7535(3) -0.1061(5) 0.4923(3)
N29F N 0.7066(3) -0.0865(6) 0.3864(3)
N30F N 0.6862(3) 0.0171(5) 0.3528(3)
N31F N 0.6221(2) 0.3686(5) 0.4572(3)
N32F N 0.8628(2) 0.1583(5) 0.4727(3)
N33F N 0.8686(3) 0.1022(5) 0.4046(3)
N34F N 0.6338(4) 0.5078(6) 0.5689(4)
N35F N 0.5964(3) 0.5414(5) 0.4678(3)
N36F N 0.5990(3) 0.4708(5) 0.4095(3)
H73F H 0.764(3) 0.266(4) 0.273(3)
H74F H 0.763(3) -0.101(4) 0.469(3)
H75F H 0.659(3) 0.466(4) 0.284(3)
H76F H 0.731(3) 0.443(5) 0.302(3)
H77F H 0.715(3) 0.180(5) 0.253(3)
H78F H 0.942(5) 0.426(6) 0.503(5)
H79F H 0.710(3) -0.109(5) 0.408(3)
H80F H 0.966(3) 0.353(4) 0.449(3)
H81F H 0.643(3) 0.521(5) 0.555(3)
B1 B 0.0478(5) 0.3714(9) 0.5834(6)
F1 F 0.0014(2) 0.3683(4) 0.5635(2)
F2 F 0.0612(2) 0.4381(4) 0.5782(3)
F3 F 0.0682(3) 0.3277(5) 0.5659(3)
F4 F 0.0568(2) 0.3625(4) 0.6278(3)
B2 B 0.8071(6) 0.1471(12) 0.7791(7)
F5 F 0.7798(2) 0.1799(5) 0.7970(3)
F6 F 0.8041(2) 0.0778(5) 0.7798(2)
F7 F 0.8523(2) 0.1624(4) 0.8020(3)
F8 F 0.7963(2) 0.1654(4) 0.7358(3)
B3 B 1.0000 0.2894(16) 0.7500
F9 F 0.9631(3) 0.2514(5) 0.7313(3)
F10 F 1.0078(2) 0.3307(5) 0.7189(2)
F9A F 1.0369(3) 0.2514(5) 0.7687(3)
F10A F 0.9922(2) 0.3307(5) 0.7811(2)
B4 B 0.6462(5) 0.2004(7) 0.9345(5)
F11 F 0.6868(4) 0.2041(5) 0.9281(4)
F12 F 0.6251(5) 0.2513(6) 0.9078(6)
F13 F 0.6273(3) 0.1432(5) 0.9127(4)
F14 F 0.6510(6) 0.2107(9) 0.9775(5)
B5 B 0.5860(6) 0.0762(8) 0.7149(6)
F15 F 0.6259(9) 0.0697(18) 0.7062(11)
F16 F 0.5544(4) 0.1080(7) 0.6804(4)
F17 F 0.5526(10) 0.0890(18) 0.7340(11)
F18 F 0.6122(5) 0.1105(8) 0.7521(5)
C67 C 0.8353(4) 0.2669(8) 0.8936(4)
H82 H 0.8046 0.2664 0.8729
H83 H 0.8564 0.2634 0.8774
H84 H 0.8406 0.3087 0.9103
C68 C 0.8853(4) 0.2038(8) 0.9566(5)
H85 H 0.8863 0.2296 0.9827
H86 H 0.9081 0.2207 0.9450
H87 H 0.8911 0.1567 0.9646
C69 C 0.8106(4) 0.1677(7) 0.9225(5)
H88 H 0.7821 0.1747 0.9009
N37 N 0.8418(3) 0.2105(5) 0.9238(3)
O1 O 0.8145(3) 0.1188(5) 0.9467(3)
O2 O 0.4481(3) 0.0696(5) 0.9019(3)
O3 O 0.4908(12) 0.300(2) 0.8489(13)
O4 O 0.507(4) 0.217(8) 0.835(4)
O5 O 0.5623(17) 0.198(3) 0.8041(15)
O6 O 0.667(3) 0.408(5) 0.756(3)
O7 O 0.691(2) 0.306(3) 0.8249(18)
O8 O 0.7258(15) 0.359(2) 0.7719(18)
O9 O 0.586(3) 0.322(5) 0.787(3)
loop_
_geom_bond_atom_site_label_1
_geom_bond_atom_site_label_2
_geom_bond_site_symmetry_1
_geom_bond_site_symmetry_2
Co1 N2 1_555 1_555
Co2 N1 1_555 1_555
Co3 N14 1_555 1_555
Co4 N8 1_555 1_555
C1 H1 1_555 1_555
C2 C3 1_555 1_555
C3 C63 1_555 1_555
C4 C2 1_555 1_555
C5 C6 1_555 1_555
C6 C7 1_555 1_555
C7 N6 1_555 1_555
C8 H2 1_555 1_555
C9 C10 1_555 1_555
C10 C11 1_555 1_555
C11 N9 1_555 1_555
C12 H3 1_555 1_555
H4 C12 1_555 1_555
C13 C12 1_555 1_555
H5 C13 1_555 1_555
H6 C13 1_555 1_555
C14 C13 1_555 1_555
H7 C14 1_555 1_555
H8 C14 1_555 1_555
C15 C9 1_555 1_555
C16 H9 1_555 1_555
H10 C16 1_555 1_555
C17 C16 1_555 1_555
H11 C17 1_555 1_555
H12 C17 1_555 1_555
C18 C17 1_555 1_555
H13 C18 1_555 1_555
H14 C18 1_555 1_555
C19 H15 1_555 1_555
C20 C21 1_555 1_555
C21 C22 1_555 1_555
C22 N21 1_555 1_555
C23 H16 1_555 1_555
H17 C23 1_555 1_555
C24 C23 1_555 1_555
H18 C24 1_555 1_555
H19 C24 1_555 1_555
C25 C24 1_555 1_555
H20 C25 1_555 1_555
H21 C25 1_555 1_555
C26 C20 1_555 1_555
C27 H22 1_555 1_555
H23 C27 1_555 1_555
C28 C27 1_555 1_555
H24 C28 1_555 1_555
H25 C28 1_555 1_555
C29 C28 1_555 1_555
H26 C29 1_555 1_555
H27 C29 1_555 1_555
C30 H28 1_555 1_555
C31 C32 1_555 1_555
C32 C33 1_555 1_555
C33 N35 1_555 1_555
C34 H29 1_555 1_555
H30 C34 1_555 1_555
C35 C34 1_555 1_555
H31 C35 1_555 1_555
H32 C35 1_555 1_555
C36 C35 1_555 1_555
H33 C36 1_555 1_555
H34 C36 1_555 1_555
C37 C31 1_555 1_555
C38 H35 1_555 1_555
H36 C38 1_555 1_555
C39 C38 1_555 1_555
H37 C39 1_555 1_555
H38 C39 1_555 1_555
C40 C39 1_555 1_555
H39 C40 1_555 1_555
H40 C40 1_555 1_555
C41 H41 1_555 1_555
C42 C43 1_555 1_555
C43 C48 1_555 1_555
C44 C42 1_555 1_555
C45 H42 1_555 1_555
H43 C45 1_555 1_555
C46 C45 1_555 1_555
H44 C46 1_555 1_555
H45 C46 1_555 1_555
C47 C46 1_555 1_555
H46 C47 1_555 1_555
H47 C47 1_555 1_555
C48 N28 1_555 1_555
C49 H48 1_555 1_555
H49 C49 1_555 1_555
C50 C49 1_555 1_555
H50 C50 1_555 1_555
H51 C50 1_555 1_555
C51 C50 1_555 1_555
H52 C51 1_555 1_555
H53 C51 1_555 1_555
C52 H54 1_555 1_555
C53 C54 1_555 1_555
C54 C55 1_555 1_555
C55 N15 1_555 1_555
C56 H55 1_555 1_555
H56 C56 1_555 1_555
C57 C56 1_555 1_555
H57 C57 1_555 1_555
H58 C57 1_555 1_555
C58 C57 1_555 1_555
H59 C58 1_555 1_555
H60 C58 1_555 1_555
C59 C53 1_555 1_555
C60 H61 1_555 1_555
H62 C60 1_555 1_555
C61 C60 1_555 1_555
H63 C61 1_555 1_555
H64 C61 1_555 1_555
C62 C61 1_555 1_555
H65 C62 1_555 1_555
H66 C62 1_555 1_555
C63 N3 1_555 1_555
C64 H67 1_555 1_555
H68 C64 1_555 1_555
C65 H69 1_555 1_555
H70 C65 1_555 1_555
C66 C64 1_555 1_555
H71 C66 1_555 1_555
H72 C66 1_555 1_555
N1 C1 1_555 1_555
N2 C1 1_555 1_555
N3 Co2 1_555 1_555
N4 C63 1_555 1_555
N5 C4 1_555 1_555
N6 Co1 1_555 1_555
N7 Co1 1_555 1_555
N8 C8 1_555 1_555
N9 C12 1_555 1_555
N10 Co4 1_555 1_555
N11 Co1 1_555 1_555
N12 C15 1_555 1_555
N13 Co4 1_555 1_555
N14 C52 1_555 1_555
N15 Co3 1_555 1_555
N16 C55 1_555 1_555
N17 C59 1_555 1_555
N18 Co4 1_555 1_555
N19 Co3 1_555 1_555
N20 Co2 1_555 1_555
N21 Co3 1_555 1_555
N22 C22 1_555 1_555
N23 Co2 1_555 1_555
N24 C26 1_555 1_555
N25 Co3 1_555 1_555
N26 Co1 1_555 1_555
N27 Co1 1_555 1_555
N28 H74 1_555 1_555
N29 C44 1_555 1_555
N30 Co3 1_555 1_555
N31 Co2 1_555 1_555
N32 Co4 1_555 1_555
N33 Co4 1_555 1_555
N34 C37 1_555 1_555
N35 C34 1_555 1_555
N36 Co2 1_555 1_555
H73 N17 1_555 1_555
H75 N4 1_555 1_555
H76 N5 1_555 1_555
H77 N16 1_555 1_555
H78 N12 1_555 1_555
H79 N29 1_555 1_555
H80 N9 1_555 1_555
H81 N34 1_555 1_555
B1 F1 1_555 1_555
F2 B1 1_555 1_555
F3 B1 1_555 1_555
F4 B1 1_555 1_555
B2 F5 1_555 1_555
F6 B2 1_555 1_555
F7 B2 1_555 1_555
F8 B2 1_555 1_555
B3 F9 1_555 1_555
F10 B3 1_555 1_555
B4 F11 1_555 1_555
F12 B4 1_555 1_555
F13 B4 1_555 1_555
F14 B4 1_555 1_555
B5 F15 1_555 1_555
F16 B5 1_555 1_555
F17 B5 1_555 1_555
F18 B5 1_555 1_555
C67 H82 1_555 1_555
H83 C67 1_555 1_555
H84 C67 1_555 1_555
C68 H85 1_555 1_555
H86 C68 1_555 1_555
H87 C68 1_555 1_555
C69 H88 1_555 1_555
N37 C67 1_555 1_555
O1 C69 1_555 1_555
Co1F N2F 1_555 1_555
Co2F N1F 1_555 1_555
Co3F N14F 1_555 1_555
Co4F N8F 1_555 1_555
C1F H1F 1_555 1_555
C2F C3F 1_555 1_555
C3F C63F 1_555 1_555
C4F C2F 1_555 1_555
C5F C6F 1_555 1_555
C6F C7F 1_555 1_555
C7F N6F 1_555 1_555
C8F H2F 1_555 1_555
C9F C10F 1_555 1_555
C10F C11F 1_555 1_555
C11F N9F 1_555 1_555
C12F H3F 1_555 1_555
H4F C12F 1_555 1_555
C13F C12F 1_555 1_555
H5F C13F 1_555 1_555
H6F C13F 1_555 1_555
C14F C13F 1_555 1_555
H7F C14F 1_555 1_555
H8F C14F 1_555 1_555
C15F C9F 1_555 1_555
C16F H9F 1_555 1_555
H10F C16F 1_555 1_555
C17F C16F 1_555 1_555
H11F C17F 1_555 1_555
H12F C17F 1_555 1_555
C18F C17F 1_555 1_555
H13F C18F 1_555 1_555
H14F C18F 1_555 1_555
C19F H15F 1_555 1_555
C20F C21F 1_555 1_555
C21F C22F 1_555 1_555
C22F N21F 1_555 1_555
C23F H16F 1_555 1_555
H17F C23F 1_555 1_555
C24F C23F 1_555 1_555
H18F C24F 1_555 1_555
H19F C24F 1_555 1_555
C25F C24F 1_555 1_555
H20F C25F 1_555 1_555
H21F C25F 1_555 1_555
C26F C20F 1_555 1_555
C27F H22F 1_555 1_555
H23F C27F 1_555 1_555
C28F C27F 1_555 1_555
H24F C28F 1_555 1_555
H25F C28F 1_555 1_555
C29F C28F 1_555 1_555
H26F C29F 1_555 1_555
H27F C29F 1_555 1_555
C30F N32 1_555 1_555
H28F C30F 1_555 1_555
C31F N32 1_555 1_555
C32F C31F 1_555 1_555
C33F C32F 1_555 1_555
C34F H29F 1_555 1_555
H30F C34F 1_555 1_555
C35F C34F 1_555 1_555
H31F C35F 1_555 1_555
H32F C35F 1_555 1_555
C36F C35F 1_555 1_555
H33F C36F 1_555 1_555
H34F C36F 1_555 1_555
C37F N33 1_555 1_555
C38F H35F 1_555 1_555
H36F C38F 1_555 1_555
C39F C38F 1_555 1_555
H37F C39F 1_555 1_555
H38F C39F 1_555 1_555
C40F N34 1_555 1_555
H39F C40F 1_555 1_555
H40F C40F 1_555 1_555
C41F N26 1_555 1_555
H41F C41F 1_555 1_555
C42F C43F 1_555 1_555
C43F N26 1_555 1_555
C44F C42F 1_555 1_555
C45F H42F 1_555 1_555
H43F C45F 1_555 1_555
C46F C45F 1_555 1_555
H44F C46F 1_555 1_555
H45F C46F 1_555 1_555
C47F C46F 1_555 1_555
H46F C47F 1_555 1_555
H47F C47F 1_555 1_555
C48F N27 1_555 1_555
C49F N28 1_555 1_555
H48F C49F 1_555 1_555
H49F C49F 1_555 1_555
C50F C49F 1_555 1_555
H50F C50F 1_555 1_555
H51F C50F 1_555 1_555
C51F C50F 1_555 1_555
H52F C51F 1_555 1_555
H53F C51F 1_555 1_555
C52F H54F 1_555 1_555
C53F C54F 1_555 1_555
C54F C55F 1_555 1_555
C55F N15F 1_555 1_555
C56F H55F 1_555 1_555
H56F C56F 1_555 1_555
C57F C56F 1_555 1_555
H57F C57F 1_555 1_555
H58F C57F 1_555 1_555
C58F C57F 1_555 1_555
H59F C58F 1_555 1_555
H60F C58F 1_555 1_555
C59F C53F 1_555 1_555
C60F H61F 1_555 1_555
H62F C60F 1_555 1_555
C61F C60F 1_555 1_555
H63F C61F 1_555 1_555
H64F C61F 1_555 1_555
C62F C61F 1_555 1_555
H65F C62F 1_555 1_555
H66F C62F 1_555 1_555
C63F N3F 1_555 1_555
C64F H67F 1_555 1_555
H68F C64F 1_555 1_555
C65F H69F 1_555 1_555
H70F C65F 1_555 1_555
C66F C64F 1_555 1_555
H71F C66F 1_555 1_555
H72F C66F 1_555 1_555
N1F C1F 1_555 1_555
N2F C1F 1_555 1_555
N3F Co2F 1_555 1_555
N4F C63F 1_555 1_555
N5F C4F 1_555 1_555
N6F Co1F 1_555 1_555
N7F Co1F 1_555 1_555
N8F C8F 1_555 1_555
N9F C12F 1_555 1_555
N10F Co4F 1_555 1_555
N11F Co1F 1_555 1_555
N12F C15F 1_555 1_555
N13F Co4F 1_555 1_555
N14F C52F 1_555 1_555
N15F Co3F 1_555 1_555
N16F C55F 1_555 1_555
N17F C59F 1_555 1_555
N18F Co4F 1_555 1_555
N19F Co3F 1_555 1_555
N20F Co2F 1_555 1_555
N21F Co3F 1_555 1_555
N22F C22F 1_555 1_555
N23F Co2F 1_555 1_555
N24F C26F 1_555 1_555
N25F Co3F 1_555 1_555
N26F C41 1_555 1_555
N27F C48 1_555 1_555
N28F C49 1_555 1_555
N29F C44F 1_555 1_555
N30F Co3F 1_555 1_555
N31F Co2F 1_555 1_555
N32F C30 1_555 1_555
N33F C37 1_555 1_555
N34F C40 1_555 1_555
N35F C33F 1_555 1_555
N36F Co2F 1_555 1_555
H73F N17F 1_555 1_555
H74F N28F 1_555 1_555
H75F N4F 1_555 1_555
H76F N5F 1_555 1_555
H77F N16F 1_555 1_555
H78F N12F 1_555 1_555
H79F N29F 1_555 1_555
H80F N9F 1_555 1_555
H81F N34F 1_555 1_555
F9A B3 1_555 1_555
F10A B3 1_555 1_555
C2 N2 1_555 1_555
C3 N1 1_555 1_555
C4 N6 1_555 1_555
C5 N5 1_555 1_555
C8 N7 1_555 1_555
C9 N7 1_555 1_555
C10 N8 1_555 1_555
C11 N10 1_555 1_555
C14 N10 1_555 1_555
C15 N11 1_555 1_555
C16 N11 1_555 1_555
C18 N12 1_555 1_555
C19 N19 1_555 1_555
C19 N20 1_555 1_555
C20 N20 1_555 1_555
C21 N19 1_555 1_555
C23 N21 1_555 1_555
C25 N22 1_555 1_555
C26 N23 1_555 1_555
C27 N24 1_555 1_555
C29 N23 1_555 1_555
C30 N31 1_555 1_555
C31 N32F 1_555 1_555
C32 N31 1_555 1_555
C33 N36 1_555 1_555
C36 N36 1_555 1_555
C38 N33 1_555 1_555
C41 N25 1_555 1_555
C42 N25 1_555 1_555
C43 N26F 1_555 1_555
C44 N30 1_555 1_555
C45 N30 1_555 1_555
C47 N29 1_555 1_555
C51 N27 1_555 1_555
C52 N13 1_555 1_555
C53 N13 1_555 1_555
C54 N14 1_555 1_555
C56 N16 1_555 1_555
C58 N15 1_555 1_555
C59 N18 1_555 1_555
C60 N18 1_555 1_555
C62 N17 1_555 1_555
C64 N3 1_555 1_555
C65 C66 1_555 1_555
C65 N4 1_555 1_555
C68 N37 1_555 1_555
C69 N37 1_555 1_555
Co1F N26F 1_555 1_555
Co1F N27F 1_555 1_555
Co4F N32F 1_555 1_555
Co4F N33F 1_555 1_555
C2F N2F 1_555 1_555
C3F N1F 1_555 1_555
C4F N6F 1_555 1_555
C5F N5F 1_555 1_555
C8F N7F 1_555 1_555
C9F N7F 1_555 1_555
C10F N8F 1_555 1_555
C11F N10F 1_555 1_555
C14F N10F 1_555 1_555
C15F N11F 1_555 1_555
C16F N11F 1_555 1_555
C18F N12F 1_555 1_555
C19F N19F 1_555 1_555
C19F N20F 1_555 1_555
C20F N20F 1_555 1_555
C21F N19F 1_555 1_555
C23F N21F 1_555 1_555
C25F N22F 1_555 1_555
C26F N23F 1_555 1_555
C27F N24F 1_555 1_555
C29F N23F 1_555 1_555
C30F N31F 1_555 1_555
C31F C37F 1_555 1_555
C32F N31F 1_555 1_555
C33F N36F 1_555 1_555
C34F N35F 1_555 1_555
C36F N36F 1_555 1_555
C37F N34F 1_555 1_555
C38F N33F 1_555 1_555
C39F C40F 1_555 1_555
C41F N25F 1_555 1_555
C42F N25F 1_555 1_555
C43F C48F 1_555 1_555
C44F N30F 1_555 1_555
C45F N30F 1_555 1_555
C47F N29F 1_555 1_555
C48F N28F 1_555 1_555
C51F N27F 1_555 1_555
C52F N13F 1_555 1_555
C53F N13F 1_555 1_555
C54F N14F 1_555 1_555
C56F N16F 1_555 1_555
C58F N15F 1_555 1_555
C59F N18F 1_555 1_555
C60F N18F 1_555 1_555
C62F N17F 1_555 1_555
C64F N3F 1_555 1_555
C65F C66F 1_555 1_555
C65F N4F 1_555 1_555

#END
