# generated using pymatgen
data_Co8B13H178C140N74(O31F40)2
_symmetry_space_group_name_H-M   'P 1'
_cell_length_a   18.75052305
_cell_length_b   18.75052305
_cell_length_c   32.30900000
_cell_angle_alpha   73.61394978
_cell_angle_beta   73.61394978
_cell_angle_gamma   64.62974702
_symmetry_Int_Tables_number   1
_chemical_formula_structural   Co8B13H178C140N74(O31F40)2
_chemical_formula_sum   'Co16 B26 H356 C280 N148 O124 F160'
_cell_volume   9675.04098250
_cell_formula_units_Z   2
loop_
 _symmetry_equiv_pos_site_id
 _symmetry_equiv_pos_as_xyz
  1  'x, y, z'
loop_
 _atom_site_type_symbol
 _atom_site_label
 _atom_site_symmetry_multiplicity
 _atom_site_fract_x
 _atom_site_fract_y
 _atom_site_fract_z
 _atom_site_occupancy
  B  B1  1  0.419200  0.676400  0.416600  1
  B  B2  1  0.323600  0.580800  0.083400  1
  B  B3  1  0.580800  0.323600  0.583400  1
  B  B4  1  0.676400  0.419200  0.916600  1
  B  B5  1  0.954200  0.660000  0.220900  1
  B  B6  1  0.340000  0.045800  0.279100  1
  B  B7  1  0.045800  0.340000  0.779100  1
  B  B8  1  0.660000  0.954200  0.720900  1
  B  B9  1  0.289400  0.710600  0.250000  1
  B  B10  1  0.710600  0.289400  0.750000  1
  B  B11  1  0.846600  0.445800  0.065500  1
  B  B12  1  0.554200  0.153400  0.434500  1
  B  B13  1  0.153400  0.554200  0.934500  1
  B  B14  1  0.445800  0.846600  0.565500  1
  B  B15  1  0.662200  0.509800  0.285100  1
  B  B16  1  0.490200  0.337800  0.214900  1
  B  B17  1  0.337800  0.490200  0.714900  1
  B  B18  1  0.509800  0.662200  0.785100  1
  B  B19  1  1.000000  0.500000  0.500000  1
  B  B20  1  0.500000  0.000000  0.000000  1
  B  B21  1  0.000000  0.000000  0.500000  1
  B  B22  1  0.000000  0.000000  0.000000  1
  B  B23  1  0.879000  0.058800  0.189400  1
  B  B24  1  0.941200  0.121000  0.310600  1
  B  B25  1  0.121000  0.941200  0.810600  1
  B  B26  1  0.058800  0.879000  0.689400  1
  C  C27  1  0.102200  0.568400  0.106400  1
  C  C28  1  0.431600  0.897800  0.393600  1
  C  C29  1  0.897800  0.431600  0.893600  1
  C  C30  1  0.568400  0.102200  0.606400  1
  C  C31  1  0.089100  0.681500  0.043400  1
  C  C32  1  0.318500  0.910900  0.456600  1
  C  C33  1  0.910900  0.318500  0.956600  1
  C  C34  1  0.681500  0.089100  0.543400  1
  C  C35  1  0.978300  0.642900  0.077500  1
  C  C36  1  0.357100  0.021700  0.422500  1
  C  C37  1  0.021700  0.357100  0.922500  1
  C  C38  1  0.642900  0.978300  0.577500  1
  C  C39  1  0.660200  0.716800  0.326800  1
  C  C40  1  0.283200  0.339800  0.173200  1
  C  C41  1  0.339800  0.283200  0.673200  1
  C  C42  1  0.716800  0.660200  0.826800  1
  C  C43  1  0.876800  0.706200  0.437900  1.0
  C  C44  1  0.293800  0.123200  0.062100  1.0
  C  C45  1  0.123200  0.293800  0.562100  1.0
  C  C46  1  0.706200  0.876800  0.937900  1.0
  C  C47  1  0.836900  0.714500  0.379300  1.0
  C  C48  1  0.285500  0.163100  0.120700  1.0
  C  C49  1  0.163100  0.285500  0.620700  1.0
  C  C50  1  0.714500  0.836900  0.879300  1.0
  C  C51  1  0.898600  0.741200  0.366800  1.0
  C  C52  1  0.258800  0.101400  0.133200  1.0
  C  C53  1  0.101400  0.258800  0.633200  1.0
  C  C54  1  0.741200  0.898600  0.866800  1.0
  C  C55  1  0.780000  0.703600  0.360600  1.0
  C  C56  1  0.296400  0.220000  0.139400  1.0
  C  C57  1  0.220000  0.296400  0.639400  1.0
  C  C58  1  0.703600  0.780000  0.860600  1.0
  C  C59  1  0.739700  0.696100  0.295800  1.0
  C  C60  1  0.303900  0.260300  0.204200  1.0
  C  C61  1  0.260300  0.303900  0.704200  1.0
  C  C62  1  0.696100  0.739700  0.795800  1.0
  C  C63  1  0.701200  0.638600  0.331600  1.0
  C  C64  1  0.361400  0.298800  0.168400  1.0
  C  C65  1  0.298800  0.361400  0.668400  1.0
  C  C66  1  0.638600  0.701200  0.831600  1.0
  C  C67  1  0.661200  0.675000  0.373400  1.0
  C  C68  1  0.325000  0.338800  0.126600  1.0
  C  C69  1  0.338800  0.325000  0.626600  1.0
  C  C70  1  0.675000  0.661200  0.873400  1.0
  C  C71  1  0.865600  0.510400  0.428500  1.0
  C  C72  1  0.489600  0.134400  0.071500  1.0
  C  C73  1  0.134400  0.489600  0.571500  1.0
  C  C74  1  0.510400  0.865600  0.928500  1.0
  C  C75  1  0.744000  0.510400  0.455600  1.0
  C  C76  1  0.489600  0.256000  0.044400  1.0
  C  C77  1  0.256000  0.489600  0.544400  1.0
  C  C78  1  0.510400  0.744000  0.955600  1.0
  C  C79  1  0.793500  0.435500  0.446500  1.0
  C  C80  1  0.564500  0.206500  0.053500  1.0
  C  C81  1  0.206500  0.564500  0.553500  1.0
  C  C82  1  0.435500  0.793500  0.946500  1.0
  C  C83  1  0.789400  0.359600  0.447800  1.0
  C  C84  1  0.640400  0.210600  0.052200  1.0
  C  C85  1  0.210600  0.640400  0.552200  1.0
  C  C86  1  0.359600  0.789400  0.947800  1.0
  C  C87  1  0.714500  0.275100  0.461200  1.0
  C  C88  1  0.724900  0.285500  0.038800  1.0
  C  C89  1  0.285500  0.724900  0.538800  1.0
  C  C90  1  0.275100  0.714500  0.961200  1.0
  C  C91  1  0.791500  0.208900  0.475200  1.0
  C  C92  1  0.791100  0.208500  0.024800  1.0
  C  C93  1  0.208500  0.791100  0.524800  1.0
  C  C94  1  0.208900  0.791500  0.975200  1.0
  C  C95  1  0.864100  0.220300  0.442600  1.0
  C  C96  1  0.779700  0.135900  0.057400  1.0
  C  C97  1  0.135900  0.779700  0.557400  1.0
  C  C98  1  0.220300  0.864100  0.942600  1.0
  C  C99  1  0.661800  0.553400  0.476100  1.0
  C  C100  1  0.446600  0.338200  0.023900  1.0
  C  C101  1  0.338200  0.446600  0.523900  1.0
  C  C102  1  0.553400  0.661800  0.976100  1.0
  C  C103  1  0.560600  0.677200  0.495200  1.0
  C  C104  1  0.322800  0.439400  0.004800  1.0
  C  C105  1  0.439400  0.322800  0.504800  1.0
  C  C106  1  0.677200  0.560600  0.995200  1.0
  C  C107  1  0.533100  0.625700  0.535800  1.0
  C  C108  1  0.374300  0.466900  0.964200  1.0
  C  C109  1  0.466900  0.374300  0.464200  1.0
  C  C110  1  0.625700  0.533100  0.035800  1.0
  C  C111  1  0.535200  0.552200  0.524000  1.0
  C  C112  1  0.447800  0.464800  0.976000  1.0
  C  C113  1  0.464800  0.447800  0.476000  1.0
  C  C114  1  0.552200  0.535200  0.024000  1.0
  C  C115  1  0.094600  0.596400  0.384600  1.0
  C  C116  1  0.403600  0.905400  0.115400  1.0
  C  C117  1  0.905400  0.403600  0.615400  1.0
  C  C118  1  0.596400  0.094600  0.884600  1.0
  C  C119  1  0.167400  0.665000  0.377700  1.0
  C  C120  1  0.335000  0.832600  0.122300  1.0
  C  C121  1  0.832600  0.335000  0.622300  1.0
  C  C122  1  0.665000  0.167400  0.877700  1.0
  C  C123  1  0.217800  0.588400  0.372400  1.0
  C  C124  1  0.411600  0.782200  0.127600  1.0
  C  C125  1  0.782200  0.411600  0.627600  1.0
  C  C126  1  0.588400  0.217800  0.872400  1.0
  C  C127  1  0.304200  0.539800  0.361100  1.0
  C  C128  1  0.460200  0.695800  0.138900  1.0
  C  C129  1  0.695800  0.460200  0.638900  1.0
  C  C130  1  0.539800  0.304200  0.861100  1.0
  C  C131  1  0.405600  0.422000  0.336900  1.0
  C  C132  1  0.578000  0.594400  0.163100  1.0
  C  C133  1  0.594400  0.578000  0.663100  1.0
  C  C134  1  0.422000  0.405600  0.836900  1.0
  C  C135  1  0.453400  0.473600  0.316700  1.0
  C  C136  1  0.526400  0.546600  0.183300  1.0
  C  C137  1  0.546600  0.526400  0.683300  1.0
  C  C138  1  0.473600  0.453400  0.816700  1.0
  C  C139  1  0.445500  0.522900  0.347100  1.0
  C  C140  1  0.477100  0.554500  0.152900  1.0
  C  C141  1  0.554500  0.477100  0.652900  1.0
  C  C142  1  0.522900  0.445500  0.847100  1.0
  C  C143  1  0.171000  0.744000  0.374000  1.0
  C  C144  1  0.256000  0.829000  0.126000  1.0
  C  C145  1  0.829000  0.256000  0.626000  1.0
  C  C146  1  0.744000  0.171000  0.874000  1.0
  C  C147  1  0.244400  0.831600  0.356100  1.0
  C  C148  1  0.168400  0.755600  0.143900  1.0
  C  C149  1  0.755600  0.168400  0.643900  1.0
  C  C150  1  0.831600  0.244400  0.856100  1.0
  C  C151  1  0.177400  0.877200  0.386200  1.0
  C  C152  1  0.122800  0.822600  0.113800  1.0
  C  C153  1  0.822600  0.122800  0.613800  1.0
  C  C154  1  0.877200  0.177400  0.886200  1.0
  C  C155  1  0.097800  0.878800  0.383200  1.0
  C  C156  1  0.121200  0.902200  0.116800  1.0
  C  C157  1  0.902200  0.121200  0.616800  1.0
  C  C158  1  0.878800  0.097800  0.883200  1.0
  C  C159  1  0.047300  0.687500  0.487000  1.0
  C  C160  1  0.312500  0.952700  0.013000  1.0
  C  C161  1  0.952700  0.312500  0.513000  1.0
  C  C162  1  0.687500  0.047300  0.987000  1.0
  C  C163  1  0.961000  0.781200  0.523200  1.0
  C  C164  1  0.218800  0.039000  0.976800  1.0
  C  C165  1  0.039000  0.218800  0.476800  1.0
  C  C166  1  0.781200  0.961000  0.023200  1.0
  C  C167  1  0.954900  0.807500  0.479800  1.0
  C  C168  1  0.192500  0.045100  0.020200  1.0
  C  C169  1  0.045100  0.192500  0.520200  1.0
  C  C170  1  0.807500  0.954900  0.979800  1.0
  C  C171  1  0.913300  0.879100  0.450500  1.0
  C  C172  1  0.120900  0.086700  0.049500  1.0
  C  C173  1  0.086700  0.120900  0.549500  1.0
  C  C174  1  0.879100  0.913300  0.950500  1.0
  C  C175  1  0.822100  0.019700  0.437300  1.0
  C  C176  1  0.980300  0.177900  0.062700  1.0
  C  C177  1  0.177900  0.980300  0.562700  1.0
  C  C178  1  0.019700  0.822100  0.937300  1.0
  C  C179  1  0.811500  0.997300  0.399300  1.0
  C  C180  1  0.002700  0.188500  0.100700  1.0
  C  C181  1  0.188500  0.002700  0.600700  1.0
  C  C182  1  0.997300  0.811500  0.899300  1.0
  C  C183  1  0.889300  0.941700  0.378300  1.0
  C  C184  1  0.058300  0.110700  0.121700  1.0
  C  C185  1  0.110700  0.058300  0.621700  1.0
  C  C186  1  0.941700  0.889300  0.878300  1.0
  C  C187  1  0.927000  0.810000  0.564400  1.0
  C  C188  1  0.190000  0.073000  0.935600  1.0
  C  C189  1  0.073000  0.190000  0.435600  1.0
  C  C190  1  0.810000  0.927000  0.064400  1.0
  C  C191  1  0.056900  0.207300  0.362000  1.0
  C  C192  1  0.792700  0.943100  0.138000  1.0
  C  C193  1  0.943100  0.792700  0.638000  1.0
  C  C194  1  0.207300  0.056900  0.862000  1.0
  C  C195  1  0.109400  0.117800  0.366400  1.0
  C  C196  1  0.882200  0.890600  0.133600  1.0
  C  C197  1  0.890600  0.882200  0.633600  1.0
  C  C198  1  0.117800  0.109400  0.866400  1.0
  C  C199  1  0.175700  0.097900  0.388700  1.0
  C  C200  1  0.902100  0.824300  0.111300  1.0
  C  C201  1  0.824300  0.902100  0.611300  1.0
  C  C202  1  0.097900  0.175700  0.888700  1.0
  C  C203  1  0.227000  0.415200  0.460000  1.0
  C  C204  1  0.584800  0.773000  0.040000  1.0
  C  C205  1  0.773000  0.584800  0.540000  1.0
  C  C206  1  0.415200  0.227000  0.960000  1.0
  C  C207  1  0.293500  0.310900  0.428100  1.0
  C  C208  1  0.689100  0.706500  0.071900  1.0
  C  C209  1  0.706500  0.689100  0.571900  1.0
  C  C210  1  0.310900  0.293500  0.928100  1.0
  C  C211  1  0.295000  0.285800  0.471900  1.0
  C  C212  1  0.714200  0.705000  0.028100  1.0
  C  C213  1  0.705000  0.714200  0.528100  1.0
  C  C214  1  0.285800  0.295000  0.971900  1.0
  C  C215  1  0.324800  0.280200  0.386900  1.0
  C  C216  1  0.719800  0.675200  0.113100  1.0
  C  C217  1  0.675200  0.719800  0.613100  1.0
  C  C218  1  0.280200  0.324800  0.886900  1.0
  C  C219  1  0.318100  0.305300  0.310900  1.0
  C  C220  1  0.694700  0.681900  0.189100  1.0
  C  C221  1  0.681900  0.694700  0.689100  1.0
  C  C222  1  0.305300  0.318100  0.810900  1.0
  C  C223  1  0.360700  0.216700  0.315300  1.0
  C  C224  1  0.783300  0.639300  0.184700  1.0
  C  C225  1  0.639300  0.783300  0.684700  1.0
  C  C226  1  0.216700  0.360700  0.815300  1.0
  C  C227  1  0.421000  0.180800  0.343800  1.0
  C  C228  1  0.819200  0.579000  0.156200  1.0
  C  C229  1  0.579000  0.819200  0.656200  1.0
  C  C230  1  0.180800  0.421000  0.843800  1.0
  C  C231  1  0.327700  0.212700  0.502300  1.0
  C  C232  1  0.787300  0.672300  0.997700  1.0
  C  C233  1  0.672300  0.787300  0.497700  1.0
  C  C234  1  0.212700  0.327700  0.002300  1.0
  C  C235  1  0.615000  0.934000  0.476900  1.0
  C  C236  1  0.066000  0.385000  0.023100  1.0
  C  C237  1  0.385000  0.066000  0.523100  1.0
  C  C238  1  0.934000  0.615000  0.976900  1.0
  C  C239  1  0.579500  0.915100  0.446000  1.0
  C  C240  1  0.084900  0.420500  0.054000  1.0
  C  C241  1  0.420500  0.084900  0.554000  1.0
  C  C242  1  0.915100  0.579500  0.946000  1.0
  C  C243  1  0.641400  0.844600  0.426000  1.0
  C  C244  1  0.155400  0.358600  0.074000  1.0
  C  C245  1  0.358600  0.155400  0.574000  1.0
  C  C246  1  0.844600  0.641400  0.926000  1.0
  C  C247  1  0.092100  0.382500  0.405200  1.0
  C  C248  1  0.617500  0.907900  0.094800  1.0
  C  C249  1  0.907900  0.617500  0.594800  1.0
  C  C250  1  0.382500  0.092100  0.905200  1.0
  C  C251  1  0.037900  0.414900  0.348100  1.0
  C  C252  1  0.585100  0.962100  0.151900  1.0
  C  C253  1  0.962100  0.585100  0.651900  1.0
  C  C254  1  0.414900  0.037900  0.848100  1.0
  C  C255  1  0.103800  0.436200  0.335800  1.0
  C  C256  1  0.563800  0.896200  0.164200  1.0
  C  C257  1  0.896200  0.563800  0.664200  1.0
  C  C258  1  0.436200  0.103800  0.835800  1.0
  C  C259  1  0.148700  0.468300  0.296600  1.0
  C  C260  1  0.531700  0.851300  0.203400  1.0
  C  C261  1  0.851300  0.531700  0.703400  1.0
  C  C262  1  0.468300  0.148700  0.796600  1.0
  C  C263  1  0.174500  0.517500  0.217400  1.0
  C  C264  1  0.482500  0.825500  0.282600  1.0
  C  C265  1  0.825500  0.482500  0.782600  1.0
  C  C266  1  0.517500  0.174500  0.717400  1.0
  C  C267  1  0.206700  0.565100  0.229500  1.0
  C  C268  1  0.434900  0.793300  0.270500  1.0
  C  C269  1  0.793300  0.434900  0.770500  1.0
  C  C270  1  0.565100  0.206700  0.729500  1.0
  C  C271  1  0.252300  0.519700  0.266300  1.0
  C  C272  1  0.480300  0.747700  0.233700  1.0
  C  C273  1  0.747700  0.480300  0.733700  1.0
  C  C274  1  0.519700  0.252300  0.766300  1.0
  C  C275  1  0.972000  0.417800  0.329500  1.0
  C  C276  1  0.582200  0.028000  0.170500  1.0
  C  C277  1  0.028000  0.582200  0.670500  1.0
  C  C278  1  0.417800  0.972000  0.829500  1.0
  C  C279  1  0.865300  0.372300  0.341400  1.0
  C  C280  1  0.627700  0.134700  0.158600  1.0
  C  C281  1  0.134700  0.627700  0.658600  1.0
  C  C282  1  0.372300  0.865300  0.841400  1.0
  C  C283  1  0.879700  0.388500  0.291500  1.0
  C  C284  1  0.611500  0.120300  0.208500  1.0
  C  C285  1  0.120300  0.611500  0.708500  1.0
  C  C286  1  0.388500  0.879700  0.791500  1.0
  C  C287  1  0.893500  0.465100  0.271900  1.0
  C  C288  1  0.534900  0.106500  0.228100  1.0
  C  C289  1  0.106500  0.534900  0.728100  1.0
  C  C290  1  0.465100  0.893500  0.771900  1.0
  C  C291  1  0.940600  0.778200  0.328200  1.0
  C  C292  1  0.221800  0.059400  0.171800  1.0
  C  C293  1  0.059400  0.221800  0.671800  1.0
  C  C294  1  0.778200  0.940600  0.828200  1.0
  C  C295  1  0.040800  0.836200  0.298500  1.0
  C  C296  1  0.163800  0.959200  0.201500  1.0
  C  C297  1  0.959200  0.163800  0.701500  1.0
  C  C298  1  0.836200  0.040800  0.798500  1.0
  C  C299  1  0.958700  0.839300  0.250100  1.0
  C  C300  1  0.160700  0.041300  0.249900  1.0
  C  C301  1  0.041300  0.160700  0.749900  1.0
  C  C302  1  0.839300  0.958700  0.750100  1.0
  C  C303  1  0.036300  0.827700  0.254800  1.0
  C  C304  1  0.172300  0.963700  0.245200  1.0
  C  C305  1  0.963700  0.172300  0.745200  1.0
  C  C306  1  0.827700  0.036300  0.754800  1.0
  Co  Co307  1  0.731430  0.665750  0.449660  1.0
  Co  Co308  1  0.334250  0.268570  0.050340  1.0
  Co  Co309  1  0.268570  0.334250  0.550340  1.0
  Co  Co310  1  0.665750  0.731430  0.949660  1.0
  Co  Co311  1  0.008820  0.769340  0.396220  1.0
  Co  Co312  1  0.230660  0.991180  0.103780  1.0
  Co  Co313  1  0.991180  0.230660  0.603780  1.0
  Co  Co314  1  0.769340  0.008820  0.896220  1.0
  Co  Co315  1  0.229090  0.440230  0.362510  1.0
  Co  Co316  1  0.559770  0.770910  0.137490  1.0
  Co  Co317  1  0.770910  0.559770  0.637490  1.0
  Co  Co318  1  0.440230  0.229090  0.862510  1.0
  Co  Co319  1  0.950190  0.336570  0.416130  1.0
  Co  Co320  1  0.663430  0.049810  0.083870  1.0
  Co  Co321  1  0.049810  0.663430  0.583870  1.0
  Co  Co322  1  0.336570  0.950190  0.916130  1.0
  F  F323  1  0.369700  0.633100  0.436500  1
  F  F324  1  0.366900  0.630300  0.063500  1
  F  F325  1  0.630300  0.366900  0.563500  1
  F  F326  1  0.633100  0.369700  0.936500  1
  F  F327  1  0.499300  0.623100  0.421800  1
  F  F328  1  0.376900  0.500700  0.078200  1
  F  F329  1  0.500700  0.376900  0.578200  1
  F  F330  1  0.623100  0.499300  0.921800  1
  F  F331  1  0.395900  0.740500  0.434100  1
  F  F332  1  0.259500  0.604100  0.065900  1
  F  F333  1  0.604100  0.259500  0.565900  1
  F  F334  1  0.740500  0.395900  0.934100  1
  F  F335  1  0.419300  0.694300  0.372200  1
  F  F336  1  0.305700  0.580700  0.127800  1
  F  F337  1  0.580700  0.305700  0.627800  1
  F  F338  1  0.694300  0.419300  0.872200  1
  F  F339  1  0.959700  0.599900  0.203000  1
  F  F340  1  0.400100  0.040300  0.297000  1
  F  F341  1  0.040300  0.400100  0.797000  1
  F  F342  1  0.599900  0.959700  0.703000  1
  F  F343  1  0.881900  0.726300  0.220200  1
  F  F344  1  0.273700  0.118100  0.279800  1
  F  F345  1  0.118100  0.273700  0.779800  1
  F  F346  1  0.726300  0.881900  0.720200  1
  F  F347  1  0.014700  0.689900  0.198000  1
  F  F348  1  0.310100  0.985300  0.302000  1
  F  F349  1  0.985300  0.310100  0.802000  1
  F  F350  1  0.689900  0.014700  0.698000  1
  F  F351  1  0.961700  0.630900  0.264200  1
  F  F352  1  0.369100  0.038300  0.235800  1
  F  F353  1  0.038300  0.369100  0.735800  1
  F  F354  1  0.630900  0.961700  0.764200  1
  F  F355  1  0.890900  0.482700  0.071900  1
  F  F356  1  0.517300  0.109100  0.428100  1
  F  F357  1  0.109100  0.517300  0.928100  1
  F  F358  1  0.482700  0.890900  0.571900  1
  F  F359  1  0.876400  0.373800  0.092200  1
  F  F360  1  0.626200  0.123600  0.407800  1
  F  F361  1  0.123600  0.626200  0.907800  1
  F  F362  1  0.373800  0.876400  0.592200  1
  F  F363  1  0.770500  0.484100  0.087300  1
  F  F364  1  0.515900  0.229500  0.412700  1
  F  F365  1  0.229500  0.515900  0.912700  1
  F  F366  1  0.484100  0.770500  0.587300  1
  F  F367  1  0.861700  0.440300  0.022500  1
  F  F368  1  0.559700  0.138300  0.477500  1
  F  F369  1  0.138300  0.559700  0.977500  1
  F  F370  1  0.440300  0.861700  0.522500  1
  F  F371  1  0.695600  0.556200  0.293800  1
  F  F372  1  0.443800  0.304400  0.206200  1
  F  F373  1  0.304400  0.443800  0.706200  1
  F  F374  1  0.556200  0.695600  0.793800  1
  F  F375  1  0.662400  0.446400  0.319600  1
  F  F376  1  0.553600  0.337600  0.180400  1
  F  F377  1  0.337600  0.553600  0.680400  1
  F  F378  1  0.446400  0.662400  0.819600  1
  F  F379  1  0.641600  0.463600  0.266000  1
  F  F380  1  0.536400  0.358400  0.234000  1
  F  F381  1  0.358400  0.536400  0.734000  1
  F  F382  1  0.463600  0.641600  0.766000  1
  F  F383  1  0.722700  0.501700  0.247900  1
  F  F384  1  0.498300  0.277300  0.252100  1
  F  F385  1  0.277300  0.498300  0.752100  1
  F  F386  1  0.501700  0.722700  0.747900  1
  F  F387  1  0.010800  0.508600  0.454400  1
  F  F388  1  0.491400  0.989200  0.045600  1
  F  F389  1  0.989200  0.491400  0.545600  1
  F  F390  1  0.508600  0.010800  0.954400  1
  F  F391  1  0.981400  0.540400  0.458700  1
  F  F392  1  0.459600  0.018600  0.041300  1
  F  F393  1  0.018600  0.459600  0.541300  1
  F  F394  1  0.540400  0.981400  0.958700  1
  F  F395  1  0.037000  0.422800  0.491300  1
  F  F396  1  0.577200  0.963000  0.008700  1
  F  F397  1  0.963000  0.577200  0.508700  1
  F  F398  1  0.422800  0.037000  0.991300  1
  F  F399  1  0.930800  0.569200  0.506000  1
  F  F400  1  0.430800  0.069200  0.994000  1
  F  F401  1  0.069200  0.430800  0.494000  1
  F  F402  1  0.569200  0.930800  0.006000  1
  F  F403  1  0.065900  0.513900  0.472500  1
  F  F404  1  0.486100  0.934100  0.027500  1
  F  F405  1  0.934100  0.486100  0.527500  1
  F  F406  1  0.513900  0.065900  0.972500  1
  F  F407  1  0.077400  0.453400  0.508700  1
  F  F408  1  0.546600  0.922600  0.991300  1
  F  F409  1  0.922600  0.546600  0.491300  1
  F  F410  1  0.453400  0.077400  0.008700  1
  F  F411  1  0.056200  0.542200  0.481700  1
  F  F412  1  0.457800  0.943800  0.018300  1
  F  F413  1  0.943800  0.457800  0.518300  1
  F  F414  1  0.542200  0.056200  0.981700  1
  F  F415  1  0.978600  0.937600  0.515300  1
  F  F416  1  0.062400  0.021400  0.984700  1
  F  F417  1  0.021400  0.062400  0.484700  1
  F  F418  1  0.937600  0.978600  0.015300  1
  F  F419  1  0.001400  0.013400  0.455400  1
  F  F420  1  0.986600  0.998600  0.044600  1
  F  F421  1  0.998600  0.986600  0.544600  1
  F  F422  1  0.013400  0.001400  0.955400  1
  F  F423  1  0.914700  0.025500  0.515400  1
  F  F424  1  0.974500  0.085300  0.984600  1
  F  F425  1  0.085300  0.974500  0.484600  1
  F  F426  1  0.025500  0.914700  0.015400  1
  F  F427  1  0.020700  0.928300  0.490700  1
  F  F428  1  0.071700  0.979300  0.009300  1
  F  F429  1  0.979300  0.071700  0.509300  1
  F  F430  1  0.928300  0.020700  0.990700  1
  F  F431  1  0.605900  0.585300  0.291900  1
  F  F432  1  0.414700  0.394100  0.208100  1
  F  F433  1  0.394100  0.414700  0.708100  1
  F  F434  1  0.585300  0.605900  0.791900  1
  F  F435  1  0.590700  0.562300  0.272800  1
  F  F436  1  0.437700  0.409300  0.227200  1
  F  F437  1  0.409300  0.437700  0.727200  1
  F  F438  1  0.562300  0.590700  0.772800  1
  F  F439  1  0.941100  0.039500  0.211300  1
  F  F440  1  0.960500  0.058900  0.288700  1
  F  F441  1  0.058900  0.960500  0.788700  1
  F  F442  1  0.039500  0.941100  0.711300  1
  F  F443  1  0.815000  0.087000  0.223000  1
  F  F444  1  0.913000  0.185000  0.277000  1
  F  F445  1  0.185000  0.913000  0.777000  1
  F  F446  1  0.087000  0.815000  0.723000  1
  F  F447  1  0.822200  0.025200  0.209700  1
  F  F448  1  0.974800  0.177800  0.290300  1
  F  F449  1  0.177800  0.974800  0.790300  1
  F  F450  1  0.025200  0.822200  0.709700  1
  F  F451  1  0.944700  0.993300  0.176300  1
  F  F452  1  0.006700  0.055300  0.323700  1
  F  F453  1  0.055300  0.006700  0.823700  1
  F  F454  1  0.993300  0.944700  0.676300  1
  F  F455  1  0.898700  0.040700  0.148100  1
  F  F456  1  0.959300  0.101300  0.351900  1
  F  F457  1  0.101300  0.959300  0.851900  1
  F  F458  1  0.040700  0.898700  0.648100  1
  F  F459  1  0.834800  0.114800  0.158300  1
  F  F460  1  0.885200  0.165200  0.341700  1
  F  F461  1  0.165200  0.885200  0.841700  1
  F  F462  1  0.114800  0.834800  0.658300  1
  F  F463  1  0.890700  0.110700  0.207100  1
  F  F464  1  0.889300  0.109300  0.292900  1
  F  F465  1  0.109300  0.889300  0.792900  1
  F  F466  1  0.110700  0.890700  0.707100  1
  F  F467  1  0.692000  0.502000  0.322000  1
  F  F468  1  0.498000  0.308000  0.178000  1
  F  F469  1  0.308000  0.498000  0.678000  1
  F  F470  1  0.502000  0.692000  0.822000  1
  F  F471  1  0.064600  0.518400  0.500000  1
  F  F472  1  0.481600  0.935400  0.000000  1
  F  F473  1  0.935400  0.481600  0.500000  1
  F  F474  1  0.518400  0.064600  0.000000  1
  F  F475  1  0.214500  0.711700  0.268700  1.0
  F  F476  1  0.288300  0.785500  0.231300  1.0
  F  F477  1  0.785500  0.288300  0.731300  1.0
  F  F478  1  0.711700  0.214500  0.768700  1.0
  F  F479  1  0.338500  0.677100  0.281100  1.0
  F  F480  1  0.322900  0.661500  0.218900  1.0
  F  F481  1  0.661500  0.322900  0.718900  1.0
  F  F482  1  0.677100  0.338500  0.781100  1.0
  H  H483  1  0.071000  0.538200  0.127100  1
  H  H484  1  0.461800  0.929000  0.372900  1
  H  H485  1  0.929000  0.461800  0.872900  1
  H  H486  1  0.538200  0.071000  0.627100  1
  H  H487  1  0.119800  0.593000  0.122600  1
  H  H488  1  0.407000  0.880200  0.377400  1
  H  H489  1  0.880200  0.407000  0.877400  1
  H  H490  1  0.593000  0.119800  0.622600  1
  H  H491  1  0.149300  0.531900  0.089700  1
  H  H492  1  0.468100  0.850700  0.410300  1
  H  H493  1  0.850700  0.468100  0.910300  1
  H  H494  1  0.531900  0.149300  0.589700  1
  H  H495  1  0.115900  0.656700  0.017300  1
  H  H496  1  0.343300  0.884100  0.482700  1
  H  H497  1  0.884100  0.343300  0.982700  1
  H  H498  1  0.656700  0.115900  0.517300  1
  H  H499  1  0.128800  0.687400  0.055000  1
  H  H500  1  0.312600  0.871200  0.445000  1
  H  H501  1  0.871200  0.312600  0.945000  1
  H  H502  1  0.687400  0.128800  0.555000  1
  H  H503  1  0.047800  0.734400  0.035400  1
  H  H504  1  0.265600  0.952200  0.464600  1
  H  H505  1  0.952200  0.265600  0.964600  1
  H  H506  1  0.734400  0.047800  0.535400  1
  H  H507  1  0.956800  0.607400  0.099100  1
  H  H508  1  0.392600  0.043200  0.400900  1
  H  H509  1  0.043200  0.392600  0.900900  1
  H  H510  1  0.607400  0.956800  0.599100  1
  H  H511  1  0.319000  0.703000  0.329000  1
  H  H512  1  0.297000  0.681000  0.171000  1
  H  H513  1  0.681000  0.297000  0.671000  1
  H  H514  1  0.703000  0.319000  0.829000  1
  H  H515  1  0.881200  0.696000  0.467800  1.0
  H  H516  1  0.304000  0.118800  0.032200  1.0
  H  H517  1  0.118800  0.304000  0.532200  1.0
  H  H518  1  0.696000  0.881200  0.967800  1.0
  H  H519  1  0.909300  0.527900  0.417600  1.0
  H  H520  1  0.472100  0.090700  0.082400  1.0
  H  H521  1  0.090700  0.472100  0.582400  1.0
  H  H522  1  0.527900  0.909300  0.917600  1.0
  H  H523  1  0.710000  0.270800  0.432300  1.0
  H  H524  1  0.729200  0.290000  0.067700  1.0
  H  H525  1  0.290000  0.729200  0.567700  1.0
  H  H526  1  0.270800  0.710000  0.932300  1.0
  H  H527  1  0.666900  0.270100  0.483000  1.0
  H  H528  1  0.729900  0.333100  0.017000  1.0
  H  H529  1  0.333100  0.729900  0.517000  1.0
  H  H530  1  0.270100  0.666900  0.983000  1.0
  H  H531  1  0.793900  0.211300  0.504900  1.0
  H  H532  1  0.788700  0.206100  0.995100  1.0
  H  H533  1  0.206100  0.788700  0.495100  1.0
  H  H534  1  0.211300  0.793900  0.004900  1.0
  H  H535  1  0.791700  0.155700  0.476000  1.0
  H  H536  1  0.844300  0.208300  0.024000  1.0
  H  H537  1  0.208300  0.844300  0.524000  1.0
  H  H538  1  0.155700  0.791700  0.976000  1.0
  H  H539  1  0.914000  0.181400  0.453300  1.0
  H  H540  1  0.818600  0.086000  0.046700  1.0
  H  H541  1  0.086000  0.818600  0.546700  1.0
  H  H542  1  0.181400  0.914000  0.953300  1.0
  H  H543  1  0.865800  0.210000  0.413800  1.0
  H  H544  1  0.790000  0.134200  0.086200  1.0
  H  H545  1  0.134200  0.790000  0.586200  1.0
  H  H546  1  0.210000  0.865800  0.913800  1.0
  H  H547  1  0.522200  0.698000  0.474900  1.0
  H  H548  1  0.302000  0.477800  0.025100  1.0
  H  H549  1  0.477800  0.302000  0.525100  1.0
  H  H550  1  0.698000  0.522200  0.974900  1.0
  H  H551  1  0.562500  0.723500  0.503100  1.0
  H  H552  1  0.276500  0.437500  0.996900  1.0
  H  H553  1  0.437500  0.276500  0.496900  1.0
  H  H554  1  0.723500  0.562500  0.003100  1.0
  H  H555  1  0.477700  0.656700  0.549500  1.0
  H  H556  1  0.343300  0.522300  0.950500  1.0
  H  H557  1  0.522300  0.343300  0.450500  1.0
  H  H558  1  0.656700  0.477700  0.049500  1.0
  H  H559  1  0.568600  0.609000  0.557200  1.0
  H  H560  1  0.391000  0.431400  0.942800  1.0
  H  H561  1  0.431400  0.391000  0.442800  1.0
  H  H562  1  0.609000  0.568600  0.057200  1.0
  H  H563  1  0.524800  0.514200  0.551100  1.0
  H  H564  1  0.485800  0.475200  0.948900  1.0
  H  H565  1  0.475200  0.485800  0.448900  1.0
  H  H566  1  0.514200  0.524800  0.051100  1.0
  H  H567  1  0.492800  0.568000  0.506800  1.0
  H  H568  1  0.432000  0.507200  0.993200  1.0
  H  H569  1  0.507200  0.432000  0.493200  1.0
  H  H570  1  0.568000  0.492800  0.006800  1.0
  H  H571  1  0.049300  0.582900  0.388700  1.0
  H  H572  1  0.417100  0.950700  0.111300  1.0
  H  H573  1  0.950700  0.417100  0.611300  1.0
  H  H574  1  0.582900  0.049300  0.888700  1.0
  H  H575  1  0.410700  0.390500  0.315600  1.0
  H  H576  1  0.609500  0.589300  0.184400  1.0
  H  H577  1  0.589300  0.609500  0.684400  1.0
  H  H578  1  0.390500  0.410700  0.815600  1.0
  H  H579  1  0.426600  0.384000  0.363000  1.0
  H  H580  1  0.616000  0.573400  0.137000  1.0
  H  H581  1  0.573400  0.616000  0.637000  1.0
  H  H582  1  0.384000  0.426600  0.863000  1.0
  H  H583  1  0.510600  0.439200  0.308700  1.0
  H  H584  1  0.560800  0.489400  0.191300  1.0
  H  H585  1  0.489400  0.560800  0.691300  1.0
  H  H586  1  0.439200  0.510600  0.808700  1.0
  H  H587  1  0.434600  0.509000  0.289600  1.0
  H  H588  1  0.491000  0.565400  0.210400  1.0
  H  H589  1  0.565400  0.491000  0.710400  1.0
  H  H590  1  0.509000  0.434600  0.789600  1.0
  H  H591  1  0.470000  0.563000  0.331500  1.0
  H  H592  1  0.437000  0.530000  0.168500  1.0
  H  H593  1  0.530000  0.437000  0.668500  1.0
  H  H594  1  0.563000  0.470000  0.831500  1.0
  H  H595  1  0.474200  0.488400  0.371500  1.0
  H  H596  1  0.511600  0.525800  0.128500  1.0
  H  H597  1  0.525800  0.511600  0.628500  1.0
  H  H598  1  0.488400  0.474200  0.871500  1.0
  H  H599  1  0.295600  0.825200  0.362600  1.0
  H  H600  1  0.174800  0.704400  0.137400  1.0
  H  H601  1  0.704400  0.174800  0.637400  1.0
  H  H602  1  0.825200  0.295600  0.862600  1.0
  H  H603  1  0.241100  0.860900  0.325600  1.0
  H  H604  1  0.139100  0.758900  0.174400  1.0
  H  H605  1  0.758900  0.139100  0.674400  1.0
  H  H606  1  0.860900  0.241100  0.825600  1.0
  H  H607  1  0.174800  0.933000  0.379700  1.0
  H  H608  1  0.067000  0.825200  0.120300  1.0
  H  H609  1  0.825200  0.067000  0.620300  1.0
  H  H610  1  0.933000  0.174800  0.879700  1.0
  H  H611  1  0.187000  0.853400  0.416600  1.0
  H  H612  1  0.146600  0.813000  0.083400  1.0
  H  H613  1  0.813000  0.146600  0.583400  1.0
  H  H614  1  0.853400  0.187000  0.916600  1.0
  H  H615  1  0.056700  0.901100  0.408100  1.0
  H  H616  1  0.098900  0.943300  0.091900  1.0
  H  H617  1  0.943300  0.098900  0.591900  1.0
  H  H618  1  0.901100  0.056700  0.908100  1.0
  H  H619  1  0.081400  0.914800  0.355700  1.0
  H  H620  1  0.085200  0.918600  0.144300  1.0
  H  H621  1  0.918600  0.085200  0.644300  1.0
  H  H622  1  0.914800  0.081400  0.855700  1.0
  H  H623  1  0.088700  0.638500  0.480200  1.0
  H  H624  1  0.361500  0.911300  0.019800  1.0
  H  H625  1  0.911300  0.361500  0.519800  1.0
  H  H626  1  0.638500  0.088700  0.980200  1.0
  H  H627  1  0.769000  0.051600  0.453000  1.0
  H  H628  1  0.948400  0.231000  0.047000  1.0
  H  H629  1  0.231000  0.948400  0.547000  1.0
  H  H630  1  0.051600  0.769000  0.953000  1.0
  H  H631  1  0.855200  0.052800  0.426800  1.0
  H  H632  1  0.947200  0.144800  0.073200  1.0
  H  H633  1  0.144800  0.947200  0.573200  1.0
  H  H634  1  0.052800  0.855200  0.926800  1.0
  H  H635  1  0.772000  0.971200  0.409400  1.0
  H  H636  1  0.028800  0.228000  0.090600  1.0
  H  H637  1  0.228000  0.028800  0.590600  1.0
  H  H638  1  0.971200  0.772000  0.909400  1.0
  H  H639  1  0.790300  0.046500  0.377500  1.0
  H  H640  1  0.953500  0.209700  0.122500  1.0
  H  H641  1  0.209700  0.953500  0.622500  1.0
  H  H642  1  0.046500  0.790300  0.877500  1.0
  H  H643  1  0.879600  0.922800  0.355500  1.0
  H  H644  1  0.077200  0.120400  0.144500  1.0
  H  H645  1  0.120400  0.077200  0.644500  1.0
  H  H646  1  0.922800  0.879600  0.855500  1.0
  H  H647  1  0.925200  0.971400  0.363600  1.0
  H  H648  1  0.028600  0.074800  0.136400  1.0
  H  H649  1  0.074800  0.028600  0.636400  1.0
  H  H650  1  0.971400  0.925200  0.863600  1.0
  H  H651  1  0.009800  0.218400  0.349600  1.0
  H  H652  1  0.781600  0.990200  0.150400  1.0
  H  H653  1  0.990200  0.781600  0.650400  1.0
  H  H654  1  0.218400  0.009800  0.849600  1.0
  H  H655  1  0.088000  0.238600  0.341400  1.0
  H  H656  1  0.761400  0.912000  0.158600  1.0
  H  H657  1  0.912000  0.761400  0.658600  1.0
  H  H658  1  0.238600  0.088000  0.841400  1.0
  H  H659  1  0.131600  0.103400  0.336900  1.0
  H  H660  1  0.896600  0.868400  0.163100  1.0
  H  H661  1  0.868400  0.896600  0.663100  1.0
  H  H662  1  0.103400  0.131600  0.836900  1.0
  H  H663  1  0.076400  0.086000  0.383400  1.0
  H  H664  1  0.914000  0.923600  0.116600  1.0
  H  H665  1  0.923600  0.914000  0.616600  1.0
  H  H666  1  0.086000  0.076400  0.883400  1.0
  H  H667  1  0.206300  0.039100  0.393800  1.0
  H  H668  1  0.960900  0.793700  0.106200  1.0
  H  H669  1  0.793700  0.960900  0.606200  1.0
  H  H670  1  0.039100  0.206300  0.893800  1.0
  H  H671  1  0.212600  0.124400  0.370200  1.0
  H  H672  1  0.875600  0.787400  0.129800  1.0
  H  H673  1  0.787400  0.875600  0.629800  1.0
  H  H674  1  0.124400  0.212600  0.870200  1.0
  H  H675  1  0.196000  0.468600  0.464700  1.0
  H  H676  1  0.531400  0.804000  0.035300  1.0
  H  H677  1  0.804000  0.531400  0.535300  1.0
  H  H678  1  0.468600  0.196000  0.964700  1.0
  H  H679  1  0.353000  0.332000  0.289800  1.0
  H  H680  1  0.668000  0.647000  0.210200  1.0
  H  H681  1  0.647000  0.668000  0.710200  1.0
  H  H682  1  0.332000  0.353000  0.789800  1.0
  H  H683  1  0.268800  0.322400  0.299100  1.0
  H  H684  1  0.677600  0.731200  0.200900  1.0
  H  H685  1  0.731200  0.677600  0.700900  1.0
  H  H686  1  0.322400  0.268800  0.799100  1.0
  H  H687  1  0.320400  0.191400  0.327100  1.0
  H  H688  1  0.808600  0.679600  0.172900  1.0
  H  H689  1  0.679600  0.808600  0.672900  1.0
  H  H690  1  0.191400  0.320400  0.827100  1.0
  H  H691  1  0.387600  0.203800  0.285700  1.0
  H  H692  1  0.796200  0.612400  0.214300  1.0
  H  H693  1  0.612400  0.796200  0.714300  1.0
  H  H694  1  0.203800  0.387600  0.785700  1.0
  H  H695  1  0.466100  0.199300  0.330600  1.0
  H  H696  1  0.800700  0.533900  0.169400  1.0
  H  H697  1  0.533900  0.800700  0.669400  1.0
  H  H698  1  0.199300  0.466100  0.830600  1.0
  H  H699  1  0.442700  0.121500  0.347900  1.0
  H  H700  1  0.878500  0.557300  0.152100  1.0
  H  H701  1  0.557300  0.878500  0.652100  1.0
  H  H702  1  0.121500  0.442700  0.847900  1.0
  H  H703  1  0.572800  0.976000  0.492900  1.0
  H  H704  1  0.024000  0.427200  0.007100  1.0
  H  H705  1  0.427200  0.024000  0.507100  1.0
  H  H706  1  0.976000  0.572800  0.992900  1.0
  H  H707  1  0.658100  0.953500  0.460000  1.0
  H  H708  1  0.046500  0.341900  0.040000  1.0
  H  H709  1  0.341900  0.046500  0.540000  1.0
  H  H710  1  0.953500  0.658100  0.960000  1.0
  H  H711  1  0.562300  0.962500  0.422500  1.0
  H  H712  1  0.037500  0.437700  0.077500  1.0
  H  H713  1  0.437700  0.037500  0.577500  1.0
  H  H714  1  0.962500  0.562300  0.922500  1.0
  H  H715  1  0.531800  0.902600  0.462500  1.0
  H  H716  1  0.097400  0.468200  0.037500  1.0
  H  H717  1  0.468200  0.097400  0.537500  1.0
  H  H718  1  0.902600  0.531800  0.962500  1.0
  H  H719  1  0.687000  0.859000  0.407400  1.0
  H  H720  1  0.141000  0.313000  0.092600  1.0
  H  H721  1  0.313000  0.141000  0.592600  1.0
  H  H722  1  0.859000  0.687000  0.907400  1.0
  H  H723  1  0.617600  0.831000  0.407000  1.0
  H  H724  1  0.169000  0.382400  0.093000  1.0
  H  H725  1  0.382400  0.169000  0.593000  1.0
  H  H726  1  0.831000  0.617600  0.907000  1.0
  H  H727  1  0.102300  0.362900  0.434300  1.0
  H  H728  1  0.637100  0.897700  0.065700  1.0
  H  H729  1  0.897700  0.637100  0.565700  1.0
  H  H730  1  0.362900  0.102300  0.934300  1.0
  H  H731  1  0.218600  0.475000  0.202500  1.0
  H  H732  1  0.525000  0.781400  0.297500  1.0
  H  H733  1  0.781400  0.525000  0.797500  1.0
  H  H734  1  0.475000  0.218600  0.702500  1.0
  H  H735  1  0.137100  0.552100  0.197000  1.0
  H  H736  1  0.447900  0.862900  0.303000  1.0
  H  H737  1  0.862900  0.447900  0.803000  1.0
  H  H738  1  0.552100  0.137100  0.697000  1.0
  H  H739  1  0.162100  0.614100  0.238400  1.0
  H  H740  1  0.385900  0.837900  0.261600  1.0
  H  H741  1  0.837900  0.385900  0.761600  1.0
  H  H742  1  0.614100  0.162100  0.738400  1.0
  H  H743  1  0.243000  0.582200  0.203600  1.0
  H  H744  1  0.417800  0.757000  0.296400  1.0
  H  H745  1  0.757000  0.417800  0.796400  1.0
  H  H746  1  0.582200  0.243000  0.703600  1.0
  H  H747  1  0.304000  0.478800  0.255100  1.0
  H  H748  1  0.521200  0.696000  0.244900  1.0
  H  H749  1  0.696000  0.521200  0.744900  1.0
  H  H750  1  0.478800  0.304000  0.755100  1.0
  H  H751  1  0.264600  0.557400  0.276700  1.0
  H  H752  1  0.442600  0.735400  0.223300  1.0
  H  H753  1  0.735400  0.442600  0.723300  1.0
  H  H754  1  0.557400  0.264600  0.776700  1.0
  H  H755  1  0.813800  0.413200  0.352700  1.0
  H  H756  1  0.586800  0.186200  0.147300  1.0
  H  H757  1  0.186200  0.586800  0.647300  1.0
  H  H758  1  0.413200  0.813800  0.852700  1.0
  H  H759  1  0.861600  0.318800  0.353000  1.0
  H  H760  1  0.681200  0.138400  0.147000  1.0
  H  H761  1  0.138400  0.681200  0.647000  1.0
  H  H762  1  0.318800  0.861600  0.853000  1.0
  H  H763  1  0.927100  0.343300  0.280600  1.0
  H  H764  1  0.656700  0.072900  0.219400  1.0
  H  H765  1  0.072900  0.656700  0.719400  1.0
  H  H766  1  0.343300  0.927100  0.780600  1.0
  H  H767  1  0.832700  0.391500  0.281900  1.0
  H  H768  1  0.608500  0.167300  0.218100  1.0
  H  H769  1  0.167300  0.608500  0.718100  1.0
  H  H770  1  0.391500  0.832700  0.781900  1.0
  H  H771  1  0.908800  0.471000  0.239600  1.0
  H  H772  1  0.529000  0.091200  0.260400  1.0
  H  H773  1  0.091200  0.529000  0.760400  1.0
  H  H774  1  0.471000  0.908800  0.739600  1.0
  H  H775  1  0.844000  0.511800  0.279300  1.0
  H  H776  1  0.488200  0.156000  0.220700  1.0
  H  H777  1  0.156000  0.488200  0.720700  1.0
  H  H778  1  0.511800  0.844000  0.779300  1.0
  H  H779  1  0.097900  0.813700  0.301400  1.0
  H  H780  1  0.186300  0.902100  0.198600  1.0
  H  H781  1  0.902100  0.186300  0.698600  1.0
  H  H782  1  0.813700  0.097900  0.801400  1.0
  H  H783  1  0.018700  0.893900  0.299800  1.0
  H  H784  1  0.106100  0.981300  0.200200  1.0
  H  H785  1  0.981300  0.106100  0.700200  1.0
  H  H786  1  0.893900  0.018700  0.799800  1.0
  H  H787  1  0.963600  0.818400  0.224100  1.0
  H  H788  1  0.181600  0.036400  0.275900  1.0
  H  H789  1  0.036400  0.181600  0.775900  1.0
  H  H790  1  0.818400  0.963600  0.724100  1.0
  H  H791  1  0.925300  0.897500  0.245200  1.0
  H  H792  1  0.102500  0.074700  0.254800  1.0
  H  H793  1  0.074700  0.102500  0.754800  1.0
  H  H794  1  0.897500  0.925300  0.745200  1.0
  H  H795  1  0.054900  0.867100  0.231800  1.0
  H  H796  1  0.132900  0.945100  0.268200  1.0
  H  H797  1  0.945100  0.132900  0.768200  1.0
  H  H798  1  0.867100  0.054900  0.731800  1.0
  H  H799  1  0.074000  0.773400  0.249500  1.0
  H  H800  1  0.226600  0.926000  0.250500  1.0
  H  H801  1  0.926000  0.226600  0.750500  1.0
  H  H802  1  0.773400  0.074000  0.749500  1.0
  H  H803  1  0.970000  0.502000  0.273000  1.0
  H  H804  1  0.498000  0.030000  0.227000  1.0
  H  H805  1  0.030000  0.498000  0.727000  1.0
  H  H806  1  0.502000  0.970000  0.773000  1.0
  H  H807  1  0.338000  0.136000  0.469000  1.0
  H  H808  1  0.864000  0.662000  0.031000  1.0
  H  H809  1  0.662000  0.864000  0.531000  1.0
  H  H810  1  0.136000  0.338000  0.969000  1.0
  H  H811  1  0.875000  0.807000  0.284000  1.0
  H  H812  1  0.193000  0.125000  0.216000  1.0
  H  H813  1  0.125000  0.193000  0.716000  1.0
  H  H814  1  0.807000  0.875000  0.784000  1.0
  H  H815  1  0.826000  0.712000  0.302000  1.0
  H  H816  1  0.288000  0.174000  0.198000  1.0
  H  H817  1  0.174000  0.288000  0.698000  1.0
  H  H818  1  0.712000  0.826000  0.802000  1.0
  H  H819  1  0.105000  0.465000  0.253000  1.0
  H  H820  1  0.535000  0.895000  0.247000  1.0
  H  H821  1  0.895000  0.535000  0.747000  1.0
  H  H822  1  0.465000  0.105000  0.753000  1.0
  H  H823  1  0.632000  0.484000  0.503000  1.0
  H  H824  1  0.516000  0.368000  0.997000  1.0
  H  H825  1  0.368000  0.516000  0.497000  1.0
  H  H826  1  0.484000  0.632000  0.003000  1.0
  H  H827  1  0.399000  0.181000  0.408000  1.0
  H  H828  1  0.819000  0.601000  0.092000  1.0
  H  H829  1  0.601000  0.819000  0.592000  1.0
  H  H830  1  0.181000  0.399000  0.908000  1.0
  H  H831  1  0.681000  0.387000  0.449000  1.0
  H  H832  1  0.613000  0.319000  0.051000  1.0
  H  H833  1  0.319000  0.613000  0.551000  1.0
  H  H834  1  0.387000  0.681000  0.949000  1.0
  H  H835  1  0.836000  0.878000  0.555000  1.0
  H  H836  1  0.122000  0.164000  0.945000  1.0
  H  H837  1  0.164000  0.122000  0.445000  1.0
  H  H838  1  0.878000  0.836000  0.055000  1.0
  N  N839  1  0.052300  0.631300  0.076200  1
  N  N840  1  0.368700  0.947700  0.423800  1
  N  N841  1  0.947700  0.368700  0.923800  1
  N  N842  1  0.631300  0.052300  0.576200  1
  N  N843  1  0.923500  0.735100  0.404700  1.0
  N  N844  1  0.264900  0.076500  0.095300  1.0
  N  N845  1  0.076500  0.264900  0.595300  1.0
  N  N846  1  0.735100  0.923500  0.904700  1.0
  N  N847  1  0.822800  0.693000  0.424800  1.0
  N  N848  1  0.307000  0.177200  0.075200  1.0
  N  N849  1  0.177200  0.307000  0.575200  1.0
  N  N850  1  0.693000  0.822800  0.924800  1.0
  N  N851  1  0.996600  0.795400  0.335800  1.0
  N  N852  1  0.204600  0.003400  0.164200  1.0
  N  N853  1  0.003400  0.204600  0.664200  1.0
  N  N854  1  0.795400  0.996600  0.835800  1.0
  N  N855  1  0.919000  0.797600  0.289900  1.0
  N  N856  1  0.202400  0.081000  0.210100  1.0
  N  N857  1  0.081000  0.202400  0.710100  1.0
  N  N858  1  0.797600  0.919000  0.789900  1.0
  N  N859  1  0.793100  0.707700  0.316800  1.0
  N  N860  1  0.292300  0.206900  0.183200  1.0
  N  N861  1  0.206900  0.292300  0.683200  1.0
  N  N862  1  0.707700  0.793100  0.816800  1.0
  N  N863  1  0.721400  0.689400  0.388800  1.0
  N  N864  1  0.310600  0.278600  0.111200  1.0
  N  N865  1  0.278600  0.310600  0.611200  1.0
  N  N866  1  0.689400  0.721400  0.888800  1.0
  N  N867  1  0.790700  0.555700  0.444400  1.0
  N  N868  1  0.444300  0.209300  0.055600  1.0
  N  N869  1  0.209300  0.444300  0.555600  1.0
  N  N870  1  0.555700  0.790700  0.944400  1.0
  N  N871  1  0.870300  0.435500  0.430200  1.0
  N  N872  1  0.564500  0.129700  0.069800  1.0
  N  N873  1  0.129700  0.564500  0.569800  1.0
  N  N874  1  0.435500  0.870300  0.930200  1.0
  N  N875  1  0.719200  0.351600  0.458700  1.0
  N  N876  1  0.648400  0.280800  0.041300  1.0
  N  N877  1  0.280800  0.648400  0.541300  1.0
  N  N878  1  0.351600  0.719200  0.958700  1.0
  N  N879  1  0.858900  0.303500  0.437500  1.0
  N  N880  1  0.696500  0.141100  0.062500  1.0
  N  N881  1  0.141100  0.696500  0.562500  1.0
  N  N882  1  0.303500  0.858900  0.937500  1.0
  N  N883  1  0.641700  0.629100  0.473200  1.0
  N  N884  1  0.370900  0.358300  0.026800  1.0
  N  N885  1  0.358300  0.370900  0.526800  1.0
  N  N886  1  0.629100  0.641700  0.973200  1.0
  N  N887  1  0.612900  0.513700  0.498400  1.0
  N  N888  1  0.486300  0.387100  0.001600  1.0
  N  N889  1  0.387100  0.486300  0.501600  1.0
  N  N890  1  0.513700  0.612900  0.998400  1.0
  N  N891  1  0.032300  0.379900  0.392700  1.0
  N  N892  1  0.620100  0.967700  0.107300  1.0
  N  N893  1  0.967700  0.620100  0.607300  1.0
  N  N894  1  0.379900  0.032300  0.892700  1.0
  N  N895  1  0.136400  0.415600  0.372600  1.0
  N  N896  1  0.584400  0.863600  0.127400  1.0
  N  N897  1  0.863600  0.584400  0.627400  1.0
  N  N898  1  0.415600  0.136400  0.872600  1.0
  N  N899  1  0.208400  0.479800  0.303500  1.0
  N  N900  1  0.520200  0.791600  0.196500  1.0
  N  N901  1  0.791600  0.520200  0.696500  1.0
  N  N902  1  0.479800  0.208400  0.803500  1.0
  N  N903  1  0.132000  0.481000  0.256900  1.0
  N  N904  1  0.519000  0.868000  0.243100  1.0
  N  N905  1  0.868000  0.519000  0.743100  1.0
  N  N906  1  0.481000  0.132000  0.756900  1.0
  N  N907  1  0.958900  0.460700  0.290600  1.0
  N  N908  1  0.539300  0.041100  0.209400  1.0
  N  N909  1  0.041100  0.539300  0.709400  1.0
  N  N910  1  0.460700  0.958900  0.790600  1.0
  N  N911  1  0.931300  0.374500  0.356300  1.0
  N  N912  1  0.625500  0.068700  0.143700  1.0
  N  N913  1  0.068700  0.625500  0.643700  1.0
  N  N914  1  0.374500  0.931300  0.856300  1.0
  N  N915  1  0.170900  0.546100  0.376000  1.0
  N  N916  1  0.453900  0.829100  0.124000  1.0
  N  N917  1  0.829100  0.453900  0.624000  1.0
  N  N918  1  0.546100  0.170900  0.876000  1.0
  N  N919  1  0.090600  0.667400  0.386300  1.0
  N  N920  1  0.332600  0.909400  0.113700  1.0
  N  N921  1  0.909400  0.332600  0.613700  1.0
  N  N922  1  0.667400  0.090600  0.886300  1.0
  N  N923  1  0.320500  0.471900  0.350100  1.0
  N  N924  1  0.528100  0.679500  0.149900  1.0
  N  N925  1  0.679500  0.528100  0.649900  1.0
  N  N926  1  0.471900  0.320500  0.850100  1.0
  N  N927  1  0.358500  0.564900  0.365100  1.0
  N  N928  1  0.435100  0.641500  0.134900  1.0
  N  N929  1  0.641500  0.435100  0.634900  1.0
  N  N930  1  0.564900  0.358500  0.865100  1.0
  N  N931  1  0.100700  0.798900  0.384000  1.0
  N  N932  1  0.201100  0.899300  0.116000  1.0
  N  N933  1  0.899300  0.201100  0.616000  1.0
  N  N934  1  0.798900  0.100700  0.884000  1.0
  N  N935  1  0.242300  0.751300  0.360900  1.0
  N  N936  1  0.248700  0.757700  0.139100  1.0
  N  N937  1  0.757700  0.248700  0.639100  1.0
  N  N938  1  0.751300  0.242300  0.860900  1.0
  N  N939  1  0.247800  0.393000  0.421000  1.0
  N  N940  1  0.607000  0.752200  0.079000  1.0
  N  N941  1  0.752200  0.607000  0.579000  1.0
  N  N942  1  0.393000  0.247800  0.921000  1.0
  N  N943  1  0.744700  0.647100  0.508500  1.0
  N  N944  1  0.352900  0.255300  0.991500  1.0
  N  N945  1  0.255300  0.352900  0.491500  1.0
  N  N946  1  0.647100  0.744700  0.008500  1.0
  N  N947  1  0.670600  0.775000  0.459900  1.0
  N  N948  1  0.225000  0.329400  0.040100  1.0
  N  N949  1  0.329400  0.225000  0.540100  1.0
  N  N950  1  0.775000  0.670600  0.959900  1.0
  N  N951  1  0.352600  0.140400  0.492300  1.0
  N  N952  1  0.859600  0.647400  0.007700  1.0
  N  N953  1  0.647400  0.859600  0.507700  1.0
  N  N954  1  0.140400  0.352600  0.992300  1.0
  N  N955  1  0.379900  0.206900  0.386400  1.0
  N  N956  1  0.793100  0.620100  0.113600  1.0
  N  N957  1  0.620100  0.793100  0.613600  1.0
  N  N958  1  0.206900  0.379900  0.886400  1.0
  N  N959  1  0.296700  0.330900  0.352800  1.0
  N  N960  1  0.669100  0.703300  0.147200  1.0
  N  N961  1  0.703300  0.669100  0.647200  1.0
  N  N962  1  0.330900  0.296700  0.852800  1.0
  N  N963  1  0.009300  0.746500  0.457200  1.0
  N  N964  1  0.253500  0.990700  0.042800  1.0
  N  N965  1  0.990700  0.253500  0.542800  1.0
  N  N966  1  0.746500  0.009300  0.957200  1.0
  N  N967  1  0.978900  0.295500  0.472700  1.0
  N  N968  1  0.704500  0.021100  0.027300  1.0
  N  N969  1  0.021100  0.704500  0.527300  1.0
  N  N970  1  0.295500  0.978900  0.972700  1.0
  N  N971  1  0.029200  0.233600  0.404600  1.0
  N  N972  1  0.766400  0.970800  0.095400  1.0
  N  N973  1  0.970800  0.766400  0.595400  1.0
  N  N974  1  0.233600  0.029200  0.904600  1.0
  N  N975  1  0.858400  0.874000  0.568900  1.0
  N  N976  1  0.126000  0.141600  0.931100  1.0
  N  N977  1  0.141600  0.126000  0.431100  1.0
  N  N978  1  0.874000  0.858400  0.068900  1.0
  N  N979  1  0.862200  0.945000  0.467800  1.0
  N  N980  1  0.055000  0.137800  0.032200  1.0
  N  N981  1  0.137800  0.055000  0.532200  1.0
  N  N982  1  0.945000  0.862200  0.967800  1.0
  N  N983  1  0.930200  0.871800  0.409500  1.0
  N  N984  1  0.128200  0.069800  0.090500  1.0
  N  N985  1  0.069800  0.128200  0.590500  1.0
  N  N986  1  0.871800  0.930200  0.909500  1.0
  O  O987  1  0.933300  0.695700  0.053300  1
  O  O988  1  0.304300  0.066700  0.446700  1
  O  O989  1  0.066700  0.304300  0.946700  1
  O  O990  1  0.695700  0.933300  0.553300  1
  O  O991  1  0.517700  0.378500  0.098100  1
  O  O992  1  0.621500  0.482300  0.401900  1
  O  O993  1  0.482300  0.621500  0.901900  1
  O  O994  1  0.378500  0.517700  0.598100  1
  O  O995  1  0.790800  0.190800  0.151100  1
  O  O996  1  0.809200  0.209200  0.348900  1
  O  O997  1  0.209200  0.809200  0.848900  1
  O  O998  1  0.190800  0.790800  0.651100  1
  O  O999  1  0.724000  0.290000  0.165000  1
  O  O1000  1  0.710000  0.276000  0.335000  1
  O  O1001  1  0.276000  0.710000  0.835000  1
  O  O1002  1  0.290000  0.724000  0.665000  1
  O  O1003  1  0.760300  0.364300  0.195900  1
  O  O1004  1  0.635700  0.239700  0.304100  1
  O  O1005  1  0.239700  0.635700  0.804100  1
  O  O1006  1  0.364300  0.760300  0.695900  1
  O  O1007  1  0.075000  0.259000  0.244000  1
  O  O1008  1  0.741000  0.925000  0.256000  1
  O  O1009  1  0.925000  0.741000  0.756000  1
  O  O1010  1  0.259000  0.075000  0.744000  1
  O  O1011  1  0.997000  0.385000  0.175100  1
  O  O1012  1  0.615000  0.003000  0.324900  1
  O  O1013  1  0.003000  0.615000  0.824900  1
  O  O1014  1  0.385000  0.997000  0.675100  1
  O  O1015  1  0.084800  0.366800  0.228100  1
  O  O1016  1  0.633200  0.915200  0.271900  1
  O  O1017  1  0.915200  0.633200  0.771900  1
  O  O1018  1  0.366800  0.084800  0.728100  1
  O  O1019  1  0.908000  0.264000  0.213000  1
  O  O1020  1  0.736000  0.092000  0.287000  1
  O  O1021  1  0.092000  0.736000  0.787000  1
  O  O1022  1  0.264000  0.908000  0.713000  1
  O  O1023  1  0.704000  0.370000  0.137000  1
  O  O1024  1  0.630000  0.296000  0.363000  1
  O  O1025  1  0.296000  0.630000  0.863000  1
  O  O1026  1  0.370000  0.704000  0.637000  1
  O  O1027  1  0.741700  0.313700  0.167000  1
  O  O1028  1  0.686300  0.258300  0.333000  1
  O  O1029  1  0.258300  0.686300  0.833000  1
  O  O1030  1  0.313700  0.741700  0.667000  1
  O  O1031  1  0.825000  0.281000  0.212000  1
  O  O1032  1  0.719000  0.175000  0.288000  1
  O  O1033  1  0.175000  0.719000  0.788000  1
  O  O1034  1  0.281000  0.825000  0.712000  1
  O  O1035  1  0.780000  0.242000  0.174000  1
  O  O1036  1  0.758000  0.220000  0.326000  1
  O  O1037  1  0.220000  0.758000  0.826000  1
  O  O1038  1  0.242000  0.780000  0.674000  1
  O  O1039  1  0.088000  0.302000  0.239600  1
  O  O1040  1  0.698000  0.912000  0.260400  1
  O  O1041  1  0.912000  0.698000  0.760400  1
  O  O1042  1  0.302000  0.088000  0.739600  1
  O  O1043  1  0.098900  0.403700  0.196900  1
  O  O1044  1  0.596300  0.901100  0.303100  1
  O  O1045  1  0.901100  0.596300  0.803100  1
  O  O1046  1  0.403700  0.098900  0.696900  1
  O  O1047  1  0.054200  0.320200  0.202500  1
  O  O1048  1  0.679800  0.945800  0.297500  1
  O  O1049  1  0.945800  0.679800  0.797500  1
  O  O1050  1  0.320200  0.054200  0.702500  1
  O  O1051  1  0.115400  0.269400  0.188300  1
  O  O1052  1  0.730600  0.884600  0.311700  1
  O  O1053  1  0.884600  0.730600  0.811700  1
  O  O1054  1  0.269400  0.115400  0.688300  1
  O  O1055  1  0.970300  0.340300  0.170500  1
  O  O1056  1  0.659700  0.029700  0.329500  1
  O  O1057  1  0.029700  0.659700  0.829500  1
  O  O1058  1  0.340300  0.970300  0.670500  1
  O  O1059  1  0.105500  0.341500  0.250200  1
  O  O1060  1  0.658500  0.894500  0.249800  1
  O  O1061  1  0.894500  0.658500  0.749800  1
  O  O1062  1  0.341500  0.105500  0.750200  1
  O  O1063  1  0.041500  0.267500  0.193800  1
  O  O1064  1  0.732500  0.958500  0.306200  1
  O  O1065  1  0.958500  0.732500  0.806200  1
  O  O1066  1  0.267500  0.041500  0.693800  1
  O  O1067  1  0.116000  0.238000  0.248000  1
  O  O1068  1  0.762000  0.884000  0.252000  1
  O  O1069  1  0.884000  0.762000  0.752000  1
  O  O1070  1  0.238000  0.116000  0.748000  1
  O  O1071  1  0.035600  0.400800  0.182800  1
  O  O1072  1  0.599200  0.964400  0.317200  1
  O  O1073  1  0.964400  0.599200  0.817200  1
  O  O1074  1  0.400800  0.035600  0.682800  1
  O  O1075  1  0.722000  0.348000  0.200000  1
  O  O1076  1  0.652000  0.278000  0.300000  1
  O  O1077  1  0.278000  0.652000  0.800000  1
  O  O1078  1  0.348000  0.722000  0.700000  1
  O  O1079  1  0.790000  0.304000  0.191000  1
  O  O1080  1  0.696000  0.210000  0.309000  1
  O  O1081  1  0.210000  0.696000  0.809000  1
  O  O1082  1  0.304000  0.790000  0.691000  1
  O  O1083  1  0.715000  0.421000  0.222000  1
  O  O1084  1  0.579000  0.285000  0.278000  1
  O  O1085  1  0.285000  0.579000  0.778000  1
  O  O1086  1  0.421000  0.715000  0.722000  1
  O  O1087  1  0.818000  0.164000  0.180000  1
  O  O1088  1  0.836000  0.182000  0.320000  1
  O  O1089  1  0.182000  0.836000  0.820000  1
  O  O1090  1  0.164000  0.818000  0.680000  1
  O  O1091  1  0.747000  0.281000  0.142000  1
  O  O1092  1  0.719000  0.253000  0.358000  1
  O  O1093  1  0.253000  0.719000  0.858000  1
  O  O1094  1  0.281000  0.747000  0.642000  1
  O  O1095  1  0.666000  0.338000  0.155000  1
  O  O1096  1  0.662000  0.334000  0.345000  1
  O  O1097  1  0.334000  0.662000  0.845000  1
  O  O1098  1  0.338000  0.666000  0.655000  1
  O  O1099  1  0.855000  0.325000  0.191000  1
  O  O1100  1  0.675000  0.145000  0.309000  1
  O  O1101  1  0.145000  0.675000  0.809000  1
  O  O1102  1  0.325000  0.855000  0.691000  1
  O  O1103  1  0.765000  0.293000  0.188000  1
  O  O1104  1  0.707000  0.235000  0.312000  1
  O  O1105  1  0.235000  0.707000  0.812000  1
  O  O1106  1  0.293000  0.765000  0.688000  1
  O  O1107  1  0.987300  0.029900  0.444100  1
  O  O1108  1  0.970100  0.012700  0.055900  1
  O  O1109  1  0.012700  0.970100  0.555900  1
  O  O1110  1  0.029900  0.987300  0.944100  1
