
#######################################################################
#
#                 Cambridge Crystallographic Data Centre
#                                CCDC 
#
#######################################################################
#
# If this CIF has been generated from an entry in the Cambridge 
# Structural Database, then it will include bibliographic, chemical, 
# crystal, experimental, refinement or atomic coordinate data resulting 
# from the CCDC's data processing and validation procedures.
#
#######################################################################

data_EWIHUO
_chemical_formula_moiety         
'C132 H180 Co8 N72 12+,6(O4 S1 2-),C3 H7 N1 O1,31(H2 O1)'
_chemical_name_systematic        
"dodecakis(\m~2~-2,2'-(1H-Imidazole-4,5-diyl)bis(1,4,5,6-tetrahydropyrimidine))-octa-cobalt(iii) hexakis(sulfate) dimethylformamide solvate hentriacontahydrate"
_symmetry_cell_setting           monoclinic
_symmetry_space_group_name_H-M   'P 21/n'
_symmetry_Int_Tables_number      14
_space_group_name_Hall           '-P 2yn'
loop_
_symmetry_equiv_pos_site_id
_symmetry_equiv_pos_as_xyz
1 x,y,z
2 1/2-x,1/2+y,1/2-z
3 -x,-y,-z
4 1/2+x,1/2-y,1/2+z
_cell_length_a                   20.3067(9)
_cell_length_b                   18.7195(8)
_cell_length_c                   24.9104(10)
_cell_angle_alpha                90
_cell_angle_beta                 93.1820(10)
_cell_angle_gamma                90
_cell_volume                     9454.62
_exptl_crystal_colour            red
_exptl_crystal_description       block
_cell_formula_units_Z            2
loop_
_atom_site_label
_atom_site_type_symbol
_atom_site_fract_x
_atom_site_fract_y
_atom_site_fract_z
Co1 Co 0.83991(7) 0.44273(7) 0.33845(6)
Co2 Co 0.89007(7) 0.67659(7) 0.62352(6)
Co3 Co 0.94365(7) 0.73111(7) 0.39685(5)
Co4 Co 0.78863(7) 0.38824(7) 0.56668(6)
C1 C 0.8250(4) 0.4370(5) 0.4568(4)
H1 H 0.8330 0.4860 0.4646
C2 C 0.8132(5) 0.3359(5) 0.4132(4)
C3 C 0.8021(5) 0.3232(5) 0.4668(4)
C4 C 0.7818(5) 0.2663(6) 0.5038(4)
C5 C 0.7618(6) 0.1429(6) 0.5268(5)
H2 H 0.7849 0.0976 0.5196
H3 H 0.7138 0.1340 0.5216
C6 C 0.7462(5) 0.2381(5) 0.5909(4)
H4 H 0.6976 0.2326 0.5878
H5 H 0.7583 0.2570 0.6273
C7 C 0.8079(5) 0.3007(6) 0.3600(4)
C8 C 0.8134(5) 0.3165(5) 0.2652(4)
H6 H 0.7718 0.3322 0.2461
H7 H 0.8506 0.3360 0.2457
C9 C 0.8166(10) 0.2388(8) 0.2654(5)
H8 H 0.7977 0.2228 0.2300
H9 H 0.8640 0.2261 0.2667
C10 C 0.7890(7) 0.1985(6) 0.3022(5)
H10 H 0.8101 0.1508 0.3032
H11 H 0.7416 0.1920 0.2920
C11 C 0.9137(5) 0.6816(5) 0.5066(4)
H12 H 0.8903 0.6395 0.4962
C12 C 0.9583(4) 0.7662(5) 0.5552(4)
C13 C 0.9712(4) 0.7791(5) 0.5017(4)
C14 C 0.9670(5) 0.7974(5) 0.6099(4)
C15 C 0.9338(5) 0.7919(5) 0.7007(4)
H13 H 0.9668 0.7643 0.7227
H14 H 0.8903 0.7856 0.7163
C16 C 1.0124(6) 0.8846(5) 0.6746(4)
H15 H 1.0503 0.8622 0.6948
H16 H 1.0206 0.9367 0.6728
C17 C 0.9991(5) 0.8322(5) 0.4677(4)
C18 C 1.0555(5) 0.9462(5) 0.4526(4)
H17 H 1.1033 0.9401 0.4483
H18 H 1.0485 0.9935 0.4692
C19 C 1.0194(6) 0.9429(6) 0.3993(4)
H19 H 1.0425 0.9734 0.3738
H20 H 0.9746 0.9627 0.4024
C20 C 1.0137(5) 0.8685(5) 0.3768(4)
H21 H 0.9843 0.8688 0.3437
H22 H 1.0577 0.8515 0.3672
C21 C 0.9047(5) 0.7654(5) 0.2817(4)
H23 H 0.8856 0.8102 0.2952
H24 H 0.8686 0.7300 0.2768
C22 C 0.9337(6) 0.7796(6) 0.2279(4)
H25 H 0.8978 0.7935 0.2014
H26 H 0.9650 0.8201 0.2317
C23 C 0.9686(6) 0.7157(6) 0.2076(4)
H27 H 0.9365 0.6778 0.1969
H28 H 0.9934 0.7286 0.1758
C24 C 1.0045(6) 0.7032(5) 0.3037(4)
C25 C 1.0518(6) 0.6781(5) 0.3457(4)
C26 C 1.0723(6) 0.6637(5) 0.4313(4)
H29 H 1.0673 0.6640 0.4690
C27 C 1.0274(7) 0.4023(5) 0.3048(4)
C28 C 1.0881(6) 0.3917(5) 0.2776(4)
C29 C 1.1592(7) 0.4075(7) 0.2022(5)
H30 H 1.1489 0.4036 0.1630
H31 H 1.1898 0.4481 0.2087
C30 C 1.1898(6) 0.3415(7) 0.2223(5)
H32 H 1.1635 0.3004 0.2081
H33 H 1.2344 0.3376 0.2083
C31 C 1.1958(5) 0.3368(5) 0.2822(4)
H34 H 1.2287 0.3721 0.2964
H35 H 1.2116 0.2886 0.2931
C32 C 0.7631(6) 0.6759(6) 0.5757(4)
C33 C 0.6847(8) 0.7713(7) 0.5548(5)
H36 H 0.6610 0.7845 0.5204
H37 H 0.6537 0.7769 0.5838
C34 C 0.7895(6) 0.7941(5) 0.6050(4)
H38 H 0.8292 0.8224 0.5977
H39 H 0.7762 0.8062 0.6415
C35 C 0.6929(5) 0.4350(5) 0.3191(4)
H40 H 0.6962 0.3898 0.3398
H41 H 0.6921 0.4229 0.2804
C36 C 0.6297(6) 0.4725(6) 0.3310(5)
H42 H 0.5918 0.4458 0.3143
H43 H 0.6250 0.4736 0.3703
C37 C 0.6293(5) 0.5472(5) 0.3096(4)
H44 H 0.6298 0.5464 0.2699
H45 H 0.5889 0.5723 0.3197
C38 C 0.7438(6) 0.5472(6) 0.3433(4)
C39 C 0.8067(7) 0.7231(5) 0.3870(3)
C40 C 0.7213(5) 0.8148(5) 0.3934(4)
H46 H 0.7118 0.8238 0.4314
H47 H 0.6803 0.8231 0.3709
C41 C 0.7743(5) 0.8646(5) 0.3767(4)
H48 H 0.7633 0.9141 0.3872
H49 H 0.7765 0.8633 0.3371
C42 C 0.8403(5) 0.8441(5) 0.4028(4)
H50 H 0.8750 0.8747 0.3886
H51 H 0.8399 0.8523 0.4421
C43 C 0.8297(6) 0.6511(5) 0.3776(3)
C44 C 0.8042(5) 0.5841(5) 0.3625(3)
C45 C 0.9107(5) 0.5749(6) 0.3754(3)
H52 H 0.9538 0.5551 0.3781
C46 C 0.9210(7) 0.4621(5) 0.2539(4)
C47 C 0.9642(6) 0.4298(5) 0.2963(4)
C48 C 0.8998(9) 0.5113(8) 0.1644(5)
H53 H 0.9224 0.5500 0.1456
H54 H 0.8878 0.4736 0.1378
C49 C 0.8429(8) 0.5383(12) 0.1851(7)
H55 H 0.8095 0.5428 0.1548
H56 H 0.8529 0.5873 0.1981
C50 C 0.8129(5) 0.5021(5) 0.2266(4)
H57 H 0.7840 0.4641 0.2107
H58 H 0.7846 0.5361 0.2453
C51 C 0.7609(6) 0.5343(6) 0.5599(4)
C52 C 0.7847(6) 0.6012(5) 0.5733(4)
C53 C 0.8614(5) 0.5234(6) 0.5947(3)
H59 H 0.9023 0.5031 0.6073
C54 C 0.6994(6) 0.4975(7) 0.5424(4)
C55 C 0.6457(5) 0.3835(5) 0.5288(4)
H60 H 0.6601 0.3458 0.5041
H61 H 0.6285 0.3595 0.5606
C56 C 0.5926(6) 0.4245(7) 0.5017(6)
H62 H 0.5998 0.4238 0.4627
H63 H 0.5508 0.3987 0.5068
C57 C 0.5834(6) 0.4953(7) 0.5165(6)
H64 H 0.5577 0.4965 0.5491
H65 H 0.5573 0.5199 0.4874
C58 C 1.2886(5) 0.5984(5) 0.3340(4)
H66 H 1.3216 0.6365 0.3419
H67 H 1.3057 0.5537 0.3508
C59 C 1.2372(8) 0.6257(9) 0.2457(5)
H68 H 1.2578 0.6716 0.2362
H69 H 1.2267 0.5993 0.2119
C60 C 1.1759(6) 0.6347(5) 0.3249(5)
C61 C 1.1151(6) 0.6510(5) 0.3538(4)
C62 C 0.9727(6) 0.3825(5) 0.3764(4)
H70 H 0.9622 0.3672 0.4112
C63 C 0.7332(15) 0.8134(13) 0.563(2)
H71 H 0.7151 0.8600 0.5744
H72 H 0.7534 0.8212 0.5286
C64 C 0.7778(18) 0.1651(9) 0.5852(9)
H73 H 0.7592 0.1304 0.6103
H74 H 0.8261 0.1680 0.5928
C65 C 0.9526(7) 0.8714(6) 0.7020(4)
H75 H 0.9161 0.8997 0.6848
H76 H 0.9589 0.8872 0.7399
C66 C 1.2801(8) 0.5884(12) 0.2757(6)
H77 H 1.2691 0.5374 0.2696
H78 H 1.3238 0.5963 0.2610
H79 H 0.681(7) 0.665(7) 0.536(6)
H80 H 1.045(8) 0.894(9) 0.523(4)
H81 H 1.043(6) 0.863(9) 0.598(6)
H82 H 0.721(9) 0.703(9) 0.391(7)
H83 H 0.687(8) 0.619(7) 0.355(6)
N1 N 1.0260(4) 0.6851(4) 0.3954(3)
N2 N 0.9542(4) 0.7385(4) 0.3214(3)
N3 N 1.0138(5) 0.6909(5) 0.2513(4)
N4 N 0.8600(5) 0.4697(4) 0.2663(3)
N5 N 0.9458(5) 0.4810(6) 0.2070(4)
N6 N 0.9306(4) 0.4166(4) 0.3418(3)
N7 N 0.8972(4) 0.6439(4) 0.3847(3)
N8 N 0.8567(5) 0.5376(4) 0.3619(3)
N9 N 0.7512(4) 0.4793(4) 0.3331(3)
N10 N 0.6877(5) 0.5843(4) 0.3323(3)
N11 N 0.7431(5) 0.7397(4) 0.3872(3)
N12 N 0.8556(4) 0.7693(4) 0.3928(3)
N13 N 0.8271(3) 0.4081(4) 0.4080(3)
N14 N 0.8101(3) 0.3874(4) 0.4939(3)
N15 N 0.7660(4) 0.2905(4) 0.5505(4)
N16 N 0.7812(4) 0.1973(4) 0.4879(3)
N17 N 0.7962(5) 0.2309(5) 0.3555(3)
N18 N 0.8165(4) 0.3446(4) 0.3203(3)
N19 N 0.8483(4) 0.5930(4) 0.5950(3)
N20 N 0.8102(4) 0.4858(4) 0.5746(3)
N21 N 0.7030(4) 0.4268(5) 0.5464(3)
N22 N 0.6453(5) 0.5340(5) 0.5274(4)
N23 N 0.7053(5) 0.6966(4) 0.5523(4)
N24 N 0.8052(4) 0.7177(4) 0.6025(3)
N25 N 0.9216(4) 0.7037(4) 0.5569(3)
N26 N 0.9419(4) 0.7247(4) 0.4719(3)
N27 N 0.9307(4) 0.7650(4) 0.6453(3)
N28 N 1.0059(4) 0.8547(4) 0.6197(3)
N29 N 0.9870(4) 0.8202(4) 0.4167(3)
N30 N 1.0303(5) 0.3731(4) 0.3559(3)
N31 N 1.1323(5) 0.3507(4) 0.3054(3)
N32 N 1.0988(5) 0.4196(5) 0.2298(4)
N33 N 1.2266(5) 0.6178(4) 0.3573(3)
N34 N 1.1756(5) 0.6407(5) 0.2717(4)
N35 N 1.1261(4) 0.6419(4) 0.4088(3)
N36 N 1.0319(4) 0.8898(4) 0.4876(3)
H91 H 1.046(3) 0.662(4) 0.250(3)
Co1B Co 1.16009(7) 0.55727(7) 0.66155(6)
Co2B Co 1.10993(7) 0.32341(7) 0.37648(6)
Co3B Co 1.05635(7) 0.26889(7) 0.60315(5)
Co4B Co 1.21137(7) 0.61176(7) 0.43332(6)
C1B C 1.1750(4) 0.5630(5) 0.5432(4)
H1B H 1.1670 0.5140 0.5354
C2B C 1.1868(5) 0.6641(5) 0.5868(4)
C3B C 1.1979(5) 0.6768(5) 0.5332(4)
C4B C 1.2182(5) 0.7337(6) 0.4962(4)
C5B C 1.2382(6) 0.8571(6) 0.4732(5)
H2B H 1.2151 0.9024 0.4804
H3B H 1.2862 0.8660 0.4784
C6B C 1.2538(5) 0.7619(5) 0.4091(4)
H4B H 1.3024 0.7674 0.4122
H5B H 1.2417 0.7430 0.3727
C7B C 1.1921(5) 0.6993(6) 0.6400(4)
C8B C 1.1866(5) 0.6835(5) 0.7348(4)
H6B H 1.2282 0.6678 0.7539
H7B H 1.1494 0.6640 0.7543
C9B C 1.1834(10) 0.7612(8) 0.7346(5)
H8B H 1.2023 0.7772 0.7700
H9B H 1.1360 0.7739 0.7333
C10B C 1.2110(7) 0.8015(6) 0.6978(5)
H10B H 1.1899 0.8492 0.6968
H11B H 1.2584 0.8080 0.7080
C11B C 1.0863(5) 0.3184(5) 0.4934(4)
H12B H 1.1097 0.3605 0.5038
C12B C 1.0417(4) 0.2338(5) 0.4448(4)
C13B C 1.0288(4) 0.2209(5) 0.4983(4)
C14B C 1.0330(5) 0.2026(5) 0.3901(4)
C15B C 1.0662(5) 0.2081(5) 0.2993(4)
H13B H 1.0332 0.2357 0.2773
H14B H 1.1097 0.2144 0.2837
C16B C 0.9876(6) 0.1154(5) 0.3254(4)
H15B H 0.9497 0.1378 0.3052
H16B H 0.9794 0.0633 0.3272
C17B C 1.0009(5) 0.1678(5) 0.5323(4)
C18B C 0.9445(5) 0.0538(5) 0.5474(4)
H17B H 0.8967 0.0599 0.5517
H18B H 0.9515 0.0065 0.5308
C19B C 0.9806(6) 0.0571(6) 0.6007(4)
H19B H 0.9575 0.0266 0.6262
H20B H 1.0254 0.0373 0.5976
C20B C 0.9863(5) 0.1315(5) 0.6232(4)
H21B H 1.0157 0.1312 0.6563
H22B H 0.9423 0.1485 0.6328
C21B C 1.0953(5) 0.2346(5) 0.7183(4)
H23B H 1.1144 0.1898 0.7048
H24B H 1.1314 0.2700 0.7232
C22B C 1.0663(6) 0.2204(6) 0.7721(4)
H25B H 1.1022 0.2065 0.7986
H26B H 1.0350 0.1799 0.7683
C23B C 1.0314(6) 0.2843(6) 0.7924(4)
H27B H 1.0635 0.3222 0.8031
H28B H 1.0066 0.2714 0.8242
C24B C 0.9955(6) 0.2968(5) 0.6963(4)
C25B C 0.9482(6) 0.3219(5) 0.6543(4)
C26B C 0.9277(6) 0.3363(5) 0.5687(4)
H29B H 0.9327 0.3360 0.5310
C27B C 0.9726(7) 0.5977(5) 0.6952(4)
C28B C 0.9119(6) 0.6083(5) 0.7224(4)
C29B C 0.8408(7) 0.5925(7) 0.7978(5)
H30B H 0.8511 0.5964 0.8370
H31B H 0.8102 0.5519 0.7913
C30B C 0.8102(6) 0.6585(7) 0.7777(5)
H32B H 0.8365 0.6996 0.7919
H33B H 0.7656 0.6624 0.7917
C31B C 0.8042(5) 0.6632(5) 0.7178(4)
H34B H 0.7713 0.6279 0.7036
H35B H 0.7884 0.7114 0.7069
C32B C 1.2369(6) 0.3241(6) 0.4243(4)
C33B C 1.3153(8) 0.2287(7) 0.4452(5)
H36B H 1.3390 0.2155 0.4796
H37B H 1.3463 0.2231 0.4162
C34B C 1.2105(6) 0.2059(5) 0.3950(4)
H38B H 1.1708 0.1776 0.4023
H39B H 1.2238 0.1938 0.3585
C35B C 1.3071(5) 0.5650(5) 0.6809(4)
H40B H 1.3038 0.6102 0.6602
H41B H 1.3079 0.5771 0.7196
C36B C 1.3703(6) 0.5275(6) 0.6690(5)
H42B H 1.4082 0.5542 0.6857
H43B H 1.3750 0.5264 0.6297
C37B C 1.3707(5) 0.4528(5) 0.6904(4)
H44B H 1.3702 0.4536 0.7301
H45B H 1.4111 0.4277 0.6803
C38B C 1.2562(6) 0.4528(6) 0.6567(4)
C39B C 1.1933(7) 0.2769(5) 0.6130(3)
C40B C 1.2787(5) 0.1852(5) 0.6066(4)
H46B H 1.2882 0.1762 0.5686
H47B H 1.3197 0.1769 0.6291
C41B C 1.2257(5) 0.1354(5) 0.6233(4)
H48B H 1.2367 0.0859 0.6128
H49B H 1.2235 0.1367 0.6629
C42B C 1.1597(5) 0.1559(5) 0.5972(4)
H50B H 1.1250 0.1253 0.6114
H51B H 1.1601 0.1477 0.5579
C43B C 1.1703(6) 0.3489(5) 0.6224(3)
C44B C 1.1958(5) 0.4159(5) 0.6375(3)
C45B C 1.0893(5) 0.4251(6) 0.6246(3)
H52B H 1.0462 0.4449 0.6219
C46B C 1.0790(7) 0.5379(5) 0.7461(4)
C47B C 1.0358(6) 0.5702(5) 0.7037(4)
C48B C 1.1002(9) 0.4887(8) 0.8356(5)
H53B H 1.0776 0.4500 0.8544
H54B H 1.1122 0.5264 0.8622
C49B C 1.1571(8) 0.4617(12) 0.8149(7)
H55B H 1.1905 0.4572 0.8452
H56B H 1.1471 0.4127 0.8019
C50B C 1.1871(5) 0.4979(5) 0.7734(4)
H57B H 1.2160 0.5359 0.7893
H58B H 1.2154 0.4639 0.7547
C51B C 1.2391(6) 0.4657(6) 0.4401(4)
C52B C 1.2153(6) 0.3988(5) 0.4267(4)
C53B C 1.1386(5) 0.4766(6) 0.4053(3)
H59B H 1.0977 0.4969 0.3927
C54B C 1.3006(6) 0.5025(7) 0.4576(4)
C55B C 1.3543(5) 0.6165(5) 0.4712(4)
H60B H 1.3399 0.6542 0.4959
H61B H 1.3715 0.6405 0.4394
C56B C 1.4074(6) 0.5755(7) 0.4983(6)
H62B H 1.4002 0.5762 0.5373
H63B H 1.4492 0.6013 0.4932
C57B C 1.4166(6) 0.5047(7) 0.4835(6)
H64B H 1.4423 0.5035 0.4509
H65B H 1.4427 0.4801 0.5126
C58B C 0.7114(5) 0.4016(5) 0.6660(4)
H66B H 0.6784 0.3635 0.6581
H67B H 0.6943 0.4463 0.6492
C59B C 0.7628(8) 0.3743(9) 0.7543(5)
H68B H 0.7422 0.3284 0.7638
H69B H 0.7733 0.4007 0.7881
C60B C 0.8241(6) 0.3653(5) 0.6751(5)
C61B C 0.8849(6) 0.3490(5) 0.6462(4)
C62B C 1.0273(6) 0.6175(5) 0.6236(4)
H70B H 1.0378 0.6328 0.5888
C63B C 1.2668(15) 0.1866(13) 0.437(2)
H71B H 1.2849 0.1400 0.4256
H72B H 1.2466 0.1788 0.4714
C64B C 1.2222(18) 0.8349(9) 0.4148(9)
H73B H 1.2408 0.8696 0.3897
H74B H 1.1739 0.8320 0.4072
C65B C 1.0474(7) 0.1286(6) 0.2980(4)
H75B H 1.0839 0.1003 0.3152
H76B H 1.0411 0.1128 0.2601
C66B C 0.7199(8) 0.4116(12) 0.7243(6)
H77B H 0.7309 0.4626 0.7304
H78B H 0.6762 0.4037 0.7390
H79B H 1.319(7) 0.335(7) 0.464(6)
H80B H 0.955(8) 0.106(9) 0.477(4)
H81B H 0.957(6) 0.137(9) 0.402(6)
H82B H 1.279(9) 0.297(9) 0.609(7)
H83B H 1.313(8) 0.381(7) 0.645(6)
N1B N 0.9740(4) 0.3149(4) 0.6046(3)
N2B N 1.0458(4) 0.2615(4) 0.6786(3)
N3B N 0.9862(5) 0.3091(5) 0.7487(4)
N4B N 1.1400(5) 0.5303(4) 0.7337(3)
N5B N 1.0542(5) 0.5190(6) 0.7930(4)
N6B N 1.0694(4) 0.5834(4) 0.6582(3)
N7B N 1.1028(4) 0.3561(4) 0.6153(3)
N8B N 1.1433(5) 0.4624(4) 0.6381(3)
N9B N 1.2488(4) 0.5207(4) 0.6669(3)
N10B N 1.3123(5) 0.4157(4) 0.6677(3)
N11B N 1.2569(5) 0.2603(4) 0.6128(3)
N12B N 1.1444(4) 0.2307(4) 0.6072(3)
N13B N 1.1729(3) 0.5919(4) 0.5920(3)
N14B N 1.1899(3) 0.6126(4) 0.5061(3)
N15B N 1.2340(4) 0.7095(4) 0.4495(4)
N16B N 1.2188(4) 0.8027(4) 0.5121(3)
N17B N 1.2038(5) 0.7691(5) 0.6445(3)
N18B N 1.1835(4) 0.6554(4) 0.6797(3)
N19B N 1.1517(4) 0.4070(4) 0.4050(3)
N20B N 1.1898(4) 0.5142(4) 0.4254(3)
N21B N 1.2970(4) 0.5732(5) 0.4536(3)
N22B N 1.3547(5) 0.4660(5) 0.4726(4)
N23B N 1.2947(5) 0.3034(4) 0.4477(4)
N24B N 1.1948(4) 0.2823(4) 0.3975(3)
N25B N 1.0784(4) 0.2963(4) 0.4431(3)
N26B N 1.0581(4) 0.2753(4) 0.5281(3)
N27B N 1.0693(4) 0.2350(4) 0.3547(3)
N28B N 0.9941(4) 0.1453(4) 0.3803(3)
N29B N 1.0130(4) 0.1798(4) 0.5833(3)
N30B N 0.9697(5) 0.6269(4) 0.6441(3)
N31B N 0.8677(5) 0.6493(4) 0.6946(3)
N32B N 0.9012(5) 0.5804(5) 0.7702(4)
N33B N 0.7734(5) 0.3822(4) 0.6427(3)
N34B N 0.8244(5) 0.3593(5) 0.7283(4)
N35B N 0.8739(4) 0.3581(4) 0.5912(3)
N36B N 0.9681(4) 0.1102(4) 0.5124(3)
H91B H 0.954(3) 0.338(4) 0.750(3)
S1 S 0.0884(3) 0.5829(3) 0.1510(2)
O9 O 0.0690(4) 0.5661(4) 0.2064(4)
O10 O 0.1540(6) 0.5504(6) 0.1398(5)
O11 O 0.0513(9) 0.5235(10) 0.1244(8)
O42 O 0.0485(9) 0.6209(14) 0.1141(8)
S2 S 0.90672(19) 0.1666(2) 0.07190(14)
O5 O 0.9354(5) 0.2217(7) 0.0407(4)
O6 O 0.9499(4) 0.1054(5) 0.0783(3)
O7 O 0.8411(4) 0.1455(4) 0.0478(3)
O8 O 0.8927(3) 0.1940(4) 0.1265(3)
S3 S 0.16207(16) 0.94008(15) 0.59371(11)
O1 O 0.1353(4) 0.9953(3) 0.5587(3)
O2 O 0.2328(4) 0.9290(4) 0.5866(3)
O3 O 0.1509(4) 0.9550(4) 0.6496(3)
O4 O 0.1282(3) 0.8713(3) 0.5774(2)
N37 N 0.5994(9) 0.2032(9) 0.4324(6)
O12 O 0.6499(7) 0.2907(8) 0.3932(5)
C67 C 0.5435(14) 0.2460(15) 0.4422(11)
H84 H 0.5419 0.2548 0.4809
H85 H 0.5033 0.2210 0.4292
H86 H 0.5467 0.2916 0.4232
C68 C 0.5958(12) 0.1337(12) 0.4507(9)
H87 H 0.5512 0.1152 0.4429
H88 H 0.6063 0.1326 0.4896
H89 H 0.6276 0.1041 0.4325
C69 C 0.6455(11) 0.2279(12) 0.4066(8)
H90 H 0.6792 0.1960 0.3968
O13 O 0.0773(12) 0.6263(13) 0.9382(11)
O15 O 0.1061(4) 0.0646(4) 0.7047(3)
O16 O 0.2085(6) 0.0190(6) 0.3682(4)
O18 O 0.0766(6) 0.2101(7) 0.1709(6)
O19 O 0.0655(7) 0.2665(8) 0.0733(6)
O22 O 0.3055(8) 0.0334(9) 0.5290(7)
O23 O 0.2845(10) 0.5513(9) 0.0195(7)
O24 O 0.9622(6) 0.9322(7) 0.8414(4)
O26 O 0.9830(8) 0.6048(9) 0.8904(7)
O27 O 0.9611(5) 0.2944(5) 0.1880(4)
O30 O 0.1357(9) 0.9363(9) 0.3012(9)
O32 O 0.1083(10) 0.8580(13) 0.1612(9)
O34 O 0.1734(15) 0.9311(14) 0.1908(12)
O36 O 0.1493(15) 0.8165(15) 0.2518(13)
O38 O 0.064(3) 0.958(3) 0.214(3)
O14? O 0.0697(17) 0.6284(18) 0.9863(16)
O17? O 0.242(3) 0.002(3) 0.384(2)
O20? O 0.3530(19) -0.031(2) 0.4405(16)
O21? O 0.3507(15) 0.0337(16) 0.4827(12)
O25? O 0.9508(14) 0.8843(17) 0.8435(11)
O28? O 0.1217(13) 0.8164(15) 0.2095(13)
O29? O 0.0117(7) 0.9671(8) 0.2447(6)
O31? O 0.166(3) 0.897(3) 0.326(2)
O33? O 0.0554(16) 0.8435(18) 0.1173(13)
O35? O 0.058(4) 0.945(3) 0.261(3)
O37? O 0.122(4) 0.786(5) 0.185(4)
O39? O 0.131(6) 0.932(6) 0.270(5)
O40? O 0.1348(19) 0.9213(15) 0.1599(12)
O41? O 0.027(4) 0.939(3) 0.268(2)
C70? C 0.7201(15) 0.8079(13) 0.6053(16)
C71? C 0.7174(19) 0.1715(11) 0.5647(10)
H92? H 0.7120 0.8601 0.6043
H93? H 0.7025 0.7886 0.6386
H94? H 0.7096 0.1353 0.5926
H95? H 0.6745 0.1830 0.5459
O43? O 0.3187(9) 0.5629(9) 0.0279(7)
O44? O 0.1078(8) 0.6569(6) 0.1660(7)
O45? O 0.091(3) 0.919(3) 0.150(2)
O46? O 0.0988(16) 0.8928(18) 0.2032(13)
loop_
_geom_bond_atom_site_label_1
_geom_bond_atom_site_label_2
_geom_bond_site_symmetry_1
_geom_bond_site_symmetry_2
Co1 N4 1_555 1_555
Co2 N19 1_555 1_555
Co3 N1 1_555 1_555
Co4 N14 1_555 1_555
S1 O9 1_555 1_555
S2 O5 1_555 1_555
S3 O1 1_555 1_555
C1 H1 1_555 1_555
C2 C3 1_555 1_555
C3 C4 1_555 1_555
C4 N15 1_555 1_555
C5 H2 1_555 1_555
H3 C5 1_555 1_555
C6 H4 1_555 1_555
H5 C6 1_555 1_555
C7 C2 1_555 1_555
C8 H6 1_555 1_555
H7 C8 1_555 1_555
C9 C8 1_555 1_555
H8 C9 1_555 1_555
H9 C9 1_555 1_555
C10 C9 1_555 1_555
H10 C10 1_555 1_555
H11 C10 1_555 1_555
C11 H12 1_555 1_555
C12 C13 1_555 1_555
C13 C17 1_555 1_555
C14 C12 1_555 1_555
C15 H13 1_555 1_555
H14 C15 1_555 1_555
C16 H15 1_555 1_555
H16 C16 1_555 1_555
C17 N29 1_555 1_555
C18 H17 1_555 1_555
H18 C18 1_555 1_555
C19 C18 1_555 1_555
H19 C19 1_555 1_555
H20 C19 1_555 1_555
C20 C19 1_555 1_555
H21 C20 1_555 1_555
H22 C20 1_555 1_555
C21 H23 1_555 1_555
H24 C21 1_555 1_555
C22 C21 1_555 1_555
H25 C22 1_555 1_555
H26 C22 1_555 1_555
C23 C22 1_555 1_555
H27 C23 1_555 1_555
H28 C23 1_555 1_555
C24 C25 1_555 1_555
C25 C61 1_555 1_555
C26 H29 1_555 1_555
C27 C28 1_555 1_555
C28 N31 1_555 1_555
C29 H30 1_555 1_555
H31 C29 1_555 1_555
C30 C29 1_555 1_555
H32 C30 1_555 1_555
H33 C30 1_555 1_555
C31 C30 1_555 1_555
H34 C31 1_555 1_555
H35 C31 1_555 1_555
C32 C52 1_555 1_555
C33 H36 1_555 1_555
H37 C33 1_555 1_555
C34 H38 1_555 1_555
H39 C34 1_555 1_555
C35 H40 1_555 1_555
H41 C35 1_555 1_555
C36 C35 1_555 1_555
H42 C36 1_555 1_555
H43 C36 1_555 1_555
C37 C36 1_555 1_555
H44 C37 1_555 1_555
H45 C37 1_555 1_555
C38 C44 1_555 1_555
C39 C43 1_555 1_555
C40 H46 1_555 1_555
H47 C40 1_555 1_555
C41 C40 1_555 1_555
H48 C41 1_555 1_555
H49 C41 1_555 1_555
C42 C41 1_555 1_555
H50 C42 1_555 1_555
H51 C42 1_555 1_555
C43 C44 1_555 1_555
C44 N8 1_555 1_555
C45 H52 1_555 1_555
C46 C47 1_555 1_555
C47 C27 1_555 1_555
C48 H53 1_555 1_555
H54 C48 1_555 1_555
C49 C48 1_555 1_555
H55 C49 1_555 1_555
H56 C49 1_555 1_555
C50 C49 1_555 1_555
H57 C50 1_555 1_555
H58 C50 1_555 1_555
C51 C52 1_555 1_555
C52 N19 1_555 1_555
C53 H59 1_555 1_555
C54 C51 1_555 1_555
C55 H60 1_555 1_555
H61 C55 1_555 1_555
C56 C55 1_555 1_555
H62 C56 1_555 1_555
H63 C56 1_555 1_555
C57 C56 1_555 1_555
H64 C57 1_555 1_555
H65 C57 1_555 1_555
C58 H66 1_555 1_555
H67 C58 1_555 1_555
C59 H68 1_555 1_555
H69 C59 1_555 1_555
C60 C61 1_555 1_555
C61 N35 1_555 1_555
C62 H70 1_555 1_555
C63 C33 1_555 1_555
H71 C63 1_555 1_555
H72 C63 1_555 1_555
C64 C5 1_555 1_555
H73 C64 1_555 1_555
H74 C64 1_555 1_555
C65 C15 1_555 1_555
H75 C65 1_555 1_555
H76 C65 1_555 1_555
C66 C58 1_555 1_555
H77 C66 1_555 1_555
H78 C66 1_555 1_555
H79 N23 1_555 1_555
H80 N36 1_555 1_555
H81 N28 1_555 1_555
H82 N11 1_555 1_555
H83 N10 1_555 1_555
N1 C25 1_555 1_555
N2 Co3 1_555 1_555
N3 C23 1_555 1_555
N4 C46 1_555 1_555
N5 C46 1_555 1_555
N6 Co1 1_555 1_555
N7 Co3 1_555 1_555
N8 Co1 1_555 1_555
N9 Co1 1_555 1_555
N10 C37 1_555 1_555
N11 C39 1_555 1_555
N12 Co3 1_555 1_555
N13 Co1 1_555 1_555
N14 C1 1_555 1_555
N15 Co4 1_555 1_555
N16 C4 1_555 1_555
N17 C7 1_555 1_555
N18 Co1 1_555 1_555
N19 C53 1_555 1_555
N20 Co4 1_555 1_555
N21 Co4 1_555 1_555
N22 C54 1_555 1_555
N23 C32 1_555 1_555
N24 Co2 1_555 1_555
N25 Co2 1_555 1_555
N26 Co3 1_555 1_555
N27 Co2 1_555 1_555
N28 C14 1_555 1_555
N29 Co3 1_555 1_555
N30 C27 1_555 1_555
N31 C31 1_555 1_555
N32 C28 1_555 1_555
N33 C58 1_555 1_555
N34 C59 1_555 1_555
N35 C26 1_555 1_555
N36 C17 1_555 1_555
O2 S3 1_555 1_555
O3 S3 1_555 1_555
O4 S3 1_555 1_555
O6 S2 1_555 1_555
O7 S2 1_555 1_555
O8 S2 1_555 1_555
O10 S1 1_555 1_555
O11 S1 1_555 1_555
N37 C67 1_555 1_555
O12 C69 1_555 1_555
C67 H84 1_555 1_555
H85 C67 1_555 1_555
H86 C67 1_555 1_555
C68 N37 1_555 1_555
H87 C68 1_555 1_555
H88 C68 1_555 1_555
H89 C68 1_555 1_555
C69 N37 1_555 1_555
H90 C69 1_555 1_555
H91 N3 1_555 1_555
O42 S1 1_555 1_555
Co1B N4B 1_555 1_555
Co2B N30 1_555 1_555
Co3B N1B 1_555 1_555
Co4B N33 1_555 1_555
C1B H1B 1_555 1_555
C2B C3B 1_555 1_555
C3B C4B 1_555 1_555
C4B N15B 1_555 1_555
C5B H2B 1_555 1_555
H3B C5B 1_555 1_555
C6B H4B 1_555 1_555
H5B C6B 1_555 1_555
C7B C2B 1_555 1_555
C8B H6B 1_555 1_555
H7B C8B 1_555 1_555
C9B C8B 1_555 1_555
H8B C9B 1_555 1_555
H9B C9B 1_555 1_555
C10B C9B 1_555 1_555
H10B C10B 1_555 1_555
H11B C10B 1_555 1_555
C11B H12B 1_555 1_555
C12B C13B 1_555 1_555
C13B C17B 1_555 1_555
C14B C12B 1_555 1_555
C15B H13B 1_555 1_555
H14B C15B 1_555 1_555
C16B H15B 1_555 1_555
H16B C16B 1_555 1_555
C17B N29B 1_555 1_555
C18B H17B 1_555 1_555
H18B C18B 1_555 1_555
C19B C18B 1_555 1_555
H19B C19B 1_555 1_555
H20B C19B 1_555 1_555
C20B C19B 1_555 1_555
H21B C20B 1_555 1_555
H22B C20B 1_555 1_555
C21B H23B 1_555 1_555
H24B C21B 1_555 1_555
C22B C21B 1_555 1_555
H25B C22B 1_555 1_555
H26B C22B 1_555 1_555
C23B C22B 1_555 1_555
H27B C23B 1_555 1_555
H28B C23B 1_555 1_555
C24B C25B 1_555 1_555
C25B C61B 1_555 1_555
C26B H29B 1_555 1_555
C27B C28B 1_555 1_555
C28B N31B 1_555 1_555
C29B H30B 1_555 1_555
H31B C29B 1_555 1_555
C30B C29B 1_555 1_555
H32B C30B 1_555 1_555
H33B C30B 1_555 1_555
C31B C30B 1_555 1_555
H34B C31B 1_555 1_555
H35B C31B 1_555 1_555
C32B C52B 1_555 1_555
C33B H36B 1_555 1_555
H37B C33B 1_555 1_555
C34B H38B 1_555 1_555
H39B C34B 1_555 1_555
C35B H40B 1_555 1_555
H41B C35B 1_555 1_555
C36B C35B 1_555 1_555
H42B C36B 1_555 1_555
H43B C36B 1_555 1_555
C37B C36B 1_555 1_555
H44B C37B 1_555 1_555
H45B C37B 1_555 1_555
C38B C44B 1_555 1_555
C39B C43B 1_555 1_555
C40B H46B 1_555 1_555
H47B C40B 1_555 1_555
C41B C40B 1_555 1_555
H48B C41B 1_555 1_555
H49B C41B 1_555 1_555
C42B C41B 1_555 1_555
H50B C42B 1_555 1_555
H51B C42B 1_555 1_555
C43B C44B 1_555 1_555
C44B N8B 1_555 1_555
C45B H52B 1_555 1_555
C46B C47B 1_555 1_555
C47B C27B 1_555 1_555
C48B H53B 1_555 1_555
H54B C48B 1_555 1_555
C49B C48B 1_555 1_555
H55B C49B 1_555 1_555
H56B C49B 1_555 1_555
C50B C49B 1_555 1_555
H57B C50B 1_555 1_555
H58B C50B 1_555 1_555
C51B C52B 1_555 1_555
C52B N19B 1_555 1_555
C53B H59B 1_555 1_555
C54B C51B 1_555 1_555
C55B H60B 1_555 1_555
H61B C55B 1_555 1_555
C56B C55B 1_555 1_555
H62B C56B 1_555 1_555
H63B C56B 1_555 1_555
C57B C56B 1_555 1_555
H64B C57B 1_555 1_555
H65B C57B 1_555 1_555
C58B H66B 1_555 1_555
H67B C58B 1_555 1_555
C59B H68B 1_555 1_555
H69B C59B 1_555 1_555
C60B C61B 1_555 1_555
C61B N35B 1_555 1_555
C62B H70B 1_555 1_555
C63B C33B 1_555 1_555
H71B C63B 1_555 1_555
H72B C63B 1_555 1_555
C64B C5B 1_555 1_555
H73B C64B 1_555 1_555
H74B C64B 1_555 1_555
C65B C15B 1_555 1_555
H75B C65B 1_555 1_555
H76B C65B 1_555 1_555
C66B C58B 1_555 1_555
H77B C66B 1_555 1_555
H78B C66B 1_555 1_555
H79B N23B 1_555 1_555
H80B N36B 1_555 1_555
H81B N28B 1_555 1_555
H82B N11B 1_555 1_555
H83B N10B 1_555 1_555
N1B C25B 1_555 1_555
N2B Co3B 1_555 1_555
N3B C23B 1_555 1_555
N4B C46B 1_555 1_555
N5B C46B 1_555 1_555
N6B Co1B 1_555 1_555
N7B Co3B 1_555 1_555
N8B Co1B 1_555 1_555
N9B Co1B 1_555 1_555
N10B C37B 1_555 1_555
N11B C39B 1_555 1_555
N12B Co3B 1_555 1_555
N13B Co1B 1_555 1_555
N14B Co4B 1_555 1_555
N15B Co4B 1_555 1_555
N16B C4B 1_555 1_555
N17B C7B 1_555 1_555
N18B Co1B 1_555 1_555
N19B Co2B 1_555 1_555
N20B Co4B 1_555 1_555
N21B Co4B 1_555 1_555
N22B C54B 1_555 1_555
N23B C32B 1_555 1_555
N24B Co2B 1_555 1_555
N25B Co2B 1_555 1_555
N26B Co3B 1_555 1_555
N27B Co2B 1_555 1_555
N28B C14B 1_555 1_555
N29B Co3B 1_555 1_555
N30B Co2 1_555 1_555
N31B Co2 1_555 1_555
N32B C28B 1_555 1_555
N33B Co4 1_555 1_555
N34B C59B 1_555 1_555
N35B Co4 1_555 1_555
N36B C17B 1_555 1_555
H91B N3B 1_555 1_555
C1 N13 1_555 1_555
C2 N13 1_555 1_555
C3 N14 1_555 1_555
C5 N16 1_555 1_555
C6 C64 1_555 1_555
C6 N15 1_555 1_555
C7 N18 1_555 1_555
C8 N18 1_555 1_555
C10 N17 1_555 1_555
C11 N25 1_555 1_555
C11 N26 1_555 1_555
C12 N25 1_555 1_555
C13 N26 1_555 1_555
C14 N27 1_555 1_555
C15 N27 1_555 1_555
C16 C65 1_555 1_555
C16 N28 1_555 1_555
C18 N36 1_555 1_555
C20 N29 1_555 1_555
C21 N2 1_555 1_555
C24 N2 1_555 1_555
C24 N3 1_555 1_555
C26 N1 1_555 1_555
C29 N32 1_555 1_555
C32 N24 1_555 1_555
C33 N23 1_555 1_555
C34 C63 1_555 1_555
C34 N24 1_555 1_555
C35 N9 1_555 1_555
C38 N9 1_555 1_555
C38 N10 1_555 1_555
C39 N12 1_555 1_555
C40 N11 1_555 1_555
C42 N12 1_555 1_555
C43 N7 1_555 1_555
C45 N7 1_555 1_555
C45 N8 1_555 1_555
C47 N6 1_555 1_555
C48 N5 1_555 1_555
C50 N4 1_555 1_555
C51 N20 1_555 1_555
C53 N20 1_555 1_555
C54 N21 1_555 1_555
C55 N21 1_555 1_555
C57 N22 1_555 1_555
C59 C66 1_555 1_555
C60 N33 1_555 1_555
C60 N34 1_555 1_555
C62 N6 1_555 1_555
C62 N30 1_555 1_555
N31 Co2B 1_555 1_555
N35 Co4B 1_555 1_555
C1B N13B 1_555 1_555
C1B N14B 1_555 1_555
C2B N13B 1_555 1_555
C3B N14B 1_555 1_555
C5B N16B 1_555 1_555
C6B C64B 1_555 1_555
C6B N15B 1_555 1_555
C7B N18B 1_555 1_555
C8B N18B 1_555 1_555
C10B N17B 1_555 1_555
C11B N25B 1_555 1_555
C11B N26B 1_555 1_555
C12B N25B 1_555 1_555
C13B N26B 1_555 1_555
C14B N27B 1_555 1_555
C15B N27B 1_555 1_555
C16B C65B 1_555 1_555
C16B N28B 1_555 1_555
C18B N36B 1_555 1_555
C20B N29B 1_555 1_555
C21B N2B 1_555 1_555
C24B N2B 1_555 1_555
C24B N3B 1_555 1_555
C26B N1B 1_555 1_555
C26B N35B 1_555 1_555
C27B N30B 1_555 1_555
C29B N32B 1_555 1_555
C31B N31B 1_555 1_555
C32B N24B 1_555 1_555
C33B N23B 1_555 1_555
C34B C63B 1_555 1_555
C34B N24B 1_555 1_555
C35B N9B 1_555 1_555
C38B N9B 1_555 1_555
C38B N10B 1_555 1_555
C39B N12B 1_555 1_555
C40B N11B 1_555 1_555
C42B N12B 1_555 1_555
C43B N7B 1_555 1_555
C45B N7B 1_555 1_555
C45B N8B 1_555 1_555
C47B N6B 1_555 1_555
C48B N5B 1_555 1_555
C50B N4B 1_555 1_555
C51B N20B 1_555 1_555
C53B N19B 1_555 1_555
C53B N20B 1_555 1_555
C54B N21B 1_555 1_555
C55B N21B 1_555 1_555
C57B N22B 1_555 1_555
C58B N33B 1_555 1_555
C59B C66B 1_555 1_555
C60B N33B 1_555 1_555
C60B N34B 1_555 1_555
C62B N6B 1_555 1_555
C62B N30B 1_555 1_555

#END
