# generated using pymatgen
data_Co4H95C71S3N37O46
_symmetry_space_group_name_H-M   'P 1'
_cell_length_a   18.71950000
_cell_length_b   20.30670000
_cell_length_c   24.91040000
_cell_angle_alpha   93.18200000
_cell_angle_beta   90.00000000
_cell_angle_gamma   90.00000000
_symmetry_Int_Tables_number   1
_chemical_formula_structural   Co4H95C71S3N37O46
_chemical_formula_sum   'Co16 H380 C284 S12 N148 O184'
_cell_volume   9454.62284798
_cell_formula_units_Z   4
loop_
 _symmetry_equiv_pos_site_id
 _symmetry_equiv_pos_as_xyz
  1  'x, y, z'
loop_
 _atom_site_type_symbol
 _atom_site_label
 _atom_site_symmetry_multiplicity
 _atom_site_fract_x
 _atom_site_fract_y
 _atom_site_fract_z
 _atom_site_occupancy
  Co  Co1  1  0.557270  0.160090  0.661550  1.0
  Co  Co2  1  0.057270  0.339910  0.838450  1.0
  Co  Co3  1  0.442730  0.839910  0.338450  1.0
  Co  Co4  1  0.942730  0.660090  0.161550  1.0
  Co  Co5  1  0.323410  0.109930  0.376480  1.0
  Co  Co6  1  0.823410  0.390070  0.123520  1.0
  Co  Co7  1  0.676590  0.890070  0.623520  1.0
  Co  Co8  1  0.176590  0.609930  0.876480  1.0
  Co  Co9  1  0.268890  0.056350  0.603150  1.0
  Co  Co10  1  0.768890  0.443650  0.896850  1.0
  Co  Co11  1  0.731110  0.943650  0.396850  1.0
  Co  Co12  1  0.231110  0.556350  0.103150  1.0
  Co  Co13  1  0.611760  0.211370  0.433320  1.0
  Co  Co14  1  0.111760  0.288630  0.066680  1.0
  Co  Co15  1  0.388240  0.788630  0.566680  1.0
  Co  Co16  1  0.888240  0.711370  0.933320  1.0
  H  H17  1  0.745200  0.458100  0.519100  1
  H  H18  1  0.245200  0.041900  0.980900  1
  H  H19  1  0.254800  0.541900  0.480900  1
  H  H20  1  0.754800  0.958100  0.019100  1
  H  H21  1  0.779000  0.496700  0.570800  1
  H  H22  1  0.279000  0.003300  0.929200  1
  H  H23  1  0.221000  0.503300  0.429200  1
  H  H24  1  0.721000  0.996700  0.070800  1
  H  H25  1  0.708400  0.453300  0.576800  1
  H  H26  1  0.208400  0.046700  0.923200  1
  H  H27  1  0.291600  0.546700  0.423200  1
  H  H28  1  0.791600  0.953300  0.076800  1
  H  H29  1  0.884800  0.448800  0.557100  1
  H  H30  1  0.384800  0.051200  0.942900  1
  H  H31  1  0.115200  0.551200  0.442900  1
  H  H32  1  0.615200  0.948800  0.057100  1
  H  H33  1  0.867400  0.393700  0.510400  1
  H  H34  1  0.367400  0.106300  0.989600  1
  H  H35  1  0.132600  0.606300  0.489600  1
  H  H36  1  0.632600  0.893700  0.010400  1
  H  H37  1  0.895900  0.372400  0.567500  1
  H  H38  1  0.395900  0.127600  0.932500  1
  H  H39  1  0.104100  0.627600  0.432500  1
  H  H40  1  0.604100  0.872400  0.067500  1
  H  H41  1  0.804000  0.320800  0.603200  1
  H  H42  1  0.304000  0.179200  0.896800  1
  H  H43  1  0.196000  0.679200  0.396800  1
  H  H44  1  0.696000  0.820800  0.103200  1
  H  H45  1  0.139900  0.288000  0.395700  1
  H  H46  1  0.639900  0.212000  0.104300  1
  H  H47  1  0.860100  0.712000  0.604300  1
  H  H48  1  0.360100  0.788000  0.895700  1
  H  H49  1  0.211400  0.297500  0.361400  1
  H  H50  1  0.711400  0.202500  0.138600  1
  H  H51  1  0.788600  0.702500  0.638600  1
  H  H52  1  0.288600  0.797500  0.861400  1
  H  H53  1  0.864700  0.290400  0.407400  1
  H  H54  1  0.364700  0.209600  0.092600  1
  H  H55  1  0.135300  0.709600  0.592600  1
  H  H56  1  0.635300  0.790400  0.907400  1
  H  H57  1  0.817000  0.325500  0.454100  1
  H  H58  1  0.317000  0.174500  0.045900  1
  H  H59  1  0.183000  0.674500  0.545900  1
  H  H60  1  0.683000  0.825500  0.954100  1
  H  H61  1  0.514000  0.167000  0.535400  1.0
  H  H62  1  0.014000  0.333000  0.964600  1.0
  H  H63  1  0.486000  0.833000  0.464600  1.0
  H  H64  1  0.986000  0.667000  0.035400  1.0
  H  H65  1  0.902400  0.215100  0.480400  1.0
  H  H66  1  0.402400  0.284900  0.019600  1.0
  H  H67  1  0.097600  0.784900  0.519600  1.0
  H  H68  1  0.597600  0.715100  0.980400  1.0
  H  H69  1  0.866000  0.286200  0.478400  1.0
  H  H70  1  0.366000  0.213800  0.021600  1.0
  H  H71  1  0.134000  0.713800  0.521600  1.0
  H  H72  1  0.634000  0.786200  0.978400  1.0
  H  H73  1  0.767400  0.302400  0.412200  1.0
  H  H74  1  0.267400  0.197600  0.087800  1.0
  H  H75  1  0.232600  0.697600  0.587800  1.0
  H  H76  1  0.732600  0.802400  0.912200  1.0
  H  H77  1  0.743000  0.241700  0.372700  1.0
  H  H78  1  0.243000  0.258300  0.127300  1.0
  H  H79  1  0.257000  0.758300  0.627300  1.0
  H  H80  1  0.757000  0.741700  0.872700  1.0
  H  H81  1  0.667800  0.228200  0.753900  1.0
  H  H82  1  0.167800  0.271800  0.746100  1.0
  H  H83  1  0.332200  0.771800  0.246100  1.0
  H  H84  1  0.832200  0.728200  0.253900  1.0
  H  H85  1  0.664000  0.149400  0.754300  1.0
  H  H86  1  0.164000  0.350600  0.745700  1.0
  H  H87  1  0.336000  0.850600  0.245700  1.0
  H  H88  1  0.836000  0.649400  0.254300  1.0
  H  H89  1  0.777200  0.202300  0.770000  1.0
  H  H90  1  0.277200  0.297700  0.730000  1.0
  H  H91  1  0.222800  0.797700  0.230000  1.0
  H  H92  1  0.722800  0.702300  0.270000  1.0
  H  H93  1  0.773900  0.136000  0.733300  1.0
  H  H94  1  0.273900  0.364000  0.766700  1.0
  H  H95  1  0.226100  0.864000  0.266700  1.0
  H  H96  1  0.726100  0.636000  0.233300  1.0
  H  H97  1  0.849200  0.189900  0.696800  1.0
  H  H98  1  0.349200  0.310100  0.803200  1.0
  H  H99  1  0.150800  0.810100  0.303200  1.0
  H  H100  1  0.650800  0.689900  0.196800  1.0
  H  H101  1  0.808000  0.258400  0.708000  1.0
  H  H102  1  0.308000  0.241600  0.792000  1.0
  H  H103  1  0.192000  0.741600  0.292000  1.0
  H  H104  1  0.692000  0.758400  0.208000  1.0
  H  H105  1  0.360500  0.109700  0.503800  1.0
  H  H106  1  0.860500  0.390300  0.996200  1.0
  H  H107  1  0.639500  0.890300  0.496200  1.0
  H  H108  1  0.139500  0.609700  0.003800  1.0
  H  H109  1  0.235700  0.033200  0.277300  1.0
  H  H110  1  0.735700  0.466800  0.222700  1.0
  H  H111  1  0.764300  0.966800  0.722700  1.0
  H  H112  1  0.264300  0.533200  0.777300  1.0
  H  H113  1  0.214400  0.109700  0.283700  1.0
  H  H114  1  0.714400  0.390300  0.216300  1.0
  H  H115  1  0.785600  0.890300  0.716300  1.0
  H  H116  1  0.285600  0.609700  0.783700  1.0
  H  H117  1  0.137800  0.949700  0.305200  1.0
  H  H118  1  0.637800  0.550300  0.194800  1.0
  H  H119  1  0.862200  0.050300  0.694800  1.0
  H  H120  1  0.362200  0.449700  0.805200  1.0
  H  H121  1  0.063300  0.979400  0.327200  1.0
  H  H122  1  0.563300  0.520600  0.172800  1.0
  H  H123  1  0.936700  0.020600  0.672800  1.0
  H  H124  1  0.436700  0.479400  0.827200  1.0
  H  H125  1  0.059900  0.896700  0.551700  1.0
  H  H126  1  0.559900  0.603300  0.948300  1.0
  H  H127  1  0.940100  0.103300  0.448300  1.0
  H  H128  1  0.440100  0.396700  0.051700  1.0
  H  H129  1  0.006500  0.951500  0.530800  1.0
  H  H130  1  0.506500  0.548500  0.969200  1.0
  H  H131  1  0.993500  0.048500  0.469200  1.0
  H  H132  1  0.493500  0.451500  0.030800  1.0
  H  H133  1  0.026600  0.957500  0.626200  1.0
  H  H134  1  0.526600  0.542500  0.873800  1.0
  H  H135  1  0.973400  0.042500  0.373800  1.0
  H  H136  1  0.473400  0.457500  0.126200  1.0
  H  H137  1  0.037300  0.025400  0.597600  1.0
  H  H138  1  0.537300  0.474600  0.902400  1.0
  H  H139  1  0.962700  0.974600  0.402400  1.0
  H  H140  1  0.462700  0.525400  0.097600  1.0
  H  H141  1  0.131200  0.015700  0.656300  1.0
  H  H142  1  0.631200  0.484300  0.843700  1.0
  H  H143  1  0.868800  0.984300  0.343700  1.0
  H  H144  1  0.368800  0.515700  0.156300  1.0
  H  H145  1  0.148500  0.942300  0.632800  1.0
  H  H146  1  0.648500  0.557700  0.867200  1.0
  H  H147  1  0.851500  0.057700  0.367200  1.0
  H  H148  1  0.351500  0.442300  0.132800  1.0
  H  H149  1  0.189800  0.114400  0.704800  1.0
  H  H150  1  0.689800  0.385600  0.795200  1.0
  H  H151  1  0.810200  0.885600  0.295200  1.0
  H  H152  1  0.310200  0.614400  0.204800  1.0
  H  H153  1  0.270000  0.131400  0.723200  1.0
  H  H154  1  0.770000  0.368600  0.776800  1.0
  H  H155  1  0.730000  0.868600  0.276800  1.0
  H  H156  1  0.230000  0.631400  0.223200  1.0
  H  H157  1  0.206500  0.102200  0.798600  1.0
  H  H158  1  0.706500  0.397800  0.701400  1.0
  H  H159  1  0.793500  0.897800  0.201400  1.0
  H  H160  1  0.293500  0.602200  0.298600  1.0
  H  H161  1  0.179900  0.035000  0.768300  1.0
  H  H162  1  0.679900  0.465000  0.731700  1.0
  H  H163  1  0.820100  0.965000  0.231700  1.0
  H  H164  1  0.320100  0.535000  0.268300  1.0
  H  H165  1  0.322200  0.063500  0.803100  1.0
  H  H166  1  0.822200  0.436500  0.696900  1.0
  H  H167  1  0.677800  0.936500  0.196900  1.0
  H  H168  1  0.177800  0.563500  0.303100  1.0
  H  H169  1  0.271400  0.006600  0.824200  1.0
  H  H170  1  0.771400  0.493400  0.675800  1.0
  H  H171  1  0.728600  0.993400  0.175800  1.0
  H  H172  1  0.228600  0.506600  0.324200  1.0
  H  H173  1  0.336000  0.932700  0.531000  1.0
  H  H174  1  0.836000  0.567300  0.969000  1.0
  H  H175  1  0.664000  0.067300  0.469000  1.0
  H  H176  1  0.164000  0.432700  0.031000  1.0
  H  H177  1  0.596400  0.851100  0.837000  1.0
  H  H178  1  0.096400  0.648900  0.663000  1.0
  H  H179  1  0.403600  0.148900  0.163000  1.0
  H  H180  1  0.903600  0.351100  0.337000  1.0
  H  H181  1  0.551900  0.810200  0.791300  1.0
  H  H182  1  0.051900  0.689800  0.708700  1.0
  H  H183  1  0.448100  0.189800  0.208700  1.0
  H  H184  1  0.948100  0.310200  0.291300  1.0
  H  H185  1  0.699600  0.836500  0.791900  1.0
  H  H186  1  0.199600  0.663500  0.708100  1.0
  H  H187  1  0.300400  0.163500  0.208100  1.0
  H  H188  1  0.800400  0.336500  0.291900  1.0
  H  H189  1  0.662400  0.765600  0.791700  1.0
  H  H190  1  0.162400  0.734400  0.708300  1.0
  H  H191  1  0.337600  0.234400  0.208300  1.0
  H  H192  1  0.837600  0.265600  0.291700  1.0
  H  H193  1  0.627900  0.771300  0.703600  1.0
  H  H194  1  0.127900  0.728700  0.796400  1.0
  H  H195  1  0.372100  0.228700  0.296400  1.0
  H  H196  1  0.872100  0.271300  0.203600  1.0
  H  H197  1  0.711400  0.788400  0.706900  1.0
  H  H198  1  0.211400  0.711600  0.793100  1.0
  H  H199  1  0.288600  0.211600  0.293100  1.0
  H  H200  1  0.788600  0.288400  0.206900  1.0
  H  H201  1  0.215500  0.339000  0.479600  1.0
  H  H202  1  0.715500  0.161000  0.020400  1.0
  H  H203  1  0.784500  0.661000  0.520400  1.0
  H  H204  1  0.284500  0.839000  0.979600  1.0
  H  H205  1  0.223100  0.346300  0.416200  1.0
  H  H206  1  0.723100  0.153700  0.083800  1.0
  H  H207  1  0.776900  0.653700  0.583800  1.0
  H  H208  1  0.276900  0.846300  0.916200  1.0
  H  H209  1  0.177600  0.170800  0.402300  1.0
  H  H210  1  0.677600  0.329200  0.097700  1.0
  H  H211  1  0.822400  0.829200  0.597700  1.0
  H  H212  1  0.322400  0.670800  0.902300  1.0
  H  H213  1  0.193800  0.223800  0.358500  1.0
  H  H214  1  0.693800  0.276200  0.141500  1.0
  H  H215  1  0.806200  0.776200  0.641500  1.0
  H  H216  1  0.306200  0.723800  0.858500  1.0
  H  H217  1  0.610200  0.303800  0.660200  1.0
  H  H218  1  0.110200  0.196200  0.839800  1.0
  H  H219  1  0.389800  0.696200  0.339800  1.0
  H  H220  1  0.889800  0.803800  0.160200  1.0
  H  H221  1  0.577100  0.307900  0.719600  1.0
  H  H222  1  0.077100  0.192100  0.780400  1.0
  H  H223  1  0.422900  0.692100  0.280400  1.0
  H  H224  1  0.922900  0.807900  0.219600  1.0
  H  H225  1  0.554200  0.408200  0.685700  1.0
  H  H226  1  0.054200  0.091800  0.814300  1.0
  H  H227  1  0.445800  0.591800  0.314300  1.0
  H  H228  1  0.945800  0.908200  0.185700  1.0
  H  H229  1  0.526400  0.375000  0.629700  1.0
  H  H230  1  0.026400  0.125000  0.870300  1.0
  H  H231  1  0.473600  0.625000  0.370300  1.0
  H  H232  1  0.973600  0.875000  0.129700  1.0
  H  H233  1  0.453600  0.370200  0.730100  1.0
  H  H234  1  0.953600  0.129800  0.769900  1.0
  H  H235  1  0.546400  0.629800  0.269900  1.0
  H  H236  1  0.046400  0.870200  0.230100  1.0
  H  H237  1  0.427700  0.411100  0.680300  1.0
  H  H238  1  0.927700  0.088900  0.819700  1.0
  H  H239  1  0.572300  0.588900  0.319700  1.0
  H  H240  1  0.072300  0.911100  0.180300  1.0
  H  H241  1  0.176200  0.288200  0.568600  1.0
  H  H242  1  0.676200  0.211800  0.931400  1.0
  H  H243  1  0.823800  0.711800  0.431400  1.0
  H  H244  1  0.323800  0.788200  0.068600  1.0
  H  H245  1  0.176900  0.319700  0.629100  1.0
  H  H246  1  0.676900  0.180300  0.870900  1.0
  H  H247  1  0.823100  0.680300  0.370900  1.0
  H  H248  1  0.323100  0.819700  0.129100  1.0
  H  H249  1  0.085900  0.236700  0.612800  1.0
  H  H250  1  0.585900  0.263300  0.887200  1.0
  H  H251  1  0.914100  0.763300  0.387200  1.0
  H  H252  1  0.414100  0.736700  0.112800  1.0
  H  H253  1  0.136700  0.223500  0.662900  1.0
  H  H254  1  0.636700  0.276500  0.837100  1.0
  H  H255  1  0.863300  0.776500  0.337100  1.0
  H  H256  1  0.363300  0.723500  0.162900  1.0
  H  H257  1  0.125300  0.125000  0.611400  1.0
  H  H258  1  0.625300  0.375000  0.888600  1.0
  H  H259  1  0.874700  0.875000  0.388600  1.0
  H  H260  1  0.374700  0.625000  0.111400  1.0
  H  H261  1  0.147700  0.160100  0.557900  1.0
  H  H262  1  0.647700  0.339900  0.942100  1.0
  H  H263  1  0.852300  0.839900  0.442100  1.0
  H  H264  1  0.352300  0.660100  0.057900  1.0
  H  H265  1  0.444900  0.046200  0.621900  1.0
  H  H266  1  0.944900  0.453800  0.878100  1.0
  H  H267  1  0.555100  0.953800  0.378100  1.0
  H  H268  1  0.055100  0.546200  0.121900  1.0
  H  H269  1  0.450000  0.077600  0.854400  1.0
  H  H270  1  0.950000  0.422400  0.645600  1.0
  H  H271  1  0.550000  0.922400  0.145600  1.0
  H  H272  1  0.050000  0.577600  0.354400  1.0
  H  H273  1  0.526400  0.112200  0.862200  1.0
  H  H274  1  0.026400  0.387800  0.637800  1.0
  H  H275  1  0.473600  0.887800  0.137800  1.0
  H  H276  1  0.973600  0.612200  0.362200  1.0
  H  H277  1  0.457200  0.190500  0.845200  1.0
  H  H278  1  0.957200  0.309500  0.654800  1.0
  H  H279  1  0.542800  0.809500  0.154800  1.0
  H  H280  1  0.042800  0.690500  0.345200  1.0
  H  H281  1  0.412700  0.147100  0.801900  1.0
  H  H282  1  0.912700  0.352900  0.698100  1.0
  H  H283  1  0.587300  0.852900  0.198100  1.0
  H  H284  1  0.087300  0.647100  0.301900  1.0
  H  H285  1  0.535900  0.216000  0.789300  1.0
  H  H286  1  0.035900  0.284000  0.710700  1.0
  H  H287  1  0.464100  0.784000  0.210700  1.0
  H  H288  1  0.964100  0.716000  0.289300  1.0
  H  H289  1  0.463900  0.215400  0.754700  1.0
  H  H290  1  0.963900  0.284600  0.745300  1.0
  H  H291  1  0.536100  0.784600  0.245300  1.0
  H  H292  1  0.036100  0.715400  0.254700  1.0
  H  H293  1  0.496900  0.097700  0.392700  1.0
  H  H294  1  0.996900  0.402300  0.107300  1.0
  H  H295  1  0.503100  0.902300  0.607300  1.0
  H  H296  1  0.003100  0.597700  0.892700  1.0
  H  H297  1  0.654200  0.339900  0.495900  1.0
  H  H298  1  0.154200  0.160100  0.004100  1.0
  H  H299  1  0.345800  0.660100  0.504100  1.0
  H  H300  1  0.845800  0.839900  0.995900  1.0
  H  H301  1  0.640500  0.371500  0.439400  1.0
  H  H302  1  0.140500  0.128500  0.060600  1.0
  H  H303  1  0.359500  0.628500  0.560600  1.0
  H  H304  1  0.859500  0.871500  0.939400  1.0
  H  H305  1  0.576200  0.400200  0.537300  1.0
  H  H306  1  0.076200  0.099800  0.962700  1.0
  H  H307  1  0.423800  0.599800  0.462700  1.0
  H  H308  1  0.923800  0.900200  0.037300  1.0
  H  H309  1  0.601300  0.449200  0.493200  1.0
  H  H310  1  0.101300  0.050800  0.006800  1.0
  H  H311  1  0.398700  0.550800  0.506800  1.0
  H  H312  1  0.898700  0.949200  0.993200  1.0
  H  H313  1  0.503500  0.442300  0.450900  1.0
  H  H314  1  0.003500  0.057700  0.049100  1.0
  H  H315  1  0.496500  0.557700  0.549100  1.0
  H  H316  1  0.996500  0.942300  0.950900  1.0
  H  H317  1  0.480100  0.442700  0.512600  1.0
  H  H318  1  0.980100  0.057300  0.987400  1.0
  H  H319  1  0.519900  0.557300  0.487400  1.0
  H  H320  1  0.019900  0.942700  0.012600  1.0
  H  H321  1  0.363500  0.678400  0.658100  1.0
  H  H322  1  0.863500  0.821600  0.841900  1.0
  H  H323  1  0.636500  0.321600  0.341900  1.0
  H  H324  1  0.136500  0.178400  0.158100  1.0
  H  H325  1  0.446300  0.694300  0.649200  1.0
  H  H326  1  0.946300  0.805700  0.850800  1.0
  H  H327  1  0.553700  0.305700  0.350800  1.0
  H  H328  1  0.053700  0.194300  0.149200  1.0
  H  H329  1  0.328400  0.742200  0.763800  1.0
  H  H330  1  0.828400  0.757800  0.736200  1.0
  H  H331  1  0.671600  0.257800  0.236200  1.0
  H  H332  1  0.171600  0.242200  0.263800  1.0
  H  H333  1  0.400700  0.773300  0.788100  1.0
  H  H334  1  0.900700  0.726700  0.711900  1.0
  H  H335  1  0.599300  0.226700  0.211900  1.0
  H  H336  1  0.099300  0.273300  0.288100  1.0
  H  H337  1  0.632800  0.037800  0.588800  1.0
  H  H338  1  0.132800  0.462200  0.911200  1.0
  H  H339  1  0.367200  0.962200  0.411200  1.0
  H  H340  1  0.867200  0.537800  0.088800  1.0
  H  H341  1  0.140000  0.284900  0.425600  1.0
  H  H342  1  0.640000  0.215100  0.074400  1.0
  H  H343  1  0.860000  0.715100  0.574400  1.0
  H  H344  1  0.360000  0.784900  0.925600  1.0
  H  H345  1  0.178800  0.246600  0.471400  1.0
  H  H346  1  0.678800  0.253400  0.028600  1.0
  H  H347  1  0.821200  0.753400  0.528600  1.0
  H  H348  1  0.321200  0.746600  0.971400  1.0
  H  H349  1  0.869600  0.240800  0.389700  1.0
  H  H350  1  0.369600  0.259200  0.110300  1.0
  H  H351  1  0.130400  0.759200  0.610300  1.0
  H  H352  1  0.630400  0.740800  0.889700  1.0
  H  H353  1  0.832000  0.173900  0.407200  1.0
  H  H354  1  0.332000  0.326100  0.092800  1.0
  H  H355  1  0.168000  0.826100  0.592800  1.0
  H  H356  1  0.668000  0.673900  0.907200  1.0
  H  H357  1  0.100300  0.083900  0.315200  1.0
  H  H358  1  0.600300  0.416100  0.184800  1.0
  H  H359  1  0.899700  0.916100  0.684800  1.0
  H  H360  1  0.399700  0.583900  0.815200  1.0
  H  H361  1  0.112800  0.041100  0.260100  1.0
  H  H362  1  0.612800  0.458900  0.239900  1.0
  H  H363  1  0.887200  0.958900  0.739900  1.0
  H  H364  1  0.387200  0.541100  0.760100  1.0
  H  H365  1  0.462600  0.730900  0.730400  1.0
  H  H366  1  0.962600  0.769100  0.769600  1.0
  H  H367  1  0.537400  0.269100  0.269600  1.0
  H  H368  1  0.037400  0.230900  0.230400  1.0
  H  H369  1  0.403700  0.676200  0.739000  1.0
  H  H370  1  0.903700  0.823800  0.761000  1.0
  H  H371  1  0.596300  0.323800  0.261000  1.0
  H  H372  1  0.096300  0.176200  0.239000  1.0
  H  H373  1  0.335000  0.319000  0.464000  1.0
  H  H374  1  0.835000  0.181000  0.036000  1.0
  H  H375  1  0.665000  0.681000  0.536000  1.0
  H  H376  1  0.165000  0.819000  0.964000  1.0
  H  H377  1  0.106000  0.955000  0.477000  1.0
  H  H378  1  0.606000  0.545000  0.023000  1.0
  H  H379  1  0.894000  0.045000  0.523000  1.0
  H  H380  1  0.394000  0.455000  0.977000  1.0
  H  H381  1  0.137000  0.957000  0.402000  1.0
  H  H382  1  0.637000  0.543000  0.098000  1.0
  H  H383  1  0.863000  0.043000  0.598000  1.0
  H  H384  1  0.363000  0.457000  0.902000  1.0
  H  H385  1  0.297000  0.279000  0.609000  1.0
  H  H386  1  0.797000  0.221000  0.891000  1.0
  H  H387  1  0.703000  0.721000  0.391000  1.0
  H  H388  1  0.203000  0.779000  0.109000  1.0
  H  H389  1  0.381000  0.313000  0.645000  1.0
  H  H390  1  0.881000  0.187000  0.855000  1.0
  H  H391  1  0.619000  0.687000  0.355000  1.0
  H  H392  1  0.119000  0.813000  0.145000  1.0
  H  H393  1  0.338000  0.954000  0.750000  1.0
  H  H394  1  0.838000  0.546000  0.750000  1.0
  H  H395  1  0.662000  0.046000  0.250000  1.0
  H  H396  1  0.162000  0.454000  0.250000  1.0
  C  C397  1  0.754000  0.456500  0.557800  1
  C  C398  1  0.254000  0.043500  0.942200  1
  C  C399  1  0.246000  0.543500  0.442200  1
  C  C400  1  0.746000  0.956500  0.057800  1
  C  C401  1  0.866300  0.404200  0.549300  1
  C  C402  1  0.366300  0.095800  0.950700  1
  C  C403  1  0.133700  0.595800  0.450700  1
  C  C404  1  0.633700  0.904200  0.049300  1
  C  C405  1  0.772100  0.354500  0.593400  1
  C  C406  1  0.272100  0.145500  0.906600  1
  C  C407  1  0.227900  0.645500  0.406600  1
  C  C408  1  0.727900  0.854500  0.093400  1
  C  C409  1  0.192100  0.279900  0.394700  1
  C  C410  1  0.692100  0.220100  0.105300  1
  C  C411  1  0.807900  0.720100  0.605300  1
  C  C412  1  0.307900  0.779900  0.894700  1
  C  C413  1  0.828500  0.282600  0.435300  1
  C  C414  1  0.328500  0.217400  0.064700  1
  C  C415  1  0.171500  0.717400  0.564700  1
  C  C416  1  0.671500  0.782600  0.935300  1
  C  C417  1  0.563000  0.175000  0.543200  1.0
  C  C418  1  0.063000  0.325000  0.956800  1.0
  C  C419  1  0.437000  0.825000  0.456800  1.0
  C  C420  1  0.937000  0.675000  0.043200  1.0
  C  C421  1  0.664100  0.186800  0.586800  1.0
  C  C422  1  0.164100  0.313200  0.913200  1.0
  C  C423  1  0.335900  0.813200  0.413200  1.0
  C  C424  1  0.835900  0.686800  0.086800  1.0
  C  C425  1  0.676800  0.197900  0.533200  1.0
  C  C426  1  0.176800  0.302100  0.966800  1.0
  C  C427  1  0.323200  0.802100  0.466800  1.0
  C  C428  1  0.823200  0.697900  0.033200  1.0
  C  C429  1  0.733700  0.218200  0.496200  1.0
  C  C430  1  0.233700  0.281800  0.003800  1.0
  C  C431  1  0.266300  0.781800  0.503800  1.0
  C  C432  1  0.766300  0.718200  0.996200  1.0
  C  C433  1  0.857100  0.238200  0.473200  1.0
  C  C434  1  0.357100  0.261800  0.026800  1.0
  C  C435  1  0.142900  0.761800  0.526800  1.0
  C  C436  1  0.642900  0.738200  0.973200  1.0
  C  C437  1  0.761900  0.253800  0.409100  1.0
  C  C438  1  0.261900  0.246200  0.090900  1.0
  C  C439  1  0.238100  0.746200  0.590900  1.0
  C  C440  1  0.738100  0.753800  0.909100  1.0
  C  C441  1  0.699300  0.192100  0.640000  1.0
  C  C442  1  0.199300  0.307900  0.860000  1.0
  C  C443  1  0.300700  0.807900  0.360000  1.0
  C  C444  1  0.800700  0.692100  0.140000  1.0
  C  C445  1  0.683500  0.186600  0.734800  1.0
  C  C446  1  0.183500  0.313400  0.765200  1.0
  C  C447  1  0.316500  0.813400  0.265200  1.0
  C  C448  1  0.816500  0.686600  0.234800  1.0
  C  C449  1  0.761200  0.183400  0.734600  1.0
  C  C450  1  0.261200  0.316600  0.765400  1.0
  C  C451  1  0.238800  0.816600  0.265400  1.0
  C  C452  1  0.738800  0.683400  0.234600  1.0
  C  C453  1  0.801500  0.211000  0.697800  1.0
  C  C454  1  0.301500  0.289000  0.802200  1.0
  C  C455  1  0.198500  0.789000  0.302200  1.0
  C  C456  1  0.698500  0.711000  0.197800  1.0
  C  C457  1  0.318400  0.086300  0.493400  1.0
  C  C458  1  0.818400  0.413700  0.006600  1.0
  C  C459  1  0.681600  0.913700  0.506600  1.0
  C  C460  1  0.181600  0.586300  0.993400  1.0
  C  C461  1  0.233800  0.041700  0.444800  1.0
  C  C462  1  0.733800  0.458300  0.055200  1.0
  C  C463  1  0.766200  0.958300  0.555200  1.0
  C  C464  1  0.266200  0.541700  0.944800  1.0
  C  C465  1  0.220900  0.028800  0.498300  1.0
  C  C466  1  0.720900  0.471200  0.001700  1.0
  C  C467  1  0.779100  0.971200  0.501700  1.0
  C  C468  1  0.279100  0.528800  0.998300  1.0
  C  C469  1  0.202600  0.033000  0.390100  1.0
  C  C470  1  0.702600  0.467000  0.109900  1.0
  C  C471  1  0.797400  0.967000  0.609900  1.0
  C  C472  1  0.297400  0.533000  0.890100  1.0
  C  C473  1  0.208100  0.066200  0.299300  1.0
  C  C474  1  0.708100  0.433800  0.200700  1.0
  C  C475  1  0.791900  0.933800  0.700700  1.0
  C  C476  1  0.291900  0.566200  0.799300  1.0
  C  C477  1  0.115400  0.987600  0.325400  1.0
  C  C478  1  0.615400  0.512400  0.174600  1.0
  C  C479  1  0.884600  0.012400  0.674600  1.0
  C  C480  1  0.384600  0.487600  0.825400  1.0
  C  C481  1  0.167800  0.000900  0.532300  1.0
  C  C482  1  0.667800  0.499100  0.967700  1.0
  C  C483  1  0.832200  0.999100  0.467700  1.0
  C  C484  1  0.332200  0.500900  0.032300  1.0
  C  C485  1  0.053800  0.944500  0.547400  1.0
  C  C486  1  0.553800  0.555500  0.952600  1.0
  C  C487  1  0.946200  0.055500  0.452600  1.0
  C  C488  1  0.446200  0.444500  0.047400  1.0
  C  C489  1  0.057100  0.980600  0.600700  1.0
  C  C490  1  0.557100  0.519400  0.899300  1.0
  C  C491  1  0.942900  0.019400  0.399300  1.0
  C  C492  1  0.442900  0.480600  0.100700  1.0
  C  C493  1  0.131500  0.986300  0.623200  1.0
  C  C494  1  0.631500  0.513700  0.876800  1.0
  C  C495  1  0.868500  0.013700  0.376800  1.0
  C  C496  1  0.368500  0.486300  0.123200  1.0
  C  C497  1  0.234600  0.095300  0.718300  1.0
  C  C498  1  0.734600  0.404700  0.781700  1.0
  C  C499  1  0.765400  0.904700  0.281700  1.0
  C  C500  1  0.265400  0.595300  0.218300  1.0
  C  C501  1  0.220400  0.066300  0.772100  1.0
  C  C502  1  0.720400  0.433700  0.727900  1.0
  C  C503  1  0.779600  0.933700  0.227900  1.0
  C  C504  1  0.279600  0.566300  0.272100  1.0
  C  C505  1  0.284300  0.031400  0.792400  1.0
  C  C506  1  0.784300  0.468600  0.707600  1.0
  C  C507  1  0.715700  0.968600  0.207600  1.0
  C  C508  1  0.215700  0.531400  0.292400  1.0
  C  C509  1  0.296800  0.995500  0.696300  1.0
  C  C510  1  0.796800  0.504500  0.803700  1.0
  C  C511  1  0.703200  0.004500  0.303700  1.0
  C  C512  1  0.203200  0.495500  0.196300  1.0
  C  C513  1  0.321900  0.948200  0.654300  1.0
  C  C514  1  0.821900  0.551800  0.845700  1.0
  C  C515  1  0.678100  0.051800  0.345700  1.0
  C  C516  1  0.178100  0.448200  0.154300  1.0
  C  C517  1  0.336300  0.927700  0.568700  1.0
  C  C518  1  0.836300  0.572300  0.931300  1.0
  C  C519  1  0.663700  0.072300  0.431300  1.0
  C  C520  1  0.163700  0.427700  0.068700  1.0
  C  C521  1  0.597700  0.972600  0.695200  1.0
  C  C522  1  0.097700  0.527400  0.804800  1.0
  C  C523  1  0.402300  0.027400  0.304800  1.0
  C  C524  1  0.902300  0.472600  0.195200  1.0
  C  C525  1  0.608300  0.911900  0.722400  1.0
  C  C526  1  0.108300  0.588100  0.777600  1.0
  C  C527  1  0.391700  0.088100  0.277600  1.0
  C  C528  1  0.891700  0.411900  0.222400  1.0
  C  C529  1  0.592500  0.840800  0.797800  1.0
  C  C530  1  0.092500  0.659200  0.702200  1.0
  C  C531  1  0.407500  0.159200  0.202200  1.0
  C  C532  1  0.907500  0.340800  0.297800  1.0
  C  C533  1  0.658500  0.810200  0.777700  1.0
  C  C534  1  0.158500  0.689800  0.722300  1.0
  C  C535  1  0.341500  0.189800  0.222300  1.0
  C  C536  1  0.841500  0.310200  0.277700  1.0
  C  C537  1  0.663200  0.804200  0.717800  1.0
  C  C538  1  0.163200  0.695800  0.782200  1.0
  C  C539  1  0.336800  0.195800  0.282200  1.0
  C  C540  1  0.836800  0.304200  0.217800  1.0
  C  C541  1  0.324100  0.236900  0.424300  1.0
  C  C542  1  0.824100  0.263100  0.075700  1.0
  C  C543  1  0.675900  0.763100  0.575700  1.0
  C  C544  1  0.175900  0.736900  0.924300  1.0
  C  C545  1  0.228700  0.315300  0.445200  1.0
  C  C546  1  0.728700  0.184700  0.054800  1.0
  C  C547  1  0.771300  0.684700  0.554800  1.0
  C  C548  1  0.271300  0.815300  0.945200  1.0
  C  C549  1  0.205900  0.210500  0.395000  1.0
  C  C550  1  0.705900  0.289500  0.105000  1.0
  C  C551  1  0.794100  0.789500  0.605000  1.0
  C  C552  1  0.294100  0.710500  0.895000  1.0
  C  C553  1  0.565000  0.307100  0.680900  1.0
  C  C554  1  0.065000  0.192900  0.819100  1.0
  C  C555  1  0.435000  0.692900  0.319100  1.0
  C  C556  1  0.935000  0.807100  0.180900  1.0
  C  C557  1  0.527500  0.370300  0.669000  1.0
  C  C558  1  0.027500  0.129700  0.831000  1.0
  C  C559  1  0.472500  0.629700  0.331000  1.0
  C  C560  1  0.972500  0.870300  0.169000  1.0
  C  C561  1  0.452800  0.370700  0.690400  1.0
  C  C562  1  0.952800  0.129300  0.809600  1.0
  C  C563  1  0.547200  0.629300  0.309600  1.0
  C  C564  1  0.047200  0.870700  0.190400  1.0
  C  C565  1  0.452800  0.256200  0.656700  1.0
  C  C566  1  0.952800  0.243800  0.843300  1.0
  C  C567  1  0.547200  0.743800  0.343300  1.0
  C  C568  1  0.047200  0.756200  0.156700  1.0
  C  C569  1  0.276900  0.193300  0.613000  1.0
  C  C570  1  0.776900  0.306700  0.887000  1.0
  C  C571  1  0.723100  0.806700  0.387000  1.0
  C  C572  1  0.223100  0.693300  0.113000  1.0
  C  C573  1  0.185200  0.278700  0.606600  1.0
  C  C574  1  0.685200  0.221300  0.893400  1.0
  C  C575  1  0.814800  0.721300  0.393400  1.0
  C  C576  1  0.314800  0.778700  0.106600  1.0
  C  C577  1  0.135400  0.225700  0.623300  1.0
  C  C578  1  0.635400  0.274300  0.876700  1.0
  C  C579  1  0.864600  0.774300  0.376700  1.0
  C  C580  1  0.364600  0.725700  0.123300  1.0
  C  C581  1  0.155900  0.159700  0.597200  1.0
  C  C582  1  0.655900  0.340300  0.902800  1.0
  C  C583  1  0.844100  0.840300  0.402800  1.0
  C  C584  1  0.344100  0.659700  0.097200  1.0
  C  C585  1  0.348900  0.170300  0.622400  1.0
  C  C586  1  0.848900  0.329700  0.877600  1.0
  C  C587  1  0.651100  0.829700  0.377600  1.0
  C  C588  1  0.151100  0.670300  0.122400  1.0
  C  C589  1  0.415900  0.195800  0.637500  1.0
  C  C590  1  0.915900  0.304200  0.862500  1.0
  C  C591  1  0.584100  0.804200  0.362500  1.0
  C  C592  1  0.084100  0.695800  0.137500  1.0
  C  C593  1  0.425100  0.089300  0.624600  1.0
  C  C594  1  0.925100  0.410700  0.875400  1.0
  C  C595  1  0.574900  0.910700  0.375400  1.0
  C  C596  1  0.074900  0.589300  0.124600  1.0
  C  C597  1  0.537900  0.079000  0.746100  1.0
  C  C598  1  0.037900  0.421000  0.753900  1.0
  C  C599  1  0.462100  0.921000  0.253900  1.0
  C  C600  1  0.962100  0.579000  0.246100  1.0
  C  C601  1  0.570200  0.035800  0.703700  1.0
  C  C602  1  0.070200  0.464200  0.796300  1.0
  C  C603  1  0.429800  0.964200  0.296300  1.0
  C  C604  1  0.929800  0.535800  0.203700  1.0
  C  C605  1  0.488700  0.100200  0.835600  1.0
  C  C606  1  0.988700  0.399800  0.664400  1.0
  C  C607  1  0.511300  0.899800  0.164400  1.0
  C  C608  1  0.011300  0.600200  0.335600  1.0
  C  C609  1  0.461700  0.157100  0.814900  1.0
  C  C610  1  0.961700  0.342900  0.685100  1.0
  C  C611  1  0.538300  0.842900  0.185100  1.0
  C  C612  1  0.038300  0.657100  0.314900  1.0
  C  C613  1  0.497900  0.187100  0.773400  1.0
  C  C614  1  0.997900  0.312900  0.726600  1.0
  C  C615  1  0.502100  0.812900  0.226600  1.0
  C  C616  1  0.002100  0.687100  0.273400  1.0
  C  C617  1  0.465700  0.239100  0.440100  1.0
  C  C618  1  0.965700  0.260900  0.059900  1.0
  C  C619  1  0.534300  0.760900  0.559900  1.0
  C  C620  1  0.034300  0.739100  0.940100  1.0
  C  C621  1  0.398800  0.215300  0.426700  1.0
  C  C622  1  0.898800  0.284700  0.073300  1.0
  C  C623  1  0.601200  0.784700  0.573300  1.0
  C  C624  1  0.101200  0.715300  0.926700  1.0
  C  C625  1  0.476600  0.138600  0.405300  1.0
  C  C626  1  0.976600  0.361400  0.094700  1.0
  C  C627  1  0.523400  0.861400  0.594700  1.0
  C  C628  1  0.023400  0.638600  0.905300  1.0
  C  C629  1  0.502500  0.300600  0.457600  1.0
  C  C630  1  0.002500  0.199400  0.042400  1.0
  C  C631  1  0.497500  0.699400  0.542400  1.0
  C  C632  1  0.997500  0.800600  0.957600  1.0
  C  C633  1  0.616500  0.354300  0.471200  1.0
  C  C634  1  0.116500  0.145700  0.028800  1.0
  C  C635  1  0.383500  0.645700  0.528800  1.0
  C  C636  1  0.883500  0.854300  0.971200  1.0
  C  C637  1  0.575500  0.407400  0.498300  1.0
  C  C638  1  0.075500  0.092600  0.001700  1.0
  C  C639  1  0.424500  0.592600  0.501700  1.0
  C  C640  1  0.924500  0.907400  0.998300  1.0
  C  C641  1  0.504700  0.416600  0.483500  1.0
  C  C642  1  0.004700  0.083400  0.016500  1.0
  C  C643  1  0.495300  0.583400  0.516500  1.0
  C  C644  1  0.995300  0.916600  0.983500  1.0
  C  C645  1  0.401600  0.711400  0.666000  1.0
  C  C646  1  0.901600  0.788600  0.834000  1.0
  C  C647  1  0.598400  0.288600  0.334000  1.0
  C  C648  1  0.098400  0.211400  0.166000  1.0
  C  C649  1  0.374300  0.762800  0.754300  1.0
  C  C650  1  0.874300  0.737200  0.745700  1.0
  C  C651  1  0.625700  0.237200  0.245700  1.0
  C  C652  1  0.125700  0.262800  0.254300  1.0
  C  C653  1  0.365300  0.824100  0.675100  1.0
  C  C654  1  0.865300  0.675900  0.824900  1.0
  C  C655  1  0.634700  0.175900  0.324900  1.0
  C  C656  1  0.134700  0.324100  0.175100  1.0
  C  C657  1  0.349000  0.884900  0.646200  1.0
  C  C658  1  0.849000  0.615100  0.853800  1.0
  C  C659  1  0.651000  0.115100  0.353800  1.0
  C  C660  1  0.151000  0.384900  0.146200  1.0
  C  C661  1  0.617500  0.027300  0.623600  1.0
  C  C662  1  0.117500  0.472700  0.876400  1.0
  C  C663  1  0.382500  0.972700  0.376400  1.0
  C  C664  1  0.882500  0.527300  0.123600  1.0
  C  C665  1  0.186600  0.266800  0.437000  1.0
  C  C666  1  0.686600  0.233200  0.063000  1.0
  C  C667  1  0.813400  0.733200  0.563000  1.0
  C  C668  1  0.313400  0.766800  0.937000  1.0
  C  C669  1  0.834900  0.222200  0.414800  1.0
  C  C670  1  0.334900  0.277800  0.085200  1.0
  C  C671  1  0.165100  0.777800  0.585200  1.0
  C  C672  1  0.665100  0.722200  0.914800  1.0
  C  C673  1  0.128600  0.047400  0.298000  1.0
  C  C674  1  0.628600  0.452600  0.202000  1.0
  C  C675  1  0.871400  0.952600  0.702000  1.0
  C  C676  1  0.371400  0.547400  0.798000  1.0
  C  C677  1  0.411600  0.719900  0.724300  1.0
  C  C678  1  0.911600  0.780100  0.775700  1.0
  C  C679  1  0.588400  0.280100  0.275700  1.0
  C  C680  1  0.088400  0.219900  0.224300  1.0
  S  S681  1  0.417100  0.911600  0.849000  1
  S  S682  1  0.917100  0.588400  0.651000  1
  S  S683  1  0.582900  0.088400  0.151000  1
  S  S684  1  0.082900  0.411600  0.349000  1
  S  S685  1  0.833400  0.093280  0.928100  1
  S  S686  1  0.333400  0.406720  0.571900  1
  S  S687  1  0.166600  0.906720  0.071900  1
  S  S688  1  0.666600  0.593280  0.428100  1
  S  S689  1  0.059920  0.837930  0.406290  1
  S  S690  1  0.559920  0.662070  0.093710  1
  S  S691  1  0.940080  0.162070  0.593710  1
  S  S692  1  0.440080  0.337930  0.906290  1
  N  N693  1  0.796800  0.400600  0.567600  1
  N  N694  1  0.296800  0.099400  0.932400  1
  N  N695  1  0.203200  0.599400  0.432400  1
  N  N696  1  0.703200  0.900600  0.067600  1
  N  N697  1  0.314900  0.974000  0.604600  1.0
  N  N698  1  0.814900  0.526000  0.895400  1.0
  N  N699  1  0.685100  0.026000  0.395400  1.0
  N  N700  1  0.185100  0.474000  0.104600  1.0
  N  N701  1  0.261500  0.045800  0.678600  1.0
  N  N702  1  0.761500  0.454200  0.821400  1.0
  N  N703  1  0.738500  0.954200  0.321400  1.0
  N  N704  1  0.238500  0.545800  0.178600  1.0
  N  N705  1  0.309100  0.986200  0.748700  1.0
  N  N706  1  0.809100  0.513800  0.751300  1.0
  N  N707  1  0.690900  0.013800  0.251300  1.0
  N  N708  1  0.190900  0.486200  0.248700  1.0
  N  N709  1  0.530300  0.140000  0.733700  1.0
  N  N710  1  0.030300  0.360000  0.766300  1.0
  N  N711  1  0.469700  0.860000  0.266300  1.0
  N  N712  1  0.969700  0.640000  0.233700  1.0
  N  N713  1  0.519000  0.054200  0.793000  1.0
  N  N714  1  0.019000  0.445800  0.707000  1.0
  N  N715  1  0.481000  0.945800  0.207000  1.0
  N  N716  1  0.981000  0.554200  0.293000  1.0
  N  N717  1  0.583400  0.069400  0.658200  1.0
  N  N718  1  0.083400  0.430600  0.841800  1.0
  N  N719  1  0.416600  0.930600  0.341800  1.0
  N  N720  1  0.916600  0.569400  0.158200  1.0
  N  N721  1  0.356100  0.102800  0.615300  1.0
  N  N722  1  0.856100  0.397200  0.884700  1.0
  N  N723  1  0.643900  0.897200  0.384700  1.0
  N  N724  1  0.143900  0.602800  0.115300  1.0
  N  N725  1  0.462400  0.143300  0.638100  1.0
  N  N726  1  0.962400  0.356700  0.861900  1.0
  N  N727  1  0.537600  0.856700  0.361900  1.0
  N  N728  1  0.037600  0.643300  0.138100  1.0
  N  N729  1  0.520700  0.248800  0.666900  1.0
  N  N730  1  0.020700  0.251200  0.833100  1.0
  N  N731  1  0.479300  0.751200  0.333100  1.0
  N  N732  1  0.979300  0.748800  0.166900  1.0
  N  N733  1  0.415700  0.312300  0.667700  1.0
  N  N734  1  0.915700  0.187700  0.832300  1.0
  N  N735  1  0.584300  0.687700  0.332300  1.0
  N  N736  1  0.084300  0.812300  0.167700  1.0
  N  N737  1  0.260300  0.256900  0.612800  1.0
  N  N738  1  0.760300  0.243100  0.887200  1.0
  N  N739  1  0.739700  0.743100  0.387200  1.0
  N  N740  1  0.239700  0.756900  0.112800  1.0
  N  N741  1  0.230700  0.144400  0.607200  1.0
  N  N742  1  0.730700  0.355600  0.892800  1.0
  N  N743  1  0.769300  0.855600  0.392800  1.0
  N  N744  1  0.269300  0.644400  0.107200  1.0
  N  N745  1  0.591900  0.172900  0.592000  1.0
  N  N746  1  0.091900  0.327100  0.908000  1.0
  N  N747  1  0.408100  0.827100  0.408000  1.0
  N  N748  1  0.908100  0.672900  0.092000  1.0
  N  N749  1  0.612600  0.189900  0.506100  1.0
  N  N750  1  0.112600  0.310100  0.993900  1.0
  N  N751  1  0.387400  0.810100  0.493900  1.0
  N  N752  1  0.887400  0.689900  0.006100  1.0
  N  N753  1  0.709500  0.234000  0.449500  1.0
  N  N754  1  0.209500  0.266000  0.050500  1.0
  N  N755  1  0.290500  0.766000  0.550500  1.0
  N  N756  1  0.790500  0.734000  0.949500  1.0
  N  N757  1  0.802700  0.218800  0.512100  1.0
  N  N758  1  0.302700  0.281200  0.987900  1.0
  N  N759  1  0.197300  0.781200  0.487900  1.0
  N  N760  1  0.697300  0.718800  0.012100  1.0
  N  N761  1  0.769100  0.203800  0.644500  1.0
  N  N762  1  0.269100  0.296200  0.855500  1.0
  N  N763  1  0.230900  0.796200  0.355500  1.0
  N  N764  1  0.730900  0.703800  0.144500  1.0
  N  N765  1  0.655400  0.183500  0.679700  1.0
  N  N766  1  0.155400  0.316500  0.820300  1.0
  N  N767  1  0.344600  0.816500  0.320300  1.0
  N  N768  1  0.844600  0.683500  0.179700  1.0
  N  N769  1  0.407000  0.151700  0.405000  1.0
  N  N770  1  0.907000  0.348300  0.095000  1.0
  N  N771  1  0.593000  0.848300  0.595000  1.0
  N  N772  1  0.093000  0.651700  0.905000  1.0
  N  N773  1  0.514200  0.189800  0.425400  1.0
  N  N774  1  0.014200  0.310200  0.074600  1.0
  N  N775  1  0.485800  0.810200  0.574600  1.0
  N  N776  1  0.985800  0.689800  0.925400  1.0
  N  N777  1  0.573200  0.297000  0.453600  1.0
  N  N778  1  0.073200  0.203000  0.046400  1.0
  N  N779  1  0.426800  0.703000  0.546400  1.0
  N  N780  1  0.926800  0.797000  0.953600  1.0
  N  N781  1  0.466000  0.354700  0.472600  1.0
  N  N782  1  0.966000  0.145300  0.027400  1.0
  N  N783  1  0.534000  0.645300  0.527400  1.0
  N  N784  1  0.034000  0.854700  0.972600  1.0
  N  N785  1  0.303400  0.294700  0.447700  1.0
  N  N786  1  0.803400  0.205300  0.052300  1.0
  N  N787  1  0.696600  0.705300  0.552300  1.0
  N  N788  1  0.196600  0.794700  0.947700  1.0
  N  N789  1  0.282300  0.194800  0.397500  1.0
  N  N790  1  0.782300  0.305200  0.102500  1.0
  N  N791  1  0.717700  0.805200  0.602500  1.0
  N  N792  1  0.217700  0.694800  0.897500  1.0
  N  N793  1  0.296300  0.078400  0.443100  1.0
  N  N794  1  0.796300  0.421600  0.056900  1.0
  N  N795  1  0.703700  0.921600  0.556900  1.0
  N  N796  1  0.203700  0.578400  0.943100  1.0
  N  N797  1  0.275300  0.058100  0.528100  1.0
  N  N798  1  0.775300  0.441900  0.971900  1.0
  N  N799  1  0.724700  0.941900  0.471900  1.0
  N  N800  1  0.224700  0.558100  0.028100  1.0
  N  N801  1  0.235000  0.069300  0.354700  1.0
  N  N802  1  0.735000  0.430700  0.145300  1.0
  N  N803  1  0.765000  0.930700  0.645300  1.0
  N  N804  1  0.265000  0.569300  0.854700  1.0
  N  N805  1  0.145300  0.994100  0.380300  1.0
  N  N806  1  0.645300  0.505900  0.119700  1.0
  N  N807  1  0.854700  0.005900  0.619700  1.0
  N  N808  1  0.354700  0.494100  0.880300  1.0
  N  N809  1  0.179800  0.013000  0.583300  1.0
  N  N810  1  0.679800  0.487000  0.916700  1.0
  N  N811  1  0.820200  0.987000  0.416700  1.0
  N  N812  1  0.320200  0.513000  0.083300  1.0
  N  N813  1  0.626900  0.969700  0.644100  1.0
  N  N814  1  0.126900  0.530300  0.855900  1.0
  N  N815  1  0.373100  0.030300  0.355900  1.0
  N  N816  1  0.873100  0.469700  0.144100  1.0
  N  N817  1  0.649300  0.867700  0.694600  1.0
  N  N818  1  0.149300  0.632300  0.805400  1.0
  N  N819  1  0.350700  0.132300  0.305400  1.0
  N  N820  1  0.850700  0.367700  0.194600  1.0
  N  N821  1  0.580400  0.901200  0.770200  1.0
  N  N822  1  0.080400  0.598800  0.729800  1.0
  N  N823  1  0.419600  0.098800  0.229800  1.0
  N  N824  1  0.919600  0.401200  0.270200  1.0
  N  N825  1  0.382200  0.773400  0.642700  1.0
  N  N826  1  0.882200  0.726600  0.857300  1.0
  N  N827  1  0.617800  0.226600  0.357300  1.0
  N  N828  1  0.117800  0.273400  0.142700  1.0
  N  N829  1  0.359300  0.824400  0.728300  1.0
  N  N830  1  0.859300  0.675600  0.771700  1.0
  N  N831  1  0.640700  0.175600  0.271700  1.0
  N  N832  1  0.140700  0.324400  0.228300  1.0
  N  N833  1  0.358100  0.873900  0.591200  1.0
  N  N834  1  0.858100  0.626100  0.908800  1.0
  N  N835  1  0.641900  0.126100  0.408800  1.0
  N  N836  1  0.141900  0.373900  0.091200  1.0
  N  N837  1  0.110200  0.968100  0.512400  1.0
  N  N838  1  0.610200  0.531900  0.987600  1.0
  N  N839  1  0.889800  0.031900  0.487600  1.0
  N  N840  1  0.389800  0.468100  0.012400  1.0
  O  O841  1  0.433900  0.931000  0.793600  1
  O  O842  1  0.933900  0.569000  0.706400  1
  O  O843  1  0.566100  0.069000  0.206400  1
  O  O844  1  0.066100  0.431000  0.293600  1
  O  O845  1  0.449600  0.846000  0.860200  1
  O  O846  1  0.949600  0.654000  0.639800  1
  O  O847  1  0.550400  0.154000  0.139800  1
  O  O848  1  0.050400  0.346000  0.360200  1
  O  O849  1  0.476500  0.948700  0.875600  1
  O  O850  1  0.976500  0.551300  0.624400  1
  O  O851  1  0.523500  0.051300  0.124400  1
  O  O852  1  0.023500  0.448700  0.375600  1
  O  O853  1  0.379100  0.951500  0.885900  1
  O  O854  1  0.879100  0.548500  0.614100  1
  O  O855  1  0.620900  0.048500  0.114100  1
  O  O856  1  0.120900  0.451500  0.385900  1
  O  O857  1  0.778300  0.064600  0.959300  1
  O  O858  1  0.278300  0.435400  0.540700  1
  O  O859  1  0.221700  0.935400  0.040700  1
  O  O860  1  0.721700  0.564600  0.459300  1
  O  O861  1  0.894600  0.050100  0.921700  1
  O  O862  1  0.394600  0.449900  0.578300  1
  O  O863  1  0.105400  0.949900  0.078300  1
  O  O864  1  0.605400  0.550100  0.421700  1
  O  O865  1  0.854500  0.158900  0.952200  1
  O  O866  1  0.354500  0.341100  0.547800  1
  O  O867  1  0.145500  0.841100  0.047800  1
  O  O868  1  0.645500  0.658900  0.452200  1
  O  O869  1  0.806000  0.107300  0.873500  1
  O  O870  1  0.306000  0.392700  0.626500  1
  O  O871  1  0.194000  0.892700  0.126500  1
  O  O872  1  0.694000  0.607300  0.373500  1
  O  O873  1  0.004700  0.864700  0.441300  1
  O  O874  1  0.504700  0.635300  0.058700  1
  O  O875  1  0.995300  0.135300  0.558700  1
  O  O876  1  0.495300  0.364700  0.941300  1
  O  O877  1  0.071000  0.767200  0.413400  1
  O  O878  1  0.571000  0.732800  0.086600  1
  O  O879  1  0.929000  0.232800  0.586600  1
  O  O880  1  0.429000  0.267200  0.913400  1
  O  O881  1  0.045000  0.849100  0.350400  1
  O  O882  1  0.545000  0.650900  0.149600  1
  O  O883  1  0.955000  0.150900  0.649600  1
  O  O884  1  0.455000  0.349100  0.850400  1
  O  O885  1  0.128700  0.871800  0.422600  1
  O  O886  1  0.628700  0.628200  0.077400  1
  O  O887  1  0.871300  0.128200  0.577400  1
  O  O888  1  0.371300  0.371800  0.922600  1
  O  O889  1  0.709300  0.350100  0.606800  1
  O  O890  1  0.209300  0.149900  0.893200  1
  O  O891  1  0.290700  0.649900  0.393200  1
  O  O892  1  0.790700  0.850100  0.106800  1
  O  O893  1  0.373700  0.922700  0.061800  1
  O  O894  1  0.873700  0.577300  0.438200  1
  O  O895  1  0.626300  0.077300  0.938200  1
  O  O896  1  0.126300  0.422700  0.561800  1
  O  O897  1  0.935400  0.893900  0.295300  1
  O  O898  1  0.435400  0.606100  0.204700  1
  O  O899  1  0.064600  0.106100  0.704700  1
  O  O900  1  0.564600  0.393900  0.795300  1
  O  O901  1  0.981000  0.791500  0.631800  1
  O  O902  1  0.481000  0.708500  0.868200  1
  O  O903  1  0.019000  0.208500  0.368200  1
  O  O904  1  0.519000  0.291500  0.131800  1
  O  O905  1  0.789900  0.923400  0.829100  1
  O  O906  1  0.289900  0.576600  0.670900  1
  O  O907  1  0.210100  0.076600  0.170900  1
  O  O908  1  0.710100  0.423400  0.329100  1
  O  O909  1  0.733500  0.934500  0.926700  1
  O  O910  1  0.233500  0.565500  0.573300  1
  O  O911  1  0.266500  0.065500  0.073300  1
  O  O912  1  0.766500  0.434500  0.426700  1
  O  O913  1  0.966600  0.694500  0.471000  1
  O  O914  1  0.466600  0.805500  0.029000  1
  O  O915  1  0.033400  0.305500  0.529000  1
  O  O916  1  0.533400  0.194500  0.971000  1
  O  O917  1  0.448700  0.715500  0.980500  1
  O  O918  1  0.948700  0.784500  0.519500  1
  O  O919  1  0.551300  0.284500  0.019500  1
  O  O920  1  0.051300  0.215500  0.480500  1
  O  O921  1  0.067800  0.037800  0.158600  1
  O  O922  1  0.567800  0.462200  0.341400  1
  O  O923  1  0.932200  0.962200  0.841400  1
  O  O924  1  0.432200  0.537800  0.658600  1
  O  O925  1  0.395200  0.017000  0.109600  1
  O  O926  1  0.895200  0.483000  0.390400  1
  O  O927  1  0.604800  0.983000  0.890400  1
  O  O928  1  0.104800  0.517000  0.609600  1
  O  O929  1  0.705600  0.038900  0.812000  1
  O  O930  1  0.205600  0.461100  0.688000  1
  O  O931  1  0.294400  0.961100  0.188000  1
  O  O932  1  0.794400  0.538900  0.312000  1
  O  O933  1  0.063700  0.864300  0.698800  1
  O  O934  1  0.563700  0.635700  0.801200  1
  O  O935  1  0.936300  0.135700  0.301200  1
  O  O936  1  0.436300  0.364300  0.198800  1
  O  O937  1  0.142000  0.891700  0.838800  1
  O  O938  1  0.642000  0.608300  0.661200  1
  O  O939  1  0.858000  0.108300  0.161200  1
  O  O940  1  0.358000  0.391700  0.338800  1
  O  O941  1  0.068900  0.826600  0.809200  1
  O  O942  1  0.568900  0.673400  0.690800  1
  O  O943  1  0.931100  0.173400  0.190800  1
  O  O944  1  0.431100  0.326600  0.309200  1
  O  O945  1  0.183500  0.850700  0.748200  1
  O  O946  1  0.683500  0.649300  0.751800  1
  O  O947  1  0.816500  0.149300  0.251800  1
  O  O948  1  0.316500  0.350700  0.248200  1
  O  O949  1  0.042000  0.936000  0.786000  1
  O  O950  1  0.542000  0.564000  0.714000  1
  O  O951  1  0.958000  0.064000  0.214000  1
  O  O952  1  0.458000  0.436000  0.286000  1
  O  O953  1  0.371600  0.930300  0.013700  1
  O  O954  1  0.871600  0.569700  0.486300  1
  O  O955  1  0.628400  0.069700  0.986300  1
  O  O956  1  0.128400  0.430300  0.513700  1
  O  O957  1  0.998000  0.758000  0.616000  1
  O  O958  1  0.498000  0.742000  0.884000  1
  O  O959  1  0.002000  0.242000  0.384000  1
  O  O960  1  0.502000  0.258000  0.116000  1
  O  O961  1  0.031000  0.647000  0.559500  1
  O  O962  1  0.531000  0.853000  0.940500  1
  O  O963  1  0.969000  0.353000  0.440500  1
  O  O964  1  0.469000  0.147000  0.059500  1
  O  O965  1  0.966300  0.649300  0.517300  1
  O  O966  1  0.466300  0.850700  0.982700  1
  O  O967  1  0.033700  0.350700  0.482700  1
  O  O968  1  0.533700  0.149300  0.017300  1
  O  O969  1  0.115700  0.049200  0.156500  1
  O  O970  1  0.615700  0.450800  0.343500  1
  O  O971  1  0.884300  0.950800  0.843500  1
  O  O972  1  0.384300  0.549200  0.656500  1
  O  O973  1  0.183600  0.878300  0.790500  1
  O  O974  1  0.683600  0.621700  0.709500  1
  O  O975  1  0.816400  0.121700  0.209500  1
  O  O976  1  0.316400  0.378300  0.290500  1
  O  O977  1  0.032900  0.988300  0.755300  1
  O  O978  1  0.532900  0.511700  0.744700  1
  O  O979  1  0.967100  0.011700  0.244700  1
  O  O980  1  0.467100  0.488300  0.255300  1
  O  O981  1  0.103000  0.834000  0.674000  1
  O  O982  1  0.603000  0.666000  0.826000  1
  O  O983  1  0.897000  0.166000  0.326000  1
  O  O984  1  0.397000  0.334000  0.174000  1
  O  O985  1  0.156500  0.944600  0.882700  1
  O  O986  1  0.656500  0.555400  0.617300  1
  O  O987  1  0.843500  0.055400  0.117300  1
  O  O988  1  0.343500  0.444600  0.382700  1
  O  O989  1  0.055000  0.942000  0.739000  1
  O  O990  1  0.555000  0.558000  0.761000  1
  O  O991  1  0.945000  0.058000  0.261000  1
  O  O992  1  0.445000  0.442000  0.239000  1
  O  O993  1  0.214000  0.878000  0.815000  1
  O  O994  1  0.714000  0.622000  0.685000  1
  O  O995  1  0.786000  0.122000  0.185000  1
  O  O996  1  0.286000  0.378000  0.315000  1
  O  O997  1  0.068000  0.869000  0.730000  1
  O  O998  1  0.568000  0.631000  0.770000  1
  O  O999  1  0.932000  0.131000  0.270000  1
  O  O1000  1  0.432000  0.369000  0.230000  1
  O  O1001  1  0.078700  0.865200  0.840100  1
  O  O1002  1  0.578700  0.634800  0.659900  1
  O  O1003  1  0.921300  0.134800  0.159900  1
  O  O1004  1  0.421300  0.365200  0.340100  1
  O  O1005  1  0.061000  0.973000  0.732000  1
  O  O1006  1  0.561000  0.527000  0.768000  1
  O  O1007  1  0.939000  0.027000  0.268000  1
  O  O1008  1  0.439000  0.473000  0.232000  1
  O  O1009  1  0.437100  0.681300  0.972100  1
  O  O1010  1  0.937100  0.818700  0.527900  1
  O  O1011  1  0.562900  0.318700  0.027900  1
  O  O1012  1  0.062900  0.181300  0.472100  1
  O  O1013  1  0.343100  0.892200  0.834000  1
  O  O1014  1  0.843100  0.607800  0.666000  1
  O  O1015  1  0.656900  0.107800  0.166000  1
  O  O1016  1  0.156900  0.392200  0.334000  1
  O  O1017  1  0.081000  0.909000  0.850000  1
  O  O1018  1  0.581000  0.591000  0.650000  1
  O  O1019  1  0.919000  0.091000  0.150000  1
  O  O1020  1  0.419000  0.409000  0.350000  1
  O  O1021  1  0.107200  0.901200  0.796800  1
  O  O1022  1  0.607200  0.598800  0.703200  1
  O  O1023  1  0.892800  0.098800  0.203200  1
  O  O1024  1  0.392800  0.401200  0.296800  1
