
#######################################################################
#
#                 Cambridge Crystallographic Data Centre
#                                CCDC 
#
#######################################################################
#
# If this CIF has been generated from an entry in the Cambridge 
# Structural Database, then it will include bibliographic, chemical, 
# crystal, experimental, refinement or atomic coordinate data resulting 
# from the CCDC's data processing and validation procedures.
#
#######################################################################

data_EWIHOI
_chemical_formula_moiety         'C132 H180 In8 N72 12+,12(N1 O3 1-),4(H2 O1)'
_chemical_name_systematic        
"dodecakis(\m~2~-2,2'-(1H-Imidazole-4,5-diyl)bis(1,4,5,6-tetrahydropyrimidine))-octa-indium(iii) dodecanitrate tetrahydrate"
_symmetry_cell_setting           rhombohedral
_symmetry_space_group_name_H-M   'R -3'
_symmetry_Int_Tables_number      148
_space_group_name_Hall           '-R 3'
loop_
_symmetry_equiv_pos_site_id
_symmetry_equiv_pos_as_xyz
1 x,y,z
2 -y,x-y,z
3 -x+y,-x,z
4 2/3+x,1/3+y,1/3+z
5 2/3-y,1/3+x-y,1/3+z
6 2/3-x+y,1/3-x,1/3+z
7 1/3+x,2/3+y,2/3+z
8 1/3-y,2/3+x-y,2/3+z
9 1/3-x+y,2/3-x,2/3+z
10 -x,-y,-z
11 y,-x+y,-z
12 x-y,x,-z
13 1/3-x,2/3-y,2/3-z
14 1/3+y,2/3-x+y,2/3-z
15 1/3+x-y,2/3+x,2/3-z
16 2/3-x,1/3-y,1/3-z
17 2/3+y,1/3-x+y,1/3-z
18 2/3+x-y,1/3+x,1/3-z
_cell_length_a                   28.1055(4)
_cell_length_b                   28.1055(4)
_cell_length_c                   19.1669(6)
_cell_angle_alpha                90
_cell_angle_beta                 90
_cell_angle_gamma                120
_cell_volume                     13111.9
_exptl_crystal_colour            colorless
_cell_formula_units_Z            3
loop_
_atom_site_label
_atom_site_type_symbol
_atom_site_fract_x
_atom_site_fract_y
_atom_site_fract_z
In1 In 0.80310(4) -0.18890(3) 0.39955(3)
In2 In 1.0000 0.0000 0.20777(5)
C1 C 0.9151(6) -0.0897(4) 0.3245(4)
H1 H 0.9412 -0.0880 0.3572
C2 C 0.8792(6) -0.0700(5) 0.2385(5)
C3 C 0.8384(6) -0.1148(5) 0.2714(5)
C4 C 0.7791(6) -0.1524(4) 0.2603(5)
C5 C 0.9351(9) 0.0363(6) 0.0961(7)
C6 C 0.8818(7) -0.0327(5) 0.1806(5)
C7 C 0.8267(6) -0.0761(4) 0.4880(4)
H2 H 0.8567 -0.0493 0.4614
C8 C 0.7600(6) -0.1540(4) 0.5238(4)
C9 C 0.7209(6) -0.2140(4) 0.5146(5)
C10 C 0.6353(8) -0.2956(5) 0.5472(7)
H3 H 0.6018 -0.3004 0.5235
H4 H 0.6246 -0.3117 0.5945
C11 C 0.6568(11) -0.3235(6) 0.5096(8)
H5 H 0.6751 -0.3356 0.5437
H6 H 0.6252 -0.3572 0.4902
C12 C 0.7388(7) -0.1124(5) 0.6343(5)
C13 C 0.7651(6) -0.1140(4) 0.5682(4)
C14 C 0.7785(8) -0.2839(5) 0.2813(6)
C15 C 0.8497(9) -0.3107(6) 0.2582(6)
C16 C 0.7016(8) -0.1896(6) 0.1829(7)
H7 H 0.6884 -0.1722 0.1491
H8 H 0.6974 -0.2235 0.1614
C17 C 0.6686(8) -0.2036(6) 0.2464(7)
H9 H 0.6666 -0.1712 0.2625
H10 H 0.6307 -0.2335 0.2362
C18 C 0.6932(7) -0.2223(5) 0.3045(6)
H11 H 0.6872 -0.2593 0.2933
H12 H 0.6744 -0.2247 0.3491
C19 C 0.8399(11) 0.0145(8) 0.1197(11)
C20 C 0.6947(7) -0.2973(5) 0.4537(6)
H13 H 0.7161 -0.3162 0.4464
H14 H 0.6738 -0.3013 0.4103
C21 C 0.7901(11) -0.3297(7) 0.2607(9)
H15 H 0.7722 -0.3602 0.2948
H16 H 0.7738 -0.3442 0.2143
C22 C 0.8997(13) 0.0634(10) 0.1199(12)
H17 H 0.9040 0.0923 0.0868
H18 H 0.9106 0.0796 0.1672
H19 H 0.808(7) -0.048(5) 0.204(7)
H20 H 0.776(7) -0.145(5) 0.151(7)
H21 H 0.669(8) -0.222(6) 0.577(8)
N1 N 0.9295(6) -0.0047(4) 0.1500(4)
N2 N 0.9280(4) -0.0554(3) 0.2713(4)
N3 N 0.8626(4) -0.1263(3) 0.3276(3)
N4 N 0.7527(4) -0.1838(3) 0.3125(4)
N5 N 0.7586(6) -0.1527(4) 0.1976(5)
N6 N 0.7998(4) -0.1297(3) 0.4735(3)
N7 N 0.7329(4) -0.2386(3) 0.4665(4)
N8 N 0.6752(6) -0.2375(4) 0.5528(5)
N9 N 0.8709(4) -0.1937(3) 0.4556(3)
N10 N 0.8072(6) -0.2590(4) 0.3489(4)
N11 N 0.7154(6) -0.1594(4) 0.6723(4)
N12 N 0.8386(7) -0.0282(5) 0.1687(6)
In1J In 0.81110(3) 0.00800(5) 0.60045(3)
In1B In 1.00800(5) 0.19690(4) 0.39955(3)
In1A In 1.18890(3) -0.00800(5) 0.39955(3)
In1I In 1.19690(4) 0.18890(3) 0.60045(3)
In1K In 0.99200(5) -0.19690(4) 0.60045(3)
In2I In 1.0000 0.0000 0.79223(5)
C1J C 0.9103(4) -0.0048(7) 0.6755(4)
C1B C 0.9952(7) 0.0849(6) 0.3245(4)
C1A C 1.0897(4) 0.0048(7) 0.3245(4)
C1I C 1.0849(6) 0.0897(4) 0.6755(4)
C1K C 1.0048(7) -0.0849(6) 0.6755(4)
H1J H 0.9120 -0.0292 0.6428
H1B H 0.9708 0.0588 0.3572
H1A H 1.0880 0.0292 0.3572
H1I H 1.0588 0.0880 0.6428
H1K H 1.0292 -0.0588 0.6428
C2J C 0.9300(5) 0.0508(8) 0.7615(5)
C2A C 1.0700(5) -0.0508(8) 0.2385(5)
C2B C 1.0508(8) 0.1208(6) 0.2385(5)
C2K C 0.9492(8) -0.1208(6) 0.7615(5)
C2I C 1.1208(6) 0.0700(5) 0.7615(5)
C3J C 0.8852(5) 0.0468(8) 0.7286(5)
C3A C 1.1148(5) -0.0468(8) 0.2714(5)
C3B C 1.0468(8) 0.1616(6) 0.2714(5)
C3K C 0.9532(8) -0.1616(6) 0.7286(5)
C3I C 1.1616(6) 0.1148(5) 0.7286(5)
C4J C 0.8476(4) 0.0685(7) 0.7397(5)
C4A C 1.1524(4) -0.0685(7) 0.2603(5)
C4B C 1.0685(7) 0.2209(6) 0.2603(5)
C4K C 0.9315(7) -0.2209(6) 0.7397(5)
C4I C 1.2209(6) 0.1524(4) 0.7397(5)
C5J C 1.0363(6) 0.1012(11) 0.9039(7)
C5A C 0.9637(6) -0.1012(11) 0.0961(7)
C5B C 1.1012(11) 0.0649(9) 0.0961(7)
C5K C 0.8988(11) -0.0649(9) 0.9039(7)
C5I C 1.0649(9) -0.0363(6) 0.9039(7)
C6J C 0.9673(5) 0.0855(9) 0.8194(5)
C6A C 1.0327(5) -0.0855(9) 0.1806(5)
C6B C 1.0855(9) 0.1182(7) 0.1806(5)
C6K C 0.9145(9) -0.1182(7) 0.8194(5)
C6I C 1.1182(7) 0.0327(5) 0.8194(5)
C7J C 0.9239(4) 0.0972(7) 0.5120(4)
C7B C 1.0972(7) 0.1733(6) 0.4880(4)
C7I C 1.1733(6) 0.0761(4) 0.5120(4)
C7A C 1.0761(4) -0.0972(7) 0.4880(4)
C7K C 0.9028(7) -0.1733(6) 0.5120(4)
H2J H 0.9507 0.0940 0.5386
H2B H 1.0940 0.1433 0.4614
H2I H 1.1433 0.0493 0.5386
H2A H 1.0493 -0.0940 0.4614
H2K H 0.9060 -0.1433 0.5386
C8J C 0.8460(4) 0.0860(7) 0.4762(4)
C8B C 1.0860(7) 0.2400(6) 0.5238(4)
C8I C 1.2400(6) 0.1540(4) 0.4762(4)
C8A C 1.1540(4) -0.0860(7) 0.5238(4)
C8K C 0.9140(7) -0.2400(6) 0.4762(4)
C9J C 0.7860(4) 0.0651(7) 0.4854(5)
C9B C 1.0651(7) 0.2791(6) 0.5146(5)
C9I C 1.2791(6) 0.2140(4) 0.4854(5)
C9A C 1.2140(4) -0.0651(7) 0.5146(5)
C9K C 0.9349(7) -0.2791(6) 0.4854(5)
C10K C 0.9309(9) -0.3647(8) 0.4528(7)
C10A C 1.2956(5) -0.0691(9) 0.5472(7)
C10I C 1.3647(8) 0.2956(5) 0.4528(7)
C10B C 1.0691(9) 0.3647(8) 0.5472(7)
C10J C 0.7044(5) 0.0691(9) 0.4528(7)
H3K H 0.9022 -0.3982 0.4765
H3A H 1.3004 -0.0978 0.5235
H3I H 1.3982 0.3004 0.4765
H3B H 1.0978 0.3982 0.5235
H3J H 0.6996 0.0978 0.4765
H4K H 0.9363 -0.3754 0.4055
H4A H 1.3117 -0.0637 0.5945
H4I H 1.3754 0.3117 0.4055
H4B H 1.0637 0.3754 0.5945
H4J H 0.6883 0.0637 0.4055
C11K C 0.9803(13) -0.3432(11) 0.4904(8)
C11A C 1.3235(6) -0.0197(13) 0.5096(8)
C11I C 1.3432(11) 0.3235(6) 0.4904(8)
C11B C 1.0197(13) 0.3432(11) 0.5096(8)
C11J C 0.6765(6) 0.0197(13) 0.4904(8)
H5K H 1.0107 -0.3249 0.4563
H5A H 1.3356 0.0107 0.5437
H5I H 1.3249 0.3356 0.4563
H5B H 0.9893 0.3249 0.5437
H5J H 0.6644 -0.0107 0.4563
H6K H 0.9824 -0.3748 0.5098
H6A H 1.3572 -0.0176 0.4902
H6I H 1.3748 0.3572 0.5098
H6B H 1.0176 0.3748 0.4902
H6J H 0.6428 0.0176 0.5098
C12J C 0.8876(5) 0.1488(9) 0.3657(5)
C12B C 1.1488(9) 0.2612(7) 0.6343(5)
C12I C 1.2612(7) 0.1124(5) 0.3657(5)
C12A C 1.1124(5) -0.1488(9) 0.6343(5)
C12K C 0.8512(9) -0.2612(7) 0.3657(5)
C13J C 0.8860(4) 0.1209(7) 0.4318(4)
C13B C 1.1209(7) 0.2349(6) 0.5682(4)
C13I C 1.2349(6) 0.1140(4) 0.4318(4)
C13A C 1.1140(4) -0.1209(7) 0.5682(4)
C13K C 0.8791(7) -0.2349(6) 0.4318(4)
C14K C 1.0624(9) -0.2215(8) 0.7187(6)
C14A C 1.2839(5) 0.0624(9) 0.2813(6)
C14I C 1.2215(8) 0.2839(5) 0.7187(6)
C14B C 0.9376(9) 0.2215(8) 0.2813(6)
C14J C 0.7161(5) -0.0624(9) 0.7187(6)
C15K C 1.1604(11) -0.1503(9) 0.7418(6)
C15A C 1.3107(6) 0.1604(11) 0.2582(6)
C15I C 1.1503(9) 0.3107(6) 0.7418(6)
C15B C 0.8396(11) 0.1503(9) 0.2582(6)
C15J C 0.6893(6) -0.1604(11) 0.7418(6)
C16I C 1.2984(8) 0.1896(6) 0.8171(7)
C16K C 0.8912(10) -0.2984(8) 0.8171(7)
C16B C 1.1088(10) 0.2984(8) 0.1829(7)
C16A C 1.1896(6) -0.1088(10) 0.1829(7)
C16J C 0.8104(6) 0.1088(10) 0.8171(7)
H7I H 1.3116 0.1722 0.8509
H7K H 0.8606 -0.3116 0.8509
H7B H 1.1394 0.3116 0.1491
H7A H 1.1722 -0.1394 0.1491
H7J H 0.8278 0.1394 0.8509
H8I H 1.3026 0.2235 0.8386
H8K H 0.9209 -0.3026 0.8386
H8B H 1.0791 0.3026 0.1614
H8A H 1.2235 -0.0791 0.1614
H8J H 0.7765 0.0791 0.8386
C17I C 1.3314(8) 0.2036(6) 0.7536(7)
C17K C 0.8722(10) -0.3314(8) 0.7536(7)
C17B C 1.1278(10) 0.3314(8) 0.2464(7)
C17A C 1.2036(6) -0.1278(10) 0.2464(7)
C17J C 0.7964(6) 0.1278(10) 0.7536(7)
H9I H 1.3334 0.1712 0.7375
H9K H 0.8378 -0.3334 0.7375
H9B H 1.1622 0.3334 0.2625
H9A H 1.1712 -0.1622 0.2625
H9J H 0.8288 0.1622 0.7375
H10I H 1.3693 0.2335 0.7638
H10K H 0.8642 -0.3693 0.7638
H10B H 1.1358 0.3693 0.2362
H10A H 1.2335 -0.1358 0.2362
H10J H 0.7665 0.1358 0.7638
C18I C 1.3068(7) 0.2223(5) 0.6955(6)
C18K C 0.9155(9) -0.3068(7) 0.6955(6)
C18B C 1.0845(9) 0.3068(7) 0.3045(6)
C18A C 1.2223(5) -0.0845(9) 0.3045(6)
C18J C 0.7777(5) 0.0845(9) 0.6955(6)
H11I H 1.3128 0.2593 0.7067
H11K H 0.9465 -0.3128 0.7067
H11B H 1.0535 0.3128 0.2933
H11A H 1.2593 -0.0535 0.2933
H11J H 0.7407 0.0535 0.7067
H12I H 1.3256 0.2247 0.6509
H12K H 0.8991 -0.3256 0.6509
H12B H 1.1009 0.3256 0.3491
H12A H 1.2247 -0.1009 0.3491
H12J H 0.7753 0.1009 0.6509
C19J C 1.0145(8) 0.1746(14) 0.8803(11)
C19A C 0.9855(8) -0.1746(14) 0.1197(11)
C19B C 1.1746(14) 0.1601(11) 0.1197(11)
C19K C 0.8254(14) -0.1601(11) 0.8803(11)
C19I C 1.1601(11) -0.0145(8) 0.8803(11)
C20K C 0.9920(9) -0.3053(7) 0.5463(6)
C20A C 1.2973(5) -0.0080(9) 0.4537(6)
C20I C 1.3053(7) 0.2973(5) 0.5463(6)
C20B C 1.0080(9) 0.3053(7) 0.4537(6)
C20J C 0.7027(5) 0.0080(9) 0.5463(6)
H13K H 1.0323 -0.2839 0.5536
H13A H 1.3162 0.0323 0.4464
H13I H 1.2839 0.3162 0.5536
H13B H 0.9677 0.2839 0.4464
H13J H 0.6838 -0.0323 0.5536
H14K H 0.9751 -0.3262 0.5897
H14A H 1.3013 -0.0249 0.4103
H14I H 1.3262 0.3013 0.5897
H14B H 1.0249 0.3262 0.4103
H14J H 0.6987 0.0249 0.5897
C21K C 1.1198(13) -0.2099(11) 0.7393(9)
C21A C 1.3297(7) 0.1198(13) 0.2607(9)
C21I C 1.2099(11) 0.3297(7) 0.7393(9)
C21B C 0.8802(13) 0.2099(11) 0.2607(9)
C21J C 0.6703(7) -0.1198(13) 0.7393(9)
H15K H 1.1324 -0.2278 0.7052
H15A H 1.3602 0.1324 0.2948
H15I H 1.2278 0.3602 0.7052
H15B H 0.8676 0.2278 0.2948
H15J H 0.6398 -0.1324 0.7052
H16K H 1.1180 -0.2262 0.7857
H16A H 1.3442 0.1180 0.2143
H16I H 1.2262 0.3442 0.7857
H16B H 0.8820 0.2262 0.2143
H16J H 0.6558 -0.1180 0.7857
C22J C 1.0634(10) 0.1637(16) 0.8801(12)
C22A C 0.9366(10) -0.1637(16) 0.1199(12)
C22B C 1.1637(16) 0.1003(13) 0.1199(12)
C22K C 0.8363(16) -0.1003(13) 0.8801(12)
C22I C 1.1003(13) -0.0634(10) 0.8801(12)
H17I H 1.0960 -0.0923 0.9132
H17K H 0.8117 -0.0960 0.9132
H17B H 1.1883 0.0960 0.0868
H17A H 0.9077 -0.1883 0.0868
H17J H 1.0923 0.1883 0.9132
H18I H 1.0894 -0.0796 0.8328
H18K H 0.8310 -0.0894 0.8328
H18B H 1.1690 0.0894 0.1672
H18A H 0.9204 -0.1690 0.1672
H18J H 1.0796 0.1690 0.8328
H19I H 1.192(7) 0.048(5) 0.796(7)
H19K H 0.856(9) -0.192(7) 0.796(7)
H19B H 1.144(9) 0.192(7) 0.204(7)
H19A H 1.048(5) -0.144(9) 0.204(7)
H19J H 0.952(5) 0.144(9) 0.796(7)
H20I H 1.224(7) 0.145(5) 0.849(7)
H20K H 0.921(9) -0.224(7) 0.849(7)
H20B H 1.079(9) 0.224(7) 0.151(7)
H20A H 1.145(5) -0.079(9) 0.151(7)
H20J H 0.855(5) 0.079(9) 0.849(7)
H21K H 0.891(10) -0.331(8) 0.423(8)
H21A H 1.222(6) -0.109(10) 0.577(8)
H21I H 1.331(8) 0.222(6) 0.423(8)
H21B H 1.109(10) 0.331(8) 0.577(8)
H21J H 0.778(6) 0.109(10) 0.423(8)
N1J N 0.9953(4) 0.0658(7) 0.8500(4)
N1A N 1.0047(4) -0.0658(7) 0.1500(4)
N1B N 1.0658(7) 0.0705(6) 0.1500(4)
N1K N 0.9342(7) -0.0705(6) 0.8500(4)
N1I N 1.0705(6) 0.0047(4) 0.8500(4)
N2J N 0.9446(3) 0.0166(5) 0.7287(4)
N2B N 1.0166(5) 0.0720(4) 0.2713(4)
N2A N 1.0554(3) -0.0166(5) 0.2713(4)
N2I N 1.0720(4) 0.0554(3) 0.7287(4)
N2K N 0.9834(5) -0.0720(4) 0.7287(4)
N3J N 0.8737(3) 0.0111(5) 0.6724(3)
N3B N 1.0111(5) 0.1374(4) 0.3276(3)
N3A N 1.1263(3) -0.0111(5) 0.3276(3)
N3I N 1.1374(4) 0.1263(3) 0.6724(3)
N3K N 0.9889(5) -0.1374(4) 0.6724(3)
N4J N 0.8162(3) 0.0635(5) 0.6875(4)
N4A N 1.1838(3) -0.0635(5) 0.3125(4)
N4B N 1.0635(5) 0.2473(4) 0.3125(4)
N4K N 0.9365(5) -0.2473(4) 0.6875(4)
N4I N 1.2473(4) 0.1838(3) 0.6875(4)
N5I N 1.2414(6) 0.1527(4) 0.8024(5)
N5K N 0.9113(7) -0.2414(6) 0.8024(5)
N5B N 1.0887(7) 0.2414(6) 0.1976(5)
N5A N 1.1527(4) -0.0887(7) 0.1976(5)
N5J N 0.8473(4) 0.0887(7) 0.8024(5)
N6J N 0.8703(3) 0.0705(5) 0.5265(3)
N6B N 1.0705(5) 0.2002(4) 0.4735(3)
N6I N 1.2002(4) 0.1297(3) 0.5265(3)
N6A N 1.1297(3) -0.0705(5) 0.4735(3)
N6K N 0.9295(5) -0.2002(4) 0.5265(3)
N7J N 0.7614(3) 0.0285(5) 0.5335(4)
N7B N 1.0285(5) 0.2671(4) 0.4665(4)
N7I N 1.2671(4) 0.2386(3) 0.5335(4)
N7A N 1.2386(3) -0.0285(5) 0.4665(4)
N7K N 0.9715(5) -0.2671(4) 0.5335(4)
N8K N 0.9127(7) -0.3248(6) 0.4472(5)
N8A N 1.2375(4) -0.0873(7) 0.5528(5)
N8I N 1.3248(6) 0.2375(4) 0.4472(5)
N8B N 1.0873(7) 0.3248(6) 0.5528(5)
N8J N 0.7625(4) 0.0873(7) 0.4472(5)
N9J N 0.8063(3) -0.0646(5) 0.5444(3)
N9B N 0.9354(5) 0.1291(4) 0.4556(3)
N9I N 1.1291(4) 0.1937(3) 0.5444(3)
N9A N 1.1937(3) 0.0646(5) 0.4556(3)
N9K N 1.0646(5) -0.1291(4) 0.5444(3)
N10J N 0.7410(4) -0.0662(7) 0.6511(4)
N10B N 0.9338(7) 0.1928(6) 0.3489(4)
N10I N 1.1928(6) 0.2590(4) 0.6511(4)
N10A N 1.2590(4) 0.0662(7) 0.3489(4)
N10K N 1.0662(7) -0.1928(6) 0.6511(4)
N11K N 0.8748(7) -0.2846(6) 0.3277(4)
N11A N 1.1594(4) -0.1252(7) 0.6723(4)
N11I N 1.2846(6) 0.1594(4) 0.3277(4)
N11B N 1.1252(7) 0.2846(6) 0.6723(4)
N11J N 0.8406(4) 0.1252(7) 0.3277(4)
N12J N 0.9718(5) 0.1332(9) 0.8313(6)
N12A N 1.0282(5) -0.1332(9) 0.1687(6)
N12B N 1.1332(9) 0.1614(7) 0.1687(6)
N12K N 0.8668(9) -0.1614(7) 0.8313(6)
N12I N 1.1614(7) 0.0282(5) 0.8313(6)
N13 N 0.6815(7) 0.1271(8) 0.6457(9)
O1 O 0.7223(10) 0.1514(13) 0.6031(14)
O9 O 0.6451(14) 0.0870(14) 0.6142(19)
O10 O 0.6864(19) 0.1208(19) 0.712(2)
N14 N 0.701(2) 0.138(2) 0.282(2)
O4 O 0.644(2) 0.0894(18) 0.295(2)
O5 O 0.7375(17) 0.1591(16) 0.3274(19)
O6 O 0.7025(19) 0.1119(18) 0.227(2)
O16 O 0.638(4) 0.162(3) 0.268(4)
loop_
_geom_bond_atom_site_label_1
_geom_bond_atom_site_label_2
_geom_bond_site_symmetry_1
_geom_bond_site_symmetry_2
In1 N3 1_555 1_555
In2 N1 1_555 1_555
C1 H1 1_555 1_555
C2 C3 1_555 1_555
C3 C4 1_555 1_555
C4 N4 1_555 1_555
C5 C22 1_555 1_555
C6 C2 1_555 1_555
C7 H2 1_555 1_555
C8 C9 1_555 1_555
C9 N7 1_555 1_555
C10 H3 1_555 1_555
H4 C10 1_555 1_555
C11 C10 1_555 1_555
H5 C11 1_555 1_555
H6 C11 1_555 1_555
C12 C13 1_555 1_555
C13 C8 1_555 1_555
C14 C21 1_555 1_555
C15 C21 1_555 1_555
C16 H7 1_555 1_555
H8 C16 1_555 1_555
C17 C16 1_555 1_555
H9 C17 1_555 1_555
H10 C17 1_555 1_555
C18 C17 1_555 1_555
H11 C18 1_555 1_555
H12 C18 1_555 1_555
C19 C22 1_555 1_555
C20 C11 1_555 1_555
H13 C20 1_555 1_555
H14 C20 1_555 1_555
C21 H15 1_555 1_555
H16 C21 1_555 1_555
C22 H17 1_555 1_555
H18 C22 1_555 1_555
H19 N12 1_555 1_555
H20 N5 1_555 1_555
H21 N8 1_555 1_555
N1 C5 1_555 1_555
N2 In2 1_555 1_555
N3 C1 1_555 1_555
N4 In1 1_555 1_555
N5 C4 1_555 1_555
N6 In1 1_555 1_555
N7 In1 1_555 1_555
N8 C9 1_555 1_555
N9 In1 1_555 1_555
N10 In1 1_555 1_555
N11 C12 1_555 1_555
N12 C6 1_555 1_555
N13 O1 1_555 1_555
N14 O4 1_555 1_555
O5 N14 1_555 1_555
O6 N14 1_555 1_555
O9 N13 1_555 1_555
O10 N13 1_555 1_555
In1J N3J 1_555 1_555
In1B N3B 1_555 1_555
In1A N3A 1_555 1_555
In1I N3I 1_555 1_555
In1K N3K 1_555 1_555
In2I N1J 1_555 1_555
C1J H1J 1_555 1_555
C1B H1B 1_555 1_555
C1A H1A 1_555 1_555
C1I H1I 1_555 1_555
C1K H1K 1_555 1_555
C2J C3J 1_555 1_555
C2A C3A 1_555 1_555
C2B C3B 1_555 1_555
C2K C3K 1_555 1_555
C2I C3I 1_555 1_555
C3J C4J 1_555 1_555
C3A C4A 1_555 1_555
C3B C4B 1_555 1_555
C3K C4K 1_555 1_555
C3I C4I 1_555 1_555
C4J N4J 1_555 1_555
C4A N4A 1_555 1_555
C4B N4B 1_555 1_555
C4K N4K 1_555 1_555
C4I N4I 1_555 1_555
C5J C22J 1_555 1_555
C5A C22A 1_555 1_555
C5B C22B 1_555 1_555
C5K C22K 1_555 1_555
C5I C22I 1_555 1_555
C6J C2J 1_555 1_555
C6A C2A 1_555 1_555
C6B C2B 1_555 1_555
C6K C2K 1_555 1_555
C6I C2I 1_555 1_555
C7J H2J 1_555 1_555
C7B H2B 1_555 1_555
C7I H2I 1_555 1_555
C7A H2A 1_555 1_555
C7K N9 1_555 1_555
H2K C7K 1_555 1_555
C8J C9J 1_555 1_555
C8B C9B 1_555 1_555
C8I C9I 1_555 1_555
C8A C9A 1_555 1_555
C8K C9K 1_555 1_555
C9J N7J 1_555 1_555
C9B N7B 1_555 1_555
C9I N7I 1_555 1_555
C9A N7A 1_555 1_555
C9K N7K 1_555 1_555
C10K H3K 1_555 1_555
C10A H3A 1_555 1_555
C10I H3I 1_555 1_555
C10B H3B 1_555 1_555
C10J H3J 1_555 1_555
H4K C10K 1_555 1_555
H4A C10A 1_555 1_555
H4I C10I 1_555 1_555
H4B C10B 1_555 1_555
H4J C10J 1_555 1_555
C11K C10K 1_555 1_555
C11A C10A 1_555 1_555
C11I C10I 1_555 1_555
C11B C10B 1_555 1_555
C11J C10J 1_555 1_555
H5K C11K 1_555 1_555
H5A C11A 1_555 1_555
H5I C11I 1_555 1_555
H5B C11B 1_555 1_555
H5J C11J 1_555 1_555
H6K C11K 1_555 1_555
H6A C11A 1_555 1_555
H6I C11I 1_555 1_555
H6B C11B 1_555 1_555
H6J C11J 1_555 1_555
C12J C13J 1_555 1_555
C12B C13B 1_555 1_555
C12I C13I 1_555 1_555
C12A C13A 1_555 1_555
C12K N10 1_555 1_555
C13J C8J 1_555 1_555
C13B C8B 1_555 1_555
C13I C8I 1_555 1_555
C13A C8A 1_555 1_555
C13K N9 1_555 1_555
C14K C21K 1_555 1_555
C14A C21A 1_555 1_555
C14I C21I 1_555 1_555
C14B C21B 1_555 1_555
C14J C21J 1_555 1_555
C15K C21K 1_555 1_555
C15A C21A 1_555 1_555
C15I C21I 1_555 1_555
C15B C21B 1_555 1_555
C15J N11 1_555 1_555
C16I H7I 1_555 1_555
C16K H7K 1_555 1_555
C16B H7B 1_555 1_555
C16A H7A 1_555 1_555
C16J H7J 1_555 1_555
H8I C16I 1_555 1_555
H8K C16K 1_555 1_555
H8B C16B 1_555 1_555
H8A C16A 1_555 1_555
H8J C16J 1_555 1_555
C17I C16I 1_555 1_555
C17K C16K 1_555 1_555
C17B C16B 1_555 1_555
C17A C16A 1_555 1_555
C17J C16J 1_555 1_555
H9I C17I 1_555 1_555
H9K C17K 1_555 1_555
H9B C17B 1_555 1_555
H9A C17A 1_555 1_555
H9J C17J 1_555 1_555
H10I C17I 1_555 1_555
H10K C17K 1_555 1_555
H10B C17B 1_555 1_555
H10A C17A 1_555 1_555
H10J C17J 1_555 1_555
C18I C17I 1_555 1_555
C18K C17K 1_555 1_555
C18B C17B 1_555 1_555
C18A C17A 1_555 1_555
C18J C17J 1_555 1_555
H11I C18I 1_555 1_555
H11K C18K 1_555 1_555
H11B C18B 1_555 1_555
H11A C18A 1_555 1_555
H11J C18J 1_555 1_555
H12I C18I 1_555 1_555
H12K C18K 1_555 1_555
H12B C18B 1_555 1_555
H12A C18A 1_555 1_555
H12J C18J 1_555 1_555
C19J C22J 1_555 1_555
C19A C22A 1_555 1_555
C19B C22B 1_555 1_555
C19K C22K 1_555 1_555
C19I C22I 1_555 1_555
C20K C11K 1_555 1_555
C20A C11A 1_555 1_555
C20I C11I 1_555 1_555
C20B C11B 1_555 1_555
C20J C11J 1_555 1_555
H13K C20K 1_555 1_555
H13A C20A 1_555 1_555
H13I C20I 1_555 1_555
H13B C20B 1_555 1_555
H13J C20J 1_555 1_555
H14K C20K 1_555 1_555
H14A C20A 1_555 1_555
H14I C20I 1_555 1_555
H14B C20B 1_555 1_555
H14J C20J 1_555 1_555
C21K H15K 1_555 1_555
C21A H15A 1_555 1_555
C21I H15I 1_555 1_555
C21B H15B 1_555 1_555
C21J C15J 1_555 1_555
H15J C21J 1_555 1_555
H16K C21K 1_555 1_555
H16A C21A 1_555 1_555
H16I C21I 1_555 1_555
H16B C21B 1_555 1_555
H16J C21J 1_555 1_555
C22J H17J 1_555 1_555
C22A H17A 1_555 1_555
C22B H17B 1_555 1_555
C22K H17K 1_555 1_555
C22I H17I 1_555 1_555
H18I C22I 1_555 1_555
H18K C22K 1_555 1_555
H18B C22B 1_555 1_555
H18A C22A 1_555 1_555
H18J C22J 1_555 1_555
H19I N12I 1_555 1_555
H19K N12K 1_555 1_555
H19B N12B 1_555 1_555
H19A N12A 1_555 1_555
H19J N12J 1_555 1_555
H20I N5I 1_555 1_555
H20K N5K 1_555 1_555
H20B N5B 1_555 1_555
H20A N5A 1_555 1_555
H20J N5J 1_555 1_555
H21K N8K 1_555 1_555
H21A N8A 1_555 1_555
H21I N8I 1_555 1_555
H21B N8B 1_555 1_555
H21J N8J 1_555 1_555
N1J C5J 1_555 1_555
N1A In2 1_555 1_555
N1B In2 1_555 1_555
N1K In2I 1_555 1_555
N1I In2I 1_555 1_555
N2J In2I 1_555 1_555
N2B In2 1_555 1_555
N2A In2 1_555 1_555
N2I In2I 1_555 1_555
N2K In2I 1_555 1_555
N3J C1J 1_555 1_555
N3B C1B 1_555 1_555
N3A C1A 1_555 1_555
N3I C1I 1_555 1_555
N3K C1K 1_555 1_555
N4J In1J 1_555 1_555
N4A In1A 1_555 1_555
N4B In1B 1_555 1_555
N4K In1K 1_555 1_555
N4I In1I 1_555 1_555
N5I C4I 1_555 1_555
N5K C4K 1_555 1_555
N5B C4B 1_555 1_555
N5A C4A 1_555 1_555
N5J C4J 1_555 1_555
N6J In1J 1_555 1_555
N6B In1B 1_555 1_555
N6I In1I 1_555 1_555
N6A In1A 1_555 1_555
N6K In1K 1_555 1_555
N7J In1J 1_555 1_555
N7B In1B 1_555 1_555
N7I In1I 1_555 1_555
N7A In1A 1_555 1_555
N7K In1K 1_555 1_555
N8K C9K 1_555 1_555
N8A C9A 1_555 1_555
N8I C9I 1_555 1_555
N8B C9B 1_555 1_555
N8J C9J 1_555 1_555
N9J C7 1_555 1_555
N9B In1B 1_555 1_555
N9I In1I 1_555 1_555
N9A In1A 1_555 1_555
N9K In1K 1_555 1_555
N10J C12 1_555 1_555
N10B In1B 1_555 1_555
N10I In1I 1_555 1_555
N10A In1A 1_555 1_555
N10K In1K 1_555 1_555
N11K C15 1_555 1_555
N11A C12A 1_555 1_555
N11I C12I 1_555 1_555
N11B C12B 1_555 1_555
N11J C12J 1_555 1_555
N12J C6J 1_555 1_555
N12A C6A 1_555 1_555
N12B C6B 1_555 1_555
N12K C6K 1_555 1_555
N12I C6I 1_555 1_555
C1 N2 1_555 1_555
C2 N2 1_555 1_555
C3 N3 1_555 1_555
C6 N1 1_555 1_555
C7 N6 1_555 1_555
C8 N6 1_555 1_555
C10 N8 1_555 1_555
C13 N9J 1_555 1_555
C14 N10 1_555 1_555
C16 N5 1_555 1_555
C18 N4 1_555 1_555
C19 N12 1_555 1_555
C20 N7 1_555 1_555
In1J N9J 1_555 1_555
In1J N10J 1_555 1_555
C1J N2J 1_555 1_555
C1B N2B 1_555 1_555
C1A N2A 1_555 1_555
C1I N2I 1_555 1_555
C1K N2K 1_555 1_555
C2J N2J 1_555 1_555
C2A N2A 1_555 1_555
C2B N2B 1_555 1_555
C2K N2K 1_555 1_555
C2I N2I 1_555 1_555
C3J N3J 1_555 1_555
C3A N3A 1_555 1_555
C3B N3B 1_555 1_555
C3K N3K 1_555 1_555
C3I N3I 1_555 1_555
C5A N1A 1_555 1_555
C5B N1B 1_555 1_555
C5K N1K 1_555 1_555
C5I N1I 1_555 1_555
C6J N1J 1_555 1_555
C6A N1A 1_555 1_555
C6B N1B 1_555 1_555
C6K N1K 1_555 1_555
C6I N1I 1_555 1_555
C7J N6J 1_555 1_555
C7J N9B 1_555 1_555
C7B N6B 1_555 1_555
C7B N9I 1_555 1_555
C7I N6I 1_555 1_555
C7I N9A 1_555 1_555
C7A N6A 1_555 1_555
C7A N9K 1_555 1_555
C7K N6K 1_555 1_555
C8J N6J 1_555 1_555
C8B N6B 1_555 1_555
C8I N6I 1_555 1_555
C8A N6A 1_555 1_555
C8K C13K 1_555 1_555
C8K N6K 1_555 1_555
C10K N8K 1_555 1_555
C10A N8A 1_555 1_555
C10I N8I 1_555 1_555
C10B N8B 1_555 1_555
C10J N8J 1_555 1_555
C12J N10B 1_555 1_555
C12B N10I 1_555 1_555
C12I N10A 1_555 1_555
C12A N10K 1_555 1_555
C12K C13K 1_555 1_555
C12K N11K 1_555 1_555
C13J N9B 1_555 1_555
C13B N9I 1_555 1_555
C13I N9A 1_555 1_555
C13A N9K 1_555 1_555
C14K N10K 1_555 1_555
C14A N10A 1_555 1_555
C14I N10I 1_555 1_555
C14B N10B 1_555 1_555
C14J N10J 1_555 1_555
C15K N11A 1_555 1_555
C15A N11I 1_555 1_555
C15I N11B 1_555 1_555
C15B N11J 1_555 1_555
C16I N5I 1_555 1_555
C16K N5K 1_555 1_555
C16B N5B 1_555 1_555
C16A N5A 1_555 1_555
C16J N5J 1_555 1_555
C18I N4I 1_555 1_555
C18K N4K 1_555 1_555
C18B N4B 1_555 1_555
C18A N4A 1_555 1_555
C18J N4J 1_555 1_555
C19J N12J 1_555 1_555
C19A N12A 1_555 1_555
C19B N12B 1_555 1_555
C19K N12K 1_555 1_555
C19I N12I 1_555 1_555
C20K N7K 1_555 1_555
C20A N7A 1_555 1_555
C20I N7I 1_555 1_555
C20B N7B 1_555 1_555
C20J N7J 1_555 1_555

#END
