
#######################################################################
#
#                 Cambridge Crystallographic Data Centre
#                                CCDC 
#
#######################################################################
#
# If this CIF has been generated from an entry in the Cambridge 
# Structural Database, then it will include bibliographic, chemical, 
# crystal, experimental, refinement or atomic coordinate data resulting 
# from the CCDC's data processing and validation procedures.
#
#######################################################################

data_EWIHAU
_chemical_formula_moiety         'C132 H180 Co8 N72 12+,12(Cl1 1-),40(H2 O1)'
_chemical_name_systematic        
"dodecakis(\m~2~-2,2'-(1H-Imidazole-4,5-diyl)bis(1,4,5,6-tetrahydropyrimidine))-octa-cobalt(iii) dodecachloride tetracontahydrate"
_symmetry_cell_setting           monoclinic
_symmetry_space_group_name_H-M   'C 2/c'
_symmetry_Int_Tables_number      15
_space_group_name_Hall           '-C 2yn'
loop_
_symmetry_equiv_pos_site_id
_symmetry_equiv_pos_as_xyz
1 x,y,z
2 -x,y,1/2-z
3 1/2+x,1/2+y,z
4 1/2-x,1/2+y,1/2-z
5 -x,-y,-z
6 x,-y,1/2+z
7 1/2-x,1/2-y,-z
8 1/2+x,1/2-y,1/2+z
_cell_length_a                   33.008(8)
_cell_length_b                   19.253(5)
_cell_length_c                   32.654(7)
_cell_angle_alpha                90
_cell_angle_beta                 116.116(5)
_cell_angle_gamma                90
_cell_volume                     18633.1
_exptl_crystal_colour            red
_exptl_crystal_description       polyhedra
_cell_formula_units_Z            4
loop_
_atom_site_label
_atom_site_type_symbol
_atom_site_fract_x
_atom_site_fract_y
_atom_site_fract_z
Co1 Co 0.36601(4) 0.14912(6) 0.15675(4)
Co2 Co 0.27161(4) -0.01481(6) -0.01444(4)
Co3 Co 0.09836(4) 0.12531(6) -0.05090(4)
Co4 Co 0.19189(4) 0.29134(7) 0.11887(4)
C1 C 0.3186(2) 0.0904(4) 0.0612(3)
H1 H 0.3249 0.1258 0.0445
C2 C 0.3164(3) 0.0309(4) 0.1169(3)
C3 C 0.2921(2) -0.0039(4) 0.0770(3)
C4 C 0.2640(2) -0.0663(4) 0.0614(3)
C5 C 0.2216(3) -0.1614(5) 0.0727(3)
H2 H 0.1894 -0.1481 0.0610
H3 H 0.2288 -0.1945 0.0982
C6 C 0.2296(3) -0.1955(4) 0.0352(3)
H4 H 0.2072 -0.2331 0.0211
H5 H 0.2601 -0.2164 0.0483
C7 C 0.2254(3) -0.1429(4) -0.0010(3)
H6 H 0.2340 -0.1650 -0.0234
H7 H 0.1936 -0.1276 -0.0174
C8 C 0.3316(3) 0.0223(5) 0.1664(3)
C9 C 0.3648(3) 0.0768(4) 0.2392(3)
H8 H 0.3589 0.1231 0.2486
H9 H 0.3976 0.0675 0.2559
C10 C 0.3392(4) 0.0225(5) 0.2515(3)
H10 H 0.3072 0.0365 0.2396
H11 H 0.3518 0.0189 0.2851
C11 C 0.3423(4) -0.0478(5) 0.2318(3)
H12 H 0.3739 -0.0644 0.2458
H13 H 0.3235 -0.0824 0.2380
C12 C 0.2707(3) 0.2076(4) 0.1204(2)
H14 H 0.2556 0.1787 0.0945
C13 C 0.2837(3) 0.2884(4) 0.1714(2)
C14 C 0.3229(3) 0.2523(4) 0.1825(2)
C15 C 0.2685(3) 0.3471(4) 0.1881(3)
C16 C 0.2058(3) 0.4112(5) 0.1856(3)
H15 H 0.2035 0.3993 0.2140
H16 H 0.1752 0.4220 0.1617
C17 C 0.2361(3) 0.4748(5) 0.1939(3)
H17 H 0.2378 0.4881 0.1654
H18 H 0.2238 0.5145 0.2040
C18 C 0.2825(3) 0.4562(5) 0.2302(3)
H19 H 0.3039 0.4942 0.2333
H20 H 0.2815 0.4507 0.2599
C19 C 0.3693(3) 0.2502(4) 0.2188(3)
C20 C 0.4432(3) 0.2035(4) 0.2443(3)
H21 H 0.4623 0.1942 0.2286
H22 H 0.4469 0.1643 0.2653
C21 C 0.4582(3) 0.2702(5) 0.2713(3)
H23 H 0.4894 0.2648 0.2956
H24 H 0.4582 0.3084 0.2509
C22 C 0.4271(3) 0.2877(6) 0.2920(3)
H25 H 0.4298 0.2524 0.3151
H26 H 0.4351 0.3335 0.3072
C23 C 0.1938(3) 0.0738(4) -0.0204(3)
H27 H 0.2087 0.0995 0.0070
C24 C 0.1828(2) 0.0024(4) -0.0760(2)
C25 C 0.1416(3) 0.0328(4) -0.0836(2)
C26 C 0.2004(3) -0.0454(4) -0.0980(3)
C27 C 0.2644(3) -0.1115(4) -0.0907(3)
H28 H 0.2824 -0.0846 -0.1028
H29 H 0.2855 -0.1416 -0.0658
C28 C 0.2308(3) -0.1569(5) -0.1285(3)
H30 H 0.2173 -0.1909 -0.1153
H31 H 0.2465 -0.1830 -0.1433
C29 C 0.1940(3) -0.1129(5) -0.1634(3)
H32 H 0.1699 -0.1432 -0.1852
H33 H 0.2065 -0.0853 -0.1808
C30 C 0.0937(3) 0.0292(5) -0.1164(3)
C31 C 0.0305(3) -0.0185(5) -0.1822(3)
H34 H 0.0126 -0.0495 -0.1723
H35 H 0.0276 -0.0353 -0.2121
C32 C 0.0132(3) 0.0530(5) -0.1870(3)
H36 H 0.0287 0.0828 -0.2004
H37 H -0.0195 0.0536 -0.2077
C33 C 0.0211(2) 0.0809(5) -0.1414(3)
H38 H 0.0023 0.0548 -0.1299
H39 H 0.0118 0.1302 -0.1445
C34 C 0.1138(3) 0.0575(4) 0.0300(3)
C35 C 0.0701(3) -0.0170(4) -0.0326(3)
H40 H 0.0428 -0.0102 -0.0617
H41 H 0.0914 -0.0465 -0.0388
C36 C 0.0575(3) -0.0530(5) 0.0015(3)
H42 H 0.0446 -0.0993 -0.0103
H43 H 0.0345 -0.0253 0.0059
C37 C 0.0987(3) -0.0609(5) 0.0462(3)
H44 H 0.1199 -0.0941 0.0430
H45 H 0.0900 -0.0790 0.0696
C38 C 0.1325(2) 0.1266(4) 0.0430(3)
C39 C 0.1517(2) 0.1668(4) 0.0819(2)
C40 C 0.1513(2) 0.2266(4) 0.0249(2)
H46 H 0.1557 0.2631 0.0078
C41 C 0.1609(3) 0.1633(5) 0.1302(3)
C42 C 0.1555(4) 0.1083(5) 0.1939(3)
H47 H 0.1318 0.1330 0.1989
H48 H 0.1567 0.0597 0.2043
C43 C 0.1999(4) 0.1426(5) 0.2204(3)
H49 H 0.2066 0.1439 0.2531
H50 H 0.2239 0.1153 0.2174
C44 C 0.1996(3) 0.2157(5) 0.2034(3)
H51 H 0.2304 0.2356 0.2189
H52 H 0.1791 0.2449 0.2108
C45 C 0.2768(2) 0.1120(4) -0.0663(2)
H53 H 0.2485 0.1326 -0.0727
C46 C 0.3428(2) 0.0925(4) -0.0640(3)
C47 C 0.3348(3) 0.0421(4) -0.0399(3)
C48 C 0.3564(3) -0.0187(5) -0.0124(3)
C49 C 0.3505(3) -0.1159(4) 0.0312(3)
H54 H 0.3360 -0.1215 0.0518
H55 H 0.3443 -0.1582 0.0121
C50 C 0.4006(4) -0.1073(7) 0.0589(5)
H56 H 0.4136 -0.1507 0.0759
H57 H 0.4066 -0.0695 0.0814
C51 C 0.4224(4) -0.0909(7) 0.0292(6)
H58 H 0.4217 -0.1324 0.0111
H59 H 0.4543 -0.0782 0.0483
C52 C 0.0544(6) 0.4085(12) 0.0860(8)
H60 H 0.0560 0.4398 0.1107
H61 H 0.0243 0.4147 0.0599
C53 C 0.0577(5) 0.3462(8) 0.0999(7)
H62 H 0.0373 0.3181 0.0735
H63 H 0.0447 0.3452 0.1221
C54 C 0.1013(3) 0.3077(6) 0.1215(3)
H64 H 0.1146 0.3138 0.1550
H65 H 0.0956 0.2575 0.1148
C55 C 0.1327(2) 0.2281(4) -0.0988(2)
H66 H 0.1594 0.2047 -0.0955
C56 C 0.0706(3) 0.2521(4) -0.0945(3)
C57 C 0.0796(3) 0.3052(4) -0.1174(2)
C58 C 0.0607(3) 0.3713(4) -0.1385(3)
C59 C 0.0089(4) 0.4687(6) -0.1506(4)
H67 H -0.0235 0.4709 -0.1579
H68 H 0.0247 0.5062 -0.1285
C60 C 0.0632(3) 0.4656(4) -0.1838(3)
H69 H 0.0828 0.5022 -0.1633
H70 H 0.0653 0.4683 -0.2130
C61 C 0.0148(3) 0.4784(6) -0.1923(3)
H71 H -0.0053 0.4460 -0.2161
H72 H 0.0060 0.5264 -0.2037
C62 C 0.0353(3) 0.2309(5) -0.0810(3)
C63 C 0.0128(3) 0.1510(5) -0.0396(3)
H73 H -0.0077 0.1153 -0.0602
H74 H 0.0298 0.1297 -0.0092
C64 C -0.0145(3) 0.2108(5) -0.0359(4)
H75 H 0.0056 0.2432 -0.0121
H76 H -0.0372 0.1932 -0.0263
C65 C -0.0375(3) 0.2485(6) -0.0792(4)
H77 H -0.0612 0.2190 -0.1021
H78 H -0.0519 0.2911 -0.0747
C66 C 0.3761(3) 0.1115(6) -0.0799(3)
N1 N 0.33229(19) 0.0912(3) 0.10617(19)
N2 N 0.2948(2) 0.0327(3) 0.0427(2)
N3 N 0.31467(19) 0.2021(3) 0.1498(2)
N4 N 0.2509(2) 0.2597(3) 0.13270(19)
N5 N 0.2543(2) -0.0826(3) 0.0193(2)
N6 N 0.2501(2) -0.0993(3) 0.0892(2)
N7 N 0.3262(2) -0.0388(4) 0.1829(2)
N8 N 0.3515(2) 0.0771(3) 0.1901(2)
N9 N 0.3959(2) 0.2083(3) 0.2106(2)
N10 N 0.3812(2) 0.2892(4) 0.2561(2)
N11 N 0.2982(3) 0.3918(4) 0.2184(2)
N12 N 0.2242(2) 0.3519(3) 0.1711(2)
N13 N 0.1499(2) 0.0790(3) -0.04866(19)
N14 N 0.21392(19) 0.0280(3) -0.03577(19)
N15 N 0.2422(2) -0.0637(3) -0.0724(2)
N16 N 0.1755(2) -0.0667(4) -0.1409(2)
N17 N 0.0788(2) -0.0200(4) -0.1480(2)
N18 N 0.0691(2) 0.0751(3) -0.1081(2)
N19 N 0.04429(19) 0.1740(3) -0.0575(2)
N20 N -0.0030(3) 0.2667(4) -0.0949(3)
N21 N 0.0275(2) 0.4009(4) -0.1304(3)
N22 N 0.4212(2) 0.1024(3) 0.16306(19)
N23 N 0.1047(2) 0.2044(3) -0.08261(19)
N24 N 0.3812(2) 0.2120(3) 0.12012(19)
N25 N 0.13171(19) 0.1661(3) 0.00783(19)
N26 N 0.1639(2) 0.2283(3) 0.0698(2)
N27 N 0.1848(2) 0.2157(3) 0.1541(2)
N28 N 0.1450(2) 0.1096(4) 0.1455(2)
N29 N 0.1201(2) 0.0071(4) 0.0601(2)
N30 N 0.0908(2) 0.0497(3) -0.0149(2)
N31 N 0.2929(2) 0.0544(3) -0.0418(2)
N32 N 0.1939(2) 0.3638(3) 0.0805(2)
N33 N 0.1336(2) 0.3320(4) 0.1048(2)
N34 N 0.4106(4) 0.0697(7) -0.0714(5)
N35 N 0.3996(3) -0.0339(5) -0.0012(4)
N36 N 0.3312(2) -0.0544(3) 0.0015(2)
H79 H 0.327(3) 0.392(4) 0.221(2)
H80 H 0.3589(17) 0.292(4) 0.263(2)
H81 H -0.008(2) 0.302(2) -0.113(2)
H82 H 0.415(2) 0.004(2) 0.002(2)
H83 H 0.1515(15) -0.043(3) -0.158(2)
H84 H 0.1436(15) 0.007(4) 0.0863(12)
Co1F Co 0.13399(4) 0.35088(6) -0.15675(4)
Co2F Co 0.22839(4) 0.51481(6) 0.01444(4)
Co3F Co 0.40164(4) 0.37469(6) 0.05090(4)
Co4F Co 0.30811(4) 0.20866(7) -0.11887(4)
C1F C 0.1814(2) 0.4096(4) -0.0612(3)
H1F H 0.1751 0.3742 -0.0445
C2F C 0.1836(3) 0.4691(4) -0.1169(3)
C3F C 0.2079(2) 0.5039(4) -0.0770(3)
C4F C 0.2360(2) 0.5663(4) -0.0614(3)
C5F C 0.2784(3) 0.6614(5) -0.0727(3)
H2F H 0.3106 0.6481 -0.0610
H3F H 0.2712 0.6945 -0.0982
C6F C 0.2704(3) 0.6955(4) -0.0352(3)
H4F H 0.2928 0.7331 -0.0211
H5F H 0.2399 0.7164 -0.0483
C7F C 0.2746(3) 0.6429(4) 0.0010(3)
H6F H 0.2660 0.6650 0.0234
H7F H 0.3064 0.6276 0.0174
C8F C 0.1684(3) 0.4777(5) -0.1664(3)
C9F C 0.1352(3) 0.4232(4) -0.2392(3)
H8F H 0.1411 0.3769 -0.2486
H9F H 0.1024 0.4325 -0.2559
C10F C 0.1608(4) 0.4775(5) -0.2515(3)
H10F H 0.1928 0.4635 -0.2396
H11F H 0.1482 0.4811 -0.2851
C11F C 0.1577(4) 0.5478(5) -0.2318(3)
H12F H 0.1261 0.5644 -0.2458
H13F H 0.1765 0.5824 -0.2380
C12F C 0.2293(3) 0.2924(4) -0.1204(2)
H14F H 0.2444 0.3213 -0.0945
C13F C 0.2163(3) 0.2116(4) -0.1714(2)
C14F C 0.1771(3) 0.2477(4) -0.1825(2)
C15F C 0.2315(3) 0.1529(4) -0.1881(3)
C16F C 0.2942(3) 0.0888(5) -0.1856(3)
H15F H 0.2965 0.1007 -0.2140
H16F H 0.3248 0.0780 -0.1617
C17F C 0.2639(3) 0.0252(5) -0.1939(3)
H17F H 0.2622 0.0119 -0.1654
H18F H 0.2762 -0.0145 -0.2040
C18F C 0.2175(3) 0.0438(5) -0.2302(3)
H19F H 0.1961 0.0058 -0.2333
H20F H 0.2185 0.0493 -0.2599
C19F C 0.1307(3) 0.2498(4) -0.2188(3)
C20F C 0.0568(3) 0.2965(4) -0.2443(3)
H21F H 0.0377 0.3058 -0.2286
H22F H 0.0531 0.3357 -0.2653
C21F C 0.0418(3) 0.2298(5) -0.2713(3)
H23F H 0.0106 0.2352 -0.2956
H24F H 0.0418 0.1916 -0.2509
C22F C 0.0729(3) 0.2123(6) -0.2920(3)
H25F H 0.0702 0.2476 -0.3151
H26F H 0.0649 0.1665 -0.3072
C23F C 0.3062(3) 0.4262(4) 0.0204(3)
H27F H 0.2913 0.4005 -0.0070
C24F C 0.3172(2) 0.4976(4) 0.0760(2)
C25F C 0.3584(3) 0.4672(4) 0.0836(2)
C26F C 0.2996(3) 0.5454(4) 0.0980(3)
C27F C 0.2356(3) 0.6115(4) 0.0907(3)
H28F H 0.2176 0.5846 0.1028
H29F H 0.2145 0.6416 0.0658
C28F C 0.2692(3) 0.6569(5) 0.1285(3)
H30F H 0.2827 0.6909 0.1153
H31F H 0.2535 0.6830 0.1433
C29F C 0.3060(3) 0.6129(5) 0.1634(3)
H32F H 0.3301 0.6432 0.1852
H33F H 0.2935 0.5853 0.1808
C30F C 0.4063(3) 0.4708(5) 0.1164(3)
C31F C 0.4695(3) 0.5185(5) 0.1822(3)
H34F H 0.4874 0.5495 0.1723
H35F H 0.4724 0.5353 0.2121
C32F C 0.4868(3) 0.4470(5) 0.1870(3)
H36F H 0.4713 0.4172 0.2004
H37F H 0.5195 0.4464 0.2077
C33F C 0.4789(2) 0.4191(5) 0.1414(3)
H38F H 0.4977 0.4452 0.1299
H39F H 0.4882 0.3698 0.1445
C34F C 0.3862(3) 0.4425(4) -0.0300(3)
C35F C 0.4299(3) 0.5170(4) 0.0326(3)
H40F H 0.4572 0.5102 0.0617
H41F H 0.4086 0.5465 0.0388
C36F C 0.4425(3) 0.5530(5) -0.0015(3)
H42F H 0.4554 0.5993 0.0103
H43F H 0.4655 0.5253 -0.0059
C37F C 0.4013(3) 0.5609(5) -0.0462(3)
H44F H 0.3801 0.5941 -0.0430
H45F H 0.4100 0.5790 -0.0696
C38F C 0.3675(2) 0.3734(4) -0.0430(3)
C39F C 0.3483(2) 0.3332(4) -0.0819(2)
C40F C 0.3487(2) 0.2734(4) -0.0249(2)
H46F H 0.3443 0.2369 -0.0078
C41F C 0.3391(3) 0.3367(5) -0.1302(3)
C42F C 0.3445(4) 0.3917(5) -0.1939(3)
H47F H 0.3682 0.3670 -0.1989
H48F H 0.3433 0.4403 -0.2043
C43F C 0.3001(4) 0.3574(5) -0.2204(3)
H49F H 0.2934 0.3561 -0.2531
H50F H 0.2761 0.3847 -0.2174
C44F C 0.3004(3) 0.2843(5) -0.2034(3)
H51F H 0.2696 0.2644 -0.2189
H52F H 0.3209 0.2551 -0.2108
C45F C 0.2232(2) 0.3880(4) 0.0663(2)
H53F H 0.2515 0.3674 0.0727
C46F C 0.1572(2) 0.4075(4) 0.0640(3)
C47F C 0.1652(3) 0.4579(4) 0.0399(3)
C48F C 0.1436(3) 0.5187(5) 0.0124(3)
C49F C 0.1495(3) 0.6159(4) -0.0312(3)
H54F H 0.1640 0.6215 -0.0518
H55F H 0.1557 0.6582 -0.0121
C50F C 0.0994(4) 0.6073(7) -0.0589(5)
H56F H 0.0864 0.6507 -0.0759
H57F H 0.0934 0.5695 -0.0814
C51F C 0.0776(4) 0.5909(7) -0.0292(6)
H58F H 0.0783 0.6324 -0.0111
H59F H 0.0457 0.5782 -0.0483
C52F C 0.4456(6) 0.0915(12) -0.0860(8)
H60F H 0.4440 0.0602 -0.1107
H61F H 0.4757 0.0853 -0.0599
C53F C 0.4423(5) 0.1538(8) -0.0999(7)
H62F H 0.4627 0.1819 -0.0735
H63F H 0.4553 0.1548 -0.1221
C54F C 0.3987(3) 0.1923(6) -0.1215(3)
H64F H 0.3854 0.1862 -0.1550
H65F H 0.4044 0.2425 -0.1148
C55F C 0.3673(2) 0.2719(4) 0.0988(2)
H66F H 0.3406 0.2953 0.0955
C56F C 0.4294(3) 0.2479(4) 0.0945(3)
C57F C 0.4204(3) 0.1948(4) 0.1174(2)
C58F C 0.4393(3) 0.1287(4) 0.1385(3)
C59F C 0.4911(4) 0.0313(6) 0.1506(4)
H67F H 0.5235 0.0291 0.1579
H68F H 0.4753 -0.0062 0.1285
C60F C 0.4368(3) 0.0344(4) 0.1838(3)
H69F H 0.4172 -0.0022 0.1633
H70F H 0.4347 0.0317 0.2130
C61F C 0.4852(3) 0.0216(6) 0.1923(3)
H71F H 0.5053 0.0540 0.2161
H72F H 0.4940 -0.0264 0.2037
C62F C 0.4647(3) 0.2691(5) 0.0810(3)
C63F C 0.4872(3) 0.3490(5) 0.0396(3)
H73F H 0.5077 0.3847 0.0602
H74F H 0.4702 0.3703 0.0092
C64F C 0.5145(3) 0.2892(5) 0.0359(4)
H75F H 0.4944 0.2568 0.0121
H76F H 0.5372 0.3068 0.0263
C65F C 0.5375(3) 0.2515(6) 0.0792(4)
H77F H 0.5612 0.2810 0.1021
H78F H 0.5519 0.2089 0.0747
C66F C 0.1239(3) 0.3885(6) 0.0799(3)
N1F N 0.16771(19) 0.4088(3) -0.10617(19)
N2F N 0.2052(2) 0.4673(3) -0.0427(2)
N3F N 0.18533(19) 0.2979(3) -0.1498(2)
N4F N 0.2491(2) 0.2403(3) -0.13270(19)
N5F N 0.2457(2) 0.5826(3) -0.0193(2)
N6F N 0.2499(2) 0.5993(3) -0.0892(2)
N7F N 0.1738(2) 0.5388(4) -0.1829(2)
N8F N 0.1485(2) 0.4229(3) -0.1901(2)
N9F N 0.1041(2) 0.2917(3) -0.2106(2)
N10F N 0.1188(2) 0.2108(4) -0.2561(2)
N11F N 0.2018(3) 0.1082(4) -0.2184(2)
N12F N 0.2758(2) 0.1481(3) -0.1711(2)
N13F N 0.3501(2) 0.4210(3) 0.04866(19)
N14F N 0.28608(19) 0.4720(3) 0.03577(19)
N15F N 0.2578(2) 0.5637(3) 0.0724(2)
N16F N 0.3245(2) 0.5667(4) 0.1409(2)
N17F N 0.4212(2) 0.5200(4) 0.1480(2)
N18F N 0.4309(2) 0.4249(3) 0.1081(2)
N19F N 0.45571(19) 0.3260(3) 0.0575(2)
N20F N 0.5030(3) 0.2333(4) 0.0949(3)
N21F N 0.4725(2) 0.0991(4) 0.1304(3)
N22F N 0.0788(2) 0.3976(3) -0.16306(19)
N23F N 0.3953(2) 0.2956(3) 0.08261(19)
N24F N 0.1188(2) 0.2880(3) -0.12012(19)
N25F N 0.36829(19) 0.3339(3) -0.00783(19)
N26F N 0.3361(2) 0.2717(3) -0.0698(2)
N27F N 0.3152(2) 0.2843(3) -0.1541(2)
N28F N 0.3550(2) 0.3904(4) -0.1455(2)
N29F N 0.3799(2) 0.4929(4) -0.0601(2)
N30F N 0.4092(2) 0.4503(3) 0.0149(2)
N31F N 0.2071(2) 0.4456(3) 0.0418(2)
N32F N 0.3061(2) 0.1362(3) -0.0805(2)
N33F N 0.3664(2) 0.1680(4) -0.1048(2)
N34F N 0.0894(4) 0.4303(7) 0.0714(5)
N35F N 0.1004(3) 0.5339(5) 0.0012(4)
N36F N 0.1688(2) 0.5544(3) -0.0015(2)
H79F H 0.173(3) 0.108(4) -0.221(2)
H80F H 0.1411(17) 0.208(4) -0.263(2)
H81F H 0.508(2) 0.198(2) 0.113(2)
H82F H 0.085(2) 0.496(2) -0.002(2)
H83F H 0.3485(15) 0.543(3) 0.158(2)
H84F H 0.3564(15) 0.493(4) -0.0863(12)
Cl1 Cl 0.88803(9) 0.9724(2) 0.23002(11)
Cl2 Cl 0.71112(9) 0.46519(16) 0.15320(8)
Cl3 Cl 0.10506(18) 0.7887(3) 0.9818(2)
Cl4 Cl 0.4704(2) 0.0947(3) 0.03341(17)
Cl5 Cl 0.5808(3) 0.1321(5) 0.1574(2)
Cl6 Cl 0.1471(3) 0.2356(6) 0.4099(3)
Cl7 Cl 0.2500 0.2500 0.0000
Cl8 Cl 0.0840(4) 0.1662(5) 0.3337(4)
O1 O -0.0027(6) 0.2020(9) 0.3213(6)
O2 O 0.5838(4) 0.4549(6) 0.1642(4)
O3 O 0.6809(5) 0.2230(8) 0.2030(5)
O5 O 0.6624(7) 0.1345(12) 0.1468(8)
O6 O 0.6370(7) 0.2561(12) 0.0742(8)
O7 O 0.5764(4) 0.0833(7) 0.0731(4)
O8 O 0.8181(6) 0.3002(9) 0.1853(6)
O12 O 0.5457(4) 0.5680(7) 0.1047(4)
O13 O 0.6431(6) 0.3550(10) 0.1452(6)
O16 O -0.0594(10) 0.3532(18) 0.1938(13)
O18 O 0.0086(6) 0.1701(10) 0.4062(6)
O20 O 0.7520(4) 0.3222(5) 0.2025(3)
O22 O 0.921(2) 0.060(3) 0.273(2)
O29 O 0.8550(4) 0.3383(6) 0.1383(4)
O30 O -0.0358(3) 0.3553(4) 0.2977(4)
O35 O 0.954(5) 0.187(8) 0.243(5)
O49 O 0.036(2) 0.228(4) 0.379(2)
loop_
_geom_bond_atom_site_label_1
_geom_bond_atom_site_label_2
_geom_bond_site_symmetry_1
_geom_bond_site_symmetry_2
Co1 N1 1_555 1_555
Co2 N2 1_555 1_555
Co3 N13 1_555 1_555
Co4 N4 1_555 1_555
C1 H1 1_555 1_555
C2 C3 1_555 1_555
C3 C4 1_555 1_555
C4 N5 1_555 1_555
C5 H2 1_555 1_555
H3 C5 1_555 1_555
C6 C5 1_555 1_555
H4 C6 1_555 1_555
H5 C6 1_555 1_555
C7 C6 1_555 1_555
H6 C7 1_555 1_555
H7 C7 1_555 1_555
C8 C2 1_555 1_555
C9 H8 1_555 1_555
H9 C9 1_555 1_555
C10 C9 1_555 1_555
H10 C10 1_555 1_555
H11 C10 1_555 1_555
C11 C10 1_555 1_555
H12 C11 1_555 1_555
H13 C11 1_555 1_555
C12 H14 1_555 1_555
C13 C14 1_555 1_555
C14 C19 1_555 1_555
C15 C13 1_555 1_555
C16 H15 1_555 1_555
H16 C16 1_555 1_555
C17 C16 1_555 1_555
H17 C17 1_555 1_555
H18 C17 1_555 1_555
C18 C17 1_555 1_555
H19 C18 1_555 1_555
H20 C18 1_555 1_555
C19 N9 1_555 1_555
C20 H21 1_555 1_555
H22 C20 1_555 1_555
C21 C20 1_555 1_555
H23 C21 1_555 1_555
H24 C21 1_555 1_555
C22 C21 1_555 1_555
H25 C22 1_555 1_555
H26 C22 1_555 1_555
C23 H27 1_555 1_555
C24 C25 1_555 1_555
C25 C30 1_555 1_555
C26 C24 1_555 1_555
C27 H28 1_555 1_555
H29 C27 1_555 1_555
C28 C27 1_555 1_555
H30 C28 1_555 1_555
H31 C28 1_555 1_555
C29 C28 1_555 1_555
H32 C29 1_555 1_555
H33 C29 1_555 1_555
C30 N17 1_555 1_555
C31 H34 1_555 1_555
H35 C31 1_555 1_555
C32 C31 1_555 1_555
H36 C32 1_555 1_555
H37 C32 1_555 1_555
C33 C32 1_555 1_555
H38 C33 1_555 1_555
H39 C33 1_555 1_555
C34 C38 1_555 1_555
C35 H40 1_555 1_555
H41 C35 1_555 1_555
C36 C35 1_555 1_555
H42 C36 1_555 1_555
H43 C36 1_555 1_555
C37 C36 1_555 1_555
H44 C37 1_555 1_555
H45 C37 1_555 1_555
C38 C39 1_555 1_555
C39 C41 1_555 1_555
C40 H46 1_555 1_555
C41 N27 1_555 1_555
C42 H47 1_555 1_555
H48 C42 1_555 1_555
C43 C42 1_555 1_555
H49 C43 1_555 1_555
H50 C43 1_555 1_555
C44 C43 1_555 1_555
H51 C44 1_555 1_555
H52 C44 1_555 1_555
C45 H53 1_555 1_555
C46 C47 1_555 1_555
C47 C48 1_555 1_555
C48 N35 1_555 1_555
C49 H54 1_555 1_555
H55 C49 1_555 1_555
C50 C49 1_555 1_555
H56 C50 1_555 1_555
H57 C50 1_555 1_555
C51 C50 1_555 1_555
H58 C51 1_555 1_555
H59 C51 1_555 1_555
C52 H60 1_555 1_555
H61 C52 1_555 1_555
C53 C52 1_555 1_555
H62 C53 1_555 1_555
H63 C53 1_555 1_555
C54 C53 1_555 1_555
H64 C54 1_555 1_555
H65 C54 1_555 1_555
C55 H66 1_555 1_555
C56 C57 1_555 1_555
C57 C58 1_555 1_555
C58 N21 1_555 1_555
C59 H67 1_555 1_555
H68 C59 1_555 1_555
C60 H69 1_555 1_555
H70 C60 1_555 1_555
C61 C59 1_555 1_555
H71 C61 1_555 1_555
H72 C61 1_555 1_555
C62 C56 1_555 1_555
C63 H73 1_555 1_555
H74 C63 1_555 1_555
C64 C63 1_555 1_555
H75 C64 1_555 1_555
H76 C64 1_555 1_555
C65 C64 1_555 1_555
H77 C65 1_555 1_555
H78 C65 1_555 1_555
C66 C46 1_555 1_555
N1 C1 1_555 1_555
N2 C1 1_555 1_555
N3 Co1 1_555 1_555
N4 C12 1_555 1_555
N5 Co2 1_555 1_555
N6 C4 1_555 1_555
N7 C8 1_555 1_555
N8 Co1 1_555 1_555
N9 Co1 1_555 1_555
N10 C19 1_555 1_555
N11 C15 1_555 1_555
N12 Co4 1_555 1_555
N13 C23 1_555 1_555
N14 Co2 1_555 1_555
N15 Co2 1_555 1_555
N16 C26 1_555 1_555
N17 C31 1_555 1_555
N18 Co3 1_555 1_555
N19 Co3 1_555 1_555
N20 C62 1_555 1_555
N21 C59 1_555 1_555
N22 Co1 1_555 1_555
N23 Co3 1_555 1_555
N24 Co1 1_555 1_555
N25 Co3 1_555 1_555
N26 Co4 1_555 1_555
N27 Co4 1_555 1_555
N28 C41 1_555 1_555
N29 C34 1_555 1_555
N30 Co3 1_555 1_555
N31 Co2 1_555 1_555
N32 Co4 1_555 1_555
N33 Co4 1_555 1_555
N34 C66 1_555 1_555
N35 C51 1_555 1_555
N36 Co2 1_555 1_555
H79 N11 1_555 1_555
H80 N10 1_555 1_555
H81 N20 1_555 1_555
H82 N35 1_555 1_555
H83 N16 1_555 1_555
H84 N29 1_555 1_555
Co1F N1F 1_555 1_555
Co2F N2F 1_555 1_555
Co3F N13F 1_555 1_555
Co4F N4F 1_555 1_555
C1F H1F 1_555 1_555
C2F C3F 1_555 1_555
C3F C4F 1_555 1_555
C4F N5F 1_555 1_555
C5F H2F 1_555 1_555
H3F C5F 1_555 1_555
C6F C5F 1_555 1_555
H4F C6F 1_555 1_555
H5F C6F 1_555 1_555
C7F C6F 1_555 1_555
H6F C7F 1_555 1_555
H7F C7F 1_555 1_555
C8F C2F 1_555 1_555
C9F H8F 1_555 1_555
H9F C9F 1_555 1_555
C10F C9F 1_555 1_555
H10F C10F 1_555 1_555
H11F C10F 1_555 1_555
C11F C10F 1_555 1_555
H12F C11F 1_555 1_555
H13F C11F 1_555 1_555
C12F H14F 1_555 1_555
C13F C14F 1_555 1_555
C14F C19F 1_555 1_555
C15F C13F 1_555 1_555
C16F H15F 1_555 1_555
H16F C16F 1_555 1_555
C17F C16F 1_555 1_555
H17F C17F 1_555 1_555
H18F C17F 1_555 1_555
C18F C17F 1_555 1_555
H19F C18F 1_555 1_555
H20F C18F 1_555 1_555
C19F N9F 1_555 1_555
C20F H21F 1_555 1_555
H22F C20F 1_555 1_555
C21F C20F 1_555 1_555
H23F C21F 1_555 1_555
H24F C21F 1_555 1_555
C22F C21F 1_555 1_555
H25F C22F 1_555 1_555
H26F C22F 1_555 1_555
C23F H27F 1_555 1_555
C24F C25F 1_555 1_555
C25F C30F 1_555 1_555
C26F C24F 1_555 1_555
C27F H28F 1_555 1_555
H29F C27F 1_555 1_555
C28F C27F 1_555 1_555
H30F C28F 1_555 1_555
H31F C28F 1_555 1_555
C29F C28F 1_555 1_555
H32F C29F 1_555 1_555
H33F C29F 1_555 1_555
C30F N17F 1_555 1_555
C31F H34F 1_555 1_555
H35F C31F 1_555 1_555
C32F C31F 1_555 1_555
H36F C32F 1_555 1_555
H37F C32F 1_555 1_555
C33F C32F 1_555 1_555
H38F C33F 1_555 1_555
H39F C33F 1_555 1_555
C34F C38F 1_555 1_555
C35F H40F 1_555 1_555
H41F C35F 1_555 1_555
C36F C35F 1_555 1_555
H42F C36F 1_555 1_555
H43F C36F 1_555 1_555
C37F C36F 1_555 1_555
H44F C37F 1_555 1_555
H45F C37F 1_555 1_555
C38F C39F 1_555 1_555
C39F C41F 1_555 1_555
C40F H46F 1_555 1_555
C41F N27F 1_555 1_555
C42F H47F 1_555 1_555
H48F C42F 1_555 1_555
C43F C42F 1_555 1_555
H49F C43F 1_555 1_555
H50F C43F 1_555 1_555
C44F C43F 1_555 1_555
H51F C44F 1_555 1_555
H52F C44F 1_555 1_555
C45F N32 1_555 1_555
H53F C45F 1_555 1_555
C46F N32 1_555 1_555
C47F C46F 1_555 1_555
C48F C47F 1_555 1_555
C49F H54F 1_555 1_555
H55F C49F 1_555 1_555
C50F C49F 1_555 1_555
H56F C50F 1_555 1_555
H57F C50F 1_555 1_555
C51F C50F 1_555 1_555
H58F C51F 1_555 1_555
H59F C51F 1_555 1_555
C52F N34 1_555 1_555
H60F C52F 1_555 1_555
H61F C52F 1_555 1_555
C53F C52F 1_555 1_555
H62F C53F 1_555 1_555
H63F C53F 1_555 1_555
C54F C53F 1_555 1_555
H64F C54F 1_555 1_555
H65F C54F 1_555 1_555
C55F N24 1_555 1_555
H66F C55F 1_555 1_555
C56F C57F 1_555 1_555
C57F N24 1_555 1_555
C58F N22 1_555 1_555
C59F H67F 1_555 1_555
H68F C59F 1_555 1_555
C60F N22 1_555 1_555
H69F C60F 1_555 1_555
H70F C60F 1_555 1_555
C61F C59F 1_555 1_555
H71F C61F 1_555 1_555
H72F C61F 1_555 1_555
C62F C56F 1_555 1_555
C63F H73F 1_555 1_555
H74F C63F 1_555 1_555
C64F C63F 1_555 1_555
H75F C64F 1_555 1_555
H76F C64F 1_555 1_555
C65F C64F 1_555 1_555
H77F C65F 1_555 1_555
H78F C65F 1_555 1_555
C66F N33 1_555 1_555
N1F C1F 1_555 1_555
N2F C1F 1_555 1_555
N3F Co1F 1_555 1_555
N4F C12F 1_555 1_555
N5F Co2F 1_555 1_555
N6F C4F 1_555 1_555
N7F C8F 1_555 1_555
N8F Co1F 1_555 1_555
N9F Co1F 1_555 1_555
N10F C19F 1_555 1_555
N11F C15F 1_555 1_555
N12F Co4F 1_555 1_555
N13F C23F 1_555 1_555
N14F Co2F 1_555 1_555
N15F Co2F 1_555 1_555
N16F C26F 1_555 1_555
N17F C31F 1_555 1_555
N18F Co3F 1_555 1_555
N19F Co3F 1_555 1_555
N20F C62F 1_555 1_555
N21F C58F 1_555 1_555
N22F C58 1_555 1_555
N23F Co3F 1_555 1_555
N24F C55 1_555 1_555
N25F Co3F 1_555 1_555
N26F Co4F 1_555 1_555
N27F Co4F 1_555 1_555
N28F C41F 1_555 1_555
N29F C34F 1_555 1_555
N30F Co3F 1_555 1_555
N31F Co2F 1_555 1_555
N32F C45 1_555 1_555
N33F C66 1_555 1_555
N34F C52 1_555 1_555
N35F C48F 1_555 1_555
N36F Co2F 1_555 1_555
H79F N11F 1_555 1_555
H80F N10F 1_555 1_555
H81F N20F 1_555 1_555
H82F N35F 1_555 1_555
H83F N16F 1_555 1_555
H84F N29F 1_555 1_555
C2 N1 1_555 1_555
C3 N2 1_555 1_555
C5 N6 1_555 1_555
C7 N5 1_555 1_555
C8 N8 1_555 1_555
C9 N8 1_555 1_555
C11 N7 1_555 1_555
C12 N3 1_555 1_555
C13 N4 1_555 1_555
C14 N3 1_555 1_555
C15 N12 1_555 1_555
C16 N12 1_555 1_555
C18 N11 1_555 1_555
C20 N9 1_555 1_555
C22 N10 1_555 1_555
C23 N14 1_555 1_555
C24 N14 1_555 1_555
C25 N13 1_555 1_555
C26 N15 1_555 1_555
C27 N15 1_555 1_555
C29 N16 1_555 1_555
C30 N18 1_555 1_555
C33 N18 1_555 1_555
C34 N30 1_555 1_555
C35 N30 1_555 1_555
C37 N29 1_555 1_555
C38 N25 1_555 1_555
C39 N26 1_555 1_555
C40 N25 1_555 1_555
C40 N26 1_555 1_555
C42 N28 1_555 1_555
C44 N27 1_555 1_555
C45 N31 1_555 1_555
C46 N32F 1_555 1_555
C47 N31 1_555 1_555
C48 N36 1_555 1_555
C49 N36 1_555 1_555
C54 N33 1_555 1_555
C55 N23 1_555 1_555
C56 N23 1_555 1_555
C57 N24F 1_555 1_555
C60 C61 1_555 1_555
C60 N22F 1_555 1_555
C62 N19 1_555 1_555
C63 N19 1_555 1_555
C65 N20 1_555 1_555
Co1F N22F 1_555 1_555
Co1F N24F 1_555 1_555
Co4F N32F 1_555 1_555
Co4F N33F 1_555 1_555
C2F N1F 1_555 1_555
C3F N2F 1_555 1_555
C5F N6F 1_555 1_555
C7F N5F 1_555 1_555
C8F N8F 1_555 1_555
C9F N8F 1_555 1_555
C11F N7F 1_555 1_555
C12F N3F 1_555 1_555
C13F N4F 1_555 1_555
C14F N3F 1_555 1_555
C15F N12F 1_555 1_555
C16F N12F 1_555 1_555
C18F N11F 1_555 1_555
C20F N9F 1_555 1_555
C22F N10F 1_555 1_555
C23F N14F 1_555 1_555
C24F N14F 1_555 1_555
C25F N13F 1_555 1_555
C26F N15F 1_555 1_555
C27F N15F 1_555 1_555
C29F N16F 1_555 1_555
C30F N18F 1_555 1_555
C33F N18F 1_555 1_555
C34F N30F 1_555 1_555
C35F N30F 1_555 1_555
C37F N29F 1_555 1_555
C38F N25F 1_555 1_555
C39F N26F 1_555 1_555
C40F N25F 1_555 1_555
C40F N26F 1_555 1_555
C42F N28F 1_555 1_555
C44F N27F 1_555 1_555
C45F N31F 1_555 1_555
C46F C66F 1_555 1_555
C47F N31F 1_555 1_555
C48F N36F 1_555 1_555
C49F N36F 1_555 1_555
C51F N35F 1_555 1_555
C54F N33F 1_555 1_555
C55F N23F 1_555 1_555
C56F N23F 1_555 1_555
C57F C58F 1_555 1_555
C59F N21F 1_555 1_555
C60F C61F 1_555 1_555
C62F N19F 1_555 1_555
C63F N19F 1_555 1_555
C65F N20F 1_555 1_555
C66F N34F 1_555 1_555

#END
