# generated using pymatgen
data_Co8H168C132N72(ClO6)17
_symmetry_space_group_name_H-M   'P 1'
_cell_length_a   19.10632142
_cell_length_b   19.10632142
_cell_length_c   30.93346890
_cell_angle_alpha   95.58455524
_cell_angle_beta   102.49031584
_cell_angle_gamma   119.49144282
_symmetry_Int_Tables_number   1
_chemical_formula_structural   Co8H168C132N72(ClO6)17
_chemical_formula_sum   'Co16 H336 C264 N144 Cl34 O204'
_cell_volume   9316.53141106
_cell_formula_units_Z   2
loop_
 _symmetry_equiv_pos_site_id
 _symmetry_equiv_pos_as_xyz
  1  'x, y, z'
loop_
 _atom_site_type_symbol
 _atom_site_label
 _atom_site_symmetry_multiplicity
 _atom_site_fract_x
 _atom_site_fract_y
 _atom_site_fract_z
 _atom_site_occupancy
  C  C1  1  0.652200  0.228200  0.061200  1.0
  C  C2  1  0.667000  0.591000  0.438800  1.0
  C  C3  1  0.347800  0.771800  0.938800  1.0
  C  C4  1  0.333000  0.409000  0.561200  1.0
  C  C5  1  0.769600  0.285500  0.116900  1.0
  C  C6  1  0.668600  0.652700  0.383100  1.0
  C  C7  1  0.230400  0.714500  0.883100  1.0
  C  C8  1  0.331400  0.347300  0.616900  1.0
  C  C9  1  0.788800  0.296000  0.077000  1.0
  C  C10  1  0.719000  0.711800  0.423000  1.0
  C  C11  1  0.211200  0.704000  0.923000  1.0
  C  C12  1  0.281000  0.288200  0.577000  1.0
  C  C13  1  0.863700  0.330300  0.061400  1.0
  C  C14  1  0.768900  0.802300  0.438600  1.0
  C  C15  1  0.136300  0.669700  0.938600  1.0
  C  C16  1  0.231100  0.197700  0.561400  1.0
  C  C17  1  0.012500  0.383000  0.072700  1.0
  C  C18  1  0.810300  0.939800  0.427300  1.0
  C  C19  1  0.987500  0.617000  0.927300  1.0
  C  C20  1  0.189700  0.060200  0.572700  1.0
  C  C21  1  0.001100  0.425100  0.035200  1.0
  C  C22  1  0.889900  0.965900  0.464800  1.0
  C  C23  1  0.998900  0.574900  0.964800  1.0
  C  C24  1  0.110100  0.034100  0.535200  1.0
  C  C25  1  0.916500  0.368300  0.999000  1.0
  C  C26  1  0.869300  0.917500  0.501000  1.0
  C  C27  1  0.083500  0.631700  0.001000  1.0
  C  C28  1  0.130700  0.082500  0.499000  1.0
  C  C29  1  0.812500  0.309300  0.166400  1.0
  C  C30  1  0.642900  0.646100  0.333600  1.0
  C  C31  1  0.187500  0.690700  0.833600  1.0
  C  C32  1  0.357100  0.353900  0.666400  1.0
  C  C33  1  0.797600  0.288000  0.239200  1.0
  C  C34  1  0.548800  0.558400  0.260800  1.0
  C  C35  1  0.202400  0.712000  0.760800  1.0
  C  C36  1  0.451200  0.441600  0.739200  1.0
  C  C37  1  0.889800  0.316700  0.251500  1.0
  C  C38  1  0.565200  0.638300  0.248500  1.0
  C  C39  1  0.110200  0.683300  0.748500  1.0
  C  C40  1  0.434800  0.361700  0.751500  1.0
  C  C41  1  0.937300  0.390100  0.231800  1.0
  C  C42  1  0.658300  0.705500  0.268200  1.0
  C  C43  1  0.062700  0.609900  0.768200  1.0
  C  C44  1  0.341700  0.294500  0.731800  1.0
  C  C45  1  0.642100  0.063100  0.120400  1.0
  C  C46  1  0.442700  0.521700  0.379600  1.0
  C  C47  1  0.357900  0.936900  0.879600  1.0
  C  C48  1  0.557300  0.478300  0.620400  1.0
  C  C49  1  0.599300  0.995300  0.171400  1.0
  C  C50  1  0.323900  0.427900  0.328600  1.0
  C  C51  1  0.400700  0.004700  0.828600  1.0
  C  C52  1  0.676100  0.572100  0.671400  1.0
  C  C53  1  0.607300  0.070600  0.182500  1.0
  C  C54  1  0.388100  0.424800  0.317500  1.0
  C  C55  1  0.392700  0.929400  0.817500  1.0
  C  C56  1  0.611900  0.575200  0.682500  1.0
  C  C57  1  0.572500  0.921400  0.188100  1.0
  C  C58  1  0.233300  0.384400  0.311900  1.0
  C  C59  1  0.427500  0.078600  0.811900  1.0
  C  C60  1  0.766700  0.615600  0.688100  1.0
  C  C61  1  0.568600  0.794600  0.185600  1.0
  C  C62  1  0.109000  0.383000  0.314400  1.0
  C  C63  1  0.431400  0.205400  0.814400  1.0
  C  C64  1  0.891000  0.617000  0.685600  1.0
  C  C65  1  0.483000  0.761300  0.193900  1.0
  C  C66  1  0.067400  0.289100  0.306100  1.0
  C  C67  1  0.517000  0.238700  0.806100  1.0
  C  C68  1  0.932600  0.710900  0.693900  1.0
  C  C69  1  0.491500  0.826300  0.230200  1.0
  C  C70  1  0.096100  0.261300  0.269800  1.0
  C  C71  1  0.508500  0.173700  0.769800  1.0
  C  C72  1  0.903900  0.738700  0.730200  1.0
  C  C73  1  0.599300  0.119100  0.218800  1.0
  C  C74  1  0.400300  0.380500  0.281200  1.0
  C  C75  1  0.400700  0.880900  0.781200  1.0
  C  C76  1  0.599700  0.619500  0.718800  1.0
  C  C77  1  0.597600  0.239700  0.244300  1.0
  C  C78  1  0.495400  0.353300  0.255700  1.0
  C  C79  1  0.402400  0.760300  0.755700  1.0
  C  C80  1  0.504600  0.646700  0.744300  1.0
  C  C81  1  0.542900  0.188000  0.271300  1.0
  C  C82  1  0.416700  0.271600  0.228700  1.0
  C  C83  1  0.457100  0.812000  0.728700  1.0
  C  C84  1  0.583300  0.728400  0.771300  1.0
  C  C85  1  0.577200  0.139400  0.292000  1.0
  C  C86  1  0.347400  0.285200  0.208000  1.0
  C  C87  1  0.422800  0.860600  0.708000  1.0
  C  C88  1  0.652600  0.714800  0.792000  1.0
  C  C89  1  0.712000  0.120000  0.979600  1.0
  C  C90  1  0.640400  0.732400  0.520400  1.0
  C  C91  1  0.288000  0.880000  0.020400  1.0
  C  C92  1  0.359600  0.267600  0.479600  1.0
  C  C93  1  0.738800  0.180400  0.924000  1.0
  C  C94  1  0.756400  0.814800  0.576000  1.0
  C  C95  1  0.261200  0.819600  0.076000  1.0
  C  C96  1  0.243600  0.185200  0.424000  1.0
  C  C97  1  0.742000  0.108800  0.916400  1.0
  C  C98  1  0.692400  0.825600  0.583600  1.0
  C  C99  1  0.258000  0.891200  0.083600  1.0
  C  C100  1  0.307600  0.174400  0.416400  1.0
  C  C101  1  0.747000  0.245800  0.902000  1.0
  C  C102  1  0.843800  0.845000  0.598000  1.0
  C  C103  1  0.253000  0.754200  0.098000  1.0
  C  C104  1  0.156200  0.155000  0.402000  1.0
  C  C105  1  0.756400  0.375900  0.909300  1.0
  C  C106  1  0.966600  0.847100  0.590700  1.0
  C  C107  1  0.243600  0.624100  0.090700  1.0
  C  C108  1  0.033400  0.152900  0.409300  1.0
  C  C109  1  0.797600  0.387700  0.871500  1.0
  C  C110  1  0.016200  0.926100  0.628500  1.0
  C  C111  1  0.202400  0.612300  0.128500  1.0
  C  C112  1  0.983800  0.073900  0.371500  1.0
  C  C113  1  0.755500  0.306900  0.836600  1.0
  C  C114  1  0.970300  0.918900  0.663400  1.0
  C  C115  1  0.244500  0.693100  0.163400  1.0
  C  C116  1  0.029700  0.081100  0.336600  1.0
  C  C117  1  0.760700  0.064500  0.883600  1.0
  C  C118  1  0.680900  0.877100  0.616400  1.0
  C  C119  1  0.239300  0.935500  0.116400  1.0
  C  C120  1  0.319100  0.122900  0.383600  1.0
  C  C121  1  0.805800  0.049000  0.817800  1.0
  C  C122  1  0.731200  0.988000  0.682200  1.0
  C  C123  1  0.194200  0.951000  0.182200  1.0
  C  C124  1  0.268800  0.012000  0.317800  1.0
  C  C125  1  0.746800  0.960200  0.813000  1.0
  C  C126  1  0.647200  0.933800  0.687000  1.0
  C  C127  1  0.253200  0.039800  0.187000  1.0
  C  C128  1  0.352800  0.066200  0.313000  1.0
  C  C129  1  0.756600  0.940200  0.858600  1.0
  C  C130  1  0.581600  0.898000  0.641400  1.0
  C  C131  1  0.243400  0.059800  0.141400  1.0
  C  C132  1  0.418400  0.102000  0.358600  1.0
  C  C133  1  0.858700  0.056300  0.030000  1.0
  C  C134  1  0.526300  0.828700  0.470000  1.0
  C  C135  1  0.141300  0.943700  0.970000  1.0
  C  C136  1  0.473700  0.171300  0.530000  1.0
  C  C137  1  0.914300  0.087100  0.967400  1.0
  C  C138  1  0.619700  0.946900  0.532600  1.0
  C  C139  1  0.085700  0.912900  0.032600  1.0
  C  C140  1  0.380300  0.053100  0.467400  1.0
  C  C141  1  0.997000  0.110500  0.001500  1.0
  C  C142  1  0.609000  0.995500  0.498500  1.0
  C  C143  1  0.003000  0.889500  0.998500  1.0
  C  C144  1  0.391000  0.004500  0.501500  1.0
  C  C145  1  0.008400  0.159600  0.046200  1.0
  C  C146  1  0.613400  0.962200  0.453800  1.0
  C  C147  1  0.991600  0.840400  0.953800  1.0
  C  C148  1  0.386600  0.037800  0.546200  1.0
  C  C149  1  0.783900  0.005900  0.043000  1.0
  C  C150  1  0.462900  0.740900  0.457000  1.0
  C  C151  1  0.216100  0.994100  0.957000  1.0
  C  C152  1  0.537100  0.259100  0.543000  1.0
  C  C153  1  0.763400  0.984900  0.081900  1.0
  C  C154  1  0.403000  0.681500  0.418100  1.0
  C  C155  1  0.236600  0.015100  0.918100  1.0
  C  C156  1  0.597000  0.318500  0.581900  1.0
  C  C157  1  0.647000  0.924700  0.024900  1.0
  C  C158  1  0.399800  0.622100  0.475100  1.0
  C  C159  1  0.353000  0.075300  0.975100  1.0
  C  C160  1  0.600200  0.377900  0.524900  1.0
  C  C161  1  0.806000  0.997600  0.130200  1.0
  C  C162  1  0.367400  0.675800  0.369800  1.0
  C  C163  1  0.194000  0.002400  0.869800  1.0
  C  C164  1  0.632600  0.324200  0.630200  1.0
  C  C165  1  0.930100  0.047200  0.193900  1.0
  C  C166  1  0.353300  0.736200  0.306100  1.0
  C  C167  1  0.069900  0.952800  0.806100  1.0
  C  C168  1  0.646700  0.263800  0.693900  1.0
  C  C169  1  0.877900  0.057300  0.220400  1.0
  C  C170  1  0.336900  0.657500  0.279600  1.0
  C  C171  1  0.122100  0.942700  0.779600  1.0
  C  C172  1  0.663100  0.342500  0.720400  1.0
  C  C173  1  0.788100  0.983900  0.203400  1.0
  C  C174  1  0.280500  0.584700  0.296600  1.0
  C  C175  1  0.211900  0.016100  0.796600  1.0
  C  C176  1  0.719500  0.415300  0.703400  1.0
  C  C177  1  0.544900  0.164800  0.933700  1.0
  C  C178  1  0.731100  0.611200  0.566300  1.0
  C  C179  1  0.455100  0.835200  0.066300  1.0
  C  C180  1  0.268900  0.388800  0.433700  1.0
  C  C181  1  0.500700  0.250300  0.936000  1.0
  C  C182  1  0.814300  0.564700  0.564000  1.0
  C  C183  1  0.499300  0.749700  0.064000  1.0
  C  C184  1  0.185700  0.435300  0.436000  1.0
  C  C185  1  0.583200  0.292700  0.960100  1.0
  C  C186  1  0.832600  0.623100  0.539900  1.0
  C  C187  1  0.416800  0.707300  0.039900  1.0
  C  C188  1  0.167400  0.376900  0.460100  1.0
  C  C189  1  0.649900  0.375100  0.987600  1.0
  C  C190  1  0.887500  0.662300  0.512400  1.0
  C  C191  1  0.350100  0.624900  0.012400  1.0
  C  C192  1  0.112500  0.337700  0.487600  1.0
  C  C193  1  0.796600  0.466400  0.031200  1.0
  C  C194  1  0.935200  0.765400  0.468800  1.0
  C  C195  1  0.203400  0.533600  0.968800  1.0
  C  C196  1  0.064800  0.234600  0.531200  1.0
  C  C197  1  0.765600  0.507900  0.058900  1.0
  C  C198  1  0.949000  0.706700  0.441100  1.0
  C  C199  1  0.234400  0.492100  0.941100  1.0
  C  C200  1  0.051000  0.293300  0.558900  1.0
  C  C201  1  0.697700  0.513300  0.029200  1.0
  C  C202  1  0.984100  0.668500  0.470800  1.0
  C  C203  1  0.302300  0.486700  0.970800  1.0
  C  C204  1  0.015900  0.331500  0.529200  1.0
  C  C205  1  0.623100  0.645900  0.086000  1.0
  C  C206  1  0.059900  0.537100  0.414000  1.0
  C  C207  1  0.376900  0.354100  0.914000  1.0
  C  C208  1  0.940100  0.462900  0.586000  1.0
  C  C209  1  0.696000  0.711500  0.099900  1.0
  C  C210  1  0.111600  0.596100  0.400100  1.0
  C  C211  1  0.304000  0.288500  0.900100  1.0
  C  C212  1  0.888400  0.403900  0.599900  1.0
  C  C213  1  0.712500  0.793600  0.121500  1.0
  C  C214  1  0.172100  0.591000  0.378500  1.0
  C  C215  1  0.287500  0.206400  0.878500  1.0
  C  C216  1  0.827900  0.409000  0.621500  1.0
  C  C217  1  0.540400  0.904600  0.901200  1.0
  C  C218  1  0.503400  0.639200  0.598800  1.0
  C  C219  1  0.459600  0.095400  0.098800  1.0
  C  C220  1  0.496600  0.360800  0.401200  1.0
  C  C221  1  0.582800  0.818500  0.905500  1.0
  C  C222  1  0.413000  0.677300  0.594500  1.0
  C  C223  1  0.417200  0.181500  0.094500  1.0
  C  C224  1  0.587000  0.322700  0.405500  1.0
  C  C225  1  0.497800  0.774400  0.882600  1.0
  C  C226  1  0.391800  0.615200  0.617400  1.0
  C  C227  1  0.502200  0.225600  0.117400  1.0
  C  C228  1  0.608200  0.384800  0.382600  1.0
  C  C229  1  0.429500  0.689400  0.861500  1.0
  C  C230  1  0.327900  0.568000  0.638500  1.0
  C  C231  1  0.570500  0.310600  0.138500  1.0
  C  C232  1  0.672100  0.432000  0.361500  1.0
  C  C233  1  0.371800  0.540200  0.849400  1.0
  C  C234  1  0.190800  0.522400  0.650600  1.0
  C  C235  1  0.628200  0.459800  0.150600  1.0
  C  C236  1  0.809200  0.477600  0.349400  1.0
  C  C237  1  0.287400  0.597600  0.816200  1.0
  C  C238  1  0.281400  0.471200  0.683800  1.0
  C  C239  1  0.712600  0.402400  0.183800  1.0
  C  C240  1  0.718600  0.528800  0.316200  1.0
  C  C241  1  0.314500  0.536400  0.807700  1.0
  C  C242  1  0.228700  0.506800  0.692300  1.0
  C  C243  1  0.685500  0.463600  0.192300  1.0
  C  C244  1  0.771300  0.493200  0.307700  1.0
  C  C245  1  0.652800  0.804400  0.919000  1.0
  C  C246  1  0.385400  0.733800  0.581000  1.0
  C  C247  1  0.347200  0.195600  0.081000  1.0
  C  C248  1  0.614600  0.266200  0.419000  1.0
  C  C249  1  0.796600  0.861800  0.960400  1.0
  C  C250  1  0.401400  0.836200  0.539600  1.0
  C  C251  1  0.203400  0.138200  0.039600  1.0
  C  C252  1  0.598600  0.163800  0.460400  1.0
  C  C253  1  0.767800  0.774700  0.964100  1.0
  C  C254  1  0.310600  0.803700  0.535900  1.0
  C  C255  1  0.232200  0.225300  0.035900  1.0
  C  C256  1  0.689400  0.196300  0.464100  1.0
  C  C257  1  0.709800  0.714000  0.920800  1.0
  C  C258  1  0.293200  0.789000  0.579200  1.0
  C  C259  1  0.290200  0.286000  0.079200  1.0
  C  C260  1  0.706800  0.211000  0.420800  1.0
  C  C261  1  0.432500  0.264600  0.920100  1.0
  C  C262  1  0.844500  0.512400  0.579900  1.0
  C  C263  1  0.567500  0.735400  0.079900  1.0
  C  C264  1  0.155500  0.487600  0.420100  1.0
  Cl  Cl265  1  0.369590  0.915630  0.230020  1
  Cl  Cl266  1  0.185610  0.139570  0.269980  1
  Cl  Cl267  1  0.630410  0.084370  0.769980  1
  Cl  Cl268  1  0.814390  0.860430  0.730020  1
  Cl  Cl269  1  0.976890  0.245930  0.153200  1
  Cl  Cl270  1  0.592730  0.823690  0.346800  1
  Cl  Cl271  1  0.023110  0.754070  0.846800  1
  Cl  Cl272  1  0.407270  0.176310  0.653200  1
  Cl  Cl273  1  0.088040  0.316360  0.981800  1
  Cl  Cl274  1  0.834560  0.106240  0.518200  1
  Cl  Cl275  1  0.911960  0.683640  0.018200  1
  Cl  Cl276  1  0.165440  0.893760  0.481800  1
  Cl  Cl277  1  0.468310  0.375700  0.033410  1
  Cl  Cl278  1  0.842290  0.434900  0.466590  1
  Cl  Cl279  1  0.531690  0.624300  0.966590  1
  Cl  Cl280  1  0.157710  0.565100  0.533410  1
  Cl  Cl281  1  0.444500  0.448700  0.157400  1
  Cl  Cl282  1  0.791300  0.287100  0.342600  1
  Cl  Cl283  1  0.555500  0.551300  0.842600  1
  Cl  Cl284  1  0.208700  0.712900  0.657400  1
  Cl  Cl285  1  0.027200  0.911500  0.409900  1
  Cl  Cl286  1  0.001600  0.617300  0.090100  1
  Cl  Cl287  1  0.972800  0.088500  0.590100  1
  Cl  Cl288  1  0.998400  0.382700  0.909900  1
  Cl  Cl289  1  0.500000  0.000000  0.000000  1
  Cl  Cl290  1  0.500000  0.500000  0.500000  1
  Cl  Cl291  1  0.083500  0.917800  0.333700  1
  Cl  Cl292  1  0.084100  0.749800  0.166300  1
  Cl  Cl293  1  0.916500  0.082200  0.666300  1
  Cl  Cl294  1  0.915900  0.250200  0.833700  1
  Cl  Cl295  1  0.197000  0.794500  0.252100  1
  Cl  Cl296  1  0.042400  0.944900  0.247900  1
  Cl  Cl297  1  0.803000  0.205500  0.747900  1
  Cl  Cl298  1  0.957600  0.055100  0.752100  1
  Co  Co299  1  0.641620  0.216890  0.156750  1.0
  Co  Co300  1  0.560140  0.484870  0.343250  1.0
  Co  Co301  1  0.358380  0.783110  0.843250  1.0
  Co  Co302  1  0.439860  0.515130  0.656750  1.0
  Co  Co303  1  0.728760  0.286420  0.985560  1.0
  Co  Co304  1  0.800860  0.743200  0.514440  1.0
  Co  Co305  1  0.271240  0.713580  0.014440  1.0
  Co  Co306  1  0.199140  0.256800  0.485560  1.0
  Co  Co307  1  0.725430  0.973050  0.949100  1.0
  Co  Co308  1  0.523950  0.776330  0.550900  1.0
  Co  Co309  1  0.274570  0.026950  0.050900  1.0
  Co  Co310  1  0.476050  0.223670  0.449100  1.0
  Co  Co311  1  0.635640  0.900550  0.118870  1.0
  Co  Co312  1  0.281680  0.516770  0.381130  1.0
  Co  Co313  1  0.364360  0.099450  0.881130  1.0
  Co  Co314  1  0.718320  0.483230  0.618870  1.0
  H  H315  1  0.593800  0.199100  0.044500  1.0
  H  H316  1  0.654600  0.549300  0.455500  1.0
  H  H317  1  0.406200  0.800900  0.955500  1.0
  H  H318  1  0.345400  0.450700  0.544500  1.0
  H  H319  1  0.019700  0.337500  0.061000  1.0
  H  H320  1  0.776500  0.958700  0.439000  1.0
  H  H321  1  0.980300  0.662500  0.939000  1.0
  H  H322  1  0.223500  0.041300  0.561000  1.0
  H  H323  1  0.063900  0.423300  0.098200  1.0
  H  H324  1  0.825100  0.965700  0.401800  1.0
  H  H325  1  0.936100  0.576700  0.901800  1.0
  H  H326  1  0.174900  0.034300  0.598200  1.0
  H  H327  1  0.047000  0.440300  0.021100  1.0
  H  H328  1  0.919200  0.025900  0.478900  1.0
  H  H329  1  0.953000  0.559700  0.978900  1.0
  H  H330  1  0.080800  0.974100  0.521100  1.0
  H  H331  1  0.004600  0.476500  0.048300  1.0
  H  H332  1  0.928200  0.956300  0.451700  1.0
  H  H333  1  0.995400  0.523500  0.951700  1.0
  H  H334  1  0.071800  0.043700  0.548300  1.0
  H  H335  1  0.907600  0.399000  0.976600  1.0
  H  H336  1  0.922400  0.931000  0.523400  1.0
  H  H337  1  0.092400  0.601000  0.023400  1.0
  H  H338  1  0.077600  0.069000  0.476600  1.0
  H  H339  1  0.916600  0.321200  0.982600  1.0
  H  H340  1  0.838600  0.934000  0.517400  1.0
  H  H341  1  0.083400  0.678800  0.017400  1.0
  H  H342  1  0.161400  0.066000  0.482600  1.0
  H  H343  1  0.766600  0.235800  0.248600  1.0
  H  H344  1  0.487200  0.518000  0.251400  1.0
  H  H345  1  0.233400  0.764200  0.751400  1.0
  H  H346  1  0.512800  0.482000  0.748600  1.0
  H  H347  1  0.790800  0.330100  0.255900  1.0
  H  H348  1  0.574200  0.534900  0.244100  1.0
  H  H349  1  0.209200  0.669900  0.744100  1.0
  H  H350  1  0.425800  0.465100  0.755900  1.0
  H  H351  1  0.895900  0.270700  0.239600  1.0
  H  H352  1  0.531100  0.656300  0.260400  1.0
  H  H353  1  0.104100  0.729300  0.760400  1.0
  H  H354  1  0.468900  0.343700  0.739600  1.0
  H  H355  1  0.914400  0.332900  0.285100  1.0
  H  H356  1  0.547800  0.629300  0.214900  1.0
  H  H357  1  0.085600  0.667100  0.714900  1.0
  H  H358  1  0.452200  0.370700  0.785100  1.0
  H  H359  1  0.936300  0.438300  0.245800  1.0
  H  H360  1  0.692500  0.690500  0.254200  1.0
  H  H361  1  0.063700  0.561700  0.754200  1.0
  H  H362  1  0.307500  0.309500  0.745800  1.0
  H  H363  1  0.996900  0.405900  0.238000  1.0
  H  H364  1  0.667900  0.758900  0.262000  1.0
  H  H365  1  0.003100  0.594100  0.762000  1.0
  H  H366  1  0.332100  0.241100  0.738000  1.0
  H  H367  1  0.660200  0.076900  0.094500  1.0
  H  H368  1  0.482400  0.565700  0.405500  1.0
  H  H369  1  0.339800  0.923100  0.905500  1.0
  H  H370  1  0.517600  0.434300  0.594500  1.0
  H  H371  1  0.611200  0.804200  0.214000  1.0
  H  H372  1  0.090200  0.397200  0.286000  1.0
  H  H373  1  0.388800  0.195800  0.786000  1.0
  H  H374  1  0.909800  0.602800  0.714000  1.0
  H  H375  1  0.564500  0.753200  0.161700  1.0
  H  H376  1  0.091500  0.402800  0.338300  1.0
  H  H377  1  0.435500  0.246800  0.838300  1.0
  H  H378  1  0.908500  0.597200  0.661700  1.0
  H  H379  1  0.439500  0.749700  0.165400  1.0
  H  H380  1  0.084300  0.274100  0.334600  1.0
  H  H381  1  0.560500  0.250300  0.834600  1.0
  H  H382  1  0.915700  0.725900  0.665400  1.0
  H  H383  1  0.465700  0.709300  0.204000  1.0
  H  H384  1  0.005300  0.261700  0.296000  1.0
  H  H385  1  0.534300  0.290700  0.796000  1.0
  H  H386  1  0.994700  0.738300  0.704000  1.0
  H  H387  1  0.435200  0.809700  0.233300  1.0
  H  H388  1  0.076400  0.201900  0.266700  1.0
  H  H389  1  0.564800  0.190300  0.766700  1.0
  H  H390  1  0.923600  0.798100  0.733300  1.0
  H  H391  1  0.527700  0.830800  0.259900  1.0
  H  H392  1  0.070900  0.267800  0.240100  1.0
  H  H393  1  0.472300  0.169200  0.740100  1.0
  H  H394  1  0.929100  0.732200  0.759900  1.0
  H  H395  1  0.572100  0.268100  0.228600  1.0
  H  H396  1  0.539500  0.343500  0.271400  1.0
  H  H397  1  0.427900  0.731900  0.771400  1.0
  H  H398  1  0.460500  0.656500  0.728600  1.0
  H  H399  1  0.654100  0.282600  0.265300  1.0
  H  H400  1  0.517300  0.388800  0.234700  1.0
  H  H401  1  0.345900  0.717400  0.734700  1.0
  H  H402  1  0.482700  0.611200  0.765300  1.0
  H  H403  1  0.541400  0.224600  0.295600  1.0
  H  H404  1  0.429000  0.245800  0.204400  1.0
  H  H405  1  0.458600  0.775400  0.704400  1.0
  H  H406  1  0.571000  0.754200  0.795600  1.0
  H  H407  1  0.484300  0.149800  0.250900  1.0
  H  H408  1  0.398900  0.233400  0.249100  1.0
  H  H409  1  0.515700  0.850200  0.749100  1.0
  H  H410  1  0.601100  0.766600  0.750900  1.0
  H  H411  1  0.632900  0.177400  0.315100  1.0
  H  H412  1  0.362300  0.317800  0.184900  1.0
  H  H413  1  0.367100  0.822600  0.684900  1.0
  H  H414  1  0.637700  0.682200  0.815100  1.0
  H  H415  1  0.538600  0.101600  0.307200  1.0
  H  H416  1  0.294400  0.231400  0.192800  1.0
  H  H417  1  0.461400  0.898400  0.692800  1.0
  H  H418  1  0.705600  0.768600  0.807200  1.0
  H  H419  1  0.698800  0.109200  0.007000  1.0
  H  H420  1  0.602200  0.691800  0.493000  1.0
  H  H421  1  0.301200  0.890800  0.993000  1.0
  H  H422  1  0.397800  0.308200  0.507000  1.0
  H  H423  1  0.699400  0.367000  0.897200  1.0
  H  H424  1  0.969800  0.802200  0.602800  1.0
  H  H425  1  0.300600  0.633000  0.102800  1.0
  H  H426  1  0.030200  0.197800  0.397200  1.0
  H  H427  1  0.790300  0.427100  0.934200  1.0
  H  H428  1  0.992900  0.856100  0.565800  1.0
  H  H429  1  0.209700  0.572900  0.065800  1.0
  H  H430  1  0.007100  0.143900  0.434200  1.0
  H  H431  1  0.858300  0.408200  0.884700  1.0
  H  H432  1  0.023500  0.973600  0.615300  1.0
  H  H433  1  0.141700  0.591800  0.115300  1.0
  H  H434  1  0.976500  0.026400  0.384700  1.0
  H  H435  1  0.793200  0.429500  0.856700  1.0
  H  H436  1  0.072800  0.936500  0.643300  1.0
  H  H437  1  0.206800  0.570500  0.143300  1.0
  H  H438  1  0.927200  0.063500  0.356700  1.0
  H  H439  1  0.788100  0.313100  0.814800  1.0
  H  H440  1  0.998300  0.973300  0.685200  1.0
  H  H441  1  0.211900  0.686900  0.185200  1.0
  H  H442  1  0.001700  0.026700  0.314800  1.0
  H  H443  1  0.698000  0.291800  0.819200  1.0
  H  H444  1  0.972600  0.878800  0.680800  1.0
  H  H445  1  0.302000  0.708200  0.180800  1.0
  H  H446  1  0.027400  0.121200  0.319200  1.0
  H  H447  1  0.864600  0.062100  0.827700  1.0
  H  H448  1  0.734400  0.036900  0.672300  1.0
  H  H449  1  0.135400  0.937900  0.172300  1.0
  H  H450  1  0.265600  0.963100  0.327700  1.0
  H  H451  1  0.795600  0.062900  0.787900  1.0
  H  H452  1  0.775000  0.007700  0.712100  1.0
  H  H453  1  0.204400  0.937100  0.212100  1.0
  H  H454  1  0.225000  0.992300  0.287900  1.0
  H  H455  1  0.688100  0.945900  0.799600  1.0
  H  H456  1  0.646300  0.888500  0.700400  1.0
  H  H457  1  0.311900  0.054100  0.200400  1.0
  H  H458  1  0.353700  0.111500  0.299600  1.0
  H  H459  1  0.758200  0.926900  0.792300  1.0
  H  H460  1  0.634600  0.965900  0.707700  1.0
  H  H461  1  0.241800  0.073100  0.207700  1.0
  H  H462  1  0.365400  0.034100  0.292300  1.0
  H  H463  1  0.813000  0.947500  0.870100  1.0
  H  H464  1  0.577400  0.942900  0.629900  1.0
  H  H465  1  0.187000  0.052500  0.129900  1.0
  H  H466  1  0.422600  0.057100  0.370100  1.0
  H  H467  1  0.713500  0.881600  0.855500  1.0
  H  H468  1  0.526100  0.858000  0.644500  1.0
  H  H469  1  0.286500  0.118400  0.144500  1.0
  H  H470  1  0.473900  0.142000  0.355500  1.0
  H  H471  1  0.905700  0.053000  0.938300  1.0
  H  H472  1  0.614700  0.967400  0.561700  1.0
  H  H473  1  0.094300  0.947000  0.061700  1.0
  H  H474  1  0.385300  0.032600  0.438300  1.0
  H  H475  1  0.916300  0.137900  0.961200  1.0
  H  H476  1  0.676700  0.955100  0.538800  1.0
  H  H477  1  0.083700  0.862100  0.038800  1.0
  H  H478  1  0.323300  0.044900  0.461200  1.0
  H  H479  1  0.044400  0.143900  0.989700  1.0
  H  H480  1  0.654200  0.054700  0.510300  1.0
  H  H481  1  0.955600  0.856100  0.010300  1.0
  H  H482  1  0.345800  0.945300  0.489700  1.0
  H  H483  1  0.996700  0.059800  0.005900  1.0
  H  H484  1  0.553900  0.990800  0.494100  1.0
  H  H485  1  0.003300  0.940200  0.994100  1.0
  H  H486  1  0.446100  0.009200  0.505900  1.0
  H  H487  1  0.017200  0.214000  0.043000  1.0
  H  H488  1  0.671000  0.974200  0.457000  1.0
  H  H489  1  0.982800  0.786000  0.957000  1.0
  H  H490  1  0.329000  0.025800  0.543000  1.0
  H  H491  1  0.058600  0.169000  0.069600  1.0
  H  H492  1  0.599400  0.989000  0.430400  1.0
  H  H493  1  0.941400  0.831000  0.930400  1.0
  H  H494  1  0.400600  0.011000  0.569600  1.0
  H  H495  1  0.589000  0.892600  0.007800  1.0
  H  H496  1  0.384800  0.581200  0.492200  1.0
  H  H497  1  0.411000  0.107400  0.992200  1.0
  H  H498  1  0.615200  0.418800  0.507800  1.0
  H  H499  1  0.934100  0.998800  0.198900  1.0
  H  H500  1  0.299900  0.735200  0.301100  1.0
  H  H501  1  0.065900  0.001200  0.801100  1.0
  H  H502  1  0.700100  0.264800  0.698900  1.0
  H  H503  1  0.987900  0.097000  0.204300  1.0
  H  H504  1  0.392700  0.783600  0.295700  1.0
  H  H505  1  0.012100  0.903000  0.795700  1.0
  H  H506  1  0.607300  0.216400  0.704300  1.0
  H  H507  1  0.902600  0.062700  0.253100  1.0
  H  H508  1  0.309600  0.649500  0.246900  1.0
  H  H509  1  0.097400  0.937300  0.746900  1.0
  H  H510  1  0.690400  0.350500  0.753100  1.0
  H  H511  1  0.878200  0.108600  0.217400  1.0
  H  H512  1  0.391200  0.660800  0.282600  1.0
  H  H513  1  0.121800  0.891400  0.782600  1.0
  H  H514  1  0.608800  0.339200  0.717400  1.0
  H  H515  1  0.752900  0.994800  0.218900  1.0
  H  H516  1  0.275900  0.534000  0.281100  1.0
  H  H517  1  0.247100  0.005200  0.781100  1.0
  H  H518  1  0.724100  0.466000  0.718900  1.0
  H  H519  1  0.786800  0.934200  0.210800  1.0
  H  H520  1  0.223400  0.576000  0.289200  1.0
  H  H521  1  0.213200  0.065800  0.789200  1.0
  H  H522  1  0.776600  0.424000  0.710800  1.0
  H  H523  1  0.546200  0.115900  0.927300  1.0
  H  H524  1  0.688600  0.618900  0.572700  1.0
  H  H525  1  0.453800  0.884100  0.072700  1.0
  H  H526  1  0.311400  0.381100  0.427300  1.0
  H  H527  1  0.837300  0.457500  0.051800  1.0
  H  H528  1  0.905700  0.785500  0.448200  1.0
  H  H529  1  0.162700  0.542500  0.948200  1.0
  H  H530  1  0.094300  0.214500  0.551800  1.0
  H  H531  1  0.826000  0.502500  0.012100  1.0
  H  H532  1  0.990400  0.813900  0.487900  1.0
  H  H533  1  0.174000  0.497500  0.987900  1.0
  H  H534  1  0.009600  0.186100  0.512100  1.0
  H  H535  1  0.813000  0.564300  0.075900  1.0
  H  H536  1  0.988400  0.737100  0.424100  1.0
  H  H537  1  0.187000  0.435700  0.924100  1.0
  H  H538  1  0.011600  0.262900  0.575900  1.0
  H  H539  1  0.744300  0.476100  0.081400  1.0
  H  H540  1  0.894700  0.662900  0.418600  1.0
  H  H541  1  0.255700  0.523900  0.918600  1.0
  H  H542  1  0.105300  0.337100  0.581400  1.0
  H  H543  1  0.721800  0.554100  0.011100  1.0
  H  H544  1  0.043000  0.710700  0.488900  1.0
  H  H545  1  0.278200  0.445900  0.988900  1.0
  H  H546  1  0.957000  0.289300  0.511100  1.0
  H  H547  1  0.672200  0.532500  0.048300  1.0
  H  H548  1  0.984200  0.623900  0.451700  1.0
  H  H549  1  0.327800  0.467500  0.951700  1.0
  H  H550  1  0.015800  0.376100  0.548300  1.0
  H  H551  1  0.614900  0.616200  0.110700  1.0
  H  H552  1  0.005500  0.504200  0.389300  1.0
  H  H553  1  0.385100  0.383800  0.889300  1.0
  H  H554  1  0.994500  0.495800  0.610700  1.0
  H  H555  1  0.620900  0.609600  0.059900  1.0
  H  H556  1  0.049700  0.561000  0.440100  1.0
  H  H557  1  0.379100  0.390400  0.940100  1.0
  H  H558  1  0.950300  0.439000  0.559900  1.0
  H  H559  1  0.718100  0.719200  0.073500  1.0
  H  H560  1  0.145700  0.644600  0.426500  1.0
  H  H561  1  0.281900  0.280800  0.926500  1.0
  H  H562  1  0.854300  0.355400  0.573500  1.0
  H  H563  1  0.732200  0.699500  0.122100  1.0
  H  H564  1  0.077400  0.610100  0.377900  1.0
  H  H565  1  0.267800  0.300500  0.877900  1.0
  H  H566  1  0.922600  0.389900  0.622100  1.0
  H  H567  1  0.726600  0.800800  0.155000  1.0
  H  H568  1  0.145800  0.571600  0.345000  1.0
  H  H569  1  0.273400  0.199200  0.845000  1.0
  H  H570  1  0.854200  0.428400  0.655000  1.0
  H  H571  1  0.761700  0.838100  0.114800  1.0
  H  H572  1  0.223300  0.646900  0.385200  1.0
  H  H573  1  0.238300  0.161900  0.885200  1.0
  H  H574  1  0.776700  0.353100  0.614800  1.0
  H  H575  1  0.540400  0.954700  0.904500  1.0
  H  H576  1  0.550200  0.635900  0.595500  1.0
  H  H577  1  0.459600  0.045300  0.095500  1.0
  H  H578  1  0.449800  0.364100  0.404500  1.0
  H  H579  1  0.394700  0.505600  0.842100  1.0
  H  H580  1  0.163500  0.552600  0.657900  1.0
  H  H581  1  0.605300  0.494400  0.157900  1.0
  H  H582  1  0.836500  0.447400  0.342100  1.0
  H  H583  1  0.340600  0.518500  0.871500  1.0
  H  H584  1  0.147000  0.469100  0.628500  1.0
  H  H585  1  0.659400  0.481500  0.128500  1.0
  H  H586  1  0.853000  0.530900  0.371500  1.0
  H  H587  1  0.251700  0.580600  0.836700  1.0
  H  H588  1  0.243900  0.415000  0.663300  1.0
  H  H589  1  0.748300  0.419400  0.163300  1.0
  H  H590  1  0.756100  0.585000  0.336700  1.0
  H  H591  1  0.253400  0.597000  0.787000  1.0
  H  H592  1  0.310000  0.466400  0.713000  1.0
  H  H593  1  0.746600  0.403000  0.213000  1.0
  H  H594  1  0.690000  0.533600  0.287000  1.0
  H  H595  1  0.343200  0.548700  0.783900  1.0
  H  H596  1  0.264800  0.559300  0.716100  1.0
  H  H597  1  0.656800  0.451300  0.216100  1.0
  H  H598  1  0.735200  0.440700  0.283900  1.0
  H  H599  1  0.263900  0.479600  0.796300  1.0
  H  H600  1  0.183300  0.467600  0.703700  1.0
  H  H601  1  0.736100  0.520400  0.203700  1.0
  H  H602  1  0.816700  0.532400  0.296300  1.0
  H  H603  1  0.832200  0.877000  0.939800  1.0
  H  H604  1  0.437200  0.892400  0.560200  1.0
  H  H605  1  0.167800  0.123000  0.060200  1.0
  H  H606  1  0.562800  0.107600  0.439800  1.0
  H  H607  1  0.831300  0.900100  0.990800  1.0
  H  H608  1  0.409300  0.840500  0.509200  1.0
  H  H609  1  0.168700  0.099900  0.009200  1.0
  H  H610  1  0.590700  0.159500  0.490800  1.0
  H  H611  1  0.739100  0.762400  0.987900  1.0
  H  H612  1  0.274500  0.751200  0.512100  1.0
  H  H613  1  0.260900  0.237600  0.012100  1.0
  H  H614  1  0.725500  0.248800  0.487900  1.0
  H  H615  1  0.817700  0.769600  0.973700  1.0
  H  H616  1  0.295900  0.844000  0.526300  1.0
  H  H617  1  0.182300  0.230400  0.026300  1.0
  H  H618  1  0.704100  0.156000  0.473700  1.0
  H  H619  1  0.740100  0.719800  0.897900  1.0
  H  H620  1  0.321900  0.842200  0.602100  1.0
  H  H621  1  0.259900  0.280200  0.102100  1.0
  H  H622  1  0.678100  0.157800  0.397900  1.0
  H  H623  1  0.686100  0.657000  0.925300  1.0
  H  H624  1  0.231700  0.760800  0.574700  1.0
  H  H625  1  0.313900  0.343000  0.074700  1.0
  H  H626  1  0.768300  0.239200  0.425300  1.0
  H  H627  1  0.502000  0.935000  0.221000  1.0
  H  H628  1  0.214000  0.281000  0.279000  1.0
  H  H629  1  0.498000  0.065000  0.779000  1.0
  H  H630  1  0.786000  0.719000  0.721000  1.0
  H  H631  1  0.612100  0.066900  0.263000  1.0
  H  H632  1  0.303900  0.349100  0.237000  1.0
  H  H633  1  0.387900  0.933100  0.737000  1.0
  H  H634  1  0.696100  0.650900  0.763000  1.0
  H  H635  1  0.593000  0.690000  0.887000  1.0
  H  H636  1  0.303000  0.706000  0.613000  1.0
  H  H637  1  0.407000  0.310000  0.113000  1.0
  H  H638  1  0.697000  0.294000  0.387000  1.0
  H  H639  1  0.583000  0.411000  0.002000  1.0
  H  H640  1  0.909000  0.581000  0.498000  1.0
  H  H641  1  0.417000  0.589000  0.998000  1.0
  H  H642  1  0.091000  0.419000  0.502000  1.0
  H  H643  1  0.733500  0.194500  0.842000  1.0
  H  H644  1  0.852500  0.891500  0.658000  1.0
  H  H645  1  0.266500  0.805500  0.158000  1.0
  H  H646  1  0.147500  0.108500  0.342000  1.0
  H  H647  1  0.935700  0.136600  0.086300  1.0
  H  H648  1  0.550300  0.849400  0.413700  1.0
  H  H649  1  0.064300  0.863400  0.913700  1.0
  H  H650  1  0.449700  0.150600  0.586300  1.0
  N  N651  1  0.682680  0.241090  0.106170  1.0
  N  N652  1  0.634920  0.576510  0.393830  1.0
  N  N653  1  0.317320  0.758910  0.893830  1.0
  N  N654  1  0.365080  0.423490  0.606170  1.0
  N  N655  1  0.715200  0.262100  0.042700  1.0
  N  N656  1  0.719400  0.672500  0.457300  1.0
  N  N657  1  0.284800  0.737900  0.957300  1.0
  N  N658  1  0.280600  0.327500  0.542700  1.0
  N  N659  1  0.633030  0.112570  0.149800  1.0
  N  N660  1  0.462770  0.483230  0.350200  1.0
  N  N661  1  0.366970  0.887430  0.850200  1.0
  N  N662  1  0.537230  0.516770  0.649800  1.0
  N  N663  1  0.622100  0.991200  0.132700  1.0
  N  N664  1  0.358500  0.489400  0.367300  1.0
  N  N665  1  0.377900  0.008800  0.867300  1.0
  N  N666  1  0.641500  0.510600  0.632700  1.0
  N  N667  1  0.847600  0.336900  0.019300  1.0
  N  N668  1  0.817600  0.828300  0.480700  1.0
  N  N669  1  0.152400  0.663100  0.980700  1.0
  N  N670  1  0.182400  0.171700  0.519300  1.0
  N  N671  1  0.938400  0.349400  0.089200  1.0
  N  N672  1  0.760200  0.849200  0.410800  1.0
  N  N673  1  0.061600  0.650600  0.910800  1.0
  N  N674  1  0.239800  0.150800  0.589200  1.0
  N  N675  1  0.895500  0.365000  0.182900  1.0
  N  N676  1  0.682100  0.712600  0.317100  1.0
  N  N677  1  0.104500  0.635000  0.817100  1.0
  N  N678  1  0.317900  0.287400  0.682900  1.0
  N  N679  1  0.761500  0.274400  0.190100  1.0
  N  N680  1  0.584300  0.571400  0.309900  1.0
  N  N681  1  0.238500  0.725600  0.809900  1.0
  N  N682  1  0.415700  0.428600  0.690100  1.0
  N  N683  1  0.606400  0.187600  0.210600  1.0
  N  N684  1  0.477000  0.395800  0.289400  1.0
  N  N685  1  0.393600  0.812400  0.789400  1.0
  N  N686  1  0.523000  0.604200  0.710600  1.0
  N  N687  1  0.585700  0.092000  0.256100  1.0
  N  N688  1  0.335900  0.329600  0.243900  1.0
  N  N689  1  0.414300  0.908000  0.743900  1.0
  N  N690  1  0.664100  0.670400  0.756100  1.0
  N  N691  1  0.528400  0.906400  0.218400  1.0
  N  N692  1  0.188000  0.310000  0.281600  1.0
  N  N693  1  0.471600  0.093600  0.781600  1.0
  N  N694  1  0.812000  0.690000  0.718400  1.0
  N  N695  1  0.595000  0.872300  0.171100  1.0
  N  N696  1  0.201200  0.423900  0.328900  1.0
  N  N697  1  0.405000  0.127700  0.828900  1.0
  N  N698  1  0.798800  0.576100  0.671100  1.0
  N  N699  1  0.722440  0.070900  0.951340  1.0
  N  N700  1  0.619560  0.771100  0.548660  1.0
  N  N701  1  0.277560  0.929100  0.048660  1.0
  N  N702  1  0.380440  0.228900  0.451340  1.0
  N  N703  1  0.722310  0.185920  0.964230  1.0
  N  N704  1  0.721690  0.758080  0.535770  1.0
  N  N705  1  0.277690  0.814080  0.035770  1.0
  N  N706  1  0.278310  0.241920  0.464230  1.0
  N  N707  1  0.749100  0.305900  0.927600  1.0
  N  N708  1  0.878300  0.821500  0.572400  1.0
  N  N709  1  0.250900  0.694100  0.072400  1.0
  N  N710  1  0.121700  0.178500  0.427600  1.0
  N  N711  1  0.750300  0.242200  0.859100  1.0
  N  N712  1  0.883100  0.891200  0.640900  1.0
  N  N713  1  0.249700  0.757800  0.140900  1.0
  N  N714  1  0.116900  0.108800  0.359100  1.0
  N  N715  1  0.793200  0.098800  0.852000  1.0
  N  N716  1  0.746800  0.941200  0.648000  1.0
  N  N717  1  0.206800  0.901200  0.148000  1.0
  N  N718  1  0.253200  0.058800  0.352000  1.0
  N  N719  1  0.747700  0.994000  0.891900  1.0
  N  N720  1  0.602100  0.855800  0.608100  1.0
  N  N721  1  0.252300  0.006000  0.108100  1.0
  N  N722  1  0.397900  0.144200  0.391900  1.0
  N  N723  1  0.724210  0.870290  0.942500  1.0
  N  N724  1  0.427790  0.781710  0.557500  1.0
  N  N725  1  0.275790  0.129710  0.057500  1.0
  N  N726  1  0.572210  0.218290  0.442500  1.0
  N  N727  1  0.641400  0.730300  0.905100  1.0
  N  N728  1  0.325200  0.736300  0.594900  1.0
  N  N729  1  0.358600  0.269700  0.094900  1.0
  N  N730  1  0.674800  0.263700  0.405100  1.0
  N  N731  1  0.441200  0.626600  0.869600  1.0
  N  N732  1  0.257000  0.571600  0.630400  1.0
  N  N733  1  0.558800  0.373400  0.130400  1.0
  N  N734  1  0.743000  0.428400  0.369600  1.0
  N  N735  1  0.639460  0.318800  0.163060  1.0
  N  N736  1  0.655740  0.476400  0.336940  1.0
  N  N737  1  0.360540  0.681200  0.836940  1.0
  N  N738  1  0.344260  0.523600  0.663060  1.0
  N  N739  1  0.608290  0.900300  0.917390  1.0
  N  N740  1  0.482910  0.690900  0.582610  1.0
  N  N741  1  0.391710  0.099700  0.082610  1.0
  N  N742  1  0.517090  0.309100  0.417390  1.0
  N  N743  1  0.526920  0.169200  0.120120  1.0
  N  N744  1  0.549080  0.406800  0.379880  1.0
  N  N745  1  0.473080  0.830800  0.879880  1.0
  N  N746  1  0.450920  0.593200  0.620120  1.0
  N  N747  1  0.710020  0.965610  0.007830  1.0
  N  N748  1  0.457780  0.702190  0.492170  1.0
  N  N749  1  0.289980  0.034390  0.992170  1.0
  N  N750  1  0.542220  0.297810  0.507830  1.0
  N  N751  1  0.677600  0.935600  0.069800  1.0
  N  N752  1  0.365800  0.607800  0.430200  1.0
  N  N753  1  0.322400  0.064400  0.930200  1.0
  N  N754  1  0.634200  0.392200  0.569800  1.0
  N  N755  1  0.753600  0.969100  0.154100  1.0
  N  N756  1  0.315000  0.599500  0.345900  1.0
  N  N757  1  0.246400  0.030900  0.845900  1.0
  N  N758  1  0.685000  0.400500  0.654100  1.0
  N  N759  1  0.890900  0.035400  0.145500  1.0
  N  N760  1  0.389900  0.745400  0.354500  1.0
  N  N761  1  0.109100  0.964600  0.854500  1.0
  N  N762  1  0.610100  0.254600  0.645500  1.0
  N  N763  1  0.932900  0.113000  0.060100  1.0
  N  N764  1  0.552900  0.872800  0.439900  1.0
  N  N765  1  0.067100  0.887000  0.939900  1.0
  N  N766  1  0.447100  0.127200  0.560100  1.0
  N  N767  1  0.844600  0.041100  0.985100  1.0
  N  N768  1  0.556000  0.859500  0.514900  1.0
  N  N769  1  0.155400  0.958900  0.014900  1.0
  N  N770  1  0.444000  0.140500  0.485100  1.0
  N  N771  1  0.610900  0.238500  0.958200  1.0
  N  N772  1  0.780300  0.652700  0.541800  1.0
  N  N773  1  0.389100  0.761500  0.041800  1.0
  N  N774  1  0.219700  0.347300  0.458200  1.0
  N  N775  1  0.522800  0.830100  0.080500  1.0
  N  N776  1  0.249600  0.442300  0.419500  1.0
  N  N777  1  0.477200  0.169900  0.919500  1.0
  N  N778  1  0.750400  0.557700  0.580500  1.0
  N  N779  1  0.639200  0.801600  0.104800  1.0
  N  N780  1  0.196800  0.534400  0.395200  1.0
  N  N781  1  0.360800  0.198400  0.895200  1.0
  N  N782  1  0.803200  0.465600  0.604800  1.0
  N  N783  1  0.448300  0.340900  0.928600  1.0
  N  N784  1  0.912300  0.519700  0.571400  1.0
  N  N785  1  0.551700  0.659100  0.071400  1.0
  N  N786  1  0.087700  0.480300  0.428600  1.0
  N  N787  1  0.633100  0.433500  0.998800  1.0
  N  N788  1  0.934700  0.634300  0.501200  1.0
  N  N789  1  0.366900  0.566500  0.001200  1.0
  N  N790  1  0.065300  0.365700  0.498800  1.0
  N  N791  1  0.724700  0.385600  0.001500  1.0
  N  N792  1  0.884100  0.723200  0.498500  1.0
  N  N793  1  0.275300  0.614400  0.998500  1.0
  N  N794  1  0.115900  0.276800  0.501500  1.0
  O  O795  1  0.122000  0.795300  0.321300  1
  O  O796  1  0.974000  0.800700  0.178700  1
  O  O797  1  0.878000  0.204700  0.678700  1
  O  O798  1  0.026000  0.199300  0.821300  1
  O  O799  1  0.125500  0.128900  0.164200  1
  O  O800  1  0.464700  0.961300  0.335800  1
  O  O801  1  0.874500  0.871100  0.835800  1
  O  O802  1  0.535300  0.038700  0.664200  1
  O  O803  1  0.299100  0.457900  0.203000  1
  O  O804  1  0.754900  0.096100  0.297000  1
  O  O805  1  0.700900  0.542100  0.797000  1
  O  O806  1  0.245100  0.903900  0.703000  1
  O  O807  1  0.349900  0.527900  0.146800  1
  O  O808  1  0.881100  0.203100  0.353200  1
  O  O809  1  0.650100  0.472100  0.853200  1
  O  O810  1  0.118900  0.796900  0.646800  1
  O  O811  1  0.181100  0.380900  0.074200  1
  O  O812  1  0.806700  0.106900  0.425800  1
  O  O813  1  0.818900  0.619100  0.925800  1
  O  O814  1  0.193300  0.893100  0.574200  1
  O  O815  1  0.413400  0.493100  0.073100  1
  O  O816  1  0.920000  0.340300  0.426900  1
  O  O817  1  0.586600  0.506900  0.926900  1
  O  O818  1  0.080000  0.659700  0.573100  1
  O  O819  1  0.067000  0.517900  0.185300  1
  O  O820  1  0.832600  0.881700  0.314700  1
  O  O821  1  0.933000  0.482100  0.814700  1
  O  O822  1  0.167400  0.118300  0.685300  1
  O  O823  1  0.991000  0.977700  0.104700  1
  O  O824  1  0.373000  0.886300  0.395300  1
  O  O825  1  0.009000  0.022300  0.895300  1
  O  O826  1  0.627000  0.113700  0.604700  1
  O  O827  1  0.147100  0.288100  0.145200  1
  O  O828  1  0.642900  0.001900  0.354800  1
  O  O829  1  0.852900  0.711900  0.854800  1
  O  O830  1  0.357100  0.998100  0.645200  1
  O  O831  1  0.900000  0.587400  0.193800  1
  O  O832  1  0.893600  0.706200  0.306200  1
  O  O833  1  0.100000  0.412600  0.806200  1
  O  O834  1  0.106400  0.293800  0.693800  1
  O  O835  1  0.227500  0.838500  0.406200  1
  O  O836  1  0.932300  0.821300  0.093800  1
  O  O837  1  0.772500  0.161500  0.593800  1
  O  O838  1  0.067700  0.178700  0.906200  1
  O  O839  1  0.128300  0.429800  0.202500  1
  O  O840  1  0.727300  0.925800  0.297500  1
  O  O841  1  0.871700  0.570200  0.797500  1
  O  O842  1  0.272700  0.074200  0.702500  1
  O  O843  1  0.292000  0.861000  0.273000  1
  O  O844  1  0.088000  0.019000  0.227000  1
  O  O845  1  0.708000  0.139000  0.727000  1
  O  O846  1  0.912000  0.981000  0.773000  1
  O  O847  1  0.945000  0.516700  0.138300  1
  O  O848  1  0.878400  0.806700  0.361700  1
  O  O849  1  0.055000  0.483300  0.861700  1
  O  O850  1  0.121600  0.193300  0.638300  1
  O  O851  1  0.978200  0.608900  0.297700  1
  O  O852  1  0.811200  0.680500  0.202300  1
  O  O853  1  0.021800  0.391100  0.702300  1
  O  O854  1  0.188800  0.319500  0.797700  1
  O  O855  1  0.102000  0.767000  0.243000  1
  O  O856  1  0.024000  0.859000  0.257000  1
  O  O857  1  0.898000  0.233000  0.757000  1
  O  O858  1  0.976000  0.141000  0.743000  1
  O  O859  1  0.115000  0.808000  0.379000  1
  O  O860  1  0.929000  0.736000  0.121000  1
  O  O861  1  0.885000  0.192000  0.621000  1
  O  O862  1  0.071000  0.264000  0.879000  1
  O  O863  1  0.290500  0.458500  0.176000  1
  O  O864  1  0.782500  0.114500  0.324000  1
  O  O865  1  0.709500  0.541500  0.824000  1
  O  O866  1  0.217500  0.885500  0.676000  1
  O  O867  1  0.122000  0.626100  0.263900  1
  O  O868  1  0.862200  0.858100  0.236100  1
  O  O869  1  0.878000  0.373900  0.736100  1
  O  O870  1  0.137800  0.141900  0.763900  1
  O  O871  1  0.079300  0.618300  0.279600  1
  O  O872  1  0.838700  0.799700  0.220400  1
  O  O873  1  0.920700  0.381700  0.720400  1
  O  O874  1  0.161300  0.200300  0.779600  1
  O  O875  1  0.242400  0.442200  0.066800  1
  O  O876  1  0.875400  0.175600  0.433200  1
  O  O877  1  0.757600  0.557800  0.933200  1
  O  O878  1  0.124600  0.824400  0.566800  1
  O  O879  1  0.100600  0.563500  0.212500  1
  O  O880  1  0.851000  0.888100  0.287500  1
  O  O881  1  0.899400  0.436500  0.787500  1
  O  O882  1  0.149000  0.111900  0.712500  1
  O  O883  1  0.491400  0.429600  0.046800  1
  O  O884  1  0.882800  0.444600  0.453200  1
  O  O885  1  0.508600  0.570400  0.953200  1
  O  O886  1  0.117200  0.555400  0.546800  1
  O  O887  1  0.246600  0.395800  0.150400  1
  O  O888  1  0.745400  0.096200  0.349600  1
  O  O889  1  0.753400  0.604200  0.849600  1
  O  O890  1  0.254600  0.903800  0.650400  1
  O  O891  1  0.035700  0.033600  0.114300  1
  O  O892  1  0.419300  0.921400  0.385700  1
  O  O893  1  0.964300  0.966400  0.885700  1
  O  O894  1  0.580700  0.078600  0.614300  1
  O  O895  1  0.388400  0.949600  0.202200  1
  O  O896  1  0.247400  0.186200  0.297800  1
  O  O897  1  0.611600  0.050400  0.797800  1
  O  O898  1  0.752600  0.813800  0.702200  1
  O  O899  1  0.158100  0.260200  0.168300  1
  O  O900  1  0.591900  0.989800  0.331700  1
  O  O901  1  0.841900  0.739800  0.831700  1
  O  O902  1  0.408100  0.010200  0.668300  1
  O  O903  1  0.918000  0.653000  0.197000  1
  O  O904  1  0.956000  0.721000  0.303000  1
  O  O905  1  0.082000  0.347000  0.803000  1
  O  O906  1  0.044000  0.279000  0.697000  1
  O  O907  1  0.122000  0.678000  0.264000  1
  O  O908  1  0.914000  0.858000  0.236000  1
  O  O909  1  0.878000  0.322000  0.736000  1
  O  O910  1  0.086000  0.142000  0.764000  1
  O  O911  1  0.098000  0.931000  0.391000  1
  O  O912  1  0.040000  0.707000  0.109000  1
  O  O913  1  0.902000  0.069000  0.609000  1
  O  O914  1  0.960000  0.293000  0.891000  1
  O  O915  1  0.195700  0.399900  0.047800  1
  O  O916  1  0.852100  0.147900  0.452200  1
  O  O917  1  0.804300  0.600100  0.952200  1
  O  O918  1  0.147900  0.852100  0.547800  1
  O  O919  1  0.324200  0.513700  0.111900  1
  O  O920  1  0.901800  0.212300  0.388100  1
  O  O921  1  0.675800  0.486300  0.888100  1
  O  O922  1  0.098200  0.787700  0.611900  1
  O  O923  1  0.495400  0.457900  0.015300  1
  O  O924  1  0.942600  0.480100  0.484700  1
  O  O925  1  0.504600  0.542100  0.984700  1
  O  O926  1  0.057400  0.519900  0.515300  1
  O  O927  1  0.147500  0.180800  0.168300  1
  O  O928  1  0.512500  0.979200  0.331700  1
  O  O929  1  0.852500  0.819200  0.831700  1
  O  O930  1  0.487500  0.020800  0.668300  1
  O  O931  1  0.190000  0.788000  0.428000  1
  O  O932  1  0.860000  0.762000  0.072000  1
  O  O933  1  0.810000  0.212000  0.572000  1
  O  O934  1  0.140000  0.238000  0.928000  1
  O  O935  1  0.247800  0.426600  0.208400  1
  O  O936  1  0.718200  0.039400  0.291600  1
  O  O937  1  0.752200  0.573400  0.791600  1
  O  O938  1  0.281800  0.960600  0.708400  1
  O  O939  1  0.252500  0.831400  0.289900  1
  O  O940  1  0.041500  0.962600  0.210100  1
  O  O941  1  0.747500  0.168600  0.710100  1
  O  O942  1  0.958500  0.037400  0.789900  1
  O  O943  1  0.929000  0.573000  0.254000  1
  O  O944  1  0.819000  0.675000  0.246000  1
  O  O945  1  0.071000  0.427000  0.746000  1
  O  O946  1  0.181000  0.325000  0.754000  1
  O  O947  1  0.063000  0.842000  0.323000  1
  O  O948  1  0.019000  0.740000  0.177000  1
  O  O949  1  0.937000  0.158000  0.677000  1
  O  O950  1  0.981000  0.260000  0.823000  1
  O  O951  1  0.184000  0.779000  0.325000  1
  O  O952  1  0.954000  0.859000  0.175000  1
  O  O953  1  0.816000  0.221000  0.675000  1
  O  O954  1  0.046000  0.141000  0.825000  1
  O  O955  1  0.106000  0.466000  0.194000  1
  O  O956  1  0.772000  0.912000  0.306000  1
  O  O957  1  0.894000  0.534000  0.806000  1
  O  O958  1  0.228000  0.088000  0.694000  1
  O  O959  1  0.045000  0.262000  0.141000  1
  O  O960  1  0.621000  0.904000  0.359000  1
  O  O961  1  0.955000  0.738000  0.859000  1
  O  O962  1  0.379000  0.096000  0.641000  1
  O  O963  1  0.031000  0.521000  0.168000  1
  O  O964  1  0.853000  0.863000  0.332000  1
  O  O965  1  0.969000  0.479000  0.832000  1
  O  O966  1  0.147000  0.137000  0.668000  1
  O  O967  1  0.470000  0.503000  0.099000  1
  O  O968  1  0.904000  0.371000  0.401000  1
  O  O969  1  0.530000  0.497000  0.901000  1
  O  O970  1  0.096000  0.629000  0.599000  1
  O  O971  1  0.091000  0.600000  0.243000  1
  O  O972  1  0.857000  0.848000  0.257000  1
  O  O973  1  0.909000  0.400000  0.757000  1
  O  O974  1  0.143000  0.152000  0.743000  1
  O  O975  1  0.854000  0.569000  0.161000  1
  O  O976  1  0.908000  0.693000  0.339000  1
  O  O977  1  0.146000  0.431000  0.839000  1
  O  O978  1  0.092000  0.307000  0.661000  1
  O  O979  1  0.048000  0.292000  0.960000  1
  O  O980  1  0.832000  0.088000  0.540000  1
  O  O981  1  0.952000  0.708000  0.040000  1
  O  O982  1  0.168000  0.912000  0.460000  1
  O  O983  1  0.065600  0.057400  0.133000  1
  O  O984  1  0.424400  0.932600  0.367000  1
  O  O985  1  0.934400  0.942600  0.867000  1
  O  O986  1  0.575600  0.067400  0.633000  1
  O  O987  1  0.192000  0.445000  0.197000  1
  O  O988  1  0.748000  0.995000  0.303000  1
  O  O989  1  0.808000  0.555000  0.803000  1
  O  O990  1  0.252000  0.005000  0.697000  1
  O  O991  1  0.028000  0.703000  0.345000  1
  O  O992  1  0.858000  0.683000  0.155000  1
  O  O993  1  0.972000  0.297000  0.655000  1
  O  O994  1  0.142000  0.317000  0.845000  1
  O  O995  1  0.248000  0.798000  0.362000  1
  O  O996  1  0.936000  0.886000  0.138000  1
  O  O997  1  0.752000  0.202000  0.638000  1
  O  O998  1  0.064000  0.114000  0.862000  1
