
#######################################################################
#
#                 Cambridge Crystallographic Data Centre
#                                CCDC 
#
#######################################################################
#
# If this CIF has been generated from an entry in the Cambridge 
# Structural Database, then it will include bibliographic, chemical, 
# crystal, experimental, refinement or atomic coordinate data resulting 
# from the CCDC's data processing and validation procedures.
#
#######################################################################

data_EWIHEY
_chemical_formula_moiety         'C44 H60 N28 Ni4 O12,4(C3 H7 N1 O1)'
_chemical_name_systematic        
"tetrakis(\m~2~-2,2'-(1H-Imidazole-4,5-diyl)bis(1,4,5,6-tetrahydropyrimidine))-tetrakis(nitrato-O,O')-tetra-nickel(ii) dimethylformamide solvate"
_symmetry_cell_setting           orthorhombic
_symmetry_space_group_name_H-M   'P b c a'
_symmetry_Int_Tables_number      61
_space_group_name_Hall           '-P 2ac 2ab'
loop_
_symmetry_equiv_pos_site_id
_symmetry_equiv_pos_as_xyz
1 x,y,z
2 1/2-x,-y,1/2+z
3 -x,1/2+y,1/2-z
4 1/2+x,1/2-y,-z
5 -x,-y,-z
6 1/2+x,y,1/2-z
7 x,1/2-y,1/2+z
8 1/2-x,1/2+y,z
_cell_length_a                   17.3775(12)
_cell_length_b                   17.4940(12)
_cell_length_c                   24.6892(17)
_cell_angle_alpha                90
_cell_angle_beta                 90
_cell_angle_gamma                90
_cell_volume                     7505.57
_exptl_crystal_colour            blue
_exptl_crystal_description       block
_cell_formula_units_Z            4
loop_
_atom_site_label
_atom_site_type_symbol
_atom_site_fract_x
_atom_site_fract_y
_atom_site_fract_z
Ni1 Ni 0.01731(8) 0.05165(8) 0.32087(5)
Ni2 Ni 0.24761(8) -0.02143(9) 0.50838(5)
O1 O 0.3308(3) -0.0170(5) 0.5733(2)
O2 O 0.2706(4) 0.0857(3) 0.5487(2)
O3 O 0.3492(4) 0.0903(4) 0.6174(3)
O4 O -0.0205(4) -0.0607(4) 0.2908(2)
O5 O -0.0616(4) 0.0439(5) 0.2523(2)
O6 O -0.1080(4) -0.0665(4) 0.2274(3)
C1 C 0.1763(7) 0.0427(5) 0.2962(3)
C2 C 0.1711(6) 0.0316(5) 0.3571(3)
C3 C 0.1134(5) 0.0688(6) 0.2138(3)
H1 H 0.0718 0.1048 0.2039
H2 H 0.1038 0.0199 0.1947
C4 C 0.1405(5) -0.1183(6) 0.5642(3)
C5 C 0.1918(5) 0.1019(6) 0.1954(3)
H3 H 0.1930 0.1067 0.1555
H4 H 0.1994 0.1534 0.2113
C6 C 0.1069(6) 0.0109(5) 0.4287(3)
H5 H 0.0647 0.0031 0.4525
C7 C 0.1226(5) -0.0087(5) 0.6022(3)
H6 H 0.1266 0.0441 0.6107
C8 C 0.4150(5) 0.0051(5) 0.4614(3)
H7 H 0.4331 -0.0426 0.4788
H8 H 0.4257 0.0480 0.4865
C9 C 0.1748(6) -0.1653(6) 0.5216(3)
C10 C 0.2225(5) 0.0266(4) 0.3990(4)
C11 C 0.0389(6) -0.1888(7) 0.6293(3)
C12 C 0.4593(5) 0.0177(5) 0.4086(3)
H9 H 0.5143 0.0269 0.4169
H10 H 0.4559 -0.0289 0.3860
C13 C 0.2712(5) -0.1790(6) 0.4534(3)
H11 H 0.3272 -0.1686 0.4538
H12 H 0.2506 -0.1611 0.4183
C14 C 0.1723(5) -0.2798(5) 0.4655(3)
H13 H 0.1446 -0.2651 0.4320
H14 H 0.1634 -0.3349 0.4721
C15 C -0.0673(5) -0.2246(6) 0.6806(4)
H15 H -0.0486 -0.2444 0.7158
H16 H -0.1190 -0.2024 0.6866
C16 C -0.0740(6) -0.2900(5) 0.6415(3)
H17 H -0.0973 -0.2717 0.6073
H18 H -0.1080 -0.3298 0.6569
C17 C 0.4282(6) 0.0836(5) 0.3779(3)
H19 H 0.4389 0.1316 0.3978
H20 H 0.4534 0.0867 0.3420
C18 C 0.2579(6) -0.2650(6) 0.4586(4)
H21 H 0.2769 -0.2914 0.4257
H22 H 0.2864 -0.2851 0.4903
C19 C 0.3053(6) 0.0334(5) 0.4081(3)
C20 C 0.0023(6) -0.3228(6) 0.6304(4)
H23 H -0.0012 -0.3589 0.5996
H24 H 0.0206 -0.3514 0.6625
C21 C 0.2544(5) 0.0492(6) 0.2141(3)
H25 H 0.2509 0.0000 0.1944
H26 H 0.3053 0.0722 0.2065
C22 C 0.0863(5) -0.1279(6) 0.6055(3)
N2 N 0.1122(4) 0.0556(4) 0.2734(2)
N3 N 0.0759(4) -0.0567(5) 0.6279(2)
N4 N 0.1633(4) -0.0428(5) 0.5629(2)
N5 N 0.3316(4) 0.0001(4) 0.4517(2)
N6 N 0.3457(5) 0.0738(5) 0.3713(3)
N7 N 0.0977(4) 0.0214(4) 0.3758(2)
N8 N 0.2340(4) -0.1360(4) 0.4977(2)
N9 N -0.0161(4) -0.1652(4) 0.6625(3)
N10 N 0.1799(4) 0.0121(4) 0.4457(2)
N11 N 0.3184(5) 0.0538(7) 0.5807(3)
N12 N -0.0648(5) -0.0287(7) 0.2559(3)
N13 N 0.1432(4) -0.2352(5) 0.5111(3)
N14 N 0.2453(5) 0.0362(4) 0.2731(2)
N15 N 0.0570(5) -0.2616(6) 0.6173(3)
H41 H 0.320(7) 0.084(8) 0.341(4)
H42 H 0.093(9) -0.273(9) 0.601(6)
H43 H 0.099(8) -0.225(8) 0.512(6)
H44 H 0.293(6) 0.024(8) 0.294(5)
Ni1D Ni -0.01731(8) -0.05165(8) 0.67913(5)
Ni2D Ni -0.24761(8) 0.02143(9) 0.49162(5)
O1D O -0.3308(3) 0.0170(5) 0.4267(2)
O2D O -0.2706(4) -0.0857(3) 0.4513(2)
O3D O -0.3492(4) -0.0903(4) 0.3826(3)
O4D O 0.0205(4) 0.0607(4) 0.7092(2)
O5D O 0.0616(4) -0.0439(5) 0.7477(2)
O6D O 0.1080(4) 0.0665(4) 0.7726(3)
C1D C -0.1763(7) -0.0427(5) 0.7038(3)
C2D C -0.1711(6) -0.0316(5) 0.6429(3)
C3D C -0.1134(5) -0.0688(6) 0.7862(3)
H1D H -0.0718 -0.1048 0.7961
H2D H -0.1038 -0.0199 0.8053
C4D C -0.1405(5) 0.1183(6) 0.4358(3)
C5D C -0.1918(5) -0.1019(6) 0.8046(3)
H3D H -0.1930 -0.1067 0.8445
H4D H -0.1994 -0.1534 0.7887
C6D C -0.1069(6) -0.0109(5) 0.5713(3)
H5D H -0.0647 -0.0031 0.5475
C7D C -0.1226(5) 0.0087(5) 0.3978(3)
H6D H -0.1266 -0.0441 0.3893
C8D C -0.4150(5) -0.0051(5) 0.5386(3)
H7D H -0.4331 0.0426 0.5212
H8D H -0.4257 -0.0480 0.5135
C9D C -0.1748(6) 0.1653(6) 0.4784(3)
C10D C -0.2225(5) -0.0266(4) 0.6010(4)
C11D C -0.0389(6) 0.1888(7) 0.3707(3)
C12D C -0.4593(5) -0.0177(5) 0.5914(3)
H9D H -0.5143 -0.0269 0.5831
H10D H -0.4559 0.0289 0.6140
C13D C -0.2712(5) 0.1790(6) 0.5466(3)
H11D H -0.3272 0.1686 0.5462
H12D H -0.2506 0.1611 0.5817
C14D C -0.1723(5) 0.2798(5) 0.5345(3)
H13D H -0.1446 0.2651 0.5680
H14D H -0.1634 0.3349 0.5279
C15D C 0.0673(5) 0.2246(6) 0.3194(4)
H15D H 0.0486 0.2444 0.2842
H16D H 0.1190 0.2024 0.3134
C16D C 0.0740(6) 0.2900(5) 0.3585(3)
H17D H 0.0973 0.2717 0.3927
H18D H 0.1080 0.3298 0.3431
C17D C -0.4282(6) -0.0836(5) 0.6221(3)
H19D H -0.4389 -0.1316 0.6022
H20D H -0.4534 -0.0867 0.6580
C18D C -0.2579(6) 0.2650(6) 0.5414(4)
H21D H -0.2769 0.2914 0.5743
H22D H -0.2864 0.2851 0.5097
C19D C -0.3053(6) -0.0334(5) 0.5919(3)
C20D C -0.0023(6) 0.3228(6) 0.3696(4)
H23D H 0.0012 0.3589 0.4004
H24D H -0.0206 0.3514 0.3375
C21D C -0.2544(5) -0.0492(6) 0.7859(3)
H25D H -0.2509 0.0000 0.8056
H26D H -0.3053 -0.0722 0.7935
C22D C -0.0863(5) 0.1279(6) 0.3945(3)
N2D N -0.1122(4) -0.0556(4) 0.7266(2)
N3D N -0.0759(4) 0.0567(5) 0.3721(2)
N4D N -0.1633(4) 0.0428(5) 0.4371(2)
N5D N -0.3316(4) -0.0001(4) 0.5483(2)
N6D N -0.3457(5) -0.0738(5) 0.6287(3)
N7D N -0.0977(4) -0.0214(4) 0.6242(2)
N8D N -0.2340(4) 0.1360(4) 0.5023(2)
N9D N 0.0161(4) 0.1652(4) 0.3375(3)
N10D N -0.1799(4) -0.0121(4) 0.5543(2)
N11D N -0.3184(5) -0.0538(7) 0.4193(3)
N12D N 0.0648(5) 0.0287(7) 0.7441(3)
N13D N -0.1432(4) 0.2352(5) 0.4889(3)
N14D N -0.2453(5) -0.0362(4) 0.7269(2)
N15D N -0.0570(5) 0.2616(6) 0.3827(3)
H41D H -0.320(7) -0.084(8) 0.659(4)
H42D H -0.093(9) 0.273(9) 0.399(6)
H43D H -0.099(8) 0.225(8) 0.488(6)
H44D H -0.293(6) -0.024(8) 0.706(5)
O7 O 0.5107(4) 0.1924(4) 0.4976(3)
C24 C 0.5613(7) 0.2016(7) 0.4625(5)
H28 H 0.5867 0.1571 0.4496
C25 C 0.5505(8) 0.3388(7) 0.4632(6)
H29 H 0.5079 0.3558 0.4402
H30 H 0.5907 0.3782 0.4638
H31 H 0.5317 0.3302 0.5002
C27 C 0.6415(6) 0.2723(6) 0.3992(4)
H35 H 0.6632 0.2214 0.3927
H36 H 0.6823 0.3072 0.4107
H37 H 0.6181 0.2914 0.3657
N16 N 0.5825(5) 0.2675(6) 0.4416(4)
N1 N 0.8328(6) 0.2093(6) 0.7265(3)
O8 O 0.7693(4) 0.2937(5) 0.6728(3)
C23 C 0.7764(9) 0.2360(9) 0.7006(5)
H27 H 0.7311 0.2058 0.7029
C26 C 0.9055(12) 0.2500(11) 0.7179(8)
H32 H 0.8950 0.3044 0.7119
H33 H 0.9318 0.2288 0.6862
H34 H 0.9383 0.2441 0.7499
C28 C 0.8348(8) 0.1447(8) 0.7582(6)
H38 H 0.8633 0.1554 0.7916
H39 H 0.8603 0.1034 0.7383
H40 H 0.7821 0.1292 0.7672
loop_
_geom_bond_atom_site_label_1
_geom_bond_atom_site_label_2
_geom_bond_site_symmetry_1
_geom_bond_site_symmetry_2
Ni1 O4 1_555 1_555
Ni2 O1 1_555 1_555
O1 N11 1_555 1_555
O2 Ni2 1_555 1_555
O3 N11 1_555 1_555
O4 N12 1_555 1_555
O5 Ni1 1_555 1_555
O6 N12 1_555 1_555
O7 C24 1_555 1_555
C1 C2 1_555 1_555
C2 C10 1_555 1_555
C3 H1 1_555 1_555
H2 C3 1_555 1_555
C4 C9 1_555 1_555
C5 C3 1_555 1_555
H3 C5 1_555 1_555
H4 C5 1_555 1_555
C6 H5 1_555 1_555
C7 H6 1_555 1_555
C8 H7 1_555 1_555
H8 C8 1_555 1_555
C9 N8 1_555 1_555
C10 C19 1_555 1_555
C11 C22 1_555 1_555
C12 C8 1_555 1_555
H9 C12 1_555 1_555
H10 C12 1_555 1_555
C13 H11 1_555 1_555
H12 C13 1_555 1_555
C14 H13 1_555 1_555
H14 C14 1_555 1_555
C15 H15 1_555 1_555
H16 C15 1_555 1_555
C16 C15 1_555 1_555
H17 C16 1_555 1_555
H18 C16 1_555 1_555
C17 C12 1_555 1_555
H19 C17 1_555 1_555
H20 C17 1_555 1_555
C18 C13 1_555 1_555
H21 C18 1_555 1_555
H22 C18 1_555 1_555
C19 N5 1_555 1_555
C20 C16 1_555 1_555
H23 C20 1_555 1_555
H24 C20 1_555 1_555
C21 C5 1_555 1_555
H25 C21 1_555 1_555
H26 C21 1_555 1_555
C22 C4 1_555 1_555
N1 C23 1_555 1_555
O8 C23 1_555 1_555
C23 H27 1_555 1_555
C24 H28 1_555 1_555
C25 H29 1_555 1_555
H30 C25 1_555 1_555
H31 C25 1_555 1_555
C26 N1 1_555 1_555
H32 C26 1_555 1_555
H33 C26 1_555 1_555
H34 C26 1_555 1_555
C27 H35 1_555 1_555
H36 C27 1_555 1_555
H37 C27 1_555 1_555
N2 Ni1 1_555 1_555
N3 C7 1_555 1_555
N4 Ni2 1_555 1_555
N5 Ni2 1_555 1_555
N6 C17 1_555 1_555
N7 Ni1 1_555 1_555
N8 Ni2 1_555 1_555
N9 C11 1_555 1_555
N10 Ni2 1_555 1_555
N11 O2 1_555 1_555
N12 O5 1_555 1_555
N13 C9 1_555 1_555
N14 C1 1_555 1_555
N15 C11 1_555 1_555
N16 C24 1_555 1_555
C28 N1 1_555 1_555
H38 C28 1_555 1_555
H39 C28 1_555 1_555
H40 C28 1_555 1_555
H41 N6 1_555 1_555
H42 N15 1_555 1_555
H43 N13 1_555 1_555
H44 N14 1_555 1_555
Ni1D N3 1_555 1_555
Ni2D O1D 1_555 1_555
O1D N11D 1_555 1_555
O2D Ni2D 1_555 1_555
O3D N11D 1_555 1_555
O4D Ni1D 1_555 1_555
O5D Ni1D 1_555 1_555
O6D N12D 1_555 1_555
C1D C2D 1_555 1_555
C2D C10D 1_555 1_555
C3D H1D 1_555 1_555
H2D C3D 1_555 1_555
C4D C9D 1_555 1_555
C5D C3D 1_555 1_555
H3D C5D 1_555 1_555
H4D C5D 1_555 1_555
C6D H5D 1_555 1_555
C7D H6D 1_555 1_555
C8D H7D 1_555 1_555
H8D C8D 1_555 1_555
C9D N8D 1_555 1_555
C10D C19D 1_555 1_555
C11D C22D 1_555 1_555
C12D C8D 1_555 1_555
H9D C12D 1_555 1_555
H10D C12D 1_555 1_555
C13D H11D 1_555 1_555
H12D C13D 1_555 1_555
C14D H13D 1_555 1_555
H14D C14D 1_555 1_555
C15D H15D 1_555 1_555
H16D C15D 1_555 1_555
C16D C15D 1_555 1_555
H17D C16D 1_555 1_555
H18D C16D 1_555 1_555
C17D C12D 1_555 1_555
H19D C17D 1_555 1_555
H20D C17D 1_555 1_555
C18D C13D 1_555 1_555
H21D C18D 1_555 1_555
H22D C18D 1_555 1_555
C19D N5D 1_555 1_555
C20D C16D 1_555 1_555
H23D C20D 1_555 1_555
H24D C20D 1_555 1_555
C21D C5D 1_555 1_555
H25D C21D 1_555 1_555
H26D C21D 1_555 1_555
C22D C4D 1_555 1_555
N2D Ni1D 1_555 1_555
N3D Ni1 1_555 1_555
N4D Ni2D 1_555 1_555
N5D Ni2D 1_555 1_555
N6D C17D 1_555 1_555
N7D Ni1D 1_555 1_555
N8D Ni2D 1_555 1_555
N9D Ni1 1_555 1_555
N10D Ni2D 1_555 1_555
N11D O2D 1_555 1_555
N12D O4D 1_555 1_555
N13D C9D 1_555 1_555
N14D C1D 1_555 1_555
N15D C11D 1_555 1_555
H41D N6D 1_555 1_555
H42D N15D 1_555 1_555
H43D N13D 1_555 1_555
H44D N14D 1_555 1_555
C1 N2 1_555 1_555
C2 N7 1_555 1_555
C3 N2 1_555 1_555
C4 N4 1_555 1_555
C6 N7 1_555 1_555
C6 N10 1_555 1_555
C7 N4 1_555 1_555
C8 N5 1_555 1_555
C10 N10 1_555 1_555
C13 N8 1_555 1_555
C14 C18 1_555 1_555
C14 N13 1_555 1_555
C15 N9 1_555 1_555
C19 N6 1_555 1_555
C20 N15 1_555 1_555
C21 N14 1_555 1_555
C22 N3 1_555 1_555
C25 N16 1_555 1_555
C27 N16 1_555 1_555
N9 Ni1D 1_555 1_555
O5D N12D 1_555 1_555
C1D N2D 1_555 1_555
C2D N7D 1_555 1_555
C3D N2D 1_555 1_555
C4D N4D 1_555 1_555
C6D N7D 1_555 1_555
C6D N10D 1_555 1_555
C7D N3D 1_555 1_555
C7D N4D 1_555 1_555
C8D N5D 1_555 1_555
C10D N10D 1_555 1_555
C11D N9D 1_555 1_555
C13D N8D 1_555 1_555
C14D C18D 1_555 1_555
C14D N13D 1_555 1_555
C15D N9D 1_555 1_555
C19D N6D 1_555 1_555
C20D N15D 1_555 1_555
C21D N14D 1_555 1_555
C22D N3D 1_555 1_555

#END
