
#######################################################################
#
#                 Cambridge Crystallographic Data Centre
#                                CCDC 
#
#######################################################################
#
# If this CIF has been generated from an entry in the Cambridge 
# Structural Database, then it will include bibliographic, chemical, 
# crystal, experimental, refinement or atomic coordinate data resulting 
# from the CCDC's data processing and validation procedures.
#
#######################################################################

data_EWUMUE
_chemical_name_common            
tetrakis(mu!2$-1,1,2,3,3-Pentamethyltrimethylene-phosphinato-O,O')-dodeca-n-butyl-tetra-tin
_chemical_formula_moiety         'C80 H172 O8 P4 Sn4'
_chemical_name_systematic        
tetrakis(\m~2~-2,2,3,4,4-Pentamethyl-1-oxidophosphetan-1-olato-O,O')-dodeca-n-butyl-tetra-tin
_symmetry_cell_setting           tetragonal
_symmetry_space_group_name_H-M   'P 42/n'
_symmetry_Int_Tables_number      86
_space_group_name_Hall           '-P 4bc'
loop_
_symmetry_equiv_pos_site_id
_symmetry_equiv_pos_as_xyz
1 x,y,z
2 -y,1/2+x,1/2+z
3 1/2+y,-x,1/2+z
4 1/2+x,1/2+y,-z
5 -x,-y,-z
6 y,1/2-x,1/2-z
7 1/2-y,x,1/2-z
8 1/2-x,1/2-y,z
_cell_length_a                   19.2108(8)
_cell_length_b                   19.2108(8)
_cell_length_c                   13.0532(7)
_cell_angle_alpha                90
_cell_angle_beta                 90
_cell_angle_gamma                90
_cell_volume                     4817.35
_exptl_crystal_colour            colorless
_exptl_crystal_description       plate
_chemical_melting_point          '204 deg.C'
_cell_formula_units_Z            2
_exptl_crystal_recrystallization_method n-hexane/dichloromethane
loop_
_atom_site_label
_atom_site_type_symbol
_atom_site_fract_x
_atom_site_fract_y
_atom_site_fract_z
C1 C 0.3602(3) 0.1897(3) 0.3466(4)
H1 H 0.3483 0.2353 0.3158
H2 H 0.3162 0.1650 0.3615
C2 C 0.4006(6) 0.2021(5) 0.4495(7)
H3 H 0.4449 0.2265 0.4346
H4 H 0.3725 0.2326 0.4946
C3 C 0.4161(7) 0.1353(6) 0.5048(9)
H5 H 0.3725 0.1080 0.5079
H6 H 0.4494 0.1085 0.4624
C4 C 0.4437(10) 0.1392(11) 0.6060(11)
H7 H 0.4512 0.0921 0.6325
H8 H 0.4108 0.1639 0.6503
H9 H 0.4881 0.1643 0.6047
C12 C 0.5005(6) 0.0630(6) 0.2609(10)
H26 H 0.5328 0.0828 0.3123
H27 H 0.4823 0.0186 0.2886
C13 C 0.5416(7) 0.0477(8) 0.1608(11)
H28 H 0.5090 0.0296 0.1085
H29 H 0.5614 0.0918 0.1345
C14 C 0.5981(8) -0.0026(8) 0.1744(13)
H30 H 0.5783 -0.0471 0.1991
H31 H 0.6202 -0.0115 0.1071
C15 C 0.6510(15) 0.020(2) 0.246(2)
H32 H 0.6884 -0.0145 0.2486
H33 H 0.6304 0.0256 0.3140
H34 H 0.6701 0.0649 0.2230
C16 C 0.4012(6) 0.1251(5) 0.0751(7)
H35 H 0.4449 0.1090 0.0427
H36 H 0.3655 0.0889 0.0625
C17 C 0.3781(6) 0.1913(5) 0.0205(6)
H37 H 0.3331 0.2058 0.0506
H38 H 0.4123 0.2281 0.0369
C18 C 0.3693(6) 0.1897(5) -0.0944(6)
H39 H 0.4151 0.1777 -0.1245
H40 H 0.3373 0.1509 -0.1108
C19 C 0.3452(9) 0.2479(8) -0.1446(12)
H41 H 0.3426 0.2384 -0.2183
H42 H 0.3770 0.2869 -0.1324
H43 H 0.2987 0.2598 -0.1189
C24 C 0.3164(5) -0.0829(5) 0.3642(9)
C25 C 0.3489(6) -0.1238(5) 0.2758(7)
H53 H 0.3988 -0.1089 0.2749
C26 C 0.3156(5) -0.0875(6) 0.1790(10)
C27 C 0.3776(6) -0.0711(8) 0.4333(11)
H54 H 0.4154 -0.0495 0.3943
H55 H 0.3935 -0.1158 0.4610
H56 H 0.3640 -0.0404 0.4898
C28 C 0.2539(5) -0.1167(6) 0.4139(9)
H57 H 0.2166 -0.1217 0.3632
H58 H 0.2376 -0.0875 0.4707
H59 H 0.2669 -0.1627 0.4400
C29 C 0.3516(7) -0.2015(6) 0.2750(11)
H60 H 0.3748 -0.2175 0.2124
H61 H 0.3041 -0.2202 0.2772
H62 H 0.3776 -0.2179 0.3349
C30 C 0.3664(6) -0.0707(6) 0.0959(10)
H63 H 0.4073 -0.0479 0.1257
H64 H 0.3445 -0.0394 0.0461
H65 H 0.3807 -0.1137 0.0615
C31 C 0.2470(6) -0.1238(8) 0.1458(12)
H66 H 0.2181 -0.1326 0.2063
H67 H 0.2579 -0.1680 0.1119
H68 H 0.2216 -0.0935 0.0981
O1 O 0.3429(2) 0.04219(19) 0.2654(3)
O2 O 0.49520(19) 0.2162(2) 0.2249(3)
P1 P 0.29176(7) -0.01546(7) 0.27464(11)
Sn1 Sn 0.418583(18) 0.131084(18) 0.23974(3)
O2E O 0.2162(2) 0.00480(19) 0.2751(3)
Sn1E Sn 0.131084(18) 0.081417(18) 0.26026(3)
C1E C 0.1897(3) 0.1398(3) 0.1534(4)
H1E H 0.2353 0.1517 0.1842
H2E H 0.1650 0.1838 0.1385
C2E C 0.2021(5) 0.0994(6) 0.0505(7)
H3E H 0.2265 0.0551 0.0654
H4E H 0.2326 0.1275 0.0054
C3E C 0.1353(6) 0.0839(7) -0.0048(9)
H5E H 0.1080 0.1275 -0.0079
H6E H 0.1085 0.0506 0.0376
C4E C 0.1392(11) 0.0563(10) -0.1060(11)
H7E H 0.0921 0.0488 -0.1325
H8E H 0.1639 0.0892 -0.1503
H9E H 0.1643 0.0119 -0.1047
C12E C 0.0630(6) -0.0005(6) 0.2391(10)
H26E H 0.0828 -0.0328 0.1877
H27E H 0.0186 0.0177 0.2114
C13E C 0.0477(8) -0.0416(7) 0.3392(11)
H28E H 0.0296 -0.0090 0.3915
H29E H 0.0918 -0.0614 0.3655
C14E C -0.0026(8) -0.0981(8) 0.3256(13)
H30E H -0.0471 -0.0783 0.3009
H31E H -0.0115 -0.1202 0.3929
C15E C 0.020(2) -0.1510(15) 0.254(2)
H32E H -0.0145 -0.1884 0.2514
H33E H 0.0256 -0.1304 0.1860
H34E H 0.0649 -0.1701 0.2770
C16E C 0.1251(5) 0.0988(6) 0.4249(7)
H35E H 0.1090 0.0551 0.4573
H36E H 0.0889 0.1345 0.4375
C17E C 0.1913(5) 0.1219(6) 0.4795(6)
H37E H 0.2058 0.1669 0.4494
H38E H 0.2281 0.0877 0.4631
C18E C 0.1897(5) 0.1307(6) 0.5944(6)
H39E H 0.1777 0.0849 0.6245
H40E H 0.1509 0.1627 0.6108
C19E C 0.2479(8) 0.1548(9) 0.6446(12)
H41E H 0.2384 0.1574 0.7183
H42E H 0.2869 0.1230 0.6324
H43E H 0.2598 0.2013 0.6189
O1E O 0.04219(19) 0.1571(2) 0.2346(3)
P1E P -0.01546(7) 0.20824(7) 0.22536(11)
C24E C -0.0829(5) 0.1836(5) 0.1358(9)
C25E C -0.1238(5) 0.1511(6) 0.2242(7)
H53E H -0.1089 0.1012 0.2251
C26E C -0.0875(6) 0.1844(5) 0.3210(10)
C30E C -0.0707(6) 0.1336(6) 0.4041(10)
H63E H -0.0479 0.0927 0.3743
H64E H -0.0394 0.1555 0.4539
H65E H -0.1137 0.1193 0.4385
C31E C -0.1238(8) 0.2530(6) 0.3542(12)
H66E H -0.1326 0.2819 0.2937
H67E H -0.1680 0.2421 0.3881
H68E H -0.0935 0.2784 0.4019
O2G O 0.00480(19) 0.2838(2) 0.2249(3)
Sn1G Sn 0.081417(18) 0.368916(18) 0.23974(3)
C1G C 0.1398(3) 0.3103(3) 0.3466(4)
H1G H 0.1517 0.2647 0.3158
H2G H 0.1838 0.3350 0.3615
C2G C 0.0994(6) 0.2979(5) 0.4495(7)
H3G H 0.0551 0.2735 0.4346
H4G H 0.1275 0.2674 0.4946
C3G C 0.0839(7) 0.3647(6) 0.5048(9)
H5G H 0.1275 0.3920 0.5079
H6G H 0.0506 0.3915 0.4624
C4G C 0.0563(10) 0.3608(11) 0.6060(11)
H7G H 0.0488 0.4079 0.6325
H8G H 0.0892 0.3361 0.6503
H9G H 0.0119 0.3357 0.6047
C12G C -0.0005(6) 0.4370(6) 0.2609(10)
H26G H -0.0328 0.4172 0.3123
H27G H 0.0177 0.4814 0.2886
C13G C -0.0416(7) 0.4523(8) 0.1608(11)
H28G H -0.0090 0.4704 0.1085
H29G H -0.0614 0.4082 0.1345
C14G C -0.0981(8) 0.5026(8) 0.1744(13)
H30G H -0.0783 0.5471 0.1991
H31G H -0.1202 0.5115 0.1071
C15G C -0.1510(15) 0.480(2) 0.246(2)
H32G H -0.1884 0.5145 0.2486
H33G H -0.1304 0.4744 0.3140
H34G H -0.1701 0.4351 0.2230
C16G C 0.0988(6) 0.3749(5) 0.0751(7)
H35G H 0.0551 0.3910 0.0427
H36G H 0.1345 0.4111 0.0625
C17G C 0.1219(6) 0.3087(5) 0.0205(6)
H37G H 0.1669 0.2942 0.0506
H38G H 0.0877 0.2719 0.0369
C18G C 0.1307(6) 0.3103(5) -0.0944(6)
H39G H 0.0849 0.3223 -0.1245
H40G H 0.1627 0.3491 -0.1108
C19G C 0.1548(9) 0.2521(8) -0.1446(12)
H41G H 0.1574 0.2616 -0.2183
H42G H 0.1230 0.2131 -0.1324
H43G H 0.2013 0.2402 -0.1189
O1G O 0.1571(2) 0.45781(19) 0.2654(3)
P1G P 0.20824(7) 0.51546(7) 0.27464(11)
C24G C 0.1836(5) 0.5829(5) 0.3642(9)
C25G C 0.1511(6) 0.6238(5) 0.2758(7)
H53G H 0.1012 0.6089 0.2749
C26G C 0.1844(5) 0.5875(6) 0.1790(10)
C30G C 0.1336(6) 0.5707(6) 0.0959(10)
H63G H 0.0927 0.5479 0.1257
H64G H 0.1555 0.5394 0.0461
H65G H 0.1193 0.6137 0.0615
C31G C 0.2530(6) 0.6238(8) 0.1458(12)
H66G H 0.2819 0.6326 0.2063
H67G H 0.2421 0.6680 0.1119
H68G H 0.2784 0.5935 0.0981
O2F O 0.2838(2) 0.49520(19) 0.2751(3)
Sn1F Sn 0.368916(18) 0.418583(18) 0.26026(3)
C1F C 0.3103(3) 0.3602(3) 0.1534(4)
H1F H 0.2647 0.3483 0.1842
H2F H 0.3350 0.3162 0.1385
C2F C 0.2979(5) 0.4006(6) 0.0505(7)
H3F H 0.2735 0.4449 0.0654
H4F H 0.2674 0.3725 0.0054
C3F C 0.3647(6) 0.4161(7) -0.0048(9)
H5F H 0.3920 0.3725 -0.0079
H6F H 0.3915 0.4494 0.0376
C4F C 0.3608(11) 0.4437(10) -0.1060(11)
H7F H 0.4079 0.4512 -0.1325
H8F H 0.3361 0.4108 -0.1503
H9F H 0.3357 0.4881 -0.1047
C12F C 0.4370(6) 0.5005(6) 0.2391(10)
H26F H 0.4172 0.5328 0.1877
H27F H 0.4814 0.4823 0.2114
C13F C 0.4523(8) 0.5416(7) 0.3392(11)
H28F H 0.4704 0.5090 0.3915
H29F H 0.4082 0.5614 0.3655
C14F C 0.5026(8) 0.5981(8) 0.3256(13)
H30F H 0.5471 0.5783 0.3009
H31F H 0.5115 0.6202 0.3929
C15F C 0.480(2) 0.6510(15) 0.254(2)
H32F H 0.5145 0.6884 0.2514
H33F H 0.4744 0.6304 0.1860
H34F H 0.4351 0.6701 0.2770
C16F C 0.3749(5) 0.4012(6) 0.4249(7)
H35F H 0.3910 0.4449 0.4573
H36F H 0.4111 0.3655 0.4375
C17F C 0.3087(5) 0.3781(6) 0.4795(6)
H37F H 0.2942 0.3331 0.4494
H38F H 0.2719 0.4123 0.4631
C18F C 0.3103(5) 0.3693(6) 0.5944(6)
H39F H 0.3223 0.4151 0.6245
H40F H 0.3491 0.3373 0.6108
C19F C 0.2521(8) 0.3452(9) 0.6446(12)
H41F H 0.2616 0.3426 0.7183
H42F H 0.2131 0.3770 0.6324
H43F H 0.2402 0.2987 0.6189
O1F O 0.45781(19) 0.3429(2) 0.2346(3)
P1F P 0.51546(7) 0.29176(7) 0.22536(11)
C24F C 0.5829(5) 0.3164(5) 0.1358(9)
C25F C 0.6238(5) 0.3489(6) 0.2242(7)
H53F H 0.6089 0.3988 0.2251
C26F C 0.5875(6) 0.3156(5) 0.3210(10)
C30F C 0.5707(6) 0.3664(6) 0.4041(10)
H63F H 0.5479 0.4073 0.3743
H64F H 0.5394 0.3445 0.4539
H65F H 0.6137 0.3807 0.4385
C31F C 0.6238(8) 0.2470(6) 0.3542(12)
H66F H 0.6326 0.2181 0.2937
H67F H 0.6680 0.2579 0.3881
H68F H 0.5935 0.2216 0.4019
C29F C 0.7015(6) 0.3516(7) 0.2250(11)
H60F H 0.7175 0.3748 0.2876
H61F H 0.7202 0.3041 0.2228
H62F H 0.7179 0.3776 0.1651
C27F C 0.5711(8) 0.3776(6) 0.0667(11)
H54F H 0.5495 0.4154 0.1057
H55F H 0.6158 0.3935 0.0390
H56F H 0.5404 0.3640 0.0102
C28F C 0.6167(6) 0.2539(5) 0.0861(9)
H57F H 0.6217 0.2166 0.1368
H58F H 0.5875 0.2376 0.0293
H59F H 0.6627 0.2669 0.0600
C29G C 0.1484(7) 0.7015(6) 0.2750(11)
H60G H 0.1252 0.7175 0.2124
H61G H 0.1959 0.7202 0.2772
H62G H 0.1224 0.7179 0.3349
C27G C 0.1224(6) 0.5711(8) 0.4333(11)
H54G H 0.0846 0.5495 0.3943
H55G H 0.1065 0.6158 0.4610
H56G H 0.1360 0.5404 0.4898
C28G C 0.2461(5) 0.6167(6) 0.4139(9)
H57G H 0.2834 0.6217 0.3632
H58G H 0.2624 0.5875 0.4707
H59G H 0.2331 0.6627 0.4400
C29E C -0.2015(6) 0.1484(7) 0.2250(11)
H60E H -0.2175 0.1252 0.2876
H61E H -0.2202 0.1959 0.2228
H62E H -0.2179 0.1224 0.1651
C27E C -0.0711(8) 0.1224(6) 0.0667(11)
H54E H -0.0495 0.0846 0.1057
H55E H -0.1158 0.1065 0.0390
H56E H -0.0404 0.1360 0.0102
C28E C -0.1167(6) 0.2461(5) 0.0861(9)
H57E H -0.1217 0.2834 0.1368
H58E H -0.0875 0.2624 0.0293
H59E H -0.1627 0.2331 0.0600
C5? C 0.3680(7) 0.1705(8) 0.4554(9)
H10? H 0.3596 0.1199 0.4629
H11? H 0.3321 0.1952 0.4960
C6? C 0.4390(7) 0.1878(9) 0.4980(12)
H12? H 0.4739 0.1627 0.4562
H13? H 0.4470 0.2382 0.4871
C7? C 0.4537(14) 0.1729(15) 0.6045(15)
H14? H 0.5011 0.1880 0.6210
H15? H 0.4495 0.1227 0.6166
H16? H 0.4205 0.1978 0.6481
C8? C 0.5071(7) 0.0664(8) 0.2964(13)
H17? H 0.5305 0.0902 0.3542
H18? H 0.4897 0.0209 0.3209
C9? C 0.5596(9) 0.0555(10) 0.2062(15)
H19? H 0.5360 0.0275 0.1527
H20? H 0.5699 0.1017 0.1759
C10? C 0.6274(12) 0.0210(17) 0.2309(17)
H21? H 0.6517 0.0478 0.2849
H22? H 0.6185 -0.0264 0.2574
C11? C 0.6704(10) 0.0170(10) 0.1418(14)
H23? H 0.7176 0.0032 0.1618
H24? H 0.6719 0.0626 0.1082
H25? H 0.6512 -0.0176 0.0943
C20? C 0.3774(8) 0.1483(9) 0.0908(10)
H44? H 0.3623 0.1032 0.0615
H45? H 0.3359 0.1786 0.0962
C21? C 0.4305(8) 0.1825(8) 0.0176(10)
H46? H 0.4385 0.2310 0.0402
H47? H 0.4753 0.1573 0.0235
C22? C 0.4095(14) 0.1834(13) -0.0908(12)
H48? H 0.4243 0.1383 -0.1204
H49? H 0.3580 0.1836 -0.0917
C23? C 0.4314(17) 0.2356(14) -0.1598(19)
H50? H 0.4211 0.2210 -0.2301
H51? H 0.4817 0.2430 -0.1525
H52? H 0.4068 0.2791 -0.1448
C32? C 0.3081(6) -0.0722(7) 0.3903(10)
C33? C 0.3007(9) -0.1321(7) 0.3112(10)
H69? H 0.2505 -0.1453 0.3161
C34? C 0.3051(7) -0.0924(7) 0.2072(11)
C35? C 0.3668(7) -0.0538(10) 0.4536(12)
H70? H 0.4078 -0.0465 0.4103
H71? H 0.3761 -0.0915 0.5023
H72? H 0.3564 -0.0109 0.4912
C36? C 0.2552(8) -0.0800(9) 0.4742(13)
H73? H 0.2103 -0.0932 0.4445
H74? H 0.2504 -0.0357 0.5108
H75? H 0.2705 -0.1162 0.5221
C37? C 0.3381(8) -0.2003(7) 0.3231(14)
H76? H 0.3273 -0.2304 0.2646
H77? H 0.3229 -0.2229 0.3865
H78? H 0.3884 -0.1920 0.3260
C38? C 0.3772(7) -0.0926(10) 0.1550(15)
H79? H 0.4129 -0.0798 0.2052
H80? H 0.3774 -0.0590 0.0986
H81? H 0.3870 -0.1392 0.1282
C39? C 0.2575(9) -0.1129(11) 0.1164(14)
H82? H 0.2091 -0.1153 0.1399
H83? H 0.2718 -0.1584 0.0899
H84? H 0.2615 -0.0779 0.0621
loop_
_geom_bond_atom_site_label_1
_geom_bond_atom_site_label_2
_geom_bond_site_symmetry_1
_geom_bond_site_symmetry_2
C1 H1 1_555 1_555
H2 C1 1_555 1_555
C2 C1 1_555 1_555
H3 C2 1_555 1_555
H4 C2 1_555 1_555
C3 C2 1_555 1_555
H5 C3 1_555 1_555
H6 C3 1_555 1_555
C4 C3 1_555 1_555
H7 C4 1_555 1_555
H8 C4 1_555 1_555
H9 C4 1_555 1_555
C12 H26 1_555 1_555
H27 C12 1_555 1_555
C13 C12 1_555 1_555
H28 C13 1_555 1_555
H29 C13 1_555 1_555
C14 C13 1_555 1_555
H30 C14 1_555 1_555
H31 C14 1_555 1_555
C15 C14 1_555 1_555
H32 C15 1_555 1_555
H33 C15 1_555 1_555
H34 C15 1_555 1_555
C16 H35 1_555 1_555
H36 C16 1_555 1_555
C17 C16 1_555 1_555
H37 C17 1_555 1_555
H38 C17 1_555 1_555
C18 C17 1_555 1_555
H39 C18 1_555 1_555
H40 C18 1_555 1_555
C19 C18 1_555 1_555
H41 C19 1_555 1_555
H42 C19 1_555 1_555
H43 C19 1_555 1_555
C24 C25 1_555 1_555
C25 H53 1_555 1_555
C26 C25 1_555 1_555
C27 C24 1_555 1_555
H54 C27 1_555 1_555
H55 C27 1_555 1_555
H56 C27 1_555 1_555
C28 C24 1_555 1_555
H57 C28 1_555 1_555
H58 C28 1_555 1_555
H59 C28 1_555 1_555
C29 C25 1_555 1_555
H60 C29 1_555 1_555
H61 C29 1_555 1_555
H62 C29 1_555 1_555
C30 C26 1_555 1_555
H63 C30 1_555 1_555
H64 C30 1_555 1_555
H65 C30 1_555 1_555
C31 C26 1_555 1_555
H66 C31 1_555 1_555
H67 C31 1_555 1_555
H68 C31 1_555 1_555
O1 P1 1_555 1_555
O2 Sn1 1_555 1_555
P1 C24 1_555 1_555
Sn1 C1 1_555 1_555
O2E P1 1_555 1_555
Sn1E O2E 1_555 1_555
C1E Sn1E 1_555 1_555
H1E C1E 1_555 1_555
H2E C1E 1_555 1_555
C2E C1E 1_555 1_555
H3E C2E 1_555 1_555
H4E C2E 1_555 1_555
C3E C2E 1_555 1_555
H5E C3E 1_555 1_555
H6E C3E 1_555 1_555
C4E C3E 1_555 1_555
H7E C4E 1_555 1_555
H8E C4E 1_555 1_555
H9E C4E 1_555 1_555
C12E Sn1E 1_555 1_555
H26E C12E 1_555 1_555
H27E C12E 1_555 1_555
C13E C12E 1_555 1_555
H28E C13E 1_555 1_555
H29E C13E 1_555 1_555
C14E C13E 1_555 1_555
H30E C14E 1_555 1_555
H31E C14E 1_555 1_555
C15E C14E 1_555 1_555
H32E C15E 1_555 1_555
H33E C15E 1_555 1_555
H34E C15E 1_555 1_555
C16E Sn1E 1_555 1_555
H35E C16E 1_555 1_555
H36E C16E 1_555 1_555
C17E C16E 1_555 1_555
H37E C17E 1_555 1_555
H38E C17E 1_555 1_555
C18E C17E 1_555 1_555
H39E C18E 1_555 1_555
H40E C18E 1_555 1_555
C19E C18E 1_555 1_555
H41E C19E 1_555 1_555
H42E C19E 1_555 1_555
H43E C19E 1_555 1_555
O1E Sn1E 1_555 1_555
P1E O1E 1_555 1_555
C24E P1E 1_555 1_555
C25E C24E 1_555 1_555
H53E C25E 1_555 1_555
C26E P1E 1_555 1_555
C30E C26E 1_555 1_555
H63E C30E 1_555 1_555
H64E C30E 1_555 1_555
H65E C30E 1_555 1_555
C31E C26E 1_555 1_555
H66E C31E 1_555 1_555
H67E C31E 1_555 1_555
H68E C31E 1_555 1_555
O2G P1E 1_555 1_555
Sn1G O2G 1_555 1_555
C1G Sn1G 1_555 1_555
H1G C1G 1_555 1_555
H2G C1G 1_555 1_555
C2G C1G 1_555 1_555
H3G C2G 1_555 1_555
H4G C2G 1_555 1_555
C3G C2G 1_555 1_555
H5G C3G 1_555 1_555
H6G C3G 1_555 1_555
C4G C3G 1_555 1_555
H7G C4G 1_555 1_555
H8G C4G 1_555 1_555
H9G C4G 1_555 1_555
C12G Sn1G 1_555 1_555
H26G C12G 1_555 1_555
H27G C12G 1_555 1_555
C13G C12G 1_555 1_555
H28G C13G 1_555 1_555
H29G C13G 1_555 1_555
C14G C13G 1_555 1_555
H30G C14G 1_555 1_555
H31G C14G 1_555 1_555
C15G C14G 1_555 1_555
H32G C15G 1_555 1_555
H33G C15G 1_555 1_555
H34G C15G 1_555 1_555
C16G Sn1G 1_555 1_555
H35G C16G 1_555 1_555
H36G C16G 1_555 1_555
C17G C16G 1_555 1_555
H37G C17G 1_555 1_555
H38G C17G 1_555 1_555
C18G C17G 1_555 1_555
H39G C18G 1_555 1_555
H40G C18G 1_555 1_555
C19G C18G 1_555 1_555
H41G C19G 1_555 1_555
H42G C19G 1_555 1_555
H43G C19G 1_555 1_555
O1G Sn1G 1_555 1_555
P1G O1G 1_555 1_555
C24G P1G 1_555 1_555
C25G C24G 1_555 1_555
H53G C25G 1_555 1_555
C26G P1G 1_555 1_555
C30G C26G 1_555 1_555
H63G C30G 1_555 1_555
H64G C30G 1_555 1_555
H65G C30G 1_555 1_555
C31G C26G 1_555 1_555
H66G C31G 1_555 1_555
H67G C31G 1_555 1_555
H68G C31G 1_555 1_555
O2F P1G 1_555 1_555
Sn1F O2F 1_555 1_555
C1F Sn1F 1_555 1_555
H1F C1F 1_555 1_555
H2F C1F 1_555 1_555
C2F C1F 1_555 1_555
H3F C2F 1_555 1_555
H4F C2F 1_555 1_555
C3F C2F 1_555 1_555
H5F C3F 1_555 1_555
H6F C3F 1_555 1_555
C4F C3F 1_555 1_555
H7F C4F 1_555 1_555
H8F C4F 1_555 1_555
H9F C4F 1_555 1_555
C12F Sn1F 1_555 1_555
H26F C12F 1_555 1_555
H27F C12F 1_555 1_555
C13F C12F 1_555 1_555
H28F C13F 1_555 1_555
H29F C13F 1_555 1_555
C14F C13F 1_555 1_555
H30F C14F 1_555 1_555
H31F C14F 1_555 1_555
C15F C14F 1_555 1_555
H32F C15F 1_555 1_555
H33F C15F 1_555 1_555
H34F C15F 1_555 1_555
C16F Sn1F 1_555 1_555
H35F C16F 1_555 1_555
H36F C16F 1_555 1_555
C17F C16F 1_555 1_555
H37F C17F 1_555 1_555
H38F C17F 1_555 1_555
C18F C17F 1_555 1_555
H39F C18F 1_555 1_555
H40F C18F 1_555 1_555
C19F C18F 1_555 1_555
H41F C19F 1_555 1_555
H42F C19F 1_555 1_555
H43F C19F 1_555 1_555
O1F Sn1F 1_555 1_555
P1F O2 1_555 1_555
C24F P1F 1_555 1_555
C25F C24F 1_555 1_555
H53F C25F 1_555 1_555
C26F P1F 1_555 1_555
C30F C26F 1_555 1_555
H63F C30F 1_555 1_555
H64F C30F 1_555 1_555
H65F C30F 1_555 1_555
C31F C26F 1_555 1_555
H66F C31F 1_555 1_555
H67F C31F 1_555 1_555
H68F C31F 1_555 1_555
C29F C25F 1_555 1_555
H60F C29F 1_555 1_555
H61F C29F 1_555 1_555
H62F C29F 1_555 1_555
C27F C24F 1_555 1_555
H54F C27F 1_555 1_555
H55F C27F 1_555 1_555
H56F C27F 1_555 1_555
C28F C24F 1_555 1_555
H57F C28F 1_555 1_555
H58F C28F 1_555 1_555
H59F C28F 1_555 1_555
C29G C25G 1_555 1_555
H60G C29G 1_555 1_555
H61G C29G 1_555 1_555
H62G C29G 1_555 1_555
C27G C24G 1_555 1_555
H54G C27G 1_555 1_555
H55G C27G 1_555 1_555
H56G C27G 1_555 1_555
C28G C24G 1_555 1_555
H57G C28G 1_555 1_555
H58G C28G 1_555 1_555
H59G C28G 1_555 1_555
C29E C25E 1_555 1_555
H60E C29E 1_555 1_555
H61E C29E 1_555 1_555
H62E C29E 1_555 1_555
C27E C24E 1_555 1_555
H54E C27E 1_555 1_555
H55E C27E 1_555 1_555
H56E C27E 1_555 1_555
C28E C24E 1_555 1_555
H57E C28E 1_555 1_555
H58E C28E 1_555 1_555
H59E C28E 1_555 1_555
C12 Sn1 1_555 1_555
C16 Sn1 1_555 1_555
C26 P1 1_555 1_555
O1 Sn1 1_555 1_555
C25E C26E 1_555 1_555
C25G C26G 1_555 1_555
O1F P1F 1_555 1_555
C25F C26F 1_555 1_555

#END
