# generated using pymatgen
data_SnPH84C39O2
_symmetry_space_group_name_H-M   'P 1'
_cell_length_a   13.05320000
_cell_length_b   19.21080000
_cell_length_c   19.21080000
_cell_angle_alpha   90.00000000
_cell_angle_beta   90.00000000
_cell_angle_gamma   90.00000000
_symmetry_Int_Tables_number   1
_chemical_formula_structural   SnPH84C39O2
_chemical_formula_sum   'Sn8 P8 H672 C312 O16'
_cell_volume   4817.34659363
_cell_formula_units_Z   8
loop_
 _symmetry_equiv_pos_site_id
 _symmetry_equiv_pos_as_xyz
  1  'x, y, z'
loop_
 _atom_site_type_symbol
 _atom_site_label
 _atom_site_symmetry_multiplicity
 _atom_site_fract_x
 _atom_site_fract_y
 _atom_site_fract_z
 _atom_site_occupancy
  Sn  Sn1  1  0.239740  0.418583  0.131084  1.0
  Sn  Sn2  1  0.739740  0.868916  0.918583  1.0
  Sn  Sn3  1  0.739740  0.631084  0.581417  1.0
  Sn  Sn4  1  0.760260  0.918583  0.631084  1.0
  Sn  Sn5  1  0.760260  0.581417  0.868916  1.0
  Sn  Sn6  1  0.260260  0.131084  0.081417  1.0
  Sn  Sn7  1  0.260260  0.368916  0.418583  1.0
  Sn  Sn8  1  0.239740  0.081417  0.368916  1.0
  P  P9  1  0.274640  0.291760  0.984540  1.0
  P  P10  1  0.774640  0.015460  0.791760  1.0
  P  P11  1  0.774640  0.484540  0.708240  1.0
  P  P12  1  0.725360  0.791760  0.484540  1.0
  P  P13  1  0.725360  0.708240  0.015460  1.0
  P  P14  1  0.225360  0.984540  0.208240  1.0
  P  P15  1  0.225360  0.515460  0.291760  1.0
  P  P16  1  0.274640  0.208240  0.515460  1.0
  H  H17  1  0.462900  0.359600  0.119900  1
  H  H18  1  0.962900  0.880100  0.859600  1
  H  H19  1  0.962900  0.619900  0.640400  1
  H  H20  1  0.537100  0.859600  0.619900  1
  H  H21  1  0.537100  0.640400  0.880100  1
  H  H22  1  0.037100  0.119900  0.140400  1
  H  H23  1  0.037100  0.380100  0.359600  1
  H  H24  1  0.462900  0.140400  0.380100  1
  H  H25  1  0.496000  0.332100  0.195200  1
  H  H26  1  0.996000  0.804800  0.832100  1
  H  H27  1  0.996000  0.695200  0.667900  1
  H  H28  1  0.504000  0.832100  0.695200  1
  H  H29  1  0.504000  0.667900  0.804800  1
  H  H30  1  0.004000  0.195200  0.167900  1
  H  H31  1  0.004000  0.304800  0.332100  1
  H  H32  1  0.496000  0.167900  0.304800  1
  H  H33  1  0.456200  0.473900  0.162700  1
  H  H34  1  0.956200  0.837300  0.973900  1
  H  H35  1  0.956200  0.662700  0.526100  1
  H  H36  1  0.543800  0.973900  0.662700  1
  H  H37  1  0.543800  0.526100  0.837300  1
  H  H38  1  0.043800  0.162700  0.026100  1
  H  H39  1  0.043800  0.337300  0.473900  1
  H  H40  1  0.456200  0.026100  0.337300  1
  H  H41  1  0.487100  0.447000  0.238200  1
  H  H42  1  0.987100  0.761800  0.947000  1
  H  H43  1  0.987100  0.738200  0.553000  1
  H  H44  1  0.512900  0.947000  0.738200  1
  H  H45  1  0.512900  0.553000  0.761800  1
  H  H46  1  0.012900  0.238200  0.053000  1
  H  H47  1  0.012900  0.261800  0.447000  1
  H  H48  1  0.487100  0.053000  0.261800  1
  H  H49  1  0.621000  0.501100  0.188000  1
  H  H50  1  0.121000  0.812000  0.001100  1
  H  H51  1  0.121000  0.688000  0.498900  1
  H  H52  1  0.379000  0.001100  0.688000  1
  H  H53  1  0.379000  0.498900  0.812000  1
  H  H54  1  0.879000  0.188000  0.998900  1
  H  H55  1  0.879000  0.312000  0.501100  1
  H  H56  1  0.621000  0.998900  0.312000  1
  H  H57  1  0.616600  0.449500  0.122700  1
  H  H58  1  0.116600  0.877300  0.949500  1
  H  H59  1  0.116600  0.622700  0.550500  1
  H  H60  1  0.383400  0.949500  0.622700  1
  H  H61  1  0.383400  0.550500  0.877300  1
  H  H62  1  0.883400  0.122700  0.050500  1
  H  H63  1  0.883400  0.377300  0.449500  1
  H  H64  1  0.616600  0.050500  0.377300  1
  H  H65  1  0.648100  0.420500  0.197800  1
  H  H66  1  0.148100  0.802200  0.920500  1
  H  H67  1  0.148100  0.697800  0.579500  1
  H  H68  1  0.351900  0.920500  0.697800  1
  H  H69  1  0.351900  0.579500  0.802200  1
  H  H70  1  0.851900  0.197800  0.079500  1
  H  H71  1  0.851900  0.302200  0.420500  1
  H  H72  1  0.648100  0.079500  0.302200  1
  H  H73  1  0.354200  0.530500  0.090200  1
  H  H74  1  0.854200  0.909800  0.030500  1
  H  H75  1  0.854200  0.590200  0.469500  1
  H  H76  1  0.645800  0.030500  0.590200  1
  H  H77  1  0.645800  0.469500  0.909800  1
  H  H78  1  0.145800  0.090200  0.969500  1
  H  H79  1  0.145800  0.409800  0.530500  1
  H  H80  1  0.354200  0.969500  0.409800  1
  H  H81  1  0.320900  0.489700  0.020900  1
  H  H82  1  0.820900  0.979100  0.989700  1
  H  H83  1  0.820900  0.520900  0.510300  1
  H  H84  1  0.679100  0.989700  0.520900  1
  H  H85  1  0.679100  0.510300  0.979100  1
  H  H86  1  0.179100  0.020900  0.010300  1
  H  H87  1  0.179100  0.479100  0.489700  1
  H  H88  1  0.320900  0.010300  0.479100  1
  H  H89  1  0.152700  0.536000  0.027500  1
  H  H90  1  0.652700  0.972500  0.036000  1
  H  H91  1  0.652700  0.527500  0.464000  1
  H  H92  1  0.847300  0.036000  0.527500  1
  H  H93  1  0.847300  0.464000  0.972500  1
  H  H94  1  0.347300  0.027500  0.964000  1
  H  H95  1  0.347300  0.472500  0.536000  1
  H  H96  1  0.152700  0.964000  0.472500  1
  H  H97  1  0.175900  0.569900  0.101700  1
  H  H98  1  0.675900  0.898300  0.069900  1
  H  H99  1  0.675900  0.601700  0.430100  1
  H  H100  1  0.824100  0.069900  0.601700  1
  H  H101  1  0.824100  0.430100  0.898300  1
  H  H102  1  0.324100  0.101700  0.930100  1
  H  H103  1  0.324100  0.398300  0.569900  1
  H  H104  1  0.175900  0.930100  0.398300  1
  H  H105  1  0.284900  0.651700  0.047800  1
  H  H106  1  0.784900  0.952200  0.151700  1
  H  H107  1  0.784900  0.547800  0.348300  1
  H  H108  1  0.715100  0.151700  0.547800  1
  H  H109  1  0.715100  0.348300  0.952200  1
  H  H110  1  0.215100  0.047800  0.848300  1
  H  H111  1  0.215100  0.452200  0.651700  1
  H  H112  1  0.284900  0.848300  0.452200  1
  H  H113  1  0.257400  0.618500  0.973600  1
  H  H114  1  0.757400  0.026400  0.118500  1
  H  H115  1  0.757400  0.473600  0.381500  1
  H  H116  1  0.742600  0.118500  0.473600  1
  H  H117  1  0.742600  0.381500  0.026400  1
  H  H118  1  0.242600  0.973600  0.881500  1
  H  H119  1  0.242600  0.526400  0.618500  1
  H  H120  1  0.257400  0.881500  0.526400  1
  H  H121  1  0.161800  0.717600  0.003200  1
  H  H122  1  0.661800  0.996800  0.217600  1
  H  H123  1  0.661800  0.503200  0.282400  1
  H  H124  1  0.838200  0.217600  0.503200  1
  H  H125  1  0.838200  0.282400  0.996800  1
  H  H126  1  0.338200  0.003200  0.782400  1
  H  H127  1  0.338200  0.496800  0.717600  1
  H  H128  1  0.161800  0.782400  0.496800  1
  H  H129  1  0.108200  0.671900  0.062600  1
  H  H130  1  0.608200  0.937400  0.171900  1
  H  H131  1  0.608200  0.562600  0.328100  1
  H  H132  1  0.891800  0.171900  0.562600  1
  H  H133  1  0.891800  0.328100  0.937400  1
  H  H134  1  0.391800  0.062600  0.828100  1
  H  H135  1  0.391800  0.437400  0.671900  1
  H  H136  1  0.108200  0.828100  0.437400  1
  H  H137  1  0.094300  0.651200  0.982400  1
  H  H138  1  0.594300  0.017600  0.151200  1
  H  H139  1  0.594300  0.482400  0.348800  1
  H  H140  1  0.905700  0.151200  0.482400  1
  H  H141  1  0.905700  0.348800  0.017600  1
  H  H142  1  0.405700  0.982400  0.848800  1
  H  H143  1  0.405700  0.517600  0.651200  1
  H  H144  1  0.094300  0.848800  0.517600  1
  H  H145  1  0.061500  0.362300  0.103200  1
  H  H146  1  0.561500  0.896800  0.862300  1
  H  H147  1  0.561500  0.603200  0.637700  1
  H  H148  1  0.938500  0.862300  0.603200  1
  H  H149  1  0.938500  0.637700  0.896800  1
  H  H150  1  0.438500  0.103200  0.137700  1
  H  H151  1  0.438500  0.396800  0.362300  1
  H  H152  1  0.061500  0.137700  0.396800  1
  H  H153  1  0.096200  0.335900  0.178600  1
  H  H154  1  0.596200  0.821400  0.835900  1
  H  H155  1  0.596200  0.678600  0.664100  1
  H  H156  1  0.903800  0.835900  0.678600  1
  H  H157  1  0.903800  0.664100  0.821400  1
  H  H158  1  0.403800  0.178600  0.164100  1
  H  H159  1  0.403800  0.321400  0.335900  1
  H  H160  1  0.096200  0.164100  0.321400  1
  H  H161  1  0.040200  0.438500  0.231000  1
  H  H162  1  0.540200  0.769000  0.938500  1
  H  H163  1  0.540200  0.731000  0.561500  1
  H  H164  1  0.959800  0.938500  0.731000  1
  H  H165  1  0.959800  0.561500  0.769000  1
  H  H166  1  0.459800  0.231000  0.061500  1
  H  H167  1  0.459800  0.269000  0.438500  1
  H  H168  1  0.040200  0.061500  0.269000  1
  H  H169  1  0.023500  0.475300  0.157300  1
  H  H170  1  0.523500  0.842700  0.975300  1
  H  H171  1  0.523500  0.657300  0.524700  1
  H  H172  1  0.976500  0.975300  0.657300  1
  H  H173  1  0.976500  0.524700  0.842700  1
  H  H174  1  0.476500  0.157300  0.024700  1
  H  H175  1  0.476500  0.342700  0.475300  1
  H  H176  1  0.023500  0.024700  0.342700  1
  H  H177  1  0.879600  0.424300  0.138300  1
  H  H178  1  0.379600  0.861700  0.924300  1
  H  H179  1  0.379600  0.638300  0.575700  1
  H  H180  1  0.120400  0.924300  0.638300  1
  H  H181  1  0.120400  0.575700  0.861700  1
  H  H182  1  0.620400  0.138300  0.075700  1
  H  H183  1  0.620400  0.361700  0.424300  1
  H  H184  1  0.879600  0.075700  0.361700  1
  H  H185  1  0.908300  0.358000  0.183600  1
  H  H186  1  0.408300  0.816400  0.858000  1
  H  H187  1  0.408300  0.683600  0.642000  1
  H  H188  1  0.091700  0.858000  0.683600  1
  H  H189  1  0.091700  0.642000  0.816400  1
  H  H190  1  0.591700  0.183600  0.142000  1
  H  H191  1  0.591700  0.316400  0.358000  1
  H  H192  1  0.908300  0.142000  0.316400  1
  H  H193  1  0.769900  0.421100  0.221000  1
  H  H194  1  0.269900  0.779000  0.921100  1
  H  H195  1  0.269900  0.721000  0.578900  1
  H  H196  1  0.230100  0.921100  0.721000  1
  H  H197  1  0.230100  0.578900  0.779000  1
  H  H198  1  0.730100  0.221000  0.078900  1
  H  H199  1  0.730100  0.279000  0.421100  1
  H  H200  1  0.769900  0.078900  0.279000  1
  H  H201  1  0.847500  0.481700  0.243000  1
  H  H202  1  0.347500  0.757000  0.981700  1
  H  H203  1  0.347500  0.743000  0.518300  1
  H  H204  1  0.152500  0.981700  0.743000  1
  H  H205  1  0.152500  0.518300  0.757000  1
  H  H206  1  0.652500  0.243000  0.018300  1
  H  H207  1  0.652500  0.257000  0.481700  1
  H  H208  1  0.847500  0.018300  0.257000  1
  H  H209  1  0.855200  0.406800  0.279100  1
  H  H210  1  0.355200  0.720900  0.906800  1
  H  H211  1  0.355200  0.779100  0.593200  1
  H  H212  1  0.144800  0.906800  0.779100  1
  H  H213  1  0.144800  0.593200  0.720900  1
  H  H214  1  0.644800  0.279100  0.093200  1
  H  H215  1  0.644800  0.220900  0.406800  1
  H  H216  1  0.855200  0.093200  0.220900  1
  H  H217  1  0.316100  0.250500  0.854700  1
  H  H218  1  0.816100  0.145300  0.750500  1
  H  H219  1  0.816100  0.354700  0.749500  1
  H  H220  1  0.683900  0.750500  0.354700  1
  H  H221  1  0.683900  0.749500  0.145300  1
  H  H222  1  0.183900  0.854700  0.249500  1
  H  H223  1  0.183900  0.645300  0.250500  1
  H  H224  1  0.316100  0.249500  0.645300  1
  H  H225  1  0.410300  0.407800  0.953500  1
  H  H226  1  0.910300  0.046500  0.907800  1
  H  H227  1  0.910300  0.453500  0.592200  1
  H  H228  1  0.589700  0.907800  0.453500  1
  H  H229  1  0.589700  0.592200  0.046500  1
  H  H230  1  0.089700  0.953500  0.092200  1
  H  H231  1  0.089700  0.546500  0.407800  1
  H  H232  1  0.410300  0.092200  0.546500  1
  H  H233  1  0.502300  0.376100  0.908500  1
  H  H234  1  0.002300  0.091500  0.876100  1
  H  H235  1  0.002300  0.408500  0.623900  1
  H  H236  1  0.497700  0.876100  0.408500  1
  H  H237  1  0.497700  0.623900  0.091500  1
  H  H238  1  0.997700  0.908500  0.123900  1
  H  H239  1  0.997700  0.591500  0.376100  1
  H  H240  1  0.502300  0.123900  0.591500  1
  H  H241  1  0.491200  0.356400  0.989100  1
  H  H242  1  0.991200  0.010900  0.856400  1
  H  H243  1  0.991200  0.489100  0.643600  1
  H  H244  1  0.508800  0.856400  0.489100  1
  H  H245  1  0.508800  0.643600  0.010900  1
  H  H246  1  0.008800  0.989100  0.143600  1
  H  H247  1  0.008800  0.510900  0.356400  1
  H  H248  1  0.491200  0.143600  0.510900  1
  H  H249  1  0.444500  0.210300  0.906800  1
  H  H250  1  0.944500  0.093200  0.710300  1
  H  H251  1  0.944500  0.406800  0.789700  1
  H  H252  1  0.555500  0.710300  0.406800  1
  H  H253  1  0.555500  0.789700  0.093200  1
  H  H254  1  0.055500  0.906800  0.289700  1
  H  H255  1  0.055500  0.593200  0.210300  1
  H  H256  1  0.444500  0.289700  0.593200  1
  H  H257  1  0.510800  0.250400  0.964300  1
  H  H258  1  0.010800  0.035700  0.750400  1
  H  H259  1  0.010800  0.464300  0.749600  1
  H  H260  1  0.489200  0.750400  0.464300  1
  H  H261  1  0.489200  0.749600  0.035700  1
  H  H262  1  0.989200  0.964300  0.249600  1
  H  H263  1  0.989200  0.535700  0.250400  1
  H  H264  1  0.510800  0.249600  0.535700  1
  H  H265  1  0.522100  0.270500  0.883800  1
  H  H266  1  0.022100  0.116200  0.770500  1
  H  H267  1  0.022100  0.383800  0.729500  1
  H  H268  1  0.477900  0.770500  0.383800  1
  H  H269  1  0.477900  0.729500  0.116200  1
  H  H270  1  0.977900  0.883800  0.229500  1
  H  H271  1  0.977900  0.616200  0.270500  1
  H  H272  1  0.522100  0.229500  0.616200  1
  H  H273  1  0.264600  0.327300  0.769600  1
  H  H274  1  0.764600  0.230400  0.827300  1
  H  H275  1  0.764600  0.269600  0.672700  1
  H  H276  1  0.735400  0.827300  0.269600  1
  H  H277  1  0.735400  0.672700  0.230400  1
  H  H278  1  0.235400  0.769600  0.172700  1
  H  H279  1  0.235400  0.730400  0.327300  1
  H  H280  1  0.264600  0.172700  0.730400  1
  H  H281  1  0.386500  0.322900  0.777100  1
  H  H282  1  0.886500  0.222900  0.822900  1
  H  H283  1  0.886500  0.277100  0.677100  1
  H  H284  1  0.613500  0.822900  0.277100  1
  H  H285  1  0.613500  0.677100  0.222900  1
  H  H286  1  0.113500  0.777100  0.177100  1
  H  H287  1  0.113500  0.722900  0.322900  1
  H  H288  1  0.386500  0.177100  0.722900  1
  H  H289  1  0.326000  0.388400  0.808000  1
  H  H290  1  0.826000  0.192000  0.888400  1
  H  H291  1  0.826000  0.308000  0.611600  1
  H  H292  1  0.674000  0.888400  0.308000  1
  H  H293  1  0.674000  0.611600  0.192000  1
  H  H294  1  0.174000  0.808000  0.111600  1
  H  H295  1  0.174000  0.692000  0.388400  1
  H  H296  1  0.326000  0.111600  0.692000  1
  H  H297  1  0.205200  0.412900  0.920200  1
  H  H298  1  0.705200  0.079800  0.912900  1
  H  H299  1  0.705200  0.420200  0.587100  1
  H  H300  1  0.794800  0.912900  0.420200  1
  H  H301  1  0.794800  0.587100  0.079800  1
  H  H302  1  0.294800  0.920200  0.087100  1
  H  H303  1  0.294800  0.579800  0.412900  1
  H  H304  1  0.205200  0.087100  0.579800  1
  H  H305  1  0.098600  0.377400  0.941000  1
  H  H306  1  0.598600  0.059000  0.877400  1
  H  H307  1  0.598600  0.441000  0.622600  1
  H  H308  1  0.901400  0.877400  0.441000  1
  H  H309  1  0.901400  0.622600  0.059000  1
  H  H310  1  0.401400  0.941000  0.122600  1
  H  H311  1  0.401400  0.559000  0.377400  1
  H  H312  1  0.098600  0.122600  0.559000  1
  H  H313  1  0.128200  0.387000  0.860800  1
  H  H314  1  0.628200  0.139200  0.887000  1
  H  H315  1  0.628200  0.360800  0.613000  1
  H  H316  1  0.871800  0.887000  0.360800  1
  H  H317  1  0.871800  0.613000  0.139200  1
  H  H318  1  0.371800  0.860800  0.113000  1
  H  H319  1  0.371800  0.639200  0.387000  1
  H  H320  1  0.128200  0.113000  0.639200  1
  H  H321  1  0.139900  0.209100  0.884700  1
  H  H322  1  0.639900  0.115300  0.709100  1
  H  H323  1  0.639900  0.384700  0.790900  1
  H  H324  1  0.860100  0.709100  0.384700  1
  H  H325  1  0.860100  0.790900  0.115300  1
  H  H326  1  0.360100  0.884700  0.290900  1
  H  H327  1  0.360100  0.615300  0.209100  1
  H  H328  1  0.139900  0.290900  0.615300  1
  H  H329  1  0.089900  0.271800  0.841600  1
  H  H330  1  0.589900  0.158400  0.771800  1
  H  H331  1  0.589900  0.341600  0.728200  1
  H  H332  1  0.910100  0.771800  0.341600  1
  H  H333  1  0.910100  0.728200  0.158400  1
  H  H334  1  0.410100  0.841600  0.228200  1
  H  H335  1  0.410100  0.658400  0.271800  1
  H  H336  1  0.089900  0.228200  0.658400  1
  H  H337  1  0.062100  0.261500  0.922100  1
  H  H338  1  0.562100  0.077900  0.761500  1
  H  H339  1  0.562100  0.422100  0.738500  1
  H  H340  1  0.937900  0.761500  0.422100  1
  H  H341  1  0.937900  0.738500  0.077900  1
  H  H342  1  0.437900  0.922100  0.238500  1
  H  H343  1  0.437900  0.577900  0.261500  1
  H  H344  1  0.062100  0.238500  0.577900  1
  H  H345  1  0.315800  0.348300  0.235300  1.0
  H  H346  1  0.815800  0.764700  0.848300  1.0
  H  H347  1  0.815800  0.735300  0.651700  1.0
  H  H348  1  0.684200  0.848300  0.735300  1.0
  H  H349  1  0.684200  0.651700  0.764700  1.0
  H  H350  1  0.184200  0.235300  0.151700  1.0
  H  H351  1  0.184200  0.264700  0.348300  1.0
  H  H352  1  0.315800  0.151700  0.264700  1.0
  H  H353  1  0.361500  0.316200  0.165000  1.0
  H  H354  1  0.861500  0.835000  0.816200  1.0
  H  H355  1  0.861500  0.665000  0.683800  1.0
  H  H356  1  0.638500  0.816200  0.665000  1.0
  H  H357  1  0.638500  0.683800  0.835000  1.0
  H  H358  1  0.138500  0.165000  0.183800  1.0
  H  H359  1  0.138500  0.335000  0.316200  1.0
  H  H360  1  0.361500  0.183800  0.335000  1.0
  H  H361  1  0.434600  0.444900  0.226500  1.0
  H  H362  1  0.934600  0.773500  0.944900  1.0
  H  H363  1  0.934600  0.726500  0.555100  1.0
  H  H364  1  0.565400  0.944900  0.726500  1.0
  H  H365  1  0.565400  0.555100  0.773500  1.0
  H  H366  1  0.065400  0.226500  0.055100  1.0
  H  H367  1  0.065400  0.273500  0.444900  1.0
  H  H368  1  0.434600  0.055100  0.273500  1.0
  H  H369  1  0.494600  0.372500  0.232600  1.0
  H  H370  1  0.994600  0.767400  0.872500  1.0
  H  H371  1  0.994600  0.732600  0.627500  1.0
  H  H372  1  0.505400  0.872500  0.732600  1.0
  H  H373  1  0.505400  0.627500  0.767400  1.0
  H  H374  1  0.005400  0.232600  0.127500  1.0
  H  H375  1  0.005400  0.267400  0.372500  1.0
  H  H376  1  0.494600  0.127500  0.267400  1.0
  H  H377  1  0.507900  0.372500  0.108000  1.0
  H  H378  1  0.007900  0.892000  0.872500  1.0
  H  H379  1  0.007900  0.608000  0.627500  1.0
  H  H380  1  0.492100  0.872500  0.608000  1.0
  H  H381  1  0.492100  0.627500  0.892000  1.0
  H  H382  1  0.992100  0.108000  0.127500  1.0
  H  H383  1  0.992100  0.392000  0.372500  1.0
  H  H384  1  0.507900  0.127500  0.392000  1.0
  H  H385  1  0.462400  0.449400  0.108500  1.0
  H  H386  1  0.962400  0.891500  0.949400  1.0
  H  H387  1  0.962400  0.608500  0.550600  1.0
  H  H388  1  0.537600  0.949400  0.608500  1.0
  H  H389  1  0.537600  0.550600  0.891500  1.0
  H  H390  1  0.037600  0.108500  0.050600  1.0
  H  H391  1  0.037600  0.391500  0.449400  1.0
  H  H392  1  0.462400  0.050600  0.391500  1.0
  H  H393  1  0.632500  0.451200  0.092100  1.0
  H  H394  1  0.132500  0.907900  0.951200  1.0
  H  H395  1  0.132500  0.592100  0.548800  1.0
  H  H396  1  0.367500  0.951200  0.592100  1.0
  H  H397  1  0.367500  0.548800  0.907900  1.0
  H  H398  1  0.867500  0.092100  0.048800  1.0
  H  H399  1  0.867500  0.407900  0.451200  1.0
  H  H400  1  0.632500  0.048800  0.407900  1.0
  H  H401  1  0.650300  0.410800  0.163900  1.0
  H  H402  1  0.150300  0.836100  0.910800  1.0
  H  H403  1  0.150300  0.663900  0.589200  1.0
  H  H404  1  0.349700  0.910800  0.663900  1.0
  H  H405  1  0.349700  0.589200  0.836100  1.0
  H  H406  1  0.849700  0.163900  0.089200  1.0
  H  H407  1  0.849700  0.336100  0.410800  1.0
  H  H408  1  0.650300  0.089200  0.336100  1.0
  H  H409  1  0.604700  0.488100  0.164300  1.0
  H  H410  1  0.104700  0.835700  0.988100  1.0
  H  H411  1  0.104700  0.664300  0.511900  1.0
  H  H412  1  0.395300  0.988100  0.664300  1.0
  H  H413  1  0.395300  0.511900  0.835700  1.0
  H  H414  1  0.895300  0.164300  0.011900  1.0
  H  H415  1  0.895300  0.335700  0.488100  1.0
  H  H416  1  0.604700  0.011900  0.335700  1.0
  H  H417  1  0.312300  0.532800  0.082800  1.0
  H  H418  1  0.812300  0.917200  0.032800  1.0
  H  H419  1  0.812300  0.582800  0.467200  1.0
  H  H420  1  0.687700  0.032800  0.582800  1.0
  H  H421  1  0.687700  0.467200  0.917200  1.0
  H  H422  1  0.187700  0.082800  0.967200  1.0
  H  H423  1  0.187700  0.417200  0.532800  1.0
  H  H424  1  0.312300  0.967200  0.417200  1.0
  H  H425  1  0.288600  0.482300  0.018600  1.0
  H  H426  1  0.788600  0.981400  0.982300  1.0
  H  H427  1  0.788600  0.518600  0.517700  1.0
  H  H428  1  0.711400  0.982300  0.518600  1.0
  H  H429  1  0.711400  0.517700  0.981400  1.0
  H  H430  1  0.211400  0.018600  0.017700  1.0
  H  H431  1  0.211400  0.481400  0.482300  1.0
  H  H432  1  0.288600  0.017700  0.481400  1.0
  H  H433  1  0.108500  0.509000  0.029600  1.0
  H  H434  1  0.608500  0.970400  0.009000  1.0
  H  H435  1  0.608500  0.529600  0.491000  1.0
  H  H436  1  0.891500  0.009000  0.529600  1.0
  H  H437  1  0.891500  0.491000  0.970400  1.0
  H  H438  1  0.391500  0.029600  0.991000  1.0
  H  H439  1  0.391500  0.470400  0.509000  1.0
  H  H440  1  0.108500  0.991000  0.470400  1.0
  H  H441  1  0.134500  0.561400  0.091800  1.0
  H  H442  1  0.634500  0.908200  0.061400  1.0
  H  H443  1  0.634500  0.591800  0.438600  1.0
  H  H444  1  0.865500  0.061400  0.591800  1.0
  H  H445  1  0.865500  0.438600  0.908200  1.0
  H  H446  1  0.365500  0.091800  0.938600  1.0
  H  H447  1  0.365500  0.408200  0.561400  1.0
  H  H448  1  0.134500  0.938600  0.408200  1.0
  H  H449  1  0.199100  0.578300  0.952900  1.0
  H  H450  1  0.699100  0.047100  0.078300  1.0
  H  H451  1  0.699100  0.452900  0.421700  1.0
  H  H452  1  0.800900  0.078300  0.452900  1.0
  H  H453  1  0.800900  0.421700  0.047100  1.0
  H  H454  1  0.300900  0.952900  0.921700  1.0
  H  H455  1  0.300900  0.547100  0.578300  1.0
  H  H456  1  0.199100  0.921700  0.547100  1.0
  H  H457  1  0.107100  0.620200  0.988500  1.0
  H  H458  1  0.607100  0.011500  0.120200  1.0
  H  H459  1  0.607100  0.488500  0.379800  1.0
  H  H460  1  0.892900  0.120200  0.488500  1.0
  H  H461  1  0.892900  0.379800  0.011500  1.0
  H  H462  1  0.392900  0.988500  0.879800  1.0
  H  H463  1  0.392900  0.511500  0.620200  1.0
  H  H464  1  0.107100  0.879800  0.511500  1.0
  H  H465  1  0.248600  0.688400  0.985500  1.0
  H  H466  1  0.748600  0.014500  0.188400  1.0
  H  H467  1  0.748600  0.485500  0.311600  1.0
  H  H468  1  0.751400  0.188400  0.485500  1.0
  H  H469  1  0.751400  0.311600  0.014500  1.0
  H  H470  1  0.251400  0.985500  0.811600  1.0
  H  H471  1  0.251400  0.514500  0.688400  1.0
  H  H472  1  0.248600  0.811600  0.514500  1.0
  H  H473  1  0.314000  0.630400  0.025600  1.0
  H  H474  1  0.814000  0.974400  0.130400  1.0
  H  H475  1  0.814000  0.525600  0.369600  1.0
  H  H476  1  0.686000  0.130400  0.525600  1.0
  H  H477  1  0.686000  0.369600  0.974400  1.0
  H  H478  1  0.186000  0.025600  0.869600  1.0
  H  H479  1  0.186000  0.474400  0.630400  1.0
  H  H480  1  0.314000  0.869600  0.474400  1.0
  H  H481  1  0.223000  0.670100  0.064900  1.0
  H  H482  1  0.723000  0.935100  0.170100  1.0
  H  H483  1  0.723000  0.564900  0.329900  1.0
  H  H484  1  0.777000  0.170100  0.564900  1.0
  H  H485  1  0.777000  0.329900  0.935100  1.0
  H  H486  1  0.277000  0.064900  0.829900  1.0
  H  H487  1  0.277000  0.435100  0.670100  1.0
  H  H488  1  0.223000  0.829900  0.435100  1.0
  H  H489  1  0.042700  0.444900  0.109000  1.0
  H  H490  1  0.542700  0.891000  0.944900  1.0
  H  H491  1  0.542700  0.609000  0.555100  1.0
  H  H492  1  0.957300  0.944900  0.609000  1.0
  H  H493  1  0.957300  0.555100  0.891000  1.0
  H  H494  1  0.457300  0.109000  0.055100  1.0
  H  H495  1  0.457300  0.391000  0.444900  1.0
  H  H496  1  0.042700  0.055100  0.391000  1.0
  H  H497  1  0.062500  0.365500  0.088900  1.0
  H  H498  1  0.562500  0.911100  0.865500  1.0
  H  H499  1  0.562500  0.588900  0.634500  1.0
  H  H500  1  0.937500  0.865500  0.588900  1.0
  H  H501  1  0.937500  0.634500  0.911100  1.0
  H  H502  1  0.437500  0.088900  0.134500  1.0
  H  H503  1  0.437500  0.411100  0.365500  1.0
  H  H504  1  0.062500  0.134500  0.411100  1.0
  H  H505  1  0.050600  0.333100  0.205800  1.0
  H  H506  1  0.550600  0.794200  0.833100  1.0
  H  H507  1  0.550600  0.705800  0.666900  1.0
  H  H508  1  0.949400  0.833100  0.705800  1.0
  H  H509  1  0.949400  0.666900  0.794200  1.0
  H  H510  1  0.449400  0.205800  0.166900  1.0
  H  H511  1  0.449400  0.294200  0.333100  1.0
  H  H512  1  0.050600  0.166900  0.294200  1.0
  H  H513  1  0.036900  0.412300  0.228100  1.0
  H  H514  1  0.536900  0.771900  0.912300  1.0
  H  H515  1  0.536900  0.728100  0.587700  1.0
  H  H516  1  0.963100  0.912300  0.728100  1.0
  H  H517  1  0.963100  0.587700  0.771900  1.0
  H  H518  1  0.463100  0.228100  0.087700  1.0
  H  H519  1  0.463100  0.271900  0.412300  1.0
  H  H520  1  0.036900  0.087700  0.271900  1.0
  H  H521  1  0.875500  0.415100  0.177700  1.0
  H  H522  1  0.375500  0.822300  0.915100  1.0
  H  H523  1  0.375500  0.677700  0.584900  1.0
  H  H524  1  0.124500  0.915100  0.677700  1.0
  H  H525  1  0.124500  0.584900  0.822300  1.0
  H  H526  1  0.624500  0.177700  0.084900  1.0
  H  H527  1  0.624500  0.322300  0.415100  1.0
  H  H528  1  0.875500  0.084900  0.322300  1.0
  H  H529  1  0.889200  0.337300  0.150900  1.0
  H  H530  1  0.389200  0.849100  0.837300  1.0
  H  H531  1  0.389200  0.650900  0.662700  1.0
  H  H532  1  0.110800  0.837300  0.650900  1.0
  H  H533  1  0.110800  0.662700  0.849100  1.0
  H  H534  1  0.610800  0.150900  0.162700  1.0
  H  H535  1  0.610800  0.349100  0.337300  1.0
  H  H536  1  0.889200  0.162700  0.349100  1.0
  H  H537  1  0.781700  0.342600  0.238400  1.0
  H  H538  1  0.281700  0.761600  0.842600  1.0
  H  H539  1  0.281700  0.738400  0.657400  1.0
  H  H540  1  0.218300  0.842600  0.738400  1.0
  H  H541  1  0.218300  0.657400  0.761600  1.0
  H  H542  1  0.718300  0.238400  0.157400  1.0
  H  H543  1  0.718300  0.261600  0.342600  1.0
  H  H544  1  0.781700  0.157400  0.261600  1.0
  H  H545  1  0.867600  0.377000  0.286900  1.0
  H  H546  1  0.367600  0.713100  0.877000  1.0
  H  H547  1  0.367600  0.786900  0.623000  1.0
  H  H548  1  0.132400  0.877000  0.786900  1.0
  H  H549  1  0.132400  0.623000  0.713100  1.0
  H  H550  1  0.632400  0.286900  0.123000  1.0
  H  H551  1  0.632400  0.213100  0.377000  1.0
  H  H552  1  0.867600  0.123000  0.213100  1.0
  H  H553  1  0.881100  0.298700  0.259800  1.0
  H  H554  1  0.381100  0.740200  0.798700  1.0
  H  H555  1  0.381100  0.759800  0.701300  1.0
  H  H556  1  0.118900  0.798700  0.759800  1.0
  H  H557  1  0.118900  0.701300  0.740200  1.0
  H  H558  1  0.618900  0.259800  0.201300  1.0
  H  H559  1  0.618900  0.240200  0.298700  1.0
  H  H560  1  0.881100  0.201300  0.240200  1.0
  H  H561  1  0.274900  0.398800  0.891100  1.0
  H  H562  1  0.774900  0.108900  0.898800  1.0
  H  H563  1  0.774900  0.391100  0.601200  1.0
  H  H564  1  0.725100  0.898800  0.391100  1.0
  H  H565  1  0.725100  0.601200  0.108900  1.0
  H  H566  1  0.225100  0.891100  0.101200  1.0
  H  H567  1  0.225100  0.608900  0.398800  1.0
  H  H568  1  0.274900  0.101200  0.608900  1.0
  H  H569  1  0.394300  0.415400  0.950500  1.0
  H  H570  1  0.894300  0.049500  0.915400  1.0
  H  H571  1  0.894300  0.450500  0.584600  1.0
  H  H572  1  0.605700  0.915400  0.450500  1.0
  H  H573  1  0.605700  0.584600  0.049500  1.0
  H  H574  1  0.105700  0.950500  0.084600  1.0
  H  H575  1  0.105700  0.549500  0.415400  1.0
  H  H576  1  0.394300  0.084600  0.549500  1.0
  H  H577  1  0.461000  0.393500  0.884200  1.0
  H  H578  1  0.961000  0.115800  0.893500  1.0
  H  H579  1  0.961000  0.384200  0.606500  1.0
  H  H580  1  0.539000  0.893500  0.384200  1.0
  H  H581  1  0.539000  0.606500  0.115800  1.0
  H  H582  1  0.039000  0.884200  0.106500  1.0
  H  H583  1  0.039000  0.615800  0.393500  1.0
  H  H584  1  0.461000  0.106500  0.615800  1.0
  H  H585  1  0.489800  0.364000  0.959600  1.0
  H  H586  1  0.989800  0.040400  0.864000  1.0
  H  H587  1  0.989800  0.459600  0.636000  1.0
  H  H588  1  0.510200  0.864000  0.459600  1.0
  H  H589  1  0.510200  0.636000  0.040400  1.0
  H  H590  1  0.010200  0.959600  0.136000  1.0
  H  H591  1  0.010200  0.540400  0.364000  1.0
  H  H592  1  0.489800  0.136000  0.540400  1.0
  H  H593  1  0.363200  0.216600  0.878300  1.0
  H  H594  1  0.863200  0.121700  0.716600  1.0
  H  H595  1  0.863200  0.378300  0.783400  1.0
  H  H596  1  0.636800  0.716600  0.378300  1.0
  H  H597  1  0.636800  0.783400  0.121700  1.0
  H  H598  1  0.136800  0.878300  0.283400  1.0
  H  H599  1  0.136800  0.621700  0.216600  1.0
  H  H600  1  0.363200  0.283400  0.621700  1.0
  H  H601  1  0.470700  0.237600  0.912500  1.0
  H  H602  1  0.970700  0.087500  0.737600  1.0
  H  H603  1  0.970700  0.412500  0.762400  1.0
  H  H604  1  0.529300  0.737600  0.412500  1.0
  H  H605  1  0.529300  0.762400  0.087500  1.0
  H  H606  1  0.029300  0.912500  0.262400  1.0
  H  H607  1  0.029300  0.587500  0.237600  1.0
  H  H608  1  0.470700  0.262400  0.587500  1.0
  H  H609  1  0.440000  0.266900  0.837300  1.0
  H  H610  1  0.940000  0.162700  0.766900  1.0
  H  H611  1  0.940000  0.337300  0.733100  1.0
  H  H612  1  0.560000  0.766900  0.337300  1.0
  H  H613  1  0.560000  0.733100  0.162700  1.0
  H  H614  1  0.060000  0.837300  0.233100  1.0
  H  H615  1  0.060000  0.662700  0.266900  1.0
  H  H616  1  0.440000  0.233100  0.662700  1.0
  H  H617  1  0.212400  0.374800  0.782500  1.0
  H  H618  1  0.712400  0.217500  0.874800  1.0
  H  H619  1  0.712400  0.282500  0.625200  1.0
  H  H620  1  0.787600  0.874800  0.282500  1.0
  H  H621  1  0.787600  0.625200  0.217500  1.0
  H  H622  1  0.287600  0.782500  0.125200  1.0
  H  H623  1  0.287600  0.717500  0.374800  1.0
  H  H624  1  0.212400  0.125200  0.717500  1.0
  H  H625  1  0.277200  0.304100  0.779800  1.0
  H  H626  1  0.777200  0.220200  0.804100  1.0
  H  H627  1  0.777200  0.279800  0.695900  1.0
  H  H628  1  0.722800  0.804100  0.279800  1.0
  H  H629  1  0.722800  0.695900  0.220200  1.0
  H  H630  1  0.222800  0.779800  0.195900  1.0
  H  H631  1  0.222800  0.720200  0.304100  1.0
  H  H632  1  0.277200  0.195900  0.720200  1.0
  H  H633  1  0.334900  0.377600  0.782100  1.0
  H  H634  1  0.834900  0.217900  0.877600  1.0
  H  H635  1  0.834900  0.282100  0.622400  1.0
  H  H636  1  0.665100  0.877600  0.282100  1.0
  H  H637  1  0.665100  0.622400  0.217900  1.0
  H  H638  1  0.165100  0.782100  0.122400  1.0
  H  H639  1  0.165100  0.717900  0.377600  1.0
  H  H640  1  0.334900  0.122400  0.717900  1.0
  H  H641  1  0.125700  0.407300  0.952100  1.0
  H  H642  1  0.625700  0.047900  0.907300  1.0
  H  H643  1  0.625700  0.452100  0.592700  1.0
  H  H644  1  0.874300  0.907300  0.452100  1.0
  H  H645  1  0.874300  0.592700  0.047900  1.0
  H  H646  1  0.374300  0.952100  0.092700  1.0
  H  H647  1  0.374300  0.547900  0.407300  1.0
  H  H648  1  0.125700  0.092700  0.547900  1.0
  H  H649  1  0.046100  0.344500  0.960600  1.0
  H  H650  1  0.546100  0.039400  0.844500  1.0
  H  H651  1  0.546100  0.460600  0.655500  1.0
  H  H652  1  0.953900  0.844500  0.460600  1.0
  H  H653  1  0.953900  0.655500  0.039400  1.0
  H  H654  1  0.453900  0.960600  0.155500  1.0
  H  H655  1  0.453900  0.539400  0.344500  1.0
  H  H656  1  0.046100  0.155500  0.539400  1.0
  H  H657  1  0.061500  0.380700  0.886300  1.0
  H  H658  1  0.561500  0.113700  0.880700  1.0
  H  H659  1  0.561500  0.386300  0.619300  1.0
  H  H660  1  0.938500  0.880700  0.386300  1.0
  H  H661  1  0.938500  0.619300  0.113700  1.0
  H  H662  1  0.438500  0.886300  0.119300  1.0
  H  H663  1  0.438500  0.613700  0.380700  1.0
  H  H664  1  0.061500  0.119300  0.613700  1.0
  H  H665  1  0.206300  0.218100  0.867400  1.0
  H  H666  1  0.706300  0.132600  0.718100  1.0
  H  H667  1  0.706300  0.367400  0.781900  1.0
  H  H668  1  0.793700  0.718100  0.367400  1.0
  H  H669  1  0.793700  0.781900  0.132600  1.0
  H  H670  1  0.293700  0.867400  0.281900  1.0
  H  H671  1  0.293700  0.632600  0.218100  1.0
  H  H672  1  0.206300  0.281900  0.632600  1.0
  H  H673  1  0.111900  0.257900  0.832000  1.0
  H  H674  1  0.611900  0.168000  0.757900  1.0
  H  H675  1  0.611900  0.332000  0.742100  1.0
  H  H676  1  0.888100  0.757900  0.332000  1.0
  H  H677  1  0.888100  0.742100  0.168000  1.0
  H  H678  1  0.388100  0.832000  0.242100  1.0
  H  H679  1  0.388100  0.668000  0.257900  1.0
  H  H680  1  0.111900  0.242100  0.668000  1.0
  H  H681  1  0.098100  0.221600  0.906500  1.0
  H  H682  1  0.598100  0.093500  0.721600  1.0
  H  H683  1  0.598100  0.406500  0.778400  1.0
  H  H684  1  0.901900  0.721600  0.406500  1.0
  H  H685  1  0.901900  0.778400  0.093500  1.0
  H  H686  1  0.401900  0.906500  0.278400  1.0
  H  H687  1  0.401900  0.593500  0.221600  1.0
  H  H688  1  0.098100  0.278400  0.593500  1.0
  C  C689  1  0.455400  0.368000  0.170500  1
  C  C690  1  0.955400  0.829500  0.868000  1
  C  C691  1  0.955400  0.670500  0.632000  1
  C  C692  1  0.544600  0.868000  0.670500  1
  C  C693  1  0.544600  0.632000  0.829500  1
  C  C694  1  0.044600  0.170500  0.132000  1
  C  C695  1  0.044600  0.329500  0.368000  1
  C  C696  1  0.455400  0.132000  0.329500  1
  C  C697  1  0.498000  0.439000  0.187800  1
  C  C698  1  0.998000  0.812200  0.939000  1
  C  C699  1  0.998000  0.687800  0.561000  1
  C  C700  1  0.502000  0.939000  0.687800  1
  C  C701  1  0.502000  0.561000  0.812200  1
  C  C702  1  0.002000  0.187800  0.061000  1
  C  C703  1  0.002000  0.312200  0.439000  1
  C  C704  1  0.498000  0.061000  0.312200  1
  C  C705  1  0.604500  0.453700  0.172900  1
  C  C706  1  0.104500  0.827100  0.953700  1
  C  C707  1  0.104500  0.672900  0.546300  1
  C  C708  1  0.395500  0.953700  0.672900  1
  C  C709  1  0.395500  0.546300  0.827100  1
  C  C710  1  0.895500  0.172900  0.046300  1
  C  C711  1  0.895500  0.327100  0.453700  1
  C  C712  1  0.604500  0.046300  0.327100  1
  C  C713  1  0.296400  0.507100  0.066400  1
  C  C714  1  0.796400  0.933600  0.007100  1
  C  C715  1  0.796400  0.566400  0.492900  1
  C  C716  1  0.703600  0.007100  0.566400  1
  C  C717  1  0.703600  0.492900  0.933600  1
  C  C718  1  0.203600  0.066400  0.992900  1
  C  C719  1  0.203600  0.433600  0.507100  1
  C  C720  1  0.296400  0.992900  0.433600  1
  C  C721  1  0.206200  0.559600  0.055500  1
  C  C722  1  0.706200  0.944500  0.059600  1
  C  C723  1  0.706200  0.555500  0.440400  1
  C  C724  1  0.793800  0.059600  0.555500  1
  C  C725  1  0.793800  0.440400  0.944500  1
  C  C726  1  0.293800  0.055500  0.940400  1
  C  C727  1  0.293800  0.444500  0.559600  1
  C  C728  1  0.206200  0.940400  0.444500  1
  C  C729  1  0.230900  0.627400  0.021000  1
  C  C730  1  0.730900  0.979000  0.127400  1
  C  C731  1  0.730900  0.521000  0.372600  1
  C  C732  1  0.769100  0.127400  0.521000  1
  C  C733  1  0.769100  0.372600  0.979000  1
  C  C734  1  0.269100  0.021000  0.872600  1
  C  C735  1  0.269100  0.479000  0.627400  1
  C  C736  1  0.230900  0.872600  0.479000  1
  C  C737  1  0.141800  0.670400  0.017000  1
  C  C738  1  0.641800  0.983000  0.170400  1
  C  C739  1  0.641800  0.517000  0.329600  1
  C  C740  1  0.858200  0.170400  0.517000  1
  C  C741  1  0.858200  0.329600  0.983000  1
  C  C742  1  0.358200  0.017000  0.829600  1
  C  C743  1  0.358200  0.483000  0.670400  1
  C  C744  1  0.141800  0.829600  0.483000  1
  C  C745  1  0.090800  0.377400  0.148300  1
  C  C746  1  0.590800  0.851700  0.877400  1
  C  C747  1  0.590800  0.648300  0.622600  1
  C  C748  1  0.909200  0.877400  0.648300  1
  C  C749  1  0.909200  0.622600  0.851700  1
  C  C750  1  0.409200  0.148300  0.122600  1
  C  C751  1  0.409200  0.351700  0.377400  1
  C  C752  1  0.090800  0.122600  0.351700  1
  C  C753  1  0.017600  0.430500  0.182500  1
  C  C754  1  0.517600  0.817500  0.930500  1
  C  C755  1  0.517600  0.682500  0.569500  1
  C  C756  1  0.982400  0.930500  0.682500  1
  C  C757  1  0.982400  0.569500  0.817500  1
  C  C758  1  0.482400  0.182500  0.069500  1
  C  C759  1  0.482400  0.317500  0.430500  1
  C  C760  1  0.017600  0.069500  0.317500  1
  C  C761  1  0.909200  0.409500  0.183400  1
  C  C762  1  0.409200  0.816600  0.909500  1
  C  C763  1  0.409200  0.683400  0.590500  1
  C  C764  1  0.090800  0.909500  0.683400  1
  C  C765  1  0.090800  0.590500  0.816600  1
  C  C766  1  0.590800  0.183400  0.090500  1
  C  C767  1  0.590800  0.316600  0.409500  1
  C  C768  1  0.909200  0.090500  0.316600  1
  C  C769  1  0.840200  0.431400  0.235600  1
  C  C770  1  0.340200  0.764400  0.931400  1
  C  C771  1  0.340200  0.735600  0.568600  1
  C  C772  1  0.159800  0.931400  0.735600  1
  C  C773  1  0.159800  0.568600  0.764400  1
  C  C774  1  0.659800  0.235600  0.068600  1
  C  C775  1  0.659800  0.264400  0.431400  1
  C  C776  1  0.840200  0.068600  0.264400  1
  C  C777  1  0.390300  0.308100  0.927800  1
  C  C778  1  0.890300  0.072200  0.808100  1
  C  C779  1  0.890300  0.427800  0.691900  1
  C  C780  1  0.609700  0.808100  0.427800  1
  C  C781  1  0.609700  0.691900  0.072200  1
  C  C782  1  0.109700  0.927800  0.191900  1
  C  C783  1  0.109700  0.572200  0.308100  1
  C  C784  1  0.390300  0.191900  0.572200  1
  C  C785  1  0.311200  0.300700  0.867900  1
  C  C786  1  0.811200  0.132100  0.800700  1
  C  C787  1  0.811200  0.367900  0.699300  1
  C  C788  1  0.688800  0.800700  0.367900  1
  C  C789  1  0.688800  0.699300  0.132100  1
  C  C790  1  0.188800  0.867900  0.199300  1
  C  C791  1  0.188800  0.632100  0.300700  1
  C  C792  1  0.311200  0.199300  0.632100  1
  C  C793  1  0.207200  0.305100  0.907600  1
  C  C794  1  0.707200  0.092400  0.805100  1
  C  C795  1  0.707200  0.407600  0.694900  1
  C  C796  1  0.792800  0.805100  0.407600  1
  C  C797  1  0.792800  0.694900  0.092400  1
  C  C798  1  0.292800  0.907600  0.194900  1
  C  C799  1  0.292800  0.592400  0.305100  1
  C  C800  1  0.207200  0.194900  0.592400  1
  C  C801  1  0.453600  0.366800  0.946200  1
  C  C802  1  0.953600  0.053800  0.866800  1
  C  C803  1  0.953600  0.446200  0.633200  1
  C  C804  1  0.546400  0.866800  0.446200  1
  C  C805  1  0.546400  0.633200  0.053800  1
  C  C806  1  0.046400  0.946200  0.133200  1
  C  C807  1  0.046400  0.553800  0.366800  1
  C  C808  1  0.453600  0.133200  0.553800  1
  C  C809  1  0.474200  0.255200  0.920000  1
  C  C810  1  0.974200  0.080000  0.755200  1
  C  C811  1  0.974200  0.420000  0.744800  1
  C  C812  1  0.525800  0.755200  0.420000  1
  C  C813  1  0.525800  0.744800  0.080000  1
  C  C814  1  0.025800  0.920000  0.244800  1
  C  C815  1  0.025800  0.580000  0.255200  1
  C  C816  1  0.474200  0.244800  0.580000  1
  C  C817  1  0.323100  0.338100  0.799700  1
  C  C818  1  0.823100  0.200300  0.838100  1
  C  C819  1  0.823100  0.299700  0.661900  1
  C  C820  1  0.676900  0.838100  0.299700  1
  C  C821  1  0.676900  0.661900  0.200300  1
  C  C822  1  0.176900  0.799700  0.161900  1
  C  C823  1  0.176900  0.700300  0.338100  1
  C  C824  1  0.323100  0.161900  0.700300  1
  C  C825  1  0.155000  0.377200  0.907400  1
  C  C826  1  0.655000  0.092600  0.877200  1
  C  C827  1  0.655000  0.407400  0.622800  1
  C  C828  1  0.845000  0.877200  0.407400  1
  C  C829  1  0.845000  0.622800  0.092600  1
  C  C830  1  0.345000  0.907400  0.122800  1
  C  C831  1  0.345000  0.592600  0.377200  1
  C  C832  1  0.155000  0.122800  0.592600  1
  C  C833  1  0.116400  0.257500  0.887100  1
  C  C834  1  0.616400  0.112900  0.757500  1
  C  C835  1  0.616400  0.387100  0.742500  1
  C  C836  1  0.883600  0.757500  0.387100  1
  C  C837  1  0.883600  0.742500  0.112900  1
  C  C838  1  0.383600  0.887100  0.242500  1
  C  C839  1  0.383600  0.612900  0.257500  1
  C  C840  1  0.116400  0.242500  0.612900  1
  C  C841  1  0.346600  0.360200  0.189700  1.0
  C  C842  1  0.846600  0.810300  0.860200  1.0
  C  C843  1  0.846600  0.689700  0.639800  1.0
  C  C844  1  0.653400  0.860200  0.689700  1.0
  C  C845  1  0.653400  0.639800  0.810300  1.0
  C  C846  1  0.153400  0.189700  0.139800  1.0
  C  C847  1  0.153400  0.310300  0.360200  1.0
  C  C848  1  0.346600  0.139800  0.310300  1.0
  C  C849  1  0.449500  0.400600  0.202100  1.0
  C  C850  1  0.949500  0.797900  0.900600  1.0
  C  C851  1  0.949500  0.702100  0.599400  1.0
  C  C852  1  0.550500  0.900600  0.702100  1.0
  C  C853  1  0.550500  0.599400  0.797900  1.0
  C  C854  1  0.050500  0.202100  0.099400  1.0
  C  C855  1  0.050500  0.297900  0.400600  1.0
  C  C856  1  0.449500  0.099400  0.297900  1.0
  C  C857  1  0.504800  0.416100  0.135300  1.0
  C  C858  1  0.004800  0.864700  0.916100  1.0
  C  C859  1  0.004800  0.635300  0.583900  1.0
  C  C860  1  0.495200  0.916100  0.635300  1.0
  C  C861  1  0.495200  0.583900  0.864700  1.0
  C  C862  1  0.995200  0.135300  0.083900  1.0
  C  C863  1  0.995200  0.364700  0.416100  1.0
  C  C864  1  0.504800  0.083900  0.364700  1.0
  C  C865  1  0.606000  0.443700  0.139200  1.0
  C  C866  1  0.106000  0.860800  0.943700  1.0
  C  C867  1  0.106000  0.639200  0.556300  1.0
  C  C868  1  0.394000  0.943700  0.639200  1.0
  C  C869  1  0.394000  0.556300  0.860800  1.0
  C  C870  1  0.894000  0.139200  0.056300  1.0
  C  C871  1  0.894000  0.360800  0.443700  1.0
  C  C872  1  0.606000  0.056300  0.360800  1.0
  C  C873  1  0.260900  0.500500  0.063000  1.0
  C  C874  1  0.760900  0.937000  0.000500  1.0
  C  C875  1  0.760900  0.563000  0.499500  1.0
  C  C876  1  0.739100  0.000500  0.563000  1.0
  C  C877  1  0.739100  0.499500  0.937000  1.0
  C  C878  1  0.239100  0.063000  0.999500  1.0
  C  C879  1  0.239100  0.437000  0.500500  1.0
  C  C880  1  0.260900  0.999500  0.437000  1.0
  C  C881  1  0.160800  0.541600  0.047700  1.0
  C  C882  1  0.660800  0.952300  0.041600  1.0
  C  C883  1  0.660800  0.547700  0.458400  1.0
  C  C884  1  0.839200  0.041600  0.547700  1.0
  C  C885  1  0.839200  0.458400  0.952300  1.0
  C  C886  1  0.339200  0.047700  0.958400  1.0
  C  C887  1  0.339200  0.452300  0.541600  1.0
  C  C888  1  0.160800  0.958400  0.452300  1.0
  C  C889  1  0.174400  0.598100  0.997400  1.0
  C  C890  1  0.674400  0.002600  0.098100  1.0
  C  C891  1  0.674400  0.497400  0.401900  1.0
  C  C892  1  0.825600  0.098100  0.497400  1.0
  C  C893  1  0.825600  0.401900  0.002600  1.0
  C  C894  1  0.325600  0.997400  0.901900  1.0
  C  C895  1  0.325600  0.502600  0.598100  1.0
  C  C896  1  0.174400  0.901900  0.502600  1.0
  C  C897  1  0.246000  0.651000  0.020000  1.0
  C  C898  1  0.746000  0.980000  0.151000  1.0
  C  C899  1  0.746000  0.520000  0.349000  1.0
  C  C900  1  0.754000  0.151000  0.520000  1.0
  C  C901  1  0.754000  0.349000  0.980000  1.0
  C  C902  1  0.254000  0.020000  0.849000  1.0
  C  C903  1  0.254000  0.480000  0.651000  1.0
  C  C904  1  0.246000  0.849000  0.480000  1.0
  C  C905  1  0.075100  0.401200  0.125100  1.0
  C  C906  1  0.575100  0.874900  0.901200  1.0
  C  C907  1  0.575100  0.625100  0.598800  1.0
  C  C908  1  0.924900  0.901200  0.625100  1.0
  C  C909  1  0.924900  0.598800  0.874900  1.0
  C  C910  1  0.424900  0.125100  0.098800  1.0
  C  C911  1  0.424900  0.374900  0.401200  1.0
  C  C912  1  0.075100  0.098800  0.374900  1.0
  C  C913  1  0.020500  0.378100  0.191300  1.0
  C  C914  1  0.520500  0.808700  0.878100  1.0
  C  C915  1  0.520500  0.691300  0.621900  1.0
  C  C916  1  0.979500  0.878100  0.691300  1.0
  C  C917  1  0.979500  0.621900  0.808700  1.0
  C  C918  1  0.479500  0.191300  0.121900  1.0
  C  C919  1  0.479500  0.308700  0.378100  1.0
  C  C920  1  0.020500  0.121900  0.308700  1.0
  C  C921  1  0.905600  0.369300  0.189700  1.0
  C  C922  1  0.405600  0.810300  0.869300  1.0
  C  C923  1  0.405600  0.689700  0.630700  1.0
  C  C924  1  0.094400  0.869300  0.689700  1.0
  C  C925  1  0.094400  0.630700  0.810300  1.0
  C  C926  1  0.594400  0.189700  0.130700  1.0
  C  C927  1  0.594400  0.310300  0.369300  1.0
  C  C928  1  0.905600  0.130700  0.310300  1.0
  C  C929  1  0.855400  0.345200  0.247900  1.0
  C  C930  1  0.355400  0.752100  0.845200  1.0
  C  C931  1  0.355400  0.747900  0.654800  1.0
  C  C932  1  0.144600  0.845200  0.747900  1.0
  C  C933  1  0.144600  0.654800  0.752100  1.0
  C  C934  1  0.644600  0.247900  0.154800  1.0
  C  C935  1  0.644600  0.252100  0.345200  1.0
  C  C936  1  0.855400  0.154800  0.252100  1.0
  C  C937  1  0.364200  0.316400  0.917100  1.0
  C  C938  1  0.864200  0.082900  0.816400  1.0
  C  C939  1  0.864200  0.417100  0.683600  1.0
  C  C940  1  0.635800  0.816400  0.417100  1.0
  C  C941  1  0.635800  0.683600  0.082900  1.0
  C  C942  1  0.135800  0.917100  0.183600  1.0
  C  C943  1  0.135800  0.582900  0.316400  1.0
  C  C944  1  0.364200  0.183600  0.582900  1.0
  C  C945  1  0.275800  0.348900  0.876200  1.0
  C  C946  1  0.775800  0.123800  0.848900  1.0
  C  C947  1  0.775800  0.376200  0.651100  1.0
  C  C948  1  0.724200  0.848900  0.376200  1.0
  C  C949  1  0.724200  0.651100  0.123800  1.0
  C  C950  1  0.224200  0.876200  0.151100  1.0
  C  C951  1  0.224200  0.623800  0.348900  1.0
  C  C952  1  0.275800  0.151100  0.623800  1.0
  C  C953  1  0.179000  0.315600  0.912500  1.0
  C  C954  1  0.679000  0.087500  0.815600  1.0
  C  C955  1  0.679000  0.412500  0.684400  1.0
  C  C956  1  0.821000  0.815600  0.412500  1.0
  C  C957  1  0.821000  0.684400  0.087500  1.0
  C  C958  1  0.321000  0.912500  0.184400  1.0
  C  C959  1  0.321000  0.587500  0.315600  1.0
  C  C960  1  0.179000  0.184400  0.587500  1.0
  C  C961  1  0.433300  0.377600  0.928900  1.0
  C  C962  1  0.933300  0.071100  0.877600  1.0
  C  C963  1  0.933300  0.428900  0.622400  1.0
  C  C964  1  0.566700  0.877600  0.428900  1.0
  C  C965  1  0.566700  0.622400  0.071100  1.0
  C  C966  1  0.066700  0.928900  0.122400  1.0
  C  C967  1  0.066700  0.571100  0.377600  1.0
  C  C968  1  0.433300  0.122400  0.571100  1.0
  C  C969  1  0.413900  0.253900  0.883300  1.0
  C  C970  1  0.913900  0.116700  0.753900  1.0
  C  C971  1  0.913900  0.383300  0.746100  1.0
  C  C972  1  0.586100  0.753900  0.383300  1.0
  C  C973  1  0.586100  0.746100  0.116700  1.0
  C  C974  1  0.086100  0.883300  0.246100  1.0
  C  C975  1  0.086100  0.616700  0.253900  1.0
  C  C976  1  0.413900  0.246100  0.616700  1.0
  C  C977  1  0.275000  0.351600  0.798500  1.0
  C  C978  1  0.775000  0.201500  0.851600  1.0
  C  C979  1  0.775000  0.298500  0.648400  1.0
  C  C980  1  0.725000  0.851600  0.298500  1.0
  C  C981  1  0.725000  0.648400  0.201500  1.0
  C  C982  1  0.225000  0.798500  0.148400  1.0
  C  C983  1  0.225000  0.701500  0.351600  1.0
  C  C984  1  0.275000  0.148400  0.701500  1.0
  C  C985  1  0.095900  0.366400  0.929300  1.0
  C  C986  1  0.595900  0.070700  0.866400  1.0
  C  C987  1  0.595900  0.429300  0.633600  1.0
  C  C988  1  0.904100  0.866400  0.429300  1.0
  C  C989  1  0.904100  0.633600  0.070700  1.0
  C  C990  1  0.404100  0.929300  0.133600  1.0
  C  C991  1  0.404100  0.570700  0.366400  1.0
  C  C992  1  0.095900  0.133600  0.570700  1.0
  C  C993  1  0.145800  0.247000  0.876200  1.0
  C  C994  1  0.645800  0.123800  0.747000  1.0
  C  C995  1  0.645800  0.376200  0.753000  1.0
  C  C996  1  0.854200  0.747000  0.376200  1.0
  C  C997  1  0.854200  0.753000  0.123800  1.0
  C  C998  1  0.354200  0.876200  0.253000  1.0
  C  C999  1  0.354200  0.623800  0.247000  1.0
  C  C1000  1  0.145800  0.253000  0.623800  1.0
  O  O1001  1  0.265400  0.342900  0.042190  1.0
  O  O1002  1  0.765400  0.957810  0.842900  1.0
  O  O1003  1  0.765400  0.542190  0.657100  1.0
  O  O1004  1  0.734600  0.842900  0.542190  1.0
  O  O1005  1  0.734600  0.657100  0.957810  1.0
  O  O1006  1  0.234600  0.042190  0.157100  1.0
  O  O1007  1  0.234600  0.457810  0.342900  1.0
  O  O1008  1  0.265400  0.157100  0.457810  1.0
  O  O1009  1  0.224900  0.495200  0.216200  1.0
  O  O1010  1  0.724900  0.783800  0.995200  1.0
  O  O1011  1  0.724900  0.716200  0.504800  1.0
  O  O1012  1  0.775100  0.995200  0.716200  1.0
  O  O1013  1  0.775100  0.504800  0.783800  1.0
  O  O1014  1  0.275100  0.216200  0.004800  1.0
  O  O1015  1  0.275100  0.283800  0.495200  1.0
  O  O1016  1  0.224900  0.004800  0.283800  1.0
