
#######################################################################
#
#                 Cambridge Crystallographic Data Centre
#                                CCDC 
#
#######################################################################
#
# If this CIF has been generated from an entry in the Cambridge 
# Structural Database, then it will include bibliographic, chemical, 
# crystal, experimental, refinement or atomic coordinate data resulting 
# from the CCDC's data processing and validation procedures.
#
#######################################################################

data_EYEVOV
_chemical_formula_moiety         
'C88 H66 N10 O2 Pd2 8+,4(C10 H6 O6 S2 2-),H2 O1'
_chemical_name_systematic        
"bis(\m-10,10'-(1,3-phenylene)bis[9-(pyridin-3-yl)acridin-10-ium])-bis(acetonitrile)-diaqua-di-palladium(ii) tetrakis(naphthalene-1,5-disulfonate) monohydrate unknown solvate"
_symmetry_cell_setting           triclinic
_symmetry_space_group_name_H-M   'P -1'
_symmetry_Int_Tables_number      2
_space_group_name_Hall           '-P 1'
loop_
_symmetry_equiv_pos_site_id
_symmetry_equiv_pos_as_xyz
1 x,y,z
2 -x,-y,-z
_cell_length_a                   11.8672(11)
_cell_length_b                   17.3466(15)
_cell_length_c                   18.1414(16)
_cell_angle_alpha                85.442(4)
_cell_angle_beta                 89.565(5)
_cell_angle_gamma                80.529(5)
_cell_volume                     3671.9
_exptl_crystal_colour            yellow
_exptl_crystal_description       prism
_cell_formula_units_Z            1
loop_
_atom_site_label
_atom_site_type_symbol
_atom_site_fract_x
_atom_site_fract_y
_atom_site_fract_z
Pd1 Pd 0.41878(4) 0.21865(2) 0.21911(2)
N1 N 0.4918(5) 0.7212(3) 0.8531(3)
N2 N 0.2989(5) 0.3988(3) 0.8200(3)
N3 N 0.2377(5) 0.2203(3) 0.6345(3)
N4 N 0.5157(5) 0.1200(3) 0.1979(3)
N5 N 0.3313(5) 0.1594(3) 0.2931(3)
C1 C 0.4686(6) 0.7438(4) 0.9212(4)
H1 H 0.4923 0.7891 0.9349
C2 C 0.3637(6) 0.5383(4) 0.8568(3)
C3 C 0.4130(6) 0.4007(4) 0.8292(4)
C4 C 0.2474(6) 0.5354(4) 0.8442(3)
C5 C 0.2526(6) 0.1722(4) 0.4922(4)
C6 C 0.2152(6) 0.4632(4) 0.8261(4)
C7 C 0.4570(6) 0.6560(4) 0.8327(4)
H2 H 0.4733 0.6406 0.7853
C8 C 0.2364(6) 0.2747(4) 0.8573(4)
H3 H 0.2405 0.2856 0.9065
C9 C 0.4106(6) 0.7016(4) 0.9712(4)
H4 H 0.3961 0.7180 1.0184
C10 C 0.3458(6) 0.1522(4) 0.5399(4)
C11 C 0.4471(6) 0.4723(4) 0.8485(4)
C12 C 0.2645(5) 0.3115(4) 0.7264(4)
H5 H 0.2854 0.3466 0.6894
C13 C 0.2648(6) 0.3262(4) 0.8013(4)
C14 C 0.3738(6) 0.6348(4) 0.9512(4)
H6 H 0.3338 0.6060 0.9845
C15 C 0.2893(6) 0.0961(4) 0.2760(4)
H7 H 0.3000 0.0793 0.2287
C16 C 0.3973(6) 0.6108(4) 0.8804(4)
C17 C 0.1516(6) 0.2179(4) 0.5149(4)
C18 C 0.2606(6) 0.1453(4) 0.4158(4)
C19 C 0.1603(6) 0.6022(4) 0.8458(4)
H8 H 0.1793 0.6500 0.8565
C20 C 0.1003(6) 0.4580(4) 0.8143(4)
H9 H 0.0792 0.4105 0.8046
C21 C 0.2315(6) 0.2417(4) 0.7108(4)
C22 C 0.6086(6) 0.3385(4) 0.8278(4)
H10 H 0.6632 0.2946 0.8211
C23 C 0.3173(6) 0.1845(4) 0.3612(4)
H11 H 0.3461 0.2291 0.3721
C24 C 0.0498(6) 0.5968(4) 0.8318(4)
H12 H -0.0061 0.6412 0.8319
C25 C 0.3382(6) 0.1768(4) 0.6134(4)
C26 C 0.0190(6) 0.5241(4) 0.8172(4)
H13 H -0.0575 0.5209 0.8095
C27 C 0.1457(6) 0.2425(4) 0.5882(4)
C28 C 0.4312(6) 0.1566(4) 0.6622(4)
H14 H 0.4252 0.1720 0.7102
C29 C 0.5665(6) 0.4733(4) 0.8570(4)
H15 H 0.5913 0.5183 0.8706
C30 C 0.6438(6) 0.4084(4) 0.8452(4)
H16 H 0.7214 0.4103 0.8488
C31 C 0.0550(6) 0.2417(5) 0.4669(4)
H17 H 0.0574 0.2262 0.4190
C32 C 0.4952(6) 0.3339(4) 0.8205(4)
H18 H 0.4728 0.2870 0.8098
C33 C 0.4515(6) 0.1071(4) 0.5190(4)
H19 H 0.4592 0.0901 0.4716
C34 C 0.5767(6) 0.0630(4) 0.1920(4)
C35 C 0.6527(7) -0.0104(4) 0.1841(5)
H20 H 0.6088 -0.0495 0.1717
H21 H 0.6927 -0.0273 0.2299
H22 H 0.7067 -0.0031 0.1456
C36 C 0.1970(6) 0.1897(4) 0.7653(4)
H23 H 0.1712 0.1447 0.7527
C37 C 0.2161(6) 0.0796(4) 0.3985(4)
H24 H 0.1774 0.0524 0.4340
C38 C 0.2304(6) 0.0552(4) 0.3276(4)
H25 H 0.2006 0.0117 0.3147
C39 C 0.5405(7) 0.0888(5) 0.5668(4)
H26 H 0.6085 0.0593 0.5522
C40 C 0.0463(6) 0.2898(4) 0.6122(4)
H27 H 0.0422 0.3064 0.6597
C41 C 0.2015(6) 0.2060(4) 0.8388(4)
H28 H 0.1810 0.1708 0.8758
C42 C -0.0437(7) 0.3108(5) 0.5646(5)
H29 H -0.1096 0.3417 0.5806
C43 C -0.0404(7) 0.2869(5) 0.4912(5)
H30 H -0.1032 0.3022 0.4600
C44 C 0.5302(7) 0.1145(5) 0.6392(4)
O1 O 0.3149(4) 0.3180(3) 0.2423(3)
Pd1A Pd 0.58122(4) 0.78135(2) 0.78089(2)
N1A N 0.5082(5) 0.2788(3) 0.1469(3)
N2A N 0.7011(5) 0.6012(3) 0.1800(3)
N3A N 0.7623(5) 0.7797(3) 0.3655(3)
N4A N 0.4843(5) 0.8800(3) 0.8021(3)
N5A N 0.6687(5) 0.8406(3) 0.7069(3)
C1A C 0.5314(6) 0.2562(4) 0.0788(4)
H1A H 0.5077 0.2109 0.0651
C2A C 0.6363(6) 0.4617(4) 0.1432(3)
C3A C 0.5870(6) 0.5993(4) 0.1708(4)
C4A C 0.7526(6) 0.4646(4) 0.1558(3)
C5A C 0.7474(6) 0.8278(4) 0.5078(4)
C6A C 0.7848(6) 0.5368(4) 0.1739(4)
C7A C 0.5430(6) 0.3440(4) 0.1673(4)
H2A H 0.5267 0.3594 0.2147
C8A C 0.7636(6) 0.7253(4) 0.1427(4)
H3A H 0.7595 0.7144 0.0935
C9A C 0.5894(6) 0.2984(4) 0.0288(4)
H4A H 0.6039 0.2820 -0.0184
C10A C 0.6542(6) 0.8478(4) 0.4601(4)
C11A C 0.5529(6) 0.5277(4) 0.1515(4)
C12A C 0.7355(5) 0.6885(4) 0.2736(4)
H5A H 0.7146 0.6534 0.3106
C13A C 0.7352(6) 0.6738(4) 0.1987(4)
C14A C 0.6262(6) 0.3652(4) 0.0488(4)
H6A H 0.6662 0.3940 0.0155
C15A C 0.7107(6) 0.9039(4) 0.7240(4)
H7A H 0.7000 0.9207 0.7713
C16A C 0.6027(6) 0.3892(4) 0.1196(4)
C17A C 0.8484(6) 0.7821(4) 0.4851(4)
C18A C 0.7394(6) 0.8547(4) 0.5842(4)
C19A C 0.8397(6) 0.3978(4) 0.1542(4)
H8A H 0.8207 0.3500 0.1435
C20A C 0.8997(6) 0.5420(4) 0.1857(4)
H9A H 0.9208 0.5895 0.1954
C21A C 0.7685(6) 0.7583(4) 0.2892(4)
C22A C 0.3914(6) 0.6615(4) 0.1722(4)
H10A H 0.3368 0.7054 0.1789
C23A C 0.6827(6) 0.8155(4) 0.6388(4)
H11A H 0.6539 0.7709 0.6279
C24A C 0.9502(6) 0.4032(4) 0.1682(4)
H12A H 1.0061 0.3588 0.1681
C25A C 0.6618(6) 0.8232(4) 0.3866(4)
C26A C 0.9810(6) 0.4759(4) 0.1828(4)
H13A H 1.0575 0.4791 0.1905
C27A C 0.8543(6) 0.7575(4) 0.4118(4)
C28A C 0.5688(6) 0.8434(4) 0.3378(4)
H14A H 0.5748 0.8280 0.2898
C29A C 0.4335(6) 0.5267(4) 0.1430(4)
H15A H 0.4087 0.4817 0.1294
C30A C 0.3562(6) 0.5916(4) 0.1548(4)
H16A H 0.2786 0.5897 0.1512
C31A C 0.9450(6) 0.7583(5) 0.5331(4)
H17A H 0.9426 0.7738 0.5810
C32A C 0.5048(6) 0.6661(4) 0.1795(4)
H18A H 0.5272 0.7130 0.1902
C33A C 0.5485(6) 0.8929(4) 0.4810(4)
H19A H 0.5408 0.9099 0.5284
C34A C 0.4233(6) 0.9370(4) 0.8080(4)
C35A C 0.3473(7) 1.0104(4) 0.8159(5)
H20A H 0.3912 1.0495 0.8283
H21A H 0.3073 1.0273 0.7701
H22A H 0.2933 1.0031 0.8544
C36A C 0.8030(6) 0.8103(4) 0.2347(4)
H23A H 0.8288 0.8553 0.2473
C37A C 0.7839(6) 0.9204(4) 0.6015(4)
H24A H 0.8226 0.9476 0.5660
C38A C 0.7696(6) 0.9448(4) 0.6724(4)
H25A H 0.7994 0.9883 0.6853
C39A C 0.4595(7) 0.9112(5) 0.4332(4)
H26A H 0.3915 0.9407 0.4478
C40A C 0.9537(6) 0.7102(4) 0.3878(4)
H27A H 0.9578 0.6936 0.3403
C41A C 0.7985(6) 0.7940(4) 0.1612(4)
H28A H 0.8190 0.8292 0.1242
C42A C 1.0437(7) 0.6892(5) 0.4354(5)
H29A H 1.1096 0.6583 0.4194
C43A C 1.0404(7) 0.7131(5) 0.5088(5)
H30A H 1.1032 0.6978 0.5400
C44A C 0.4698(7) 0.8855(5) 0.3608(4)
O1A O 0.6851(4) 0.6820(3) 0.7577(3)
S1 S 0.24957(13) 0.37734(9) 0.04891(8)
O2 O 0.2679(4) 0.2920(3) 0.0536(3)
O3 O 0.3230(4) 0.4123(3) -0.0029(3)
C45 C -0.1184(5) 0.4516(4) -0.0314(3)
H31 H -0.1939 0.4653 -0.0473
C46 C 0.0581(5) 0.4890(4) 0.0117(3)
C47 C 0.0465(5) 0.3519(4) -0.0028(3)
H32 H 0.0803 0.2994 0.0005
C48 C -0.0684(5) 0.3743(4) -0.0274(4)
H33 H -0.1097 0.3364 -0.0409
C49 C 0.1071(5) 0.4079(4) 0.0159(3)
O4 O 0.2513(4) 0.4070(3) 0.1225(2)
S1A S -0.24957(13) 0.62266(9) -0.04891(8)
O2A O -0.2679(4) 0.7080(3) -0.0536(3)
O3A O -0.3230(4) 0.5877(3) 0.0029(3)
C45A C 0.1184(5) 0.5484(4) 0.0314(3)
H31A H 0.1939 0.5347 0.0473
C46A C -0.0581(5) 0.5110(4) -0.0117(3)
C47A C -0.0465(5) 0.6481(4) 0.0028(3)
H32A H -0.0803 0.7006 -0.0005
C48A C 0.0684(5) 0.6257(4) 0.0274(4)
H33A H 0.1097 0.6636 0.0409
C49A C -0.1071(5) 0.5921(4) -0.0159(3)
O4A O -0.2513(4) 0.5930(3) -0.1225(2)
S2 S 0.36575(15) -0.10119(9) 0.13660(9)
O5 O 0.4703(5) -0.1334(3) 0.1765(3)
C50 C 0.5092(6) 0.0326(4) -0.0249(4)
C51 C 0.3950(6) -0.0226(4) 0.0733(4)
C52 C 0.4316(6) 0.1049(4) -0.0238(4)
H34 H 0.4433 0.1478 -0.0552
C53 C 0.3221(6) 0.0475(4) 0.0719(4)
H35 H 0.2597 0.0529 0.1035
C54 C 0.3403(6) 0.1116(4) 0.0230(4)
H36 H 0.2899 0.1588 0.0226
O6 O 0.3276(5) -0.1575(3) 0.0904(3)
O7 O 0.2769(5) -0.0661(3) 0.1844(3)
S2A S 0.63425(15) 0.10119(9) -0.13660(9)
O5A O 0.5297(5) 0.1334(3) -0.1765(3)
C50A C 0.4908(6) -0.0326(4) 0.0249(4)
C51A C 0.6050(6) 0.0226(4) -0.0733(4)
C52A C 0.5684(6) -0.1049(4) 0.0238(4)
H34A H 0.5567 -0.1478 0.0552
C53A C 0.6779(6) -0.0475(4) -0.0719(4)
H35A H 0.7403 -0.0529 -0.1035
C54A C 0.6597(6) -0.1116(4) -0.0230(4)
H36A H 0.7101 -0.1588 -0.0226
O6A O 0.6724(5) 0.1575(3) -0.0904(3)
O7A O 0.7231(5) 0.0661(3) -0.1844(3)
C55 C 0.900(2) 0.4863(17) 0.4266(15)
C56 C 1.053(2) 0.4922(16) 0.5014(15)
C57 C 0.962(2) 0.4547(16) 0.3708(15)
H37 H 0.9264 0.4432 0.3287
C58 C 1.067(2) 0.4412(16) 0.3760(15)
H38 H 1.1108 0.4196 0.3377
C59 C 1.119(2) 0.4585(15) 0.4392(14)
H39 H 1.1981 0.4484 0.4425
S3 S 0.7609(6) 0.5132(4) 0.4235(3)
O8 O 0.7042(18) 0.4711(10) 0.4815(8)
O9 O 0.7163(18) 0.5992(7) 0.4374(9)
O10 O 0.7092(19) 0.5101(11) 0.3505(7)
C55A C 1.100(2) 0.5137(17) 0.5734(15)
C56A C 0.947(2) 0.5078(16) 0.4986(15)
C57A C 1.038(2) 0.5453(16) 0.6292(15)
H37A H 1.0736 0.5568 0.6713
C58A C 0.933(2) 0.5588(16) 0.6240(15)
H38A H 0.8892 0.5804 0.6623
C59A C 0.881(2) 0.5415(15) 0.5608(14)
H39A H 0.8019 0.5516 0.5575
S3A S 1.2391(6) 0.4868(4) 0.5765(3)
O8A O 1.2958(18) 0.5289(10) 0.5185(8)
O9A O 1.2837(18) 0.4008(7) 0.5626(9)
O10A O 1.2908(19) 0.4899(11) 0.6495(7)
O11 O 0.1139(6) 0.0470(5) 0.9338(4)
O12 O 0.7781(17) 0.1811(13) 0.1739(12)
O13 O 0.0025(8) 0.2066(5) 0.2858(5)
O14 O 0.1340(7) 0.2082(4) 0.1538(4)
O15 O 0.0299(8) 0.1308(7) 0.0555(7)
O16 O 0.2204(12) 0.8927(6) 0.9551(6)
O17 O 0.0519(7) 0.9935(5) 0.1574(5)
O18 O 0.7751(13) 0.2653(10) 0.2804(9)
O19 O 0.4061(8) 0.3951(6) 0.3346(5)
O20 O 0.580(2) 0.4320(14) 0.6296(13)
O21 O 0.6777(14) 0.2874(11) 0.6373(9)
O22 O 0.5807(14) 0.2163(11) 0.3553(10)
O23 O 0.9110(9) 0.3433(7) 0.7769(6)
S4 S 0.8469(3) 0.0308(2) 0.33744(19)
O24 O 0.9477(8) 0.0445(6) 0.2932(6)
O25 O 0.8285(9) -0.0496(6) 0.3365(7)
O26 O 0.7497(9) 0.0874(6) 0.3193(6)
C60 C 0.9515(9) 0.0698(6) 0.5726(6)
H40 H 0.9731 0.0809 0.6193
C61 C 0.8568(12) 0.1140(9) 0.5386(6)
H41 H 0.8122 0.1530 0.5634
C62 C 0.8278(9) 0.1009(6) 0.4685(5)
H42 H 0.7656 0.1330 0.4452
C63 C 0.8873(9) 0.0425(6) 0.4319(5)
C64 C 0.9802(9) -0.0045(6) 0.4644(6)
S4A S 1.1531(3) -0.0308(2) 0.66256(19)
O24A O 1.0523(8) -0.0445(6) 0.7068(6)
O25A O 1.1715(9) 0.0496(6) 0.6635(7)
O26A O 1.2503(9) -0.0874(6) 0.6807(6)
C60A C 1.0485(9) -0.0698(6) 0.4274(6)
H40A H 1.0269 -0.0809 0.3807
C61A C 1.1432(12) -0.1140(9) 0.4614(6)
H41A H 1.1878 -0.1530 0.4366
C62A C 1.1722(9) -0.1009(6) 0.5315(5)
H42A H 1.2344 -0.1330 0.5548
C63A C 1.1127(9) -0.0425(6) 0.5681(5)
C64A C 1.0198(9) 0.0045(6) 0.5356(6)
loop_
_geom_bond_atom_site_label_1
_geom_bond_atom_site_label_2
_geom_bond_site_symmetry_1
_geom_bond_site_symmetry_2
Pd1 N4 1_555 1_555
N1 C1 1_555 1_555
N2 C3 1_555 1_555
N3 C21 1_555 1_555
N4 C34 1_555 1_555
N5 Pd1 1_555 1_555
C1 H1 1_555 1_555
C2 C4 1_555 1_555
C3 C11 1_555 1_555
C4 C6 1_555 1_555
C5 C10 1_555 1_555
C6 N2 1_555 1_555
C7 N1 1_555 1_555
H2 C7 1_555 1_555
C8 H3 1_555 1_555
C9 C1 1_555 1_555
H4 C9 1_555 1_555
C10 C25 1_555 1_555
C11 C2 1_555 1_555
C12 H5 1_555 1_555
C13 N2 1_555 1_555
C14 C9 1_555 1_555
H6 C14 1_555 1_555
C15 N5 1_555 1_555
H7 C15 1_555 1_555
C16 C2 1_555 1_555
C17 C5 1_555 1_555
C18 C5 1_555 1_555
C19 C4 1_555 1_555
H8 C19 1_555 1_555
C20 C6 1_555 1_555
H9 C20 1_555 1_555
C21 C12 1_555 1_555
C22 H10 1_555 1_555
C23 N5 1_555 1_555
H11 C23 1_555 1_555
C24 C19 1_555 1_555
H12 C24 1_555 1_555
C25 N3 1_555 1_555
C26 C20 1_555 1_555
H13 C26 1_555 1_555
C27 N3 1_555 1_555
C28 C25 1_555 1_555
H14 C28 1_555 1_555
C29 C11 1_555 1_555
H15 C29 1_555 1_555
C30 C22 1_555 1_555
H16 C30 1_555 1_555
C31 C17 1_555 1_555
H17 C31 1_555 1_555
C32 C3 1_555 1_555
H18 C32 1_555 1_555
C33 C10 1_555 1_555
H19 C33 1_555 1_555
C34 C35 1_555 1_555
C35 H20 1_555 1_555
H21 C35 1_555 1_555
H22 C35 1_555 1_555
C36 C21 1_555 1_555
H23 C36 1_555 1_555
C37 C18 1_555 1_555
H24 C37 1_555 1_555
C38 C15 1_555 1_555
H25 C38 1_555 1_555
C39 C33 1_555 1_555
H26 C39 1_555 1_555
C40 C27 1_555 1_555
H27 C40 1_555 1_555
C41 C8 1_555 1_555
H28 C41 1_555 1_555
C42 C40 1_555 1_555
H29 C42 1_555 1_555
C43 C31 1_555 1_555
H30 C43 1_555 1_555
C44 C28 1_555 1_555
O1 Pd1 1_555 1_555
S1 O2 1_555 1_555
O3 S1 1_555 1_555
C45 H31 1_555 1_555
C46 C49 1_555 1_555
C47 H32 1_555 1_555
C48 C45 1_555 1_555
H33 C48 1_555 1_555
C49 S1 1_555 1_555
O4 S1 1_555 1_555
S2 O5 1_555 1_555
C50 C52 1_555 1_555
C51 S2 1_555 1_555
C52 H34 1_555 1_555
C53 C51 1_555 1_555
H35 C53 1_555 1_555
C54 C52 1_555 1_555
H36 C54 1_555 1_555
O6 S2 1_555 1_555
O7 S2 1_555 1_555
C55 C57 1_555 1_555
C56 C59 1_555 1_555
C57 H37 1_555 1_555
C58 C57 1_555 1_555
H38 C58 1_555 1_555
C59 C58 1_555 1_555
H39 C59 1_555 1_555
S3 C55 1_555 1_555
O8 S3 1_555 1_555
O9 S3 1_555 1_555
O10 S3 1_555 1_555
S4 O24 1_555 1_555
O25 S4 1_555 1_555
O26 S4 1_555 1_555
C60 H40 1_555 1_555
C61 C60 1_555 1_555
H41 C61 1_555 1_555
C62 C61 1_555 1_555
H42 C62 1_555 1_555
C63 S4 1_555 1_555
C64 C63 1_555 1_555
Pd1A N1 1_555 1_555
N1A Pd1 1_555 1_555
N2A C3A 1_555 1_555
N3A C21A 1_555 1_555
N4A Pd1A 1_555 1_555
N5A Pd1A 1_555 1_555
C1A N1A 1_555 1_555
H1A C1A 1_555 1_555
C2A C4A 1_555 1_555
C3A C11A 1_555 1_555
C4A C6A 1_555 1_555
C5A C10A 1_555 1_555
C6A N2A 1_555 1_555
C7A N1A 1_555 1_555
H2A C7A 1_555 1_555
C8A H3A 1_555 1_555
C9A C1A 1_555 1_555
H4A C9A 1_555 1_555
C10A C25A 1_555 1_555
C11A C2A 1_555 1_555
C12A H5A 1_555 1_555
C13A N2A 1_555 1_555
C14A C9A 1_555 1_555
H6A C14A 1_555 1_555
C15A N5A 1_555 1_555
H7A C15A 1_555 1_555
C16A C2A 1_555 1_555
C17A C5A 1_555 1_555
C18A C5A 1_555 1_555
C19A C4A 1_555 1_555
H8A C19A 1_555 1_555
C20A C6A 1_555 1_555
H9A C20A 1_555 1_555
C21A C12A 1_555 1_555
C22A H10A 1_555 1_555
C23A N5A 1_555 1_555
H11A C23A 1_555 1_555
C24A C19A 1_555 1_555
H12A C24A 1_555 1_555
C25A N3A 1_555 1_555
C26A C20A 1_555 1_555
H13A C26A 1_555 1_555
C27A N3A 1_555 1_555
C28A C25A 1_555 1_555
H14A C28A 1_555 1_555
C29A C11A 1_555 1_555
H15A C29A 1_555 1_555
C30A C22A 1_555 1_555
H16A C30A 1_555 1_555
C31A C17A 1_555 1_555
H17A C31A 1_555 1_555
C32A C3A 1_555 1_555
H18A C32A 1_555 1_555
C33A C10A 1_555 1_555
H19A C33A 1_555 1_555
C34A N4A 1_555 1_555
C35A C34A 1_555 1_555
H20A C35A 1_555 1_555
H21A C35A 1_555 1_555
H22A C35A 1_555 1_555
C36A C21A 1_555 1_555
H23A C36A 1_555 1_555
C37A C18A 1_555 1_555
H24A C37A 1_555 1_555
C38A C15A 1_555 1_555
H25A C38A 1_555 1_555
C39A C33A 1_555 1_555
H26A C39A 1_555 1_555
C40A C27A 1_555 1_555
H27A C40A 1_555 1_555
C41A C8A 1_555 1_555
H28A C41A 1_555 1_555
C42A C40A 1_555 1_555
H29A C42A 1_555 1_555
C43A C31A 1_555 1_555
H30A C43A 1_555 1_555
C44A C28A 1_555 1_555
O1A Pd1A 1_555 1_555
S1A O2A 1_555 1_555
O3A S1A 1_555 1_555
C45A C46 1_555 1_555
H31A C45A 1_555 1_555
C46A C45 1_555 1_555
C47A H32A 1_555 1_555
C48A C45A 1_555 1_555
H33A C48A 1_555 1_555
C49A S1A 1_555 1_555
O4A S1A 1_555 1_555
S2A O5A 1_555 1_555
C50A C50 1_555 1_555
C51A C50 1_555 1_555
C52A C50A 1_555 1_555
H34A C52A 1_555 1_555
C53A C51A 1_555 1_555
H35A C53A 1_555 1_555
C54A C52A 1_555 1_555
H36A C54A 1_555 1_555
O6A S2A 1_555 1_555
O7A S2A 1_555 1_555
C55A C56 1_555 1_555
C56A C55 1_555 1_555
C57A C55A 1_555 1_555
H37A C57A 1_555 1_555
C58A C57A 1_555 1_555
H38A C58A 1_555 1_555
C59A C56A 1_555 1_555
H39A C59A 1_555 1_555
S3A C55A 1_555 1_555
O8A S3A 1_555 1_555
O9A S3A 1_555 1_555
O10A S3A 1_555 1_555
S4A O24A 1_555 1_555
O25A S4A 1_555 1_555
O26A S4A 1_555 1_555
C60A C64 1_555 1_555
H40A C60A 1_555 1_555
C61A C60A 1_555 1_555
H41A C61A 1_555 1_555
C62A C61A 1_555 1_555
H42A C62A 1_555 1_555
C63A S4A 1_555 1_555
C64A C60 1_555 1_555
C7 C16 1_555 1_555
C8 C13 1_555 1_555
C12 C13 1_555 1_555
C14 C16 1_555 1_555
C17 C27 1_555 1_555
C18 C23 1_555 1_555
C22 C32 1_555 1_555
C24 C26 1_555 1_555
C29 C30 1_555 1_555
C36 C41 1_555 1_555
C37 C38 1_555 1_555
C39 C44 1_555 1_555
C42 C43 1_555 1_555
C46 C46A 1_555 1_555
C47 C48 1_555 1_555
C47 C49 1_555 1_555
C51 C50A 1_555 1_555
C53 C54 1_555 1_555
C56 C56A 1_555 1_555
C62 C63 1_555 1_555
C64 C64A 1_555 1_555
C7A C16A 1_555 1_555
C8A C13A 1_555 1_555
C12A C13A 1_555 1_555
C14A C16A 1_555 1_555
C17A C27A 1_555 1_555
C18A C23A 1_555 1_555
C22A C32A 1_555 1_555
C24A C26A 1_555 1_555
C29A C30A 1_555 1_555
C36A C41A 1_555 1_555
C37A C38A 1_555 1_555
C39A C44A 1_555 1_555
C42A C43A 1_555 1_555
C46A C49A 1_555 1_555
C47A C48A 1_555 1_555
C47A C49A 1_555 1_555
S2A C51A 1_555 1_555
C53A C54A 1_555 1_555
C58A C59A 1_555 1_555
C62A C63A 1_555 1_555
C63A C64A 1_555 1_555

#END
