
#######################################################################
#
#                 Cambridge Crystallographic Data Centre
#                                CCDC 
#
#######################################################################
#
# If this CIF has been generated from an entry in the Cambridge 
# Structural Database, then it will include bibliographic, chemical, 
# crystal, experimental, refinement or atomic coordinate data resulting 
# from the CCDC's data processing and validation procedures.
#
#######################################################################

data_EYEVUB
_chemical_formula_moiety         'C184 H120 N16 Pd2 12+,12(N1 O3 1-),58(H2 O1)'
_chemical_name_systematic        
'tetrakis(\m-9-(pyridin-3-yl)-10-(7-(9-(pyridin-3-yl)acridinium-10-yl)-2-naphthyl)acridinium)-di-palladium(ii) dodecanitrate octapentacontahydrate'
_symmetry_cell_setting           tetragonal
_symmetry_space_group_name_H-M   'I 4 2 2'
_symmetry_Int_Tables_number      97
_space_group_name_Hall           'I 4 2'
loop_
_symmetry_equiv_pos_site_id
_symmetry_equiv_pos_as_xyz
1 x,y,z
2 -x,-y,z
3 -y,x,z
4 y,-x,z
5 -x,y,-z
6 x,-y,-z
7 y,x,-z
8 -y,-x,-z
9 1/2+x,1/2+y,1/2+z
10 1/2-x,1/2-y,1/2+z
11 1/2-y,1/2+x,1/2+z
12 1/2+y,1/2-x,1/2+z
13 1/2-x,1/2+y,1/2-z
14 1/2+x,1/2-y,1/2-z
15 1/2+y,1/2+x,1/2-z
16 1/2-y,1/2-x,1/2-z
_cell_length_a                   24.072(5)
_cell_length_b                   24.072(5)
_cell_length_c                   21.785(4)
_cell_angle_alpha                90
_cell_angle_beta                 90
_cell_angle_gamma                90
_cell_volume                     12623.6
_exptl_crystal_colour            yellow
_exptl_crystal_description       prism
_cell_formula_units_Z            2
loop_
_atom_site_label
_atom_site_type_symbol
_atom_site_fract_x
_atom_site_fract_y
_atom_site_fract_z
Pd1 Pd 0.5000 0.5000 0.14742(12)
N1 N 0.7165(6) 0.3353(5) 0.3378(7)
N2 N 0.5821(7) 0.4831(6) 0.1481(6)
C1 C 0.7122(3) 0.2878(3) 0.5000
C2 C 0.6619(5) 0.4348(9) 0.1914(10)
C3 C 0.6833(7) 0.3126(4) 0.2932(6)
C4 C 0.7365(7) 0.3883(6) 0.3323(6)
C5 C 0.6056(5) 0.4487(8) 0.1910(9)
H1 H 0.5824 0.4336 0.2220
C6 C 0.7531(3) 0.2469(3) 0.5000
C7 C 0.6652(7) 0.2579(5) 0.2995(7)
H2 H 0.6764 0.2365 0.3341
C8 C 0.6992(7) 0.3160(7) 0.4459(4)
H3 H 0.6702 0.3428 0.4454
C9 C 0.7699(6) 0.2635(6) 0.3901(6)
H4 H 0.7883 0.2540 0.3530
C10 C 0.6307(7) 0.2347(7) 0.2550(6)
H5 H 0.6163 0.1982 0.2598
C11 C 0.6356(7) 0.3209(5) 0.1964(7)
H6 H 0.6261 0.3417 0.1609
C12 C 0.7723(7) 0.4083(5) 0.3776(8)
H7 H 0.7834 0.3844 0.4100
C13 C 0.6839(7) 0.4003(4) 0.2393(7)
C14 C 0.7184(7) 0.4224(4) 0.2846(6)
C15 C 0.6680(7) 0.3447(4) 0.2426(5)
C16 C 0.7290(6) 0.3045(6) 0.3925(6)
C17 C 0.6150(5) 0.5039(11) 0.1022(8)
H8 H 0.6003 0.5279 0.0715
C18 C 0.6708(6) 0.4885(12) 0.1024(12)
H9 H 0.6936 0.5018 0.0700
C19 C 0.7821(7) 0.2372(8) 0.4456(4)
H10 H 0.8117 0.2111 0.4463
C20 C 0.6940(13) 0.4570(12) 0.1440(14)
H11 H 0.7327 0.4492 0.1421
C21 C 0.7920(10) 0.4628(5) 0.3762(8)
H12 H 0.8178 0.4759 0.4058
C22 C 0.7364(8) 0.4775(5) 0.2843(8)
H13 H 0.7241 0.5019 0.2528
C23 C 0.7723(7) 0.4972(8) 0.3296(6)
H14 H 0.7836 0.5350 0.3286
C24 C 0.6176(9) 0.2662(5) 0.2031(7)
H15 H 0.5959 0.2498 0.1715
N1G N 0.6647(5) 0.2835(6) 0.6622(7)
N2G N 0.5169(6) 0.4179(7) 0.8519(6)
C2G C 0.5652(9) 0.3381(5) 0.8086(10)
C3G C 0.6874(4) 0.3167(7) 0.7068(6)
C4G C 0.6117(6) 0.2635(7) 0.6677(6)
C5G C 0.5513(8) 0.3944(5) 0.8090(9)
H1G H 0.5664 0.4176 0.7780
C7G C 0.7421(5) 0.3348(7) 0.7005(7)
H2G H 0.7635 0.3236 0.6659
C8G C 0.6840(7) 0.3008(7) 0.5541(4)
H3G H 0.6572 0.3298 0.5546
C9G C 0.7365(6) 0.2301(6) 0.6099(6)
H4G H 0.7460 0.2117 0.6470
C10G C 0.7653(7) 0.3693(7) 0.7450(6)
H5G H 0.8018 0.3837 0.7402
C11G C 0.6791(5) 0.3644(7) 0.8036(7)
H6G H 0.6583 0.3739 0.8391
C12G C 0.5917(5) 0.2277(7) 0.6224(8)
H7G H 0.6156 0.2166 0.5900
C13G C 0.5997(4) 0.3161(7) 0.7607(7)
C14G C 0.5776(4) 0.2816(7) 0.7154(6)
C15G C 0.6553(4) 0.3320(7) 0.7574(5)
C16G C 0.6955(6) 0.2710(6) 0.6075(6)
C17G C 0.4961(11) 0.3850(5) 0.8978(8)
H8G H 0.4721 0.3997 0.9285
C18G C 0.5115(12) 0.3292(6) 0.8976(12)
H9G H 0.4982 0.3064 0.9300
C19G C 0.7628(8) 0.2179(7) 0.5544(4)
H10G H 0.7889 0.1883 0.5537
C20G C 0.5430(12) 0.3060(13) 0.8560(14)
H11G H 0.5508 0.2673 0.8579
C21G C 0.5372(5) 0.2080(10) 0.6238(8)
H12G H 0.5241 0.1822 0.5942
C22G C 0.5225(5) 0.2636(8) 0.7157(8)
H13G H 0.4981 0.2759 0.7472
C23G C 0.5028(8) 0.2277(7) 0.6704(6)
H14G H 0.4650 0.2164 0.6714
C24G C 0.7338(5) 0.3824(9) 0.7969(7)
H15G H 0.7502 0.4041 0.8285
N1A N 0.2835(6) 0.6647(5) 0.3378(7)
N2A N 0.4179(7) 0.5169(6) 0.1481(6)
C1A C 0.2878(3) 0.7122(3) 0.5000
C2A C 0.3381(5) 0.5652(9) 0.1914(10)
C3A C 0.3167(7) 0.6874(4) 0.2932(6)
C4A C 0.2635(7) 0.6117(6) 0.3323(6)
C5A C 0.3944(5) 0.5513(8) 0.1910(9)
H1A H 0.4176 0.5664 0.2220
C6A C 0.2469(3) 0.7531(3) 0.5000
C7A C 0.3348(7) 0.7421(5) 0.2995(7)
H2A H 0.3236 0.7635 0.3341
C8A C 0.3008(7) 0.6840(7) 0.4459(4)
H3A H 0.3298 0.6572 0.4454
C9A C 0.2301(6) 0.7365(6) 0.3901(6)
H4A H 0.2117 0.7460 0.3530
C10A C 0.3693(7) 0.7653(7) 0.2550(6)
H5A H 0.3837 0.8018 0.2598
C11A C 0.3644(7) 0.6791(5) 0.1964(7)
H6A H 0.3739 0.6583 0.1609
C12A C 0.2277(7) 0.5917(5) 0.3776(8)
H7A H 0.2166 0.6156 0.4100
C13A C 0.3161(7) 0.5997(4) 0.2393(7)
C14A C 0.2816(7) 0.5776(4) 0.2846(6)
C15A C 0.3320(7) 0.6553(4) 0.2426(5)
C16A C 0.2710(6) 0.6955(6) 0.3925(6)
C17A C 0.3850(5) 0.4961(11) 0.1022(8)
H8A H 0.3997 0.4721 0.0715
C18A C 0.3292(6) 0.5115(12) 0.1024(12)
H9A H 0.3064 0.4982 0.0700
C19A C 0.2179(7) 0.7628(8) 0.4456(4)
H10A H 0.1883 0.7889 0.4463
C20A C 0.3060(13) 0.5430(12) 0.1440(14)
H11A H 0.2673 0.5508 0.1421
C21A C 0.2080(10) 0.5372(5) 0.3762(8)
H12A H 0.1822 0.5241 0.4058
C22A C 0.2636(8) 0.5225(5) 0.2843(8)
H13A H 0.2759 0.4981 0.2528
C23A C 0.2277(7) 0.5028(8) 0.3296(6)
H14A H 0.2164 0.4650 0.3286
C24A C 0.3824(9) 0.7338(5) 0.2031(7)
H15A H 0.4041 0.7502 0.1715
N1F N 0.3353(5) 0.7165(6) 0.6622(7)
N2F N 0.4831(6) 0.5821(7) 0.8519(6)
C2F C 0.4348(9) 0.6619(5) 0.8086(10)
C3F C 0.3126(4) 0.6833(7) 0.7068(6)
C4F C 0.3883(6) 0.7365(7) 0.6677(6)
C5F C 0.4487(8) 0.6056(5) 0.8090(9)
H1F H 0.4336 0.5824 0.7780
C7F C 0.2579(5) 0.6652(7) 0.7005(7)
H2F H 0.2365 0.6764 0.6659
C8F C 0.3160(7) 0.6992(7) 0.5541(4)
H3F H 0.3428 0.6702 0.5546
C9F C 0.2635(6) 0.7699(6) 0.6099(6)
H4F H 0.2540 0.7883 0.6470
C10F C 0.2347(7) 0.6307(7) 0.7450(6)
H5F H 0.1982 0.6163 0.7402
C11F C 0.3209(5) 0.6356(7) 0.8036(7)
H6F H 0.3417 0.6261 0.8391
C12F C 0.4083(5) 0.7723(7) 0.6224(8)
H7F H 0.3844 0.7834 0.5900
C13F C 0.4003(4) 0.6839(7) 0.7607(7)
C14F C 0.4224(4) 0.7184(7) 0.7154(6)
C15F C 0.3447(4) 0.6680(7) 0.7574(5)
C16F C 0.3045(6) 0.7290(6) 0.6075(6)
C17F C 0.5039(11) 0.6150(5) 0.8978(8)
H8F H 0.5279 0.6003 0.9285
C18F C 0.4885(12) 0.6708(6) 0.8976(12)
H9F H 0.5018 0.6936 0.9300
C19F C 0.2372(8) 0.7821(7) 0.5544(4)
H10F H 0.2111 0.8117 0.5537
C20F C 0.4570(12) 0.6940(13) 0.8560(14)
H11F H 0.4492 0.7327 0.8579
C21F C 0.4628(5) 0.7920(10) 0.6238(8)
H12F H 0.4759 0.8178 0.5942
C22F C 0.4775(5) 0.7364(8) 0.7157(8)
H13F H 0.5019 0.7241 0.7472
C23F C 0.4972(8) 0.7723(7) 0.6704(6)
H14F H 0.5350 0.7836 0.6714
C24F C 0.2662(5) 0.6176(9) 0.7969(7)
H15F H 0.2498 0.5959 0.8285
N1B N 0.6647(5) 0.7165(6) 0.3378(7)
N2B N 0.5169(6) 0.5821(7) 0.1481(6)
C1B C 0.7122(3) 0.7122(3) 0.5000
C2B C 0.5652(9) 0.6619(5) 0.1914(10)
C3B C 0.6874(4) 0.6833(7) 0.2932(6)
C4B C 0.6117(6) 0.7365(7) 0.3323(6)
C5B C 0.5513(8) 0.6056(5) 0.1910(9)
H1B H 0.5664 0.5824 0.2220
C6B C 0.7531(3) 0.7531(3) 0.5000
C7B C 0.7421(5) 0.6652(7) 0.2995(7)
H2B H 0.7635 0.6764 0.3341
C8B C 0.6840(7) 0.6992(7) 0.4459(4)
H3B H 0.6572 0.6702 0.4454
C9B C 0.7365(6) 0.7699(6) 0.3901(6)
H4B H 0.7460 0.7883 0.3530
C10B C 0.7653(7) 0.6307(7) 0.2550(6)
H5B H 0.8018 0.6163 0.2598
C11B C 0.6791(5) 0.6356(7) 0.1964(7)
H6B H 0.6583 0.6261 0.1609
C12B C 0.5917(5) 0.7723(7) 0.3776(8)
H7B H 0.6156 0.7834 0.4100
C13B C 0.5997(4) 0.6839(7) 0.2393(7)
C14B C 0.5776(4) 0.7184(7) 0.2846(6)
C15B C 0.6553(4) 0.6680(7) 0.2426(5)
C16B C 0.6955(6) 0.7290(6) 0.3925(6)
C17B C 0.4961(11) 0.6150(5) 0.1022(8)
H8B H 0.4721 0.6003 0.0715
C18B C 0.5115(12) 0.6708(6) 0.1024(12)
H9B H 0.4982 0.6936 0.0700
C19B C 0.7628(8) 0.7821(7) 0.4456(4)
H10B H 0.7889 0.8117 0.4463
C20B C 0.5430(12) 0.6940(13) 0.1440(14)
H11B H 0.5508 0.7327 0.1421
C21B C 0.5372(5) 0.7920(10) 0.3762(8)
H12B H 0.5241 0.8178 0.4058
C22B C 0.5225(5) 0.7364(8) 0.2843(8)
H13B H 0.4981 0.7241 0.2528
C23B C 0.5028(8) 0.7723(7) 0.3296(6)
H14B H 0.4650 0.7836 0.3286
C24B C 0.7338(5) 0.6176(9) 0.2031(7)
H15B H 0.7502 0.5959 0.1715
N1E N 0.7165(6) 0.6647(5) 0.6622(7)
N2E N 0.5821(7) 0.5169(6) 0.8519(6)
C2E C 0.6619(5) 0.5652(9) 0.8086(10)
C3E C 0.6833(7) 0.6874(4) 0.7068(6)
C4E C 0.7365(7) 0.6117(6) 0.6677(6)
C5E C 0.6056(5) 0.5513(8) 0.8090(9)
H1E H 0.5824 0.5664 0.7780
C7E C 0.6652(7) 0.7421(5) 0.7005(7)
H2E H 0.6764 0.7635 0.6659
C8E C 0.6992(7) 0.6840(7) 0.5541(4)
H3E H 0.6702 0.6572 0.5546
C9E C 0.7699(6) 0.7365(6) 0.6099(6)
H4E H 0.7883 0.7460 0.6470
C10E C 0.6307(7) 0.7653(7) 0.7450(6)
H5E H 0.6163 0.8018 0.7402
C11E C 0.6356(7) 0.6791(5) 0.8036(7)
H6E H 0.6261 0.6583 0.8391
C12E C 0.7723(7) 0.5917(5) 0.6224(8)
H7E H 0.7834 0.6156 0.5900
C13E C 0.6839(7) 0.5997(4) 0.7607(7)
C14E C 0.7184(7) 0.5776(4) 0.7154(6)
C15E C 0.6680(7) 0.6553(4) 0.7574(5)
C16E C 0.7290(6) 0.6955(6) 0.6075(6)
C17E C 0.6150(5) 0.4961(11) 0.8978(8)
H8E H 0.6003 0.4721 0.9285
C18E C 0.6708(6) 0.5115(12) 0.8976(12)
H9E H 0.6936 0.4982 0.9300
C19E C 0.7821(7) 0.7628(8) 0.5544(4)
H10E H 0.8117 0.7889 0.5537
C20E C 0.6940(13) 0.5430(12) 0.8560(14)
H11E H 0.7327 0.5508 0.8579
C21E C 0.7920(10) 0.5372(5) 0.6238(8)
H12E H 0.8178 0.5241 0.5942
C22E C 0.7364(8) 0.5225(5) 0.7157(8)
H13E H 0.7241 0.4981 0.7472
C23E C 0.7723(7) 0.5028(8) 0.6704(6)
H14E H 0.7836 0.4650 0.6714
C24E C 0.6176(9) 0.7338(5) 0.7969(7)
H15E H 0.5959 0.7502 0.8285
N1C N 0.3353(5) 0.2835(6) 0.3378(7)
N2C N 0.4831(6) 0.4179(7) 0.1481(6)
C1C C 0.2878(3) 0.2878(3) 0.5000
C2C C 0.4348(9) 0.3381(5) 0.1914(10)
C3C C 0.3126(4) 0.3167(7) 0.2932(6)
C4C C 0.3883(6) 0.2635(7) 0.3323(6)
C5C C 0.4487(8) 0.3944(5) 0.1910(9)
H1C H 0.4336 0.4176 0.2220
C6C C 0.2469(3) 0.2469(3) 0.5000
C7C C 0.2579(5) 0.3348(7) 0.2995(7)
H2C H 0.2365 0.3236 0.3341
C8C C 0.3160(7) 0.3008(7) 0.4459(4)
H3C H 0.3428 0.3298 0.4454
C9C C 0.2635(6) 0.2301(6) 0.3901(6)
H4C H 0.2540 0.2117 0.3530
C10C C 0.2347(7) 0.3693(7) 0.2550(6)
H5C H 0.1982 0.3837 0.2598
C11C C 0.3209(5) 0.3644(7) 0.1964(7)
H6C H 0.3417 0.3739 0.1609
C12C C 0.4083(5) 0.2277(7) 0.3776(8)
H7C H 0.3844 0.2166 0.4100
C13C C 0.4003(4) 0.3161(7) 0.2393(7)
C14C C 0.4224(4) 0.2816(7) 0.2846(6)
C15C C 0.3447(4) 0.3320(7) 0.2426(5)
C16C C 0.3045(6) 0.2710(6) 0.3925(6)
C17C C 0.5039(11) 0.3850(5) 0.1022(8)
H8C H 0.5279 0.3997 0.0715
C18C C 0.4885(12) 0.3292(6) 0.1024(12)
H9C H 0.5018 0.3064 0.0700
C19C C 0.2372(8) 0.2179(7) 0.4456(4)
H10C H 0.2111 0.1883 0.4463
C20C C 0.4570(12) 0.3060(13) 0.1440(14)
H11C H 0.4492 0.2673 0.1421
C21C C 0.4628(5) 0.2080(10) 0.3762(8)
H12C H 0.4759 0.1822 0.4058
C22C C 0.4775(5) 0.2636(8) 0.2843(8)
H13C H 0.5019 0.2759 0.2528
C23C C 0.4972(8) 0.2277(7) 0.3296(6)
H14C H 0.5350 0.2164 0.3286
C24C C 0.2662(5) 0.3824(9) 0.2031(7)
H15C H 0.2498 0.4041 0.1715
N1D N 0.2835(6) 0.3353(5) 0.6622(7)
N2D N 0.4179(7) 0.4831(6) 0.8519(6)
C2D C 0.3381(5) 0.4348(9) 0.8086(10)
C3D C 0.3167(7) 0.3126(4) 0.7068(6)
C4D C 0.2635(7) 0.3883(6) 0.6677(6)
C5D C 0.3944(5) 0.4487(8) 0.8090(9)
H1D H 0.4176 0.4336 0.7780
C7D C 0.3348(7) 0.2579(5) 0.7005(7)
H2D H 0.3236 0.2365 0.6659
C8D C 0.3008(7) 0.3160(7) 0.5541(4)
H3D H 0.3298 0.3428 0.5546
C9D C 0.2301(6) 0.2635(6) 0.6099(6)
H4D H 0.2117 0.2540 0.6470
C10D C 0.3693(7) 0.2347(7) 0.7450(6)
H5D H 0.3837 0.1982 0.7402
C11D C 0.3644(7) 0.3209(5) 0.8036(7)
H6D H 0.3739 0.3417 0.8391
C12D C 0.2277(7) 0.4083(5) 0.6224(8)
H7D H 0.2166 0.3844 0.5900
C13D C 0.3161(7) 0.4003(4) 0.7607(7)
C14D C 0.2816(7) 0.4224(4) 0.7154(6)
C15D C 0.3320(7) 0.3447(4) 0.7574(5)
C16D C 0.2710(6) 0.3045(6) 0.6075(6)
C17D C 0.3850(5) 0.5039(11) 0.8978(8)
H8D H 0.3997 0.5279 0.9285
C18D C 0.3292(6) 0.4885(12) 0.8976(12)
H9D H 0.3064 0.5018 0.9300
C19D C 0.2179(7) 0.2372(8) 0.5544(4)
H10D H 0.1883 0.2111 0.5537
C20D C 0.3060(13) 0.4570(12) 0.8560(14)
H11D H 0.2673 0.4492 0.8579
C21D C 0.2080(10) 0.4628(5) 0.6238(8)
H12D H 0.1822 0.4759 0.5942
C22D C 0.2636(8) 0.4775(5) 0.7157(8)
H13D H 0.2759 0.5019 0.7472
C23D C 0.2277(7) 0.4972(8) 0.6704(6)
H14D H 0.2164 0.5350 0.6714
C24D C 0.3824(9) 0.2662(5) 0.7969(7)
H15D H 0.4041 0.2498 0.8285
Pd1D Pd 0.5000 0.5000 0.85258(12)
N3 N 0.3826(8) 0.3826(8) 1.0000
O1 O 0.4200(9) 0.4200(9) 1.0000
O2 O 0.3826(11) 0.3508(10) 0.9531(10)
O2F O 0.3508(10) 0.3826(11) 1.0469(10)
O3 O 0.5970(16) 0.9100(18) 0.6875(19)
O4 O 0.4779(19) 0.927(2) 0.663(2)
O5 O 0.5000 0.5000 0.711(3)
N4 N 0.2470(18) 0.584(2) 0.541(3)
O6 O 0.2823(17) 0.5478(18) 0.523(2)
O7 O 0.259(2) 0.616(3) 0.585(3)
O8 O 0.1972(16) 0.584(2) 0.520(2)
O9 O 0.4096(18) 0.2315(19) 0.971(2)
O10 O 0.547(2) 0.453(2) 0.5000
O11 O 0.829(2) 0.470(3) 0.866(3)
O12 O 0.945(4) 0.345(4) 0.465(4)
O13? O 0.3349(12) 0.398(2) 1.020(2)
O14? O 0.1498(18) 0.6592(19) 0.6004(19)
O15? O 0.600(3) 0.484(3) 0.697(3)
O16? O 0.622(4) 0.449(4) 0.680(4)
O17? O 0.825(2) 0.519(3) 0.836(3)
O18? O 0.917(3) 0.453(3) 0.465(3)
N5? N 0.169(2) 0.358(2) 0.770(3)
O19? O 0.1233(11) 0.3767(11) 0.7500
O20? O 0.1938(18) 0.3825(17) 0.814(2)
O21? O 0.1882(11) 0.3118(11) 0.7500
O22? O 0.631(3) 0.421(4) 0.632(4)
O23? O 0.591(3) 0.401(3) 0.640(3)
loop_
_geom_bond_atom_site_label_1
_geom_bond_atom_site_label_2
_geom_bond_site_symmetry_1
_geom_bond_site_symmetry_2
Pd1 N2 1_555 1_555
N1 C3 1_555 1_555
N2 C5 1_555 1_555
C1 C6 1_555 1_555
C2 C5 1_555 1_555
C3 C7 1_555 1_555
C4 N1 1_555 1_555
C5 H1 1_555 1_555
C6 C19 1_555 1_555
C7 H2 1_555 1_555
C8 C1 1_555 1_555
H3 C8 1_555 1_555
C9 H4 1_555 1_555
C10 C7 1_555 1_555
H5 C10 1_555 1_555
C11 H6 1_555 1_555
C12 C4 1_555 1_555
H7 C12 1_555 1_555
C13 C2 1_555 1_555
C14 C4 1_555 1_555
C15 C3 1_555 1_555
C16 N1 1_555 1_555
C17 N2 1_555 1_555
H8 C17 1_555 1_555
C18 C17 1_555 1_555
H9 C18 1_555 1_555
C19 C9 1_555 1_555
H10 C19 1_555 1_555
C20 C2 1_555 1_555
H11 C20 1_555 1_555
C21 C12 1_555 1_555
H12 C21 1_555 1_555
C22 C14 1_555 1_555
H13 C22 1_555 1_555
C23 C21 1_555 1_555
H14 C23 1_555 1_555
C24 C10 1_555 1_555
H15 C24 1_555 1_555
N3 O1 1_555 1_555
O2 N3 1_555 1_555
N4 O6 1_555 1_555
O7 N4 1_555 1_555
O8 N4 1_555 1_555
N1G C3G 1_555 1_555
N2G C5G 1_555 1_555
C2G C5G 1_555 1_555
C3G C7G 1_555 1_555
C4G N1G 1_555 1_555
C5G H1G 1_555 1_555
C7G H2G 1_555 1_555
C8G C1 1_555 1_555
H3G C8G 1_555 1_555
C9G H4G 1_555 1_555
C10G C7G 1_555 1_555
H5G C10G 1_555 1_555
C11G H6G 1_555 1_555
C12G C4G 1_555 1_555
H7G C12G 1_555 1_555
C13G C2G 1_555 1_555
C14G C4G 1_555 1_555
C15G C3G 1_555 1_555
C16G N1G 1_555 1_555
C17G N2G 1_555 1_555
H8G C17G 1_555 1_555
C18G C17G 1_555 1_555
H9G C18G 1_555 1_555
C19G C6 1_555 1_555
H10G C19G 1_555 1_555
C20G C2G 1_555 1_555
H11G C20G 1_555 1_555
C21G C12G 1_555 1_555
H12G C21G 1_555 1_555
C22G C14G 1_555 1_555
H13G C22G 1_555 1_555
C23G C21G 1_555 1_555
H14G C23G 1_555 1_555
C24G C10G 1_555 1_555
H15G C24G 1_555 1_555
N1A C3A 1_555 1_555
N2A Pd1 1_555 1_555
C1A C6A 1_555 1_555
C2A C5A 1_555 1_555
C3A C7A 1_555 1_555
C4A N1A 1_555 1_555
C5A N2A 1_555 1_555
H1A C5A 1_555 1_555
C6A C19A 1_555 1_555
C7A H2A 1_555 1_555
C8A C1A 1_555 1_555
H3A C8A 1_555 1_555
C9A H4A 1_555 1_555
C10A C7A 1_555 1_555
H5A C10A 1_555 1_555
C11A H6A 1_555 1_555
C12A C4A 1_555 1_555
H7A C12A 1_555 1_555
C13A C2A 1_555 1_555
C14A C4A 1_555 1_555
C15A C3A 1_555 1_555
C16A N1A 1_555 1_555
C17A N2A 1_555 1_555
H8A C17A 1_555 1_555
C18A C17A 1_555 1_555
H9A C18A 1_555 1_555
C19A C9A 1_555 1_555
H10A C19A 1_555 1_555
C20A C2A 1_555 1_555
H11A C20A 1_555 1_555
C21A C12A 1_555 1_555
H12A C21A 1_555 1_555
C22A C14A 1_555 1_555
H13A C22A 1_555 1_555
C23A C21A 1_555 1_555
H14A C23A 1_555 1_555
C24A C10A 1_555 1_555
H15A C24A 1_555 1_555
N1F C3F 1_555 1_555
N2F C5F 1_555 1_555
C2F C5F 1_555 1_555
C3F C7F 1_555 1_555
C4F N1F 1_555 1_555
C5F H1F 1_555 1_555
C7F H2F 1_555 1_555
C8F C1A 1_555 1_555
H3F C8F 1_555 1_555
C9F H4F 1_555 1_555
C10F C7F 1_555 1_555
H5F C10F 1_555 1_555
C11F H6F 1_555 1_555
C12F C4F 1_555 1_555
H7F C12F 1_555 1_555
C13F C2F 1_555 1_555
C14F C4F 1_555 1_555
C15F C3F 1_555 1_555
C16F N1F 1_555 1_555
C17F N2F 1_555 1_555
H8F C17F 1_555 1_555
C18F C17F 1_555 1_555
H9F C18F 1_555 1_555
C19F C6A 1_555 1_555
H10F C19F 1_555 1_555
C20F C2F 1_555 1_555
H11F C20F 1_555 1_555
C21F C12F 1_555 1_555
H12F C21F 1_555 1_555
C22F C14F 1_555 1_555
H13F C22F 1_555 1_555
C23F C21F 1_555 1_555
H14F C23F 1_555 1_555
C24F C10F 1_555 1_555
H15F C24F 1_555 1_555
N1B C3B 1_555 1_555
N2B Pd1 1_555 1_555
C1B C6B 1_555 1_555
C2B C5B 1_555 1_555
C3B C7B 1_555 1_555
C4B N1B 1_555 1_555
C5B N2B 1_555 1_555
H1B C5B 1_555 1_555
C6B C19B 1_555 1_555
C7B H2B 1_555 1_555
C8B C1B 1_555 1_555
H3B C8B 1_555 1_555
C9B H4B 1_555 1_555
C10B C7B 1_555 1_555
H5B C10B 1_555 1_555
C11B H6B 1_555 1_555
C12B C4B 1_555 1_555
H7B C12B 1_555 1_555
C13B C2B 1_555 1_555
C14B C4B 1_555 1_555
C15B C3B 1_555 1_555
C16B N1B 1_555 1_555
C17B N2B 1_555 1_555
H8B C17B 1_555 1_555
C18B C17B 1_555 1_555
H9B C18B 1_555 1_555
C19B C9B 1_555 1_555
H10B C19B 1_555 1_555
C20B C2B 1_555 1_555
H11B C20B 1_555 1_555
C21B C12B 1_555 1_555
H12B C21B 1_555 1_555
C22B C14B 1_555 1_555
H13B C22B 1_555 1_555
C23B C21B 1_555 1_555
H14B C23B 1_555 1_555
C24B C10B 1_555 1_555
H15B C24B 1_555 1_555
N1E C3E 1_555 1_555
N2E C5E 1_555 1_555
C2E C5E 1_555 1_555
C3E C7E 1_555 1_555
C4E N1E 1_555 1_555
C5E H1E 1_555 1_555
C7E H2E 1_555 1_555
C8E C1B 1_555 1_555
H3E C8E 1_555 1_555
C9E H4E 1_555 1_555
C10E C7E 1_555 1_555
H5E C10E 1_555 1_555
C11E H6E 1_555 1_555
C12E C4E 1_555 1_555
H7E C12E 1_555 1_555
C13E C2E 1_555 1_555
C14E C4E 1_555 1_555
C15E C3E 1_555 1_555
C16E N1E 1_555 1_555
C17E N2E 1_555 1_555
H8E C17E 1_555 1_555
C18E C17E 1_555 1_555
H9E C18E 1_555 1_555
C19E C6B 1_555 1_555
H10E C19E 1_555 1_555
C20E C2E 1_555 1_555
H11E C20E 1_555 1_555
C21E C12E 1_555 1_555
H12E C21E 1_555 1_555
C22E C14E 1_555 1_555
H13E C22E 1_555 1_555
C23E C21E 1_555 1_555
H14E C23E 1_555 1_555
C24E C10E 1_555 1_555
H15E C24E 1_555 1_555
N1C C3C 1_555 1_555
N2C Pd1 1_555 1_555
C1C C6C 1_555 1_555
C2C C5C 1_555 1_555
C3C C7C 1_555 1_555
C4C N1C 1_555 1_555
C5C N2C 1_555 1_555
H1C C5C 1_555 1_555
C6C C19C 1_555 1_555
C7C H2C 1_555 1_555
C8C C1C 1_555 1_555
H3C C8C 1_555 1_555
C9C H4C 1_555 1_555
C10C C7C 1_555 1_555
H5C C10C 1_555 1_555
C11C H6C 1_555 1_555
C12C C4C 1_555 1_555
H7C C12C 1_555 1_555
C13C C2C 1_555 1_555
C14C C4C 1_555 1_555
C15C C3C 1_555 1_555
C16C N1C 1_555 1_555
C17C N2C 1_555 1_555
H8C C17C 1_555 1_555
C18C C17C 1_555 1_555
H9C C18C 1_555 1_555
C19C C9C 1_555 1_555
H10C C19C 1_555 1_555
C20C C2C 1_555 1_555
H11C C20C 1_555 1_555
C21C C12C 1_555 1_555
H12C C21C 1_555 1_555
C22C C14C 1_555 1_555
H13C C22C 1_555 1_555
C23C C21C 1_555 1_555
H14C C23C 1_555 1_555
C24C C10C 1_555 1_555
H15C C24C 1_555 1_555
N1D C3D 1_555 1_555
N2D C5D 1_555 1_555
C2D C5D 1_555 1_555
C3D C7D 1_555 1_555
C4D N1D 1_555 1_555
C5D H1D 1_555 1_555
C7D H2D 1_555 1_555
C8D C1C 1_555 1_555
H3D C8D 1_555 1_555
C9D H4D 1_555 1_555
C10D C7D 1_555 1_555
H5D C10D 1_555 1_555
C11D H6D 1_555 1_555
C12D C4D 1_555 1_555
H7D C12D 1_555 1_555
C13D C2D 1_555 1_555
C14D C4D 1_555 1_555
C15D C3D 1_555 1_555
C16D N1D 1_555 1_555
C17D N2D 1_555 1_555
H8D C17D 1_555 1_555
C18D C17D 1_555 1_555
H9D C18D 1_555 1_555
C19D C6C 1_555 1_555
H10D C19D 1_555 1_555
C20D C2D 1_555 1_555
H11D C20D 1_555 1_555
C21D C12D 1_555 1_555
H12D C21D 1_555 1_555
C22D C14D 1_555 1_555
H13D C22D 1_555 1_555
C23D C21D 1_555 1_555
H14D C23D 1_555 1_555
C24D C10D 1_555 1_555
H15D C24D 1_555 1_555
Pd1D N2G 1_555 1_555
O2F N3 1_555 1_555
C8 C16 1_555 1_555
C9 C16 1_555 1_555
C11 C15 1_555 1_555
C11 C24 1_555 1_555
C13 C14 1_555 1_555
C13 C15 1_555 1_555
C18 C20 1_555 1_555
C22 C23 1_555 1_555
C8G C16G 1_555 1_555
C9G C16G 1_555 1_555
C9G C19G 1_555 1_555
C11G C15G 1_555 1_555
C11G C24G 1_555 1_555
C13G C14G 1_555 1_555
C13G C15G 1_555 1_555
C18G C20G 1_555 1_555
C22G C23G 1_555 1_555
C8A C16A 1_555 1_555
C9A C16A 1_555 1_555
C11A C15A 1_555 1_555
C11A C24A 1_555 1_555
C13A C14A 1_555 1_555
C13A C15A 1_555 1_555
C18A C20A 1_555 1_555
C22A C23A 1_555 1_555
N2F Pd1D 1_555 1_555
C8F C16F 1_555 1_555
C9F C16F 1_555 1_555
C9F C19F 1_555 1_555
C11F C15F 1_555 1_555
C11F C24F 1_555 1_555
C13F C14F 1_555 1_555
C13F C15F 1_555 1_555
C18F C20F 1_555 1_555
C22F C23F 1_555 1_555
C8B C16B 1_555 1_555
C9B C16B 1_555 1_555
C11B C15B 1_555 1_555
C11B C24B 1_555 1_555
C13B C14B 1_555 1_555
C13B C15B 1_555 1_555
C18B C20B 1_555 1_555
C22B C23B 1_555 1_555
N2E Pd1D 1_555 1_555
C8E C16E 1_555 1_555
C9E C16E 1_555 1_555
C9E C19E 1_555 1_555
C11E C15E 1_555 1_555
C11E C24E 1_555 1_555
C13E C14E 1_555 1_555
C13E C15E 1_555 1_555
C18E C20E 1_555 1_555
C22E C23E 1_555 1_555
C8C C16C 1_555 1_555
C9C C16C 1_555 1_555
C11C C15C 1_555 1_555
C11C C24C 1_555 1_555
C13C C14C 1_555 1_555
C13C C15C 1_555 1_555
C18C C20C 1_555 1_555
C22C C23C 1_555 1_555
N2D Pd1D 1_555 1_555
C8D C16D 1_555 1_555
C9D C16D 1_555 1_555
C9D C19D 1_555 1_555
C11D C15D 1_555 1_555
C11D C24D 1_555 1_555
C13D C14D 1_555 1_555
C13D C15D 1_555 1_555
C18D C20D 1_555 1_555
C22D C23D 1_555 1_555

#END
