
#######################################################################
#
#                 Cambridge Crystallographic Data Centre
#                                CCDC 
#
#######################################################################
#
# If this CIF has been generated from an entry in the Cambridge 
# Structural Database, then it will include bibliographic, chemical, 
# crystal, experimental, refinement or atomic coordinate data resulting 
# from the CCDC's data processing and validation procedures.
#
#######################################################################

data_EYEWAI
_chemical_formula_moiety         
'C168 H112 N16 Pd2 10+,4(C2 H3 N1),10(B1 F4 1-),5(H2 O1)'
_chemical_name_systematic        
'tetrakis(\m-9-(pyridin-3-yl)-10-(3-(9-(pyridin-3-yl)acridinium-10-yl)phenyl)acridinium)-di-palladium decakis(tetrafluoroborate) acetonitrile solvate pentahydrate'
_symmetry_cell_setting           monoclinic
_symmetry_space_group_name_H-M   'C 2/c'
_symmetry_Int_Tables_number      15
_space_group_name_Hall           '-C 2yn'
loop_
_symmetry_equiv_pos_site_id
_symmetry_equiv_pos_as_xyz
1 x,y,z
2 -x,y,1/2-z
3 1/2+x,1/2+y,z
4 1/2-x,1/2+y,1/2-z
5 -x,-y,-z
6 x,-y,1/2+z
7 1/2-x,1/2-y,-z
8 1/2+x,1/2-y,1/2+z
_cell_length_a                   29.3490(13)
_cell_length_b                   22.9515(10)
_cell_length_c                   30.9665(13)
_cell_angle_alpha                90
_cell_angle_beta                 107.144(2)
_cell_angle_gamma                90
_cell_volume                     19932.3
_exptl_crystal_colour            yellow
_exptl_crystal_description       prism
_cell_formula_units_Z            4
loop_
_atom_site_label
_atom_site_type_symbol
_atom_site_fract_x
_atom_site_fract_y
_atom_site_fract_z
Pd1 Pd 0.56263(2) 0.73357(2) 0.06175(2)
N1 N 0.36981(18) 0.7137(2) 0.40137(16)
N2 N 0.30964(18) 0.5578(2) 0.22325(16)
N3 N 0.38483(19) 0.5097(2) 0.10766(17)
N4 N 0.5057(2) 0.7522(2) 0.47350(18)
N5 N 0.54858(19) 0.6478(2) 0.05413(18)
N6 N 0.6587(2) 0.8954(3) 0.40811(18)
N7 N 0.57660(19) 0.8196(2) 0.07038(17)
N8 N 0.6677(2) 0.9434(3) 0.25886(18)
C1 C 0.3275(2) 0.5685(3) 0.3037(2)
C2 C 0.3264(2) 0.5335(3) 0.26517(19)
C3 C 0.3104(2) 0.5227(3) 0.1844(2)
C4 C 0.3464(2) 0.4994(3) 0.1273(2)
C5 C 0.5687(2) 0.5531(3) 0.0351(2)
H1 H 0.5886 0.5289 0.0235
C6 C 0.3428(2) 0.5420(3) 0.3472(2)
H2 H 0.3433 0.5641 0.3733
C7 C 0.4155(2) 0.5603(3) 0.0540(2)
C8 C 0.3119(2) 0.4582(3) 0.1094(2)
H3 H 0.3129 0.4361 0.0837
C9 C 0.3762(2) 0.5445(3) 0.0695(2)
C10 C 0.3627(2) 0.6810(3) 0.3642(2)
H4 H 0.3897 0.6681 0.3559
C11 C 0.5950(2) 0.8409(3) 0.1122(2)
H5 H 0.6011 0.8148 0.1371
C12 C 0.5946(2) 0.8882(3) 0.4413(2)
C13 C 0.3464(2) 0.5318(3) 0.1650(2)
H6 H 0.3706 0.5597 0.1772
C14 C 0.5126(2) 0.6246(3) 0.0679(2)
H7 H 0.4934 0.6497 0.0795
C15 C 0.3180(2) 0.6651(3) 0.3375(2)
C16 C 0.6735(2) 0.8960(3) 0.1917(2)
C17 C 0.3138(2) 0.6275(3) 0.2975(2)
C18 C 0.2790(2) 0.6859(3) 0.3495(2)
H8 H 0.2475 0.6769 0.3317
C19 C 0.2749(2) 0.4815(3) 0.1669(2)
H9 H 0.2503 0.4753 0.1805
C20 C 0.5755(2) 0.6125(3) 0.0376(2)
H10 H 0.6002 0.6289 0.0273
C21 C 0.4053(3) 0.5932(3) 0.0130(2)
H11 H 0.4307 0.6044 0.0015
C22 C 0.3424(2) 0.4752(3) 0.2714(2)
H12 H 0.3432 0.4520 0.2462
C23 C 0.3298(2) 0.5629(3) 0.0468(2)
H13 H 0.3040 0.5537 0.0582
C24 C 0.2963(3) 0.6504(3) 0.2538(2)
C25 C 0.2762(2) 0.4496(3) 0.1290(2)
H14 H 0.2520 0.4216 0.1165
C26 C 0.6091(2) 0.8303(3) 0.4553(2)
C27 C 0.6928(2) 0.9089(3) 0.2377(2)
C28 C 0.6055(3) 0.8997(3) 0.1206(2)
C29 C 0.5558(3) 0.9157(3) 0.4523(2)
H15 H 0.5391 0.8951 0.4696
C30 C 0.4286(3) 0.4880(3) 0.1297(2)
C31 C 0.6199(3) 0.9198(3) 0.4168(2)
C32 C 0.5324(2) 0.5291(3) 0.0494(2)
H16 H 0.5276 0.4882 0.0483
C33 C 0.3567(2) 0.4853(3) 0.3516(2)
H17 H 0.3665 0.4679 0.3807
C34 C 0.5337(2) 0.7814(3) 0.4546(2)
H18 H 0.5210 0.7931 0.4240
C35 C 0.7446(3) 0.8409(3) 0.1934(2)
H19 H 0.7624 0.8183 0.1784
C36 C 0.7012(2) 0.8614(3) 0.1702(2)
H20 H 0.6887 0.8526 0.1390
C37 C 0.5802(2) 0.7956(3) 0.4770(2)
C38 C 0.6763(2) 0.8419(3) 0.4240(2)
C39 C 0.7187(3) 0.8216(4) 0.4176(2)
H21 H 0.7363 0.8450 0.4029
C40 C 0.6270(2) 0.9186(3) 0.1679(2)
C41 C 0.2929(2) 0.6130(3) 0.2161(2)
C42 C 0.7206(2) 0.9927(3) 0.3254(2)
H22 H 0.7337 1.0151 0.3062
C43 C 0.5033(2) 0.5652(3) 0.0653(2)
C44 C 0.3566(2) 0.4527(3) 0.3139(2)
H23 H 0.3669 0.4133 0.3180
C45 C 0.6497(2) 0.8079(3) 0.4468(2)
C46 C 0.7380(2) 0.8858(3) 0.2620(2)
H24 H 0.7508 0.8930 0.2934
C47 C 0.6868(3) 0.9516(3) 0.3075(2)
C48 C 0.7166(2) 0.9682(3) 0.3999(2)
H25 H 0.7271 0.9731 0.4318
C49 C 0.6665(2) 0.9187(3) 0.3343(2)
H26 H 0.6425 0.8906 0.3215
C50 C 0.2722(3) 0.6338(3) 0.1718(2)
H27 H 0.2700 0.6093 0.1465
C51 C 0.6823(3) 0.9282(3) 0.3803(2)
C52 C 0.7359(3) 1.0017(3) 0.3720(2)
H28 H 0.7593 1.0304 0.3846
C53 C 0.5982(3) 0.7766(3) 0.5221(3)
H29 H 0.6301 0.7854 0.5392
C54 C 0.7633(3) 0.8530(3) 0.2396(2)
H30 H 0.7938 0.8383 0.2558
C55 C 0.3318(3) 0.7336(3) 0.4125(2)
H31 H 0.3365 0.7580 0.4382
C56 C 0.2818(3) 0.7088(3) 0.2451(3)
H32 H 0.2859 0.7352 0.2696
C57 C 0.3605(3) 0.6085(3) -0.0094(3)
H33 H 0.3543 0.6290 -0.0372
C58 C 0.4616(2) 0.5432(3) 0.0791(2)
C59 C 0.4687(3) 0.5076(4) 0.1167(3)
C60 C 0.3225(3) 0.5943(3) 0.0081(2)
H34 H 0.2911 0.6069 -0.0076
C61 C 0.6251(3) 0.9682(3) 0.2365(2)
C62 C 0.6040(3) 0.9544(3) 0.1904(2)
C63 C 0.5426(3) 0.9703(3) 0.4385(3)
H35 H 0.5170 0.9883 0.4464
C64 C 0.5233(3) 0.7333(3) 0.5164(3)
H36 H 0.5036 0.7112 0.5298
C65 C 0.5671(3) 0.8572(3) 0.0351(2)
H37 H 0.5551 0.8424 0.0052
C66 C 0.6037(3) 0.9764(3) 0.4013(3)
H38 H 0.6192 0.9972 0.3831
C67 C 0.5671(3) 1.0011(4) 0.4119(3)
H39 H 0.5573 1.0394 0.4016
C68 C 0.6029(3) 1.0063(4) 0.2591(3)
H40 H 0.6172 1.0148 0.2902
C69 C 0.5946(3) 0.9381(3) 0.0843(2)
H41 H 0.6009 0.9786 0.0886
C70 C 0.2866(3) 0.7195(4) 0.3875(3)
H42 H 0.2603 0.7331 0.3965
C71 C 0.2554(3) 0.6897(3) 0.1655(3)
H43 H 0.2389 0.7027 0.1359
C72 C 0.5740(3) 0.9148(4) 0.0411(3)
H44 H 0.5649 0.9401 0.0157
C73 C 0.6672(3) 0.7501(4) 0.4598(3)
H45 H 0.6494 0.7249 0.4730
C74 C 0.2620(4) 0.7282(3) 0.2021(3)
H46 H 0.2527 0.7678 0.1968
C75 C 0.7085(3) 0.7305(4) 0.4538(3)
H47 H 0.7196 0.6924 0.4635
C76 C 0.7346(3) 0.7661(4) 0.4332(3)
H48 H 0.7638 0.7522 0.4298
C77 C 0.5588(3) 0.9790(5) 0.1688(3)
H49 H 0.5430 0.9689 0.1383
C78 C 0.4345(3) 0.4485(4) 0.1651(3)
H50 H 0.4073 0.4342 0.1723
C79 C 0.5696(3) 0.7458(4) 0.5408(3)
H51 H 0.5815 0.7327 0.5712
C80 C 0.5160(3) 0.4897(5) 0.1437(3)
H52 H 0.5437 0.5038 0.1373
C81 C 0.5599(4) 1.0317(5) 0.2357(4)
H53 H 0.5453 1.0594 0.2503
C82 C 0.5378(4) 1.0162(5) 0.1904(4)
H54 H 0.5075 1.0322 0.1749
C83 C 0.4785(4) 0.4302(6) 0.1893(4)
H55 H 0.4819 0.4032 0.2133
C84 C 0.5194(4) 0.4516(6) 0.1788(4)
H56 H 0.5501 0.4391 0.1966
Pd1A Pd 0.43737(2) 0.73357(2) 0.43825(2)
N1A N 0.63019(18) 0.7137(2) 0.09863(16)
N2A N 0.69036(18) 0.5578(2) 0.27675(16)
N3A N 0.61517(19) 0.5097(2) 0.39234(17)
N4A N 0.4943(2) 0.7522(2) 0.02650(18)
N5A N 0.45142(19) 0.6478(2) 0.44587(18)
N6A N 0.3413(2) 0.8954(3) 0.09189(18)
N7A N 0.42340(19) 0.8196(2) 0.42962(17)
N8A N 0.3323(2) 0.9434(3) 0.24114(18)
C1A C 0.6725(2) 0.5685(3) 0.1963(2)
C2A C 0.6736(2) 0.5335(3) 0.23483(19)
C3A C 0.6896(2) 0.5227(3) 0.3156(2)
C4A C 0.6536(2) 0.4994(3) 0.3727(2)
C5A C 0.4313(2) 0.5531(3) 0.4649(2)
H1A H 0.4114 0.5289 0.4765
C6A C 0.6572(2) 0.5420(3) 0.1528(2)
H2A H 0.6567 0.5641 0.1267
C7A C 0.5845(2) 0.5603(3) 0.4460(2)
C8A C 0.6881(2) 0.4582(3) 0.3906(2)
H3A H 0.6871 0.4361 0.4163
C9A C 0.6238(2) 0.5445(3) 0.4305(2)
C10A C 0.6373(2) 0.6810(3) 0.1358(2)
H4A H 0.6103 0.6681 0.1441
C11A C 0.4050(2) 0.8409(3) 0.3878(2)
H5A H 0.3989 0.8148 0.3629
C12A C 0.4054(2) 0.8882(3) 0.0587(2)
C13A C 0.6536(2) 0.5318(3) 0.3350(2)
H6A H 0.6294 0.5597 0.3228
C14A C 0.4874(2) 0.6246(3) 0.4321(2)
H7A H 0.5066 0.6497 0.4205
C15A C 0.6820(2) 0.6651(3) 0.1625(2)
C16A C 0.3265(2) 0.8960(3) 0.3083(2)
C17A C 0.6862(2) 0.6275(3) 0.2025(2)
C18A C 0.7210(2) 0.6859(3) 0.1505(2)
H8A H 0.7525 0.6769 0.1683
C19A C 0.7251(2) 0.4815(3) 0.3331(2)
H9A H 0.7497 0.4753 0.3195
C20A C 0.4245(2) 0.6125(3) 0.4624(2)
H10A H 0.3998 0.6289 0.4727
C21A C 0.5947(3) 0.5932(3) 0.4870(2)
H11A H 0.5693 0.6044 0.4985
C22A C 0.6576(2) 0.4752(3) 0.2286(2)
H12A H 0.6568 0.4520 0.2538
C23A C 0.6702(2) 0.5629(3) 0.4532(2)
H13A H 0.6960 0.5537 0.4418
C24A C 0.7037(3) 0.6504(3) 0.2462(2)
C25A C 0.7238(2) 0.4496(3) 0.3710(2)
H14A H 0.7480 0.4216 0.3835
C26A C 0.3909(2) 0.8303(3) 0.0447(2)
C27A C 0.3072(2) 0.9089(3) 0.2623(2)
C28A C 0.3945(3) 0.8997(3) 0.3794(2)
C29A C 0.4442(3) 0.9157(3) 0.0477(2)
H15A H 0.4609 0.8951 0.0304
C30A C 0.5714(3) 0.4880(3) 0.3703(2)
C31A C 0.3801(3) 0.9198(3) 0.0832(2)
C32A C 0.4676(2) 0.5291(3) 0.4506(2)
H16A H 0.4724 0.4882 0.4517
C33A C 0.6433(2) 0.4853(3) 0.1484(2)
H17A H 0.6335 0.4679 0.1193
C34A C 0.4663(2) 0.7814(3) 0.0454(2)
H18A H 0.4790 0.7931 0.0760
C35A C 0.2554(3) 0.8409(3) 0.3066(2)
H19A H 0.2376 0.8183 0.3216
C36A C 0.2988(2) 0.8614(3) 0.3298(2)
H20A H 0.3113 0.8526 0.3610
C37A C 0.4198(2) 0.7956(3) 0.0230(2)
C38A C 0.3237(2) 0.8419(3) 0.0760(2)
C39A C 0.2813(3) 0.8216(4) 0.0824(2)
H21A H 0.2637 0.8450 0.0971
C40A C 0.3730(2) 0.9186(3) 0.3321(2)
C41A C 0.7071(2) 0.6130(3) 0.2839(2)
C42A C 0.2794(2) 0.9927(3) 0.1746(2)
H22A H 0.2663 1.0151 0.1938
C43A C 0.4967(2) 0.5652(3) 0.4347(2)
C44A C 0.6434(2) 0.4527(3) 0.1861(2)
H23A H 0.6331 0.4133 0.1820
C45A C 0.3503(2) 0.8079(3) 0.0532(2)
C46A C 0.2620(2) 0.8858(3) 0.2380(2)
H24A H 0.2492 0.8930 0.2066
C47A C 0.3132(3) 0.9516(3) 0.1925(2)
C48A C 0.2834(2) 0.9682(3) 0.1001(2)
H25A H 0.2729 0.9731 0.0682
C49A C 0.3335(2) 0.9187(3) 0.1657(2)
H26A H 0.3575 0.8906 0.1785
C50A C 0.7278(3) 0.6338(3) 0.3282(2)
H27A H 0.7300 0.6093 0.3535
C51A C 0.3177(3) 0.9282(3) 0.1197(2)
C52A C 0.2641(3) 1.0017(3) 0.1280(2)
H28A H 0.2407 1.0304 0.1154
C53A C 0.4018(3) 0.7766(3) -0.0221(3)
H29A H 0.3699 0.7854 -0.0392
C54A C 0.2367(3) 0.8530(3) 0.2604(2)
H30A H 0.2062 0.8383 0.2442
C55A C 0.6682(3) 0.7336(3) 0.0875(2)
H31A H 0.6635 0.7580 0.0618
C56A C 0.7182(3) 0.7088(3) 0.2549(3)
H32A H 0.7141 0.7352 0.2304
C57A C 0.6395(3) 0.6085(3) 0.5094(3)
H33A H 0.6457 0.6290 0.5372
C58A C 0.5384(2) 0.5432(3) 0.4209(2)
C59A C 0.5313(3) 0.5076(4) 0.3833(3)
C60A C 0.6775(3) 0.5943(3) 0.4919(2)
H34A H 0.7089 0.6069 0.5076
C61A C 0.3749(3) 0.9682(3) 0.2635(2)
C62A C 0.3960(3) 0.9544(3) 0.3096(2)
C63A C 0.4574(3) 0.9703(3) 0.0615(3)
H35A H 0.4830 0.9883 0.0536
C64A C 0.4767(3) 0.7333(3) -0.0164(3)
H36A H 0.4964 0.7112 -0.0298
C65A C 0.4329(3) 0.8572(3) 0.4649(2)
H37A H 0.4449 0.8424 0.4948
C66A C 0.3963(3) 0.9764(3) 0.0987(3)
H38A H 0.3808 0.9972 0.1169
C67A C 0.4329(3) 1.0011(4) 0.0881(3)
H39A H 0.4427 1.0394 0.0984
C68A C 0.3971(3) 1.0063(4) 0.2409(3)
H40A H 0.3828 1.0148 0.2098
C69A C 0.4054(3) 0.9381(3) 0.4157(2)
H41A H 0.3991 0.9786 0.4114
C70A C 0.7134(3) 0.7195(4) 0.1125(3)
H42A H 0.7397 0.7331 0.1035
C71A C 0.7446(3) 0.6897(3) 0.3345(3)
H43A H 0.7611 0.7027 0.3641
C72A C 0.4260(3) 0.9148(4) 0.4589(3)
H44A H 0.4351 0.9401 0.4843
C73A C 0.3328(3) 0.7501(4) 0.0402(3)
H45A H 0.3506 0.7249 0.0270
C74A C 0.7380(4) 0.7282(3) 0.2979(3)
H46A H 0.7473 0.7678 0.3032
C75A C 0.2915(3) 0.7305(4) 0.0462(3)
H47A H 0.2804 0.6924 0.0365
C76A C 0.2654(3) 0.7661(4) 0.0668(3)
H48A H 0.2362 0.7522 0.0702
C77A C 0.4412(3) 0.9790(5) 0.3312(3)
H49A H 0.4570 0.9689 0.3617
C78A C 0.5655(3) 0.4485(4) 0.3349(3)
H50A H 0.5927 0.4342 0.3277
C79A C 0.4304(3) 0.7458(4) -0.0408(3)
H51A H 0.4185 0.7327 -0.0712
C80A C 0.4840(3) 0.4897(5) 0.3563(3)
H52A H 0.4563 0.5038 0.3627
C81A C 0.4401(4) 1.0317(5) 0.2643(4)
H53A H 0.4547 1.0594 0.2497
C82A C 0.4622(4) 1.0162(5) 0.3096(4)
H54A H 0.4925 1.0322 0.3251
C83A C 0.5215(4) 0.4302(6) 0.3107(4)
H55A H 0.5181 0.4032 0.2867
C84A C 0.4806(4) 0.4516(6) 0.3212(4)
H56A H 0.4499 0.4391 0.3034
B1 B 0.6658(2) 0.6746(3) 0.6276(2)
F1 F 0.70371(17) 0.6362(3) 0.63454(18)
F2 F 0.6638(2) 0.6940(3) 0.66937(18)
F3 F 0.62404(15) 0.6451(2) 0.60677(15)
F4 F 0.67224(18) 0.7194(3) 0.60037(19)
B2 B 0.6982(2) 0.9089(3) 0.54400(18)
F5 F 0.70864(18) 0.9176(2) 0.50391(14)
F6 F 0.73042(17) 0.9375(2) 0.57850(14)
F7 F 0.7005(3) 0.8505(2) 0.5539(2)
F8 F 0.65246(18) 0.9263(4) 0.5398(2)
B3 B 0.6831(6) 0.5687(5) 0.0202(4)
F9 F 0.6865(5) 0.6145(6) 0.0493(5)
F10 F 0.6748(4) 0.5226(5) 0.0450(4)
F11 F 0.7252(7) 0.5616(8) 0.0102(8)
F12 F 0.6457(9) 0.5758(12) -0.0182(6)
N11 N 0.3050(4) 0.8563(4) 0.4454(3)
C89 C 0.3234(7) 0.9404(9) 0.5031(6)
H63 H 0.3360 0.9729 0.4896
H64 H 0.3470 0.9286 0.5313
H65 H 0.2940 0.9526 0.5095
C90 C 0.3134(5) 0.8925(6) 0.4726(4)
O1 O 0.524(2) 0.304(3) 0.140(2)
O3 O 0.4156(11) 0.6041(12) 0.2558(8)
O5 O 0.2011(5) 0.5510(6) 0.2191(5)
B4? B 0.6872(6) 0.5839(5) 0.0165(4)
F13? F 0.6989(6) 0.6407(5) 0.0112(5)
F14? F 0.6802(4) 0.5823(7) 0.0585(3)
F15? F 0.7238(7) 0.5461(7) 0.0176(7)
F16? F 0.6472(9) 0.5683(12) -0.0177(7)
B5? B 0.6150(5) 0.3262(6) 0.2805(6)
F17? F 0.6409(4) 0.3731(5) 0.3009(5)
F18? F 0.5951(8) 0.3535(10) 0.2403(7)
F19? F 0.6441(7) 0.2810(7) 0.2774(8)
F20? F 0.5805(6) 0.3109(8) 0.2999(6)
B6? B 0.5176(6) 0.8751(8) 0.5820(5)
F21? F 0.5386(8) 0.8328(10) 0.6129(7)
F22? F 0.4689(6) 0.8756(8) 0.5718(5)
F23? F 0.5263(5) 0.8610(7) 0.5423(4)
F24? F 0.5369(8) 0.9262(8) 0.6023(8)
B7? B 0.5416(6) 0.7663(7) 0.1804(5)
F25? F 0.5301(6) 0.7287(7) 0.1442(5)
F26? F 0.5237(7) 0.7433(9) 0.2133(5)
F27? F 0.5906(6) 0.7641(8) 0.1975(6)
F28? F 0.5176(8) 0.8138(9) 0.1573(7)
B8? B 0.6434(9) 0.1434(9) 0.3444(8)
F29? F 0.6634(11) 0.1413(14) 0.3094(9)
F30? F 0.6070(11) 0.1836(12) 0.3350(11)
F31? F 0.6723(11) 0.1579(14) 0.3868(9)
F32? F 0.6230(9) 0.0902(8) 0.3473(7)
N9? N 0.5918(6) 0.7369(6) 0.9771(5)
C85? C 0.6119(11) 0.6836(11) 0.9152(8)
H57? H 0.6022 0.6428 0.9159
H58? H 0.6462 0.6854 0.9190
H59? H 0.5944 0.7011 0.8862
C86? C 0.6021(9) 0.7130(10) 0.9490(7)
N10? N 0.6111(14) 0.7600(13) 0.3101(12)
C87? C 0.5843(8) 0.6832(9) 0.3645(7)
H60? H 0.6041 0.6863 0.3960
H61? H 0.5801 0.6420 0.3558
H62? H 0.5532 0.7010 0.3612
C88? C 0.6102(15) 0.7167(14) 0.3321(13)
O2? O 0.5171(6) 0.3883(5) 0.0629(5)
O4? O 0.4448(8) 0.6243(14) 0.3286(7)
O6? O 0.1784(7) 0.5813(10) 0.1942(8)
loop_
_geom_bond_atom_site_label_1
_geom_bond_atom_site_label_2
_geom_bond_site_symmetry_1
_geom_bond_site_symmetry_2
Pd1 N5 1_555 1_555
N1 C10 1_555 1_555
N2 C2 1_555 1_555
N3 C4 1_555 1_555
N4 C34 1_555 1_555
N5 C14 1_555 1_555
N6 C31 1_555 1_555
N7 Pd1 1_555 1_555
N8 C27 1_555 1_555
C1 C2 1_555 1_555
C2 C22 1_555 1_555
C3 N2 1_555 1_555
C4 C8 1_555 1_555
C5 H1 1_555 1_555
C6 C1 1_555 1_555
H2 C6 1_555 1_555
C7 C9 1_555 1_555
C8 H3 1_555 1_555
C9 N3 1_555 1_555
C10 H4 1_555 1_555
C11 N7 1_555 1_555
H5 C11 1_555 1_555
C12 C26 1_555 1_555
C13 C3 1_555 1_555
H6 C13 1_555 1_555
C14 H7 1_555 1_555
C15 C10 1_555 1_555
C16 C27 1_555 1_555
C17 C1 1_555 1_555
C18 C15 1_555 1_555
H8 C18 1_555 1_555
C19 C3 1_555 1_555
H9 C19 1_555 1_555
C20 N5 1_555 1_555
H10 C20 1_555 1_555
C21 C7 1_555 1_555
H11 C21 1_555 1_555
C22 H12 1_555 1_555
C23 C9 1_555 1_555
H13 C23 1_555 1_555
C24 C17 1_555 1_555
C25 C8 1_555 1_555
H14 C25 1_555 1_555
C26 C37 1_555 1_555
C27 C46 1_555 1_555
C28 C11 1_555 1_555
C29 C12 1_555 1_555
H15 C29 1_555 1_555
C30 N3 1_555 1_555
C31 C12 1_555 1_555
C32 C5 1_555 1_555
H16 C32 1_555 1_555
C33 C6 1_555 1_555
H17 C33 1_555 1_555
C34 H18 1_555 1_555
C35 H19 1_555 1_555
C36 C16 1_555 1_555
H20 C36 1_555 1_555
C37 C34 1_555 1_555
C38 N6 1_555 1_555
C39 C38 1_555 1_555
H21 C39 1_555 1_555
C40 C16 1_555 1_555
C41 N2 1_555 1_555
C42 H22 1_555 1_555
C43 C14 1_555 1_555
C44 C22 1_555 1_555
H23 C44 1_555 1_555
C45 C26 1_555 1_555
C46 H24 1_555 1_555
C47 N8 1_555 1_555
C48 H25 1_555 1_555
C49 C47 1_555 1_555
H26 C49 1_555 1_555
C50 C41 1_555 1_555
H27 C50 1_555 1_555
C51 N6 1_555 1_555
C52 C42 1_555 1_555
H28 C52 1_555 1_555
C53 C37 1_555 1_555
H29 C53 1_555 1_555
C54 C35 1_555 1_555
H30 C54 1_555 1_555
C55 N1 1_555 1_555
H31 C55 1_555 1_555
C56 C24 1_555 1_555
H32 C56 1_555 1_555
C57 C21 1_555 1_555
H33 C57 1_555 1_555
C58 C7 1_555 1_555
C59 C30 1_555 1_555
C60 C23 1_555 1_555
H34 C60 1_555 1_555
C61 N8 1_555 1_555
C62 C40 1_555 1_555
C63 C29 1_555 1_555
H35 C63 1_555 1_555
C64 N4 1_555 1_555
H36 C64 1_555 1_555
C65 N7 1_555 1_555
H37 C65 1_555 1_555
C66 C31 1_555 1_555
H38 C66 1_555 1_555
C67 C63 1_555 1_555
H39 C67 1_555 1_555
C68 C61 1_555 1_555
H40 C68 1_555 1_555
C69 C28 1_555 1_555
H41 C69 1_555 1_555
C70 C18 1_555 1_555
H42 C70 1_555 1_555
C71 C50 1_555 1_555
H43 C71 1_555 1_555
C72 C65 1_555 1_555
H44 C72 1_555 1_555
C73 C45 1_555 1_555
H45 C73 1_555 1_555
C74 C56 1_555 1_555
H46 C74 1_555 1_555
C75 C73 1_555 1_555
H47 C75 1_555 1_555
C76 C39 1_555 1_555
H48 C76 1_555 1_555
C77 C62 1_555 1_555
H49 C77 1_555 1_555
C78 C30 1_555 1_555
H50 C78 1_555 1_555
C79 C53 1_555 1_555
H51 C79 1_555 1_555
C80 C59 1_555 1_555
H52 C80 1_555 1_555
C81 C68 1_555 1_555
H53 C81 1_555 1_555
C82 C77 1_555 1_555
H54 C82 1_555 1_555
C83 C78 1_555 1_555
H55 C83 1_555 1_555
C84 C80 1_555 1_555
H56 C84 1_555 1_555
B1 F1 1_555 1_555
F2 B1 1_555 1_555
F3 B1 1_555 1_555
F4 B1 1_555 1_555
B2 F5 1_555 1_555
F6 B2 1_555 1_555
F7 B2 1_555 1_555
F8 B2 1_555 1_555
B3 F9 1_555 1_555
F10 B3 1_555 1_555
F11 B3 1_555 1_555
F12 B3 1_555 1_555
N11 C90 1_555 1_555
C89 H63 1_555 1_555
H64 C89 1_555 1_555
H65 C89 1_555 1_555
C90 C89 1_555 1_555
Pd1A N1 1_555 1_555
N1A Pd1 1_555 1_555
N2A C2A 1_555 1_555
N3A C4A 1_555 1_555
N4A Pd1 1_555 1_555
N5A Pd1A 1_555 1_555
N6A C31A 1_555 1_555
N7A Pd1A 1_555 1_555
N8A C27A 1_555 1_555
C1A C2A 1_555 1_555
C2A C22A 1_555 1_555
C3A N2A 1_555 1_555
C4A C8A 1_555 1_555
C5A H1A 1_555 1_555
C6A C1A 1_555 1_555
H2A C6A 1_555 1_555
C7A C9A 1_555 1_555
C8A H3A 1_555 1_555
C9A N3A 1_555 1_555
C10A N1A 1_555 1_555
H4A C10A 1_555 1_555
C11A N7A 1_555 1_555
H5A C11A 1_555 1_555
C12A C26A 1_555 1_555
C13A C3A 1_555 1_555
H6A C13A 1_555 1_555
C14A N5A 1_555 1_555
H7A C14A 1_555 1_555
C15A C10A 1_555 1_555
C16A C27A 1_555 1_555
C17A C1A 1_555 1_555
C18A C15A 1_555 1_555
H8A C18A 1_555 1_555
C19A C3A 1_555 1_555
H9A C19A 1_555 1_555
C20A N5A 1_555 1_555
H10A C20A 1_555 1_555
C21A C7A 1_555 1_555
H11A C21A 1_555 1_555
C22A H12A 1_555 1_555
C23A C9A 1_555 1_555
H13A C23A 1_555 1_555
C24A C17A 1_555 1_555
C25A C8A 1_555 1_555
H14A C25A 1_555 1_555
C26A C37A 1_555 1_555
C27A C46A 1_555 1_555
C28A C11A 1_555 1_555
C29A C12A 1_555 1_555
H15A C29A 1_555 1_555
C30A N3A 1_555 1_555
C31A C12A 1_555 1_555
C32A C5A 1_555 1_555
H16A C32A 1_555 1_555
C33A C6A 1_555 1_555
H17A C33A 1_555 1_555
C34A N4A 1_555 1_555
H18A C34A 1_555 1_555
C35A H19A 1_555 1_555
C36A C16A 1_555 1_555
H20A C36A 1_555 1_555
C37A C34A 1_555 1_555
C38A N6A 1_555 1_555
C39A C38A 1_555 1_555
H21A C39A 1_555 1_555
C40A C16A 1_555 1_555
C41A N2A 1_555 1_555
C42A H22A 1_555 1_555
C43A C14A 1_555 1_555
C44A C22A 1_555 1_555
H23A C44A 1_555 1_555
C45A C26A 1_555 1_555
C46A H24A 1_555 1_555
C47A N8A 1_555 1_555
C48A H25A 1_555 1_555
C49A C47A 1_555 1_555
H26A C49A 1_555 1_555
C50A C41A 1_555 1_555
H27A C50A 1_555 1_555
C51A N6A 1_555 1_555
C52A C42A 1_555 1_555
H28A C52A 1_555 1_555
C53A C37A 1_555 1_555
H29A C53A 1_555 1_555
C54A C35A 1_555 1_555
H30A C54A 1_555 1_555
C55A N1A 1_555 1_555
H31A C55A 1_555 1_555
C56A C24A 1_555 1_555
H32A C56A 1_555 1_555
C57A C21A 1_555 1_555
H33A C57A 1_555 1_555
C58A C7A 1_555 1_555
C59A C30A 1_555 1_555
C60A C23A 1_555 1_555
H34A C60A 1_555 1_555
C61A N8A 1_555 1_555
C62A C40A 1_555 1_555
C63A C29A 1_555 1_555
H35A C63A 1_555 1_555
C64A N4A 1_555 1_555
H36A C64A 1_555 1_555
C65A N7A 1_555 1_555
H37A C65A 1_555 1_555
C66A C31A 1_555 1_555
H38A C66A 1_555 1_555
C67A C63A 1_555 1_555
H39A C67A 1_555 1_555
C68A C61A 1_555 1_555
H40A C68A 1_555 1_555
C69A C28A 1_555 1_555
H41A C69A 1_555 1_555
C70A C18A 1_555 1_555
H42A C70A 1_555 1_555
C71A C50A 1_555 1_555
H43A C71A 1_555 1_555
C72A C65A 1_555 1_555
H44A C72A 1_555 1_555
C73A C45A 1_555 1_555
H45A C73A 1_555 1_555
C74A C56A 1_555 1_555
H46A C74A 1_555 1_555
C75A C73A 1_555 1_555
H47A C75A 1_555 1_555
C76A C39A 1_555 1_555
H48A C76A 1_555 1_555
C77A C62A 1_555 1_555
H49A C77A 1_555 1_555
C78A C30A 1_555 1_555
H50A C78A 1_555 1_555
C79A C53A 1_555 1_555
H51A C79A 1_555 1_555
C80A C59A 1_555 1_555
H52A C80A 1_555 1_555
C81A C68A 1_555 1_555
H53A C81A 1_555 1_555
C82A C77A 1_555 1_555
H54A C82A 1_555 1_555
C83A C78A 1_555 1_555
H55A C83A 1_555 1_555
C84A C80A 1_555 1_555
H56A C84A 1_555 1_555
N4 Pd1A 1_555 1_555
C4 C13 1_555 1_555
C5 C20 1_555 1_555
C15 C17 1_555 1_555
C19 C25 1_555 1_555
C24 C41 1_555 1_555
C28 C40 1_555 1_555
C32 C43 1_555 1_555
C33 C44 1_555 1_555
C35 C36 1_555 1_555
C38 C45 1_555 1_555
C42 C47 1_555 1_555
C43 C58 1_555 1_555
C46 C54 1_555 1_555
C48 C51 1_555 1_555
C48 C52 1_555 1_555
C49 C51 1_555 1_555
C55 C70 1_555 1_555
C57 C60 1_555 1_555
C58 C59 1_555 1_555
C61 C62 1_555 1_555
C64 C79 1_555 1_555
C66 C67 1_555 1_555
C69 C72 1_555 1_555
C71 C74 1_555 1_555
C75 C76 1_555 1_555
C81 C82 1_555 1_555
C83 C84 1_555 1_555
C4A C13A 1_555 1_555
C5A C20A 1_555 1_555
C15A C17A 1_555 1_555
C19A C25A 1_555 1_555
C24A C41A 1_555 1_555
C28A C40A 1_555 1_555
C32A C43A 1_555 1_555
C33A C44A 1_555 1_555
C35A C36A 1_555 1_555
C38A C45A 1_555 1_555
C42A C47A 1_555 1_555
C43A C58A 1_555 1_555
C46A C54A 1_555 1_555
C48A C51A 1_555 1_555
C48A C52A 1_555 1_555
C49A C51A 1_555 1_555
C55A C70A 1_555 1_555
C57A C60A 1_555 1_555
C58A C59A 1_555 1_555
C61A C62A 1_555 1_555
C64A C79A 1_555 1_555
C66A C67A 1_555 1_555
C69A C72A 1_555 1_555
C71A C74A 1_555 1_555
C75A C76A 1_555 1_555
C81A C82A 1_555 1_555
C83A C84A 1_555 1_555

#END
