# generated using pymatgen
data_B8H65PdC90N11(O3F16)2
_symmetry_space_group_name_H-M   'P 1'
_cell_length_a   22.95150000
_cell_length_b   29.34900000
_cell_length_c   30.96650000
_cell_angle_alpha   107.14400000
_cell_angle_beta   90.00000000
_cell_angle_gamma   90.00000000
_symmetry_Int_Tables_number   1
_chemical_formula_structural   B8H65PdC90N11(O3F16)2
_chemical_formula_sum   'B64 H520 Pd8 C720 N88 O48 F256'
_cell_volume   19932.30912754
_cell_formula_units_Z   8
loop_
 _symmetry_equiv_pos_site_id
 _symmetry_equiv_pos_as_xyz
  1  'x, y, z'
loop_
 _atom_site_type_symbol
 _atom_site_label
 _atom_site_symmetry_multiplicity
 _atom_site_fract_x
 _atom_site_fract_y
 _atom_site_fract_z
 _atom_site_occupancy
  B  B1  1  0.325400  0.334200  0.372400  1
  B  B2  1  0.325400  0.665800  0.127600  1
  B  B3  1  0.825400  0.834200  0.372400  1
  B  B4  1  0.825400  0.165800  0.127600  1
  B  B5  1  0.674600  0.665800  0.627600  1
  B  B6  1  0.674600  0.334200  0.872400  1
  B  B7  1  0.174600  0.165800  0.627600  1
  B  B8  1  0.174600  0.834200  0.872400  1
  B  B9  1  0.091100  0.301800  0.456000  1
  B  B10  1  0.091100  0.698200  0.044000  1
  B  B11  1  0.591100  0.801800  0.456000  1
  B  B12  1  0.591100  0.198200  0.044000  1
  B  B13  1  0.908900  0.698200  0.544000  1
  B  B14  1  0.908900  0.301800  0.956000  1
  B  B15  1  0.408900  0.198200  0.544000  1
  B  B16  1  0.408900  0.801800  0.956000  1
  B  B17  1  0.431300  0.316900  0.979800  1
  B  B18  1  0.431300  0.683100  0.520200  1
  B  B19  1  0.931300  0.816900  0.979800  1
  B  B20  1  0.931300  0.183100  0.520200  1
  B  B21  1  0.568700  0.683100  0.020200  1
  B  B22  1  0.568700  0.316900  0.479800  1
  B  B23  1  0.068700  0.183100  0.020200  1
  B  B24  1  0.068700  0.816900  0.479800  1
  B  B25  1  0.416100  0.312800  0.983500  1
  B  B26  1  0.416100  0.687200  0.516500  1
  B  B27  1  0.916100  0.812800  0.983500  1
  B  B28  1  0.916100  0.187200  0.516500  1
  B  B29  1  0.583900  0.687200  0.016500  1
  B  B30  1  0.583900  0.312800  0.483500  1
  B  B31  1  0.083900  0.187200  0.016500  1
  B  B32  1  0.083900  0.812800  0.483500  1
  B  B33  1  0.673800  0.385000  0.719500  1
  B  B34  1  0.673800  0.615000  0.780500  1
  B  B35  1  0.173800  0.885000  0.719500  1
  B  B36  1  0.173800  0.115000  0.780500  1
  B  B37  1  0.326200  0.615000  0.280500  1
  B  B38  1  0.326200  0.385000  0.219500  1
  B  B39  1  0.826200  0.115000  0.280500  1
  B  B40  1  0.826200  0.885000  0.219500  1
  B  B41  1  0.124900  0.482400  0.418000  1
  B  B42  1  0.124900  0.517600  0.082000  1
  B  B43  1  0.624900  0.982400  0.418000  1
  B  B44  1  0.624900  0.017600  0.082000  1
  B  B45  1  0.875100  0.517600  0.582000  1
  B  B46  1  0.875100  0.482400  0.918000  1
  B  B47  1  0.375100  0.017600  0.582000  1
  B  B48  1  0.375100  0.982400  0.918000  1
  B  B49  1  0.233700  0.458400  0.819600  1
  B  B50  1  0.233700  0.541600  0.680400  1
  B  B51  1  0.733700  0.958400  0.819600  1
  B  B52  1  0.733700  0.041600  0.680400  1
  B  B53  1  0.766300  0.541600  0.180400  1
  B  B54  1  0.766300  0.458400  0.319600  1
  B  B55  1  0.266300  0.041600  0.180400  1
  B  B56  1  0.266300  0.958400  0.319600  1
  B  B57  1  0.856600  0.356600  0.655600  1
  B  B58  1  0.856600  0.643400  0.844400  1
  B  B59  1  0.356600  0.856600  0.655600  1
  B  B60  1  0.356600  0.143400  0.844400  1
  B  B61  1  0.143400  0.643400  0.344400  1
  B  B62  1  0.143400  0.356600  0.155600  1
  B  B63  1  0.643400  0.143400  0.344400  1
  B  B64  1  0.643400  0.856600  0.155600  1
  H  H65  1  0.027100  0.664000  0.510400  1
  H  H66  1  0.027100  0.336000  0.989600  1
  H  H67  1  0.527100  0.164000  0.510400  1
  H  H68  1  0.527100  0.836000  0.989600  1
  H  H69  1  0.972900  0.336000  0.489600  1
  H  H70  1  0.972900  0.664000  0.010400  1
  H  H71  1  0.472900  0.836000  0.489600  1
  H  H72  1  0.472900  0.164000  0.010400  1
  H  H73  1  0.071400  0.653000  0.468700  1
  H  H74  1  0.071400  0.347000  0.031300  1
  H  H75  1  0.571400  0.153000  0.468700  1
  H  H76  1  0.571400  0.847000  0.031300  1
  H  H77  1  0.928600  0.347000  0.531300  1
  H  H78  1  0.928600  0.653000  0.968700  1
  H  H79  1  0.428600  0.847000  0.531300  1
  H  H80  1  0.428600  0.153000  0.968700  1
  H  H81  1  0.047400  0.706000  0.490500  1
  H  H82  1  0.047400  0.294000  0.009500  1
  H  H83  1  0.547400  0.206000  0.490500  1
  H  H84  1  0.547400  0.794000  0.009500  1
  H  H85  1  0.952600  0.294000  0.509500  1
  H  H86  1  0.952600  0.706000  0.990500  1
  H  H87  1  0.452600  0.794000  0.509500  1
  H  H88  1  0.452600  0.206000  0.990500  1
  H  H89  1  0.357200  0.397800  0.084100  1
  H  H90  1  0.357200  0.602200  0.415900  1
  H  H91  1  0.857200  0.897800  0.084100  1
  H  H92  1  0.857200  0.102200  0.415900  1
  H  H93  1  0.642800  0.602200  0.915900  1
  H  H94  1  0.642800  0.397800  0.584100  1
  H  H95  1  0.142800  0.102200  0.915900  1
  H  H96  1  0.142800  0.897800  0.584100  1
  H  H97  1  0.314600  0.353800  0.081000  1
  H  H98  1  0.314600  0.646200  0.419000  1
  H  H99  1  0.814600  0.853800  0.081000  1
  H  H100  1  0.814600  0.146200  0.419000  1
  H  H101  1  0.685400  0.646200  0.919000  1
  H  H102  1  0.685400  0.353800  0.581000  1
  H  H103  1  0.185400  0.146200  0.919000  1
  H  H104  1  0.185400  0.853800  0.581000  1
  H  H105  1  0.298900  0.405600  0.113800  1
  H  H106  1  0.298900  0.594400  0.386200  1
  H  H107  1  0.798900  0.905600  0.113800  1
  H  H108  1  0.798900  0.094400  0.386200  1
  H  H109  1  0.701100  0.594400  0.886200  1
  H  H110  1  0.701100  0.405600  0.613800  1
  H  H111  1  0.201100  0.094400  0.886200  1
  H  H112  1  0.201100  0.905600  0.613800  1
  H  H113  1  0.313700  0.395900  0.604000  1
  H  H114  1  0.313700  0.604100  0.896000  1
  H  H115  1  0.813700  0.895900  0.604000  1
  H  H116  1  0.813700  0.104100  0.896000  1
  H  H117  1  0.686300  0.604100  0.396000  1
  H  H118  1  0.686300  0.395900  0.104000  1
  H  H119  1  0.186300  0.104100  0.396000  1
  H  H120  1  0.186300  0.895900  0.104000  1
  H  H121  1  0.358000  0.419900  0.644200  1
  H  H122  1  0.358000  0.580100  0.855800  1
  H  H123  1  0.858000  0.919900  0.644200  1
  H  H124  1  0.858000  0.080100  0.855800  1
  H  H125  1  0.642000  0.580100  0.355800  1
  H  H126  1  0.642000  0.419900  0.144200  1
  H  H127  1  0.142000  0.080100  0.355800  1
  H  H128  1  0.142000  0.919900  0.144200  1
  H  H129  1  0.299000  0.446800  0.638800  1
  H  H130  1  0.299000  0.553200  0.861200  1
  H  H131  1  0.799000  0.946800  0.638800  1
  H  H132  1  0.799000  0.053200  0.861200  1
  H  H133  1  0.701000  0.553200  0.361200  1
  H  H134  1  0.701000  0.446800  0.138800  1
  H  H135  1  0.201000  0.053200  0.361200  1
  H  H136  1  0.201000  0.946800  0.138800  1
  H  H137  1  0.471100  0.411400  0.976500  1.0
  H  H138  1  0.471100  0.588600  0.523500  1.0
  H  H139  1  0.971100  0.911400  0.976500  1.0
  H  H140  1  0.971100  0.088600  0.523500  1.0
  H  H141  1  0.528900  0.588600  0.023500  1.0
  H  H142  1  0.528900  0.411400  0.476500  1.0
  H  H143  1  0.028900  0.088600  0.023500  1.0
  H  H144  1  0.028900  0.911400  0.476500  1.0
  H  H145  1  0.435900  0.656700  0.626700  1.0
  H  H146  1  0.435900  0.343300  0.873300  1.0
  H  H147  1  0.935900  0.156700  0.626700  1.0
  H  H148  1  0.935900  0.843300  0.873300  1.0
  H  H149  1  0.564100  0.343300  0.373300  1.0
  H  H150  1  0.564100  0.656700  0.126700  1.0
  H  H151  1  0.064100  0.843300  0.373300  1.0
  H  H152  1  0.064100  0.156700  0.126700  1.0
  H  H153  1  0.563900  0.687100  0.916300  1.0
  H  H154  1  0.563900  0.312900  0.583700  1.0
  H  H155  1  0.063900  0.187100  0.916300  1.0
  H  H156  1  0.063900  0.812900  0.583700  1.0
  H  H157  1  0.436100  0.312900  0.083700  1.0
  H  H158  1  0.436100  0.687100  0.416300  1.0
  H  H159  1  0.936100  0.812900  0.083700  1.0
  H  H160  1  0.936100  0.187100  0.416300  1.0
  H  H161  1  0.331900  0.610300  0.644100  1.0
  H  H162  1  0.331900  0.389700  0.855900  1.0
  H  H163  1  0.831900  0.110300  0.644100  1.0
  H  H164  1  0.831900  0.889700  0.855900  1.0
  H  H165  1  0.668100  0.389700  0.355900  1.0
  H  H166  1  0.668100  0.610300  0.144100  1.0
  H  H167  1  0.168100  0.889700  0.355900  1.0
  H  H168  1  0.168100  0.110300  0.144100  1.0
  H  H169  1  0.185200  0.398900  0.862900  1.0
  H  H170  1  0.185200  0.601100  0.637100  1.0
  H  H171  1  0.685200  0.898900  0.862900  1.0
  H  H172  1  0.685200  0.101100  0.637100  1.0
  H  H173  1  0.814800  0.601100  0.137100  1.0
  H  H174  1  0.814800  0.398900  0.362900  1.0
  H  H175  1  0.314800  0.101100  0.137100  1.0
  H  H176  1  0.314800  0.898900  0.362900  1.0
  H  H177  1  0.440300  0.629400  0.822800  1.0
  H  H178  1  0.440300  0.370600  0.677200  1.0
  H  H179  1  0.940300  0.129400  0.822800  1.0
  H  H180  1  0.940300  0.870600  0.677200  1.0
  H  H181  1  0.559700  0.370600  0.177200  1.0
  H  H182  1  0.559700  0.629400  0.322800  1.0
  H  H183  1  0.059700  0.870600  0.177200  1.0
  H  H184  1  0.059700  0.129400  0.322800  1.0
  H  H185  1  0.350300  0.506600  0.920500  1.0
  H  H186  1  0.350300  0.493400  0.579500  1.0
  H  H187  1  0.850300  0.006600  0.920500  1.0
  H  H188  1  0.850300  0.993400  0.579500  1.0
  H  H189  1  0.649700  0.493400  0.079500  1.0
  H  H190  1  0.649700  0.506600  0.420500  1.0
  H  H191  1  0.149700  0.993400  0.079500  1.0
  H  H192  1  0.149700  0.006600  0.420500  1.0
  H  H193  1  0.323100  0.752500  0.668300  1.0
  H  H194  1  0.323100  0.247500  0.831700  1.0
  H  H195  1  0.823100  0.252500  0.668300  1.0
  H  H196  1  0.823100  0.747500  0.831700  1.0
  H  H197  1  0.676900  0.247500  0.331700  1.0
  H  H198  1  0.676900  0.752500  0.168300  1.0
  H  H199  1  0.176900  0.747500  0.331700  1.0
  H  H200  1  0.176900  0.252500  0.168300  1.0
  H  H201  1  0.524700  0.749700  0.819500  1.0
  H  H202  1  0.524700  0.250300  0.680500  1.0
  H  H203  1  0.024700  0.249700  0.819500  1.0
  H  H204  1  0.024700  0.750300  0.680500  1.0
  H  H205  1  0.475300  0.250300  0.180500  1.0
  H  H206  1  0.475300  0.749700  0.319500  1.0
  H  H207  1  0.975300  0.750300  0.180500  1.0
  H  H208  1  0.975300  0.249700  0.319500  1.0
  H  H209  1  0.371100  0.399800  0.972700  1.0
  H  H210  1  0.371100  0.600200  0.527300  1.0
  H  H211  1  0.871100  0.899800  0.972700  1.0
  H  H212  1  0.871100  0.100200  0.527300  1.0
  H  H213  1  0.628900  0.600200  0.027300  1.0
  H  H214  1  0.628900  0.399800  0.472700  1.0
  H  H215  1  0.128900  0.100200  0.027300  1.0
  H  H216  1  0.128900  0.899800  0.472700  1.0
  H  H217  1  0.395600  0.569300  0.998500  1.0
  H  H218  1  0.395600  0.430700  0.501500  1.0
  H  H219  1  0.895600  0.069300  0.998500  1.0
  H  H220  1  0.895600  0.930700  0.501500  1.0
  H  H221  1  0.604400  0.430700  0.001500  1.0
  H  H222  1  0.604400  0.569300  0.498500  1.0
  H  H223  1  0.104400  0.930700  0.001500  1.0
  H  H224  1  0.104400  0.069300  0.498500  1.0
  H  H225  1  0.548000  0.656800  0.753800  1.0
  H  H226  1  0.548000  0.343200  0.746200  1.0
  H  H227  1  0.048000  0.156800  0.753800  1.0
  H  H228  1  0.048000  0.843200  0.746200  1.0
  H  H229  1  0.452000  0.343200  0.246200  1.0
  H  H230  1  0.452000  0.656800  0.253800  1.0
  H  H231  1  0.952000  0.843200  0.246200  1.0
  H  H232  1  0.952000  0.156800  0.253800  1.0
  H  H233  1  0.446300  0.696000  0.941800  1.0
  H  H234  1  0.446300  0.304000  0.558200  1.0
  H  H235  1  0.946300  0.196000  0.941800  1.0
  H  H236  1  0.946300  0.804000  0.558200  1.0
  H  H237  1  0.553700  0.304000  0.058200  1.0
  H  H238  1  0.553700  0.696000  0.441800  1.0
  H  H239  1  0.053700  0.804000  0.058200  1.0
  H  H240  1  0.053700  0.196000  0.441800  1.0
  H  H241  1  0.578400  0.748000  0.883500  1.0
  H  H242  1  0.578400  0.252000  0.616500  1.0
  H  H243  1  0.078400  0.248000  0.883500  1.0
  H  H244  1  0.078400  0.752000  0.616500  1.0
  H  H245  1  0.421600  0.252000  0.116500  1.0
  H  H246  1  0.421600  0.748000  0.383500  1.0
  H  H247  1  0.921600  0.752000  0.116500  1.0
  H  H248  1  0.921600  0.248000  0.383500  1.0
  H  H249  1  0.104900  0.460900  0.530400  1.0
  H  H250  1  0.104900  0.539100  0.969600  1.0
  H  H251  1  0.604900  0.960900  0.530400  1.0
  H  H252  1  0.604900  0.039100  0.969600  1.0
  H  H253  1  0.895100  0.539100  0.469600  1.0
  H  H254  1  0.895100  0.460900  0.030400  1.0
  H  H255  1  0.395100  0.039100  0.469600  1.0
  H  H256  1  0.395100  0.960900  0.030400  1.0
  H  H257  1  0.511800  0.472400  0.951700  1.0
  H  H258  1  0.511800  0.527600  0.548300  1.0
  H  H259  1  0.011800  0.972400  0.951700  1.0
  H  H260  1  0.011800  0.027600  0.548300  1.0
  H  H261  1  0.488200  0.527600  0.048300  1.0
  H  H262  1  0.488200  0.472400  0.451700  1.0
  H  H263  1  0.988200  0.027600  0.048300  1.0
  H  H264  1  0.988200  0.972400  0.451700  1.0
  H  H265  1  0.532100  0.633500  0.619300  1.0
  H  H266  1  0.532100  0.366500  0.880700  1.0
  H  H267  1  0.032100  0.133500  0.619300  1.0
  H  H268  1  0.032100  0.866500  0.880700  1.0
  H  H269  1  0.467900  0.366500  0.380700  1.0
  H  H270  1  0.467900  0.633500  0.119300  1.0
  H  H271  1  0.967900  0.866500  0.380700  1.0
  H  H272  1  0.967900  0.133500  0.119300  1.0
  H  H273  1  0.206900  0.479000  0.576000  1.0
  H  H274  1  0.206900  0.521000  0.924000  1.0
  H  H275  1  0.706900  0.979000  0.576000  1.0
  H  H276  1  0.706900  0.021000  0.924000  1.0
  H  H277  1  0.793100  0.521000  0.424000  1.0
  H  H278  1  0.793100  0.479000  0.076000  1.0
  H  H279  1  0.293100  0.021000  0.424000  1.0
  H  H280  1  0.293100  0.979000  0.076000  1.0
  H  H281  1  0.181700  0.237600  0.821600  1.0
  H  H282  1  0.181700  0.762400  0.678400  1.0
  H  H283  1  0.681700  0.737600  0.821600  1.0
  H  H284  1  0.681700  0.262400  0.678400  1.0
  H  H285  1  0.818300  0.762400  0.178400  1.0
  H  H286  1  0.818300  0.237600  0.321600  1.0
  H  H287  1  0.318300  0.262400  0.178400  1.0
  H  H288  1  0.318300  0.737600  0.321600  1.0
  H  H289  1  0.147400  0.311300  0.861000  1.0
  H  H290  1  0.147400  0.688700  0.639000  1.0
  H  H291  1  0.647400  0.811300  0.861000  1.0
  H  H292  1  0.647400  0.188700  0.639000  1.0
  H  H293  1  0.852600  0.688700  0.139000  1.0
  H  H294  1  0.852600  0.311300  0.361000  1.0
  H  H295  1  0.352600  0.188700  0.139000  1.0
  H  H296  1  0.352600  0.811300  0.361000  1.0
  H  H297  1  0.155000  0.263700  0.597100  1.0
  H  H298  1  0.155000  0.736300  0.902900  1.0
  H  H299  1  0.655000  0.763700  0.597100  1.0
  H  H300  1  0.655000  0.236300  0.902900  1.0
  H  H301  1  0.845000  0.736300  0.402900  1.0
  H  H302  1  0.845000  0.263700  0.097100  1.0
  H  H303  1  0.345000  0.236300  0.402900  1.0
  H  H304  1  0.345000  0.763700  0.097100  1.0
  H  H305  1  0.984900  0.266300  0.693800  1.0
  H  H306  1  0.984900  0.733700  0.806200  1.0
  H  H307  1  0.484900  0.766300  0.693800  1.0
  H  H308  1  0.484900  0.233700  0.806200  1.0
  H  H309  1  0.015100  0.733700  0.306200  1.0
  H  H310  1  0.015100  0.266300  0.193800  1.0
  H  H311  1  0.515100  0.233700  0.306200  1.0
  H  H312  1  0.515100  0.766300  0.193800  1.0
  H  H313  1  0.586700  0.633100  0.682000  1.0
  H  H314  1  0.586700  0.366900  0.818000  1.0
  H  H315  1  0.086700  0.133100  0.682000  1.0
  H  H316  1  0.086700  0.866900  0.818000  1.0
  H  H317  1  0.413300  0.366900  0.318000  1.0
  H  H318  1  0.413300  0.633100  0.182000  1.0
  H  H319  1  0.913300  0.866900  0.318000  1.0
  H  H320  1  0.913300  0.133100  0.182000  1.0
  H  H321  1  0.107000  0.249200  0.706600  1.0
  H  H322  1  0.107000  0.750800  0.793400  1.0
  H  H323  1  0.607000  0.749200  0.706600  1.0
  H  H324  1  0.607000  0.250800  0.793400  1.0
  H  H325  1  0.893000  0.750800  0.293400  1.0
  H  H326  1  0.893000  0.249200  0.206600  1.0
  H  H327  1  0.393000  0.250800  0.293400  1.0
  H  H328  1  0.393000  0.749200  0.206600  1.0
  H  H329  1  0.026900  0.272900  0.568200  1.0
  H  H330  1  0.026900  0.727100  0.931800  1.0
  H  H331  1  0.526900  0.772900  0.568200  1.0
  H  H332  1  0.526900  0.227100  0.931800  1.0
  H  H333  1  0.973100  0.727100  0.431800  1.0
  H  H334  1  0.973100  0.272900  0.068200  1.0
  H  H335  1  0.473100  0.227100  0.431800  1.0
  H  H336  1  0.473100  0.772900  0.068200  1.0
  H  H337  1  0.109400  0.357500  0.678500  1.0
  H  H338  1  0.109400  0.642500  0.821500  1.0
  H  H339  1  0.609400  0.857500  0.678500  1.0
  H  H340  1  0.609400  0.142500  0.821500  1.0
  H  H341  1  0.890600  0.642500  0.321500  1.0
  H  H342  1  0.890600  0.357500  0.178500  1.0
  H  H343  1  0.390600  0.142500  0.321500  1.0
  H  H344  1  0.390600  0.857500  0.178500  1.0
  H  H345  1  0.390700  0.730000  0.853500  1.0
  H  H346  1  0.390700  0.270000  0.646500  1.0
  H  H347  1  0.890700  0.230000  0.853500  1.0
  H  H348  1  0.890700  0.770000  0.646500  1.0
  H  H349  1  0.609300  0.270000  0.146500  1.0
  H  H350  1  0.609300  0.730000  0.353500  1.0
  H  H351  1  0.109300  0.770000  0.146500  1.0
  H  H352  1  0.109300  0.230000  0.353500  1.0
  H  H353  1  0.969600  0.240700  0.615400  1.0
  H  H354  1  0.969600  0.759300  0.884600  1.0
  H  H355  1  0.469600  0.740700  0.615400  1.0
  H  H356  1  0.469600  0.259300  0.884600  1.0
  H  H357  1  0.030400  0.759300  0.384600  1.0
  H  H358  1  0.030400  0.240700  0.115400  1.0
  H  H359  1  0.530400  0.259300  0.384600  1.0
  H  H360  1  0.530400  0.740700  0.115400  1.0
  H  H361  1  0.214600  0.369900  0.460800  1.0
  H  H362  1  0.214600  0.630100  0.039200  1.0
  H  H363  1  0.714600  0.869900  0.460800  1.0
  H  H364  1  0.714600  0.130100  0.039200  1.0
  H  H365  1  0.785400  0.630100  0.539200  1.0
  H  H366  1  0.785400  0.369900  0.960800  1.0
  H  H367  1  0.285400  0.130100  0.539200  1.0
  H  H368  1  0.285400  0.869900  0.960800  1.0
  H  H369  1  0.161700  0.206200  0.744200  1.0
  H  H370  1  0.161700  0.793800  0.755800  1.0
  H  H371  1  0.661700  0.706200  0.744200  1.0
  H  H372  1  0.661700  0.293800  0.755800  1.0
  H  H373  1  0.838300  0.793800  0.255800  1.0
  H  H374  1  0.838300  0.206200  0.244200  1.0
  H  H375  1  0.338300  0.293800  0.255800  1.0
  H  H376  1  0.338300  0.706200  0.244200  1.0
  H  H377  1  0.242000  0.663500  0.561800  1.0
  H  H378  1  0.242000  0.336500  0.938200  1.0
  H  H379  1  0.742000  0.163500  0.561800  1.0
  H  H380  1  0.742000  0.836500  0.938200  1.0
  H  H381  1  0.758000  0.336500  0.438200  1.0
  H  H382  1  0.758000  0.663500  0.061800  1.0
  H  H383  1  0.258000  0.836500  0.438200  1.0
  H  H384  1  0.258000  0.163500  0.061800  1.0
  H  H385  1  0.264800  0.714100  0.730400  1.0
  H  H386  1  0.264800  0.285900  0.769600  1.0
  H  H387  1  0.764800  0.214100  0.730400  1.0
  H  H388  1  0.764800  0.785900  0.769600  1.0
  H  H389  1  0.735200  0.285900  0.269600  1.0
  H  H390  1  0.735200  0.714100  0.230400  1.0
  H  H391  1  0.235200  0.785900  0.269600  1.0
  H  H392  1  0.235200  0.214100  0.230400  1.0
  H  H393  1  0.371000  0.645700  0.037200  1.0
  H  H394  1  0.371000  0.354300  0.462800  1.0
  H  H395  1  0.871000  0.145700  0.037200  1.0
  H  H396  1  0.871000  0.854300  0.462800  1.0
  H  H397  1  0.629000  0.354300  0.962800  1.0
  H  H398  1  0.629000  0.645700  0.537200  1.0
  H  H399  1  0.129000  0.854300  0.962800  1.0
  H  H400  1  0.129000  0.145700  0.537200  1.0
  H  H401  1  0.393100  0.708900  0.007600  1.0
  H  H402  1  0.393100  0.291100  0.492400  1.0
  H  H403  1  0.893100  0.208900  0.007600  1.0
  H  H404  1  0.893100  0.791100  0.492400  1.0
  H  H405  1  0.606900  0.291100  0.992400  1.0
  H  H406  1  0.606900  0.708900  0.507600  1.0
  H  H407  1  0.106900  0.791100  0.992400  1.0
  H  H408  1  0.106900  0.208900  0.507600  1.0
  H  H409  1  0.011700  0.483000  0.553600  1.0
  H  H410  1  0.011700  0.517000  0.946400  1.0
  H  H411  1  0.511700  0.983000  0.553600  1.0
  H  H412  1  0.511700  0.017000  0.946400  1.0
  H  H413  1  0.988300  0.517000  0.446400  1.0
  H  H414  1  0.988300  0.483000  0.053600  1.0
  H  H415  1  0.488300  0.017000  0.446400  1.0
  H  H416  1  0.488300  0.983000  0.053600  1.0
  H  H417  1  0.288800  0.496400  0.470200  1.0
  H  H418  1  0.288800  0.503600  0.029800  1.0
  H  H419  1  0.788800  0.996400  0.470200  1.0
  H  H420  1  0.788800  0.003600  0.029800  1.0
  H  H421  1  0.711200  0.503600  0.529800  1.0
  H  H422  1  0.711200  0.496400  0.970200  1.0
  H  H423  1  0.211200  0.003600  0.529800  1.0
  H  H424  1  0.211200  0.996400  0.970200  1.0
  H  H425  1  0.157600  0.444900  0.994800  1.0
  H  H426  1  0.157600  0.555100  0.505200  1.0
  H  H427  1  0.657600  0.944900  0.994800  1.0
  H  H428  1  0.657600  0.055100  0.505200  1.0
  H  H429  1  0.842400  0.555100  0.005200  1.0
  H  H430  1  0.842400  0.444900  0.494800  1.0
  H  H431  1  0.342400  0.055100  0.005200  1.0
  H  H432  1  0.342400  0.944900  0.494800  1.0
  H  H433  1  0.002800  0.380800  0.616900  1.0
  H  H434  1  0.002800  0.619200  0.883100  1.0
  H  H435  1  0.502800  0.880800  0.616900  1.0
  H  H436  1  0.502800  0.119200  0.883100  1.0
  H  H437  1  0.997200  0.619200  0.383100  1.0
  H  H438  1  0.997200  0.380800  0.116900  1.0
  H  H439  1  0.497200  0.119200  0.383100  1.0
  H  H440  1  0.497200  0.880800  0.116900  1.0
  H  H441  1  0.960600  0.442700  0.598400  1.0
  H  H442  1  0.960600  0.557300  0.901600  1.0
  H  H443  1  0.460600  0.942700  0.598400  1.0
  H  H444  1  0.460600  0.057300  0.901600  1.0
  H  H445  1  0.039400  0.557300  0.401600  1.0
  H  H446  1  0.039400  0.442700  0.098400  1.0
  H  H447  1  0.539400  0.057300  0.401600  1.0
  H  H448  1  0.539400  0.942700  0.098400  1.0
  H  H449  1  0.985200  0.382800  0.709800  1.0
  H  H450  1  0.985200  0.617200  0.790200  1.0
  H  H451  1  0.485200  0.882800  0.709800  1.0
  H  H452  1  0.485200  0.117200  0.790200  1.0
  H  H453  1  0.014800  0.617200  0.290200  1.0
  H  H454  1  0.014800  0.382800  0.209800  1.0
  H  H455  1  0.514800  0.117200  0.290200  1.0
  H  H456  1  0.514800  0.882800  0.209800  1.0
  H  H457  1  0.021400  0.399100  0.911400  1.0
  H  H458  1  0.021400  0.600900  0.588600  1.0
  H  H459  1  0.521400  0.899100  0.911400  1.0
  H  H460  1  0.521400  0.100900  0.588600  1.0
  H  H461  1  0.978600  0.600900  0.088600  1.0
  H  H462  1  0.978600  0.399100  0.411400  1.0
  H  H463  1  0.478600  0.100900  0.088600  1.0
  H  H464  1  0.478600  0.899100  0.411400  1.0
  H  H465  1  0.266900  0.739700  0.603500  1.0
  H  H466  1  0.266900  0.260300  0.896500  1.0
  H  H467  1  0.766900  0.239700  0.603500  1.0
  H  H468  1  0.766900  0.760300  0.896500  1.0
  H  H469  1  0.733100  0.260300  0.396500  1.0
  H  H470  1  0.733100  0.739700  0.103500  1.0
  H  H471  1  0.233100  0.760300  0.396500  1.0
  H  H472  1  0.233100  0.239700  0.103500  1.0
  H  H473  1  0.297300  0.761100  0.864100  1.0
  H  H474  1  0.297300  0.238900  0.635900  1.0
  H  H475  1  0.797300  0.261100  0.864100  1.0
  H  H476  1  0.797300  0.738900  0.635900  1.0
  H  H477  1  0.702700  0.238900  0.135900  1.0
  H  H478  1  0.702700  0.761100  0.364100  1.0
  H  H479  1  0.202700  0.738900  0.135900  1.0
  H  H480  1  0.202700  0.261100  0.364100  1.0
  H  H481  1  0.059900  0.435100  0.984300  1.0
  H  H482  1  0.059900  0.564900  0.515700  1.0
  H  H483  1  0.559900  0.935100  0.984300  1.0
  H  H484  1  0.559900  0.064900  0.515700  1.0
  H  H485  1  0.940100  0.564900  0.015700  1.0
  H  H486  1  0.940100  0.435100  0.484300  1.0
  H  H487  1  0.440100  0.064900  0.015700  1.0
  H  H488  1  0.440100  0.935100  0.484300  1.0
  H  H489  1  0.275100  0.350600  0.527000  1.0
  H  H490  1  0.275100  0.649400  0.973000  1.0
  H  H491  1  0.775100  0.850600  0.527000  1.0
  H  H492  1  0.775100  0.149400  0.973000  1.0
  H  H493  1  0.724900  0.649400  0.473000  1.0
  H  H494  1  0.724900  0.350600  0.027000  1.0
  H  H495  1  0.224900  0.149400  0.473000  1.0
  H  H496  1  0.224900  0.850600  0.027000  1.0
  H  H497  1  0.232200  0.747300  0.803200  1.0
  H  H498  1  0.232200  0.252700  0.696800  1.0
  H  H499  1  0.732200  0.247300  0.803200  1.0
  H  H500  1  0.732200  0.752700  0.696800  1.0
  H  H501  1  0.767800  0.252700  0.196800  1.0
  H  H502  1  0.767800  0.747300  0.303200  1.0
  H  H503  1  0.267800  0.752700  0.196800  1.0
  H  H504  1  0.267800  0.247300  0.303200  1.0
  H  H505  1  0.307600  0.280400  0.536500  1.0
  H  H506  1  0.307600  0.719600  0.963500  1.0
  H  H507  1  0.807600  0.780400  0.536500  1.0
  H  H508  1  0.807600  0.219600  0.963500  1.0
  H  H509  1  0.692400  0.719600  0.463500  1.0
  H  H510  1  0.692400  0.280400  0.036500  1.0
  H  H511  1  0.192400  0.219600  0.463500  1.0
  H  H512  1  0.192400  0.780400  0.036500  1.0
  H  H513  1  0.247800  0.236200  0.570200  1.0
  H  H514  1  0.247800  0.763800  0.929800  1.0
  H  H515  1  0.747800  0.736200  0.570200  1.0
  H  H516  1  0.747800  0.263800  0.929800  1.0
  H  H517  1  0.752200  0.763800  0.429800  1.0
  H  H518  1  0.752200  0.236200  0.070200  1.0
  H  H519  1  0.252200  0.263800  0.429800  1.0
  H  H520  1  0.252200  0.736200  0.070200  1.0
  H  H521  1  0.031100  0.457000  0.861700  1.0
  H  H522  1  0.031100  0.543000  0.638300  1.0
  H  H523  1  0.531100  0.957000  0.861700  1.0
  H  H524  1  0.531100  0.043000  0.638300  1.0
  H  H525  1  0.968900  0.543000  0.138300  1.0
  H  H526  1  0.968900  0.457000  0.361700  1.0
  H  H527  1  0.468900  0.043000  0.138300  1.0
  H  H528  1  0.468900  0.957000  0.361700  1.0
  H  H529  1  0.565800  0.592700  0.827700  1.0
  H  H530  1  0.565800  0.407300  0.672300  1.0
  H  H531  1  0.065800  0.092700  0.827700  1.0
  H  H532  1  0.065800  0.907300  0.672300  1.0
  H  H533  1  0.434200  0.407300  0.172300  1.0
  H  H534  1  0.434200  0.592700  0.327700  1.0
  H  H535  1  0.934200  0.907300  0.172300  1.0
  H  H536  1  0.934200  0.092700  0.327700  1.0
  H  H537  1  0.267300  0.418500  0.428800  1.0
  H  H538  1  0.267300  0.581500  0.071200  1.0
  H  H539  1  0.767300  0.918500  0.428800  1.0
  H  H540  1  0.767300  0.081500  0.071200  1.0
  H  H541  1  0.732700  0.581500  0.571200  1.0
  H  H542  1  0.732700  0.418500  0.928800  1.0
  H  H543  1  0.232700  0.081500  0.571200  1.0
  H  H544  1  0.232700  0.918500  0.928800  1.0
  H  H545  1  0.496200  0.456300  0.862700  1.0
  H  H546  1  0.496200  0.543700  0.637300  1.0
  H  H547  1  0.996200  0.956300  0.862700  1.0
  H  H548  1  0.996200  0.043700  0.637300  1.0
  H  H549  1  0.503800  0.543700  0.137300  1.0
  H  H550  1  0.503800  0.456300  0.362700  1.0
  H  H551  1  0.003800  0.043700  0.137300  1.0
  H  H552  1  0.003800  0.956300  0.362700  1.0
  H  H553  1  0.940600  0.454700  0.749700  1.0
  H  H554  1  0.940600  0.545300  0.750300  1.0
  H  H555  1  0.440600  0.954700  0.749700  1.0
  H  H556  1  0.440600  0.045300  0.750300  1.0
  H  H557  1  0.059400  0.545300  0.250300  1.0
  H  H558  1  0.059400  0.454700  0.249700  1.0
  H  H559  1  0.559400  0.045300  0.250300  1.0
  H  H560  1  0.559400  0.954700  0.249700  1.0
  H  H561  1  0.967800  0.492500  0.825100  1.0
  H  H562  1  0.967800  0.507500  0.674900  1.0
  H  H563  1  0.467800  0.992500  0.825100  1.0
  H  H564  1  0.467800  0.007500  0.674900  1.0
  H  H565  1  0.032200  0.507500  0.174900  1.0
  H  H566  1  0.032200  0.492500  0.325100  1.0
  H  H567  1  0.532200  0.007500  0.174900  1.0
  H  H568  1  0.532200  0.992500  0.325100  1.0
  H  H569  1  0.596800  0.518100  0.786700  1.0
  H  H570  1  0.596800  0.481900  0.713300  1.0
  H  H571  1  0.096800  0.018100  0.786700  1.0
  H  H572  1  0.096800  0.981900  0.713300  1.0
  H  H573  1  0.403200  0.481900  0.213300  1.0
  H  H574  1  0.403200  0.518100  0.286700  1.0
  H  H575  1  0.903200  0.981900  0.213300  1.0
  H  H576  1  0.903200  0.018100  0.286700  1.0
  H  H577  1  0.560900  0.449900  0.803400  1.0
  H  H578  1  0.560900  0.550100  0.696600  1.0
  H  H579  1  0.060900  0.949900  0.803400  1.0
  H  H580  1  0.060900  0.050100  0.696600  1.0
  H  H581  1  0.439100  0.550100  0.196600  1.0
  H  H582  1  0.439100  0.449900  0.303400  1.0
  H  H583  1  0.939100  0.050100  0.196600  1.0
  H  H584  1  0.939100  0.949900  0.303400  1.0
  Pd  Pd585  1  0.266430  0.437370  0.938250  1.0
  Pd  Pd586  1  0.266430  0.562630  0.561750  1.0
  Pd  Pd587  1  0.766430  0.937370  0.938250  1.0
  Pd  Pd588  1  0.766430  0.062630  0.561750  1.0
  Pd  Pd589  1  0.733570  0.562630  0.061750  1.0
  Pd  Pd590  1  0.733570  0.437370  0.438250  1.0
  Pd  Pd591  1  0.233570  0.062630  0.061750  1.0
  Pd  Pd592  1  0.233570  0.937370  0.438250  1.0
  C  C593  1  0.059600  0.676600  0.496900  1
  C  C594  1  0.059600  0.323400  0.003100  1
  C  C595  1  0.559600  0.176600  0.496900  1
  C  C596  1  0.559600  0.823400  0.003100  1
  C  C597  1  0.940400  0.323400  0.503100  1
  C  C598  1  0.940400  0.676600  0.996900  1
  C  C599  1  0.440400  0.823400  0.503100  1
  C  C600  1  0.440400  0.176600  0.996900  1
  C  C601  1  0.107500  0.686600  0.527400  1
  C  C602  1  0.107500  0.313400  0.972600  1
  C  C603  1  0.607500  0.186600  0.527400  1
  C  C604  1  0.607500  0.813400  0.972600  1
  C  C605  1  0.892500  0.313400  0.472600  1
  C  C606  1  0.892500  0.686600  0.027400  1
  C  C607  1  0.392500  0.813400  0.472600  1
  C  C608  1  0.392500  0.186600  0.027400  1
  C  C609  1  0.316400  0.388100  0.084800  1
  C  C610  1  0.316400  0.611900  0.415200  1
  C  C611  1  0.816400  0.888100  0.084800  1
  C  C612  1  0.816400  0.111900  0.415200  1
  C  C613  1  0.683600  0.611900  0.915200  1
  C  C614  1  0.683600  0.388100  0.584800  1
  C  C615  1  0.183600  0.111900  0.915200  1
  C  C616  1  0.183600  0.888100  0.584800  1
  C  C617  1  0.287000  0.397900  0.051000  1
  C  C618  1  0.287000  0.602100  0.449000  1
  C  C619  1  0.787000  0.897900  0.051000  1
  C  C620  1  0.787000  0.102100  0.449000  1
  C  C621  1  0.713000  0.602100  0.949000  1
  C  C622  1  0.713000  0.397900  0.551000  1
  C  C623  1  0.213000  0.102100  0.949000  1
  C  C624  1  0.213000  0.897900  0.551000  1
  C  C625  1  0.316800  0.415700  0.635500  1
  C  C626  1  0.316800  0.584300  0.864500  1
  C  C627  1  0.816800  0.915700  0.635500  1
  C  C628  1  0.816800  0.084300  0.864500  1
  C  C629  1  0.683200  0.584300  0.364500  1
  C  C630  1  0.683200  0.415700  0.135500  1
  C  C631  1  0.183200  0.084300  0.364500  1
  C  C632  1  0.183200  0.915700  0.135500  1
  C  C633  1  0.283300  0.389800  0.667900  1
  C  C634  1  0.283300  0.610200  0.832100  1
  C  C635  1  0.783300  0.889800  0.667900  1
  C  C636  1  0.783300  0.110200  0.832100  1
  C  C637  1  0.716700  0.610200  0.332100  1
  C  C638  1  0.716700  0.389800  0.167900  1
  C  C639  1  0.216700  0.110200  0.332100  1
  C  C640  1  0.216700  0.889800  0.167900  1
  C  C641  1  0.431500  0.672500  0.696300  1.0
  C  C642  1  0.431500  0.327500  0.803700  1.0
  C  C643  1  0.931500  0.172500  0.696300  1.0
  C  C644  1  0.931500  0.827500  0.803700  1.0
  C  C645  1  0.568500  0.327500  0.303700  1.0
  C  C646  1  0.568500  0.672500  0.196300  1.0
  C  C647  1  0.068500  0.827500  0.303700  1.0
  C  C648  1  0.068500  0.172500  0.196300  1.0
  C  C649  1  0.466500  0.673600  0.734830  1.0
  C  C650  1  0.466500  0.326400  0.765170  1.0
  C  C651  1  0.966500  0.173600  0.734830  1.0
  C  C652  1  0.966500  0.826400  0.765170  1.0
  C  C653  1  0.533500  0.326400  0.265170  1.0
  C  C654  1  0.533500  0.673600  0.234830  1.0
  C  C655  1  0.033500  0.826400  0.265170  1.0
  C  C656  1  0.033500  0.173600  0.234830  1.0
  C  C657  1  0.477300  0.689600  0.815600  1.0
  C  C658  1  0.477300  0.310400  0.684400  1.0
  C  C659  1  0.977300  0.189600  0.815600  1.0
  C  C660  1  0.977300  0.810400  0.684400  1.0
  C  C661  1  0.522700  0.310400  0.184400  1.0
  C  C662  1  0.522700  0.689600  0.315600  1.0
  C  C663  1  0.022700  0.810400  0.184400  1.0
  C  C664  1  0.022700  0.189600  0.315600  1.0
  C  C665  1  0.500600  0.653600  0.872700  1.0
  C  C666  1  0.500600  0.346400  0.627300  1.0
  C  C667  1  0.000600  0.153600  0.872700  1.0
  C  C668  1  0.000600  0.846400  0.627300  1.0
  C  C669  1  0.499400  0.346400  0.127300  1.0
  C  C670  1  0.499400  0.653600  0.372700  1.0
  C  C671  1  0.999400  0.846400  0.127300  1.0
  C  C672  1  0.999400  0.153600  0.372700  1.0
  C  C673  1  0.446900  0.431300  0.964900  1.0
  C  C674  1  0.446900  0.568700  0.535100  1.0
  C  C675  1  0.946900  0.931300  0.964900  1.0
  C  C676  1  0.946900  0.068700  0.535100  1.0
  C  C677  1  0.553100  0.568700  0.035100  1.0
  C  C678  1  0.553100  0.431300  0.464900  1.0
  C  C679  1  0.053100  0.068700  0.035100  1.0
  C  C680  1  0.053100  0.931300  0.464900  1.0
  C  C681  1  0.458000  0.657200  0.652800  1.0
  C  C682  1  0.458000  0.342800  0.847200  1.0
  C  C683  1  0.958000  0.157200  0.652800  1.0
  C  C684  1  0.958000  0.842800  0.847200  1.0
  C  C685  1  0.542000  0.342800  0.347200  1.0
  C  C686  1  0.542000  0.657200  0.152800  1.0
  C  C687  1  0.042000  0.842800  0.347200  1.0
  C  C688  1  0.042000  0.157200  0.152800  1.0
  C  C689  1  0.439700  0.584500  0.946000  1.0
  C  C690  1  0.439700  0.415500  0.554000  1.0
  C  C691  1  0.939700  0.084500  0.946000  1.0
  C  C692  1  0.939700  0.915500  0.554000  1.0
  C  C693  1  0.560300  0.415500  0.054000  1.0
  C  C694  1  0.560300  0.584500  0.446000  1.0
  C  C695  1  0.060300  0.915500  0.054000  1.0
  C  C696  1  0.060300  0.084500  0.446000  1.0
  C  C697  1  0.541800  0.688100  0.890600  1.0
  C  C698  1  0.541800  0.311900  0.609400  1.0
  C  C699  1  0.041800  0.188100  0.890600  1.0
  C  C700  1  0.041800  0.811900  0.609400  1.0
  C  C701  1  0.458200  0.311900  0.109400  1.0
  C  C702  1  0.458200  0.688100  0.390600  1.0
  C  C703  1  0.958200  0.811900  0.109400  1.0
  C  C704  1  0.958200  0.188100  0.390600  1.0
  C  C705  1  0.455500  0.623800  0.930500  1.0
  C  C706  1  0.455500  0.376200  0.569500  1.0
  C  C707  1  0.955500  0.123800  0.930500  1.0
  C  C708  1  0.955500  0.876200  0.569500  1.0
  C  C709  1  0.544500  0.376200  0.069500  1.0
  C  C710  1  0.544500  0.623800  0.430500  1.0
  C  C711  1  0.044500  0.876200  0.069500  1.0
  C  C712  1  0.044500  0.123800  0.430500  1.0
  C  C713  1  0.319000  0.637300  0.635800  1.0
  C  C714  1  0.319000  0.362700  0.864200  1.0
  C  C715  1  0.819000  0.137300  0.635800  1.0
  C  C716  1  0.819000  0.862700  0.864200  1.0
  C  C717  1  0.681000  0.362700  0.364200  1.0
  C  C718  1  0.681000  0.637300  0.135800  1.0
  C  C719  1  0.181000  0.862700  0.364200  1.0
  C  C720  1  0.181000  0.137300  0.135800  1.0
  C  C721  1  0.159100  0.405000  0.887800  1.0
  C  C722  1  0.159100  0.595000  0.612200  1.0
  C  C723  1  0.659100  0.905000  0.887800  1.0
  C  C724  1  0.659100  0.095000  0.612200  1.0
  C  C725  1  0.840900  0.595000  0.112200  1.0
  C  C726  1  0.840900  0.405000  0.387800  1.0
  C  C727  1  0.340900  0.095000  0.112200  1.0
  C  C728  1  0.340900  0.905000  0.387800  1.0
  C  C729  1  0.111800  0.405400  0.558700  1.0
  C  C730  1  0.111800  0.594600  0.941300  1.0
  C  C731  1  0.611800  0.905400  0.558700  1.0
  C  C732  1  0.611800  0.094600  0.941300  1.0
  C  C733  1  0.888200  0.594600  0.441300  1.0
  C  C734  1  0.888200  0.405400  0.058700  1.0
  C  C735  1  0.388200  0.094600  0.441300  1.0
  C  C736  1  0.388200  0.905400  0.058700  1.0
  C  C737  1  0.468200  0.653600  0.835000  1.0
  C  C738  1  0.468200  0.346400  0.665000  1.0
  C  C739  1  0.968200  0.153600  0.835000  1.0
  C  C740  1  0.968200  0.846400  0.665000  1.0
  C  C741  1  0.531800  0.346400  0.165000  1.0
  C  C742  1  0.531800  0.653600  0.335000  1.0
  C  C743  1  0.031800  0.846400  0.165000  1.0
  C  C744  1  0.031800  0.153600  0.335000  1.0
  C  C745  1  0.375400  0.487400  0.932100  1.0
  C  C746  1  0.375400  0.512600  0.567900  1.0
  C  C747  1  0.875400  0.987400  0.932100  1.0
  C  C748  1  0.875400  0.012600  0.567900  1.0
  C  C749  1  0.624600  0.512600  0.067900  1.0
  C  C750  1  0.624600  0.487400  0.432100  1.0
  C  C751  1  0.124600  0.012600  0.067900  1.0
  C  C752  1  0.124600  0.987400  0.432100  1.0
  C  C753  1  0.334900  0.682000  0.662500  1.0
  C  C754  1  0.334900  0.318000  0.837500  1.0
  C  C755  1  0.834900  0.182000  0.662500  1.0
  C  C756  1  0.834900  0.818000  0.837500  1.0
  C  C757  1  0.665100  0.318000  0.337500  1.0
  C  C758  1  0.665100  0.682000  0.162500  1.0
  C  C759  1  0.165100  0.818000  0.337500  1.0
  C  C760  1  0.165100  0.182000  0.162500  1.0
  C  C761  1  0.104000  0.326500  0.808300  1.0
  C  C762  1  0.104000  0.673500  0.691700  1.0
  C  C763  1  0.604000  0.826500  0.808300  1.0
  C  C764  1  0.604000  0.173500  0.691700  1.0
  C  C765  1  0.896000  0.673500  0.191700  1.0
  C  C766  1  0.896000  0.326500  0.308300  1.0
  C  C767  1  0.396000  0.173500  0.191700  1.0
  C  C768  1  0.396000  0.826500  0.308300  1.0
  C  C769  1  0.372500  0.686200  0.702500  1.0
  C  C770  1  0.372500  0.313800  0.797500  1.0
  C  C771  1  0.872500  0.186200  0.702500  1.0
  C  C772  1  0.872500  0.813800  0.797500  1.0
  C  C773  1  0.627500  0.313800  0.297500  1.0
  C  C774  1  0.627500  0.686200  0.202500  1.0
  C  C775  1  0.127500  0.813800  0.297500  1.0
  C  C776  1  0.127500  0.186200  0.202500  1.0
  C  C777  1  0.314100  0.721000  0.650500  1.0
  C  C778  1  0.314100  0.279000  0.849500  1.0
  C  C779  1  0.814100  0.221000  0.650500  1.0
  C  C780  1  0.814100  0.779000  0.849500  1.0
  C  C781  1  0.685900  0.279000  0.349500  1.0
  C  C782  1  0.685900  0.721000  0.150500  1.0
  C  C783  1  0.185900  0.779000  0.349500  1.0
  C  C784  1  0.185900  0.221000  0.150500  1.0
  C  C785  1  0.518500  0.725100  0.833100  1.0
  C  C786  1  0.518500  0.274900  0.666900  1.0
  C  C787  1  0.018500  0.225100  0.833100  1.0
  C  C788  1  0.018500  0.774900  0.666900  1.0
  C  C789  1  0.481500  0.274900  0.166900  1.0
  C  C790  1  0.481500  0.725100  0.333100  1.0
  C  C791  1  0.981500  0.774900  0.166900  1.0
  C  C792  1  0.981500  0.225100  0.333100  1.0
  C  C793  1  0.387500  0.424500  0.962400  1.0
  C  C794  1  0.387500  0.575500  0.537600  1.0
  C  C795  1  0.887500  0.924500  0.962400  1.0
  C  C796  1  0.887500  0.075500  0.537600  1.0
  C  C797  1  0.612500  0.575500  0.037600  1.0
  C  C798  1  0.612500  0.424500  0.462400  1.0
  C  C799  1  0.112500  0.075500  0.037600  1.0
  C  C800  1  0.112500  0.924500  0.462400  1.0
  C  C801  1  0.406800  0.594700  0.987000  1.0
  C  C802  1  0.406800  0.405300  0.513000  1.0
  C  C803  1  0.906800  0.094700  0.987000  1.0
  C  C804  1  0.906800  0.905300  0.513000  1.0
  C  C805  1  0.593200  0.405300  0.013000  1.0
  C  C806  1  0.593200  0.594700  0.487000  1.0
  C  C807  1  0.093200  0.905300  0.013000  1.0
  C  C808  1  0.093200  0.094700  0.487000  1.0
  C  C809  1  0.524800  0.657600  0.728600  1.0
  C  C810  1  0.524800  0.342400  0.771400  1.0
  C  C811  1  0.024800  0.157600  0.728600  1.0
  C  C812  1  0.024800  0.842400  0.771400  1.0
  C  C813  1  0.475200  0.342400  0.271400  1.0
  C  C814  1  0.475200  0.657600  0.228600  1.0
  C  C815  1  0.975200  0.842400  0.271400  1.0
  C  C816  1  0.975200  0.157600  0.228600  1.0
  C  C817  1  0.437100  0.670200  0.953200  1.0
  C  C818  1  0.437100  0.329800  0.546800  1.0
  C  C819  1  0.937100  0.170200  0.953200  1.0
  C  C820  1  0.937100  0.829800  0.546800  1.0
  C  C821  1  0.562900  0.329800  0.046800  1.0
  C  C822  1  0.562900  0.670200  0.453200  1.0
  C  C823  1  0.062900  0.829800  0.046800  1.0
  C  C824  1  0.062900  0.170200  0.453200  1.0
  C  C825  1  0.349600  0.703700  0.746200  1.0
  C  C826  1  0.349600  0.296300  0.753800  1.0
  C  C827  1  0.849600  0.203700  0.746200  1.0
  C  C828  1  0.849600  0.796300  0.753800  1.0
  C  C829  1  0.650400  0.296300  0.253800  1.0
  C  C830  1  0.650400  0.703700  0.246200  1.0
  C  C831  1  0.150400  0.796300  0.253800  1.0
  C  C832  1  0.150400  0.203700  0.246200  1.0
  C  C833  1  0.550400  0.723800  0.871000  1.0
  C  C834  1  0.550400  0.276200  0.629000  1.0
  C  C835  1  0.050400  0.223800  0.871000  1.0
  C  C836  1  0.050400  0.776200  0.629000  1.0
  C  C837  1  0.449600  0.276200  0.129000  1.0
  C  C838  1  0.449600  0.723800  0.371000  1.0
  C  C839  1  0.949600  0.776200  0.129000  1.0
  C  C840  1  0.949600  0.223800  0.371000  1.0
  C  C841  1  0.169700  0.390900  0.544700  1.0
  C  C842  1  0.169700  0.609100  0.955300  1.0
  C  C843  1  0.669700  0.890900  0.544700  1.0
  C  C844  1  0.669700  0.109100  0.955300  1.0
  C  C845  1  0.830300  0.609100  0.455300  1.0
  C  C846  1  0.830300  0.390900  0.044700  1.0
  C  C847  1  0.330300  0.109100  0.455300  1.0
  C  C848  1  0.330300  0.890900  0.044700  1.0
  C  C849  1  0.091100  0.307200  0.762300  1.0
  C  C850  1  0.091100  0.692800  0.737700  1.0
  C  C851  1  0.591100  0.807200  0.762300  1.0
  C  C852  1  0.591100  0.192800  0.737700  1.0
  C  C853  1  0.908900  0.692800  0.237700  1.0
  C  C854  1  0.908900  0.307200  0.262300  1.0
  C  C855  1  0.408900  0.192800  0.237700  1.0
  C  C856  1  0.408900  0.807200  0.262300  1.0
  C  C857  1  0.100300  0.394500  0.879400  1.0
  C  C858  1  0.100300  0.605500  0.620600  1.0
  C  C859  1  0.600300  0.894500  0.879400  1.0
  C  C860  1  0.600300  0.105500  0.620600  1.0
  C  C861  1  0.899700  0.605500  0.120600  1.0
  C  C862  1  0.899700  0.394500  0.379400  1.0
  C  C863  1  0.399700  0.105500  0.120600  1.0
  C  C864  1  0.399700  0.894500  0.379400  1.0
  C  C865  1  0.084300  0.444200  0.547700  1.0
  C  C866  1  0.084300  0.555800  0.952300  1.0
  C  C867  1  0.584300  0.944200  0.547700  1.0
  C  C868  1  0.584300  0.055800  0.952300  1.0
  C  C869  1  0.915700  0.555800  0.452300  1.0
  C  C870  1  0.915700  0.444200  0.047700  1.0
  C  C871  1  0.415700  0.055800  0.452300  1.0
  C  C872  1  0.415700  0.944200  0.047700  1.0
  C  C873  1  0.512000  0.571400  0.870300  1.0
  C  C874  1  0.512000  0.428600  0.629700  1.0
  C  C875  1  0.012000  0.071400  0.870300  1.0
  C  C876  1  0.012000  0.928600  0.629700  1.0
  C  C877  1  0.488000  0.428600  0.129700  1.0
  C  C878  1  0.488000  0.571400  0.370300  1.0
  C  C879  1  0.988000  0.928600  0.129700  1.0
  C  C880  1  0.988000  0.071400  0.370300  1.0
  C  C881  1  0.080200  0.380100  0.583200  1.0
  C  C882  1  0.080200  0.619900  0.916800  1.0
  C  C883  1  0.580200  0.880100  0.583200  1.0
  C  C884  1  0.580200  0.119900  0.916800  1.0
  C  C885  1  0.919800  0.619900  0.416800  1.0
  C  C886  1  0.919800  0.380100  0.083200  1.0
  C  C887  1  0.419800  0.119900  0.416800  1.0
  C  C888  1  0.419800  0.880100  0.083200  1.0
  C  C889  1  0.470900  0.467600  0.950600  1.0
  C  C890  1  0.470900  0.532400  0.549400  1.0
  C  C891  1  0.970900  0.967600  0.950600  1.0
  C  C892  1  0.970900  0.032400  0.549400  1.0
  C  C893  1  0.529100  0.532400  0.049400  1.0
  C  C894  1  0.529100  0.467600  0.450600  1.0
  C  C895  1  0.029100  0.032400  0.049400  1.0
  C  C896  1  0.029100  0.967600  0.450600  1.0
  C  C897  1  0.514700  0.643300  0.648400  1.0
  C  C898  1  0.514700  0.356700  0.851600  1.0
  C  C899  1  0.014700  0.143300  0.648400  1.0
  C  C900  1  0.014700  0.856700  0.851600  1.0
  C  C901  1  0.485300  0.356700  0.351600  1.0
  C  C902  1  0.485300  0.643300  0.148400  1.0
  C  C903  1  0.985300  0.856700  0.351600  1.0
  C  C904  1  0.985300  0.143300  0.148400  1.0
  C  C905  1  0.218600  0.466300  0.545400  1.0
  C  C906  1  0.218600  0.533700  0.954600  1.0
  C  C907  1  0.718600  0.966300  0.545400  1.0
  C  C908  1  0.718600  0.033700  0.954600  1.0
  C  C909  1  0.781400  0.533700  0.454600  1.0
  C  C910  1  0.781400  0.466300  0.045400  1.0
  C  C911  1  0.281400  0.033700  0.454600  1.0
  C  C912  1  0.281400  0.966300  0.045400  1.0
  C  C913  1  0.159100  0.255400  0.806600  1.0
  C  C914  1  0.159100  0.744600  0.693400  1.0
  C  C915  1  0.659100  0.755400  0.806600  1.0
  C  C916  1  0.659100  0.244600  0.693400  1.0
  C  C917  1  0.840900  0.744600  0.193400  1.0
  C  C918  1  0.840900  0.255400  0.306600  1.0
  C  C919  1  0.340900  0.244600  0.193400  1.0
  C  C920  1  0.340900  0.755400  0.306600  1.0
  C  C921  1  0.138600  0.298800  0.829800  1.0
  C  C922  1  0.138600  0.701200  0.670200  1.0
  C  C923  1  0.638600  0.798800  0.829800  1.0
  C  C924  1  0.638600  0.201200  0.670200  1.0
  C  C925  1  0.861400  0.701200  0.170200  1.0
  C  C926  1  0.861400  0.298800  0.329800  1.0
  C  C927  1  0.361400  0.201200  0.170200  1.0
  C  C928  1  0.361400  0.798800  0.329800  1.0
  C  C929  1  0.204400  0.419800  0.523000  1.0
  C  C930  1  0.204400  0.580200  0.977000  1.0
  C  C931  1  0.704400  0.919800  0.523000  1.0
  C  C932  1  0.704400  0.080200  0.977000  1.0
  C  C933  1  0.795600  0.580200  0.477000  1.0
  C  C934  1  0.795600  0.419800  0.023000  1.0
  C  C935  1  0.295600  0.080200  0.477000  1.0
  C  C936  1  0.295600  0.919800  0.023000  1.0
  C  C937  1  0.158100  0.323700  0.576000  1.0
  C  C938  1  0.158100  0.676300  0.924000  1.0
  C  C939  1  0.658100  0.823700  0.576000  1.0
  C  C940  1  0.658100  0.176300  0.924000  1.0
  C  C941  1  0.841900  0.676300  0.424000  1.0
  C  C942  1  0.841900  0.323700  0.076000  1.0
  C  C943  1  0.341900  0.176300  0.424000  1.0
  C  C944  1  0.341900  0.823700  0.076000  1.0
  C  C945  1  0.178400  0.281300  0.582400  1.0
  C  C946  1  0.178400  0.718700  0.917600  1.0
  C  C947  1  0.678400  0.781300  0.582400  1.0
  C  C948  1  0.678400  0.218700  0.917600  1.0
  C  C949  1  0.821600  0.718700  0.417600  1.0
  C  C950  1  0.821600  0.281300  0.082400  1.0
  C  C951  1  0.321600  0.218700  0.417600  1.0
  C  C952  1  0.321600  0.781300  0.082400  1.0
  C  C953  1  0.081400  0.373000  0.832100  1.0
  C  C954  1  0.081400  0.627000  0.667900  1.0
  C  C955  1  0.581400  0.873000  0.832100  1.0
  C  C956  1  0.581400  0.127000  0.667900  1.0
  C  C957  1  0.918600  0.627000  0.167900  1.0
  C  C958  1  0.918600  0.373000  0.332100  1.0
  C  C959  1  0.418600  0.127000  0.167900  1.0
  C  C960  1  0.418600  0.873000  0.332100  1.0
  C  C961  1  0.387000  0.707100  0.783900  1.0
  C  C962  1  0.387000  0.292900  0.716100  1.0
  C  C963  1  0.887000  0.207100  0.783900  1.0
  C  C964  1  0.887000  0.792900  0.716100  1.0
  C  C965  1  0.613000  0.292900  0.216100  1.0
  C  C966  1  0.613000  0.707100  0.283900  1.0
  C  C967  1  0.113000  0.792900  0.216100  1.0
  C  C968  1  0.113000  0.207100  0.283900  1.0
  C  C969  1  0.007300  0.279400  0.674600  1.0
  C  C970  1  0.007300  0.720600  0.825400  1.0
  C  C971  1  0.507300  0.779400  0.674600  1.0
  C  C972  1  0.507300  0.220600  0.825400  1.0
  C  C973  1  0.992700  0.720600  0.325400  1.0
  C  C974  1  0.992700  0.279400  0.174600  1.0
  C  C975  1  0.492700  0.220600  0.325400  1.0
  C  C976  1  0.492700  0.779400  0.174600  1.0
  C  C977  1  0.434800  0.496700  0.934700  1.0
  C  C978  1  0.434800  0.503300  0.565300  1.0
  C  C979  1  0.934800  0.996700  0.934700  1.0
  C  C980  1  0.934800  0.003300  0.565300  1.0
  C  C981  1  0.565200  0.503300  0.065300  1.0
  C  C982  1  0.565200  0.496700  0.434700  1.0
  C  C983  1  0.065200  0.003300  0.065300  1.0
  C  C984  1  0.065200  0.996700  0.434700  1.0
  C  C985  1  0.547300  0.643400  0.686100  1.0
  C  C986  1  0.547300  0.356600  0.813900  1.0
  C  C987  1  0.047300  0.143400  0.686100  1.0
  C  C988  1  0.047300  0.856600  0.813900  1.0
  C  C989  1  0.452700  0.356600  0.313900  1.0
  C  C990  1  0.452700  0.643400  0.186100  1.0
  C  C991  1  0.952700  0.856600  0.313900  1.0
  C  C992  1  0.952700  0.143400  0.186100  1.0
  C  C993  1  0.192100  0.350300  0.553200  1.0
  C  C994  1  0.192100  0.649700  0.946800  1.0
  C  C995  1  0.692100  0.850300  0.553200  1.0
  C  C996  1  0.692100  0.149700  0.946800  1.0
  C  C997  1  0.807900  0.649700  0.446800  1.0
  C  C998  1  0.807900  0.350300  0.053200  1.0
  C  C999  1  0.307900  0.149700  0.446800  1.0
  C  C1000  1  0.307900  0.850300  0.053200  1.0
  C  C1001  1  0.114200  0.262000  0.738000  1.0
  C  C1002  1  0.114200  0.738000  0.762000  1.0
  C  C1003  1  0.614200  0.762000  0.738000  1.0
  C  C1004  1  0.614200  0.238000  0.762000  1.0
  C  C1005  1  0.885800  0.738000  0.262000  1.0
  C  C1006  1  0.885800  0.262000  0.238000  1.0
  C  C1007  1  0.385800  0.238000  0.262000  1.0
  C  C1008  1  0.385800  0.762000  0.238000  1.0
  C  C1009  1  0.048400  0.313200  0.692500  1.0
  C  C1010  1  0.048400  0.686800  0.807500  1.0
  C  C1011  1  0.548400  0.813200  0.692500  1.0
  C  C1012  1  0.548400  0.186800  0.807500  1.0
  C  C1013  1  0.951600  0.686800  0.307500  1.0
  C  C1014  1  0.951600  0.313200  0.192500  1.0
  C  C1015  1  0.451600  0.186800  0.307500  1.0
  C  C1016  1  0.451600  0.813200  0.192500  1.0
  C  C1017  1  0.031800  0.283400  0.600100  1.0
  C  C1018  1  0.031800  0.716600  0.899900  1.0
  C  C1019  1  0.531800  0.783400  0.600100  1.0
  C  C1020  1  0.531800  0.216600  0.899900  1.0
  C  C1021  1  0.968200  0.716600  0.399900  1.0
  C  C1022  1  0.968200  0.283400  0.100100  1.0
  C  C1023  1  0.468200  0.216600  0.399900  1.0
  C  C1024  1  0.468200  0.783400  0.100100  1.0
  C  C1025  1  0.081300  0.333500  0.665700  1.0
  C  C1026  1  0.081300  0.666500  0.834300  1.0
  C  C1027  1  0.581300  0.833500  0.665700  1.0
  C  C1028  1  0.581300  0.166500  0.834300  1.0
  C  C1029  1  0.918700  0.666500  0.334300  1.0
  C  C1030  1  0.918700  0.333500  0.165700  1.0
  C  C1031  1  0.418700  0.166500  0.334300  1.0
  C  C1032  1  0.418700  0.833500  0.165700  1.0
  C  C1033  1  0.366200  0.727800  0.828200  1.0
  C  C1034  1  0.366200  0.272200  0.671800  1.0
  C  C1035  1  0.866200  0.227800  0.828200  1.0
  C  C1036  1  0.866200  0.772200  0.671800  1.0
  C  C1037  1  0.633800  0.272200  0.171800  1.0
  C  C1038  1  0.633800  0.727800  0.328200  1.0
  C  C1039  1  0.133800  0.772200  0.171800  1.0
  C  C1040  1  0.133800  0.227800  0.328200  1.0
  C  C1041  1  0.071800  0.317700  0.619700  1.0
  C  C1042  1  0.071800  0.682300  0.880300  1.0
  C  C1043  1  0.571800  0.817700  0.619700  1.0
  C  C1044  1  0.571800  0.182300  0.880300  1.0
  C  C1045  1  0.928200  0.682300  0.380300  1.0
  C  C1046  1  0.928200  0.317700  0.119700  1.0
  C  C1047  1  0.428200  0.182300  0.380300  1.0
  C  C1048  1  0.428200  0.817700  0.119700  1.0
  C  C1049  1  0.998300  0.264100  0.628000  1.0
  C  C1050  1  0.998300  0.735900  0.872000  1.0
  C  C1051  1  0.498300  0.764100  0.628000  1.0
  C  C1052  1  0.498300  0.235900  0.872000  1.0
  C  C1053  1  0.001700  0.735900  0.372000  1.0
  C  C1054  1  0.001700  0.264100  0.128000  1.0
  C  C1055  1  0.501700  0.235900  0.372000  1.0
  C  C1056  1  0.501700  0.764100  0.128000  1.0
  C  C1057  1  0.223400  0.401800  0.477900  1.0
  C  C1058  1  0.223400  0.598200  0.022100  1.0
  C  C1059  1  0.723400  0.901800  0.477900  1.0
  C  C1060  1  0.723400  0.098200  0.022100  1.0
  C  C1061  1  0.776600  0.598200  0.522100  1.0
  C  C1062  1  0.776600  0.401800  0.977900  1.0
  C  C1063  1  0.276600  0.098200  0.522100  1.0
  C  C1064  1  0.276600  0.901800  0.977900  1.0
  C  C1065  1  0.147000  0.236700  0.760400  1.0
  C  C1066  1  0.147000  0.763300  0.739600  1.0
  C  C1067  1  0.647000  0.736700  0.760400  1.0
  C  C1068  1  0.647000  0.263300  0.739600  1.0
  C  C1069  1  0.853000  0.763300  0.239600  1.0
  C  C1070  1  0.853000  0.236700  0.260400  1.0
  C  C1071  1  0.353000  0.263300  0.239600  1.0
  C  C1072  1  0.353000  0.736700  0.260400  1.0
  C  C1073  1  0.266400  0.668200  0.587500  1.0
  C  C1074  1  0.266400  0.331800  0.912500  1.0
  C  C1075  1  0.766400  0.168200  0.587500  1.0
  C  C1076  1  0.766400  0.831800  0.912500  1.0
  C  C1077  1  0.733600  0.331800  0.412500  1.0
  C  C1078  1  0.733600  0.668200  0.087500  1.0
  C  C1079  1  0.233600  0.831800  0.412500  1.0
  C  C1080  1  0.233600  0.168200  0.087500  1.0
  C  C1081  1  0.291200  0.718200  0.754900  1.0
  C  C1082  1  0.291200  0.281800  0.745100  1.0
  C  C1083  1  0.791200  0.218200  0.754900  1.0
  C  C1084  1  0.791200  0.781800  0.745100  1.0
  C  C1085  1  0.708800  0.281800  0.245100  1.0
  C  C1086  1  0.708800  0.718200  0.254900  1.0
  C  C1087  1  0.208800  0.781800  0.245100  1.0
  C  C1088  1  0.208800  0.218200  0.254900  1.0
  C  C1089  1  0.391500  0.639500  0.009400  1.0
  C  C1090  1  0.391500  0.360500  0.490600  1.0
  C  C1091  1  0.891500  0.139500  0.009400  1.0
  C  C1092  1  0.891500  0.860500  0.490600  1.0
  C  C1093  1  0.608500  0.360500  0.990600  1.0
  C  C1094  1  0.608500  0.639500  0.509400  1.0
  C  C1095  1  0.108500  0.860500  0.990600  1.0
  C  C1096  1  0.108500  0.139500  0.509400  1.0
  C  C1097  1  0.456800  0.538400  0.920900  1.0
  C  C1098  1  0.456800  0.461600  0.579100  1.0
  C  C1099  1  0.956800  0.038400  0.920900  1.0
  C  C1100  1  0.956800  0.961600  0.579100  1.0
  C  C1101  1  0.543200  0.461600  0.079100  1.0
  C  C1102  1  0.543200  0.538400  0.420900  1.0
  C  C1103  1  0.043200  0.961600  0.079100  1.0
  C  C1104  1  0.043200  0.038400  0.420900  1.0
  C  C1105  1  0.492400  0.531300  0.883300  1.0
  C  C1106  1  0.492400  0.468700  0.616700  1.0
  C  C1107  1  0.992400  0.031300  0.883300  1.0
  C  C1108  1  0.992400  0.968700  0.616700  1.0
  C  C1109  1  0.507600  0.468700  0.116700  1.0
  C  C1110  1  0.507600  0.531300  0.383300  1.0
  C  C1111  1  0.007600  0.968700  0.116700  1.0
  C  C1112  1  0.007600  0.031300  0.383300  1.0
  C  C1113  1  0.405700  0.677500  0.991900  1.0
  C  C1114  1  0.405700  0.322500  0.508100  1.0
  C  C1115  1  0.905700  0.177500  0.991900  1.0
  C  C1116  1  0.905700  0.822500  0.508100  1.0
  C  C1117  1  0.594300  0.322500  0.008100  1.0
  C  C1118  1  0.594300  0.677500  0.491900  1.0
  C  C1119  1  0.094300  0.822500  0.008100  1.0
  C  C1120  1  0.094300  0.177500  0.491900  1.0
  C  C1121  1  0.031800  0.374900  0.763500  1.0
  C  C1122  1  0.031800  0.625100  0.736500  1.0
  C  C1123  1  0.531800  0.874900  0.763500  1.0
  C  C1124  1  0.531800  0.125100  0.736500  1.0
  C  C1125  1  0.968200  0.625100  0.236500  1.0
  C  C1126  1  0.968200  0.374900  0.263500  1.0
  C  C1127  1  0.468200  0.125100  0.236500  1.0
  C  C1128  1  0.468200  0.874900  0.263500  1.0
  C  C1129  1  0.045600  0.396000  0.809600  1.0
  C  C1130  1  0.045600  0.604000  0.690400  1.0
  C  C1131  1  0.545600  0.896000  0.809600  1.0
  C  C1132  1  0.545600  0.104000  0.690400  1.0
  C  C1133  1  0.954400  0.604000  0.190400  1.0
  C  C1134  1  0.954400  0.396000  0.309600  1.0
  C  C1135  1  0.454400  0.104000  0.190400  1.0
  C  C1136  1  0.454400  0.896000  0.309600  1.0
  C  C1137  1  0.029700  0.457400  0.561500  1.0
  C  C1138  1  0.029700  0.542600  0.938500  1.0
  C  C1139  1  0.529700  0.957400  0.561500  1.0
  C  C1140  1  0.529700  0.042600  0.938500  1.0
  C  C1141  1  0.970300  0.542600  0.438500  1.0
  C  C1142  1  0.970300  0.457400  0.061500  1.0
  C  C1143  1  0.470300  0.042600  0.438500  1.0
  C  C1144  1  0.470300  0.957400  0.061500  1.0
  C  C1145  1  0.266700  0.476700  0.483600  1.0
  C  C1146  1  0.266700  0.523300  0.016400  1.0
  C  C1147  1  0.766700  0.976700  0.483600  1.0
  C  C1148  1  0.766700  0.023300  0.016400  1.0
  C  C1149  1  0.733300  0.523300  0.516400  1.0
  C  C1150  1  0.733300  0.476700  0.983600  1.0
  C  C1151  1  0.233300  0.023300  0.516400  1.0
  C  C1152  1  0.233300  0.976700  0.983600  1.0
  C  C1153  1  0.142800  0.432900  0.964900  1.0
  C  C1154  1  0.142800  0.567100  0.535100  1.0
  C  C1155  1  0.642800  0.932900  0.964900  1.0
  C  C1156  1  0.642800  0.067100  0.535100  1.0
  C  C1157  1  0.857200  0.567100  0.035100  1.0
  C  C1158  1  0.857200  0.432900  0.464900  1.0
  C  C1159  1  0.357200  0.067100  0.035100  1.0
  C  C1160  1  0.357200  0.932900  0.464900  1.0
  C  C1161  1  0.023600  0.396300  0.598700  1.0
  C  C1162  1  0.023600  0.603700  0.901300  1.0
  C  C1163  1  0.523600  0.896300  0.598700  1.0
  C  C1164  1  0.523600  0.103700  0.901300  1.0
  C  C1165  1  0.976400  0.603700  0.401300  1.0
  C  C1166  1  0.976400  0.396300  0.098700  1.0
  C  C1167  1  0.476400  0.103700  0.401300  1.0
  C  C1168  1  0.476400  0.896300  0.098700  1.0
  C  C1169  1  0.998900  0.432900  0.588100  1.0
  C  C1170  1  0.998900  0.567100  0.911900  1.0
  C  C1171  1  0.498900  0.932900  0.588100  1.0
  C  C1172  1  0.498900  0.067100  0.911900  1.0
  C  C1173  1  0.001100  0.567100  0.411900  1.0
  C  C1174  1  0.001100  0.432900  0.088100  1.0
  C  C1175  1  0.501100  0.067100  0.411900  1.0
  C  C1176  1  0.501100  0.932900  0.088100  1.0
  C  C1177  1  0.993700  0.397100  0.740900  1.0
  C  C1178  1  0.993700  0.602900  0.759100  1.0
  C  C1179  1  0.493700  0.897100  0.740900  1.0
  C  C1180  1  0.493700  0.102900  0.759100  1.0
  C  C1181  1  0.006300  0.602900  0.259100  1.0
  C  C1182  1  0.006300  0.397100  0.240900  1.0
  C  C1183  1  0.506300  0.102900  0.259100  1.0
  C  C1184  1  0.506300  0.897100  0.240900  1.0
  C  C1185  1  0.061900  0.405400  0.915700  1.0
  C  C1186  1  0.061900  0.594600  0.584300  1.0
  C  C1187  1  0.561900  0.905400  0.915700  1.0
  C  C1188  1  0.561900  0.094600  0.584300  1.0
  C  C1189  1  0.938100  0.594600  0.084300  1.0
  C  C1190  1  0.938100  0.405400  0.415700  1.0
  C  C1191  1  0.438100  0.094600  0.084300  1.0
  C  C1192  1  0.438100  0.905400  0.415700  1.0
  C  C1193  1  0.280500  0.713400  0.612500  1.0
  C  C1194  1  0.280500  0.286600  0.887500  1.0
  C  C1195  1  0.780500  0.213400  0.612500  1.0
  C  C1196  1  0.780500  0.786600  0.887500  1.0
  C  C1197  1  0.719500  0.286600  0.387500  1.0
  C  C1198  1  0.719500  0.713400  0.112500  1.0
  C  C1199  1  0.219500  0.786600  0.387500  1.0
  C  C1200  1  0.219500  0.213400  0.112500  1.0
  C  C1201  1  0.310300  0.744600  0.834500  1.0
  C  C1202  1  0.310300  0.255400  0.665500  1.0
  C  C1203  1  0.810300  0.244600  0.834500  1.0
  C  C1204  1  0.810300  0.755400  0.665500  1.0
  C  C1205  1  0.689700  0.255400  0.165500  1.0
  C  C1206  1  0.689700  0.744600  0.334500  1.0
  C  C1207  1  0.189700  0.755400  0.165500  1.0
  C  C1208  1  0.189700  0.244600  0.334500  1.0
  C  C1209  1  0.085200  0.426000  0.958900  1.0
  C  C1210  1  0.085200  0.574000  0.541100  1.0
  C  C1211  1  0.585200  0.926000  0.958900  1.0
  C  C1212  1  0.585200  0.074000  0.541100  1.0
  C  C1213  1  0.914800  0.574000  0.041100  1.0
  C  C1214  1  0.914800  0.426000  0.458900  1.0
  C  C1215  1  0.414800  0.074000  0.041100  1.0
  C  C1216  1  0.414800  0.926000  0.458900  1.0
  C  C1217  1  0.249900  0.332800  0.540200  1.0
  C  C1218  1  0.249900  0.667200  0.959800  1.0
  C  C1219  1  0.749900  0.832800  0.540200  1.0
  C  C1220  1  0.749900  0.167200  0.959800  1.0
  C  C1221  1  0.750100  0.667200  0.459800  1.0
  C  C1222  1  0.750100  0.332800  0.040200  1.0
  C  C1223  1  0.250100  0.167200  0.459800  1.0
  C  C1224  1  0.250100  0.832800  0.040200  1.0
  C  C1225  1  0.271800  0.738000  0.797900  1.0
  C  C1226  1  0.271800  0.262000  0.702100  1.0
  C  C1227  1  0.771800  0.238000  0.797900  1.0
  C  C1228  1  0.771800  0.762000  0.702100  1.0
  C  C1229  1  0.728200  0.262000  0.202100  1.0
  C  C1230  1  0.728200  0.738000  0.297900  1.0
  C  C1231  1  0.228200  0.762000  0.202100  1.0
  C  C1232  1  0.228200  0.238000  0.297900  1.0
  C  C1233  1  0.269500  0.291500  0.546200  1.0
  C  C1234  1  0.269500  0.708500  0.953800  1.0
  C  C1235  1  0.769500  0.791500  0.546200  1.0
  C  C1236  1  0.769500  0.208500  0.953800  1.0
  C  C1237  1  0.730500  0.708500  0.453800  1.0
  C  C1238  1  0.730500  0.291500  0.046200  1.0
  C  C1239  1  0.230500  0.208500  0.453800  1.0
  C  C1240  1  0.230500  0.791500  0.046200  1.0
  C  C1241  1  0.233900  0.265400  0.566800  1.0
  C  C1242  1  0.233900  0.734600  0.933200  1.0
  C  C1243  1  0.733900  0.765400  0.566800  1.0
  C  C1244  1  0.733900  0.234600  0.933200  1.0
  C  C1245  1  0.766100  0.734600  0.433200  1.0
  C  C1246  1  0.766100  0.265400  0.066800  1.0
  C  C1247  1  0.266100  0.234600  0.433200  1.0
  C  C1248  1  0.266100  0.765400  0.066800  1.0
  C  C1249  1  0.021000  0.441200  0.831200  1.0
  C  C1250  1  0.021000  0.558800  0.668800  1.0
  C  C1251  1  0.521000  0.941200  0.831200  1.0
  C  C1252  1  0.521000  0.058800  0.668800  1.0
  C  C1253  1  0.979000  0.558800  0.168800  1.0
  C  C1254  1  0.979000  0.441200  0.331200  1.0
  C  C1255  1  0.479000  0.058800  0.168800  1.0
  C  C1256  1  0.479000  0.941200  0.331200  1.0
  C  C1257  1  0.551500  0.565500  0.834900  1.0
  C  C1258  1  0.551500  0.434500  0.665100  1.0
  C  C1259  1  0.051500  0.065500  0.834900  1.0
  C  C1260  1  0.051500  0.934500  0.665100  1.0
  C  C1261  1  0.448500  0.434500  0.165100  1.0
  C  C1262  1  0.448500  0.565500  0.334900  1.0
  C  C1263  1  0.948500  0.934500  0.165100  1.0
  C  C1264  1  0.948500  0.065500  0.334900  1.0
  C  C1265  1  0.254200  0.430400  0.459200  1.0
  C  C1266  1  0.254200  0.569600  0.040800  1.0
  C  C1267  1  0.754200  0.930400  0.459200  1.0
  C  C1268  1  0.754200  0.069600  0.040800  1.0
  C  C1269  1  0.745800  0.569600  0.540800  1.0
  C  C1270  1  0.745800  0.430400  0.959200  1.0
  C  C1271  1  0.245800  0.069600  0.540800  1.0
  C  C1272  1  0.245800  0.930400  0.959200  1.0
  C  C1273  1  0.510300  0.484000  0.856300  1.0
  C  C1274  1  0.510300  0.516000  0.643700  1.0
  C  C1275  1  0.010300  0.984000  0.856300  1.0
  C  C1276  1  0.010300  0.016000  0.643700  1.0
  C  C1277  1  0.489700  0.516000  0.143700  1.0
  C  C1278  1  0.489700  0.484000  0.356300  1.0
  C  C1279  1  0.989700  0.016000  0.143700  1.0
  C  C1280  1  0.989700  0.984000  0.356300  1.0
  C  C1281  1  0.968300  0.440100  0.764300  1.0
  C  C1282  1  0.968300  0.559900  0.735700  1.0
  C  C1283  1  0.468300  0.940100  0.764300  1.0
  C  C1284  1  0.468300  0.059900  0.735700  1.0
  C  C1285  1  0.031700  0.559900  0.235700  1.0
  C  C1286  1  0.031700  0.440100  0.264300  1.0
  C  C1287  1  0.531700  0.059900  0.235700  1.0
  C  C1288  1  0.531700  0.940100  0.264300  1.0
  C  C1289  1  0.983800  0.462200  0.809600  1.0
  C  C1290  1  0.983800  0.537800  0.690400  1.0
  C  C1291  1  0.483800  0.962200  0.809600  1.0
  C  C1292  1  0.483800  0.037800  0.690400  1.0
  C  C1293  1  0.016200  0.537800  0.190400  1.0
  C  C1294  1  0.016200  0.462200  0.309600  1.0
  C  C1295  1  0.516200  0.037800  0.190400  1.0
  C  C1296  1  0.516200  0.962200  0.309600  1.0
  C  C1297  1  0.569800  0.521500  0.810700  1.0
  C  C1298  1  0.569800  0.478500  0.689300  1.0
  C  C1299  1  0.069800  0.021500  0.810700  1.0
  C  C1300  1  0.069800  0.978500  0.689300  1.0
  C  C1301  1  0.430200  0.478500  0.189300  1.0
  C  C1302  1  0.430200  0.521500  0.310700  1.0
  C  C1303  1  0.930200  0.978500  0.189300  1.0
  C  C1304  1  0.930200  0.021500  0.310700  1.0
  C  C1305  1  0.548400  0.480600  0.821200  1.0
  C  C1306  1  0.548400  0.519400  0.678800  1.0
  C  C1307  1  0.048400  0.980600  0.821200  1.0
  C  C1308  1  0.048400  0.019400  0.678800  1.0
  C  C1309  1  0.451600  0.519400  0.178800  1.0
  C  C1310  1  0.451600  0.480600  0.321200  1.0
  C  C1311  1  0.951600  0.019400  0.178800  1.0
  C  C1312  1  0.951600  0.980600  0.321200  1.0
  N  N1313  1  0.143700  0.695000  0.554600  1
  N  N1314  1  0.143700  0.305000  0.945400  1
  N  N1315  1  0.643700  0.195000  0.554600  1
  N  N1316  1  0.643700  0.805000  0.945400  1
  N  N1317  1  0.856300  0.305000  0.445400  1
  N  N1318  1  0.856300  0.695000  0.054600  1
  N  N1319  1  0.356300  0.805000  0.445400  1
  N  N1320  1  0.356300  0.195000  0.054600  1
  N  N1321  1  0.263100  0.408200  0.022900  1
  N  N1322  1  0.263100  0.591800  0.477100  1
  N  N1323  1  0.763100  0.908200  0.022900  1
  N  N1324  1  0.763100  0.091800  0.477100  1
  N  N1325  1  0.736900  0.591800  0.977100  1
  N  N1326  1  0.736900  0.408200  0.522900  1
  N  N1327  1  0.236900  0.091800  0.977100  1
  N  N1328  1  0.236900  0.908200  0.522900  1
  N  N1329  1  0.240000  0.388900  0.689900  1
  N  N1330  1  0.240000  0.611100  0.810100  1
  N  N1331  1  0.740000  0.888900  0.689900  1
  N  N1332  1  0.740000  0.111100  0.810100  1
  N  N1333  1  0.760000  0.611100  0.310100  1
  N  N1334  1  0.760000  0.388900  0.189900  1
  N  N1335  1  0.260000  0.111100  0.310100  1
  N  N1336  1  0.260000  0.888900  0.189900  1
  N  N1337  1  0.286300  0.630190  0.598630  1.0
  N  N1338  1  0.286300  0.369810  0.901370  1.0
  N  N1339  1  0.786300  0.130190  0.598630  1.0
  N  N1340  1  0.786300  0.869810  0.901370  1.0
  N  N1341  1  0.713700  0.369810  0.401370  1.0
  N  N1342  1  0.713700  0.630190  0.098630  1.0
  N  N1343  1  0.213700  0.869810  0.401370  1.0
  N  N1344  1  0.213700  0.130190  0.098630  1.0
  N  N1345  1  0.442200  0.690360  0.776750  1.0
  N  N1346  1  0.442200  0.309640  0.723250  1.0
  N  N1347  1  0.942200  0.190360  0.776750  1.0
  N  N1348  1  0.942200  0.809640  0.723250  1.0
  N  N1349  1  0.557800  0.309640  0.223250  1.0
  N  N1350  1  0.557800  0.690360  0.276750  1.0
  N  N1351  1  0.057800  0.809640  0.223250  1.0
  N  N1352  1  0.057800  0.190360  0.276750  1.0
  N  N1353  1  0.490300  0.615170  0.892340  1.0
  N  N1354  1  0.490300  0.384830  0.607660  1.0
  N  N1355  1  0.990300  0.115170  0.892340  1.0
  N  N1356  1  0.990300  0.884830  0.607660  1.0
  N  N1357  1  0.509700  0.384830  0.107660  1.0
  N  N1358  1  0.509700  0.615170  0.392340  1.0
  N  N1359  1  0.009700  0.884830  0.107660  1.0
  N  N1360  1  0.009700  0.115170  0.392340  1.0
  N  N1361  1  0.247800  0.494300  0.526500  1.0
  N  N1362  1  0.247800  0.505700  0.973500  1.0
  N  N1363  1  0.747800  0.994300  0.526500  1.0
  N  N1364  1  0.747800  0.005700  0.973500  1.0
  N  N1365  1  0.752200  0.505700  0.473500  1.0
  N  N1366  1  0.752200  0.494300  0.026500  1.0
  N  N1367  1  0.252200  0.005700  0.473500  1.0
  N  N1368  1  0.252200  0.994300  0.026500  1.0
  N  N1369  1  0.352200  0.451420  0.945870  1.0
  N  N1370  1  0.352200  0.548580  0.554130  1.0
  N  N1371  1  0.852200  0.951420  0.945870  1.0
  N  N1372  1  0.852200  0.048580  0.554130  1.0
  N  N1373  1  0.647800  0.548580  0.054130  1.0
  N  N1374  1  0.647800  0.451420  0.445870  1.0
  N  N1375  1  0.147800  0.048580  0.054130  1.0
  N  N1376  1  0.147800  0.951420  0.445870  1.0
  N  N1377  1  0.104600  0.341300  0.591890  1.0
  N  N1378  1  0.104600  0.658700  0.908110  1.0
  N  N1379  1  0.604600  0.841300  0.591890  1.0
  N  N1380  1  0.604600  0.158700  0.908110  1.0
  N  N1381  1  0.895400  0.658700  0.408110  1.0
  N  N1382  1  0.895400  0.341300  0.091890  1.0
  N  N1383  1  0.395400  0.158700  0.408110  1.0
  N  N1384  1  0.395400  0.841300  0.091890  1.0
  N  N1385  1  0.180400  0.423400  0.929620  1.0
  N  N1386  1  0.180400  0.576600  0.570380  1.0
  N  N1387  1  0.680400  0.923400  0.929620  1.0
  N  N1388  1  0.680400  0.076600  0.570380  1.0
  N  N1389  1  0.819600  0.576600  0.070380  1.0
  N  N1390  1  0.819600  0.423400  0.429620  1.0
  N  N1391  1  0.319600  0.076600  0.070380  1.0
  N  N1392  1  0.319600  0.923400  0.429620  1.0
  N  N1393  1  0.056600  0.332300  0.741140  1.0
  N  N1394  1  0.056600  0.667700  0.758860  1.0
  N  N1395  1  0.556600  0.832300  0.741140  1.0
  N  N1396  1  0.556600  0.167700  0.758860  1.0
  N  N1397  1  0.943400  0.667700  0.258860  1.0
  N  N1398  1  0.943400  0.332300  0.241140  1.0
  N  N1399  1  0.443400  0.167700  0.258860  1.0
  N  N1400  1  0.443400  0.832300  0.241140  1.0
  O  O1401  1  0.696000  0.476000  0.860000  1
  O  O1402  1  0.696000  0.524000  0.640000  1
  O  O1403  1  0.196000  0.976000  0.860000  1
  O  O1404  1  0.196000  0.024000  0.640000  1
  O  O1405  1  0.304000  0.524000  0.140000  1
  O  O1406  1  0.304000  0.476000  0.360000  1
  O  O1407  1  0.804000  0.024000  0.140000  1
  O  O1408  1  0.804000  0.976000  0.360000  1
  O  O1409  1  0.395900  0.584400  0.744200  1
  O  O1410  1  0.395900  0.415600  0.755800  1
  O  O1411  1  0.895900  0.084400  0.744200  1
  O  O1412  1  0.895900  0.915600  0.755800  1
  O  O1413  1  0.604100  0.415600  0.255800  1
  O  O1414  1  0.604100  0.584400  0.244200  1
  O  O1415  1  0.104100  0.915600  0.255800  1
  O  O1416  1  0.104100  0.084400  0.244200  1
  O  O1417  1  0.449000  0.798900  0.780900  1
  O  O1418  1  0.449000  0.201100  0.719100  1
  O  O1419  1  0.949000  0.298900  0.780900  1
  O  O1420  1  0.949000  0.701100  0.719100  1
  O  O1421  1  0.551000  0.201100  0.219100  1
  O  O1422  1  0.551000  0.798900  0.280900  1
  O  O1423  1  0.051000  0.701100  0.219100  1
  O  O1424  1  0.051000  0.298900  0.280900  1
  O  O1425  1  0.611700  0.482900  0.937100  1
  O  O1426  1  0.611700  0.517100  0.562900  1
  O  O1427  1  0.111700  0.982900  0.937100  1
  O  O1428  1  0.111700  0.017100  0.562900  1
  O  O1429  1  0.388300  0.517100  0.062900  1
  O  O1430  1  0.388300  0.482900  0.437100  1
  O  O1431  1  0.888300  0.017100  0.062900  1
  O  O1432  1  0.888300  0.982900  0.437100  1
  O  O1433  1  0.375700  0.555200  0.671400  1
  O  O1434  1  0.375700  0.444800  0.828600  1
  O  O1435  1  0.875700  0.055200  0.671400  1
  O  O1436  1  0.875700  0.944800  0.828600  1
  O  O1437  1  0.624300  0.444800  0.328600  1
  O  O1438  1  0.624300  0.555200  0.171400  1
  O  O1439  1  0.124300  0.944800  0.328600  1
  O  O1440  1  0.124300  0.055200  0.171400  1
  O  O1441  1  0.418700  0.821600  0.805800  1
  O  O1442  1  0.418700  0.178400  0.694200  1
  O  O1443  1  0.918700  0.321600  0.805800  1
  O  O1444  1  0.918700  0.678400  0.694200  1
  O  O1445  1  0.581300  0.178400  0.194200  1
  O  O1446  1  0.581300  0.821600  0.305800  1
  O  O1447  1  0.081300  0.678400  0.194200  1
  O  O1448  1  0.081300  0.321600  0.305800  1
  F  F1449  1  0.363800  0.296290  0.365460  1
  F  F1450  1  0.363800  0.703710  0.134540  1
  F  F1451  1  0.863800  0.796290  0.365460  1
  F  F1452  1  0.863800  0.203710  0.134540  1
  F  F1453  1  0.636200  0.703710  0.634540  1
  F  F1454  1  0.636200  0.296290  0.865460  1
  F  F1455  1  0.136200  0.203710  0.634540  1
  F  F1456  1  0.136200  0.796290  0.865460  1
  F  F1457  1  0.306000  0.336200  0.330630  1
  F  F1458  1  0.306000  0.663800  0.169370  1
  F  F1459  1  0.806000  0.836200  0.330630  1
  F  F1460  1  0.806000  0.163800  0.169370  1
  F  F1461  1  0.694000  0.663800  0.669370  1
  F  F1462  1  0.694000  0.336200  0.830630  1
  F  F1463  1  0.194000  0.163800  0.669370  1
  F  F1464  1  0.194000  0.836200  0.830630  1
  F  F1465  1  0.354900  0.375960  0.393230  1
  F  F1466  1  0.354900  0.624040  0.106770  1
  F  F1467  1  0.854900  0.875960  0.393230  1
  F  F1468  1  0.854900  0.124040  0.106770  1
  F  F1469  1  0.645100  0.624040  0.606770  1
  F  F1470  1  0.645100  0.375960  0.893230  1
  F  F1471  1  0.145100  0.124040  0.606770  1
  F  F1472  1  0.145100  0.875960  0.893230  1
  F  F1473  1  0.280600  0.327760  0.399630  1
  F  F1474  1  0.280600  0.672240  0.100370  1
  F  F1475  1  0.780600  0.827760  0.399630  1
  F  F1476  1  0.780600  0.172240  0.100370  1
  F  F1477  1  0.719400  0.672240  0.600370  1
  F  F1478  1  0.719400  0.327760  0.899630  1
  F  F1479  1  0.219400  0.172240  0.600370  1
  F  F1480  1  0.219400  0.827760  0.899630  1
  F  F1481  1  0.082400  0.291360  0.496090  1
  F  F1482  1  0.082400  0.708640  0.003910  1
  F  F1483  1  0.582400  0.791360  0.496090  1
  F  F1484  1  0.582400  0.208640  0.003910  1
  F  F1485  1  0.917600  0.708640  0.503910  1
  F  F1486  1  0.917600  0.291360  0.996090  1
  F  F1487  1  0.417600  0.208640  0.503910  1
  F  F1488  1  0.417600  0.791360  0.996090  1
  F  F1489  1  0.062500  0.269580  0.421500  1
  F  F1490  1  0.062500  0.730420  0.078500  1
  F  F1491  1  0.562500  0.769580  0.421500  1
  F  F1492  1  0.562500  0.230420  0.078500  1
  F  F1493  1  0.937500  0.730420  0.578500  1
  F  F1494  1  0.937500  0.269580  0.921500  1
  F  F1495  1  0.437500  0.230420  0.578500  1
  F  F1496  1  0.437500  0.769580  0.921500  1
  F  F1497  1  0.149500  0.299500  0.446100  1
  F  F1498  1  0.149500  0.700500  0.053900  1
  F  F1499  1  0.649500  0.799500  0.446100  1
  F  F1500  1  0.649500  0.200500  0.053900  1
  F  F1501  1  0.850500  0.700500  0.553900  1
  F  F1502  1  0.850500  0.299500  0.946100  1
  F  F1503  1  0.350500  0.200500  0.553900  1
  F  F1504  1  0.350500  0.799500  0.946100  1
  F  F1505  1  0.073700  0.347540  0.460200  1
  F  F1506  1  0.073700  0.652460  0.039800  1
  F  F1507  1  0.573700  0.847540  0.460200  1
  F  F1508  1  0.573700  0.152460  0.039800  1
  F  F1509  1  0.926300  0.652460  0.539800  1
  F  F1510  1  0.926300  0.347540  0.960200  1
  F  F1511  1  0.426300  0.152460  0.539800  1
  F  F1512  1  0.426300  0.847540  0.960200  1
  F  F1513  1  0.385500  0.313500  0.950700  1
  F  F1514  1  0.385500  0.686500  0.549300  1
  F  F1515  1  0.885500  0.813500  0.950700  1
  F  F1516  1  0.885500  0.186500  0.549300  1
  F  F1517  1  0.614500  0.686500  0.049300  1
  F  F1518  1  0.614500  0.313500  0.450700  1
  F  F1519  1  0.114500  0.186500  0.049300  1
  F  F1520  1  0.114500  0.813500  0.450700  1
  F  F1521  1  0.477400  0.325200  0.955000  1
  F  F1522  1  0.477400  0.674800  0.545000  1
  F  F1523  1  0.977400  0.825200  0.955000  1
  F  F1524  1  0.977400  0.174800  0.545000  1
  F  F1525  1  0.522600  0.674800  0.045000  1
  F  F1526  1  0.522600  0.325200  0.455000  1
  F  F1527  1  0.022600  0.174800  0.045000  1
  F  F1528  1  0.022600  0.825200  0.455000  1
  F  F1529  1  0.438400  0.274800  0.989800  1
  F  F1530  1  0.438400  0.725200  0.510200  1
  F  F1531  1  0.938400  0.774800  0.989800  1
  F  F1532  1  0.938400  0.225200  0.510200  1
  F  F1533  1  0.561600  0.725200  0.010200  1
  F  F1534  1  0.561600  0.274800  0.489800  1
  F  F1535  1  0.061600  0.225200  0.010200  1
  F  F1536  1  0.061600  0.774800  0.489800  1
  F  F1537  1  0.424200  0.354300  0.018200  1
  F  F1538  1  0.424200  0.645700  0.481800  1
  F  F1539  1  0.924200  0.854300  0.018200  1
  F  F1540  1  0.924200  0.145700  0.481800  1
  F  F1541  1  0.575800  0.645700  0.981800  1
  F  F1542  1  0.575800  0.354300  0.518200  1
  F  F1543  1  0.075800  0.145700  0.981800  1
  F  F1544  1  0.075800  0.854300  0.518200  1
  F  F1545  1  0.359300  0.301100  0.988800  1
  F  F1546  1  0.359300  0.698900  0.511200  1
  F  F1547  1  0.859300  0.801100  0.988800  1
  F  F1548  1  0.859300  0.198900  0.511200  1
  F  F1549  1  0.640700  0.698900  0.011200  1
  F  F1550  1  0.640700  0.301100  0.488800  1
  F  F1551  1  0.140700  0.198900  0.011200  1
  F  F1552  1  0.140700  0.801100  0.488800  1
  F  F1553  1  0.417700  0.319800  0.941500  1
  F  F1554  1  0.417700  0.680200  0.558500  1
  F  F1555  1  0.917700  0.819800  0.941500  1
  F  F1556  1  0.917700  0.180200  0.558500  1
  F  F1557  1  0.582300  0.680200  0.058500  1
  F  F1558  1  0.582300  0.319800  0.441500  1
  F  F1559  1  0.082300  0.180200  0.058500  1
  F  F1560  1  0.082300  0.819800  0.441500  1
  F  F1561  1  0.453900  0.276200  0.982400  1
  F  F1562  1  0.453900  0.723800  0.517600  1
  F  F1563  1  0.953900  0.776200  0.982400  1
  F  F1564  1  0.953900  0.223800  0.517600  1
  F  F1565  1  0.546100  0.723800  0.017600  1
  F  F1566  1  0.546100  0.276200  0.482400  1
  F  F1567  1  0.046100  0.223800  0.017600  1
  F  F1568  1  0.046100  0.776200  0.482400  1
  F  F1569  1  0.431700  0.352800  0.017700  1
  F  F1570  1  0.431700  0.647200  0.482300  1
  F  F1571  1  0.931700  0.852800  0.017700  1
  F  F1572  1  0.931700  0.147200  0.482300  1
  F  F1573  1  0.568300  0.647200  0.982300  1
  F  F1574  1  0.568300  0.352800  0.517700  1
  F  F1575  1  0.068300  0.147200  0.982300  1
  F  F1576  1  0.068300  0.852800  0.517700  1
  F  F1577  1  0.626900  0.359100  0.699100  1
  F  F1578  1  0.626900  0.640900  0.800900  1
  F  F1579  1  0.126900  0.859100  0.699100  1
  F  F1580  1  0.126900  0.140900  0.800900  1
  F  F1581  1  0.373100  0.640900  0.300900  1
  F  F1582  1  0.373100  0.359100  0.199100  1
  F  F1583  1  0.873100  0.140900  0.300900  1
  F  F1584  1  0.873100  0.859100  0.199100  1
  F  F1585  1  0.646500  0.404900  0.759700  1
  F  F1586  1  0.646500  0.595100  0.740300  1
  F  F1587  1  0.146500  0.904900  0.759700  1
  F  F1588  1  0.146500  0.095100  0.740300  1
  F  F1589  1  0.353500  0.595100  0.240300  1
  F  F1590  1  0.353500  0.404900  0.259700  1
  F  F1591  1  0.853500  0.095100  0.240300  1
  F  F1592  1  0.853500  0.904900  0.259700  1
  F  F1593  1  0.719000  0.355900  0.722600  1
  F  F1594  1  0.719000  0.644100  0.777400  1
  F  F1595  1  0.219000  0.855900  0.722600  1
  F  F1596  1  0.219000  0.144100  0.777400  1
  F  F1597  1  0.281000  0.644100  0.277400  1
  F  F1598  1  0.281000  0.355900  0.222600  1
  F  F1599  1  0.781000  0.144100  0.277400  1
  F  F1600  1  0.781000  0.855900  0.222600  1
  F  F1601  1  0.689100  0.419500  0.700100  1
  F  F1602  1  0.689100  0.580500  0.799900  1
  F  F1603  1  0.189100  0.919500  0.700100  1
  F  F1604  1  0.189100  0.080500  0.799900  1
  F  F1605  1  0.310900  0.580500  0.299900  1
  F  F1606  1  0.310900  0.419500  0.200100  1
  F  F1607  1  0.810900  0.080500  0.299900  1
  F  F1608  1  0.810900  0.919500  0.200100  1
  F  F1609  1  0.167200  0.461400  0.387100  1
  F  F1610  1  0.167200  0.538600  0.112900  1
  F  F1611  1  0.667200  0.961400  0.387100  1
  F  F1612  1  0.667200  0.038600  0.112900  1
  F  F1613  1  0.832800  0.538600  0.612900  1
  F  F1614  1  0.832800  0.461400  0.887100  1
  F  F1615  1  0.332800  0.038600  0.612900  1
  F  F1616  1  0.332800  0.961400  0.887100  1
  F  F1617  1  0.124400  0.531100  0.428200  1
  F  F1618  1  0.124400  0.468900  0.071800  1
  F  F1619  1  0.624400  0.031100  0.428200  1
  F  F1620  1  0.624400  0.968900  0.071800  1
  F  F1621  1  0.875600  0.468900  0.571800  1
  F  F1622  1  0.875600  0.531100  0.928200  1
  F  F1623  1  0.375600  0.968900  0.571800  1
  F  F1624  1  0.375600  0.031100  0.928200  1
  F  F1625  1  0.139000  0.473700  0.457700  1
  F  F1626  1  0.139000  0.526300  0.042300  1
  F  F1627  1  0.639000  0.973700  0.457700  1
  F  F1628  1  0.639000  0.026300  0.042300  1
  F  F1629  1  0.861000  0.526300  0.542300  1
  F  F1630  1  0.861000  0.473700  0.957700  1
  F  F1631  1  0.361000  0.026300  0.542300  1
  F  F1632  1  0.361000  0.973700  0.957700  1
  F  F1633  1  0.073800  0.463100  0.397700  1
  F  F1634  1  0.073800  0.536900  0.102300  1
  F  F1635  1  0.573800  0.963100  0.397700  1
  F  F1636  1  0.573800  0.036900  0.102300  1
  F  F1637  1  0.926200  0.536900  0.602300  1
  F  F1638  1  0.926200  0.463100  0.897700  1
  F  F1639  1  0.426200  0.036900  0.602300  1
  F  F1640  1  0.426200  0.963100  0.897700  1
  F  F1641  1  0.271300  0.469900  0.855800  1
  F  F1642  1  0.271300  0.530100  0.644200  1
  F  F1643  1  0.771300  0.969900  0.855800  1
  F  F1644  1  0.771300  0.030100  0.644200  1
  F  F1645  1  0.728700  0.530100  0.144200  1
  F  F1646  1  0.728700  0.469900  0.355800  1
  F  F1647  1  0.228700  0.030100  0.144200  1
  F  F1648  1  0.228700  0.969900  0.355800  1
  F  F1649  1  0.256700  0.476300  0.786700  1
  F  F1650  1  0.256700  0.523700  0.713300  1
  F  F1651  1  0.756700  0.976300  0.786700  1
  F  F1652  1  0.756700  0.023700  0.713300  1
  F  F1653  1  0.743300  0.523700  0.213300  1
  F  F1654  1  0.743300  0.476300  0.286700  1
  F  F1655  1  0.243300  0.023700  0.213300  1
  F  F1656  1  0.243300  0.976300  0.286700  1
  F  F1657  1  0.235900  0.409400  0.802500  1
  F  F1658  1  0.235900  0.590600  0.697500  1
  F  F1659  1  0.735900  0.909400  0.802500  1
  F  F1660  1  0.735900  0.090600  0.697500  1
  F  F1661  1  0.764100  0.590600  0.197500  1
  F  F1662  1  0.764100  0.409400  0.302500  1
  F  F1663  1  0.264100  0.090600  0.197500  1
  F  F1664  1  0.264100  0.909400  0.302500  1
  F  F1665  1  0.186200  0.482400  0.842700  1
  F  F1666  1  0.186200  0.517600  0.657300  1
  F  F1667  1  0.686200  0.982400  0.842700  1
  F  F1668  1  0.686200  0.017600  0.657300  1
  F  F1669  1  0.813800  0.517600  0.157300  1
  F  F1670  1  0.813800  0.482400  0.342700  1
  F  F1671  1  0.313800  0.017600  0.157300  1
  F  F1672  1  0.313800  0.982400  0.342700  1
  F  F1673  1  0.858700  0.336600  0.690600  1
  F  F1674  1  0.858700  0.663400  0.809400  1
  F  F1675  1  0.358700  0.836600  0.690600  1
  F  F1676  1  0.358700  0.163400  0.809400  1
  F  F1677  1  0.141300  0.663400  0.309400  1
  F  F1678  1  0.141300  0.336600  0.190600  1
  F  F1679  1  0.641300  0.163400  0.309400  1
  F  F1680  1  0.641300  0.836600  0.190600  1
  F  F1681  1  0.816400  0.393000  0.665000  1
  F  F1682  1  0.816400  0.607000  0.835000  1
  F  F1683  1  0.316400  0.893000  0.665000  1
  F  F1684  1  0.316400  0.107000  0.835000  1
  F  F1685  1  0.183600  0.607000  0.335000  1
  F  F1686  1  0.183600  0.393000  0.165000  1
  F  F1687  1  0.683600  0.107000  0.335000  1
  F  F1688  1  0.683600  0.893000  0.165000  1
  F  F1689  1  0.842100  0.327700  0.613200  1
  F  F1690  1  0.842100  0.672300  0.886800  1
  F  F1691  1  0.342100  0.827700  0.613200  1
  F  F1692  1  0.342100  0.172300  0.886800  1
  F  F1693  1  0.157900  0.672300  0.386800  1
  F  F1694  1  0.157900  0.327700  0.113200  1
  F  F1695  1  0.657900  0.172300  0.386800  1
  F  F1696  1  0.657900  0.827700  0.113200  1
  F  F1697  1  0.909800  0.377000  0.652700  1
  F  F1698  1  0.909800  0.623000  0.847300  1
  F  F1699  1  0.409800  0.877000  0.652700  1
  F  F1700  1  0.409800  0.123000  0.847300  1
  F  F1701  1  0.090200  0.623000  0.347300  1
  F  F1702  1  0.090200  0.377000  0.152700  1
  F  F1703  1  0.590200  0.123000  0.347300  1
  F  F1704  1  0.590200  0.877000  0.152700  1
