# generated using pymatgen
data_H64PdC84(N3O)4
_symmetry_space_group_name_H-M   'P 1'
_cell_length_a   33.24690000
_cell_length_b   33.24690000
_cell_length_c   33.24690000
_cell_angle_alpha   90.00000000
_cell_angle_beta   90.00000000
_cell_angle_gamma   90.00000000
_symmetry_Int_Tables_number   1
_chemical_formula_structural   H64PdC84(N3O)4
_chemical_formula_sum   'H768 Pd12 C1008 N144 O48'
_cell_volume   36749.67235232
_cell_formula_units_Z   12
loop_
 _symmetry_equiv_pos_site_id
 _symmetry_equiv_pos_as_xyz
  1  'x, y, z'
loop_
 _atom_site_type_symbol
 _atom_site_label
 _atom_site_symmetry_multiplicity
 _atom_site_fract_x
 _atom_site_fract_y
 _atom_site_fract_z
 _atom_site_occupancy
  H  H1  1  0.036300  0.036300  0.750000  1.0
  H  H2  1  0.463700  0.036300  0.750000  1.0
  H  H3  1  0.463700  0.463700  0.750000  1.0
  H  H4  1  0.036300  0.463700  0.750000  1.0
  H  H5  1  0.750000  0.036300  0.036300  1.0
  H  H6  1  0.463700  0.750000  0.036300  1.0
  H  H7  1  0.750000  0.463700  0.036300  1.0
  H  H8  1  0.036300  0.750000  0.036300  1.0
  H  H9  1  0.750000  0.463700  0.463700  1.0
  H  H10  1  0.036300  0.750000  0.463700  1.0
  H  H11  1  0.750000  0.036300  0.463700  1.0
  H  H12  1  0.463700  0.750000  0.463700  1.0
  H  H13  1  0.963700  0.963700  0.250000  1.0
  H  H14  1  0.536300  0.963700  0.250000  1.0
  H  H15  1  0.536300  0.536300  0.250000  1.0
  H  H16  1  0.963700  0.536300  0.250000  1.0
  H  H17  1  0.250000  0.963700  0.963700  1.0
  H  H18  1  0.536300  0.250000  0.963700  1.0
  H  H19  1  0.250000  0.536300  0.963700  1.0
  H  H20  1  0.963700  0.250000  0.963700  1.0
  H  H21  1  0.250000  0.536300  0.536300  1.0
  H  H22  1  0.963700  0.250000  0.536300  1.0
  H  H23  1  0.250000  0.963700  0.536300  1.0
  H  H24  1  0.536300  0.250000  0.536300  1.0
  H  H25  1  0.135500  0.135500  0.750000  1.0
  H  H26  1  0.364500  0.135500  0.750000  1.0
  H  H27  1  0.364500  0.364500  0.750000  1.0
  H  H28  1  0.135500  0.364500  0.750000  1.0
  H  H29  1  0.750000  0.135500  0.135500  1.0
  H  H30  1  0.364500  0.750000  0.135500  1.0
  H  H31  1  0.750000  0.364500  0.135500  1.0
  H  H32  1  0.135500  0.750000  0.135500  1.0
  H  H33  1  0.750000  0.364500  0.364500  1.0
  H  H34  1  0.135500  0.750000  0.364500  1.0
  H  H35  1  0.750000  0.135500  0.364500  1.0
  H  H36  1  0.364500  0.750000  0.364500  1.0
  H  H37  1  0.864500  0.864500  0.250000  1.0
  H  H38  1  0.635500  0.864500  0.250000  1.0
  H  H39  1  0.635500  0.635500  0.250000  1.0
  H  H40  1  0.864500  0.635500  0.250000  1.0
  H  H41  1  0.250000  0.864500  0.864500  1.0
  H  H42  1  0.635500  0.250000  0.864500  1.0
  H  H43  1  0.250000  0.635500  0.864500  1.0
  H  H44  1  0.864500  0.250000  0.864500  1.0
  H  H45  1  0.250000  0.635500  0.635500  1.0
  H  H46  1  0.864500  0.250000  0.635500  1.0
  H  H47  1  0.250000  0.864500  0.635500  1.0
  H  H48  1  0.635500  0.250000  0.635500  1.0
  H  H49  1  0.179000  0.269400  0.507000  1.0
  H  H50  1  0.230600  0.179000  0.507000  1.0
  H  H51  1  0.321000  0.230600  0.507000  1.0
  H  H52  1  0.269400  0.321000  0.507000  1.0
  H  H53  1  0.179000  0.230600  0.993000  1.0
  H  H54  1  0.269400  0.179000  0.993000  1.0
  H  H55  1  0.321000  0.269400  0.993000  1.0
  H  H56  1  0.230600  0.321000  0.993000  1.0
  H  H57  1  0.507000  0.179000  0.269400  1.0
  H  H58  1  0.321000  0.507000  0.269400  1.0
  H  H59  1  0.993000  0.321000  0.269400  1.0
  H  H60  1  0.179000  0.993000  0.269400  1.0
  H  H61  1  0.507000  0.321000  0.230600  1.0
  H  H62  1  0.179000  0.507000  0.230600  1.0
  H  H63  1  0.993000  0.179000  0.230600  1.0
  H  H64  1  0.321000  0.993000  0.230600  1.0
  H  H65  1  0.269400  0.507000  0.179000  1.0
  H  H66  1  0.993000  0.230600  0.321000  1.0
  H  H67  1  0.993000  0.269400  0.179000  1.0
  H  H68  1  0.507000  0.269400  0.321000  1.0
  H  H69  1  0.507000  0.230600  0.179000  1.0
  H  H70  1  0.269400  0.993000  0.321000  1.0
  H  H71  1  0.230600  0.993000  0.179000  1.0
  H  H72  1  0.230600  0.507000  0.321000  1.0
  H  H73  1  0.821000  0.730600  0.493000  1.0
  H  H74  1  0.769400  0.821000  0.493000  1.0
  H  H75  1  0.679000  0.769400  0.493000  1.0
  H  H76  1  0.730600  0.679000  0.493000  1.0
  H  H77  1  0.821000  0.769400  0.007000  1.0
  H  H78  1  0.730600  0.821000  0.007000  1.0
  H  H79  1  0.679000  0.730600  0.007000  1.0
  H  H80  1  0.769400  0.679000  0.007000  1.0
  H  H81  1  0.493000  0.821000  0.730600  1.0
  H  H82  1  0.679000  0.493000  0.730600  1.0
  H  H83  1  0.007000  0.679000  0.730600  1.0
  H  H84  1  0.821000  0.007000  0.730600  1.0
  H  H85  1  0.493000  0.679000  0.769400  1.0
  H  H86  1  0.821000  0.493000  0.769400  1.0
  H  H87  1  0.007000  0.821000  0.769400  1.0
  H  H88  1  0.679000  0.007000  0.769400  1.0
  H  H89  1  0.730600  0.493000  0.821000  1.0
  H  H90  1  0.007000  0.769400  0.679000  1.0
  H  H91  1  0.007000  0.730600  0.821000  1.0
  H  H92  1  0.493000  0.730600  0.679000  1.0
  H  H93  1  0.493000  0.769400  0.821000  1.0
  H  H94  1  0.730600  0.007000  0.679000  1.0
  H  H95  1  0.769400  0.007000  0.821000  1.0
  H  H96  1  0.769400  0.493000  0.679000  1.0
  H  H97  1  0.111700  0.252200  0.502400  1.0
  H  H98  1  0.247800  0.111700  0.502400  1.0
  H  H99  1  0.388300  0.247800  0.502400  1.0
  H  H100  1  0.252200  0.388300  0.502400  1.0
  H  H101  1  0.111700  0.247800  0.997600  1.0
  H  H102  1  0.252200  0.111700  0.997600  1.0
  H  H103  1  0.388300  0.252200  0.997600  1.0
  H  H104  1  0.247800  0.388300  0.997600  1.0
  H  H105  1  0.502400  0.111700  0.252200  1.0
  H  H106  1  0.388300  0.502400  0.252200  1.0
  H  H107  1  0.997600  0.388300  0.252200  1.0
  H  H108  1  0.111700  0.997600  0.252200  1.0
  H  H109  1  0.502400  0.388300  0.247800  1.0
  H  H110  1  0.111700  0.502400  0.247800  1.0
  H  H111  1  0.997600  0.111700  0.247800  1.0
  H  H112  1  0.388300  0.997600  0.247800  1.0
  H  H113  1  0.252200  0.502400  0.111700  1.0
  H  H114  1  0.997600  0.247800  0.388300  1.0
  H  H115  1  0.997600  0.252200  0.111700  1.0
  H  H116  1  0.502400  0.252200  0.388300  1.0
  H  H117  1  0.502400  0.247800  0.111700  1.0
  H  H118  1  0.252200  0.997600  0.388300  1.0
  H  H119  1  0.247800  0.997600  0.111700  1.0
  H  H120  1  0.247800  0.502400  0.388300  1.0
  H  H121  1  0.888300  0.747800  0.497600  1.0
  H  H122  1  0.752200  0.888300  0.497600  1.0
  H  H123  1  0.611700  0.752200  0.497600  1.0
  H  H124  1  0.747800  0.611700  0.497600  1.0
  H  H125  1  0.888300  0.752200  0.002400  1.0
  H  H126  1  0.747800  0.888300  0.002400  1.0
  H  H127  1  0.611700  0.747800  0.002400  1.0
  H  H128  1  0.752200  0.611700  0.002400  1.0
  H  H129  1  0.497600  0.888300  0.747800  1.0
  H  H130  1  0.611700  0.497600  0.747800  1.0
  H  H131  1  0.002400  0.611700  0.747800  1.0
  H  H132  1  0.888300  0.002400  0.747800  1.0
  H  H133  1  0.497600  0.611700  0.752200  1.0
  H  H134  1  0.888300  0.497600  0.752200  1.0
  H  H135  1  0.002400  0.888300  0.752200  1.0
  H  H136  1  0.611700  0.002400  0.752200  1.0
  H  H137  1  0.747800  0.497600  0.888300  1.0
  H  H138  1  0.002400  0.752200  0.611700  1.0
  H  H139  1  0.002400  0.747800  0.888300  1.0
  H  H140  1  0.497600  0.747800  0.611700  1.0
  H  H141  1  0.497600  0.752200  0.888300  1.0
  H  H142  1  0.747800  0.002400  0.611700  1.0
  H  H143  1  0.752200  0.002400  0.888300  1.0
  H  H144  1  0.752200  0.497600  0.611700  1.0
  H  H145  1  0.083600  0.207600  0.549100  1.0
  H  H146  1  0.292400  0.083600  0.549100  1.0
  H  H147  1  0.416400  0.292400  0.549100  1.0
  H  H148  1  0.207600  0.416400  0.549100  1.0
  H  H149  1  0.083600  0.292400  0.950900  1.0
  H  H150  1  0.207600  0.083600  0.950900  1.0
  H  H151  1  0.416400  0.207600  0.950900  1.0
  H  H152  1  0.292400  0.416400  0.950900  1.0
  H  H153  1  0.549100  0.083600  0.207600  1.0
  H  H154  1  0.416400  0.549100  0.207600  1.0
  H  H155  1  0.950900  0.416400  0.207600  1.0
  H  H156  1  0.083600  0.950900  0.207600  1.0
  H  H157  1  0.549100  0.416400  0.292400  1.0
  H  H158  1  0.083600  0.549100  0.292400  1.0
  H  H159  1  0.950900  0.083600  0.292400  1.0
  H  H160  1  0.416400  0.950900  0.292400  1.0
  H  H161  1  0.207600  0.549100  0.083600  1.0
  H  H162  1  0.950900  0.292400  0.416400  1.0
  H  H163  1  0.950900  0.207600  0.083600  1.0
  H  H164  1  0.549100  0.207600  0.416400  1.0
  H  H165  1  0.549100  0.292400  0.083600  1.0
  H  H166  1  0.207600  0.950900  0.416400  1.0
  H  H167  1  0.292400  0.950900  0.083600  1.0
  H  H168  1  0.292400  0.549100  0.416400  1.0
  H  H169  1  0.916400  0.792400  0.450900  1.0
  H  H170  1  0.707600  0.916400  0.450900  1.0
  H  H171  1  0.583600  0.707600  0.450900  1.0
  H  H172  1  0.792400  0.583600  0.450900  1.0
  H  H173  1  0.916400  0.707600  0.049100  1.0
  H  H174  1  0.792400  0.916400  0.049100  1.0
  H  H175  1  0.583600  0.792400  0.049100  1.0
  H  H176  1  0.707600  0.583600  0.049100  1.0
  H  H177  1  0.450900  0.916400  0.792400  1.0
  H  H178  1  0.583600  0.450900  0.792400  1.0
  H  H179  1  0.049100  0.583600  0.792400  1.0
  H  H180  1  0.916400  0.049100  0.792400  1.0
  H  H181  1  0.450900  0.583600  0.707600  1.0
  H  H182  1  0.916400  0.450900  0.707600  1.0
  H  H183  1  0.049100  0.916400  0.707600  1.0
  H  H184  1  0.583600  0.049100  0.707600  1.0
  H  H185  1  0.792400  0.450900  0.916400  1.0
  H  H186  1  0.049100  0.707600  0.583600  1.0
  H  H187  1  0.049100  0.792400  0.916400  1.0
  H  H188  1  0.450900  0.792400  0.583600  1.0
  H  H189  1  0.450900  0.707600  0.916400  1.0
  H  H190  1  0.792400  0.049100  0.583600  1.0
  H  H191  1  0.707600  0.049100  0.916400  1.0
  H  H192  1  0.707600  0.450900  0.583600  1.0
  H  H193  1  0.190000  0.206200  0.606500  1.0
  H  H194  1  0.293800  0.190000  0.606500  1.0
  H  H195  1  0.310000  0.293800  0.606500  1.0
  H  H196  1  0.206200  0.310000  0.606500  1.0
  H  H197  1  0.190000  0.293800  0.893500  1.0
  H  H198  1  0.206200  0.190000  0.893500  1.0
  H  H199  1  0.310000  0.206200  0.893500  1.0
  H  H200  1  0.293800  0.310000  0.893500  1.0
  H  H201  1  0.606500  0.190000  0.206200  1.0
  H  H202  1  0.310000  0.606500  0.206200  1.0
  H  H203  1  0.893500  0.310000  0.206200  1.0
  H  H204  1  0.190000  0.893500  0.206200  1.0
  H  H205  1  0.606500  0.310000  0.293800  1.0
  H  H206  1  0.190000  0.606500  0.293800  1.0
  H  H207  1  0.893500  0.190000  0.293800  1.0
  H  H208  1  0.310000  0.893500  0.293800  1.0
  H  H209  1  0.206200  0.606500  0.190000  1.0
  H  H210  1  0.893500  0.293800  0.310000  1.0
  H  H211  1  0.893500  0.206200  0.190000  1.0
  H  H212  1  0.606500  0.206200  0.310000  1.0
  H  H213  1  0.606500  0.293800  0.190000  1.0
  H  H214  1  0.206200  0.893500  0.310000  1.0
  H  H215  1  0.293800  0.893500  0.190000  1.0
  H  H216  1  0.293800  0.606500  0.310000  1.0
  H  H217  1  0.810000  0.793800  0.393500  1.0
  H  H218  1  0.706200  0.810000  0.393500  1.0
  H  H219  1  0.690000  0.706200  0.393500  1.0
  H  H220  1  0.793800  0.690000  0.393500  1.0
  H  H221  1  0.810000  0.706200  0.106500  1.0
  H  H222  1  0.793800  0.810000  0.106500  1.0
  H  H223  1  0.690000  0.793800  0.106500  1.0
  H  H224  1  0.706200  0.690000  0.106500  1.0
  H  H225  1  0.393500  0.810000  0.793800  1.0
  H  H226  1  0.690000  0.393500  0.793800  1.0
  H  H227  1  0.106500  0.690000  0.793800  1.0
  H  H228  1  0.810000  0.106500  0.793800  1.0
  H  H229  1  0.393500  0.690000  0.706200  1.0
  H  H230  1  0.810000  0.393500  0.706200  1.0
  H  H231  1  0.106500  0.810000  0.706200  1.0
  H  H232  1  0.690000  0.106500  0.706200  1.0
  H  H233  1  0.793800  0.393500  0.810000  1.0
  H  H234  1  0.106500  0.706200  0.690000  1.0
  H  H235  1  0.106500  0.793800  0.810000  1.0
  H  H236  1  0.393500  0.793800  0.690000  1.0
  H  H237  1  0.393500  0.706200  0.810000  1.0
  H  H238  1  0.793800  0.106500  0.690000  1.0
  H  H239  1  0.706200  0.106500  0.810000  1.0
  H  H240  1  0.706200  0.393500  0.690000  1.0
  H  H241  1  0.070400  0.236600  0.605500  1.0
  H  H242  1  0.263400  0.070400  0.605500  1.0
  H  H243  1  0.429600  0.263400  0.605500  1.0
  H  H244  1  0.236600  0.429600  0.605500  1.0
  H  H245  1  0.070400  0.263400  0.894500  1.0
  H  H246  1  0.236600  0.070400  0.894500  1.0
  H  H247  1  0.429600  0.236600  0.894500  1.0
  H  H248  1  0.263400  0.429600  0.894500  1.0
  H  H249  1  0.605500  0.070400  0.236600  1.0
  H  H250  1  0.429600  0.605500  0.236600  1.0
  H  H251  1  0.894500  0.429600  0.236600  1.0
  H  H252  1  0.070400  0.894500  0.236600  1.0
  H  H253  1  0.605500  0.429600  0.263400  1.0
  H  H254  1  0.070400  0.605500  0.263400  1.0
  H  H255  1  0.894500  0.070400  0.263400  1.0
  H  H256  1  0.429600  0.894500  0.263400  1.0
  H  H257  1  0.236600  0.605500  0.070400  1.0
  H  H258  1  0.894500  0.263400  0.429600  1.0
  H  H259  1  0.894500  0.236600  0.070400  1.0
  H  H260  1  0.605500  0.236600  0.429600  1.0
  H  H261  1  0.605500  0.263400  0.070400  1.0
  H  H262  1  0.236600  0.894500  0.429600  1.0
  H  H263  1  0.263400  0.894500  0.070400  1.0
  H  H264  1  0.263400  0.605500  0.429600  1.0
  H  H265  1  0.929600  0.763400  0.394500  1.0
  H  H266  1  0.736600  0.929600  0.394500  1.0
  H  H267  1  0.570400  0.736600  0.394500  1.0
  H  H268  1  0.763400  0.570400  0.394500  1.0
  H  H269  1  0.929600  0.736600  0.105500  1.0
  H  H270  1  0.763400  0.929600  0.105500  1.0
  H  H271  1  0.570400  0.763400  0.105500  1.0
  H  H272  1  0.736600  0.570400  0.105500  1.0
  H  H273  1  0.394500  0.929600  0.763400  1.0
  H  H274  1  0.570400  0.394500  0.763400  1.0
  H  H275  1  0.105500  0.570400  0.763400  1.0
  H  H276  1  0.929600  0.105500  0.763400  1.0
  H  H277  1  0.394500  0.570400  0.736600  1.0
  H  H278  1  0.929600  0.394500  0.736600  1.0
  H  H279  1  0.105500  0.929600  0.736600  1.0
  H  H280  1  0.570400  0.105500  0.736600  1.0
  H  H281  1  0.763400  0.394500  0.929600  1.0
  H  H282  1  0.105500  0.736600  0.570400  1.0
  H  H283  1  0.105500  0.763400  0.929600  1.0
  H  H284  1  0.394500  0.763400  0.570400  1.0
  H  H285  1  0.394500  0.736600  0.929600  1.0
  H  H286  1  0.763400  0.105500  0.570400  1.0
  H  H287  1  0.736600  0.105500  0.929600  1.0
  H  H288  1  0.736600  0.394500  0.570400  1.0
  H  H289  1  0.016800  0.254100  0.647200  1.0
  H  H290  1  0.245900  0.016800  0.647200  1.0
  H  H291  1  0.483200  0.245900  0.647200  1.0
  H  H292  1  0.254100  0.483200  0.647200  1.0
  H  H293  1  0.016800  0.245900  0.852800  1.0
  H  H294  1  0.254100  0.016800  0.852800  1.0
  H  H295  1  0.483200  0.254100  0.852800  1.0
  H  H296  1  0.245900  0.483200  0.852800  1.0
  H  H297  1  0.647200  0.016800  0.254100  1.0
  H  H298  1  0.483200  0.647200  0.254100  1.0
  H  H299  1  0.852800  0.483200  0.254100  1.0
  H  H300  1  0.016800  0.852800  0.254100  1.0
  H  H301  1  0.647200  0.483200  0.245900  1.0
  H  H302  1  0.016800  0.647200  0.245900  1.0
  H  H303  1  0.852800  0.016800  0.245900  1.0
  H  H304  1  0.483200  0.852800  0.245900  1.0
  H  H305  1  0.254100  0.647200  0.016800  1.0
  H  H306  1  0.852800  0.245900  0.483200  1.0
  H  H307  1  0.852800  0.254100  0.016800  1.0
  H  H308  1  0.647200  0.254100  0.483200  1.0
  H  H309  1  0.647200  0.245900  0.016800  1.0
  H  H310  1  0.254100  0.852800  0.483200  1.0
  H  H311  1  0.245900  0.852800  0.016800  1.0
  H  H312  1  0.245900  0.647200  0.483200  1.0
  H  H313  1  0.983200  0.745900  0.352800  1.0
  H  H314  1  0.754100  0.983200  0.352800  1.0
  H  H315  1  0.516800  0.754100  0.352800  1.0
  H  H316  1  0.745900  0.516800  0.352800  1.0
  H  H317  1  0.983200  0.754100  0.147200  1.0
  H  H318  1  0.745900  0.983200  0.147200  1.0
  H  H319  1  0.516800  0.745900  0.147200  1.0
  H  H320  1  0.754100  0.516800  0.147200  1.0
  H  H321  1  0.352800  0.983200  0.745900  1.0
  H  H322  1  0.516800  0.352800  0.745900  1.0
  H  H323  1  0.147200  0.516800  0.745900  1.0
  H  H324  1  0.983200  0.147200  0.745900  1.0
  H  H325  1  0.352800  0.516800  0.754100  1.0
  H  H326  1  0.983200  0.352800  0.754100  1.0
  H  H327  1  0.147200  0.983200  0.754100  1.0
  H  H328  1  0.516800  0.147200  0.754100  1.0
  H  H329  1  0.745900  0.352800  0.983200  1.0
  H  H330  1  0.147200  0.754100  0.516800  1.0
  H  H331  1  0.147200  0.745900  0.983200  1.0
  H  H332  1  0.352800  0.745900  0.516800  1.0
  H  H333  1  0.352800  0.754100  0.983200  1.0
  H  H334  1  0.745900  0.147200  0.516800  1.0
  H  H335  1  0.754100  0.147200  0.983200  1.0
  H  H336  1  0.754100  0.352800  0.516800  1.0
  H  H337  1  0.000200  0.214400  0.702700  1.0
  H  H338  1  0.285600  0.000200  0.702700  1.0
  H  H339  1  0.499800  0.285600  0.702700  1.0
  H  H340  1  0.214400  0.499800  0.702700  1.0
  H  H341  1  0.000200  0.285600  0.797300  1.0
  H  H342  1  0.214400  0.000200  0.797300  1.0
  H  H343  1  0.499800  0.214400  0.797300  1.0
  H  H344  1  0.285600  0.499800  0.797300  1.0
  H  H345  1  0.702700  0.000200  0.214400  1.0
  H  H346  1  0.499800  0.702700  0.214400  1.0
  H  H347  1  0.797300  0.499800  0.214400  1.0
  H  H348  1  0.000200  0.797300  0.214400  1.0
  H  H349  1  0.702700  0.499800  0.285600  1.0
  H  H350  1  0.000200  0.702700  0.285600  1.0
  H  H351  1  0.797300  0.000200  0.285600  1.0
  H  H352  1  0.499800  0.797300  0.285600  1.0
  H  H353  1  0.214400  0.702700  0.000200  1.0
  H  H354  1  0.797300  0.285600  0.499800  1.0
  H  H355  1  0.797300  0.214400  0.000200  1.0
  H  H356  1  0.702700  0.214400  0.499800  1.0
  H  H357  1  0.702700  0.285600  0.000200  1.0
  H  H358  1  0.214400  0.797300  0.499800  1.0
  H  H359  1  0.285600  0.797300  0.000200  1.0
  H  H360  1  0.285600  0.702700  0.499800  1.0
  H  H361  1  0.999800  0.785600  0.297300  1.0
  H  H362  1  0.714400  0.999800  0.297300  1.0
  H  H363  1  0.500200  0.714400  0.297300  1.0
  H  H364  1  0.785600  0.500200  0.297300  1.0
  H  H365  1  0.999800  0.714400  0.202700  1.0
  H  H366  1  0.785600  0.999800  0.202700  1.0
  H  H367  1  0.500200  0.785600  0.202700  1.0
  H  H368  1  0.714400  0.500200  0.202700  1.0
  H  H369  1  0.297300  0.999800  0.785600  1.0
  H  H370  1  0.500200  0.297300  0.785600  1.0
  H  H371  1  0.202700  0.500200  0.785600  1.0
  H  H372  1  0.999800  0.202700  0.785600  1.0
  H  H373  1  0.297300  0.500200  0.714400  1.0
  H  H374  1  0.999800  0.297300  0.714400  1.0
  H  H375  1  0.202700  0.999800  0.714400  1.0
  H  H376  1  0.500200  0.202700  0.714400  1.0
  H  H377  1  0.785600  0.297300  0.999800  1.0
  H  H378  1  0.202700  0.714400  0.500200  1.0
  H  H379  1  0.202700  0.785600  0.999800  1.0
  H  H380  1  0.297300  0.785600  0.500200  1.0
  H  H381  1  0.297300  0.714400  0.999800  1.0
  H  H382  1  0.785600  0.202700  0.500200  1.0
  H  H383  1  0.714400  0.202700  0.999800  1.0
  H  H384  1  0.714400  0.297300  0.500200  1.0
  H  H385  1  0.041100  0.158200  0.717800  1.0
  H  H386  1  0.341800  0.041100  0.717800  1.0
  H  H387  1  0.458900  0.341800  0.717800  1.0
  H  H388  1  0.158200  0.458900  0.717800  1.0
  H  H389  1  0.041100  0.341800  0.782200  1.0
  H  H390  1  0.158200  0.041100  0.782200  1.0
  H  H391  1  0.458900  0.158200  0.782200  1.0
  H  H392  1  0.341800  0.458900  0.782200  1.0
  H  H393  1  0.717800  0.041100  0.158200  1.0
  H  H394  1  0.458900  0.717800  0.158200  1.0
  H  H395  1  0.782200  0.458900  0.158200  1.0
  H  H396  1  0.041100  0.782200  0.158200  1.0
  H  H397  1  0.717800  0.458900  0.341800  1.0
  H  H398  1  0.041100  0.717800  0.341800  1.0
  H  H399  1  0.782200  0.041100  0.341800  1.0
  H  H400  1  0.458900  0.782200  0.341800  1.0
  H  H401  1  0.158200  0.717800  0.041100  1.0
  H  H402  1  0.782200  0.341800  0.458900  1.0
  H  H403  1  0.782200  0.158200  0.041100  1.0
  H  H404  1  0.717800  0.158200  0.458900  1.0
  H  H405  1  0.717800  0.341800  0.041100  1.0
  H  H406  1  0.158200  0.782200  0.458900  1.0
  H  H407  1  0.341800  0.782200  0.041100  1.0
  H  H408  1  0.341800  0.717800  0.458900  1.0
  H  H409  1  0.958900  0.841800  0.282200  1.0
  H  H410  1  0.658200  0.958900  0.282200  1.0
  H  H411  1  0.541100  0.658200  0.282200  1.0
  H  H412  1  0.841800  0.541100  0.282200  1.0
  H  H413  1  0.958900  0.658200  0.217800  1.0
  H  H414  1  0.841800  0.958900  0.217800  1.0
  H  H415  1  0.541100  0.841800  0.217800  1.0
  H  H416  1  0.658200  0.541100  0.217800  1.0
  H  H417  1  0.282200  0.958900  0.841800  1.0
  H  H418  1  0.541100  0.282200  0.841800  1.0
  H  H419  1  0.217800  0.541100  0.841800  1.0
  H  H420  1  0.958900  0.217800  0.841800  1.0
  H  H421  1  0.282200  0.541100  0.658200  1.0
  H  H422  1  0.958900  0.282200  0.658200  1.0
  H  H423  1  0.217800  0.958900  0.658200  1.0
  H  H424  1  0.541100  0.217800  0.658200  1.0
  H  H425  1  0.841800  0.282200  0.958900  1.0
  H  H426  1  0.217800  0.658200  0.541100  1.0
  H  H427  1  0.217800  0.841800  0.958900  1.0
  H  H428  1  0.282200  0.841800  0.541100  1.0
  H  H429  1  0.282200  0.658200  0.958900  1.0
  H  H430  1  0.841800  0.217800  0.541100  1.0
  H  H431  1  0.658200  0.217800  0.958900  1.0
  H  H432  1  0.658200  0.282200  0.541100  1.0
  H  H433  1  0.165200  0.136600  0.561700  1.0
  H  H434  1  0.363400  0.165200  0.561700  1.0
  H  H435  1  0.334800  0.363400  0.561700  1.0
  H  H436  1  0.136600  0.334800  0.561700  1.0
  H  H437  1  0.165200  0.363400  0.938300  1.0
  H  H438  1  0.136600  0.165200  0.938300  1.0
  H  H439  1  0.334800  0.136600  0.938300  1.0
  H  H440  1  0.363400  0.334800  0.938300  1.0
  H  H441  1  0.561700  0.165200  0.136600  1.0
  H  H442  1  0.334800  0.561700  0.136600  1.0
  H  H443  1  0.938300  0.334800  0.136600  1.0
  H  H444  1  0.165200  0.938300  0.136600  1.0
  H  H445  1  0.561700  0.334800  0.363400  1.0
  H  H446  1  0.165200  0.561700  0.363400  1.0
  H  H447  1  0.938300  0.165200  0.363400  1.0
  H  H448  1  0.334800  0.938300  0.363400  1.0
  H  H449  1  0.136600  0.561700  0.165200  1.0
  H  H450  1  0.938300  0.363400  0.334800  1.0
  H  H451  1  0.938300  0.136600  0.165200  1.0
  H  H452  1  0.561700  0.136600  0.334800  1.0
  H  H453  1  0.561700  0.363400  0.165200  1.0
  H  H454  1  0.136600  0.938300  0.334800  1.0
  H  H455  1  0.363400  0.938300  0.165200  1.0
  H  H456  1  0.363400  0.561700  0.334800  1.0
  H  H457  1  0.834800  0.863400  0.438300  1.0
  H  H458  1  0.636600  0.834800  0.438300  1.0
  H  H459  1  0.665200  0.636600  0.438300  1.0
  H  H460  1  0.863400  0.665200  0.438300  1.0
  H  H461  1  0.834800  0.636600  0.061700  1.0
  H  H462  1  0.863400  0.834800  0.061700  1.0
  H  H463  1  0.665200  0.863400  0.061700  1.0
  H  H464  1  0.636600  0.665200  0.061700  1.0
  H  H465  1  0.438300  0.834800  0.863400  1.0
  H  H466  1  0.665200  0.438300  0.863400  1.0
  H  H467  1  0.061700  0.665200  0.863400  1.0
  H  H468  1  0.834800  0.061700  0.863400  1.0
  H  H469  1  0.438300  0.665200  0.636600  1.0
  H  H470  1  0.834800  0.438300  0.636600  1.0
  H  H471  1  0.061700  0.834800  0.636600  1.0
  H  H472  1  0.665200  0.061700  0.636600  1.0
  H  H473  1  0.863400  0.438300  0.834800  1.0
  H  H474  1  0.061700  0.636600  0.665200  1.0
  H  H475  1  0.061700  0.863400  0.834800  1.0
  H  H476  1  0.438300  0.863400  0.665200  1.0
  H  H477  1  0.438300  0.636600  0.834800  1.0
  H  H478  1  0.863400  0.061700  0.665200  1.0
  H  H479  1  0.636600  0.061700  0.834800  1.0
  H  H480  1  0.636600  0.438300  0.665200  1.0
  H  H481  1  0.188700  0.070900  0.565300  1.0
  H  H482  1  0.429100  0.188700  0.565300  1.0
  H  H483  1  0.311300  0.429100  0.565300  1.0
  H  H484  1  0.070900  0.311300  0.565300  1.0
  H  H485  1  0.188700  0.429100  0.934700  1.0
  H  H486  1  0.070900  0.188700  0.934700  1.0
  H  H487  1  0.311300  0.070900  0.934700  1.0
  H  H488  1  0.429100  0.311300  0.934700  1.0
  H  H489  1  0.565300  0.188700  0.070900  1.0
  H  H490  1  0.311300  0.565300  0.070900  1.0
  H  H491  1  0.934700  0.311300  0.070900  1.0
  H  H492  1  0.188700  0.934700  0.070900  1.0
  H  H493  1  0.565300  0.311300  0.429100  1.0
  H  H494  1  0.188700  0.565300  0.429100  1.0
  H  H495  1  0.934700  0.188700  0.429100  1.0
  H  H496  1  0.311300  0.934700  0.429100  1.0
  H  H497  1  0.070900  0.565300  0.188700  1.0
  H  H498  1  0.934700  0.429100  0.311300  1.0
  H  H499  1  0.934700  0.070900  0.188700  1.0
  H  H500  1  0.565300  0.070900  0.311300  1.0
  H  H501  1  0.565300  0.429100  0.188700  1.0
  H  H502  1  0.070900  0.934700  0.311300  1.0
  H  H503  1  0.429100  0.934700  0.188700  1.0
  H  H504  1  0.429100  0.565300  0.311300  1.0
  H  H505  1  0.811300  0.929100  0.434700  1.0
  H  H506  1  0.570900  0.811300  0.434700  1.0
  H  H507  1  0.688700  0.570900  0.434700  1.0
  H  H508  1  0.929100  0.688700  0.434700  1.0
  H  H509  1  0.811300  0.570900  0.065300  1.0
  H  H510  1  0.929100  0.811300  0.065300  1.0
  H  H511  1  0.688700  0.929100  0.065300  1.0
  H  H512  1  0.570900  0.688700  0.065300  1.0
  H  H513  1  0.434700  0.811300  0.929100  1.0
  H  H514  1  0.688700  0.434700  0.929100  1.0
  H  H515  1  0.065300  0.688700  0.929100  1.0
  H  H516  1  0.811300  0.065300  0.929100  1.0
  H  H517  1  0.434700  0.688700  0.570900  1.0
  H  H518  1  0.811300  0.434700  0.570900  1.0
  H  H519  1  0.065300  0.811300  0.570900  1.0
  H  H520  1  0.688700  0.065300  0.570900  1.0
  H  H521  1  0.929100  0.434700  0.811300  1.0
  H  H522  1  0.065300  0.570900  0.688700  1.0
  H  H523  1  0.065300  0.929100  0.811300  1.0
  H  H524  1  0.434700  0.929100  0.688700  1.0
  H  H525  1  0.434700  0.570900  0.811300  1.0
  H  H526  1  0.929100  0.065300  0.688700  1.0
  H  H527  1  0.570900  0.065300  0.811300  1.0
  H  H528  1  0.570900  0.434700  0.688700  1.0
  H  H529  1  0.171700  0.031000  0.621000  1.0
  H  H530  1  0.469000  0.171700  0.621000  1.0
  H  H531  1  0.328300  0.469000  0.621000  1.0
  H  H532  1  0.031000  0.328300  0.621000  1.0
  H  H533  1  0.171700  0.469000  0.879000  1.0
  H  H534  1  0.031000  0.171700  0.879000  1.0
  H  H535  1  0.328300  0.031000  0.879000  1.0
  H  H536  1  0.469000  0.328300  0.879000  1.0
  H  H537  1  0.621000  0.171700  0.031000  1.0
  H  H538  1  0.328300  0.621000  0.031000  1.0
  H  H539  1  0.879000  0.328300  0.031000  1.0
  H  H540  1  0.171700  0.879000  0.031000  1.0
  H  H541  1  0.621000  0.328300  0.469000  1.0
  H  H542  1  0.171700  0.621000  0.469000  1.0
  H  H543  1  0.879000  0.171700  0.469000  1.0
  H  H544  1  0.328300  0.879000  0.469000  1.0
  H  H545  1  0.031000  0.621000  0.171700  1.0
  H  H546  1  0.879000  0.469000  0.328300  1.0
  H  H547  1  0.879000  0.031000  0.171700  1.0
  H  H548  1  0.621000  0.031000  0.328300  1.0
  H  H549  1  0.621000  0.469000  0.171700  1.0
  H  H550  1  0.031000  0.879000  0.328300  1.0
  H  H551  1  0.469000  0.879000  0.171700  1.0
  H  H552  1  0.469000  0.621000  0.328300  1.0
  H  H553  1  0.828300  0.969000  0.379000  1.0
  H  H554  1  0.531000  0.828300  0.379000  1.0
  H  H555  1  0.671700  0.531000  0.379000  1.0
  H  H556  1  0.969000  0.671700  0.379000  1.0
  H  H557  1  0.828300  0.531000  0.121000  1.0
  H  H558  1  0.969000  0.828300  0.121000  1.0
  H  H559  1  0.671700  0.969000  0.121000  1.0
  H  H560  1  0.531000  0.671700  0.121000  1.0
  H  H561  1  0.379000  0.828300  0.969000  1.0
  H  H562  1  0.671700  0.379000  0.969000  1.0
  H  H563  1  0.121000  0.671700  0.969000  1.0
  H  H564  1  0.828300  0.121000  0.969000  1.0
  H  H565  1  0.379000  0.671700  0.531000  1.0
  H  H566  1  0.828300  0.379000  0.531000  1.0
  H  H567  1  0.121000  0.828300  0.531000  1.0
  H  H568  1  0.671700  0.121000  0.531000  1.0
  H  H569  1  0.969000  0.379000  0.828300  1.0
  H  H570  1  0.121000  0.531000  0.671700  1.0
  H  H571  1  0.121000  0.969000  0.828300  1.0
  H  H572  1  0.379000  0.969000  0.671700  1.0
  H  H573  1  0.379000  0.531000  0.828300  1.0
  H  H574  1  0.969000  0.121000  0.671700  1.0
  H  H575  1  0.531000  0.121000  0.828300  1.0
  H  H576  1  0.531000  0.379000  0.671700  1.0
  H  H577  1  0.133300  0.058200  0.672800  1.0
  H  H578  1  0.441800  0.133300  0.672800  1.0
  H  H579  1  0.366700  0.441800  0.672800  1.0
  H  H580  1  0.058200  0.366700  0.672800  1.0
  H  H581  1  0.133300  0.441800  0.827200  1.0
  H  H582  1  0.058200  0.133300  0.827200  1.0
  H  H583  1  0.366700  0.058200  0.827200  1.0
  H  H584  1  0.441800  0.366700  0.827200  1.0
  H  H585  1  0.672800  0.133300  0.058200  1.0
  H  H586  1  0.366700  0.672800  0.058200  1.0
  H  H587  1  0.827200  0.366700  0.058200  1.0
  H  H588  1  0.133300  0.827200  0.058200  1.0
  H  H589  1  0.672800  0.366700  0.441800  1.0
  H  H590  1  0.133300  0.672800  0.441800  1.0
  H  H591  1  0.827200  0.133300  0.441800  1.0
  H  H592  1  0.366700  0.827200  0.441800  1.0
  H  H593  1  0.058200  0.672800  0.133300  1.0
  H  H594  1  0.827200  0.441800  0.366700  1.0
  H  H595  1  0.827200  0.058200  0.133300  1.0
  H  H596  1  0.672800  0.058200  0.366700  1.0
  H  H597  1  0.672800  0.441800  0.133300  1.0
  H  H598  1  0.058200  0.827200  0.366700  1.0
  H  H599  1  0.441800  0.827200  0.133300  1.0
  H  H600  1  0.441800  0.672800  0.366700  1.0
  H  H601  1  0.866700  0.941800  0.327200  1.0
  H  H602  1  0.558200  0.866700  0.327200  1.0
  H  H603  1  0.633300  0.558200  0.327200  1.0
  H  H604  1  0.941800  0.633300  0.327200  1.0
  H  H605  1  0.866700  0.558200  0.172800  1.0
  H  H606  1  0.941800  0.866700  0.172800  1.0
  H  H607  1  0.633300  0.941800  0.172800  1.0
  H  H608  1  0.558200  0.633300  0.172800  1.0
  H  H609  1  0.327200  0.866700  0.941800  1.0
  H  H610  1  0.633300  0.327200  0.941800  1.0
  H  H611  1  0.172800  0.633300  0.941800  1.0
  H  H612  1  0.866700  0.172800  0.941800  1.0
  H  H613  1  0.327200  0.633300  0.558200  1.0
  H  H614  1  0.866700  0.327200  0.558200  1.0
  H  H615  1  0.172800  0.866700  0.558200  1.0
  H  H616  1  0.633300  0.172800  0.558200  1.0
  H  H617  1  0.941800  0.327200  0.866700  1.0
  H  H618  1  0.172800  0.558200  0.633300  1.0
  H  H619  1  0.172800  0.941800  0.866700  1.0
  H  H620  1  0.327200  0.941800  0.633300  1.0
  H  H621  1  0.327200  0.558200  0.866700  1.0
  H  H622  1  0.941800  0.172800  0.633300  1.0
  H  H623  1  0.558200  0.172800  0.866700  1.0
  H  H624  1  0.558200  0.327200  0.633300  1.0
  H  H625  1  0.034900  0.013800  0.683600  1.0
  H  H626  1  0.486200  0.034900  0.683600  1.0
  H  H627  1  0.465100  0.486200  0.683600  1.0
  H  H628  1  0.013800  0.465100  0.683600  1.0
  H  H629  1  0.034900  0.486200  0.816400  1.0
  H  H630  1  0.013800  0.034900  0.816400  1.0
  H  H631  1  0.465100  0.013800  0.816400  1.0
  H  H632  1  0.486200  0.465100  0.816400  1.0
  H  H633  1  0.683600  0.034900  0.013800  1.0
  H  H634  1  0.465100  0.683600  0.013800  1.0
  H  H635  1  0.816400  0.465100  0.013800  1.0
  H  H636  1  0.034900  0.816400  0.013800  1.0
  H  H637  1  0.683600  0.465100  0.486200  1.0
  H  H638  1  0.034900  0.683600  0.486200  1.0
  H  H639  1  0.816400  0.034900  0.486200  1.0
  H  H640  1  0.465100  0.816400  0.486200  1.0
  H  H641  1  0.013800  0.683600  0.034900  1.0
  H  H642  1  0.816400  0.486200  0.465100  1.0
  H  H643  1  0.816400  0.013800  0.034900  1.0
  H  H644  1  0.683600  0.013800  0.465100  1.0
  H  H645  1  0.683600  0.486200  0.034900  1.0
  H  H646  1  0.013800  0.816400  0.465100  1.0
  H  H647  1  0.486200  0.816400  0.034900  1.0
  H  H648  1  0.486200  0.683600  0.465100  1.0
  H  H649  1  0.965100  0.986200  0.316400  1.0
  H  H650  1  0.513800  0.965100  0.316400  1.0
  H  H651  1  0.534900  0.513800  0.316400  1.0
  H  H652  1  0.986200  0.534900  0.316400  1.0
  H  H653  1  0.965100  0.513800  0.183600  1.0
  H  H654  1  0.986200  0.965100  0.183600  1.0
  H  H655  1  0.534900  0.986200  0.183600  1.0
  H  H656  1  0.513800  0.534900  0.183600  1.0
  H  H657  1  0.316400  0.965100  0.986200  1.0
  H  H658  1  0.534900  0.316400  0.986200  1.0
  H  H659  1  0.183600  0.534900  0.986200  1.0
  H  H660  1  0.965100  0.183600  0.986200  1.0
  H  H661  1  0.316400  0.534900  0.513800  1.0
  H  H662  1  0.965100  0.316400  0.513800  1.0
  H  H663  1  0.183600  0.965100  0.513800  1.0
  H  H664  1  0.534900  0.183600  0.513800  1.0
  H  H665  1  0.986200  0.316400  0.965100  1.0
  H  H666  1  0.183600  0.513800  0.534900  1.0
  H  H667  1  0.183600  0.986200  0.965100  1.0
  H  H668  1  0.316400  0.986200  0.534900  1.0
  H  H669  1  0.316400  0.513800  0.965100  1.0
  H  H670  1  0.986200  0.183600  0.534900  1.0
  H  H671  1  0.513800  0.183600  0.965100  1.0
  H  H672  1  0.513800  0.316400  0.534900  1.0
  H  H673  1  0.010500  0.035100  0.648100  1.0
  H  H674  1  0.464900  0.010500  0.648100  1.0
  H  H675  1  0.489500  0.464900  0.648100  1.0
  H  H676  1  0.035100  0.489500  0.648100  1.0
  H  H677  1  0.010500  0.464900  0.851900  1.0
  H  H678  1  0.035100  0.010500  0.851900  1.0
  H  H679  1  0.489500  0.035100  0.851900  1.0
  H  H680  1  0.464900  0.489500  0.851900  1.0
  H  H681  1  0.648100  0.010500  0.035100  1.0
  H  H682  1  0.489500  0.648100  0.035100  1.0
  H  H683  1  0.851900  0.489500  0.035100  1.0
  H  H684  1  0.010500  0.851900  0.035100  1.0
  H  H685  1  0.648100  0.489500  0.464900  1.0
  H  H686  1  0.010500  0.648100  0.464900  1.0
  H  H687  1  0.851900  0.010500  0.464900  1.0
  H  H688  1  0.489500  0.851900  0.464900  1.0
  H  H689  1  0.035100  0.648100  0.010500  1.0
  H  H690  1  0.851900  0.464900  0.489500  1.0
  H  H691  1  0.851900  0.035100  0.010500  1.0
  H  H692  1  0.648100  0.035100  0.489500  1.0
  H  H693  1  0.648100  0.464900  0.010500  1.0
  H  H694  1  0.035100  0.851900  0.489500  1.0
  H  H695  1  0.464900  0.851900  0.010500  1.0
  H  H696  1  0.464900  0.648100  0.489500  1.0
  H  H697  1  0.989500  0.964900  0.351900  1.0
  H  H698  1  0.535100  0.989500  0.351900  1.0
  H  H699  1  0.510500  0.535100  0.351900  1.0
  H  H700  1  0.964900  0.510500  0.351900  1.0
  H  H701  1  0.989500  0.535100  0.148100  1.0
  H  H702  1  0.964900  0.989500  0.148100  1.0
  H  H703  1  0.510500  0.964900  0.148100  1.0
  H  H704  1  0.535100  0.510500  0.148100  1.0
  H  H705  1  0.351900  0.989500  0.964900  1.0
  H  H706  1  0.510500  0.351900  0.964900  1.0
  H  H707  1  0.148100  0.510500  0.964900  1.0
  H  H708  1  0.989500  0.148100  0.964900  1.0
  H  H709  1  0.351900  0.510500  0.535100  1.0
  H  H710  1  0.989500  0.351900  0.535100  1.0
  H  H711  1  0.148100  0.989500  0.535100  1.0
  H  H712  1  0.510500  0.148100  0.535100  1.0
  H  H713  1  0.964900  0.351900  0.989500  1.0
  H  H714  1  0.148100  0.535100  0.510500  1.0
  H  H715  1  0.148100  0.964900  0.989500  1.0
  H  H716  1  0.351900  0.964900  0.510500  1.0
  H  H717  1  0.351900  0.535100  0.989500  1.0
  H  H718  1  0.964900  0.148100  0.510500  1.0
  H  H719  1  0.535100  0.148100  0.989500  1.0
  H  H720  1  0.535100  0.351900  0.510500  1.0
  H  H721  1  0.996600  0.041100  0.693800  1.0
  H  H722  1  0.458900  0.996600  0.693800  1.0
  H  H723  1  0.503400  0.458900  0.693800  1.0
  H  H724  1  0.041100  0.503400  0.693800  1.0
  H  H725  1  0.996600  0.458900  0.806200  1.0
  H  H726  1  0.041100  0.996600  0.806200  1.0
  H  H727  1  0.503400  0.041100  0.806200  1.0
  H  H728  1  0.458900  0.503400  0.806200  1.0
  H  H729  1  0.693800  0.996600  0.041100  1.0
  H  H730  1  0.503400  0.693800  0.041100  1.0
  H  H731  1  0.806200  0.503400  0.041100  1.0
  H  H732  1  0.996600  0.806200  0.041100  1.0
  H  H733  1  0.693800  0.503400  0.458900  1.0
  H  H734  1  0.996600  0.693800  0.458900  1.0
  H  H735  1  0.806200  0.996600  0.458900  1.0
  H  H736  1  0.503400  0.806200  0.458900  1.0
  H  H737  1  0.041100  0.693800  0.996600  1.0
  H  H738  1  0.806200  0.458900  0.503400  1.0
  H  H739  1  0.806200  0.041100  0.996600  1.0
  H  H740  1  0.693800  0.041100  0.503400  1.0
  H  H741  1  0.693800  0.458900  0.996600  1.0
  H  H742  1  0.041100  0.806200  0.503400  1.0
  H  H743  1  0.458900  0.806200  0.996600  1.0
  H  H744  1  0.458900  0.693800  0.503400  1.0
  H  H745  1  0.003400  0.958900  0.306200  1.0
  H  H746  1  0.541100  0.003400  0.306200  1.0
  H  H747  1  0.496600  0.541100  0.306200  1.0
  H  H748  1  0.958900  0.496600  0.306200  1.0
  H  H749  1  0.003400  0.541100  0.193800  1.0
  H  H750  1  0.958900  0.003400  0.193800  1.0
  H  H751  1  0.496600  0.958900  0.193800  1.0
  H  H752  1  0.541100  0.496600  0.193800  1.0
  H  H753  1  0.306200  0.003400  0.958900  1.0
  H  H754  1  0.496600  0.306200  0.958900  1.0
  H  H755  1  0.193800  0.496600  0.958900  1.0
  H  H756  1  0.003400  0.193800  0.958900  1.0
  H  H757  1  0.306200  0.496600  0.541100  1.0
  H  H758  1  0.003400  0.306200  0.541100  1.0
  H  H759  1  0.193800  0.003400  0.541100  1.0
  H  H760  1  0.496600  0.193800  0.541100  1.0
  H  H761  1  0.958900  0.306200  0.003400  1.0
  H  H762  1  0.193800  0.541100  0.496600  1.0
  H  H763  1  0.193800  0.958900  0.003400  1.0
  H  H764  1  0.306200  0.958900  0.496600  1.0
  H  H765  1  0.306200  0.541100  0.003400  1.0
  H  H766  1  0.958900  0.193800  0.496600  1.0
  H  H767  1  0.541100  0.193800  0.003400  1.0
  H  H768  1  0.541100  0.306200  0.496600  1.0
  Pd  Pd769  1  0.250000  0.250000  0.556790  1.0
  Pd  Pd770  1  0.250000  0.250000  0.943210  1.0
  Pd  Pd771  1  0.556790  0.250000  0.250000  1.0
  Pd  Pd772  1  0.250000  0.556790  0.250000  1.0
  Pd  Pd773  1  0.943210  0.250000  0.250000  1.0
  Pd  Pd774  1  0.250000  0.943210  0.250000  1.0
  Pd  Pd775  1  0.750000  0.750000  0.443210  1.0
  Pd  Pd776  1  0.750000  0.750000  0.056790  1.0
  Pd  Pd777  1  0.443210  0.750000  0.750000  1.0
  Pd  Pd778  1  0.750000  0.443210  0.750000  1.0
  Pd  Pd779  1  0.056790  0.750000  0.750000  1.0
  Pd  Pd780  1  0.750000  0.056790  0.750000  1.0
  C  C781  1  0.056550  0.056550  0.750000  1.0
  C  C782  1  0.443450  0.056550  0.750000  1.0
  C  C783  1  0.443450  0.443450  0.750000  1.0
  C  C784  1  0.056550  0.443450  0.750000  1.0
  C  C785  1  0.750000  0.056550  0.056550  1.0
  C  C786  1  0.443450  0.750000  0.056550  1.0
  C  C787  1  0.750000  0.443450  0.056550  1.0
  C  C788  1  0.056550  0.750000  0.056550  1.0
  C  C789  1  0.750000  0.443450  0.443450  1.0
  C  C790  1  0.056550  0.750000  0.443450  1.0
  C  C791  1  0.750000  0.056550  0.443450  1.0
  C  C792  1  0.443450  0.750000  0.443450  1.0
  C  C793  1  0.943450  0.943450  0.250000  1.0
  C  C794  1  0.556550  0.943450  0.250000  1.0
  C  C795  1  0.556550  0.556550  0.250000  1.0
  C  C796  1  0.943450  0.556550  0.250000  1.0
  C  C797  1  0.250000  0.943450  0.943450  1.0
  C  C798  1  0.556550  0.250000  0.943450  1.0
  C  C799  1  0.250000  0.556550  0.943450  1.0
  C  C800  1  0.943450  0.250000  0.943450  1.0
  C  C801  1  0.250000  0.556550  0.556550  1.0
  C  C802  1  0.943450  0.250000  0.556550  1.0
  C  C803  1  0.250000  0.943450  0.556550  1.0
  C  C804  1  0.556550  0.250000  0.556550  1.0
  C  C805  1  0.115340  0.115340  0.750000  1.0
  C  C806  1  0.384660  0.115340  0.750000  1.0
  C  C807  1  0.384660  0.384660  0.750000  1.0
  C  C808  1  0.115340  0.384660  0.750000  1.0
  C  C809  1  0.750000  0.115340  0.115340  1.0
  C  C810  1  0.384660  0.750000  0.115340  1.0
  C  C811  1  0.750000  0.384660  0.115340  1.0
  C  C812  1  0.115340  0.750000  0.115340  1.0
  C  C813  1  0.750000  0.384660  0.384660  1.0
  C  C814  1  0.115340  0.750000  0.384660  1.0
  C  C815  1  0.750000  0.115340  0.384660  1.0
  C  C816  1  0.384660  0.750000  0.384660  1.0
  C  C817  1  0.884660  0.884660  0.250000  1.0
  C  C818  1  0.615340  0.884660  0.250000  1.0
  C  C819  1  0.615340  0.615340  0.250000  1.0
  C  C820  1  0.884660  0.615340  0.250000  1.0
  C  C821  1  0.250000  0.884660  0.884660  1.0
  C  C822  1  0.615340  0.250000  0.884660  1.0
  C  C823  1  0.250000  0.615340  0.884660  1.0
  C  C824  1  0.884660  0.250000  0.884660  1.0
  C  C825  1  0.250000  0.615340  0.615340  1.0
  C  C826  1  0.884660  0.250000  0.615340  1.0
  C  C827  1  0.250000  0.884660  0.615340  1.0
  C  C828  1  0.615340  0.250000  0.615340  1.0
  C  C829  1  0.167650  0.252020  0.526640  1.0
  C  C830  1  0.247980  0.167650  0.526640  1.0
  C  C831  1  0.332350  0.247980  0.526640  1.0
  C  C832  1  0.252020  0.332350  0.526640  1.0
  C  C833  1  0.167650  0.247980  0.973360  1.0
  C  C834  1  0.252020  0.167650  0.973360  1.0
  C  C835  1  0.332350  0.252020  0.973360  1.0
  C  C836  1  0.247980  0.332350  0.973360  1.0
  C  C837  1  0.526640  0.167650  0.252020  1.0
  C  C838  1  0.332350  0.526640  0.252020  1.0
  C  C839  1  0.973360  0.332350  0.252020  1.0
  C  C840  1  0.167650  0.973360  0.252020  1.0
  C  C841  1  0.526640  0.332350  0.247980  1.0
  C  C842  1  0.167650  0.526640  0.247980  1.0
  C  C843  1  0.973360  0.167650  0.247980  1.0
  C  C844  1  0.332350  0.973360  0.247980  1.0
  C  C845  1  0.252020  0.526640  0.167650  1.0
  C  C846  1  0.973360  0.247980  0.332350  1.0
  C  C847  1  0.973360  0.252020  0.167650  1.0
  C  C848  1  0.526640  0.252020  0.332350  1.0
  C  C849  1  0.526640  0.247980  0.167650  1.0
  C  C850  1  0.252020  0.973360  0.332350  1.0
  C  C851  1  0.247980  0.973360  0.167650  1.0
  C  C852  1  0.247980  0.526640  0.332350  1.0
  C  C853  1  0.832350  0.747980  0.473360  1.0
  C  C854  1  0.752020  0.832350  0.473360  1.0
  C  C855  1  0.667650  0.752020  0.473360  1.0
  C  C856  1  0.747980  0.667650  0.473360  1.0
  C  C857  1  0.832350  0.752020  0.026640  1.0
  C  C858  1  0.747980  0.832350  0.026640  1.0
  C  C859  1  0.667650  0.747980  0.026640  1.0
  C  C860  1  0.752020  0.667650  0.026640  1.0
  C  C861  1  0.473360  0.832350  0.747980  1.0
  C  C862  1  0.667650  0.473360  0.747980  1.0
  C  C863  1  0.026640  0.667650  0.747980  1.0
  C  C864  1  0.832350  0.026640  0.747980  1.0
  C  C865  1  0.473360  0.667650  0.752020  1.0
  C  C866  1  0.832350  0.473360  0.752020  1.0
  C  C867  1  0.026640  0.832350  0.752020  1.0
  C  C868  1  0.667650  0.026640  0.752020  1.0
  C  C869  1  0.747980  0.473360  0.832350  1.0
  C  C870  1  0.026640  0.752020  0.667650  1.0
  C  C871  1  0.026640  0.747980  0.832350  1.0
  C  C872  1  0.473360  0.747980  0.667650  1.0
  C  C873  1  0.473360  0.752020  0.832350  1.0
  C  C874  1  0.747980  0.026640  0.667650  1.0
  C  C875  1  0.752020  0.026640  0.832350  1.0
  C  C876  1  0.752020  0.473360  0.667650  1.0
  C  C877  1  0.127640  0.241630  0.523600  1.0
  C  C878  1  0.258370  0.127640  0.523600  1.0
  C  C879  1  0.372360  0.258370  0.523600  1.0
  C  C880  1  0.241630  0.372360  0.523600  1.0
  C  C881  1  0.127640  0.258370  0.976400  1.0
  C  C882  1  0.241630  0.127640  0.976400  1.0
  C  C883  1  0.372360  0.241630  0.976400  1.0
  C  C884  1  0.258370  0.372360  0.976400  1.0
  C  C885  1  0.523600  0.127640  0.241630  1.0
  C  C886  1  0.372360  0.523600  0.241630  1.0
  C  C887  1  0.976400  0.372360  0.241630  1.0
  C  C888  1  0.127640  0.976400  0.241630  1.0
  C  C889  1  0.523600  0.372360  0.258370  1.0
  C  C890  1  0.127640  0.523600  0.258370  1.0
  C  C891  1  0.976400  0.127640  0.258370  1.0
  C  C892  1  0.372360  0.976400  0.258370  1.0
  C  C893  1  0.241630  0.523600  0.127640  1.0
  C  C894  1  0.976400  0.258370  0.372360  1.0
  C  C895  1  0.976400  0.241630  0.127640  1.0
  C  C896  1  0.523600  0.241630  0.372360  1.0
  C  C897  1  0.523600  0.258370  0.127640  1.0
  C  C898  1  0.241630  0.976400  0.372360  1.0
  C  C899  1  0.258370  0.976400  0.127640  1.0
  C  C900  1  0.258370  0.523600  0.372360  1.0
  C  C901  1  0.872360  0.758370  0.476400  1.0
  C  C902  1  0.741630  0.872360  0.476400  1.0
  C  C903  1  0.627640  0.741630  0.476400  1.0
  C  C904  1  0.758370  0.627640  0.476400  1.0
  C  C905  1  0.872360  0.741630  0.023600  1.0
  C  C906  1  0.758370  0.872360  0.023600  1.0
  C  C907  1  0.627640  0.758370  0.023600  1.0
  C  C908  1  0.741630  0.627640  0.023600  1.0
  C  C909  1  0.476400  0.872360  0.758370  1.0
  C  C910  1  0.627640  0.476400  0.758370  1.0
  C  C911  1  0.023600  0.627640  0.758370  1.0
  C  C912  1  0.872360  0.023600  0.758370  1.0
  C  C913  1  0.476400  0.627640  0.741630  1.0
  C  C914  1  0.872360  0.476400  0.741630  1.0
  C  C915  1  0.023600  0.872360  0.741630  1.0
  C  C916  1  0.627640  0.023600  0.741630  1.0
  C  C917  1  0.758370  0.476400  0.872360  1.0
  C  C918  1  0.023600  0.741630  0.627640  1.0
  C  C919  1  0.023600  0.758370  0.872360  1.0
  C  C920  1  0.476400  0.758370  0.627640  1.0
  C  C921  1  0.476400  0.741630  0.872360  1.0
  C  C922  1  0.758370  0.023600  0.627640  1.0
  C  C923  1  0.741630  0.023600  0.872360  1.0
  C  C924  1  0.741630  0.476400  0.627640  1.0
  C  C925  1  0.110800  0.216000  0.551400  1.0
  C  C926  1  0.284000  0.110800  0.551400  1.0
  C  C927  1  0.389200  0.284000  0.551400  1.0
  C  C928  1  0.216000  0.389200  0.551400  1.0
  C  C929  1  0.110800  0.284000  0.948600  1.0
  C  C930  1  0.216000  0.110800  0.948600  1.0
  C  C931  1  0.389200  0.216000  0.948600  1.0
  C  C932  1  0.284000  0.389200  0.948600  1.0
  C  C933  1  0.551400  0.110800  0.216000  1.0
  C  C934  1  0.389200  0.551400  0.216000  1.0
  C  C935  1  0.948600  0.389200  0.216000  1.0
  C  C936  1  0.110800  0.948600  0.216000  1.0
  C  C937  1  0.551400  0.389200  0.284000  1.0
  C  C938  1  0.110800  0.551400  0.284000  1.0
  C  C939  1  0.948600  0.110800  0.284000  1.0
  C  C940  1  0.389200  0.948600  0.284000  1.0
  C  C941  1  0.216000  0.551400  0.110800  1.0
  C  C942  1  0.948600  0.284000  0.389200  1.0
  C  C943  1  0.948600  0.216000  0.110800  1.0
  C  C944  1  0.551400  0.216000  0.389200  1.0
  C  C945  1  0.551400  0.284000  0.110800  1.0
  C  C946  1  0.216000  0.948600  0.389200  1.0
  C  C947  1  0.284000  0.948600  0.110800  1.0
  C  C948  1  0.284000  0.551400  0.389200  1.0
  C  C949  1  0.889200  0.784000  0.448600  1.0
  C  C950  1  0.716000  0.889200  0.448600  1.0
  C  C951  1  0.610800  0.716000  0.448600  1.0
  C  C952  1  0.784000  0.610800  0.448600  1.0
  C  C953  1  0.889200  0.716000  0.051400  1.0
  C  C954  1  0.784000  0.889200  0.051400  1.0
  C  C955  1  0.610800  0.784000  0.051400  1.0
  C  C956  1  0.716000  0.610800  0.051400  1.0
  C  C957  1  0.448600  0.889200  0.784000  1.0
  C  C958  1  0.610800  0.448600  0.784000  1.0
  C  C959  1  0.051400  0.610800  0.784000  1.0
  C  C960  1  0.889200  0.051400  0.784000  1.0
  C  C961  1  0.448600  0.610800  0.716000  1.0
  C  C962  1  0.889200  0.448600  0.716000  1.0
  C  C963  1  0.051400  0.889200  0.716000  1.0
  C  C964  1  0.610800  0.051400  0.716000  1.0
  C  C965  1  0.784000  0.448600  0.889200  1.0
  C  C966  1  0.051400  0.716000  0.610800  1.0
  C  C967  1  0.051400  0.784000  0.889200  1.0
  C  C968  1  0.448600  0.784000  0.610800  1.0
  C  C969  1  0.448600  0.716000  0.889200  1.0
  C  C970  1  0.784000  0.051400  0.610800  1.0
  C  C971  1  0.716000  0.051400  0.889200  1.0
  C  C972  1  0.716000  0.448600  0.610800  1.0
  C  C973  1  0.134850  0.202750  0.582770  1.0
  C  C974  1  0.297250  0.134850  0.582770  1.0
  C  C975  1  0.365150  0.297250  0.582770  1.0
  C  C976  1  0.202750  0.365150  0.582770  1.0
  C  C977  1  0.134850  0.297250  0.917230  1.0
  C  C978  1  0.202750  0.134850  0.917230  1.0
  C  C979  1  0.365150  0.202750  0.917230  1.0
  C  C980  1  0.297250  0.365150  0.917230  1.0
  C  C981  1  0.582770  0.134850  0.202750  1.0
  C  C982  1  0.365150  0.582770  0.202750  1.0
  C  C983  1  0.917230  0.365150  0.202750  1.0
  C  C984  1  0.134850  0.917230  0.202750  1.0
  C  C985  1  0.582770  0.365150  0.297250  1.0
  C  C986  1  0.134850  0.582770  0.297250  1.0
  C  C987  1  0.917230  0.134850  0.297250  1.0
  C  C988  1  0.365150  0.917230  0.297250  1.0
  C  C989  1  0.202750  0.582770  0.134850  1.0
  C  C990  1  0.917230  0.297250  0.365150  1.0
  C  C991  1  0.917230  0.202750  0.134850  1.0
  C  C992  1  0.582770  0.202750  0.365150  1.0
  C  C993  1  0.582770  0.297250  0.134850  1.0
  C  C994  1  0.202750  0.917230  0.365150  1.0
  C  C995  1  0.297250  0.917230  0.134850  1.0
  C  C996  1  0.297250  0.582770  0.365150  1.0
  C  C997  1  0.865150  0.797250  0.417230  1.0
  C  C998  1  0.702750  0.865150  0.417230  1.0
  C  C999  1  0.634850  0.702750  0.417230  1.0
  C  C1000  1  0.797250  0.634850  0.417230  1.0
  C  C1001  1  0.865150  0.702750  0.082770  1.0
  C  C1002  1  0.797250  0.865150  0.082770  1.0
  C  C1003  1  0.634850  0.797250  0.082770  1.0
  C  C1004  1  0.702750  0.634850  0.082770  1.0
  C  C1005  1  0.417230  0.865150  0.797250  1.0
  C  C1006  1  0.634850  0.417230  0.797250  1.0
  C  C1007  1  0.082770  0.634850  0.797250  1.0
  C  C1008  1  0.865150  0.082770  0.797250  1.0
  C  C1009  1  0.417230  0.634850  0.702750  1.0
  C  C1010  1  0.865150  0.417230  0.702750  1.0
  C  C1011  1  0.082770  0.865150  0.702750  1.0
  C  C1012  1  0.634850  0.082770  0.702750  1.0
  C  C1013  1  0.797250  0.417230  0.865150  1.0
  C  C1014  1  0.082770  0.702750  0.634850  1.0
  C  C1015  1  0.082770  0.797250  0.865150  1.0
  C  C1016  1  0.417230  0.797250  0.634850  1.0
  C  C1017  1  0.417230  0.702750  0.865150  1.0
  C  C1018  1  0.797250  0.082770  0.634850  1.0
  C  C1019  1  0.702750  0.082770  0.865150  1.0
  C  C1020  1  0.702750  0.417230  0.634850  1.0
  C  C1021  1  0.173930  0.214750  0.584550  1.0
  C  C1022  1  0.285250  0.173930  0.584550  1.0
  C  C1023  1  0.326070  0.285250  0.584550  1.0
  C  C1024  1  0.214750  0.326070  0.584550  1.0
  C  C1025  1  0.173930  0.285250  0.915450  1.0
  C  C1026  1  0.214750  0.173930  0.915450  1.0
  C  C1027  1  0.326070  0.214750  0.915450  1.0
  C  C1028  1  0.285250  0.326070  0.915450  1.0
  C  C1029  1  0.584550  0.173930  0.214750  1.0
  C  C1030  1  0.326070  0.584550  0.214750  1.0
  C  C1031  1  0.915450  0.326070  0.214750  1.0
  C  C1032  1  0.173930  0.915450  0.214750  1.0
  C  C1033  1  0.584550  0.326070  0.285250  1.0
  C  C1034  1  0.173930  0.584550  0.285250  1.0
  C  C1035  1  0.915450  0.173930  0.285250  1.0
  C  C1036  1  0.326070  0.915450  0.285250  1.0
  C  C1037  1  0.214750  0.584550  0.173930  1.0
  C  C1038  1  0.915450  0.285250  0.326070  1.0
  C  C1039  1  0.915450  0.214750  0.173930  1.0
  C  C1040  1  0.584550  0.214750  0.326070  1.0
  C  C1041  1  0.584550  0.285250  0.173930  1.0
  C  C1042  1  0.214750  0.915450  0.326070  1.0
  C  C1043  1  0.285250  0.915450  0.173930  1.0
  C  C1044  1  0.285250  0.584550  0.326070  1.0
  C  C1045  1  0.826070  0.785250  0.415450  1.0
  C  C1046  1  0.714750  0.826070  0.415450  1.0
  C  C1047  1  0.673930  0.714750  0.415450  1.0
  C  C1048  1  0.785250  0.673930  0.415450  1.0
  C  C1049  1  0.826070  0.714750  0.084550  1.0
  C  C1050  1  0.785250  0.826070  0.084550  1.0
  C  C1051  1  0.673930  0.785250  0.084550  1.0
  C  C1052  1  0.714750  0.673930  0.084550  1.0
  C  C1053  1  0.415450  0.826070  0.785250  1.0
  C  C1054  1  0.673930  0.415450  0.785250  1.0
  C  C1055  1  0.084550  0.673930  0.785250  1.0
  C  C1056  1  0.826070  0.084550  0.785250  1.0
  C  C1057  1  0.415450  0.673930  0.714750  1.0
  C  C1058  1  0.826070  0.415450  0.714750  1.0
  C  C1059  1  0.084550  0.826070  0.714750  1.0
  C  C1060  1  0.673930  0.084550  0.714750  1.0
  C  C1061  1  0.785250  0.415450  0.826070  1.0
  C  C1062  1  0.084550  0.714750  0.673930  1.0
  C  C1063  1  0.084550  0.785250  0.826070  1.0
  C  C1064  1  0.415450  0.785250  0.673930  1.0
  C  C1065  1  0.415450  0.714750  0.826070  1.0
  C  C1066  1  0.785250  0.084550  0.673930  1.0
  C  C1067  1  0.714750  0.084550  0.826070  1.0
  C  C1068  1  0.714750  0.415450  0.673930  1.0
  C  C1069  1  0.064400  0.220600  0.628300  1.0
  C  C1070  1  0.279400  0.064400  0.628300  1.0
  C  C1071  1  0.435600  0.279400  0.628300  1.0
  C  C1072  1  0.220600  0.435600  0.628300  1.0
  C  C1073  1  0.064400  0.279400  0.871700  1.0
  C  C1074  1  0.220600  0.064400  0.871700  1.0
  C  C1075  1  0.435600  0.220600  0.871700  1.0
  C  C1076  1  0.279400  0.435600  0.871700  1.0
  C  C1077  1  0.628300  0.064400  0.220600  1.0
  C  C1078  1  0.435600  0.628300  0.220600  1.0
  C  C1079  1  0.871700  0.435600  0.220600  1.0
  C  C1080  1  0.064400  0.871700  0.220600  1.0
  C  C1081  1  0.628300  0.435600  0.279400  1.0
  C  C1082  1  0.064400  0.628300  0.279400  1.0
  C  C1083  1  0.871700  0.064400  0.279400  1.0
  C  C1084  1  0.435600  0.871700  0.279400  1.0
  C  C1085  1  0.220600  0.628300  0.064400  1.0
  C  C1086  1  0.871700  0.279400  0.435600  1.0
  C  C1087  1  0.871700  0.220600  0.064400  1.0
  C  C1088  1  0.628300  0.220600  0.435600  1.0
  C  C1089  1  0.628300  0.279400  0.064400  1.0
  C  C1090  1  0.220600  0.871700  0.435600  1.0
  C  C1091  1  0.279400  0.871700  0.064400  1.0
  C  C1092  1  0.279400  0.628300  0.435600  1.0
  C  C1093  1  0.935600  0.779400  0.371700  1.0
  C  C1094  1  0.720600  0.935600  0.371700  1.0
  C  C1095  1  0.564400  0.720600  0.371700  1.0
  C  C1096  1  0.779400  0.564400  0.371700  1.0
  C  C1097  1  0.935600  0.720600  0.128300  1.0
  C  C1098  1  0.779400  0.935600  0.128300  1.0
  C  C1099  1  0.564400  0.779400  0.128300  1.0
  C  C1100  1  0.720600  0.564400  0.128300  1.0
  C  C1101  1  0.371700  0.935600  0.779400  1.0
  C  C1102  1  0.564400  0.371700  0.779400  1.0
  C  C1103  1  0.128300  0.564400  0.779400  1.0
  C  C1104  1  0.935600  0.128300  0.779400  1.0
  C  C1105  1  0.371700  0.564400  0.720600  1.0
  C  C1106  1  0.935600  0.371700  0.720600  1.0
  C  C1107  1  0.128300  0.935600  0.720600  1.0
  C  C1108  1  0.564400  0.128300  0.720600  1.0
  C  C1109  1  0.779400  0.371700  0.935600  1.0
  C  C1110  1  0.128300  0.720600  0.564400  1.0
  C  C1111  1  0.128300  0.779400  0.935600  1.0
  C  C1112  1  0.371700  0.779400  0.564400  1.0
  C  C1113  1  0.371700  0.720600  0.935600  1.0
  C  C1114  1  0.779400  0.128300  0.564400  1.0
  C  C1115  1  0.720600  0.128300  0.935600  1.0
  C  C1116  1  0.720600  0.371700  0.564400  1.0
  C  C1117  1  0.032300  0.230800  0.653200  1.0
  C  C1118  1  0.269200  0.032300  0.653200  1.0
  C  C1119  1  0.467700  0.269200  0.653200  1.0
  C  C1120  1  0.230800  0.467700  0.653200  1.0
  C  C1121  1  0.032300  0.269200  0.846800  1.0
  C  C1122  1  0.230800  0.032300  0.846800  1.0
  C  C1123  1  0.467700  0.230800  0.846800  1.0
  C  C1124  1  0.269200  0.467700  0.846800  1.0
  C  C1125  1  0.653200  0.032300  0.230800  1.0
  C  C1126  1  0.467700  0.653200  0.230800  1.0
  C  C1127  1  0.846800  0.467700  0.230800  1.0
  C  C1128  1  0.032300  0.846800  0.230800  1.0
  C  C1129  1  0.653200  0.467700  0.269200  1.0
  C  C1130  1  0.032300  0.653200  0.269200  1.0
  C  C1131  1  0.846800  0.032300  0.269200  1.0
  C  C1132  1  0.467700  0.846800  0.269200  1.0
  C  C1133  1  0.230800  0.653200  0.032300  1.0
  C  C1134  1  0.846800  0.269200  0.467700  1.0
  C  C1135  1  0.846800  0.230800  0.032300  1.0
  C  C1136  1  0.653200  0.230800  0.467700  1.0
  C  C1137  1  0.653200  0.269200  0.032300  1.0
  C  C1138  1  0.230800  0.846800  0.467700  1.0
  C  C1139  1  0.269200  0.846800  0.032300  1.0
  C  C1140  1  0.269200  0.653200  0.467700  1.0
  C  C1141  1  0.967700  0.769200  0.346800  1.0
  C  C1142  1  0.730800  0.967700  0.346800  1.0
  C  C1143  1  0.532300  0.730800  0.346800  1.0
  C  C1144  1  0.769200  0.532300  0.346800  1.0
  C  C1145  1  0.967700  0.730800  0.153200  1.0
  C  C1146  1  0.769200  0.967700  0.153200  1.0
  C  C1147  1  0.532300  0.769200  0.153200  1.0
  C  C1148  1  0.730800  0.532300  0.153200  1.0
  C  C1149  1  0.346800  0.967700  0.769200  1.0
  C  C1150  1  0.532300  0.346800  0.769200  1.0
  C  C1151  1  0.153200  0.532300  0.769200  1.0
  C  C1152  1  0.967700  0.153200  0.769200  1.0
  C  C1153  1  0.346800  0.532300  0.730800  1.0
  C  C1154  1  0.967700  0.346800  0.730800  1.0
  C  C1155  1  0.153200  0.967700  0.730800  1.0
  C  C1156  1  0.532300  0.153200  0.730800  1.0
  C  C1157  1  0.769200  0.346800  0.967700  1.0
  C  C1158  1  0.153200  0.730800  0.532300  1.0
  C  C1159  1  0.153200  0.769200  0.967700  1.0
  C  C1160  1  0.346800  0.769200  0.532300  1.0
  C  C1161  1  0.346800  0.730800  0.967700  1.0
  C  C1162  1  0.769200  0.153200  0.532300  1.0
  C  C1163  1  0.730800  0.153200  0.967700  1.0
  C  C1164  1  0.730800  0.346800  0.532300  1.0
  C  C1165  1  0.022600  0.207800  0.686200  1.0
  C  C1166  1  0.292200  0.022600  0.686200  1.0
  C  C1167  1  0.477400  0.292200  0.686200  1.0
  C  C1168  1  0.207800  0.477400  0.686200  1.0
  C  C1169  1  0.022600  0.292200  0.813800  1.0
  C  C1170  1  0.207800  0.022600  0.813800  1.0
  C  C1171  1  0.477400  0.207800  0.813800  1.0
  C  C1172  1  0.292200  0.477400  0.813800  1.0
  C  C1173  1  0.686200  0.022600  0.207800  1.0
  C  C1174  1  0.477400  0.686200  0.207800  1.0
  C  C1175  1  0.813800  0.477400  0.207800  1.0
  C  C1176  1  0.022600  0.813800  0.207800  1.0
  C  C1177  1  0.686200  0.477400  0.292200  1.0
  C  C1178  1  0.022600  0.686200  0.292200  1.0
  C  C1179  1  0.813800  0.022600  0.292200  1.0
  C  C1180  1  0.477400  0.813800  0.292200  1.0
  C  C1181  1  0.207800  0.686200  0.022600  1.0
  C  C1182  1  0.813800  0.292200  0.477400  1.0
  C  C1183  1  0.813800  0.207800  0.022600  1.0
  C  C1184  1  0.686200  0.207800  0.477400  1.0
  C  C1185  1  0.686200  0.292200  0.022600  1.0
  C  C1186  1  0.207800  0.813800  0.477400  1.0
  C  C1187  1  0.292200  0.813800  0.022600  1.0
  C  C1188  1  0.292200  0.686200  0.477400  1.0
  C  C1189  1  0.977400  0.792200  0.313800  1.0
  C  C1190  1  0.707800  0.977400  0.313800  1.0
  C  C1191  1  0.522600  0.707800  0.313800  1.0
  C  C1192  1  0.792200  0.522600  0.313800  1.0
  C  C1193  1  0.977400  0.707800  0.186200  1.0
  C  C1194  1  0.792200  0.977400  0.186200  1.0
  C  C1195  1  0.522600  0.792200  0.186200  1.0
  C  C1196  1  0.707800  0.522600  0.186200  1.0
  C  C1197  1  0.313800  0.977400  0.792200  1.0
  C  C1198  1  0.522600  0.313800  0.792200  1.0
  C  C1199  1  0.186200  0.522600  0.792200  1.0
  C  C1200  1  0.977400  0.186200  0.792200  1.0
  C  C1201  1  0.313800  0.522600  0.707800  1.0
  C  C1202  1  0.977400  0.313800  0.707800  1.0
  C  C1203  1  0.186200  0.977400  0.707800  1.0
  C  C1204  1  0.522600  0.186200  0.707800  1.0
  C  C1205  1  0.792200  0.313800  0.977400  1.0
  C  C1206  1  0.186200  0.707800  0.522600  1.0
  C  C1207  1  0.186200  0.792200  0.977400  1.0
  C  C1208  1  0.313800  0.792200  0.522600  1.0
  C  C1209  1  0.313800  0.707800  0.977400  1.0
  C  C1210  1  0.792200  0.186200  0.522600  1.0
  C  C1211  1  0.707800  0.186200  0.977400  1.0
  C  C1212  1  0.707800  0.313800  0.522600  1.0
  C  C1213  1  0.046900  0.174200  0.694800  1.0
  C  C1214  1  0.325800  0.046900  0.694800  1.0
  C  C1215  1  0.453100  0.325800  0.694800  1.0
  C  C1216  1  0.174200  0.453100  0.694800  1.0
  C  C1217  1  0.046900  0.325800  0.805200  1.0
  C  C1218  1  0.174200  0.046900  0.805200  1.0
  C  C1219  1  0.453100  0.174200  0.805200  1.0
  C  C1220  1  0.325800  0.453100  0.805200  1.0
  C  C1221  1  0.694800  0.046900  0.174200  1.0
  C  C1222  1  0.453100  0.694800  0.174200  1.0
  C  C1223  1  0.805200  0.453100  0.174200  1.0
  C  C1224  1  0.046900  0.805200  0.174200  1.0
  C  C1225  1  0.694800  0.453100  0.325800  1.0
  C  C1226  1  0.046900  0.694800  0.325800  1.0
  C  C1227  1  0.805200  0.046900  0.325800  1.0
  C  C1228  1  0.453100  0.805200  0.325800  1.0
  C  C1229  1  0.174200  0.694800  0.046900  1.0
  C  C1230  1  0.805200  0.325800  0.453100  1.0
  C  C1231  1  0.805200  0.174200  0.046900  1.0
  C  C1232  1  0.694800  0.174200  0.453100  1.0
  C  C1233  1  0.694800  0.325800  0.046900  1.0
  C  C1234  1  0.174200  0.805200  0.453100  1.0
  C  C1235  1  0.325800  0.805200  0.046900  1.0
  C  C1236  1  0.325800  0.694800  0.453100  1.0
  C  C1237  1  0.953100  0.825800  0.305200  1.0
  C  C1238  1  0.674200  0.953100  0.305200  1.0
  C  C1239  1  0.546900  0.674200  0.305200  1.0
  C  C1240  1  0.825800  0.546900  0.305200  1.0
  C  C1241  1  0.953100  0.674200  0.194800  1.0
  C  C1242  1  0.825800  0.953100  0.194800  1.0
  C  C1243  1  0.546900  0.825800  0.194800  1.0
  C  C1244  1  0.674200  0.546900  0.194800  1.0
  C  C1245  1  0.305200  0.953100  0.825800  1.0
  C  C1246  1  0.546900  0.305200  0.825800  1.0
  C  C1247  1  0.194800  0.546900  0.825800  1.0
  C  C1248  1  0.953100  0.194800  0.825800  1.0
  C  C1249  1  0.305200  0.546900  0.674200  1.0
  C  C1250  1  0.953100  0.305200  0.674200  1.0
  C  C1251  1  0.194800  0.953100  0.674200  1.0
  C  C1252  1  0.546900  0.194800  0.674200  1.0
  C  C1253  1  0.825800  0.305200  0.953100  1.0
  C  C1254  1  0.194800  0.674200  0.546900  1.0
  C  C1255  1  0.194800  0.825800  0.953100  1.0
  C  C1256  1  0.305200  0.825800  0.546900  1.0
  C  C1257  1  0.305200  0.674200  0.953100  1.0
  C  C1258  1  0.825800  0.194800  0.546900  1.0
  C  C1259  1  0.674200  0.194800  0.953100  1.0
  C  C1260  1  0.674200  0.305200  0.546900  1.0
  C  C1261  1  0.078900  0.163900  0.670900  1.0
  C  C1262  1  0.336100  0.078900  0.670900  1.0
  C  C1263  1  0.421100  0.336100  0.670900  1.0
  C  C1264  1  0.163900  0.421100  0.670900  1.0
  C  C1265  1  0.078900  0.336100  0.829100  1.0
  C  C1266  1  0.163900  0.078900  0.829100  1.0
  C  C1267  1  0.421100  0.163900  0.829100  1.0
  C  C1268  1  0.336100  0.421100  0.829100  1.0
  C  C1269  1  0.670900  0.078900  0.163900  1.0
  C  C1270  1  0.421100  0.670900  0.163900  1.0
  C  C1271  1  0.829100  0.421100  0.163900  1.0
  C  C1272  1  0.078900  0.829100  0.163900  1.0
  C  C1273  1  0.670900  0.421100  0.336100  1.0
  C  C1274  1  0.078900  0.670900  0.336100  1.0
  C  C1275  1  0.829100  0.078900  0.336100  1.0
  C  C1276  1  0.421100  0.829100  0.336100  1.0
  C  C1277  1  0.163900  0.670900  0.078900  1.0
  C  C1278  1  0.829100  0.336100  0.421100  1.0
  C  C1279  1  0.829100  0.163900  0.078900  1.0
  C  C1280  1  0.670900  0.163900  0.421100  1.0
  C  C1281  1  0.670900  0.336100  0.078900  1.0
  C  C1282  1  0.163900  0.829100  0.421100  1.0
  C  C1283  1  0.336100  0.829100  0.078900  1.0
  C  C1284  1  0.336100  0.670900  0.421100  1.0
  C  C1285  1  0.921100  0.836100  0.329100  1.0
  C  C1286  1  0.663900  0.921100  0.329100  1.0
  C  C1287  1  0.578900  0.663900  0.329100  1.0
  C  C1288  1  0.836100  0.578900  0.329100  1.0
  C  C1289  1  0.921100  0.663900  0.170900  1.0
  C  C1290  1  0.836100  0.921100  0.170900  1.0
  C  C1291  1  0.578900  0.836100  0.170900  1.0
  C  C1292  1  0.663900  0.578900  0.170900  1.0
  C  C1293  1  0.329100  0.921100  0.836100  1.0
  C  C1294  1  0.578900  0.329100  0.836100  1.0
  C  C1295  1  0.170900  0.578900  0.836100  1.0
  C  C1296  1  0.921100  0.170900  0.836100  1.0
  C  C1297  1  0.329100  0.578900  0.663900  1.0
  C  C1298  1  0.921100  0.329100  0.663900  1.0
  C  C1299  1  0.170900  0.921100  0.663900  1.0
  C  C1300  1  0.578900  0.170900  0.663900  1.0
  C  C1301  1  0.836100  0.329100  0.921100  1.0
  C  C1302  1  0.170900  0.663900  0.578900  1.0
  C  C1303  1  0.170900  0.836100  0.921100  1.0
  C  C1304  1  0.329100  0.836100  0.578900  1.0
  C  C1305  1  0.329100  0.663900  0.921100  1.0
  C  C1306  1  0.836100  0.170900  0.578900  1.0
  C  C1307  1  0.663900  0.170900  0.921100  1.0
  C  C1308  1  0.663900  0.329100  0.578900  1.0
  C  C1309  1  0.087700  0.187100  0.636800  1.0
  C  C1310  1  0.312900  0.087700  0.636800  1.0
  C  C1311  1  0.412300  0.312900  0.636800  1.0
  C  C1312  1  0.187100  0.412300  0.636800  1.0
  C  C1313  1  0.087700  0.312900  0.863200  1.0
  C  C1314  1  0.187100  0.087700  0.863200  1.0
  C  C1315  1  0.412300  0.187100  0.863200  1.0
  C  C1316  1  0.312900  0.412300  0.863200  1.0
  C  C1317  1  0.636800  0.087700  0.187100  1.0
  C  C1318  1  0.412300  0.636800  0.187100  1.0
  C  C1319  1  0.863200  0.412300  0.187100  1.0
  C  C1320  1  0.087700  0.863200  0.187100  1.0
  C  C1321  1  0.636800  0.412300  0.312900  1.0
  C  C1322  1  0.087700  0.636800  0.312900  1.0
  C  C1323  1  0.863200  0.087700  0.312900  1.0
  C  C1324  1  0.412300  0.863200  0.312900  1.0
  C  C1325  1  0.187100  0.636800  0.087700  1.0
  C  C1326  1  0.863200  0.312900  0.412300  1.0
  C  C1327  1  0.863200  0.187100  0.087700  1.0
  C  C1328  1  0.636800  0.187100  0.412300  1.0
  C  C1329  1  0.636800  0.312900  0.087700  1.0
  C  C1330  1  0.187100  0.863200  0.412300  1.0
  C  C1331  1  0.312900  0.863200  0.087700  1.0
  C  C1332  1  0.312900  0.636800  0.412300  1.0
  C  C1333  1  0.912300  0.812900  0.363200  1.0
  C  C1334  1  0.687100  0.912300  0.363200  1.0
  C  C1335  1  0.587700  0.687100  0.363200  1.0
  C  C1336  1  0.812900  0.587700  0.363200  1.0
  C  C1337  1  0.912300  0.687100  0.136800  1.0
  C  C1338  1  0.812900  0.912300  0.136800  1.0
  C  C1339  1  0.587700  0.812900  0.136800  1.0
  C  C1340  1  0.687100  0.587700  0.136800  1.0
  C  C1341  1  0.363200  0.912300  0.812900  1.0
  C  C1342  1  0.587700  0.363200  0.812900  1.0
  C  C1343  1  0.136800  0.587700  0.812900  1.0
  C  C1344  1  0.912300  0.136800  0.812900  1.0
  C  C1345  1  0.363200  0.587700  0.687100  1.0
  C  C1346  1  0.912300  0.363200  0.687100  1.0
  C  C1347  1  0.136800  0.912300  0.687100  1.0
  C  C1348  1  0.587700  0.136800  0.687100  1.0
  C  C1349  1  0.812900  0.363200  0.912300  1.0
  C  C1350  1  0.136800  0.687100  0.587700  1.0
  C  C1351  1  0.136800  0.812900  0.912300  1.0
  C  C1352  1  0.363200  0.812900  0.587700  1.0
  C  C1353  1  0.363200  0.687100  0.912300  1.0
  C  C1354  1  0.812900  0.136800  0.587700  1.0
  C  C1355  1  0.687100  0.136800  0.912300  1.0
  C  C1356  1  0.687100  0.363200  0.587700  1.0
  C  C1357  1  0.158490  0.120500  0.584360  1.0
  C  C1358  1  0.379500  0.158490  0.584360  1.0
  C  C1359  1  0.341510  0.379500  0.584360  1.0
  C  C1360  1  0.120500  0.341510  0.584360  1.0
  C  C1361  1  0.158490  0.379500  0.915640  1.0
  C  C1362  1  0.120500  0.158490  0.915640  1.0
  C  C1363  1  0.341510  0.120500  0.915640  1.0
  C  C1364  1  0.379500  0.341510  0.915640  1.0
  C  C1365  1  0.584360  0.158490  0.120500  1.0
  C  C1366  1  0.341510  0.584360  0.120500  1.0
  C  C1367  1  0.915640  0.341510  0.120500  1.0
  C  C1368  1  0.158490  0.915640  0.120500  1.0
  C  C1369  1  0.584360  0.341510  0.379500  1.0
  C  C1370  1  0.158490  0.584360  0.379500  1.0
  C  C1371  1  0.915640  0.158490  0.379500  1.0
  C  C1372  1  0.341510  0.915640  0.379500  1.0
  C  C1373  1  0.120500  0.584360  0.158490  1.0
  C  C1374  1  0.915640  0.379500  0.341510  1.0
  C  C1375  1  0.915640  0.120500  0.158490  1.0
  C  C1376  1  0.584360  0.120500  0.341510  1.0
  C  C1377  1  0.584360  0.379500  0.158490  1.0
  C  C1378  1  0.120500  0.915640  0.341510  1.0
  C  C1379  1  0.379500  0.915640  0.158490  1.0
  C  C1380  1  0.379500  0.584360  0.341510  1.0
  C  C1381  1  0.841510  0.879500  0.415640  1.0
  C  C1382  1  0.620500  0.841510  0.415640  1.0
  C  C1383  1  0.658490  0.620500  0.415640  1.0
  C  C1384  1  0.879500  0.658490  0.415640  1.0
  C  C1385  1  0.841510  0.620500  0.084360  1.0
  C  C1386  1  0.879500  0.841510  0.084360  1.0
  C  C1387  1  0.658490  0.879500  0.084360  1.0
  C  C1388  1  0.620500  0.658490  0.084360  1.0
  C  C1389  1  0.415640  0.841510  0.879500  1.0
  C  C1390  1  0.658490  0.415640  0.879500  1.0
  C  C1391  1  0.084360  0.658490  0.879500  1.0
  C  C1392  1  0.841510  0.084360  0.879500  1.0
  C  C1393  1  0.415640  0.658490  0.620500  1.0
  C  C1394  1  0.841510  0.415640  0.620500  1.0
  C  C1395  1  0.084360  0.841510  0.620500  1.0
  C  C1396  1  0.658490  0.084360  0.620500  1.0
  C  C1397  1  0.879500  0.415640  0.841510  1.0
  C  C1398  1  0.084360  0.620500  0.658490  1.0
  C  C1399  1  0.084360  0.879500  0.841510  1.0
  C  C1400  1  0.415640  0.879500  0.658490  1.0
  C  C1401  1  0.415640  0.620500  0.841510  1.0
  C  C1402  1  0.879500  0.084360  0.658490  1.0
  C  C1403  1  0.620500  0.084360  0.841510  1.0
  C  C1404  1  0.620500  0.415640  0.658490  1.0
  C  C1405  1  0.172490  0.081530  0.586300  1.0
  C  C1406  1  0.418470  0.172490  0.586300  1.0
  C  C1407  1  0.327510  0.418470  0.586300  1.0
  C  C1408  1  0.081530  0.327510  0.586300  1.0
  C  C1409  1  0.172490  0.418470  0.913700  1.0
  C  C1410  1  0.081530  0.172490  0.913700  1.0
  C  C1411  1  0.327510  0.081530  0.913700  1.0
  C  C1412  1  0.418470  0.327510  0.913700  1.0
  C  C1413  1  0.586300  0.172490  0.081530  1.0
  C  C1414  1  0.327510  0.586300  0.081530  1.0
  C  C1415  1  0.913700  0.327510  0.081530  1.0
  C  C1416  1  0.172490  0.913700  0.081530  1.0
  C  C1417  1  0.586300  0.327510  0.418470  1.0
  C  C1418  1  0.172490  0.586300  0.418470  1.0
  C  C1419  1  0.913700  0.172490  0.418470  1.0
  C  C1420  1  0.327510  0.913700  0.418470  1.0
  C  C1421  1  0.081530  0.586300  0.172490  1.0
  C  C1422  1  0.913700  0.418470  0.327510  1.0
  C  C1423  1  0.913700  0.081530  0.172490  1.0
  C  C1424  1  0.586300  0.081530  0.327510  1.0
  C  C1425  1  0.586300  0.418470  0.172490  1.0
  C  C1426  1  0.081530  0.913700  0.327510  1.0
  C  C1427  1  0.418470  0.913700  0.172490  1.0
  C  C1428  1  0.418470  0.586300  0.327510  1.0
  C  C1429  1  0.827510  0.918470  0.413700  1.0
  C  C1430  1  0.581530  0.827510  0.413700  1.0
  C  C1431  1  0.672490  0.581530  0.413700  1.0
  C  C1432  1  0.918470  0.672490  0.413700  1.0
  C  C1433  1  0.827510  0.581530  0.086300  1.0
  C  C1434  1  0.918470  0.827510  0.086300  1.0
  C  C1435  1  0.672490  0.918470  0.086300  1.0
  C  C1436  1  0.581530  0.672490  0.086300  1.0
  C  C1437  1  0.413700  0.827510  0.918470  1.0
  C  C1438  1  0.672490  0.413700  0.918470  1.0
  C  C1439  1  0.086300  0.672490  0.918470  1.0
  C  C1440  1  0.827510  0.086300  0.918470  1.0
  C  C1441  1  0.413700  0.672490  0.581530  1.0
  C  C1442  1  0.827510  0.413700  0.581530  1.0
  C  C1443  1  0.086300  0.827510  0.581530  1.0
  C  C1444  1  0.672490  0.086300  0.581530  1.0
  C  C1445  1  0.918470  0.413700  0.827510  1.0
  C  C1446  1  0.086300  0.581530  0.672490  1.0
  C  C1447  1  0.086300  0.918470  0.827510  1.0
  C  C1448  1  0.413700  0.918470  0.672490  1.0
  C  C1449  1  0.413700  0.581530  0.827510  1.0
  C  C1450  1  0.918470  0.086300  0.672490  1.0
  C  C1451  1  0.581530  0.086300  0.827510  1.0
  C  C1452  1  0.581530  0.413700  0.672490  1.0
  C  C1453  1  0.162610  0.058080  0.619410  1.0
  C  C1454  1  0.441920  0.162610  0.619410  1.0
  C  C1455  1  0.337390  0.441920  0.619410  1.0
  C  C1456  1  0.058080  0.337390  0.619410  1.0
  C  C1457  1  0.162610  0.441920  0.880590  1.0
  C  C1458  1  0.058080  0.162610  0.880590  1.0
  C  C1459  1  0.337390  0.058080  0.880590  1.0
  C  C1460  1  0.441920  0.337390  0.880590  1.0
  C  C1461  1  0.619410  0.162610  0.058080  1.0
  C  C1462  1  0.337390  0.619410  0.058080  1.0
  C  C1463  1  0.880590  0.337390  0.058080  1.0
  C  C1464  1  0.162610  0.880590  0.058080  1.0
  C  C1465  1  0.619410  0.337390  0.441920  1.0
  C  C1466  1  0.162610  0.619410  0.441920  1.0
  C  C1467  1  0.880590  0.162610  0.441920  1.0
  C  C1468  1  0.337390  0.880590  0.441920  1.0
  C  C1469  1  0.058080  0.619410  0.162610  1.0
  C  C1470  1  0.880590  0.441920  0.337390  1.0
  C  C1471  1  0.880590  0.058080  0.162610  1.0
  C  C1472  1  0.619410  0.058080  0.337390  1.0
  C  C1473  1  0.619410  0.441920  0.162610  1.0
  C  C1474  1  0.058080  0.880590  0.337390  1.0
  C  C1475  1  0.441920  0.880590  0.162610  1.0
  C  C1476  1  0.441920  0.619410  0.337390  1.0
  C  C1477  1  0.837390  0.941920  0.380590  1.0
  C  C1478  1  0.558080  0.837390  0.380590  1.0
  C  C1479  1  0.662610  0.558080  0.380590  1.0
  C  C1480  1  0.941920  0.662610  0.380590  1.0
  C  C1481  1  0.837390  0.558080  0.119410  1.0
  C  C1482  1  0.941920  0.837390  0.119410  1.0
  C  C1483  1  0.662610  0.941920  0.119410  1.0
  C  C1484  1  0.558080  0.662610  0.119410  1.0
  C  C1485  1  0.380590  0.837390  0.941920  1.0
  C  C1486  1  0.662610  0.380590  0.941920  1.0
  C  C1487  1  0.119410  0.662610  0.941920  1.0
  C  C1488  1  0.837390  0.119410  0.941920  1.0
  C  C1489  1  0.380590  0.662610  0.558080  1.0
  C  C1490  1  0.837390  0.380590  0.558080  1.0
  C  C1491  1  0.119410  0.837390  0.558080  1.0
  C  C1492  1  0.662610  0.119410  0.558080  1.0
  C  C1493  1  0.941920  0.380590  0.837390  1.0
  C  C1494  1  0.119410  0.558080  0.662610  1.0
  C  C1495  1  0.119410  0.941920  0.837390  1.0
  C  C1496  1  0.380590  0.941920  0.662610  1.0
  C  C1497  1  0.380590  0.558080  0.837390  1.0
  C  C1498  1  0.941920  0.119410  0.662610  1.0
  C  C1499  1  0.558080  0.119410  0.837390  1.0
  C  C1500  1  0.558080  0.380590  0.662610  1.0
  C  C1501  1  0.139510  0.074270  0.650050  1.0
  C  C1502  1  0.425730  0.139510  0.650050  1.0
  C  C1503  1  0.360490  0.425730  0.650050  1.0
  C  C1504  1  0.074270  0.360490  0.650050  1.0
  C  C1505  1  0.139510  0.425730  0.849950  1.0
  C  C1506  1  0.074270  0.139510  0.849950  1.0
  C  C1507  1  0.360490  0.074270  0.849950  1.0
  C  C1508  1  0.425730  0.360490  0.849950  1.0
  C  C1509  1  0.650050  0.139510  0.074270  1.0
  C  C1510  1  0.360490  0.650050  0.074270  1.0
  C  C1511  1  0.849950  0.360490  0.074270  1.0
  C  C1512  1  0.139510  0.849950  0.074270  1.0
  C  C1513  1  0.650050  0.360490  0.425730  1.0
  C  C1514  1  0.139510  0.650050  0.425730  1.0
  C  C1515  1  0.849950  0.139510  0.425730  1.0
  C  C1516  1  0.360490  0.849950  0.425730  1.0
  C  C1517  1  0.074270  0.650050  0.139510  1.0
  C  C1518  1  0.849950  0.425730  0.360490  1.0
  C  C1519  1  0.849950  0.074270  0.139510  1.0
  C  C1520  1  0.650050  0.074270  0.360490  1.0
  C  C1521  1  0.650050  0.425730  0.139510  1.0
  C  C1522  1  0.074270  0.849950  0.360490  1.0
  C  C1523  1  0.425730  0.849950  0.139510  1.0
  C  C1524  1  0.425730  0.650050  0.360490  1.0
  C  C1525  1  0.860490  0.925730  0.349950  1.0
  C  C1526  1  0.574270  0.860490  0.349950  1.0
  C  C1527  1  0.639510  0.574270  0.349950  1.0
  C  C1528  1  0.925730  0.639510  0.349950  1.0
  C  C1529  1  0.860490  0.574270  0.150050  1.0
  C  C1530  1  0.925730  0.860490  0.150050  1.0
  C  C1531  1  0.639510  0.925730  0.150050  1.0
  C  C1532  1  0.574270  0.639510  0.150050  1.0
  C  C1533  1  0.349950  0.860490  0.925730  1.0
  C  C1534  1  0.639510  0.349950  0.925730  1.0
  C  C1535  1  0.150050  0.639510  0.925730  1.0
  C  C1536  1  0.860490  0.150050  0.925730  1.0
  C  C1537  1  0.349950  0.639510  0.574270  1.0
  C  C1538  1  0.860490  0.349950  0.574270  1.0
  C  C1539  1  0.150050  0.860490  0.574270  1.0
  C  C1540  1  0.639510  0.150050  0.574270  1.0
  C  C1541  1  0.925730  0.349950  0.860490  1.0
  C  C1542  1  0.150050  0.574270  0.639510  1.0
  C  C1543  1  0.150050  0.925730  0.860490  1.0
  C  C1544  1  0.349950  0.925730  0.639510  1.0
  C  C1545  1  0.349950  0.574270  0.860490  1.0
  C  C1546  1  0.925730  0.150050  0.639510  1.0
  C  C1547  1  0.574270  0.150050  0.860490  1.0
  C  C1548  1  0.574270  0.349950  0.639510  1.0
  C  C1549  1  0.125400  0.113160  0.648180  1.0
  C  C1550  1  0.386840  0.125400  0.648180  1.0
  C  C1551  1  0.374600  0.386840  0.648180  1.0
  C  C1552  1  0.113160  0.374600  0.648180  1.0
  C  C1553  1  0.125400  0.386840  0.851820  1.0
  C  C1554  1  0.113160  0.125400  0.851820  1.0
  C  C1555  1  0.374600  0.113160  0.851820  1.0
  C  C1556  1  0.386840  0.374600  0.851820  1.0
  C  C1557  1  0.648180  0.125400  0.113160  1.0
  C  C1558  1  0.374600  0.648180  0.113160  1.0
  C  C1559  1  0.851820  0.374600  0.113160  1.0
  C  C1560  1  0.125400  0.851820  0.113160  1.0
  C  C1561  1  0.648180  0.374600  0.386840  1.0
  C  C1562  1  0.125400  0.648180  0.386840  1.0
  C  C1563  1  0.851820  0.125400  0.386840  1.0
  C  C1564  1  0.374600  0.851820  0.386840  1.0
  C  C1565  1  0.113160  0.648180  0.125400  1.0
  C  C1566  1  0.851820  0.386840  0.374600  1.0
  C  C1567  1  0.851820  0.113160  0.125400  1.0
  C  C1568  1  0.648180  0.113160  0.374600  1.0
  C  C1569  1  0.648180  0.386840  0.125400  1.0
  C  C1570  1  0.113160  0.851820  0.374600  1.0
  C  C1571  1  0.386840  0.851820  0.125400  1.0
  C  C1572  1  0.386840  0.648180  0.374600  1.0
  C  C1573  1  0.874600  0.886840  0.351820  1.0
  C  C1574  1  0.613160  0.874600  0.351820  1.0
  C  C1575  1  0.625400  0.613160  0.351820  1.0
  C  C1576  1  0.886840  0.625400  0.351820  1.0
  C  C1577  1  0.874600  0.613160  0.148180  1.0
  C  C1578  1  0.886840  0.874600  0.148180  1.0
  C  C1579  1  0.625400  0.886840  0.148180  1.0
  C  C1580  1  0.613160  0.625400  0.148180  1.0
  C  C1581  1  0.351820  0.874600  0.886840  1.0
  C  C1582  1  0.625400  0.351820  0.886840  1.0
  C  C1583  1  0.148180  0.625400  0.886840  1.0
  C  C1584  1  0.874600  0.148180  0.886840  1.0
  C  C1585  1  0.351820  0.625400  0.613160  1.0
  C  C1586  1  0.874600  0.351820  0.613160  1.0
  C  C1587  1  0.148180  0.874600  0.613160  1.0
  C  C1588  1  0.625400  0.148180  0.613160  1.0
  C  C1589  1  0.886840  0.351820  0.874600  1.0
  C  C1590  1  0.148180  0.613160  0.625400  1.0
  C  C1591  1  0.148180  0.886840  0.874600  1.0
  C  C1592  1  0.351820  0.886840  0.625400  1.0
  C  C1593  1  0.351820  0.613160  0.874600  1.0
  C  C1594  1  0.886840  0.148180  0.625400  1.0
  C  C1595  1  0.613160  0.148180  0.874600  1.0
  C  C1596  1  0.613160  0.351820  0.625400  1.0
  C  C1597  1  0.134860  0.136690  0.614660  1.0
  C  C1598  1  0.363310  0.134860  0.614660  1.0
  C  C1599  1  0.365140  0.363310  0.614660  1.0
  C  C1600  1  0.136690  0.365140  0.614660  1.0
  C  C1601  1  0.134860  0.363310  0.885340  1.0
  C  C1602  1  0.136690  0.134860  0.885340  1.0
  C  C1603  1  0.365140  0.136690  0.885340  1.0
  C  C1604  1  0.363310  0.365140  0.885340  1.0
  C  C1605  1  0.614660  0.134860  0.136690  1.0
  C  C1606  1  0.365140  0.614660  0.136690  1.0
  C  C1607  1  0.885340  0.365140  0.136690  1.0
  C  C1608  1  0.134860  0.885340  0.136690  1.0
  C  C1609  1  0.614660  0.365140  0.363310  1.0
  C  C1610  1  0.134860  0.614660  0.363310  1.0
  C  C1611  1  0.885340  0.134860  0.363310  1.0
  C  C1612  1  0.365140  0.885340  0.363310  1.0
  C  C1613  1  0.136690  0.614660  0.134860  1.0
  C  C1614  1  0.885340  0.363310  0.365140  1.0
  C  C1615  1  0.885340  0.136690  0.134860  1.0
  C  C1616  1  0.614660  0.136690  0.365140  1.0
  C  C1617  1  0.614660  0.363310  0.134860  1.0
  C  C1618  1  0.136690  0.885340  0.365140  1.0
  C  C1619  1  0.363310  0.885340  0.134860  1.0
  C  C1620  1  0.363310  0.614660  0.365140  1.0
  C  C1621  1  0.865140  0.863310  0.385340  1.0
  C  C1622  1  0.636690  0.865140  0.385340  1.0
  C  C1623  1  0.634860  0.636690  0.385340  1.0
  C  C1624  1  0.863310  0.634860  0.385340  1.0
  C  C1625  1  0.865140  0.636690  0.114660  1.0
  C  C1626  1  0.863310  0.865140  0.114660  1.0
  C  C1627  1  0.634860  0.863310  0.114660  1.0
  C  C1628  1  0.636690  0.634860  0.114660  1.0
  C  C1629  1  0.385340  0.865140  0.863310  1.0
  C  C1630  1  0.634860  0.385340  0.863310  1.0
  C  C1631  1  0.114660  0.634860  0.863310  1.0
  C  C1632  1  0.865140  0.114660  0.863310  1.0
  C  C1633  1  0.385340  0.634860  0.636690  1.0
  C  C1634  1  0.865140  0.385340  0.636690  1.0
  C  C1635  1  0.114660  0.865140  0.636690  1.0
  C  C1636  1  0.634860  0.114660  0.636690  1.0
  C  C1637  1  0.863310  0.385340  0.865140  1.0
  C  C1638  1  0.114660  0.636690  0.634860  1.0
  C  C1639  1  0.114660  0.863310  0.865140  1.0
  C  C1640  1  0.385340  0.863310  0.634860  1.0
  C  C1641  1  0.385340  0.636690  0.865140  1.0
  C  C1642  1  0.863310  0.114660  0.634860  1.0
  C  C1643  1  0.636690  0.114660  0.865140  1.0
  C  C1644  1  0.636690  0.385340  0.634860  1.0
  C  C1645  1  0.094380  0.107150  0.714910  1.0
  C  C1646  1  0.392850  0.094380  0.714910  1.0
  C  C1647  1  0.405620  0.392850  0.714910  1.0
  C  C1648  1  0.107150  0.405620  0.714910  1.0
  C  C1649  1  0.094380  0.392850  0.785090  1.0
  C  C1650  1  0.107150  0.094380  0.785090  1.0
  C  C1651  1  0.405620  0.107150  0.785090  1.0
  C  C1652  1  0.392850  0.405620  0.785090  1.0
  C  C1653  1  0.714910  0.094380  0.107150  1.0
  C  C1654  1  0.405620  0.714910  0.107150  1.0
  C  C1655  1  0.785090  0.405620  0.107150  1.0
  C  C1656  1  0.094380  0.785090  0.107150  1.0
  C  C1657  1  0.714910  0.405620  0.392850  1.0
  C  C1658  1  0.094380  0.714910  0.392850  1.0
  C  C1659  1  0.785090  0.094380  0.392850  1.0
  C  C1660  1  0.405620  0.785090  0.392850  1.0
  C  C1661  1  0.107150  0.714910  0.094380  1.0
  C  C1662  1  0.785090  0.392850  0.405620  1.0
  C  C1663  1  0.785090  0.107150  0.094380  1.0
  C  C1664  1  0.714910  0.107150  0.405620  1.0
  C  C1665  1  0.714910  0.392850  0.094380  1.0
  C  C1666  1  0.107150  0.785090  0.405620  1.0
  C  C1667  1  0.392850  0.785090  0.094380  1.0
  C  C1668  1  0.392850  0.714910  0.405620  1.0
  C  C1669  1  0.905620  0.892850  0.285090  1.0
  C  C1670  1  0.607150  0.905620  0.285090  1.0
  C  C1671  1  0.594380  0.607150  0.285090  1.0
  C  C1672  1  0.892850  0.594380  0.285090  1.0
  C  C1673  1  0.905620  0.607150  0.214910  1.0
  C  C1674  1  0.892850  0.905620  0.214910  1.0
  C  C1675  1  0.594380  0.892850  0.214910  1.0
  C  C1676  1  0.607150  0.594380  0.214910  1.0
  C  C1677  1  0.285090  0.905620  0.892850  1.0
  C  C1678  1  0.594380  0.285090  0.892850  1.0
  C  C1679  1  0.214910  0.594380  0.892850  1.0
  C  C1680  1  0.905620  0.214910  0.892850  1.0
  C  C1681  1  0.285090  0.594380  0.607150  1.0
  C  C1682  1  0.905620  0.285090  0.607150  1.0
  C  C1683  1  0.214910  0.905620  0.607150  1.0
  C  C1684  1  0.594380  0.214910  0.607150  1.0
  C  C1685  1  0.892850  0.285090  0.905620  1.0
  C  C1686  1  0.214910  0.607150  0.594380  1.0
  C  C1687  1  0.214910  0.892850  0.905620  1.0
  C  C1688  1  0.285090  0.892850  0.594380  1.0
  C  C1689  1  0.285090  0.607150  0.905620  1.0
  C  C1690  1  0.892850  0.214910  0.594380  1.0
  C  C1691  1  0.607150  0.214910  0.905620  1.0
  C  C1692  1  0.607150  0.285090  0.594380  1.0
  C  C1693  1  0.065250  0.077570  0.715300  1.0
  C  C1694  1  0.422430  0.065250  0.715300  1.0
  C  C1695  1  0.434750  0.422430  0.715300  1.0
  C  C1696  1  0.077570  0.434750  0.715300  1.0
  C  C1697  1  0.065250  0.422430  0.784700  1.0
  C  C1698  1  0.077570  0.065250  0.784700  1.0
  C  C1699  1  0.434750  0.077570  0.784700  1.0
  C  C1700  1  0.422430  0.434750  0.784700  1.0
  C  C1701  1  0.715300  0.065250  0.077570  1.0
  C  C1702  1  0.434750  0.715300  0.077570  1.0
  C  C1703  1  0.784700  0.434750  0.077570  1.0
  C  C1704  1  0.065250  0.784700  0.077570  1.0
  C  C1705  1  0.715300  0.434750  0.422430  1.0
  C  C1706  1  0.065250  0.715300  0.422430  1.0
  C  C1707  1  0.784700  0.065250  0.422430  1.0
  C  C1708  1  0.434750  0.784700  0.422430  1.0
  C  C1709  1  0.077570  0.715300  0.065250  1.0
  C  C1710  1  0.784700  0.422430  0.434750  1.0
  C  C1711  1  0.784700  0.077570  0.065250  1.0
  C  C1712  1  0.715300  0.077570  0.434750  1.0
  C  C1713  1  0.715300  0.422430  0.065250  1.0
  C  C1714  1  0.077570  0.784700  0.434750  1.0
  C  C1715  1  0.422430  0.784700  0.065250  1.0
  C  C1716  1  0.422430  0.715300  0.434750  1.0
  C  C1717  1  0.934750  0.922430  0.284700  1.0
  C  C1718  1  0.577570  0.934750  0.284700  1.0
  C  C1719  1  0.565250  0.577570  0.284700  1.0
  C  C1720  1  0.922430  0.565250  0.284700  1.0
  C  C1721  1  0.934750  0.577570  0.215300  1.0
  C  C1722  1  0.922430  0.934750  0.215300  1.0
  C  C1723  1  0.565250  0.922430  0.215300  1.0
  C  C1724  1  0.577570  0.565250  0.215300  1.0
  C  C1725  1  0.284700  0.934750  0.922430  1.0
  C  C1726  1  0.565250  0.284700  0.922430  1.0
  C  C1727  1  0.215300  0.565250  0.922430  1.0
  C  C1728  1  0.934750  0.215300  0.922430  1.0
  C  C1729  1  0.284700  0.565250  0.577570  1.0
  C  C1730  1  0.934750  0.284700  0.577570  1.0
  C  C1731  1  0.215300  0.934750  0.577570  1.0
  C  C1732  1  0.565250  0.215300  0.577570  1.0
  C  C1733  1  0.922430  0.284700  0.934750  1.0
  C  C1734  1  0.215300  0.577570  0.565250  1.0
  C  C1735  1  0.215300  0.922430  0.934750  1.0
  C  C1736  1  0.284700  0.922430  0.565250  1.0
  C  C1737  1  0.284700  0.577570  0.934750  1.0
  C  C1738  1  0.922430  0.215300  0.565250  1.0
  C  C1739  1  0.577570  0.215300  0.934750  1.0
  C  C1740  1  0.577570  0.284700  0.565250  1.0
  C  C1741  1  0.019800  0.037900  0.675900  1.0
  C  C1742  1  0.462100  0.019800  0.675900  1.0
  C  C1743  1  0.480200  0.462100  0.675900  1.0
  C  C1744  1  0.037900  0.480200  0.675900  1.0
  C  C1745  1  0.019800  0.462100  0.824100  1.0
  C  C1746  1  0.037900  0.019800  0.824100  1.0
  C  C1747  1  0.480200  0.037900  0.824100  1.0
  C  C1748  1  0.462100  0.480200  0.824100  1.0
  C  C1749  1  0.675900  0.019800  0.037900  1.0
  C  C1750  1  0.480200  0.675900  0.037900  1.0
  C  C1751  1  0.824100  0.480200  0.037900  1.0
  C  C1752  1  0.019800  0.824100  0.037900  1.0
  C  C1753  1  0.675900  0.480200  0.462100  1.0
  C  C1754  1  0.019800  0.675900  0.462100  1.0
  C  C1755  1  0.824100  0.019800  0.462100  1.0
  C  C1756  1  0.480200  0.824100  0.462100  1.0
  C  C1757  1  0.037900  0.675900  0.019800  1.0
  C  C1758  1  0.824100  0.462100  0.480200  1.0
  C  C1759  1  0.824100  0.037900  0.019800  1.0
  C  C1760  1  0.675900  0.037900  0.480200  1.0
  C  C1761  1  0.675900  0.462100  0.019800  1.0
  C  C1762  1  0.037900  0.824100  0.480200  1.0
  C  C1763  1  0.462100  0.824100  0.019800  1.0
  C  C1764  1  0.462100  0.675900  0.480200  1.0
  C  C1765  1  0.980200  0.962100  0.324100  1.0
  C  C1766  1  0.537900  0.980200  0.324100  1.0
  C  C1767  1  0.519800  0.537900  0.324100  1.0
  C  C1768  1  0.962100  0.519800  0.324100  1.0
  C  C1769  1  0.980200  0.537900  0.175900  1.0
  C  C1770  1  0.962100  0.980200  0.175900  1.0
  C  C1771  1  0.519800  0.962100  0.175900  1.0
  C  C1772  1  0.537900  0.519800  0.175900  1.0
  C  C1773  1  0.324100  0.980200  0.962100  1.0
  C  C1774  1  0.519800  0.324100  0.962100  1.0
  C  C1775  1  0.175900  0.519800  0.962100  1.0
  C  C1776  1  0.980200  0.175900  0.962100  1.0
  C  C1777  1  0.324100  0.519800  0.537900  1.0
  C  C1778  1  0.980200  0.324100  0.537900  1.0
  C  C1779  1  0.175900  0.980200  0.537900  1.0
  C  C1780  1  0.519800  0.175900  0.537900  1.0
  C  C1781  1  0.962100  0.324100  0.980200  1.0
  C  C1782  1  0.175900  0.537900  0.519800  1.0
  C  C1783  1  0.175900  0.962100  0.980200  1.0
  C  C1784  1  0.324100  0.962100  0.519800  1.0
  C  C1785  1  0.324100  0.537900  0.980200  1.0
  C  C1786  1  0.962100  0.175900  0.519800  1.0
  C  C1787  1  0.537900  0.175900  0.980200  1.0
  C  C1788  1  0.537900  0.324100  0.519800  1.0
  N  N1789  1  0.190550  0.238420  0.556090  1.0
  N  N1790  1  0.261580  0.190550  0.556090  1.0
  N  N1791  1  0.309450  0.261580  0.556090  1.0
  N  N1792  1  0.238420  0.309450  0.556090  1.0
  N  N1793  1  0.190550  0.261580  0.943910  1.0
  N  N1794  1  0.238420  0.190550  0.943910  1.0
  N  N1795  1  0.309450  0.238420  0.943910  1.0
  N  N1796  1  0.261580  0.309450  0.943910  1.0
  N  N1797  1  0.556090  0.190550  0.238420  1.0
  N  N1798  1  0.309450  0.556090  0.238420  1.0
  N  N1799  1  0.943910  0.309450  0.238420  1.0
  N  N1800  1  0.190550  0.943910  0.238420  1.0
  N  N1801  1  0.556090  0.309450  0.261580  1.0
  N  N1802  1  0.190550  0.556090  0.261580  1.0
  N  N1803  1  0.943910  0.190550  0.261580  1.0
  N  N1804  1  0.309450  0.943910  0.261580  1.0
  N  N1805  1  0.238420  0.556090  0.190550  1.0
  N  N1806  1  0.943910  0.261580  0.309450  1.0
  N  N1807  1  0.943910  0.238420  0.190550  1.0
  N  N1808  1  0.556090  0.238420  0.309450  1.0
  N  N1809  1  0.556090  0.261580  0.190550  1.0
  N  N1810  1  0.238420  0.943910  0.309450  1.0
  N  N1811  1  0.261580  0.943910  0.190550  1.0
  N  N1812  1  0.261580  0.556090  0.309450  1.0
  N  N1813  1  0.809450  0.761580  0.443910  1.0
  N  N1814  1  0.738420  0.809450  0.443910  1.0
  N  N1815  1  0.690550  0.738420  0.443910  1.0
  N  N1816  1  0.761580  0.690550  0.443910  1.0
  N  N1817  1  0.809450  0.738420  0.056090  1.0
  N  N1818  1  0.761580  0.809450  0.056090  1.0
  N  N1819  1  0.690550  0.761580  0.056090  1.0
  N  N1820  1  0.738420  0.690550  0.056090  1.0
  N  N1821  1  0.443910  0.809450  0.761580  1.0
  N  N1822  1  0.690550  0.443910  0.761580  1.0
  N  N1823  1  0.056090  0.690550  0.761580  1.0
  N  N1824  1  0.809450  0.056090  0.761580  1.0
  N  N1825  1  0.443910  0.690550  0.738420  1.0
  N  N1826  1  0.809450  0.443910  0.738420  1.0
  N  N1827  1  0.056090  0.809450  0.738420  1.0
  N  N1828  1  0.690550  0.056090  0.738420  1.0
  N  N1829  1  0.761580  0.443910  0.809450  1.0
  N  N1830  1  0.056090  0.738420  0.690550  1.0
  N  N1831  1  0.056090  0.761580  0.809450  1.0
  N  N1832  1  0.443910  0.761580  0.690550  1.0
  N  N1833  1  0.443910  0.738420  0.809450  1.0
  N  N1834  1  0.761580  0.056090  0.690550  1.0
  N  N1835  1  0.738420  0.056090  0.809450  1.0
  N  N1836  1  0.738420  0.443910  0.690550  1.0
  N  N1837  1  0.120270  0.176910  0.613630  1.0
  N  N1838  1  0.323090  0.120270  0.613630  1.0
  N  N1839  1  0.379730  0.323090  0.613630  1.0
  N  N1840  1  0.176910  0.379730  0.613630  1.0
  N  N1841  1  0.120270  0.323090  0.886370  1.0
  N  N1842  1  0.176910  0.120270  0.886370  1.0
  N  N1843  1  0.379730  0.176910  0.886370  1.0
  N  N1844  1  0.323090  0.379730  0.886370  1.0
  N  N1845  1  0.613630  0.120270  0.176910  1.0
  N  N1846  1  0.379730  0.613630  0.176910  1.0
  N  N1847  1  0.886370  0.379730  0.176910  1.0
  N  N1848  1  0.120270  0.886370  0.176910  1.0
  N  N1849  1  0.613630  0.379730  0.323090  1.0
  N  N1850  1  0.120270  0.613630  0.323090  1.0
  N  N1851  1  0.886370  0.120270  0.323090  1.0
  N  N1852  1  0.379730  0.886370  0.323090  1.0
  N  N1853  1  0.176910  0.613630  0.120270  1.0
  N  N1854  1  0.886370  0.323090  0.379730  1.0
  N  N1855  1  0.886370  0.176910  0.120270  1.0
  N  N1856  1  0.613630  0.176910  0.379730  1.0
  N  N1857  1  0.613630  0.323090  0.120270  1.0
  N  N1858  1  0.176910  0.886370  0.379730  1.0
  N  N1859  1  0.323090  0.886370  0.120270  1.0
  N  N1860  1  0.323090  0.613630  0.379730  1.0
  N  N1861  1  0.879730  0.823090  0.386370  1.0
  N  N1862  1  0.676910  0.879730  0.386370  1.0
  N  N1863  1  0.620270  0.676910  0.386370  1.0
  N  N1864  1  0.823090  0.620270  0.386370  1.0
  N  N1865  1  0.879730  0.676910  0.113630  1.0
  N  N1866  1  0.823090  0.879730  0.113630  1.0
  N  N1867  1  0.620270  0.823090  0.113630  1.0
  N  N1868  1  0.676910  0.620270  0.113630  1.0
  N  N1869  1  0.386370  0.879730  0.823090  1.0
  N  N1870  1  0.620270  0.386370  0.823090  1.0
  N  N1871  1  0.113630  0.620270  0.823090  1.0
  N  N1872  1  0.879730  0.113630  0.823090  1.0
  N  N1873  1  0.386370  0.620270  0.676910  1.0
  N  N1874  1  0.879730  0.386370  0.676910  1.0
  N  N1875  1  0.113630  0.879730  0.676910  1.0
  N  N1876  1  0.620270  0.113630  0.676910  1.0
  N  N1877  1  0.823090  0.386370  0.879730  1.0
  N  N1878  1  0.113630  0.676910  0.620270  1.0
  N  N1879  1  0.113630  0.823090  0.879730  1.0
  N  N1880  1  0.386370  0.823090  0.620270  1.0
  N  N1881  1  0.386370  0.676910  0.879730  1.0
  N  N1882  1  0.823090  0.113630  0.620270  1.0
  N  N1883  1  0.676910  0.113630  0.879730  1.0
  N  N1884  1  0.676910  0.386370  0.620270  1.0
  N  N1885  1  0.102360  0.130690  0.679300  1.0
  N  N1886  1  0.369310  0.102360  0.679300  1.0
  N  N1887  1  0.397640  0.369310  0.679300  1.0
  N  N1888  1  0.130690  0.397640  0.679300  1.0
  N  N1889  1  0.102360  0.369310  0.820700  1.0
  N  N1890  1  0.130690  0.102360  0.820700  1.0
  N  N1891  1  0.397640  0.130690  0.820700  1.0
  N  N1892  1  0.369310  0.397640  0.820700  1.0
  N  N1893  1  0.679300  0.102360  0.130690  1.0
  N  N1894  1  0.397640  0.679300  0.130690  1.0
  N  N1895  1  0.820700  0.397640  0.130690  1.0
  N  N1896  1  0.102360  0.820700  0.130690  1.0
  N  N1897  1  0.679300  0.397640  0.369310  1.0
  N  N1898  1  0.102360  0.679300  0.369310  1.0
  N  N1899  1  0.820700  0.102360  0.369310  1.0
  N  N1900  1  0.397640  0.820700  0.369310  1.0
  N  N1901  1  0.130690  0.679300  0.102360  1.0
  N  N1902  1  0.820700  0.369310  0.397640  1.0
  N  N1903  1  0.820700  0.130690  0.102360  1.0
  N  N1904  1  0.679300  0.130690  0.397640  1.0
  N  N1905  1  0.679300  0.369310  0.102360  1.0
  N  N1906  1  0.130690  0.820700  0.397640  1.0
  N  N1907  1  0.369310  0.820700  0.102360  1.0
  N  N1908  1  0.369310  0.679300  0.397640  1.0
  N  N1909  1  0.897640  0.869310  0.320700  1.0
  N  N1910  1  0.630690  0.897640  0.320700  1.0
  N  N1911  1  0.602360  0.630690  0.320700  1.0
  N  N1912  1  0.869310  0.602360  0.320700  1.0
  N  N1913  1  0.897640  0.630690  0.179300  1.0
  N  N1914  1  0.869310  0.897640  0.179300  1.0
  N  N1915  1  0.602360  0.869310  0.179300  1.0
  N  N1916  1  0.630690  0.602360  0.179300  1.0
  N  N1917  1  0.320700  0.897640  0.869310  1.0
  N  N1918  1  0.602360  0.320700  0.869310  1.0
  N  N1919  1  0.179300  0.602360  0.869310  1.0
  N  N1920  1  0.897640  0.179300  0.869310  1.0
  N  N1921  1  0.320700  0.602360  0.630690  1.0
  N  N1922  1  0.897640  0.320700  0.630690  1.0
  N  N1923  1  0.179300  0.897640  0.630690  1.0
  N  N1924  1  0.602360  0.179300  0.630690  1.0
  N  N1925  1  0.869310  0.320700  0.897640  1.0
  N  N1926  1  0.179300  0.630690  0.602360  1.0
  N  N1927  1  0.179300  0.869310  0.897640  1.0
  N  N1928  1  0.320700  0.869310  0.602360  1.0
  N  N1929  1  0.320700  0.630690  0.897640  1.0
  N  N1930  1  0.869310  0.179300  0.602360  1.0
  N  N1931  1  0.630690  0.179300  0.897640  1.0
  N  N1932  1  0.630690  0.320700  0.602360  1.0
  O  O1933  1  0.045180  0.072400  0.679150  1.0
  O  O1934  1  0.427600  0.045180  0.679150  1.0
  O  O1935  1  0.454820  0.427600  0.679150  1.0
  O  O1936  1  0.072400  0.454820  0.679150  1.0
  O  O1937  1  0.045180  0.427600  0.820850  1.0
  O  O1938  1  0.072400  0.045180  0.820850  1.0
  O  O1939  1  0.454820  0.072400  0.820850  1.0
  O  O1940  1  0.427600  0.454820  0.820850  1.0
  O  O1941  1  0.679150  0.045180  0.072400  1.0
  O  O1942  1  0.454820  0.679150  0.072400  1.0
  O  O1943  1  0.820850  0.454820  0.072400  1.0
  O  O1944  1  0.045180  0.820850  0.072400  1.0
  O  O1945  1  0.679150  0.454820  0.427600  1.0
  O  O1946  1  0.045180  0.679150  0.427600  1.0
  O  O1947  1  0.820850  0.045180  0.427600  1.0
  O  O1948  1  0.454820  0.820850  0.427600  1.0
  O  O1949  1  0.072400  0.679150  0.045180  1.0
  O  O1950  1  0.820850  0.427600  0.454820  1.0
  O  O1951  1  0.820850  0.072400  0.045180  1.0
  O  O1952  1  0.679150  0.072400  0.454820  1.0
  O  O1953  1  0.679150  0.427600  0.045180  1.0
  O  O1954  1  0.072400  0.820850  0.454820  1.0
  O  O1955  1  0.427600  0.820850  0.045180  1.0
  O  O1956  1  0.427600  0.679150  0.454820  1.0
  O  O1957  1  0.954820  0.927600  0.320850  1.0
  O  O1958  1  0.572400  0.954820  0.320850  1.0
  O  O1959  1  0.545180  0.572400  0.320850  1.0
  O  O1960  1  0.927600  0.545180  0.320850  1.0
  O  O1961  1  0.954820  0.572400  0.179150  1.0
  O  O1962  1  0.927600  0.954820  0.179150  1.0
  O  O1963  1  0.545180  0.927600  0.179150  1.0
  O  O1964  1  0.572400  0.545180  0.179150  1.0
  O  O1965  1  0.320850  0.954820  0.927600  1.0
  O  O1966  1  0.545180  0.320850  0.927600  1.0
  O  O1967  1  0.179150  0.545180  0.927600  1.0
  O  O1968  1  0.954820  0.179150  0.927600  1.0
  O  O1969  1  0.320850  0.545180  0.572400  1.0
  O  O1970  1  0.954820  0.320850  0.572400  1.0
  O  O1971  1  0.179150  0.954820  0.572400  1.0
  O  O1972  1  0.545180  0.179150  0.572400  1.0
  O  O1973  1  0.927600  0.320850  0.954820  1.0
  O  O1974  1  0.179150  0.572400  0.545180  1.0
  O  O1975  1  0.179150  0.927600  0.954820  1.0
  O  O1976  1  0.320850  0.927600  0.545180  1.0
  O  O1977  1  0.320850  0.572400  0.954820  1.0
  O  O1978  1  0.927600  0.179150  0.545180  1.0
  O  O1979  1  0.572400  0.179150  0.954820  1.0
  O  O1980  1  0.572400  0.320850  0.545180  1.0
