
#######################################################################
#
#                 Cambridge Crystallographic Data Centre
#                                CCDC 
#
#######################################################################
#
# If this CIF has been generated from an entry in the Cambridge 
# Structural Database, then it will include bibliographic, chemical, 
# crystal, experimental, refinement or atomic coordinate data resulting 
# from the CCDC's data processing and validation procedures.
#
#######################################################################

data_EYIBUL
_chemical_formula_moiety         'C168 H128 N24 O8 Pd2'
_chemical_name_systematic        
tetrakis(\m-5-(2,4-dimethoxy-5-(10-(pyridin-3-yl)phenazin-5(10H)-yl)phenyl)-10-(pyridin-3-yl)-5,10-dihydrophenazine)-di-palladium
_symmetry_cell_setting           cubic
_symmetry_space_group_name_H-M   'P n -3 n'
_symmetry_Int_Tables_number      222
_space_group_name_Hall           '-P 4a 2bc 3'
loop_
_symmetry_equiv_pos_site_id
_symmetry_equiv_pos_as_xyz
1 x,y,z
2 1/2-y,x,z
3 1/2-x,1/2-y,z
4 y,1/2-x,z
5 x,1/2-y,1/2-z
6 y,x,1/2-z
7 1/2-x,y,1/2-z
8 1/2-y,1/2-x,1/2-z
9 z,x,y
10 1/2-x,z,y
11 1/2-z,1/2-x,y
12 x,1/2-z,y
13 z,1/2-x,1/2-y
14 x,z,1/2-y
15 1/2-z,x,1/2-y
16 1/2-x,1/2-z,1/2-y
17 y,z,x
18 1/2-z,1/2-y,1/2-x
19 1/2-z,y,x
20 z,y,1/2-x
21 z,1/2-y,x
22 y,1/2-z,1/2-x
23 1/2-y,1/2-z,x
24 1/2-y,z,1/2-x
25 -x,-y,-z
26 1/2+y,-x,-z
27 1/2+x,1/2+y,-z
28 -y,1/2+x,-z
29 -x,1/2+y,1/2+z
30 -y,-x,1/2+z
31 1/2+x,-y,1/2+z
32 1/2+y,1/2+x,1/2+z
33 -z,-x,-y
34 1/2+x,-z,-y
35 1/2+z,1/2+x,-y
36 -x,1/2+z,-y
37 -z,1/2+x,1/2+y
38 -x,-z,1/2+y
39 1/2+z,-x,1/2+y
40 1/2+x,1/2+z,1/2+y
41 -y,-z,-x
42 1/2+z,1/2+y,1/2+x
43 1/2+z,-y,-x
44 -z,-y,1/2+x
45 -z,1/2+y,-x
46 -y,1/2+z,1/2+x
47 1/2+y,1/2+z,-x
48 1/2+y,-z,1/2+x
_cell_length_a                   33.2469(17)
_cell_length_b                   33.2469(17)
_cell_length_c                   33.2469(17)
_cell_angle_alpha                90
_cell_angle_beta                 90
_cell_angle_gamma                90
_cell_volume                     36749.7
_exptl_crystal_colour            yellow
_exptl_crystal_description       prism
_cell_formula_units_Z            6
loop_
_atom_site_label
_atom_site_type_symbol
_atom_site_fract_x
_atom_site_fract_y
_atom_site_fract_z
Pd1 Pd 0.2500 0.2500 0.55679(2)
O1 O 0.04518(12) 0.07240(13) 0.67915(13)
N1 N 0.19055(13) 0.23842(13) 0.55609(13)
N2 N 0.12027(15) 0.17691(14) 0.61363(17)
N3 N 0.10236(15) 0.13069(15) 0.67930(16)
C1 C 0.16765(17) 0.25202(18) 0.52664(18)
H1 H 0.1790 0.2694 0.5070
C2 C 0.12764(19) 0.24163(19) 0.5236(2)
H2 H 0.1117 0.2522 0.5024
C3 C 0.1108(2) 0.2160(2) 0.5514(2)
H3 H 0.0836 0.2076 0.5491
C4 C 0.13485(18) 0.20275(18) 0.58277(19)
C5 C 0.17393(16) 0.21475(15) 0.58455(17)
H4 H 0.1900 0.2062 0.6065
C6 C 0.0644(3) 0.2206(3) 0.6283(3)
H5 H 0.0704 0.2366 0.6055
C7 C 0.0323(3) 0.2308(3) 0.6532(3)
H6 H 0.0168 0.2541 0.6472
C8 C 0.0226(3) 0.2078(3) 0.6862(3)
H7 H 0.0002 0.2144 0.7027
C9 C 0.0469(2) 0.1742(2) 0.6948(3)
H8 H 0.0411 0.1582 0.7178
C10 C 0.0789(2) 0.1639(2) 0.6709(2)
C11 C 0.0877(2) 0.1871(2) 0.6368(2)
C12 C 0.15849(18) 0.12050(17) 0.58436(19)
H9 H 0.1652 0.1366 0.5617
C13 C 0.17249(19) 0.08153(18) 0.5863(2)
H10 H 0.1887 0.0709 0.5653
C14 C 0.16261(19) 0.05808(19) 0.61941(19)
H11 H 0.1717 0.0310 0.6210
C15 C 0.13951(18) 0.07427(18) 0.65005(19)
H12 H 0.1333 0.0582 0.6728
C16 C 0.12540(17) 0.11316(18) 0.64818(19)
C17 C 0.13486(17) 0.13669(17) 0.61466(18)
C18 C 0.09438(17) 0.10715(18) 0.71491(19)
C19 C 0.06525(17) 0.07757(18) 0.71530(18)
C20 C 0.05655(17) 0.05655(17) 0.7500
H13 H 0.0363 0.0363 0.7500
C21 C 0.11534(18) 0.11534(18) 0.7500
H14 H 0.1355 0.1355 0.7500
C22 C 0.0198(2) 0.0379(2) 0.6759(2)
H15 H 0.0349 0.0138 0.6836
H16 H 0.0105 0.0351 0.6481
H17 H -0.0034 0.0411 0.6938
O1E O 0.07240(13) 0.04518(12) 0.82085(13)
N1E N 0.23842(13) 0.19055(13) 0.94391(13)
N2E N 0.17691(14) 0.12027(15) 0.88637(17)
N3E N 0.13069(15) 0.10236(15) 0.82070(16)
C1E C 0.25202(18) 0.16765(17) 0.97336(18)
H1E H 0.2694 0.1790 0.9930
C2E C 0.24163(19) 0.12764(19) 0.9764(2)
H2E H 0.2522 0.1117 0.9976
C3E C 0.2160(2) 0.1108(2) 0.9486(2)
H3E H 0.2076 0.0836 0.9509
C4E C 0.20275(18) 0.13485(18) 0.91723(19)
C5E C 0.21475(15) 0.17393(16) 0.91545(17)
H4E H 0.2062 0.1900 0.8935
C6E C 0.2206(3) 0.0644(3) 0.8717(3)
H5E H 0.2366 0.0704 0.8945
C7E C 0.2308(3) 0.0323(3) 0.8468(3)
H6E H 0.2541 0.0168 0.8528
C8E C 0.2078(3) 0.0226(3) 0.8138(3)
H7E H 0.2144 0.0002 0.7973
C9E C 0.1742(2) 0.0469(2) 0.8052(3)
H8E H 0.1582 0.0411 0.7822
C10E C 0.1639(2) 0.0789(2) 0.8291(2)
C11E C 0.1871(2) 0.0877(2) 0.8632(2)
C12E C 0.12050(17) 0.15849(18) 0.91564(19)
H9E H 0.1366 0.1652 0.9383
C13E C 0.08153(18) 0.17249(19) 0.9137(2)
H10E H 0.0709 0.1887 0.9347
C14E C 0.05808(19) 0.16261(19) 0.88059(19)
H11E H 0.0310 0.1717 0.8790
C15E C 0.07427(18) 0.13951(18) 0.84995(19)
H12E H 0.0582 0.1333 0.8272
C16E C 0.11316(18) 0.12540(17) 0.85182(19)
C17E C 0.13669(17) 0.13486(17) 0.88534(18)
C18E C 0.10715(18) 0.09438(17) 0.78509(19)
C19E C 0.07757(18) 0.06525(17) 0.78470(18)
C22E C 0.0379(2) 0.0198(2) 0.8241(2)
H15E H 0.0138 0.0349 0.8164
H16E H 0.0351 0.0105 0.8519
H17E H 0.0411 -0.0034 0.8062
O1A O 0.42760(13) 0.04518(12) 0.67915(13)
N1A N 0.26158(13) 0.19055(13) 0.55609(13)
N2A N 0.32309(14) 0.12027(15) 0.61363(17)
N3A N 0.36931(15) 0.10236(15) 0.67930(16)
C1A C 0.24798(18) 0.16765(17) 0.52664(18)
H1A H 0.2306 0.1790 0.5070
C2A C 0.25837(19) 0.12764(19) 0.5236(2)
H2A H 0.2478 0.1117 0.5024
C3A C 0.2840(2) 0.1108(2) 0.5514(2)
H3A H 0.2924 0.0836 0.5491
C4A C 0.29725(18) 0.13485(18) 0.58277(19)
C5A C 0.28525(15) 0.17393(16) 0.58455(17)
H4A H 0.2938 0.1900 0.6065
C6A C 0.2794(3) 0.0644(3) 0.6283(3)
H5A H 0.2634 0.0704 0.6055
C7A C 0.2692(3) 0.0323(3) 0.6532(3)
H6A H 0.2459 0.0168 0.6472
C8A C 0.2922(3) 0.0226(3) 0.6862(3)
H7A H 0.2856 0.0002 0.7027
C9A C 0.3258(2) 0.0469(2) 0.6948(3)
H8A H 0.3418 0.0411 0.7178
C10A C 0.3361(2) 0.0789(2) 0.6709(2)
C11A C 0.3129(2) 0.0877(2) 0.6368(2)
C12A C 0.37950(17) 0.15849(18) 0.58436(19)
H9A H 0.3634 0.1652 0.5617
C13A C 0.41847(18) 0.17249(19) 0.5863(2)
H10A H 0.4291 0.1887 0.5653
C14A C 0.44192(19) 0.16261(19) 0.61941(19)
H11A H 0.4690 0.1717 0.6210
C15A C 0.42573(18) 0.13951(18) 0.65005(19)
H12A H 0.4418 0.1333 0.6728
C16A C 0.38684(18) 0.12540(17) 0.64818(19)
C17A C 0.36331(17) 0.13486(17) 0.61466(18)
C18A C 0.39285(18) 0.09438(17) 0.71491(19)
C19A C 0.42243(18) 0.06525(17) 0.71530(18)
C20A C 0.44345(17) 0.05655(17) 0.7500
H13A H 0.4637 0.0363 0.7500
C21A C 0.38466(18) 0.11534(18) 0.7500
H14A H 0.3645 0.1355 0.7500
C22A C 0.4621(2) 0.0198(2) 0.6759(2)
H15A H 0.4862 0.0349 0.6836
H16A H 0.4649 0.0105 0.6481
H17A H 0.4589 -0.0034 0.6938
O1F O 0.45482(12) 0.07240(13) 0.82085(13)
N1F N 0.30945(13) 0.23842(13) 0.94391(13)
N2F N 0.37973(15) 0.17691(14) 0.88637(17)
N3F N 0.39764(15) 0.13069(15) 0.82070(16)
C1F C 0.33235(17) 0.25202(18) 0.97336(18)
H1F H 0.3210 0.2694 0.9930
C2F C 0.37236(19) 0.24163(19) 0.9764(2)
H2F H 0.3883 0.2522 0.9976
C3F C 0.3892(2) 0.2160(2) 0.9486(2)
H3F H 0.4164 0.2076 0.9509
C4F C 0.36515(18) 0.20275(18) 0.91723(19)
C5F C 0.32607(16) 0.21475(15) 0.91545(17)
H4F H 0.3100 0.2062 0.8935
C6F C 0.4356(3) 0.2206(3) 0.8717(3)
H5F H 0.4296 0.2366 0.8945
C7F C 0.4677(3) 0.2308(3) 0.8468(3)
H6F H 0.4832 0.2541 0.8528
C8F C 0.4774(3) 0.2078(3) 0.8138(3)
H7F H 0.4998 0.2144 0.7973
C9F C 0.4531(2) 0.1742(2) 0.8052(3)
H8F H 0.4589 0.1582 0.7822
C10F C 0.4211(2) 0.1639(2) 0.8291(2)
C11F C 0.4123(2) 0.1871(2) 0.8632(2)
C12F C 0.34151(18) 0.12050(17) 0.91564(19)
H9F H 0.3348 0.1366 0.9383
C13F C 0.32751(19) 0.08153(18) 0.9137(2)
H10F H 0.3113 0.0709 0.9347
C14F C 0.33739(19) 0.05808(19) 0.88059(19)
H11F H 0.3283 0.0310 0.8790
C15F C 0.36049(18) 0.07427(18) 0.84995(19)
H12F H 0.3667 0.0582 0.8272
C16F C 0.37460(17) 0.11316(18) 0.85182(19)
C17F C 0.36514(17) 0.13669(17) 0.88534(18)
C18F C 0.40562(17) 0.10715(18) 0.78509(19)
C19F C 0.43475(17) 0.07757(18) 0.78470(18)
C22F C 0.4802(2) 0.0379(2) 0.8241(2)
H15F H 0.4651 0.0138 0.8164
H16F H 0.4895 0.0351 0.8519
H17F H 0.5034 0.0411 0.8062
O1B O 0.45482(12) 0.42760(13) 0.67915(13)
N1B N 0.30945(13) 0.26158(13) 0.55609(13)
N2B N 0.37973(15) 0.32309(14) 0.61363(17)
N3B N 0.39764(15) 0.36931(15) 0.67930(16)
C1B C 0.33235(17) 0.24798(18) 0.52664(18)
H1B H 0.3210 0.2306 0.5070
C2B C 0.37236(19) 0.25837(19) 0.5236(2)
H2B H 0.3883 0.2478 0.5024
C3B C 0.3892(2) 0.2840(2) 0.5514(2)
H3B H 0.4164 0.2924 0.5491
C4B C 0.36515(18) 0.29725(18) 0.58277(19)
C5B C 0.32607(16) 0.28525(15) 0.58455(17)
H4B H 0.3100 0.2938 0.6065
C6B C 0.4356(3) 0.2794(3) 0.6283(3)
H5B H 0.4296 0.2634 0.6055
C7B C 0.4677(3) 0.2692(3) 0.6532(3)
H6B H 0.4832 0.2459 0.6472
C8B C 0.4774(3) 0.2922(3) 0.6862(3)
H7B H 0.4998 0.2856 0.7027
C9B C 0.4531(2) 0.3258(2) 0.6948(3)
H8B H 0.4589 0.3418 0.7178
C10B C 0.4211(2) 0.3361(2) 0.6709(2)
C11B C 0.4123(2) 0.3129(2) 0.6368(2)
C12B C 0.34151(18) 0.37950(17) 0.58436(19)
H9B H 0.3348 0.3634 0.5617
C13B C 0.32751(19) 0.41847(18) 0.5863(2)
H10B H 0.3113 0.4291 0.5653
C14B C 0.33739(19) 0.44192(19) 0.61941(19)
H11B H 0.3283 0.4690 0.6210
C15B C 0.36049(18) 0.42573(18) 0.65005(19)
H12B H 0.3667 0.4418 0.6728
C16B C 0.37460(17) 0.38684(18) 0.64818(19)
C17B C 0.36514(17) 0.36331(17) 0.61466(18)
C18B C 0.40562(17) 0.39285(18) 0.71491(19)
C19B C 0.43475(17) 0.42243(18) 0.71530(18)
C20B C 0.44345(17) 0.44345(17) 0.7500
H13B H 0.4637 0.4637 0.7500
C21B C 0.38466(18) 0.38466(18) 0.7500
H14B H 0.3645 0.3645 0.7500
C22B C 0.4802(2) 0.4621(2) 0.6759(2)
H15B H 0.4651 0.4862 0.6836
H16B H 0.4895 0.4649 0.6481
H17B H 0.5034 0.4589 0.6938
O1G O 0.42760(13) 0.45482(12) 0.82085(13)
N1G N 0.26158(13) 0.30945(13) 0.94391(13)
N2G N 0.32309(14) 0.37973(15) 0.88637(17)
N3G N 0.36931(15) 0.39764(15) 0.82070(16)
C1G C 0.24798(18) 0.33235(17) 0.97336(18)
H1G H 0.2306 0.3210 0.9930
C2G C 0.25837(19) 0.37236(19) 0.9764(2)
H2G H 0.2478 0.3883 0.9976
C3G C 0.2840(2) 0.3892(2) 0.9486(2)
H3G H 0.2924 0.4164 0.9509
C4G C 0.29725(18) 0.36515(18) 0.91723(19)
C5G C 0.28525(15) 0.32607(16) 0.91545(17)
H4G H 0.2938 0.3100 0.8935
C6G C 0.2794(3) 0.4356(3) 0.8717(3)
H5G H 0.2634 0.4296 0.8945
C7G C 0.2692(3) 0.4677(3) 0.8468(3)
H6G H 0.2459 0.4832 0.8528
C8G C 0.2922(3) 0.4774(3) 0.8138(3)
H7G H 0.2856 0.4998 0.7973
C9G C 0.3258(2) 0.4531(2) 0.8052(3)
H8G H 0.3418 0.4589 0.7822
C10G C 0.3361(2) 0.4211(2) 0.8291(2)
C11G C 0.3129(2) 0.4123(2) 0.8632(2)
C12G C 0.37950(17) 0.34151(18) 0.91564(19)
H9G H 0.3634 0.3348 0.9383
C13G C 0.41847(18) 0.32751(19) 0.9137(2)
H10G H 0.4291 0.3113 0.9347
C14G C 0.44192(19) 0.33739(19) 0.88059(19)
H11G H 0.4690 0.3283 0.8790
C15G C 0.42573(18) 0.36049(18) 0.84995(19)
H12G H 0.4418 0.3667 0.8272
C16G C 0.38684(18) 0.37460(17) 0.85182(19)
C17G C 0.36331(17) 0.36514(17) 0.88534(18)
C18G C 0.39285(18) 0.40562(17) 0.78509(19)
C19G C 0.42243(18) 0.43475(17) 0.78470(18)
C22G C 0.4621(2) 0.4802(2) 0.8241(2)
H15G H 0.4862 0.4651 0.8164
H16G H 0.4649 0.4895 0.8519
H17G H 0.4589 0.5034 0.8062
O1C O 0.07240(13) 0.45482(12) 0.67915(13)
N1C N 0.23842(13) 0.30945(13) 0.55609(13)
N2C N 0.17691(14) 0.37973(15) 0.61363(17)
N3C N 0.13069(15) 0.39764(15) 0.67930(16)
C1C C 0.25202(18) 0.33235(17) 0.52664(18)
H1C H 0.2694 0.3210 0.5070
C2C C 0.24163(19) 0.37236(19) 0.5236(2)
H2C H 0.2522 0.3883 0.5024
C3C C 0.2160(2) 0.3892(2) 0.5514(2)
H3C H 0.2076 0.4164 0.5491
C4C C 0.20275(18) 0.36515(18) 0.58277(19)
C5C C 0.21475(15) 0.32607(16) 0.58455(17)
H4C H 0.2062 0.3100 0.6065
C6C C 0.2206(3) 0.4356(3) 0.6283(3)
H5C H 0.2366 0.4296 0.6055
C7C C 0.2308(3) 0.4677(3) 0.6532(3)
H6C H 0.2541 0.4832 0.6472
C8C C 0.2078(3) 0.4774(3) 0.6862(3)
H7C H 0.2144 0.4998 0.7027
C9C C 0.1742(2) 0.4531(2) 0.6948(3)
H8C H 0.1582 0.4589 0.7178
C10C C 0.1639(2) 0.4211(2) 0.6709(2)
C11C C 0.1871(2) 0.4123(2) 0.6368(2)
C12C C 0.12050(17) 0.34151(18) 0.58436(19)
H9C H 0.1366 0.3348 0.5617
C13C C 0.08153(18) 0.32751(19) 0.5863(2)
H10C H 0.0709 0.3113 0.5653
C14C C 0.05808(19) 0.33739(19) 0.61941(19)
H11C H 0.0310 0.3283 0.6210
C15C C 0.07427(18) 0.36049(18) 0.65005(19)
H12C H 0.0582 0.3667 0.6728
C16C C 0.11316(18) 0.37460(17) 0.64818(19)
C17C C 0.13669(17) 0.36514(17) 0.61466(18)
C18C C 0.10715(18) 0.40562(17) 0.71491(19)
C19C C 0.07757(18) 0.43475(17) 0.71530(18)
C20C C 0.05655(17) 0.44345(17) 0.7500
H13C H 0.0363 0.4637 0.7500
C21C C 0.11534(18) 0.38466(18) 0.7500
H14C H 0.1355 0.3645 0.7500
C22C C 0.0379(2) 0.4802(2) 0.6759(2)
H15C H 0.0138 0.4651 0.6836
H16C H 0.0351 0.4895 0.6481
H17C H 0.0411 0.5034 0.6938
O1D O 0.04518(12) 0.42760(13) 0.82085(13)
N1D N 0.19055(13) 0.26158(13) 0.94391(13)
N2D N 0.12027(15) 0.32309(14) 0.88637(17)
N3D N 0.10236(15) 0.36931(15) 0.82070(16)
C1D C 0.16765(17) 0.24798(18) 0.97336(18)
H1D H 0.1790 0.2306 0.9930
C2D C 0.12764(19) 0.25837(19) 0.9764(2)
H2D H 0.1117 0.2478 0.9976
C3D C 0.1108(2) 0.2840(2) 0.9486(2)
H3D H 0.0836 0.2924 0.9509
C4D C 0.13485(18) 0.29725(18) 0.91723(19)
C5D C 0.17393(16) 0.28525(15) 0.91545(17)
H4D H 0.1900 0.2938 0.8935
C6D C 0.0644(3) 0.2794(3) 0.8717(3)
H5D H 0.0704 0.2634 0.8945
C7D C 0.0323(3) 0.2692(3) 0.8468(3)
H6D H 0.0168 0.2459 0.8528
C8D C 0.0226(3) 0.2922(3) 0.8138(3)
H7D H 0.0002 0.2856 0.7973
C9D C 0.0469(2) 0.3258(2) 0.8052(3)
H8D H 0.0411 0.3418 0.7822
C10D C 0.0789(2) 0.3361(2) 0.8291(2)
C11D C 0.0877(2) 0.3129(2) 0.8632(2)
C12D C 0.15849(18) 0.37950(17) 0.91564(19)
H9D H 0.1652 0.3634 0.9383
C13D C 0.17249(19) 0.41847(18) 0.9137(2)
H10D H 0.1887 0.4291 0.9347
C14D C 0.16261(19) 0.44192(19) 0.88059(19)
H11D H 0.1717 0.4690 0.8790
C15D C 0.13951(18) 0.42573(18) 0.84995(19)
H12D H 0.1333 0.4418 0.8272
C16D C 0.12540(17) 0.38684(18) 0.85182(19)
C17D C 0.13486(17) 0.36331(17) 0.88534(18)
C18D C 0.09438(17) 0.39285(18) 0.78509(19)
C19D C 0.06525(17) 0.42243(18) 0.78470(18)
C22D C 0.0198(2) 0.4621(2) 0.8241(2)
H15D H 0.0349 0.4862 0.8164
H16D H 0.0105 0.4649 0.8519
H17D H -0.0034 0.4589 0.8062
Pd1D Pd 0.2500 0.2500 0.94321(2)
loop_
_geom_bond_atom_site_label_1
_geom_bond_atom_site_label_2
_geom_bond_site_symmetry_1
_geom_bond_site_symmetry_2
Pd1 N1 1_555 1_555
O1 C19 1_555 1_555
N1 C1 1_555 1_555
N2 C4 1_555 1_555
N3 C10 1_555 1_555
C1 H1 1_555 1_555
C2 C1 1_555 1_555
H2 C2 1_555 1_555
C3 C2 1_555 1_555
H3 C3 1_555 1_555
C4 C3 1_555 1_555
C5 N1 1_555 1_555
H4 C5 1_555 1_555
C6 H5 1_555 1_555
C7 C6 1_555 1_555
H6 C7 1_555 1_555
C8 C7 1_555 1_555
H7 C8 1_555 1_555
C9 C8 1_555 1_555
H8 C9 1_555 1_555
C10 C9 1_555 1_555
C11 N2 1_555 1_555
C12 H9 1_555 1_555
C13 C12 1_555 1_555
H10 C13 1_555 1_555
C14 C13 1_555 1_555
H11 C14 1_555 1_555
C15 C14 1_555 1_555
H12 C15 1_555 1_555
C16 N3 1_555 1_555
C17 N2 1_555 1_555
C18 N3 1_555 1_555
C19 C18 1_555 1_555
C20 C19 1_555 1_555
H13 C20 1_555 1_555
C21 C18 1_555 1_555
H14 C21 1_555 1_555
C22 O1 1_555 1_555
H15 C22 1_555 1_555
H16 C22 1_555 1_555
H17 C22 1_555 1_555
O1E C19E 1_555 1_555
N1E C1E 1_555 1_555
N2E C4E 1_555 1_555
N3E C10E 1_555 1_555
C1E H1E 1_555 1_555
C2E C1E 1_555 1_555
H2E C2E 1_555 1_555
C3E C2E 1_555 1_555
H3E C3E 1_555 1_555
C4E C3E 1_555 1_555
C5E N1E 1_555 1_555
H4E C5E 1_555 1_555
C6E H5E 1_555 1_555
C7E C6E 1_555 1_555
H6E C7E 1_555 1_555
C8E C7E 1_555 1_555
H7E C8E 1_555 1_555
C9E C8E 1_555 1_555
H8E C9E 1_555 1_555
C10E C9E 1_555 1_555
C11E N2E 1_555 1_555
C12E H9E 1_555 1_555
C13E C12E 1_555 1_555
H10E C13E 1_555 1_555
C14E C13E 1_555 1_555
H11E C14E 1_555 1_555
C15E C14E 1_555 1_555
H12E C15E 1_555 1_555
C16E N3E 1_555 1_555
C17E N2E 1_555 1_555
C18E C21 1_555 1_555
C19E C20 1_555 1_555
C22E O1E 1_555 1_555
H15E C22E 1_555 1_555
H16E C22E 1_555 1_555
H17E C22E 1_555 1_555
O1A C19A 1_555 1_555
N1A Pd1 1_555 1_555
N2A C4A 1_555 1_555
N3A C10A 1_555 1_555
C1A N1A 1_555 1_555
H1A C1A 1_555 1_555
C2A C1A 1_555 1_555
H2A C2A 1_555 1_555
C3A C2A 1_555 1_555
H3A C3A 1_555 1_555
C4A C3A 1_555 1_555
C5A N1A 1_555 1_555
H4A C5A 1_555 1_555
C6A H5A 1_555 1_555
C7A C6A 1_555 1_555
H6A C7A 1_555 1_555
C8A C7A 1_555 1_555
H7A C8A 1_555 1_555
C9A C8A 1_555 1_555
H8A C9A 1_555 1_555
C10A C9A 1_555 1_555
C11A N2A 1_555 1_555
C12A H9A 1_555 1_555
C13A C12A 1_555 1_555
H10A C13A 1_555 1_555
C14A C13A 1_555 1_555
H11A C14A 1_555 1_555
C15A C14A 1_555 1_555
H12A C15A 1_555 1_555
C16A N3A 1_555 1_555
C17A N2A 1_555 1_555
C18A N3A 1_555 1_555
C19A C18A 1_555 1_555
C20A C19A 1_555 1_555
H13A C20A 1_555 1_555
C21A C18A 1_555 1_555
H14A C21A 1_555 1_555
C22A O1A 1_555 1_555
H15A C22A 1_555 1_555
H16A C22A 1_555 1_555
H17A C22A 1_555 1_555
O1F C19F 1_555 1_555
N1F C1F 1_555 1_555
N2F C4F 1_555 1_555
N3F C10F 1_555 1_555
C1F H1F 1_555 1_555
C2F C1F 1_555 1_555
H2F C2F 1_555 1_555
C3F C2F 1_555 1_555
H3F C3F 1_555 1_555
C4F C3F 1_555 1_555
C5F N1F 1_555 1_555
H4F C5F 1_555 1_555
C6F H5F 1_555 1_555
C7F C6F 1_555 1_555
H6F C7F 1_555 1_555
C8F C7F 1_555 1_555
H7F C8F 1_555 1_555
C9F C8F 1_555 1_555
H8F C9F 1_555 1_555
C10F C9F 1_555 1_555
C11F N2F 1_555 1_555
C12F H9F 1_555 1_555
C13F C12F 1_555 1_555
H10F C13F 1_555 1_555
C14F C13F 1_555 1_555
H11F C14F 1_555 1_555
C15F C14F 1_555 1_555
H12F C15F 1_555 1_555
C16F N3F 1_555 1_555
C17F N2F 1_555 1_555
C18F C21A 1_555 1_555
C19F C20A 1_555 1_555
C22F O1F 1_555 1_555
H15F C22F 1_555 1_555
H16F C22F 1_555 1_555
H17F C22F 1_555 1_555
O1B C19B 1_555 1_555
N1B Pd1 1_555 1_555
N2B C4B 1_555 1_555
N3B C10B 1_555 1_555
C1B N1B 1_555 1_555
H1B C1B 1_555 1_555
C2B C1B 1_555 1_555
H2B C2B 1_555 1_555
C3B C2B 1_555 1_555
H3B C3B 1_555 1_555
C4B C3B 1_555 1_555
C5B N1B 1_555 1_555
H4B C5B 1_555 1_555
C6B H5B 1_555 1_555
C7B C6B 1_555 1_555
H6B C7B 1_555 1_555
C8B C7B 1_555 1_555
H7B C8B 1_555 1_555
C9B C8B 1_555 1_555
H8B C9B 1_555 1_555
C10B C9B 1_555 1_555
C11B N2B 1_555 1_555
C12B H9B 1_555 1_555
C13B C12B 1_555 1_555
H10B C13B 1_555 1_555
C14B C13B 1_555 1_555
H11B C14B 1_555 1_555
C15B C14B 1_555 1_555
H12B C15B 1_555 1_555
C16B N3B 1_555 1_555
C17B N2B 1_555 1_555
C18B N3B 1_555 1_555
C19B C18B 1_555 1_555
C20B C19B 1_555 1_555
H13B C20B 1_555 1_555
C21B C18B 1_555 1_555
H14B C21B 1_555 1_555
C22B O1B 1_555 1_555
H15B C22B 1_555 1_555
H16B C22B 1_555 1_555
H17B C22B 1_555 1_555
O1G C19G 1_555 1_555
N1G C1G 1_555 1_555
N2G C4G 1_555 1_555
N3G C10G 1_555 1_555
C1G H1G 1_555 1_555
C2G C1G 1_555 1_555
H2G C2G 1_555 1_555
C3G C2G 1_555 1_555
H3G C3G 1_555 1_555
C4G C3G 1_555 1_555
C5G N1G 1_555 1_555
H4G C5G 1_555 1_555
C6G H5G 1_555 1_555
C7G C6G 1_555 1_555
H6G C7G 1_555 1_555
C8G C7G 1_555 1_555
H7G C8G 1_555 1_555
C9G C8G 1_555 1_555
H8G C9G 1_555 1_555
C10G C9G 1_555 1_555
C11G N2G 1_555 1_555
C12G H9G 1_555 1_555
C13G C12G 1_555 1_555
H10G C13G 1_555 1_555
C14G C13G 1_555 1_555
H11G C14G 1_555 1_555
C15G C14G 1_555 1_555
H12G C15G 1_555 1_555
C16G N3G 1_555 1_555
C17G N2G 1_555 1_555
C18G C21B 1_555 1_555
C19G C20B 1_555 1_555
C22G O1G 1_555 1_555
H15G C22G 1_555 1_555
H16G C22G 1_555 1_555
H17G C22G 1_555 1_555
O1C C19C 1_555 1_555
N1C Pd1 1_555 1_555
N2C C4C 1_555 1_555
N3C C10C 1_555 1_555
C1C N1C 1_555 1_555
H1C C1C 1_555 1_555
C2C C1C 1_555 1_555
H2C C2C 1_555 1_555
C3C C2C 1_555 1_555
H3C C3C 1_555 1_555
C4C C3C 1_555 1_555
C5C N1C 1_555 1_555
H4C C5C 1_555 1_555
C6C H5C 1_555 1_555
C7C C6C 1_555 1_555
H6C C7C 1_555 1_555
C8C C7C 1_555 1_555
H7C C8C 1_555 1_555
C9C C8C 1_555 1_555
H8C C9C 1_555 1_555
C10C C9C 1_555 1_555
C11C N2C 1_555 1_555
C12C H9C 1_555 1_555
C13C C12C 1_555 1_555
H10C C13C 1_555 1_555
C14C C13C 1_555 1_555
H11C C14C 1_555 1_555
C15C C14C 1_555 1_555
H12C C15C 1_555 1_555
C16C N3C 1_555 1_555
C17C N2C 1_555 1_555
C18C N3C 1_555 1_555
C19C C18C 1_555 1_555
C20C C19C 1_555 1_555
H13C C20C 1_555 1_555
C21C C18C 1_555 1_555
H14C C21C 1_555 1_555
C22C O1C 1_555 1_555
H15C C22C 1_555 1_555
H16C C22C 1_555 1_555
H17C C22C 1_555 1_555
O1D C19D 1_555 1_555
N1D C1D 1_555 1_555
N2D C4D 1_555 1_555
N3D C10D 1_555 1_555
C1D H1D 1_555 1_555
C2D C1D 1_555 1_555
H2D C2D 1_555 1_555
C3D C2D 1_555 1_555
H3D C3D 1_555 1_555
C4D C3D 1_555 1_555
C5D N1D 1_555 1_555
H4D C5D 1_555 1_555
C6D H5D 1_555 1_555
C7D C6D 1_555 1_555
H6D C7D 1_555 1_555
C8D C7D 1_555 1_555
H7D C8D 1_555 1_555
C9D C8D 1_555 1_555
H8D C9D 1_555 1_555
C10D C9D 1_555 1_555
C11D N2D 1_555 1_555
C12D H9D 1_555 1_555
C13D C12D 1_555 1_555
H10D C13D 1_555 1_555
C14D C13D 1_555 1_555
H11D C14D 1_555 1_555
C15D C14D 1_555 1_555
H12D C15D 1_555 1_555
C16D N3D 1_555 1_555
C17D N2D 1_555 1_555
C18D C21C 1_555 1_555
C19D C20C 1_555 1_555
C22D O1D 1_555 1_555
H15D C22D 1_555 1_555
H16D C22D 1_555 1_555
H17D C22D 1_555 1_555
Pd1D N1E 1_555 1_555
C4 C5 1_555 1_555
C6 C11 1_555 1_555
C10 C11 1_555 1_555
C12 C17 1_555 1_555
C15 C16 1_555 1_555
C16 C17 1_555 1_555
N3E C18E 1_555 1_555
C4E C5E 1_555 1_555
C6E C11E 1_555 1_555
C10E C11E 1_555 1_555
C12E C17E 1_555 1_555
C15E C16E 1_555 1_555
C16E C17E 1_555 1_555
C18E C19E 1_555 1_555
C4A C5A 1_555 1_555
C6A C11A 1_555 1_555
C10A C11A 1_555 1_555
C12A C17A 1_555 1_555
C15A C16A 1_555 1_555
C16A C17A 1_555 1_555
N1F Pd1D 1_555 1_555
N3F C18F 1_555 1_555
C4F C5F 1_555 1_555
C6F C11F 1_555 1_555
C10F C11F 1_555 1_555
C12F C17F 1_555 1_555
C15F C16F 1_555 1_555
C16F C17F 1_555 1_555
C18F C19F 1_555 1_555
C4B C5B 1_555 1_555
C6B C11B 1_555 1_555
C10B C11B 1_555 1_555
C12B C17B 1_555 1_555
C15B C16B 1_555 1_555
C16B C17B 1_555 1_555
N1G Pd1D 1_555 1_555
N3G C18G 1_555 1_555
C4G C5G 1_555 1_555
C6G C11G 1_555 1_555
C10G C11G 1_555 1_555
C12G C17G 1_555 1_555
C15G C16G 1_555 1_555
C16G C17G 1_555 1_555
C18G C19G 1_555 1_555
C4C C5C 1_555 1_555
C6C C11C 1_555 1_555
C10C C11C 1_555 1_555
C12C C17C 1_555 1_555
C15C C16C 1_555 1_555
C16C C17C 1_555 1_555
N1D Pd1D 1_555 1_555
N3D C18D 1_555 1_555
C4D C5D 1_555 1_555
C6D C11D 1_555 1_555
C10D C11D 1_555 1_555
C12D C17D 1_555 1_555
C15D C16D 1_555 1_555
C16D C17D 1_555 1_555
C18D C19D 1_555 1_555

#END
