
#######################################################################
#
#                 Cambridge Crystallographic Data Centre
#                                CCDC 
#
#######################################################################
#
# If this CIF has been generated from an entry in the Cambridge 
# Structural Database, then it will include bibliographic, chemical, 
# crystal, experimental, refinement or atomic coordinate data resulting 
# from the CCDC's data processing and validation procedures.
#
#######################################################################

data_EZARUT
_chemical_formula_moiety         'C28 H40 Ag2 N4 O2 Si4 2+,2(N1 O3 1-)'
_chemical_name_systematic        
'bis(\m~2~-1,3-bis(3-pyridyl)-1,1,3,3-tetramethyldisiloxane)-di-silver(i) dinitrate'
_symmetry_cell_setting           orthorhombic
_symmetry_space_group_name_H-M   'C m c a'
_symmetry_Int_Tables_number      64
_space_group_name_Hall           '-C 2bc 2'
loop_
_symmetry_equiv_pos_site_id
_symmetry_equiv_pos_as_xyz
1 x,y,z
2 x,-y,-z
3 1/2-x,y,1/2-z
4 1/2-x,-y,1/2+z
5 1/2+x,1/2+y,z
6 1/2+x,1/2-y,-z
7 -x,1/2+y,1/2-z
8 -x,1/2-y,1/2+z
9 -x,-y,-z
10 -x,y,z
11 1/2+x,-y,1/2+z
12 1/2+x,y,1/2-z
13 1/2-x,1/2-y,-z
14 1/2-x,1/2+y,z
15 x,1/2-y,1/2+z
16 x,1/2+y,1/2-z
_cell_length_a                   14.7538(3)
_cell_length_b                   16.3794(3)
_cell_length_c                   16.1639(3)
_cell_angle_alpha                90
_cell_angle_beta                 90
_cell_angle_gamma                90
_cell_volume                     3906.14
_cell_formula_units_Z            4
loop_
_atom_site_label
_atom_site_type_symbol
_atom_site_fract_x
_atom_site_fract_y
_atom_site_fract_z
Ag1 Ag 0.60948(4) 0.5000 0.5000
Si1 Si 0.60534(7) 0.84907(6) 0.58460(7)
O1 O 0.5000 0.8741(2) 0.5977(3)
N1 N 0.6199(2) 0.59677(19) 0.5881(2)
C1 C 0.6268(3) 0.5809(3) 0.6688(3)
H1 H 0.6293 0.5268 0.6860
C2 C 0.6304(4) 0.6407(3) 0.7270(3)
H2 H 0.6351 0.6274 0.7828
C3 C 0.6269(3) 0.7209(3) 0.7026(3)
H3 H 0.6297 0.7622 0.7421
C4 C 0.6192(2) 0.7406(2) 0.6203(2)
C5 C 0.6169(2) 0.6759(2) 0.5663(3)
H4 H 0.6129 0.6878 0.5102
C6 C 0.6336(4) 0.8575(4) 0.4729(3)
H5 H 0.5942 0.8227 0.4415
H6 H 0.6954 0.8412 0.4643
H7 H 0.6259 0.9131 0.4552
C7 C 0.6761(4) 0.9173(3) 0.6488(4)
H8 H 0.6642 0.9731 0.6341
H9 H 0.7390 0.9053 0.6395
H10 H 0.6619 0.9091 0.7061
Ag1H Ag 0.39052(4) 0.5000 0.5000
Si1I Si 0.39466(7) 0.84907(6) 0.58460(7)
Si1H Si 0.39466(7) 0.15093(6) 0.41540(7)
Si1A Si 0.60534(7) 0.15093(6) 0.41540(7)
O1A O 0.5000 0.1259(2) 0.4023(3)
N1I N 0.3801(2) 0.59677(19) 0.5881(2)
N1H N 0.3801(2) 0.40323(19) 0.4119(2)
N1A N 0.6199(2) 0.40323(19) 0.4119(2)
C1I C 0.3732(3) 0.5809(3) 0.6688(3)
C1H C 0.3732(3) 0.4191(3) 0.3312(3)
C1A C 0.6268(3) 0.4191(3) 0.3312(3)
H1H H 0.3707 0.4732 0.3140
H1A H 0.6293 0.4732 0.3140
H1I H 0.3707 0.5268 0.6860
C2I C 0.3696(4) 0.6407(3) 0.7270(3)
C2H C 0.3696(4) 0.3593(3) 0.2730(3)
C2A C 0.6304(4) 0.3593(3) 0.2730(3)
H2H H 0.3649 0.3726 0.2172
H2A H 0.6351 0.3726 0.2172
H2I H 0.3649 0.6274 0.7828
C3I C 0.3731(3) 0.7209(3) 0.7026(3)
C3H C 0.3731(3) 0.2791(3) 0.2974(3)
C3A C 0.6269(3) 0.2791(3) 0.2974(3)
H3H H 0.3703 0.2378 0.2579
H3A H 0.6297 0.2378 0.2579
H3I H 0.3703 0.7622 0.7421
C4I C 0.3808(2) 0.7406(2) 0.6203(2)
C4H C 0.3808(2) 0.2594(2) 0.3797(2)
C4A C 0.6192(2) 0.2594(2) 0.3797(2)
C5A C 0.6169(2) 0.3241(2) 0.4337(3)
C5H C 0.3831(2) 0.3241(2) 0.4337(3)
C5I C 0.3831(2) 0.6759(2) 0.5663(3)
H4A H 0.6129 0.3122 0.4898
H4H H 0.3871 0.3122 0.4898
H4I H 0.3871 0.6878 0.5102
C6A C 0.6336(4) 0.1425(4) 0.5271(3)
C6H C 0.3664(4) 0.1425(4) 0.5271(3)
C6I C 0.3664(4) 0.8575(4) 0.4729(3)
H5A H 0.5942 0.1773 0.5585
H5H H 0.4058 0.1773 0.5585
H5I H 0.4058 0.8227 0.4415
H6A H 0.6954 0.1588 0.5357
H6H H 0.3046 0.1588 0.5357
H6I H 0.3046 0.8412 0.4643
H7A H 0.6259 0.0869 0.5448
H7H H 0.3741 0.0869 0.5448
H7I H 0.3741 0.9131 0.4552
C7A C 0.6761(4) 0.0827(3) 0.3512(4)
C7H C 0.3239(4) 0.0827(3) 0.3512(4)
C7I C 0.3239(4) 0.9173(3) 0.6488(4)
H8A H 0.6642 0.0269 0.3659
H8H H 0.3358 0.0269 0.3659
H8I H 0.3358 0.9731 0.6341
H9A H 0.7390 0.0947 0.3605
H9H H 0.2610 0.0947 0.3605
H9I H 0.2610 0.9053 0.6395
H10A H 0.6619 0.0909 0.2939
H10H H 0.3381 0.0909 0.2939
H10I H 0.3381 0.9091 0.7061
O2 O 0.5708(7) 0.3882(5) 0.6292(4)
O3 O 0.5000 0.2887(4) 0.6338(5)
N2 N 0.5000 0.3606(4) 0.6344(4)
O2I O 0.4292(7) 0.3882(5) 0.6292(4)
loop_
_geom_bond_atom_site_label_1
_geom_bond_atom_site_label_2
_geom_bond_site_symmetry_1
_geom_bond_site_symmetry_2
Ag1 N1 1_555 1_555
Si1 O1 1_555 1_555
O1 Si1I 1_555 1_555
N1 C1 1_555 1_555
C1 H1 1_555 1_555
C2 C1 1_555 1_555
H2 C2 1_555 1_555
C3 C2 1_555 1_555
H3 C3 1_555 1_555
C4 Si1 1_555 1_555
C5 N1 1_555 1_555
H4 C5 1_555 1_555
C6 Si1 1_555 1_555
H5 C6 1_555 1_555
H6 C6 1_555 1_555
H7 C6 1_555 1_555
C7 Si1 1_555 1_555
H8 C7 1_555 1_555
H9 C7 1_555 1_555
H10 C7 1_555 1_555
O2 N2 1_555 1_555
O3 N2 1_555 1_555
N2 O2I 1_555 1_555
Ag1H N1I 1_555 1_555
Si1I C4I 1_555 1_555
Si1H O1A 1_555 1_555
Si1A O1A 1_555 1_555
N1I C1I 1_555 1_555
N1H Ag1H 1_555 1_555
N1A Ag1 1_555 1_555
C1I H1I 1_555 1_555
C1H N1H 1_555 1_555
C1A N1A 1_555 1_555
H1H C1H 1_555 1_555
H1A C1A 1_555 1_555
C2I C1I 1_555 1_555
C2H C1H 1_555 1_555
C2A C1A 1_555 1_555
H2H C2H 1_555 1_555
H2A C2A 1_555 1_555
H2I C2I 1_555 1_555
C3I C2I 1_555 1_555
C3H C2H 1_555 1_555
C3A C2A 1_555 1_555
H3H C3H 1_555 1_555
H3A C3A 1_555 1_555
H3I C3I 1_555 1_555
C4I C3I 1_555 1_555
C4H Si1H 1_555 1_555
C4A Si1A 1_555 1_555
C5A N1A 1_555 1_555
C5H N1H 1_555 1_555
C5I N1I 1_555 1_555
H4A C5A 1_555 1_555
H4H C5H 1_555 1_555
H4I C5I 1_555 1_555
C6A Si1A 1_555 1_555
C6H Si1H 1_555 1_555
C6I Si1I 1_555 1_555
H5A C6A 1_555 1_555
H5H C6H 1_555 1_555
H5I C6I 1_555 1_555
H6A C6A 1_555 1_555
H6H C6H 1_555 1_555
H6I C6I 1_555 1_555
H7A C6A 1_555 1_555
H7H C6H 1_555 1_555
H7I C6I 1_555 1_555
C7A Si1A 1_555 1_555
C7H Si1H 1_555 1_555
C7I Si1I 1_555 1_555
H8A C7A 1_555 1_555
H8H C7H 1_555 1_555
H8I C7I 1_555 1_555
H9A C7A 1_555 1_555
H9H C7H 1_555 1_555
H9I C7I 1_555 1_555
H10A C7A 1_555 1_555
H10H C7H 1_555 1_555
H10I C7I 1_555 1_555
C3 C4 1_555 1_555
C4 C5 1_555 1_555
C3H C4H 1_555 1_555
C3A C4A 1_555 1_555
C4I C5I 1_555 1_555
C4H C5H 1_555 1_555
C4A C5A 1_555 1_555

#END
