
#######################################################################
#
#                 Cambridge Crystallographic Data Centre
#                                CCDC 
#
#######################################################################
#
# If this CIF has been generated from an entry in the Cambridge 
# Structural Database, then it will include bibliographic, chemical, 
# crystal, experimental, refinement or atomic coordinate data resulting 
# from the CCDC's data processing and validation procedures.
#
#######################################################################

data_EZEVAI
_chemical_formula_moiety         
'C80 H48 N8 Pd2 4+,C22 H12 O2,4(C1 F3 O3 S1 1-),6(C2 H3 N1)'
_chemical_name_systematic        
'tetrakis(\m-3-((3-(pyridin-3-ylethynyl)phenyl)ethynyl)pyridine)-di-palladium(ii) tetrakis(trifluoromethanesulfonate) pentacene-6,13-dione acetonitrile solvate'
_symmetry_cell_setting           monoclinic
_symmetry_space_group_name_H-M   'P 21/c'
_symmetry_Int_Tables_number      14
_space_group_name_Hall           '-P 2ybc'
loop_
_symmetry_equiv_pos_site_id
_symmetry_equiv_pos_as_xyz
1 x,y,z
2 -x,1/2+y,1/2-z
3 -x,-y,-z
4 x,1/2-y,1/2+z
_cell_length_a                   12.7015(3)
_cell_length_b                   35.0976(5)
_cell_length_c                   13.9274(3)
_cell_angle_alpha                90
_cell_angle_beta                 115.941(2)
_cell_angle_gamma                90
_cell_volume                     5583.17
_exptl_crystal_colour            yellow
_exptl_crystal_description       prism
_cell_formula_units_Z            2
_exptl_crystal_recrystallization_method 'acetonitrile/diethyl ether'
loop_
_atom_site_label
_atom_site_type_symbol
_atom_site_fract_x
_atom_site_fract_y
_atom_site_fract_z
Pd1 Pd 0.27546(2) 0.34217(2) 0.92444(2)
N1 N 0.8783(2) 0.63520(7) 1.09442(18)
N2 N 0.4326(2) 0.32139(7) 0.94656(19)
N3 N 0.6818(2) 0.66565(7) 0.91946(19)
N4 N 0.2325(2) 0.35120(7) 0.76829(19)
C1 C 0.9722(3) 0.65746(9) 1.1142(2)
H1 H 0.9642 0.6844 1.1142
C2 C 1.0799(3) 0.64185(9) 1.1345(3)
H2 H 1.1451 0.6579 1.1477
C3 C 1.0921(3) 0.60262(9) 1.1354(2)
H3 H 1.1661 0.5916 1.1511
C4 C 0.9949(3) 0.57933(8) 1.1131(2)
C5 C 0.8886(2) 0.59730(8) 1.0923(2)
H4 H 0.8212 0.5820 1.0761
C6 C 1.0016(3) 0.53880(9) 1.1158(2)
C7 C 1.0067(3) 0.50459(9) 1.1199(2)
C8 C 1.0138(3) 0.46381(8) 1.1286(2)
C9 C 1.1233(3) 0.44582(9) 1.1737(3)
H5 H 1.1930 0.4604 1.1947
C10 C 1.1292(3) 0.40640(9) 1.1874(3)
H6 H 1.2034 0.3943 1.2198
C11 C 1.0284(3) 0.38474(9) 1.1543(3)
H7 H 1.0336 0.3580 1.1652
C12 C 0.9188(3) 0.40242(8) 1.1050(2)
C13 C 0.9116(3) 0.44204(8) 1.0932(2)
H8 H 0.8373 0.4541 1.0611
C14 C 0.4485(3) 0.28374(9) 0.9387(3)
H9 H 0.3843 0.2668 0.9207
C15 C 0.5570(3) 0.26943(10) 0.9565(3)
H10 H 0.5668 0.2429 0.9500
C16 C 0.6511(3) 0.29391(10) 0.9837(3)
H11 H 0.7258 0.2844 0.9952
C17 C 0.6349(3) 0.33275(8) 0.9941(2)
C18 C 0.5231(3) 0.34548(9) 0.9740(2)
H12 H 0.5107 0.3719 0.9799
C19 C 0.7315(3) 0.35887(9) 1.0293(3)
C20 C 0.8147(3) 0.37943(9) 1.0639(3)
C21 C 0.7148(3) 0.69698(9) 0.8840(2)
H13 H 0.7578 0.7163 0.9332
C22 C 0.6868(3) 0.70140(10) 0.7763(3)
H14 H 0.7106 0.7237 0.7523
C23 C 0.6244(3) 0.67332(10) 0.7045(3)
H15 H 0.6049 0.6760 0.6307
C24 C 0.5905(3) 0.64094(9) 0.7416(2)
C25 C 0.6216(3) 0.63806(9) 0.8505(2)
H16 H 0.5995 0.6160 0.8767
C26 C 0.5262(3) 0.61016(10) 0.6735(2)
C27 C 0.4741(3) 0.58350(10) 0.6203(3)
C28 C 0.4064(3) 0.55298(10) 0.5533(2)
C29 C 0.3857(3) 0.51980(9) 0.5967(2)
H17 H 0.4192 0.5168 0.6720
C30 C 0.3168(3) 0.49105(10) 0.5312(2)
C31 C 0.2664(4) 0.49575(11) 0.4197(3)
H18 H 0.2185 0.4762 0.3743
C32 C 0.2868(4) 0.52891(13) 0.3760(3)
H19 H 0.2524 0.5321 0.3007
C33 C 0.3571(4) 0.55743(11) 0.4418(3)
H20 H 0.3719 0.5799 0.4117
C34 C 0.1722(3) 0.32489(9) 0.6945(2)
H21 H 0.1490 0.3021 0.7166
C35 C 0.1429(3) 0.33006(9) 0.5870(3)
H22 H 0.1004 0.3110 0.5363
C36 C 0.1762(3) 0.36316(9) 0.5545(2)
H23 H 0.1585 0.3669 0.4814
C37 C 0.2363(3) 0.39127(9) 0.6301(2)
C38 C 0.2638(3) 0.38390(8) 0.7372(2)
H24 H 0.3057 0.4025 0.7896
C39 C 0.2689(3) 0.42669(10) 0.6006(2)
C40 C 0.2934(3) 0.45630(10) 0.5722(2)
Pd1B Pd 0.72454(2) 0.65783(2) 1.07556(2)
N1B N 0.1217(2) 0.36480(7) 0.90558(18)
N2B N 0.5674(2) 0.67861(7) 1.05344(19)
N3B N 0.3182(2) 0.33435(7) 1.08054(19)
N4B N 0.7675(2) 0.64880(7) 1.23171(19)
C1B C 0.0278(3) 0.34254(9) 0.8858(2)
H1B H 0.0358 0.3156 0.8858
C2B C -0.0799(3) 0.35815(9) 0.8655(3)
H2B H -0.1451 0.3421 0.8523
C3B C -0.0921(3) 0.39738(9) 0.8646(2)
H3B H -0.1661 0.4084 0.8489
C4B C 0.0051(3) 0.42067(8) 0.8869(2)
C5B C 0.1114(2) 0.40270(8) 0.9077(2)
H4B H 0.1788 0.4180 0.9239
C6B C -0.0016(3) 0.46120(9) 0.8842(2)
C7B C -0.0067(3) 0.49541(9) 0.8801(2)
C8B C -0.0138(3) 0.53619(8) 0.8714(2)
C9B C -0.1233(3) 0.55418(9) 0.8263(3)
H5B H -0.1930 0.5396 0.8053
C10B C -0.1292(3) 0.59360(9) 0.8126(3)
H6B H -0.2034 0.6057 0.7802
C11B C -0.0284(3) 0.61526(9) 0.8457(3)
H7B H -0.0336 0.6420 0.8348
C12B C 0.0812(3) 0.59758(8) 0.8950(2)
C13B C 0.0884(3) 0.55796(8) 0.9068(2)
H8B H 0.1627 0.5459 0.9389
C14B C 0.5515(3) 0.71626(9) 1.0613(3)
H9B H 0.6157 0.7332 1.0793
C15B C 0.4430(3) 0.73057(10) 1.0435(3)
H10B H 0.4332 0.7571 1.0500
C16B C 0.3489(3) 0.70609(10) 1.0163(3)
H11B H 0.2742 0.7156 1.0048
C17B C 0.3651(3) 0.66725(8) 1.0059(2)
C18B C 0.4769(3) 0.65452(9) 1.0260(2)
H12B H 0.4893 0.6281 1.0201
C19B C 0.2685(3) 0.64113(9) 0.9707(3)
C20B C 0.1853(3) 0.62057(9) 0.9361(3)
C21B C 0.2852(3) 0.30302(9) 1.1160(2)
H13B H 0.2422 0.2837 1.0668
C22B C 0.3132(3) 0.29860(10) 1.2237(3)
H14B H 0.2894 0.2763 1.2477
C23B C 0.3756(3) 0.32668(10) 1.2955(3)
H15B H 0.3951 0.3240 1.3693
C24B C 0.4095(3) 0.35906(9) 1.2584(2)
C25B C 0.3784(3) 0.36194(9) 1.1495(2)
H16B H 0.4005 0.3840 1.1233
C26B C 0.4738(3) 0.38984(10) 1.3265(2)
C27B C 0.5259(3) 0.41650(10) 1.3797(3)
C28B C 0.5936(3) 0.44702(10) 1.4467(2)
C29B C 0.6143(3) 0.48020(9) 1.4033(2)
H17B H 0.5808 0.4832 1.3280
C30B C 0.6832(3) 0.50895(10) 1.4688(2)
C31B C 0.7336(4) 0.50425(11) 1.5803(3)
H18B H 0.7815 0.5238 1.6257
C32B C 0.7132(4) 0.47109(13) 1.6240(3)
H19B H 0.7476 0.4679 1.6993
C33B C 0.6429(4) 0.44257(11) 1.5582(3)
H20B H 0.6281 0.4201 1.5883
C34B C 0.8278(3) 0.67511(9) 1.3055(2)
H21B H 0.8510 0.6979 1.2834
C35B C 0.8571(3) 0.66994(9) 1.4130(3)
H22B H 0.8996 0.6890 1.4637
C36B C 0.8238(3) 0.63684(9) 1.4455(2)
H23B H 0.8415 0.6331 1.5186
C37B C 0.7637(3) 0.60873(9) 1.3699(2)
C38B C 0.7362(3) 0.61610(8) 1.2628(2)
H24B H 0.6943 0.5975 1.2104
C39B C 0.7311(3) 0.57331(10) 1.3994(2)
C40B C 0.7066(3) 0.54370(10) 1.4278(2)
C41 C 0.9759(4) 0.26375(12) 0.2136(3)
S1 S 1.09588(7) 0.26922(2) 0.34688(6)
O1 O 1.0443(2) 0.25814(8) 0.4163(2)
O2 O 1.1818(2) 0.24248(8) 0.3459(2)
O3 O 1.1277(3) 0.30861(7) 0.3507(2)
F1 F 0.8874(3) 0.28665(10) 0.2006(2)
F2 F 0.9359(2) 0.22801(8) 0.1957(2)
F3 F 1.0094(3) 0.27226(10) 0.1388(2)
C42 C 0.4711(4) 0.3175(2) 0.6345(4)
S2 S 0.62223(15) 0.32300(5) 0.65933(17)
O4 O 0.6472(4) 0.36242(10) 0.6908(3)
O5 O 0.6838(4) 0.29721(14) 0.7460(4)
O6 O 0.6203(6) 0.3143(2) 0.5575(5)
F4 F 0.4528(4) 0.32691(15) 0.7186(3)
F5 F 0.4330(5) 0.2822(2) 0.6071(6)
F6 F 0.4035(3) 0.3406(2) 0.5548(3)
O10 O 0.5978(2) 0.57035(6) 1.02704(18)
C44 C 0.4367(2) 0.53037(8) 0.9259(2)
C45 C 0.3759(3) 0.55936(8) 0.8568(2)
H25 H 0.4107 0.5839 0.8659
C46 C 0.2631(3) 0.55345(9) 0.7728(2)
C47 C 0.1983(3) 0.58330(10) 0.7045(3)
H26 H 0.2311 0.6081 0.7137
C48 C 0.0887(3) 0.57659(11) 0.6252(3)
H27 H 0.0454 0.5969 0.5803
C49 C 0.0392(3) 0.53974(12) 0.6093(3)
H28 H -0.0366 0.5355 0.5530
C50 C 0.0987(3) 0.51002(10) 0.6738(3)
H29 H 0.0647 0.4853 0.6624
C51 C 0.2121(3) 0.51643(9) 0.7581(2)
C52 C 0.2758(3) 0.48709(8) 0.8297(2)
H30 H 0.2423 0.4624 0.8207
C53 C 0.3853(2) 0.49336(8) 0.9124(2)
C54 C 0.5536(3) 0.53842(8) 1.0141(2)
O10B O 0.4022(2) 0.42965(6) 0.97296(18)
C44B C 0.5633(2) 0.46963(8) 1.0741(2)
C45B C 0.6241(3) 0.44064(8) 1.1432(2)
H25B H 0.5893 0.4161 1.1341
C46B C 0.7369(3) 0.44655(9) 1.2272(2)
C47B C 0.8017(3) 0.41670(10) 1.2955(3)
H26B H 0.7689 0.3919 1.2863
C48B C 0.9113(3) 0.42341(11) 1.3748(3)
H27B H 0.9546 0.4031 1.4197
C49B C 0.9608(3) 0.46026(12) 1.3907(3)
H28B H 1.0366 0.4645 1.4470
C50B C 0.9013(3) 0.48998(10) 1.3262(3)
H29B H 0.9353 0.5147 1.3376
C51B C 0.7879(3) 0.48357(9) 1.2419(2)
C52B C 0.7242(3) 0.51291(8) 1.1703(2)
H30B H 0.7577 0.5376 1.1793
C53B C 0.6147(2) 0.50664(8) 1.0876(2)
C54B C 0.4464(3) 0.46158(8) 0.9859(2)
N5 N 0.6609(4) 0.49624(15) 0.8665(4)
C55 C 0.6218(4) 0.46663(16) 0.8407(3)
C56 C 0.5721(4) 0.42927(15) 0.8085(4)
H31 H 0.4891 0.4316 0.7584
H32 H 0.5794 0.4149 0.8715
H33 H 0.6137 0.4158 0.7738
N6 N 0.3604(4) 0.66854(13) 0.7691(3)
C57 C 0.3076(4) 0.69085(13) 0.7091(4)
C58 C 0.2378(5) 0.71863(14) 0.6277(4)
H34 H 0.2529 0.7157 0.5648
H35 H 0.2594 0.7445 0.6564
H36 H 0.1545 0.7143 0.6073
N7 N 0.9984(3) 0.41426(11) 0.6547(3)
C59 C 0.9247(4) 0.39326(12) 0.6124(3)
C60 C 0.8319(5) 0.36628(16) 0.5579(4)
H37 H 0.7784 0.3766 0.4880
H38 H 0.7889 0.3616 0.6004
H39 H 0.8654 0.3423 0.5480
C43? C 0.4657(12) 0.2979(4) 0.6455(11)
S3? S 0.5880(11) 0.3266(3) 0.6537(9)
O7? O 0.547(2) 0.3644(4) 0.639(2)
O8? O 0.6727(17) 0.3181(8) 0.7641(13)
O9? O 0.619(2) 0.3103(8) 0.5748(19)
F7? F 0.4292(15) 0.3096(5) 0.7160(11)
F8? F 0.4948(11) 0.2616(3) 0.6647(11)
F9? F 0.3806(11) 0.3002(5) 0.5487(9)
loop_
_geom_bond_atom_site_label_1
_geom_bond_atom_site_label_2
_geom_bond_site_symmetry_1
_geom_bond_site_symmetry_2
Pd1 N2 1_555 1_555
N1 C1 1_555 1_555
N2 C14 1_555 1_555
N3 C21 1_555 1_555
N4 Pd1 1_555 1_555
C1 H1 1_555 1_555
C2 C1 1_555 1_555
H2 C2 1_555 1_555
C3 C2 1_555 1_555
H3 C3 1_555 1_555
C4 C3 1_555 1_555
C5 N1 1_555 1_555
H4 C5 1_555 1_555
C6 C4 1_555 1_555
C7 C6 1_555 1_555
C8 C7 1_555 1_555
C9 C8 1_555 1_555
H5 C9 1_555 1_555
C10 C9 1_555 1_555
H6 C10 1_555 1_555
C11 C10 1_555 1_555
H7 C11 1_555 1_555
C12 C11 1_555 1_555
C13 C8 1_555 1_555
H8 C13 1_555 1_555
C14 H9 1_555 1_555
C15 C14 1_555 1_555
H10 C15 1_555 1_555
C16 C15 1_555 1_555
H11 C16 1_555 1_555
C17 C16 1_555 1_555
C18 N2 1_555 1_555
H12 C18 1_555 1_555
C19 C17 1_555 1_555
C20 C12 1_555 1_555
C21 H13 1_555 1_555
C22 C21 1_555 1_555
H14 C22 1_555 1_555
C23 C22 1_555 1_555
H15 C23 1_555 1_555
C24 C23 1_555 1_555
C25 N3 1_555 1_555
H16 C25 1_555 1_555
C26 C24 1_555 1_555
C27 C26 1_555 1_555
C28 C27 1_555 1_555
C29 C28 1_555 1_555
H17 C29 1_555 1_555
C30 C29 1_555 1_555
C31 C30 1_555 1_555
H18 C31 1_555 1_555
C32 C31 1_555 1_555
H19 C32 1_555 1_555
C33 C28 1_555 1_555
H20 C33 1_555 1_555
C34 N4 1_555 1_555
H21 C34 1_555 1_555
C35 C34 1_555 1_555
H22 C35 1_555 1_555
C36 C35 1_555 1_555
H23 C36 1_555 1_555
C37 C36 1_555 1_555
C38 N4 1_555 1_555
H24 C38 1_555 1_555
C39 C37 1_555 1_555
C40 C30 1_555 1_555
C41 S1 1_555 1_555
S1 O1 1_555 1_555
O2 S1 1_555 1_555
O3 S1 1_555 1_555
F1 C41 1_555 1_555
F2 C41 1_555 1_555
F3 C41 1_555 1_555
C42 S2 1_555 1_555
S2 O4 1_555 1_555
O5 S2 1_555 1_555
O6 S2 1_555 1_555
F4 C42 1_555 1_555
F5 C42 1_555 1_555
F6 C42 1_555 1_555
O10 C54 1_555 1_555
C44 C45 1_555 1_555
C45 H25 1_555 1_555
C46 C45 1_555 1_555
C47 C46 1_555 1_555
H26 C47 1_555 1_555
C48 C47 1_555 1_555
H27 C48 1_555 1_555
C49 C48 1_555 1_555
H28 C49 1_555 1_555
C50 C49 1_555 1_555
H29 C50 1_555 1_555
C51 C46 1_555 1_555
C52 C51 1_555 1_555
H30 C52 1_555 1_555
C53 C44 1_555 1_555
C54 C44 1_555 1_555
N5 C55 1_555 1_555
C55 C56 1_555 1_555
C56 H31 1_555 1_555
H32 C56 1_555 1_555
H33 C56 1_555 1_555
N6 C57 1_555 1_555
C57 C58 1_555 1_555
C58 H34 1_555 1_555
H35 C58 1_555 1_555
H36 C58 1_555 1_555
N7 C59 1_555 1_555
C59 C60 1_555 1_555
C60 H37 1_555 1_555
H38 C60 1_555 1_555
H39 C60 1_555 1_555
Pd1B N1 1_555 1_555
N1B Pd1 1_555 1_555
N2B Pd1B 1_555 1_555
N3B Pd1 1_555 1_555
N4B Pd1B 1_555 1_555
C1B N1B 1_555 1_555
H1B C1B 1_555 1_555
C2B C1B 1_555 1_555
H2B C2B 1_555 1_555
C3B C2B 1_555 1_555
H3B C3B 1_555 1_555
C4B C3B 1_555 1_555
C5B N1B 1_555 1_555
H4B C5B 1_555 1_555
C6B C4B 1_555 1_555
C7B C6B 1_555 1_555
C8B C7B 1_555 1_555
C9B C8B 1_555 1_555
H5B C9B 1_555 1_555
C10B C9B 1_555 1_555
H6B C10B 1_555 1_555
C11B C10B 1_555 1_555
H7B C11B 1_555 1_555
C12B C11B 1_555 1_555
C13B C8B 1_555 1_555
H8B C13B 1_555 1_555
C14B N2B 1_555 1_555
H9B C14B 1_555 1_555
C15B C14B 1_555 1_555
H10B C15B 1_555 1_555
C16B C15B 1_555 1_555
H11B C16B 1_555 1_555
C17B C16B 1_555 1_555
C18B N2B 1_555 1_555
H12B C18B 1_555 1_555
C19B C17B 1_555 1_555
C20B C12B 1_555 1_555
C21B N3B 1_555 1_555
H13B C21B 1_555 1_555
C22B C21B 1_555 1_555
H14B C22B 1_555 1_555
C23B C22B 1_555 1_555
H15B C23B 1_555 1_555
C24B C23B 1_555 1_555
C25B N3B 1_555 1_555
H16B C25B 1_555 1_555
C26B C24B 1_555 1_555
C27B C26B 1_555 1_555
C28B C27B 1_555 1_555
C29B C28B 1_555 1_555
H17B C29B 1_555 1_555
C30B C29B 1_555 1_555
C31B C30B 1_555 1_555
H18B C31B 1_555 1_555
C32B C31B 1_555 1_555
H19B C32B 1_555 1_555
C33B C28B 1_555 1_555
H20B C33B 1_555 1_555
C34B N4B 1_555 1_555
H21B C34B 1_555 1_555
C35B C34B 1_555 1_555
H22B C35B 1_555 1_555
C36B C35B 1_555 1_555
H23B C36B 1_555 1_555
C37B C36B 1_555 1_555
C38B N4B 1_555 1_555
H24B C38B 1_555 1_555
C39B C37B 1_555 1_555
C40B C30B 1_555 1_555
O10B C54B 1_555 1_555
C44B C45B 1_555 1_555
C45B H25B 1_555 1_555
C46B C45B 1_555 1_555
C47B C46B 1_555 1_555
H26B C47B 1_555 1_555
C48B C47B 1_555 1_555
H27B C48B 1_555 1_555
C49B C48B 1_555 1_555
H28B C49B 1_555 1_555
C50B C49B 1_555 1_555
H29B C50B 1_555 1_555
C51B C46B 1_555 1_555
C52B C51B 1_555 1_555
H30B C52B 1_555 1_555
C53B C54 1_555 1_555
C54B C53 1_555 1_555
N3 Pd1B 1_555 1_555
C4 C5 1_555 1_555
C12 C13 1_555 1_555
C17 C18 1_555 1_555
C19 C20 1_555 1_555
C24 C25 1_555 1_555
C32 C33 1_555 1_555
C37 C38 1_555 1_555
C39 C40 1_555 1_555
C50 C51 1_555 1_555
C52 C53 1_555 1_555
C4B C5B 1_555 1_555
C12B C13B 1_555 1_555
C17B C18B 1_555 1_555
C19B C20B 1_555 1_555
C24B C25B 1_555 1_555
C32B C33B 1_555 1_555
C37B C38B 1_555 1_555
C39B C40B 1_555 1_555
C44B C53B 1_555 1_555
C44B C54B 1_555 1_555
C50B C51B 1_555 1_555
C52B C53B 1_555 1_555

#END
