# generated using pymatgen
data_D6Fe4Co5B4H128C130Br6N44O9
_symmetry_space_group_name_H-M   'P 1'
_cell_length_a   21.43200000
_cell_length_b   24.16900000
_cell_length_c   35.47200000
_cell_angle_alpha   90.00000000
_cell_angle_beta   90.00000000
_cell_angle_gamma   90.00000000
_symmetry_Int_Tables_number   1
_chemical_formula_structural   D6Fe4Co5B4H128C130Br6N44O9
_chemical_formula_sum   'D24 Fe16 Co20 B16 H512 C520 Br24 N176 O36'
_cell_volume   18374.14156378
_cell_formula_units_Z   4
loop_
 _symmetry_equiv_pos_site_id
 _symmetry_equiv_pos_as_xyz
  1  'x, y, z'
loop_
 _atom_site_type_symbol
 _atom_site_label
 _atom_site_symmetry_multiplicity
 _atom_site_fract_x
 _atom_site_fract_y
 _atom_site_fract_z
 _atom_site_occupancy
  D0+  D1  1  0.566900  0.495390  0.491480  1
  D0+  D2  1  0.933100  0.504610  0.991480  1
  D0+  D3  1  0.066900  0.004610  0.508520  1
  D0+  D4  1  0.433100  0.995390  0.008520  1
  D0+  D5  1  0.504000  0.487690  0.483810  1
  D0+  D6  1  0.996000  0.512310  0.983810  1
  D0+  D7  1  0.004000  0.012310  0.516190  1
  D0+  D8  1  0.496000  0.987690  0.016190  1
  D0+  D9  1  0.390000  0.486900  0.510100  1
  D0+  D10  1  0.110000  0.513100  0.010100  1
  D0+  D11  1  0.890000  0.013100  0.489900  1
  D0+  D12  1  0.610000  0.986900  0.989900  1
  D0+  D13  1  0.397800  0.522000  0.481500  1
  D0+  D14  1  0.102200  0.478000  0.981500  1
  D0+  D15  1  0.897800  0.978000  0.518500  1
  D0+  D16  1  0.602200  0.022000  0.018500  1
  D0+  D17  1  0.437600  0.563200  0.486100  1
  D0+  D18  1  0.062400  0.436800  0.986100  1
  D0+  D19  1  0.937600  0.936800  0.513900  1
  D0+  D20  1  0.562400  0.063200  0.013900  1
  D0+  D21  1  0.454400  0.559600  0.522300  1
  D0+  D22  1  0.045600  0.440400  0.022300  1
  D0+  D23  1  0.954400  0.940400  0.477700  1
  D0+  D24  1  0.545600  0.059600  0.977700  1
  Fe  Fe25  1  0.412160  0.592880  0.396560  1
  Fe  Fe26  1  0.087840  0.407120  0.896560  1
  Fe  Fe27  1  0.912160  0.907120  0.603440  1
  Fe  Fe28  1  0.587840  0.092880  0.103440  1
  Fe  Fe29  1  0.726690  0.472740  0.535260  1
  Fe  Fe30  1  0.773310  0.527260  0.035260  1
  Fe  Fe31  1  0.226690  0.027260  0.464740  1
  Fe  Fe32  1  0.273310  0.972740  0.964740  1
  Fe  Fe33  1  0.448200  0.333750  0.546410  1
  Fe  Fe34  1  0.051800  0.666250  0.046410  1
  Fe  Fe35  1  0.948200  0.166250  0.453590  1
  Fe  Fe36  1  0.551800  0.833750  0.953590  1
  Fe  Fe37  1  0.520050  0.695540  0.575580  1
  Fe  Fe38  1  0.979950  0.304460  0.075580  1
  Fe  Fe39  1  0.020050  0.804460  0.424420  1
  Fe  Fe40  1  0.479950  0.195540  0.924420  1
  Co  Co41  1  0.319220  0.664470  0.512860  1
  Co  Co42  1  0.180780  0.335530  0.012860  1
  Co  Co43  1  0.819220  0.835530  0.487140  1
  Co  Co44  1  0.680780  0.164470  0.987140  1
  Co  Co45  1  0.618840  0.339740  0.454310  1
  Co  Co46  1  0.881160  0.660260  0.954310  1
  Co  Co47  1  0.118840  0.160260  0.545690  1
  Co  Co48  1  0.381160  0.839740  0.045690  1
  Co  Co49  1  0.612940  0.620410  0.464010  1
  Co  Co50  1  0.887060  0.379590  0.964010  1
  Co  Co51  1  0.112940  0.879590  0.535990  1
  Co  Co52  1  0.387060  0.120410  0.035990  1
  Co  Co53  1  0.536190  0.495030  0.607390  1
  Co  Co54  1  0.963810  0.504970  0.107390  1
  Co  Co55  1  0.036190  0.004970  0.392610  1
  Co  Co56  1  0.463810  0.995030  0.892610  1
  Co  Co57  1  0.328950  0.413310  0.438510  1
  Co  Co58  1  0.171050  0.586690  0.938510  1
  Co  Co59  1  0.828950  0.086690  0.561490  1
  Co  Co60  1  0.671050  0.913310  0.061490  1
  B  B61  1  0.863000  0.472800  0.565600  1
  B  B62  1  0.637000  0.527200  0.065600  1
  B  B63  1  0.363000  0.027200  0.434400  1
  B  B64  1  0.137000  0.972800  0.934400  1
  B  B65  1  0.536200  0.786900  0.636800  1
  B  B66  1  0.963800  0.213100  0.136800  1
  B  B67  1  0.036200  0.713100  0.363200  1
  B  B68  1  0.463800  0.286900  0.863200  1
  B  B69  1  0.381200  0.646300  0.318800  1
  B  B70  1  0.118800  0.353700  0.818800  1
  B  B71  1  0.881200  0.853700  0.681200  1
  B  B72  1  0.618800  0.146300  0.181200  1
  B  B73  1  0.425800  0.227700  0.594000  1
  B  B74  1  0.074200  0.772300  0.094000  1
  B  B75  1  0.925800  0.272300  0.406000  1
  B  B76  1  0.574200  0.727700  0.906000  1
  H  H77  1  0.307300  0.681700  0.579300  1
  H  H78  1  0.192700  0.318300  0.079300  1
  H  H79  1  0.807300  0.818300  0.420700  1
  H  H80  1  0.692700  0.181700  0.920700  1
  H  H81  1  0.348200  0.570700  0.524200  1
  H  H82  1  0.151800  0.429300  0.024200  1
  H  H83  1  0.848200  0.929300  0.475800  1
  H  H84  1  0.651800  0.070700  0.975800  1
  H  H85  1  0.697500  0.372300  0.410700  1
  H  H86  1  0.802500  0.627700  0.910700  1
  H  H87  1  0.197500  0.127700  0.589300  1
  H  H88  1  0.302500  0.872300  0.089300  1
  H  H89  1  0.562900  0.423200  0.443100  1
  H  H90  1  0.937100  0.576800  0.943100  1
  H  H91  1  0.062900  0.076800  0.556900  1
  H  H92  1  0.437100  0.923200  0.056900  1
  H  H93  1  0.348200  0.728900  0.440500  1
  H  H94  1  0.151800  0.271100  0.940500  1
  H  H95  1  0.848200  0.771100  0.559500  1
  H  H96  1  0.651800  0.228900  0.059500  1
  H  H97  1  0.348400  0.822500  0.425800  1
  H  H98  1  0.151600  0.177500  0.925800  1
  H  H99  1  0.848400  0.677500  0.574200  1
  H  H100  1  0.651600  0.322500  0.074200  1
  H  H101  1  0.315200  0.888700  0.467900  1
  H  H102  1  0.184800  0.111300  0.967900  1
  H  H103  1  0.815200  0.611300  0.532100  1
  H  H104  1  0.684800  0.388700  0.032100  1
  H  H105  1  0.297600  0.861300  0.530800  1
  H  H106  1  0.202400  0.138700  0.030800  1
  H  H107  1  0.797600  0.638700  0.469200  1
  H  H108  1  0.702400  0.361300  0.969200  1
  H  H109  1  0.340700  0.762700  0.574100  1
  H  H110  1  0.159300  0.237300  0.074100  1
  H  H111  1  0.840700  0.737300  0.425900  1
  H  H112  1  0.659300  0.262700  0.925900  1
  H  H113  1  0.268000  0.778100  0.572800  1
  H  H114  1  0.232000  0.221900  0.072800  1
  H  H115  1  0.768000  0.721900  0.427200  1
  H  H116  1  0.732000  0.278100  0.927200  1
  H  H117  1  0.182500  0.752100  0.542900  1
  H  H118  1  0.317500  0.247900  0.042900  1
  H  H119  1  0.682500  0.747900  0.457100  1
  H  H120  1  0.817500  0.252100  0.957100  1
  H  H121  1  0.080400  0.719200  0.540900  1
  H  H122  1  0.419600  0.280800  0.040900  1
  H  H123  1  0.580400  0.780800  0.459100  1
  H  H124  1  0.919600  0.219200  0.959100  1
  H  H125  1  0.005000  0.644300  0.551600  1
  H  H126  1  0.495000  0.355700  0.051600  1
  H  H127  1  0.505000  0.855700  0.448400  1
  H  H128  1  0.995000  0.144300  0.948400  1
  H  H129  1  0.982500  0.556600  0.575800  1
  H  H130  1  0.517500  0.443400  0.075800  1
  H  H131  1  0.482500  0.943400  0.424200  1
  H  H132  1  0.017500  0.056600  0.924200  1
  H  H133  1  0.063700  0.499200  0.595800  1
  H  H134  1  0.436300  0.500800  0.095800  1
  H  H135  1  0.563700  0.000800  0.404200  1
  H  H136  1  0.936300  0.999200  0.904200  1
  H  H137  1  0.163700  0.532500  0.602000  1
  H  H138  1  0.336300  0.467500  0.102000  1
  H  H139  1  0.663700  0.967500  0.398000  1
  H  H140  1  0.836300  0.032500  0.898000  1
  H  H141  1  0.390500  0.532600  0.571300  1
  H  H142  1  0.109500  0.467400  0.071300  1
  H  H143  1  0.890500  0.967400  0.428700  1
  H  H144  1  0.609500  0.032600  0.928700  1
  H  H145  1  0.397300  0.515300  0.634500  1
  H  H146  1  0.102700  0.484700  0.134500  1
  H  H147  1  0.897300  0.984700  0.365500  1
  H  H148  1  0.602700  0.015300  0.865500  1
  H  H149  1  0.360500  0.534200  0.699200  1
  H  H150  1  0.139500  0.465800  0.199200  1
  H  H151  1  0.860500  0.965800  0.300800  1
  H  H152  1  0.639500  0.034200  0.800800  1
  H  H153  1  0.289300  0.575800  0.740000  1
  H  H154  1  0.210700  0.424200  0.240000  1
  H  H155  1  0.789300  0.924200  0.260000  1
  H  H156  1  0.710700  0.075800  0.760000  1
  H  H157  1  0.202900  0.621000  0.715300  1
  H  H158  1  0.297100  0.379000  0.215300  1
  H  H159  1  0.702900  0.879000  0.284700  1
  H  H160  1  0.797100  0.121000  0.784700  1
  H  H161  1  0.188600  0.631500  0.651600  1
  H  H162  1  0.311400  0.368500  0.151600  1
  H  H163  1  0.688600  0.868500  0.348400  1
  H  H164  1  0.811400  0.131500  0.848400  1
  H  H165  1  0.279600  0.533500  0.492100  1
  H  H166  1  0.220400  0.466500  0.992100  1
  H  H167  1  0.779600  0.966500  0.507900  1
  H  H168  1  0.720400  0.033500  0.007900  1
  H  H169  1  0.235900  0.536100  0.528700  1
  H  H170  1  0.264100  0.463900  0.028700  1
  H  H171  1  0.735900  0.963900  0.471300  1
  H  H172  1  0.764100  0.036100  0.971300  1
  H  H173  1  0.148600  0.543700  0.479600  1
  H  H174  1  0.351400  0.456300  0.979600  1
  H  H175  1  0.648600  0.956300  0.520400  1
  H  H176  1  0.851400  0.043700  0.020400  1
  H  H177  1  0.086600  0.609000  0.448200  1
  H  H178  1  0.413400  0.391000  0.948200  1
  H  H179  1  0.586600  0.891000  0.551800  1
  H  H180  1  0.913400  0.109000  0.051800  1
  H  H181  1  0.122900  0.699600  0.441500  1
  H  H182  1  0.377100  0.300400  0.941500  1
  H  H183  1  0.622900  0.800400  0.558500  1
  H  H184  1  0.877100  0.199600  0.058500  1
  H  H185  1  0.218300  0.723300  0.465500  1
  H  H186  1  0.281700  0.276700  0.965500  1
  H  H187  1  0.718300  0.776700  0.534500  1
  H  H188  1  0.781700  0.223300  0.034500  1
  H  H189  1  0.605500  0.258300  0.519100  1
  H  H190  1  0.894500  0.741700  0.019100  1
  H  H191  1  0.105500  0.241700  0.480900  1
  H  H192  1  0.394500  0.758300  0.980900  1
  H  H193  1  0.668700  0.196400  0.549000  1
  H  H194  1  0.831300  0.803600  0.049000  1
  H  H195  1  0.168700  0.303600  0.451000  1
  H  H196  1  0.331300  0.696400  0.951000  1
  H  H197  1  0.767600  0.176400  0.523900  1
  H  H198  1  0.732400  0.823600  0.023900  1
  H  H199  1  0.267600  0.323600  0.476100  1
  H  H200  1  0.232400  0.676400  0.976100  1
  H  H201  1  0.803800  0.229900  0.471900  1
  H  H202  1  0.696200  0.770100  0.971900  1
  H  H203  1  0.303800  0.270100  0.528100  1
  H  H204  1  0.196200  0.729900  0.028100  1
  H  H205  1  0.768800  0.343600  0.445600  1
  H  H206  1  0.731200  0.656400  0.945600  1
  H  H207  1  0.268800  0.156400  0.554400  1
  H  H208  1  0.231200  0.843600  0.054400  1
  H  H209  1  0.768500  0.292700  0.416700  1
  H  H210  1  0.731500  0.707300  0.916700  1
  H  H211  1  0.268500  0.207300  0.583300  1
  H  H212  1  0.231500  0.792700  0.083300  1
  H  H213  1  0.704000  0.232000  0.393500  1
  H  H214  1  0.796000  0.768000  0.893500  1
  H  H215  1  0.204000  0.268000  0.606500  1
  H  H216  1  0.296000  0.732000  0.106500  1
  H  H217  1  0.660800  0.188700  0.342600  1
  H  H218  1  0.839200  0.811300  0.842600  1
  H  H219  1  0.160800  0.311300  0.657400  1
  H  H220  1  0.339200  0.688700  0.157400  1
  H  H221  1  0.590000  0.189800  0.287800  1
  H  H222  1  0.910000  0.810200  0.787800  1
  H  H223  1  0.090000  0.310200  0.712200  1
  H  H224  1  0.410000  0.689800  0.212200  1
  H  H225  1  0.513600  0.232100  0.252000  1
  H  H226  1  0.986400  0.767900  0.752000  1
  H  H227  1  0.013600  0.267900  0.748000  1
  H  H228  1  0.486400  0.732100  0.248000  1
  H  H229  1  0.491500  0.326600  0.264000  1
  H  H230  1  0.008500  0.673400  0.764000  1
  H  H231  1  0.991500  0.173400  0.736000  1
  H  H232  1  0.508500  0.826600  0.236000  1
  H  H233  1  0.545800  0.376100  0.306800  1
  H  H234  1  0.954200  0.623900  0.806800  1
  H  H235  1  0.045800  0.123900  0.693200  1
  H  H236  1  0.454200  0.876100  0.193200  1
  H  H237  1  0.593900  0.500000  0.421700  1
  H  H238  1  0.906100  0.500000  0.921700  1
  H  H239  1  0.093900  0.000000  0.578300  1
  H  H240  1  0.406100  0.000000  0.078300  1
  H  H241  1  0.625000  0.557000  0.374100  1
  H  H242  1  0.875000  0.443000  0.874100  1
  H  H243  1  0.125000  0.943000  0.625900  1
  H  H244  1  0.375000  0.057000  0.125900  1
  H  H245  1  0.671700  0.566200  0.309600  1
  H  H246  1  0.828300  0.433800  0.809600  1
  H  H247  1  0.171700  0.933800  0.690400  1
  H  H248  1  0.328300  0.066200  0.190400  1
  H  H249  1  0.714700  0.528700  0.258400  1
  H  H250  1  0.785300  0.471300  0.758400  1
  H  H251  1  0.214700  0.971300  0.741600  1
  H  H252  1  0.285300  0.028700  0.241600  1
  H  H253  1  0.725400  0.435000  0.253000  1
  H  H254  1  0.774600  0.565000  0.753000  1
  H  H255  1  0.225400  0.065000  0.747000  1
  H  H256  1  0.274600  0.935000  0.247000  1
  H  H257  1  0.686400  0.374800  0.299200  1
  H  H258  1  0.813600  0.625200  0.799200  1
  H  H259  1  0.186400  0.125200  0.700800  1
  H  H260  1  0.313600  0.874800  0.200800  1
  H  H261  1  0.479800  0.382100  0.433900  1
  H  H262  1  0.020200  0.617900  0.933900  1
  H  H263  1  0.979800  0.117900  0.566100  1
  H  H264  1  0.520200  0.882100  0.066100  1
  H  H265  1  0.497300  0.389400  0.390300  1
  H  H266  1  0.002700  0.610600  0.890300  1
  H  H267  1  0.997300  0.110600  0.609700  1
  H  H268  1  0.502700  0.889400  0.109700  1
  H  H269  1  0.442200  0.299100  0.375600  1
  H  H270  1  0.057800  0.700900  0.875600  1
  H  H271  1  0.942200  0.200900  0.624400  1
  H  H272  1  0.557800  0.799100  0.124400  1
  H  H273  1  0.448100  0.205100  0.375100  1
  H  H274  1  0.051900  0.794900  0.875100  1
  H  H275  1  0.948100  0.294900  0.624900  1
  H  H276  1  0.551900  0.705100  0.124900  1
  H  H277  1  0.524900  0.160300  0.409700  1
  H  H278  1  0.975100  0.839700  0.909700  1
  H  H279  1  0.024900  0.339700  0.590300  1
  H  H280  1  0.475100  0.660300  0.090300  1
  H  H281  1  0.596500  0.215200  0.442600  1
  H  H282  1  0.903500  0.784800  0.942600  1
  H  H283  1  0.096500  0.284800  0.557400  1
  H  H284  1  0.403500  0.715200  0.057400  1
  H  H285  1  0.507400  0.507800  0.350100  1
  H  H286  1  0.992600  0.492200  0.850100  1
  H  H287  1  0.007400  0.992200  0.649900  1
  H  H288  1  0.492600  0.007800  0.149900  1
  H  H289  1  0.519100  0.514500  0.280100  1
  H  H290  1  0.980900  0.485500  0.780100  1
  H  H291  1  0.019100  0.985500  0.719900  1
  H  H292  1  0.480900  0.014500  0.219900  1
  H  H293  1  0.452900  0.594300  0.259600  1
  H  H294  1  0.047100  0.405700  0.759600  1
  H  H295  1  0.952900  0.905700  0.740400  1
  H  H296  1  0.547100  0.094300  0.240400  1
  H  H297  1  0.464700  0.716400  0.424400  1
  H  H298  1  0.035300  0.283600  0.924400  1
  H  H299  1  0.964700  0.783600  0.575600  1
  H  H300  1  0.535300  0.216400  0.075600  1
  H  H301  1  0.462800  0.798600  0.381200  1
  H  H302  1  0.037200  0.201400  0.881200  1
  H  H303  1  0.962800  0.701400  0.618800  1
  H  H304  1  0.537200  0.298600  0.118800  1
  H  H305  1  0.410500  0.765000  0.322400  1
  H  H306  1  0.089500  0.235000  0.822400  1
  H  H307  1  0.910500  0.735000  0.677600  1
  H  H308  1  0.589500  0.265000  0.177600  1
  H  H309  1  0.261800  0.560400  0.403700  1
  H  H310  1  0.238200  0.439600  0.903700  1
  H  H311  1  0.761800  0.939600  0.596300  1
  H  H312  1  0.738200  0.060400  0.096300  1
  H  H313  1  0.184600  0.585800  0.354900  1
  H  H314  1  0.315400  0.414200  0.854900  1
  H  H315  1  0.684600  0.914200  0.645100  1
  H  H316  1  0.815400  0.085800  0.145100  1
  H  H317  1  0.247100  0.632000  0.302100  1
  H  H318  1  0.252900  0.368000  0.802100  1
  H  H319  1  0.747100  0.868000  0.697900  1
  H  H320  1  0.752900  0.132000  0.197900  1
  H  H321  1  0.950200  0.489900  0.501000  1
  H  H322  1  0.549800  0.510100  0.001000  1
  H  H323  1  0.450200  0.010100  0.499000  1
  H  H324  1  0.049800  0.989900  0.999000  1
  H  H325  1  0.899500  0.503800  0.439000  1
  H  H326  1  0.600500  0.496200  0.939000  1
  H  H327  1  0.399500  0.996200  0.561000  1
  H  H328  1  0.100500  0.003800  0.061000  1
  H  H329  1  0.783500  0.496500  0.450500  1
  H  H330  1  0.716500  0.503500  0.950500  1
  H  H331  1  0.283500  0.003500  0.549500  1
  H  H332  1  0.216500  0.996500  0.049500  1
  H  H333  1  0.875900  0.562100  0.622900  1
  H  H334  1  0.624100  0.437900  0.122900  1
  H  H335  1  0.375900  0.937900  0.377100  1
  H  H336  1  0.124100  0.062100  0.877100  1
  H  H337  1  0.781500  0.615700  0.635400  1
  H  H338  1  0.718500  0.384300  0.135400  1
  H  H339  1  0.281500  0.884300  0.364600  1
  H  H340  1  0.218500  0.115700  0.864600  1
  H  H341  1  0.697200  0.576700  0.593000  1
  H  H342  1  0.802800  0.423300  0.093000  1
  H  H343  1  0.197200  0.923300  0.407000  1
  H  H344  1  0.302800  0.076700  0.907000  1
  H  H345  1  0.887300  0.368500  0.605400  1
  H  H346  1  0.612700  0.631500  0.105400  1
  H  H347  1  0.387300  0.131500  0.394600  1
  H  H348  1  0.112700  0.868500  0.894600  1
  H  H349  1  0.801700  0.297900  0.602400  1
  H  H350  1  0.698300  0.702100  0.102400  1
  H  H351  1  0.301700  0.202100  0.397600  1
  H  H352  1  0.198300  0.797900  0.897600  1
  H  H353  1  0.715900  0.341600  0.565200  1
  H  H354  1  0.784100  0.658400  0.065200  1
  H  H355  1  0.215900  0.158400  0.434800  1
  H  H356  1  0.284100  0.841600  0.934800  1
  H  H357  1  0.545500  0.197500  0.633000  1
  H  H358  1  0.954500  0.802500  0.133000  1
  H  H359  1  0.045500  0.302500  0.367000  1
  H  H360  1  0.454500  0.697500  0.867000  1
  H  H361  1  0.632200  0.264900  0.625800  1
  H  H362  1  0.867800  0.735100  0.125800  1
  H  H363  1  0.132200  0.235100  0.374200  1
  H  H364  1  0.367800  0.764900  0.874200  1
  H  H365  1  0.589400  0.340200  0.582900  1
  H  H366  1  0.910600  0.659800  0.082900  1
  H  H367  1  0.089400  0.159800  0.417100  1
  H  H368  1  0.410600  0.840200  0.917100  1
  H  H369  1  0.326600  0.248000  0.649700  1
  H  H370  1  0.173400  0.752000  0.149700  1
  H  H371  1  0.826600  0.252000  0.350300  1
  H  H372  1  0.673400  0.748000  0.850300  1
  H  H373  1  0.282600  0.343300  0.649400  1
  H  H374  1  0.217400  0.656700  0.149400  1
  H  H375  1  0.782600  0.156700  0.350600  1
  H  H376  1  0.717400  0.843300  0.850600  1
  H  H377  1  0.335500  0.392900  0.595800  1
  H  H378  1  0.164500  0.607100  0.095800  1
  H  H379  1  0.835500  0.107100  0.404200  1
  H  H380  1  0.664500  0.892900  0.904200  1
  H  H381  1  0.392900  0.134200  0.543200  1
  H  H382  1  0.107100  0.865800  0.043200  1
  H  H383  1  0.892900  0.365800  0.456800  1
  H  H384  1  0.607100  0.634200  0.956800  1
  H  H385  1  0.394800  0.156100  0.473900  1
  H  H386  1  0.105200  0.843900  0.973900  1
  H  H387  1  0.894800  0.343900  0.526100  1
  H  H388  1  0.605200  0.656100  0.026100  1
  H  H389  1  0.419300  0.258600  0.469200  1
  H  H390  1  0.080700  0.741400  0.969200  1
  H  H391  1  0.919300  0.241400  0.530800  1
  H  H392  1  0.580700  0.758600  0.030800  1
  H  H393  1  0.670500  0.795700  0.657600  1
  H  H394  1  0.829500  0.204300  0.157600  1
  H  H395  1  0.170500  0.704300  0.342400  1
  H  H396  1  0.329500  0.295700  0.842400  1
  H  H397  1  0.742000  0.729800  0.623200  1
  H  H398  1  0.758000  0.270200  0.123200  1
  H  H399  1  0.242000  0.770200  0.376800  1
  H  H400  1  0.258000  0.229800  0.876800  1
  H  H401  1  0.673700  0.674200  0.580800  1
  H  H402  1  0.826300  0.325800  0.080800  1
  H  H403  1  0.173700  0.825800  0.419200  1
  H  H404  1  0.326300  0.174200  0.919200  1
  H  H405  1  0.460800  0.758400  0.704100  1
  H  H406  1  0.039200  0.241600  0.204100  1
  H  H407  1  0.960800  0.741600  0.295900  1
  H  H408  1  0.539200  0.258400  0.795900  1
  H  H409  1  0.398900  0.672100  0.698100  1
  H  H410  1  0.101100  0.327900  0.198100  1
  H  H411  1  0.898900  0.827900  0.301900  1
  H  H412  1  0.601100  0.172100  0.801900  1
  H  H413  1  0.419200  0.635500  0.633400  1
  H  H414  1  0.080800  0.364500  0.133400  1
  H  H415  1  0.919200  0.864500  0.366600  1
  H  H416  1  0.580800  0.135500  0.866600  1
  H  H417  1  0.481800  0.891000  0.608400  1
  H  H418  1  0.018200  0.109000  0.108400  1
  H  H419  1  0.981800  0.609000  0.391600  1
  H  H420  1  0.518200  0.391000  0.891600  1
  H  H421  1  0.436900  0.888000  0.543500  1
  H  H422  1  0.063100  0.112000  0.043500  1
  H  H423  1  0.936900  0.612000  0.456500  1
  H  H424  1  0.563100  0.388000  0.956500  1
  H  H425  1  0.461200  0.791800  0.519400  1
  H  H426  1  0.038800  0.208200  0.019400  1
  H  H427  1  0.961200  0.708200  0.480600  1
  H  H428  1  0.538800  0.291800  0.980600  1
  H  H429  1  0.906800  0.472800  0.575500  1
  H  H430  1  0.593200  0.527200  0.075500  1
  H  H431  1  0.406800  0.027200  0.424500  1
  H  H432  1  0.093200  0.972800  0.924500  1
  H  H433  1  0.541600  0.816300  0.656400  1
  H  H434  1  0.958400  0.183700  0.156400  1
  H  H435  1  0.041600  0.683700  0.343600  1
  H  H436  1  0.458400  0.316300  0.843600  1
  H  H437  1  0.371100  0.663400  0.293900  1
  H  H438  1  0.128900  0.336600  0.793900  1
  H  H439  1  0.871100  0.836600  0.706100  1
  H  H440  1  0.628900  0.163400  0.206100  1
  H  H441  1  0.418400  0.193500  0.609300  1
  H  H442  1  0.081600  0.806500  0.109300  1
  H  H443  1  0.918400  0.306500  0.390700  1
  H  H444  1  0.581600  0.693500  0.890700  1
  H  H445  1  0.140400  0.709700  0.658800  1
  H  H446  1  0.359600  0.290300  0.158800  1
  H  H447  1  0.640400  0.790300  0.341200  1
  H  H448  1  0.859600  0.209700  0.841200  1
  H  H449  1  0.140300  0.764000  0.633000  1
  H  H450  1  0.359700  0.236000  0.133000  1
  H  H451  1  0.640300  0.736000  0.367000  1
  H  H452  1  0.859700  0.264000  0.867000  1
  H  H453  1  0.083800  0.721000  0.630500  1
  H  H454  1  0.416200  0.279000  0.130500  1
  H  H455  1  0.583800  0.779000  0.369500  1
  H  H456  1  0.916200  0.221000  0.869500  1
  H  H457  1  0.038600  0.842100  0.685900  1
  H  H458  1  0.461400  0.157900  0.185900  1
  H  H459  1  0.538600  0.657900  0.314100  1
  H  H460  1  0.961400  0.342100  0.814100  1
  H  H461  1  0.058400  0.835300  0.642600  1
  H  H462  1  0.441600  0.164700  0.142600  1
  H  H463  1  0.558400  0.664700  0.357400  1
  H  H464  1  0.941600  0.335300  0.857400  1
  H  H465  1  0.109900  0.849900  0.673700  1
  H  H466  1  0.390100  0.150100  0.173700  1
  H  H467  1  0.609900  0.650100  0.326300  1
  H  H468  1  0.890100  0.349900  0.826300  1
  H  H469  1  0.044400  0.515600  0.373600  1
  H  H470  1  0.455600  0.484400  0.873600  1
  H  H471  1  0.544400  0.984400  0.626400  1
  H  H472  1  0.955600  0.015600  0.126400  1
  H  H473  1  0.100300  0.471800  0.374500  1
  H  H474  1  0.399700  0.528200  0.874500  1
  H  H475  1  0.600300  0.028200  0.625500  1
  H  H476  1  0.899700  0.971800  0.125500  1
  H  H477  1  0.107500  0.530000  0.395600  1
  H  H478  1  0.392500  0.470000  0.895600  1
  H  H479  1  0.607500  0.970000  0.604400  1
  H  H480  1  0.892500  0.030000  0.104400  1
  H  H481  1  0.081600  0.394300  0.430000  1
  H  H482  1  0.418400  0.605700  0.930000  1
  H  H483  1  0.581600  0.105700  0.570000  1
  H  H484  1  0.918400  0.894300  0.070000  1
  H  H485  1  0.028900  0.401100  0.398400  1
  H  H486  1  0.471100  0.598900  0.898400  1
  H  H487  1  0.528900  0.098900  0.601600  1
  H  H488  1  0.971100  0.901100  0.101600  1
  H  H489  1  0.010300  0.402800  0.442100  1
  H  H490  1  0.489700  0.597200  0.942100  1
  H  H491  1  0.510300  0.097200  0.557900  1
  H  H492  1  0.989700  0.902800  0.057900  1
  H  H493  1  0.772500  0.523200  0.380300  1
  H  H494  1  0.727500  0.476800  0.880300  1
  H  H495  1  0.272500  0.976800  0.619700  1
  H  H496  1  0.227500  0.023200  0.119700  1
  H  H497  1  0.805000  0.514900  0.340100  1
  H  H498  1  0.695000  0.485100  0.840100  1
  H  H499  1  0.305000  0.985100  0.659900  1
  H  H500  1  0.195000  0.014900  0.159900  1
  H  H501  1  0.846700  0.517100  0.377400  1
  H  H502  1  0.653300  0.482900  0.877400  1
  H  H503  1  0.346700  0.982900  0.622600  1
  H  H504  1  0.153300  0.017100  0.122600  1
  H  H505  1  0.830400  0.369100  0.348100  1
  H  H506  1  0.669600  0.630900  0.848100  1
  H  H507  1  0.330400  0.130900  0.651900  1
  H  H508  1  0.169600  0.869100  0.151900  1
  H  H509  1  0.884000  0.415200  0.349100  1
  H  H510  1  0.616000  0.584800  0.849100  1
  H  H511  1  0.384000  0.084800  0.650900  1
  H  H512  1  0.116000  0.915200  0.150900  1
  H  H513  1  0.829800  0.418700  0.318200  1
  H  H514  1  0.670200  0.581300  0.818200  1
  H  H515  1  0.329800  0.081300  0.681800  1
  H  H516  1  0.170200  0.918700  0.181800  1
  H  H517  1  0.821200  0.644800  0.151000  1
  H  H518  1  0.678800  0.355200  0.651000  1
  H  H519  1  0.321200  0.855200  0.849000  1
  H  H520  1  0.178800  0.144800  0.349000  1
  H  H521  1  0.869600  0.597300  0.162600  1
  H  H522  1  0.630400  0.402700  0.662600  1
  H  H523  1  0.369600  0.902700  0.837400  1
  H  H524  1  0.130400  0.097300  0.337400  1
  H  H525  1  0.855600  0.647200  0.191000  1
  H  H526  1  0.644400  0.352800  0.691000  1
  H  H527  1  0.355600  0.852800  0.809000  1
  H  H528  1  0.144400  0.147200  0.309000  1
  H  H529  1  0.735100  0.522300  0.178800  1
  H  H530  1  0.764900  0.477700  0.678800  1
  H  H531  1  0.235100  0.977700  0.821200  1
  H  H532  1  0.264900  0.022300  0.321200  1
  H  H533  1  0.790400  0.529400  0.148800  1
  H  H534  1  0.709600  0.470600  0.648800  1
  H  H535  1  0.290400  0.970600  0.851200  1
  H  H536  1  0.209600  0.029400  0.351200  1
  H  H537  1  0.729200  0.567100  0.145800  1
  H  H538  1  0.770800  0.432900  0.645800  1
  H  H539  1  0.229200  0.932900  0.854200  1
  H  H540  1  0.270800  0.067100  0.354200  1
  H  H541  1  0.406200  0.369100  0.322800  1
  H  H542  1  0.093800  0.630900  0.822800  1
  H  H543  1  0.906200  0.130900  0.677200  1
  H  H544  1  0.593800  0.869100  0.177200  1
  H  H545  1  0.412000  0.430300  0.339700  1
  H  H546  1  0.088000  0.569700  0.839700  1
  H  H547  1  0.912000  0.069700  0.660300  1
  H  H548  1  0.588000  0.930300  0.160300  1
  H  H549  1  0.426400  0.419400  0.296100  1
  H  H550  1  0.073600  0.580600  0.796100  1
  H  H551  1  0.926400  0.080600  0.703900  1
  H  H552  1  0.573600  0.919400  0.203900  1
  H  H553  1  0.263000  0.469300  0.326100  1
  H  H554  1  0.237000  0.530700  0.826100  1
  H  H555  1  0.763000  0.030700  0.673900  1
  H  H556  1  0.737000  0.969300  0.173900  1
  H  H557  1  0.325700  0.501300  0.314900  1
  H  H558  1  0.174300  0.498700  0.814900  1
  H  H559  1  0.825700  0.998700  0.685100  1
  H  H560  1  0.674300  0.001300  0.185100  1
  H  H561  1  0.322200  0.467300  0.353500  1
  H  H562  1  0.177800  0.532700  0.853500  1
  H  H563  1  0.822200  0.032700  0.646500  1
  H  H564  1  0.677800  0.967300  0.146500  1
  H  H565  1  0.725100  0.054800  0.430800  1
  H  H566  1  0.774900  0.945200  0.930800  1
  H  H567  1  0.225100  0.445200  0.569200  1
  H  H568  1  0.274900  0.554800  0.069200  1
  H  H569  1  0.720200  0.074800  0.473700  1
  H  H570  1  0.779800  0.925200  0.973700  1
  H  H571  1  0.220200  0.425200  0.526300  1
  H  H572  1  0.279800  0.574800  0.026300  1
  H  H573  1  0.733100  0.118900  0.440900  1
  H  H574  1  0.766900  0.881100  0.940900  1
  H  H575  1  0.233100  0.381100  0.559100  1
  H  H576  1  0.266900  0.618900  0.059100  1
  H  H577  1  0.558200  0.101200  0.470700  1
  H  H578  1  0.941800  0.898800  0.970700  1
  H  H579  1  0.058200  0.398800  0.529300  1
  H  H580  1  0.441800  0.601200  0.029300  1
  H  H581  1  0.617600  0.105400  0.497900  1
  H  H582  1  0.882400  0.894600  0.997900  1
  H  H583  1  0.117600  0.394600  0.502100  1
  H  H584  1  0.382400  0.605400  0.002100  1
  H  H585  1  0.595700  0.046500  0.482100  1
  H  H586  1  0.904300  0.953500  0.982100  1
  H  H587  1  0.095700  0.453500  0.517900  1
  H  H588  1  0.404300  0.546500  0.017900  1
  C  C589  1  0.338000  0.755900  0.458950  1
  C  C590  1  0.162000  0.244100  0.958950  1
  C  C591  1  0.838000  0.744100  0.541050  1
  C  C592  1  0.662000  0.255900  0.041050  1
  C  C593  1  0.336500  0.811300  0.450500  1
  C  C594  1  0.163500  0.188700  0.950500  1
  C  C595  1  0.836500  0.688700  0.549500  1
  C  C596  1  0.663500  0.311300  0.049500  1
  C  C597  1  0.562400  0.687100  0.529060  1
  C  C598  1  0.937600  0.312900  0.029060  1
  C  C599  1  0.062400  0.812900  0.470940  1
  C  C600  1  0.437600  0.187100  0.970940  1
  C  C601  1  0.319100  0.851100  0.475400  1
  C  C602  1  0.180900  0.148900  0.975400  1
  C  C603  1  0.819100  0.648900  0.524600  1
  C  C604  1  0.680900  0.351100  0.024600  1
  C  C605  1  0.307100  0.834600  0.512000  1
  C  C606  1  0.192900  0.165400  0.012000  1
  C  C607  1  0.807100  0.665400  0.488000  1
  C  C608  1  0.692900  0.334600  0.988000  1
  C  C609  1  0.309200  0.778400  0.521000  1
  C  C610  1  0.190800  0.221600  0.021000  1
  C  C611  1  0.809200  0.721600  0.479000  1
  C  C612  1  0.690800  0.278400  0.979000  1
  C  C613  1  0.445200  0.679300  0.551910  1
  C  C614  1  0.054800  0.320700  0.051910  1
  C  C615  1  0.945200  0.820700  0.448090  1
  C  C616  1  0.554800  0.179300  0.948090  1
  C  C617  1  0.301500  0.757200  0.559900  1
  C  C618  1  0.198500  0.242800  0.059900  1
  C  C619  1  0.801500  0.742800  0.440100  1
  C  C620  1  0.698500  0.257200  0.940100  1
  C  C621  1  0.219800  0.683200  0.564840  1
  C  C622  1  0.280200  0.316800  0.064840  1
  C  C623  1  0.719800  0.816800  0.435160  1
  C  C624  1  0.780200  0.183200  0.935160  1
  C  C625  1  0.173400  0.715800  0.551600  1
  C  C626  1  0.326600  0.284200  0.051600  1
  C  C627  1  0.673400  0.784200  0.448400  1
  C  C628  1  0.826600  0.215800  0.948400  1
  C  C629  1  0.112500  0.696300  0.550700  1
  C  C630  1  0.387500  0.303700  0.050700  1
  C  C631  1  0.612500  0.803700  0.449300  1
  C  C632  1  0.887500  0.196300  0.949300  1
  C  C633  1  0.532000  0.619800  0.584640  1
  C  C634  1  0.968000  0.380200  0.084640  1
  C  C635  1  0.032000  0.880200  0.415360  1
  C  C636  1  0.468000  0.119800  0.915360  1
  C  C637  1  0.097600  0.643400  0.563900  1
  C  C638  1  0.402400  0.356600  0.063900  1
  C  C639  1  0.597600  0.856600  0.436100  1
  C  C640  1  0.902400  0.143400  0.936100  1
  C  C641  1  0.037500  0.622500  0.562100  1
  C  C642  1  0.462500  0.377500  0.062100  1
  C  C643  1  0.537500  0.877500  0.437900  1
  C  C644  1  0.962500  0.122500  0.937900  1
  C  C645  1  0.024300  0.569700  0.575600  1
  C  C646  1  0.475700  0.430300  0.075600  1
  C  C647  1  0.524300  0.930300  0.424400  1
  C  C648  1  0.975700  0.069700  0.924400  1
  C  C649  1  0.072500  0.536200  0.588600  1
  C  C650  1  0.427500  0.463800  0.088600  1
  C  C651  1  0.572500  0.963800  0.411400  1
  C  C652  1  0.927500  0.036200  0.911400  1
  C  C653  1  0.132200  0.555300  0.591400  1
  C  C654  1  0.367800  0.444700  0.091400  1
  C  C655  1  0.632200  0.944700  0.408600  1
  C  C656  1  0.867800  0.055300  0.908600  1
  C  C657  1  0.147200  0.609500  0.578400  1
  C  C658  1  0.352800  0.390500  0.078400  1
  C  C659  1  0.647200  0.890500  0.421600  1
  C  C660  1  0.852800  0.109500  0.921600  1
  C  C661  1  0.210700  0.630200  0.579900  1
  C  C662  1  0.289300  0.369800  0.079900  1
  C  C663  1  0.710700  0.869800  0.420100  1
  C  C664  1  0.789300  0.130200  0.920100  1
  C  C665  1  0.262800  0.597700  0.595230  1
  C  C666  1  0.237200  0.402300  0.095230  1
  C  C667  1  0.762800  0.902300  0.404770  1
  C  C668  1  0.737200  0.097700  0.904770  1
  C  C669  1  0.309900  0.577800  0.571860  1
  C  C670  1  0.190100  0.422200  0.071860  1
  C  C671  1  0.809900  0.922200  0.428140  1
  C  C672  1  0.690100  0.077800  0.928140  1
  C  C673  1  0.359300  0.547000  0.587600  1
  C  C674  1  0.140700  0.453000  0.087600  1
  C  C675  1  0.859300  0.953000  0.412400  1
  C  C676  1  0.640700  0.047000  0.912400  1
  C  C677  1  0.364100  0.537200  0.625000  1
  C  C678  1  0.135900  0.462800  0.125000  1
  C  C679  1  0.864100  0.962800  0.375000  1
  C  C680  1  0.635900  0.037200  0.875000  1
  C  C681  1  0.319700  0.559600  0.649680  1
  C  C682  1  0.180300  0.440400  0.149680  1
  C  C683  1  0.819700  0.940400  0.350320  1
  C  C684  1  0.680300  0.059600  0.850320  1
  C  C685  1  0.326300  0.554400  0.689200  1
  C  C686  1  0.173700  0.445600  0.189200  1
  C  C687  1  0.826300  0.945600  0.310800  1
  C  C688  1  0.673700  0.054400  0.810800  1
  C  C689  1  0.283700  0.578200  0.713400  1
  C  C690  1  0.216300  0.421800  0.213400  1
  C  C691  1  0.783700  0.921800  0.286600  1
  C  C692  1  0.716300  0.078200  0.786600  1
  C  C693  1  0.232900  0.605800  0.698500  1
  C  C694  1  0.267100  0.394200  0.198500  1
  C  C695  1  0.732900  0.894200  0.301500  1
  C  C696  1  0.767100  0.105800  0.801500  1
  C  C697  1  0.224000  0.612000  0.660700  1
  C  C698  1  0.276000  0.388000  0.160700  1
  C  C699  1  0.724000  0.888000  0.339300  1
  C  C700  1  0.776000  0.112000  0.839300  1
  C  C701  1  0.267900  0.589200  0.634990  1
  C  C702  1  0.232100  0.410800  0.134990  1
  C  C703  1  0.767900  0.910800  0.365010  1
  C  C704  1  0.732100  0.089200  0.865010  1
  C  C705  1  0.260800  0.558700  0.510960  1
  C  C706  1  0.239200  0.441300  0.010960  1
  C  C707  1  0.760800  0.941300  0.489040  1
  C  C708  1  0.739200  0.058700  0.989040  1
  C  C709  1  0.220000  0.598200  0.491860  1
  C  C710  1  0.280000  0.401800  0.991860  1
  C  C711  1  0.720000  0.901800  0.508140  1
  C  C712  1  0.780000  0.098200  0.008140  1
  C  C713  1  0.162200  0.580900  0.476900  1
  C  C714  1  0.337800  0.419100  0.976900  1
  C  C715  1  0.662200  0.919100  0.523100  1
  C  C716  1  0.837800  0.080900  0.023100  1
  C  C717  1  0.126000  0.619300  0.458300  1
  C  C718  1  0.374000  0.380700  0.958300  1
  C  C719  1  0.626000  0.880700  0.541700  1
  C  C720  1  0.874000  0.119300  0.041700  1
  C  C721  1  0.147300  0.672800  0.454400  1
  C  C722  1  0.352700  0.327200  0.954400  1
  C  C723  1  0.647300  0.827200  0.545600  1
  C  C724  1  0.852700  0.172800  0.045600  1
  C  C725  1  0.203700  0.686600  0.469200  1
  C  C726  1  0.296300  0.313400  0.969200  1
  C  C727  1  0.703700  0.813400  0.530800  1
  C  C728  1  0.796300  0.186600  0.030800  1
  C  C729  1  0.646800  0.252900  0.510000  1
  C  C730  1  0.853200  0.747100  0.010000  1
  C  C731  1  0.146800  0.247100  0.490000  1
  C  C732  1  0.353200  0.752900  0.990000  1
  C  C733  1  0.683300  0.215300  0.527300  1
  C  C734  1  0.816700  0.784700  0.027300  1
  C  C735  1  0.183300  0.284700  0.472700  1
  C  C736  1  0.316700  0.715300  0.972700  1
  C  C737  1  0.742100  0.204300  0.513100  1
  C  C738  1  0.757900  0.795700  0.013100  1
  C  C739  1  0.242100  0.295700  0.486900  1
  C  C740  1  0.257900  0.704300  0.986900  1
  C  C741  1  0.763300  0.235700  0.482000  1
  C  C742  1  0.736700  0.764300  0.982000  1
  C  C743  1  0.263300  0.264300  0.518000  1
  C  C744  1  0.236700  0.735700  0.018000  1
  C  C745  1  0.724100  0.274800  0.466790  1
  C  C746  1  0.775900  0.725200  0.966790  1
  C  C747  1  0.224100  0.225200  0.533210  1
  C  C748  1  0.275900  0.774800  0.033210  1
  C  C749  1  0.743100  0.313200  0.435360  1
  C  C750  1  0.756900  0.686800  0.935360  1
  C  C751  1  0.243100  0.186800  0.564640  1
  C  C752  1  0.256900  0.813200  0.064640  1
  C  C753  1  0.667400  0.309600  0.382630  1
  C  C754  1  0.832600  0.690400  0.882630  1
  C  C755  1  0.167400  0.190400  0.617370  1
  C  C756  1  0.332600  0.809600  0.117370  1
  C  C757  1  0.678200  0.252200  0.376650  1
  C  C758  1  0.821800  0.747800  0.876650  1
  C  C759  1  0.178200  0.247800  0.623350  1
  C  C760  1  0.321800  0.752200  0.123350  1
  C  C761  1  0.651600  0.226600  0.347100  1
  C  C762  1  0.848400  0.773400  0.847100  1
  C  C763  1  0.151600  0.273400  0.652900  1
  C  C764  1  0.348400  0.726600  0.152900  1
  C  C765  1  0.610100  0.254400  0.322200  1
  C  C766  1  0.889900  0.745600  0.822200  1
  C  C767  1  0.110100  0.245600  0.677800  1
  C  C768  1  0.389900  0.754400  0.177800  1
  C  C769  1  0.579400  0.227200  0.292800  1
  C  C770  1  0.920600  0.772800  0.792800  1
  C  C771  1  0.079400  0.272800  0.707200  1
  C  C772  1  0.420600  0.727200  0.207200  1
  C  C773  1  0.535200  0.251900  0.271100  1
  C  C774  1  0.964800  0.748100  0.771100  1
  C  C775  1  0.035200  0.248100  0.728900  1
  C  C776  1  0.464800  0.751900  0.228900  1
  C  C777  1  0.523000  0.308600  0.278300  1
  C  C778  1  0.977000  0.691400  0.778300  1
  C  C779  1  0.023000  0.191400  0.721700  1
  C  C780  1  0.477000  0.808600  0.221700  1
  C  C781  1  0.553700  0.337600  0.304200  1
  C  C782  1  0.946300  0.662400  0.804200  1
  C  C783  1  0.053700  0.162400  0.695800  1
  C  C784  1  0.446300  0.837600  0.195800  1
  C  C785  1  0.598700  0.311200  0.328360  1
  C  C786  1  0.901300  0.688800  0.828360  1
  C  C787  1  0.098700  0.188800  0.671640  1
  C  C788  1  0.401300  0.811200  0.171640  1
  C  C789  1  0.629200  0.340900  0.358110  1
  C  C790  1  0.870800  0.659100  0.858110  1
  C  C791  1  0.129200  0.159100  0.641890  1
  C  C792  1  0.370800  0.840900  0.141890  1
  C  C793  1  0.626000  0.402500  0.363450  1
  C  C794  1  0.874000  0.597500  0.863450  1
  C  C795  1  0.126000  0.097500  0.636550  1
  C  C796  1  0.374000  0.902500  0.136550  1
  C  C797  1  0.604200  0.427600  0.394910  1
  C  C798  1  0.895800  0.572400  0.894910  1
  C  C799  1  0.104200  0.072400  0.605090  1
  C  C800  1  0.395800  0.927600  0.105090  1
  C  C801  1  0.606900  0.484100  0.398520  1
  C  C802  1  0.893100  0.515900  0.898520  1
  C  C803  1  0.106900  0.015900  0.601480  1
  C  C804  1  0.393100  0.984100  0.101480  1
  C  C805  1  0.626800  0.517900  0.371260  1
  C  C806  1  0.873200  0.482100  0.871260  1
  C  C807  1  0.126800  0.982100  0.628740  1
  C  C808  1  0.373200  0.017900  0.128740  1
  C  C809  1  0.650500  0.494100  0.338450  1
  C  C810  1  0.849500  0.505900  0.838450  1
  C  C811  1  0.150500  0.005900  0.661550  1
  C  C812  1  0.349500  0.994100  0.161550  1
  C  C813  1  0.674500  0.527100  0.307900  1
  C  C814  1  0.825500  0.472900  0.807900  1
  C  C815  1  0.174500  0.972900  0.692100  1
  C  C816  1  0.325500  0.027100  0.192100  1
  C  C817  1  0.699900  0.505400  0.277900  1
  C  C818  1  0.800100  0.494600  0.777900  1
  C  C819  1  0.199900  0.994600  0.722100  1
  C  C820  1  0.300100  0.005400  0.222100  1
  C  C821  1  0.705200  0.449900  0.274600  1
  C  C822  1  0.794800  0.550100  0.774600  1
  C  C823  1  0.205200  0.050100  0.725400  1
  C  C824  1  0.294800  0.949900  0.225400  1
  C  C825  1  0.681900  0.413700  0.301960  1
  C  C826  1  0.818100  0.586300  0.801960  1
  C  C827  1  0.181900  0.086300  0.698040  1
  C  C828  1  0.318100  0.913700  0.198040  1
  C  C829  1  0.651400  0.436400  0.333880  1
  C  C830  1  0.848600  0.563600  0.833880  1
  C  C831  1  0.151400  0.063600  0.666120  1
  C  C832  1  0.348600  0.936400  0.166120  1
  C  C833  1  0.511100  0.372700  0.414400  1
  C  C834  1  0.988900  0.627300  0.914400  1
  C  C835  1  0.011100  0.127300  0.585600  1
  C  C836  1  0.488900  0.872700  0.085600  1
  C  C837  1  0.514500  0.313500  0.410270  1
  C  C838  1  0.985500  0.686500  0.910270  1
  C  C839  1  0.014500  0.186500  0.589730  1
  C  C840  1  0.485500  0.813500  0.089730  1
  C  C841  1  0.473900  0.281500  0.389900  1
  C  C842  1  0.026100  0.718500  0.889900  1
  C  C843  1  0.973900  0.218500  0.610100  1
  C  C844  1  0.526100  0.781500  0.110100  1
  C  C845  1  0.477400  0.225800  0.389400  1
  C  C846  1  0.022600  0.774200  0.889400  1
  C  C847  1  0.977400  0.274200  0.610600  1
  C  C848  1  0.522600  0.725800  0.110600  1
  C  C849  1  0.522200  0.199500  0.409100  1
  C  C850  1  0.977800  0.800500  0.909100  1
  C  C851  1  0.022200  0.300500  0.590900  1
  C  C852  1  0.477800  0.699500  0.090900  1
  C  C853  1  0.564500  0.233000  0.428600  1
  C  C854  1  0.935500  0.767000  0.928600  1
  C  C855  1  0.064500  0.267000  0.571400  1
  C  C856  1  0.435500  0.733000  0.071400  1
  C  C857  1  0.486600  0.533700  0.334370  1
  C  C858  1  0.013400  0.466300  0.834370  1
  C  C859  1  0.986600  0.966300  0.665630  1
  C  C860  1  0.513400  0.033700  0.165630  1
  C  C861  1  0.493900  0.537300  0.295700  1
  C  C862  1  0.006100  0.462700  0.795700  1
  C  C863  1  0.993900  0.962700  0.704300  1
  C  C864  1  0.506100  0.037300  0.204300  1
  C  C865  1  0.457000  0.580600  0.284540  1
  C  C866  1  0.043000  0.419400  0.784540  1
  C  C867  1  0.957000  0.919400  0.715460  1
  C  C868  1  0.543000  0.080600  0.215460  1
  C  C869  1  0.449500  0.716600  0.399200  1
  C  C870  1  0.050500  0.283400  0.899200  1
  C  C871  1  0.949500  0.783400  0.600800  1
  C  C872  1  0.550500  0.216600  0.100800  1
  C  C873  1  0.448100  0.762300  0.376100  1
  C  C874  1  0.051900  0.237700  0.876100  1
  C  C875  1  0.948100  0.737700  0.623900  1
  C  C876  1  0.551900  0.262300  0.123900  1
  C  C877  1  0.420400  0.743000  0.343800  1
  C  C878  1  0.079600  0.257000  0.843800  1
  C  C879  1  0.920400  0.757000  0.656200  1
  C  C880  1  0.579600  0.243000  0.156200  1
  C  C881  1  0.271000  0.580100  0.381150  1
  C  C882  1  0.229000  0.419900  0.881150  1
  C  C883  1  0.771000  0.919900  0.618850  1
  C  C884  1  0.729000  0.080100  0.118850  1
  C  C885  1  0.228200  0.592900  0.354400  1
  C  C886  1  0.271800  0.407100  0.854400  1
  C  C887  1  0.728200  0.907100  0.645600  1
  C  C888  1  0.771800  0.092900  0.145600  1
  C  C889  1  0.262800  0.619200  0.325500  1
  C  C890  1  0.237200  0.380800  0.825500  1
  C  C891  1  0.762800  0.880800  0.674500  1
  C  C892  1  0.737200  0.119200  0.174500  1
  C  C893  1  0.490300  0.592400  0.421070  1
  C  C894  1  0.009700  0.407600  0.921070  1
  C  C895  1  0.990300  0.907600  0.578930  1
  C  C896  1  0.509700  0.092400  0.078930  1
  C  C897  1  0.394700  0.519700  0.410190  1
  C  C898  1  0.105300  0.480300  0.910190  1
  C  C899  1  0.894700  0.980300  0.589810  1
  C  C900  1  0.605300  0.019700  0.089810  1
  C  C901  1  0.378300  0.616700  0.441600  1
  C  C902  1  0.121700  0.383300  0.941600  1
  C  C903  1  0.878300  0.883300  0.558400  1
  C  C904  1  0.621700  0.116700  0.058400  1
  C  C905  1  0.906500  0.489900  0.496330  1
  C  C906  1  0.593500  0.510100  0.996330  1
  C  C907  1  0.406500  0.010100  0.503670  1
  C  C908  1  0.093500  0.989900  0.003670  1
  C  C909  1  0.879400  0.497200  0.462500  1
  C  C910  1  0.620600  0.502800  0.962500  1
  C  C911  1  0.379400  0.002800  0.537500  1
  C  C912  1  0.120600  0.997200  0.037500  1
  C  C913  1  0.814900  0.492900  0.469280  1
  C  C914  1  0.685100  0.507100  0.969280  1
  C  C915  1  0.314900  0.007100  0.530720  1
  C  C916  1  0.185100  0.992900  0.030720  1
  C  C917  1  0.836800  0.557300  0.610800  1
  C  C918  1  0.663200  0.442700  0.110800  1
  C  C919  1  0.336800  0.942700  0.389200  1
  C  C920  1  0.163200  0.057300  0.889200  1
  C  C921  1  0.785900  0.586200  0.617860  1
  C  C922  1  0.714100  0.413800  0.117860  1
  C  C923  1  0.285900  0.913800  0.382140  1
  C  C924  1  0.214100  0.086200  0.882140  1
  C  C925  1  0.739300  0.564400  0.593960  1
  C  C926  1  0.760700  0.435600  0.093960  1
  C  C927  1  0.239300  0.935600  0.406040  1
  C  C928  1  0.260700  0.064400  0.906040  1
  C  C929  1  0.848300  0.373000  0.593000  1
  C  C930  1  0.651700  0.627000  0.093000  1
  C  C931  1  0.348300  0.127000  0.407000  1
  C  C932  1  0.151700  0.873000  0.907000  1
  C  C933  1  0.801500  0.333900  0.591700  1
  C  C934  1  0.698500  0.666100  0.091700  1
  C  C935  1  0.301500  0.166100  0.408300  1
  C  C936  1  0.198500  0.833900  0.908300  1
  C  C937  1  0.754400  0.358800  0.571320  1
  C  C938  1  0.745600  0.641200  0.071320  1
  C  C939  1  0.254400  0.141200  0.428680  1
  C  C940  1  0.245600  0.858800  0.928680  1
  C  C941  1  0.657800  0.464900  0.566960  1
  C  C942  1  0.842200  0.535100  0.066960  1
  C  C943  1  0.157800  0.035100  0.433040  1
  C  C944  1  0.342200  0.964900  0.933040  1
  C  C945  1  0.684700  0.530400  0.510280  1
  C  C946  1  0.815300  0.469600  0.010280  1
  C  C947  1  0.184700  0.969600  0.489720  1
  C  C948  1  0.315300  0.030400  0.989720  1
  C  C949  1  0.691500  0.423400  0.500670  1
  C  C950  1  0.808500  0.576600  0.000670  1
  C  C951  1  0.191500  0.076600  0.499330  1
  C  C952  1  0.308500  0.923400  0.999330  1
  C  C953  1  0.544000  0.230700  0.618700  1
  C  C954  1  0.956000  0.769300  0.118700  1
  C  C955  1  0.044000  0.269300  0.381300  1
  C  C956  1  0.456000  0.730700  0.881300  1
  C  C957  1  0.591700  0.267000  0.615010  1
  C  C958  1  0.908300  0.733000  0.115010  1
  C  C959  1  0.091700  0.233000  0.384990  1
  C  C960  1  0.408300  0.767000  0.884990  1
  C  C961  1  0.566800  0.308700  0.591260  1
  C  C962  1  0.933200  0.691300  0.091260  1
  C  C963  1  0.066800  0.191300  0.408740  1
  C  C964  1  0.433200  0.808700  0.908740  1
  C  C965  1  0.337700  0.276800  0.632760  1
  C  C966  1  0.162300  0.723200  0.132760  1
  C  C967  1  0.837700  0.223200  0.367240  1
  C  C968  1  0.662300  0.776800  0.867240  1
  C  C969  1  0.313200  0.328700  0.632780  1
  C  C970  1  0.186800  0.671300  0.132780  1
  C  C971  1  0.813200  0.171300  0.367220  1
  C  C972  1  0.686800  0.828700  0.867220  1
  C  C973  1  0.342900  0.355600  0.603020  1
  C  C974  1  0.157100  0.644400  0.103020  1
  C  C975  1  0.842900  0.144400  0.396980  1
  C  C976  1  0.657100  0.855600  0.896980  1
  C  C977  1  0.402700  0.169100  0.532300  1
  C  C978  1  0.097300  0.830900  0.032300  1
  C  C979  1  0.902700  0.330900  0.467700  1
  C  C980  1  0.597300  0.669100  0.967700  1
  C  C981  1  0.402800  0.180800  0.494100  1
  C  C982  1  0.097200  0.819200  0.994100  1
  C  C983  1  0.902800  0.319200  0.505900  1
  C  C984  1  0.597200  0.680800  0.005900  1
  C  C985  1  0.417300  0.237600  0.491800  1
  C  C986  1  0.082700  0.762400  0.991800  1
  C  C987  1  0.917300  0.262400  0.508200  1
  C  C988  1  0.582700  0.737600  0.008200  1
  C  C989  1  0.513600  0.341300  0.511760  1
  C  C990  1  0.986400  0.658700  0.011760  1
  C  C991  1  0.013600  0.158700  0.488240  1
  C  C992  1  0.486400  0.841300  0.988240  1
  C  C993  1  0.394000  0.366400  0.510560  1
  C  C994  1  0.106000  0.633600  0.010560  1
  C  C995  1  0.894000  0.133600  0.489440  1
  C  C996  1  0.606000  0.866400  0.989440  1
  C  C997  1  0.467400  0.404300  0.567170  1
  C  C998  1  0.032600  0.595700  0.067170  1
  C  C999  1  0.967400  0.095700  0.432830  1
  C  C1000  1  0.532600  0.904300  0.932830  1
  C  C1001  1  0.658600  0.769000  0.639300  1
  C  C1002  1  0.841400  0.231000  0.139300  1
  C  C1003  1  0.158600  0.731000  0.360700  1
  C  C1004  1  0.341400  0.269000  0.860700  1
  C  C1005  1  0.698000  0.732900  0.620600  1
  C  C1006  1  0.802000  0.267100  0.120600  1
  C  C1007  1  0.198000  0.767100  0.379400  1
  C  C1008  1  0.302000  0.232900  0.879400  1
  C  C1009  1  0.659400  0.702400  0.597400  1
  C  C1010  1  0.840600  0.297600  0.097400  1
  C  C1011  1  0.159400  0.797600  0.402600  1
  C  C1012  1  0.340600  0.202400  0.902600  1
  C  C1013  1  0.460000  0.734800  0.682700  1
  C  C1014  1  0.040000  0.265200  0.182700  1
  C  C1015  1  0.960000  0.765200  0.317300  1
  C  C1016  1  0.540000  0.234800  0.817300  1
  C  C1017  1  0.425500  0.687800  0.679600  1
  C  C1018  1  0.074500  0.312200  0.179600  1
  C  C1019  1  0.925500  0.812200  0.320400  1
  C  C1020  1  0.574500  0.187800  0.820400  1
  C  C1021  1  0.437200  0.667900  0.643900  1
  C  C1022  1  0.062800  0.332100  0.143900  1
  C  C1023  1  0.937200  0.832100  0.356100  1
  C  C1024  1  0.562800  0.167900  0.856100  1
  C  C1025  1  0.482800  0.859900  0.591950  1
  C  C1026  1  0.017200  0.140100  0.091950  1
  C  C1027  1  0.982800  0.640100  0.408050  1
  C  C1028  1  0.517200  0.359900  0.908050  1
  C  C1029  1  0.458200  0.859200  0.556400  1
  C  C1030  1  0.041800  0.140800  0.056400  1
  C  C1031  1  0.958200  0.640800  0.443600  1
  C  C1032  1  0.541800  0.359200  0.943600  1
  C  C1033  1  0.471900  0.805400  0.543640  1
  C  C1034  1  0.028100  0.194600  0.043640  1
  C  C1035  1  0.971900  0.694600  0.456360  1
  C  C1036  1  0.528100  0.305400  0.956360  1
  C  C1037  1  0.114200  0.738300  0.647400  1
  C  C1038  1  0.385800  0.261700  0.147400  1
  C  C1039  1  0.614200  0.761700  0.352600  1
  C  C1040  1  0.885800  0.238300  0.852600  1
  C  C1041  1  0.083200  0.766800  0.675200  1
  C  C1042  1  0.416800  0.233200  0.175200  1
  C  C1043  1  0.583200  0.733200  0.324800  1
  C  C1044  1  0.916800  0.266800  0.824800  1
  C  C1045  1  0.071400  0.829300  0.668700  1
  C  C1046  1  0.428600  0.170700  0.168700  1
  C  C1047  1  0.571400  0.670700  0.331300  1
  C  C1048  1  0.928600  0.329300  0.831300  1
  C  C1049  1  0.078300  0.500400  0.388900  1
  C  C1050  1  0.421700  0.499600  0.888900  1
  C  C1051  1  0.578300  0.999600  0.611100  1
  C  C1052  1  0.921700  0.000400  0.111100  1
  C  C1053  1  0.052000  0.475600  0.423900  1
  C  C1054  1  0.448000  0.524400  0.923900  1
  C  C1055  1  0.552000  0.024400  0.576100  1
  C  C1056  1  0.948000  0.975600  0.076100  1
  C  C1057  1  0.042300  0.412800  0.423600  1
  C  C1058  1  0.457700  0.587200  0.923600  1
  C  C1059  1  0.542300  0.087200  0.576400  1
  C  C1060  1  0.957700  0.912800  0.076400  1
  C  C1061  1  0.806800  0.505000  0.366800  1
  C  C1062  1  0.693200  0.495000  0.866800  1
  C  C1063  1  0.306800  0.995000  0.633200  1
  C  C1064  1  0.193200  0.005000  0.133200  1
  C  C1065  1  0.800800  0.442800  0.371000  1
  C  C1066  1  0.699200  0.557200  0.871000  1
  C  C1067  1  0.300800  0.057200  0.629000  1
  C  C1068  1  0.199200  0.942800  0.129000  1
  C  C1069  1  0.839700  0.408400  0.344300  1
  C  C1070  1  0.660300  0.591600  0.844300  1
  C  C1071  1  0.339700  0.091600  0.655700  1
  C  C1072  1  0.160300  0.908400  0.155700  1
  C  C1073  1  0.837400  0.622700  0.172000  1
  C  C1074  1  0.662600  0.377300  0.672000  1
  C  C1075  1  0.337400  0.877300  0.828000  1
  C  C1076  1  0.162600  0.122700  0.328000  1
  C  C1077  1  0.788300  0.591900  0.188200  1
  C  C1078  1  0.711700  0.408100  0.688200  1
  C  C1079  1  0.288300  0.908100  0.811800  1
  C  C1080  1  0.211700  0.091900  0.311800  1
  C  C1081  1  0.758100  0.548900  0.163200  1
  C  C1082  1  0.741900  0.451100  0.663200  1
  C  C1083  1  0.258100  0.951100  0.836800  1
  C  C1084  1  0.241900  0.048900  0.336800  1
  C  C1085  1  0.400200  0.408600  0.317500  1
  C  C1086  1  0.099800  0.591400  0.817500  1
  C  C1087  1  0.900200  0.091400  0.682500  1
  C  C1088  1  0.599800  0.908600  0.182500  1
  C  C1089  1  0.331000  0.419400  0.307900  1
  C  C1090  1  0.169000  0.580600  0.807900  1
  C  C1091  1  0.831000  0.080600  0.692100  1
  C  C1092  1  0.669000  0.919400  0.192100  1
  C  C1093  1  0.308700  0.468200  0.327100  1
  C  C1094  1  0.191300  0.531800  0.827100  1
  C  C1095  1  0.808700  0.031800  0.672900  1
  C  C1096  1  0.691300  0.968200  0.172900  1
  C  C1097  1  0.711100  0.084700  0.447400  1
  C  C1098  1  0.788900  0.915300  0.947400  1
  C  C1099  1  0.211100  0.415300  0.552600  1
  C  C1100  1  0.288900  0.584700  0.052600  1
  C  C1101  1  0.641000  0.093200  0.442600  1
  C  C1102  1  0.859000  0.906800  0.942600  1
  C  C1103  1  0.141000  0.406800  0.557400  1
  C  C1104  1  0.359000  0.593200  0.057400  1
  C  C1105  1  0.599600  0.085900  0.476200  1
  C  C1106  1  0.900400  0.914100  0.976200  1
  C  C1107  1  0.099600  0.414100  0.523800  1
  C  C1108  1  0.400400  0.585900  0.023800  1
  Br  Br1109  1  0.686380  0.641700  0.414755  1
  Br  Br1110  1  0.813620  0.358300  0.914755  1
  Br  Br1111  1  0.186380  0.858300  0.585245  1
  Br  Br1112  1  0.313620  0.141700  0.085245  1
  Br  Br1113  1  0.518560  0.489130  0.673983  1
  Br  Br1114  1  0.981440  0.510870  0.173983  1
  Br  Br1115  1  0.018560  0.010870  0.326017  1
  Br  Br1116  1  0.481440  0.989130  0.826017  1
  Br  Br1117  1  0.329300  0.335800  0.396600  1
  Br  Br1118  1  0.170700  0.664200  0.896600  1
  Br  Br1119  1  0.829300  0.164200  0.603400  1
  Br  Br1120  1  0.670700  0.835800  0.103400  1
  Br  Br1121  1  0.222790  0.447240  0.445460  1
  Br  Br1122  1  0.277210  0.552760  0.945460  1
  Br  Br1123  1  0.722790  0.052760  0.554540  1
  Br  Br1124  1  0.777210  0.947240  0.054540  1
  Br  Br1125  1  0.316300  0.335000  0.397200  1
  Br  Br1126  1  0.183700  0.665000  0.897200  1
  Br  Br1127  1  0.816300  0.165000  0.602800  1
  Br  Br1128  1  0.683700  0.835000  0.102800  1
  Br  Br1129  1  0.232500  0.434800  0.453700  1
  Br  Br1130  1  0.267500  0.565200  0.953700  1
  Br  Br1131  1  0.732500  0.065200  0.546300  1
  Br  Br1132  1  0.767500  0.934800  0.046300  1
  N  N1133  1  0.324000  0.741400  0.495200  1
  N  N1134  1  0.176000  0.258600  0.995200  1
  N  N1135  1  0.824000  0.758600  0.504800  1
  N  N1136  1  0.676000  0.241400  0.004800  1
  N  N1137  1  0.285600  0.697790  0.559400  1
  N  N1138  1  0.214400  0.302210  0.059400  1
  N  N1139  1  0.785600  0.802210  0.440600  1
  N  N1140  1  0.714400  0.197790  0.940600  1
  N  N1141  1  0.311700  0.587990  0.532200  1
  N  N1142  1  0.188300  0.412010  0.032200  1
  N  N1143  1  0.811700  0.912010  0.467800  1
  N  N1144  1  0.688300  0.087990  0.967800  1
  N  N1145  1  0.240400  0.651100  0.488880  1
  N  N1146  1  0.259600  0.348900  0.988880  1
  N  N1147  1  0.740400  0.848900  0.511120  1
  N  N1148  1  0.759600  0.151100  0.011120  1
  N  N1149  1  0.666800  0.283870  0.479880  1
  N  N1150  1  0.833200  0.716130  0.979880  1
  N  N1151  1  0.166800  0.216130  0.520120  1
  N  N1152  1  0.333200  0.783870  0.020120  1
  N  N1153  1  0.687800  0.336000  0.416940  1
  N  N1154  1  0.812200  0.664000  0.916940  1
  N  N1155  1  0.187800  0.164000  0.583060  1
  N  N1156  1  0.312200  0.836000  0.083060  1
  N  N1157  1  0.563000  0.288600  0.428870  1
  N  N1158  1  0.937000  0.711400  0.928870  1
  N  N1159  1  0.063000  0.211400  0.571130  1
  N  N1160  1  0.437000  0.788600  0.071130  1
  N  N1161  1  0.572700  0.396300  0.425290  1
  N  N1162  1  0.927300  0.603700  0.925290  1
  N  N1163  1  0.072700  0.103700  0.574710  1
  N  N1164  1  0.427300  0.896300  0.074710  1
  N  N1165  1  0.667600  0.394500  0.479440  1
  N  N1166  1  0.832400  0.605500  0.979440  1
  N  N1167  1  0.167600  0.105500  0.520560  1
  N  N1168  1  0.332400  0.894500  0.020560  1
  N  N1169  1  0.556500  0.343820  0.491900  1
  N  N1170  1  0.943500  0.656180  0.991900  1
  N  N1171  1  0.056500  0.156180  0.508100  1
  N  N1172  1  0.443500  0.843820  0.008100  1
  N  N1173  1  0.397600  0.671990  0.536660  1
  N  N1174  1  0.102400  0.328010  0.036660  1
  N  N1175  1  0.897600  0.828010  0.463340  1
  N  N1176  1  0.602400  0.171990  0.963340  1
  N  N1177  1  0.357400  0.635700  0.469420  1
  N  N1178  1  0.142600  0.364300  0.969420  1
  N  N1179  1  0.857400  0.864300  0.530580  1
  N  N1180  1  0.642600  0.135700  0.030580  1
  N  N1181  1  0.534600  0.572590  0.591550  1
  N  N1182  1  0.965400  0.427410  0.091550  1
  N  N1183  1  0.034600  0.927410  0.408450  1
  N  N1184  1  0.465400  0.072590  0.908450  1
  N  N1185  1  0.616100  0.465620  0.588430  1
  N  N1186  1  0.883900  0.534380  0.088430  1
  N  N1187  1  0.116100  0.034380  0.411570  1
  N  N1188  1  0.383900  0.965620  0.911570  1
  N  N1189  1  0.478300  0.446100  0.580270  1
  N  N1190  1  0.021700  0.553900  0.080270  1
  N  N1191  1  0.978300  0.053900  0.419730  1
  N  N1192  1  0.521700  0.946100  0.919730  1
  N  N1193  1  0.535400  0.597000  0.437940  1
  N  N1194  1  0.964600  0.403000  0.937940  1
  N  N1195  1  0.035400  0.903000  0.562060  1
  N  N1196  1  0.464600  0.097000  0.062060  1
  N  N1197  1  0.587300  0.677280  0.500720  1
  N  N1198  1  0.912700  0.322720  0.000720  1
  N  N1199  1  0.087300  0.822720  0.499280  1
  N  N1200  1  0.412700  0.177280  0.999280  1
  N  N1201  1  0.655400  0.563700  0.494170  1
  N  N1202  1  0.844600  0.436300  0.994170  1
  N  N1203  1  0.155400  0.936300  0.505830  1
  N  N1204  1  0.344600  0.063700  0.005830  1
  N  N1205  1  0.379600  0.474900  0.419060  1
  N  N1206  1  0.120400  0.525100  0.919060  1
  N  N1207  1  0.879600  0.025100  0.580940  1
  N  N1208  1  0.620400  0.974900  0.080940  1
  N  N1209  1  0.366500  0.386600  0.486460  1
  N  N1210  1  0.133500  0.613400  0.986460  1
  N  N1211  1  0.866500  0.113400  0.513540  1
  N  N1212  1  0.633500  0.886600  0.013540  1
  N  N1213  1  0.824200  0.519600  0.583450  1
  N  N1214  1  0.675800  0.480400  0.083450  1
  N  N1215  1  0.324200  0.980400  0.416550  1
  N  N1216  1  0.175800  0.019600  0.916550  1
  N  N1217  1  0.762800  0.524600  0.573400  1
  N  N1218  1  0.737200  0.475400  0.073400  1
  N  N1219  1  0.262800  0.975400  0.426600  1
  N  N1220  1  0.237200  0.024600  0.926600  1
  N  N1221  1  0.861800  0.482700  0.522400  1
  N  N1222  1  0.638200  0.517300  0.022400  1
  N  N1223  1  0.361800  0.017300  0.477600  1
  N  N1224  1  0.138200  0.982700  0.977600  1
  N  N1225  1  0.804200  0.483460  0.504570  1
  N  N1226  1  0.695800  0.516540  0.004570  1
  N  N1227  1  0.304200  0.016540  0.495430  1
  N  N1228  1  0.195800  0.983460  0.995430  1
  N  N1229  1  0.830300  0.418400  0.574200  1
  N  N1230  1  0.669700  0.581600  0.074200  1
  N  N1231  1  0.330300  0.081600  0.425800  1
  N  N1232  1  0.169700  0.918400  0.925800  1
  N  N1233  1  0.770300  0.411400  0.561180  1
  N  N1234  1  0.729700  0.588600  0.061180  1
  N  N1235  1  0.270300  0.088600  0.438820  1
  N  N1236  1  0.229700  0.911400  0.938820  1
  N  N1237  1  0.599000  0.717270  0.600990  1
  N  N1238  1  0.901000  0.282730  0.100990  1
  N  N1239  1  0.099000  0.782730  0.399010  1
  N  N1240  1  0.401000  0.217270  0.899010  1
  N  N1241  1  0.599700  0.759400  0.626640  1
  N  N1242  1  0.900300  0.240600  0.126640  1
  N  N1243  1  0.099700  0.740600  0.373360  1
  N  N1244  1  0.400300  0.259400  0.873360  1
  N  N1245  1  0.501200  0.776460  0.569170  1
  N  N1246  1  0.998800  0.223540  0.069170  1
  N  N1247  1  0.001200  0.723540  0.430830  1
  N  N1248  1  0.498800  0.276460  0.930830  1
  N  N1249  1  0.508900  0.810800  0.600610  1
  N  N1250  1  0.991100  0.189200  0.100610  1
  N  N1251  1  0.008900  0.689200  0.399390  1
  N  N1252  1  0.491100  0.310800  0.899390  1
  N  N1253  1  0.493500  0.743100  0.650040  1
  N  N1254  1  0.006500  0.256900  0.150040  1
  N  N1255  1  0.993500  0.756900  0.349960  1
  N  N1256  1  0.506500  0.243100  0.849960  1
  N  N1257  1  0.477500  0.700900  0.626400  1
  N  N1258  1  0.022500  0.299100  0.126400  1
  N  N1259  1  0.977500  0.799100  0.373600  1
  N  N1260  1  0.522500  0.200900  0.873600  1
  N  N1261  1  0.418900  0.215510  0.551860  1
  N  N1262  1  0.081100  0.784490  0.051860  1
  N  N1263  1  0.918900  0.284490  0.448140  1
  N  N1264  1  0.581100  0.715510  0.948140  1
  N  N1265  1  0.427900  0.257600  0.526960  1
  N  N1266  1  0.072100  0.742400  0.026960  1
  N  N1267  1  0.927900  0.242400  0.473040  1
  N  N1268  1  0.572100  0.757600  0.973040  1
  N  N1269  1  0.493800  0.248800  0.599000  1
  N  N1270  1  0.006200  0.751200  0.099000  1
  N  N1271  1  0.993800  0.251200  0.401000  1
  N  N1272  1  0.506200  0.748800  0.901000  1
  N  N1273  1  0.508500  0.298060  0.582230  1
  N  N1274  1  0.991500  0.701940  0.082230  1
  N  N1275  1  0.008500  0.201940  0.417770  1
  N  N1276  1  0.491500  0.798060  0.917770  1
  N  N1277  1  0.380500  0.272700  0.604830  1
  N  N1278  1  0.119500  0.727300  0.104830  1
  N  N1279  1  0.880500  0.227300  0.395170  1
  N  N1280  1  0.619500  0.772700  0.895170  1
  N  N1281  1  0.383200  0.321700  0.586250  1
  N  N1282  1  0.116800  0.678300  0.086250  1
  N  N1283  1  0.883200  0.178300  0.413750  1
  N  N1284  1  0.616800  0.821700  0.913750  1
  N  N1285  1  0.446500  0.571500  0.346160  1
  N  N1286  1  0.053500  0.428500  0.846160  1
  N  N1287  1  0.946500  0.928500  0.653840  1
  N  N1288  1  0.553500  0.071500  0.153840  1
  N  N1289  1  0.428000  0.599900  0.314870  1
  N  N1290  1  0.072000  0.400100  0.814870  1
  N  N1291  1  0.928000  0.900100  0.685130  1
  N  N1292  1  0.572000  0.099900  0.185130  1
  N  N1293  1  0.426000  0.671500  0.380930  1
  N  N1294  1  0.074000  0.328500  0.880930  1
  N  N1295  1  0.926000  0.828500  0.619070  1
  N  N1296  1  0.574000  0.171500  0.119070  1
  N  N1297  1  0.409600  0.689900  0.346810  1
  N  N1298  1  0.090400  0.310100  0.846810  1
  N  N1299  1  0.909600  0.810100  0.653190  1
  N  N1300  1  0.590400  0.189900  0.153190  1
  N  N1301  1  0.327200  0.598600  0.371910  1
  N  N1302  1  0.172800  0.401400  0.871910  1
  N  N1303  1  0.827200  0.901400  0.628090  1
  N  N1304  1  0.672800  0.098600  0.128090  1
  N  N1305  1  0.323000  0.622600  0.337780  1
  N  N1306  1  0.177000  0.377400  0.837780  1
  N  N1307  1  0.823000  0.877400  0.662220  1
  N  N1308  1  0.677000  0.122600  0.162220  1
  O  O1309  1  0.066400  0.745200  0.703100  1
  O  O1310  1  0.433600  0.254800  0.203100  1
  O  O1311  1  0.566400  0.754800  0.296900  1
  O  O1312  1  0.933600  0.245200  0.796900  1
  O  O1313  1  0.538400  0.471430  0.488390  1
  O  O1314  1  0.961600  0.528570  0.988390  1
  O  O1315  1  0.038400  0.028570  0.511610  1
  O  O1316  1  0.461600  0.971430  0.011610  1
  O  O1317  1  0.042100  0.502700  0.452090  1
  O  O1318  1  0.457900  0.497300  0.952090  1
  O  O1319  1  0.542100  0.997300  0.547910  1
  O  O1320  1  0.957900  0.002700  0.047910  1
  O  O1321  1  0.407200  0.517500  0.504600  1
  O  O1322  1  0.092800  0.482500  0.004600  1
  O  O1323  1  0.907200  0.982500  0.495400  1
  O  O1324  1  0.592800  0.017500  0.995400  1
  O  O1325  1  0.768200  0.423600  0.394640  1
  O  O1326  1  0.731800  0.576400  0.894640  1
  O  O1327  1  0.268200  0.076400  0.605360  1
  O  O1328  1  0.231800  0.923600  0.105360  1
  O  O1329  1  0.765700  0.605200  0.217510  1
  O  O1330  1  0.734300  0.394800  0.717510  1
  O  O1331  1  0.265700  0.894800  0.782490  1
  O  O1332  1  0.234300  0.105200  0.282490  1
  O  O1333  1  0.300900  0.389600  0.286490  1
  O  O1334  1  0.199100  0.610400  0.786490  1
  O  O1335  1  0.800900  0.110400  0.713510  1
  O  O1336  1  0.699100  0.889600  0.213510  1
  O  O1337  1  0.623500  0.103700  0.412100  1
  O  O1338  1  0.876500  0.896300  0.912100  1
  O  O1339  1  0.123500  0.396300  0.587900  1
  O  O1340  1  0.376500  0.603700  0.087900  1
  O  O1341  1  0.434100  0.542500  0.505300  1
  O  O1342  1  0.065900  0.457500  0.005300  1
  O  O1343  1  0.934100  0.957500  0.494700  1
  O  O1344  1  0.565900  0.042500  0.994700  1
